/Users/adlvdl/projects/cyp_competition/data/structures/20260917/prepared/4NY4_box.pdb
 OpenBabel09172623213D

 34 38  0  0  1  0  0  0  0  0999 V2000
  -25.7500  -19.9400   -9.0950 C   0  0  0  0  0  0  0  0  0  0  0  0
  -24.6420  -19.1770   -8.4160 C   0  0  0  0  0  0  0  0  0  0  0  0
  -23.7960  -18.3770   -9.1600 C   0  0  0  0  0  0  0  0  0  0  0  0
  -22.7790  -17.6770   -8.5380 C   0  0  0  0  0  0  0  0  0  0  0  0
  -22.6060  -17.7760   -7.1700 C   0  0  0  0  0  0  0  0  0  0  0  0
  -23.4480  -18.5740   -6.4210 C   0  0  0  0  0  0  0  0  0  0  0  0
  -24.4700  -19.2780   -7.0430 C   0  0  0  0  0  0  0  0  0  0  0  0
  -25.3000  -20.0640   -6.3090 O   0  0  0  0  0  0  0  0  0  0  0  0
  -24.7150  -21.1910   -5.6540 C   0  0  0  0  0  0  0  0  0  0  0  0
  -21.8580  -16.8050   -9.3520 C   0  0  1  0  0  0  0  0  0  0  0  0
  -22.5630  -15.5490   -9.7860 C   0  0  0  0  0  0  0  0  0  0  0  0
  -23.5240  -15.3500  -10.6180 N   0  0  0  0  0  0  0  0  0  0  0  0
  -24.0490  -13.9920  -10.8770 C   0  0  0  0  0  0  0  0  0  0  0  0
  -23.0940  -12.8460  -10.5040 C   0  0  0  0  0  0  0  0  0  0  0  0
  -22.4560  -13.1320   -9.1300 C   0  0  0  0  0  0  0  0  0  0  0  0
  -21.9500  -14.5200   -9.0940 N   0  0  0  0  0  0  0  0  0  0  0  0
  -20.8670  -15.0110   -8.4210 C   0  0  0  0  0  0  0  0  0  0  0  0
  -20.7480  -16.3030   -8.5220 N   0  0  0  0  0  0  0  0  0  0  0  0
  -19.9920  -14.2220   -7.7120 N   0  0  0  0  0  0  0  0  0  0  0  0
  -22.0900  -12.7420  -11.4720 F   0  0  0  0  0  0  0  0  0  0  0  0
  -23.8090  -11.6450  -10.4450 F   0  0  0  0  0  0  0  0  0  0  0  0
  -21.3300  -17.5600  -10.5450 C   0  0  0  0  0  0  0  0  0  0  0  0
  -21.3000  -16.9530  -11.7880 C   0  0  0  0  0  0  0  0  0  0  0  0
  -20.8170  -17.6390  -12.8870 C   0  0  0  0  0  0  0  0  0  0  0  0
  -20.3590  -18.9370  -12.7480 C   0  0  0  0  0  0  0  0  0  0  0  0
  -20.3870  -19.5520  -11.4960 C   0  0  0  0  0  0  0  0  0  0  0  0
  -20.8760  -18.8540  -10.3940 C   0  0  0  0  0  0  0  0  0  0  0  0
  -19.8980  -20.9440  -11.3390 C   0  0  0  0  0  0  0  0  0  0  0  0
  -20.6410  -22.0190  -11.8370 C   0  0  0  0  0  0  0  0  0  0  0  0
  -20.1410  -23.2980  -11.6650 C   0  0  0  0  0  0  0  0  0  0  0  0
  -18.9340  -23.4710  -11.0130 C   0  0  0  0  0  0  0  0  0  0  0  0
  -18.2550  -22.4370  -10.5540 N   0  0  0  0  0  0  0  0  0  0  0  0
  -18.6900  -21.2020  -10.6940 C   0  0  0  0  0  0  0  0  0  0  0  0
  -19.8870  -19.6070  -13.8210 F   0  0  0  0  0  0  0  0  0  0  0  0
  1  2  1  0  0  0  0
  2  7  1  0  0  0  0
  3  4  1  0  0  0  0
  3  2  2  0  0  0  0
  4  5  2  0  0  0  0
  5  6  1  0  0  0  0
  7  6  2  0  0  0  0
  7  8  1  0  0  0  0
  8  9  1  0  0  0  0
 10 22  1  6  0  0  0
 10  4  1  0  0  0  0
 10 18  1  0  0  0  0
 11 10  1  0  0  0  0
 11 16  1  0  0  0  0
 12 11  2  0  0  0  0
 13 12  1  0  0  0  0
 13 14  1  0  0  0  0
 14 21  1  0  0  0  0
 14 15  1  0  0  0  0
 15 16  1  0  0  0  0
 16 17  1  0  0  0  0
 17 19  1  0  0  0  0
 18 17  2  0  0  0  0
 20 14  1  0  0  0  0
 22 27  1  0  0  0  0
 23 22  2  0  0  0  0
 24 25  2  0  0  0  0
 24 23  1  0  0  0  0
 25 26  1  0  0  0  0
 26 28  1  0  0  0  0
 26 27  2  0  0  0  0
 28 33  1  0  0  0  0
 29 30  1  0  0  0  0
 29 28  2  0  0  0  0
 30 31  2  0  0  0  0
 31 32  1  0  0  0  0
 33 32  2  0  0  0  0
 34 25  1  0  0  0  0
M  END
$$$$
