OCNT-0018684


 21 22  0  0  0  0  0  0  0  0999 V2000
   -3.8679   24.5319    2.7575 O   0  0  0  0  0  0  0  0  0  0  0  0
   -4.7082   23.5004    2.4105 C   0  0  0  0  0  0  0  0  0  0  0  0
   -5.6380   23.6733    1.3624 C   0  0  0  0  0  0  0  0  0  0  0  0
   -5.7724   24.8793    0.6428 C   0  0  0  0  0  0  0  0  0  0  0  0
   -6.7134   25.0099   -0.3797 C   0  0  0  0  0  0  0  0  0  0  0  0
   -7.5376   23.9380   -0.7033 C   0  0  0  0  0  0  0  0  0  0  0  0
   -7.4192   22.7338   -0.0080 C   0  0  0  0  0  0  0  0  0  0  0  0
   -6.4756   22.5850    1.0219 C   0  0  0  0  0  0  0  0  0  0  0  0
   -6.3485   21.3688    1.7150 C   0  0  0  0  0  0  0  0  0  0  0  0
   -5.4009   21.2138    2.7280 C   0  0  0  0  0  0  0  0  0  0  0  0
   -4.5742   22.2778    3.0723 C   0  0  0  0  0  0  0  0  0  0  0  0
   -4.1273   24.9481    4.1119 C   0  0  0  0  0  0  0  0  0  0  0  0
   -4.5048   26.4325    4.0714 C   0  0  0  0  0  0  0  0  0  0  0  0
   -3.9172   27.0363    2.9040 O   0  0  0  0  0  0  0  0  0  0  0  0
   -4.2094   26.4859    2.1525 H   0  0  0  0  0  0  0  0  0  0  0  0
   -3.9953   27.1660    5.3242 C   0  0  0  0  0  0  0  0  0  0  0  0
   -4.6100   28.4970    5.4088 N   0  0  0  0  0  0  0  0  0  0  0  0
   -4.4967   28.8336    6.3698 H   0  0  0  0  0  0  0  0  0  0  0  0
   -6.2473   29.7371    4.1333 C   0  0  0  0  0  0  0  0  0  0  0  0
   -6.0225   28.5117    5.0219 C   0  0  0  0  0  0  0  0  0  0  0  0
   -6.9573   28.5745    6.2317 C   0  0  0  0  0  0  0  0  0  0  0  0
 19 20  1  0  0  0
 20 21  1  0  0  0
 20 17  1  0  0  0
 17 16  1  0  0  0
 16 13  1  0  0  0
 13 14  1  0  0  0
 13 12  1  0  0  0
 12  1  1  0  0  0
  1  2  1  0  0  0
  2  3  1  0  0  0
  3  4  2  0  0  0
  4  5  1  0  0  0
  5  6  2  0  0  0
  6  7  1  0  0  0
  7  8  2  0  0  0
  8  9  1  0  0  0
  9 10  2  0  0  0
 10 11  1  0  0  0
 11  2  2  0  0  0
  8  3  1  0  0  0
 17 18  1  0  0  0
 14 15  1  0  0  0
M  END
> <minimizedAffinity>
-8.01607

$$$$
OCNT-0020887


 14 14  0  0  0  0  0  0  0  0999 V2000
   -5.4448   24.5410    0.9264 C   0  0  0  0  0  0  0  0  0  0  0  0
   -5.8238   23.2344    1.2885 C   0  0  0  0  0  0  0  0  0  0  0  0
   -6.9364   22.6466    0.6762 C   0  0  0  0  0  0  0  0  0  0  0  0
   -7.6684   23.3440   -0.2883 C   0  0  0  0  0  0  0  0  0  0  0  0
   -7.2960   24.6340   -0.6503 C   0  0  0  0  0  0  0  0  0  0  0  0
   -6.1905   25.2295   -0.0472 C   0  0  0  0  0  0  0  0  0  0  0  0
   -5.0447   22.6226    2.2347 O   0  0  0  0  0  0  0  0  0  0  0  0
   -5.4301   21.3250    2.6665 C   0  0  0  0  0  0  0  0  0  0  0  0
   -4.2443   25.2328    1.5469 C   0  0  0  0  0  0  0  0  0  0  0  0
   -4.5556   25.9051    2.9059 C   0  0  0  0  0  0  0  0  0  0  0  0
   -5.7816   26.8231    2.7993 C   0  0  0  0  0  0  0  0  0  0  0  0
   -2.2865   25.9247    3.8126 C   0  0  0  0  0  0  0  0  0  0  0  0
   -3.4234   26.7292    3.3813 N   0  0  0  0  0  0  0  0  0  0  0  0
   -3.7317   27.2954    4.1720 H   0  0  0  0  0  0  0  0  0  0  0  0
 12 13  1  0  0  0
 13 10  1  0  0  0
 10 11  1  0  0  0
 10  9  1  0  0  0
  9  1  1  0  0  0
  1  2  1  0  0  0
  2  7  1  0  0  0
  7  8  1  0  0  0
  2  3  2  0  0  0
  3  4  1  0  0  0
  4  5  2  0  0  0
  5  6  1  0  0  0
  6  1  2  0  0  0
 13 14  1  0  0  0
M  END
> <minimizedAffinity>
-6.45026

$$$$
OCNT-0021749


 21 23  0  0  0  0  0  0  0  0999 V2000
   -2.3209   27.3710    7.6173 O   0  0  0  0  0  0  0  0  0  0  0  0
   -3.1786   28.5290    7.4890 S   0  0  0  0  0  0  0  0  0  0  0  0
   -3.9835   28.9994    8.5956 O   0  0  0  0  0  0  0  0  0  0  0  0
   -4.2376   28.2141    6.0840 C   0  0  0  0  0  0  0  0  0  0  0  0
   -5.4753   28.8824    6.0629 C   0  0  0  0  0  0  0  0  0  0  0  0
   -6.3780   28.6546    5.0320 C   0  0  0  0  0  0  0  0  0  0  0  0
   -6.0477   27.7656    4.0147 C   0  0  0  0  0  0  0  0  0  0  0  0
   -4.8038   27.1099    4.0045 C   0  0  0  0  0  0  0  0  0  0  0  0
   -4.4686   26.2353    2.9672 C   0  0  0  0  0  0  0  0  0  0  0  0
   -3.2946   25.5776    2.8592 N   0  0  0  0  0  0  0  0  0  0  0  0
   -2.3946   25.8083    3.8300 C   0  0  0  0  0  0  0  0  0  0  0  0
   -2.6205   26.6543    4.9067 C   0  0  0  0  0  0  0  0  0  0  0  0
   -3.8592   27.3269    5.0357 C   0  0  0  0  0  0  0  0  0  0  0  0
   -2.2274   29.8522    6.9878 N   0  0  0  0  0  0  0  0  0  0  0  0
   -2.8904   31.1649    6.8383 C   0  0  0  0  0  0  0  0  0  0  0  0
   -2.9336   31.9991    8.1150 C   0  0  0  0  0  0  0  0  0  0  0  0
   -1.5655   32.5322    8.5322 C   0  0  0  0  0  0  0  0  0  0  0  0
   -0.7353   31.6453    9.3381 N   0  0  0  0  0  0  0  0  0  0  0  0
   -0.7314   30.2239    8.9742 C   0  0  0  0  0  0  0  0  0  0  0  0
   -0.8253   29.8950    7.4774 C   0  0  0  0  0  0  0  0  0  0  0  0
   -1.0058   31.7206   10.3199 H   0  0  0  0  0  0  0  0  0  0  0  0
  1  2  2  0  0  0
  2  3  2  0  0  0
  2  4  1  0  0  0
  4  5  2  0  0  0
  5  6  1  0  0  0
  6  7  2  0  0  0
  7  8  1  0  0  0
  8  9  2  0  0  0
  9 10  1  0  0  0
 10 11  2  0  0  0
 11 12  1  0  0  0
 12 13  2  0  0  0
  2 14  1  0  0  0
 14 15  1  0  0  0
 15 16  1  0  0  0
 16 17  1  0  0  0
 17 18  1  0  0  0
 18 19  1  0  0  0
 19 20  1  0  0  0
 13  4  1  0  0  0
 20 14  1  0  0  0
 13  8  1  0  0  0
 18 21  1  0  0  0
M  END
> <minimizedAffinity>
-7.70059

$$$$
OCNT-0022006


 36 40  0  0  0  0  0  0  0  0999 V2000
   -4.6490   25.6727    4.0085 C   0  0  0  0  0  0  0  0  0  0  0  0
   -4.4230   25.0144    2.8103 C   0  0  0  0  0  0  0  0  0  0  0  0
   -2.7673   24.9796    2.4014 S   0  0  0  0  0  0  0  0  0  0  0  0
   -2.3124   25.8350    3.8256 C   0  0  0  0  0  0  0  0  0  0  0  0
   -1.0080   26.2044    4.2087 C   0  0  0  0  0  0  0  0  0  0  0  0
   -0.8333   26.8976    5.4055 C   0  0  0  0  0  0  0  0  0  0  0  0
    0.4421   27.2436    5.7499 O   0  0  0  0  0  0  0  0  0  0  0  0
   -1.9086   27.2242    6.2149 C   0  0  0  0  0  0  0  0  0  0  0  0
   -3.2020   26.8529    5.8289 C   0  0  0  0  0  0  0  0  0  0  0  0
   -3.4245   26.1481    4.6140 C   0  0  0  0  0  0  0  0  0  0  0  0
    0.4259   27.7009    6.6077 H   0  0  0  0  0  0  0  0  0  0  0  0
   -5.3902   24.4001    1.9024 C   0  0  0  0  0  0  0  0  0  0  0  0
   -5.7083   23.0405    2.0222 C   0  0  0  0  0  0  0  0  0  0  0  0
   -6.6180   22.4547    1.1389 C   0  0  0  0  0  0  0  0  0  0  0  0
   -7.2060   23.2261    0.1384 C   0  0  0  0  0  0  0  0  0  0  0  0
   -8.0885   22.6144   -0.7025 O   0  0  0  0  0  0  0  0  0  0  0  0
   -6.9031   24.5786    0.0068 C   0  0  0  0  0  0  0  0  0  0  0  0
   -5.9913   25.1647    0.8891 C   0  0  0  0  0  0  0  0  0  0  0  0
   -8.3973   23.2654   -1.3532 H   0  0  0  0  0  0  0  0  0  0  0  0
   -6.7910   24.9131    4.6088 O   0  0  0  0  0  0  0  0  0  0  0  0
   -5.9850   25.8441    4.5699 C   0  0  0  0  0  0  0  0  0  0  0  0
   -6.3563   27.1849    5.1198 C   0  0  0  0  0  0  0  0  0  0  0  0
   -6.9431   27.3492    6.3803 C   0  0  0  0  0  0  0  0  0  0  0  0
   -7.2702   28.6294    6.8391 C   0  0  0  0  0  0  0  0  0  0  0  0
   -7.0150   29.7587    6.0575 C   0  0  0  0  0  0  0  0  0  0  0  0
   -6.4242   29.5996    4.8049 C   0  0  0  0  0  0  0  0  0  0  0  0
   -6.0961   28.3199    4.3395 C   0  0  0  0  0  0  0  0  0  0  0  0
   -7.3862   30.9429    6.6299 O   0  0  0  0  0  0  0  0  0  0  0  0
   -6.8531   31.2389    7.9255 C   0  0  0  0  0  0  0  0  0  0  0  0
   -5.3860   31.6652    7.7464 C   0  0  0  0  0  0  0  0  0  0  0  0
   -4.4068   30.6391    8.1498 N   0  0  0  0  0  0  0  0  0  0  0  0
   -3.7878   30.8894    9.4606 C   0  0  0  0  0  0  0  0  0  0  0  0
   -2.7960   32.0559    9.4748 C   0  0  0  0  0  0  0  0  0  0  0  0
   -1.7313   31.8937    8.3952 C   0  0  0  0  0  0  0  0  0  0  0  0
   -2.3655   31.6111    7.0385 C   0  0  0  0  0  0  0  0  0  0  0  0
   -3.3657   30.4542    7.1238 C   0  0  0  0  0  0  0  0  0  0  0  0
 20 21  2  0  0  0
 21 22  1  0  0  0
 22 23  1  0  0  0
 23 24  2  0  0  0
 24 25  1  0  0  0
 25 28  1  0  0  0
 28 29  1  0  0  0
 29 30  1  0  0  0
 30 31  1  0  0  0
 31 32  1  0  0  0
 32 33  1  0  0  0
 33 34  1  0  0  0
 34 35  1  0  0  0
 35 36  1  0  0  0
 25 26  2  0  0  0
 26 27  1  0  0  0
 21  1  1  0  0  0
  1  2  2  0  0  0
  2 12  1  0  0  0
 12 13  1  0  0  0
 13 14  2  0  0  0
 14 15  1  0  0  0
 15 16  1  0  0  0
 15 17  2  0  0  0
 17 18  1  0  0  0
  2  3  1  0  0  0
  3  4  1  0  0  0
  4  5  2  0  0  0
  5  6  1  0  0  0
  6  7  1  0  0  0
  6  8  2  0  0  0
  8  9  1  0  0  0
  9 10  2  0  0  0
 27 22  2  0  0  0
 10  1  1  0  0  0
 36 31  1  0  0  0
 18 12  2  0  0  0
 10  4  1  0  0  0
 16 19  1  0  0  0
  7 11  1  0  0  0
M  END
> <minimizedAffinity>
-9.55883

$$$$
OCNT-0022012


 23 25  0  0  0  0  0  0  0  0999 V2000
   -3.3751   30.7915    5.8296 O   0  0  0  0  0  0  0  0  0  0  0  0
   -3.2262   30.6879    7.2783 C   0  0  0  0  0  0  0  0  0  0  0  0
   -4.3258   30.7506    5.6302 H   0  0  0  0  0  0  0  0  0  0  0  0
   -3.7631   31.9913    7.8938 C   0  0  0  0  0  0  0  0  0  0  0  0
   -3.5825   32.2918    9.2594 C   0  0  0  0  0  0  0  0  0  0  0  0
   -4.0772   33.4715    9.8263 C   0  0  0  0  0  0  0  0  0  0  0  0
   -4.7754   34.3823    9.0441 C   0  0  0  0  0  0  0  0  0  0  0  0
   -4.9848   34.1080    7.6985 C   0  0  0  0  0  0  0  0  0  0  0  0
   -4.4895   32.9265    7.1350 C   0  0  0  0  0  0  0  0  0  0  0  0
   -1.6694   30.4770    7.4271 C   0  0  0  0  0  0  0  0  0  0  0  0
   -1.2678   30.0717    8.8676 C   0  0  0  0  0  0  0  0  0  0  0  0
    0.2476   30.0217    9.0515 C   0  0  0  0  0  0  0  0  0  0  0  0
    0.9038   29.0999    8.0320 C   0  0  0  0  0  0  0  0  0  0  0  0
    0.5345   29.5005    6.6100 C   0  0  0  0  0  0  0  0  0  0  0  0
   -0.9816   29.5557    6.4063 C   0  0  0  0  0  0  0  0  0  0  0  0
   -4.0646   29.4165    7.6311 C   0  0  0  0  0  0  0  0  0  0  0  0
   -5.4504   29.2393    6.9939 C   0  0  0  0  0  0  0  0  0  0  0  0
   -5.3740   28.8284    5.5789 N   0  0  0  0  0  0  0  0  0  0  0  0
   -5.4299   27.3646    5.4110 C   0  0  0  0  0  0  0  0  0  0  0  0
   -6.0047   26.9034    4.0641 C   0  0  0  0  0  0  0  0  0  0  0  0
   -5.6458   27.8728    2.9491 C   0  0  0  0  0  0  0  0  0  0  0  0
   -6.1252   29.2873    3.2781 C   0  0  0  0  0  0  0  0  0  0  0  0
   -6.3930   29.5045    4.7719 C   0  0  0  0  0  0  0  0  0  0  0  0
  1  2  1  0  0  0
  2 16  1  0  0  0
 16 17  1  0  0  0
 17 18  1  0  0  0
 18 19  1  0  0  0
 19 20  1  0  0  0
 20 21  1  0  0  0
 21 22  1  0  0  0
 22 23  1  0  0  0
  2  4  1  0  0  0
  4  5  2  0  0  0
  5  6  1  0  0  0
  6  7  2  0  0  0
  7  8  1  0  0  0
  8  9  2  0  0  0
  2 10  1  0  0  0
 10 11  1  0  0  0
 11 12  1  0  0  0
 12 13  1  0  0  0
 13 14  1  0  0  0
 14 15  1  0  0  0
 23 18  1  0  0  0
  9  4  1  0  0  0
 15 10  1  0  0  0
  1  3  1  0  0  0
M  END
> <minimizedAffinity>
-9.41681

$$$$
OCNT-0022107


 33 36  0  0  0  0  0  0  0  0999 V2000
   -3.9811   32.3528    9.0495 C   0  0  0  0  0  0  0  0  0  0  0  0
   -2.6931   32.2141    8.9072 N   0  0  0  0  0  0  0  0  0  0  0  0
   -2.5228   30.8627    8.7435 N   0  0  0  0  0  0  0  0  0  0  0  0
   -3.7481   30.2061    8.8319 C   0  0  0  0  0  0  0  0  0  0  0  0
   -3.9613   29.0068    8.7624 O   0  0  0  0  0  0  0  0  0  0  0  0
   -4.6778   31.2013    9.0276 N   0  0  0  0  0  0  0  0  0  0  0  0
   -5.0009   34.3220    7.9300 C   0  0  0  0  0  0  0  0  0  0  0  0
   -4.6156   33.6975    9.2580 C   0  0  0  0  0  0  0  0  0  0  0  0
   -1.2208   30.2460    8.6329 C   0  0  0  0  0  0  0  0  0  0  0  0
   -0.9504   29.7579    7.2140 C   0  0  0  0  0  0  0  0  0  0  0  0
    0.1718   28.7183    7.1027 C   0  0  0  0  0  0  0  0  0  0  0  0
   -0.3178   27.3978    6.6920 N   0  0  0  0  0  0  0  0  0  0  0  0
   -0.1054   27.1707    5.2471 C   0  0  0  0  0  0  0  0  0  0  0  0
   -0.9103   25.9795    4.6810 C   0  0  0  0  0  0  0  0  0  0  0  0
   -2.3562   26.2083    4.8338 N   0  0  0  0  0  0  0  0  0  0  0  0
   -2.7595   27.1282    5.9091 C   0  0  0  0  0  0  0  0  0  0  0  0
   -1.7269   27.1392    7.0649 C   0  0  0  0  0  0  0  0  0  0  0  0
   -3.2814   25.5911    4.0089 C   0  0  0  0  0  0  0  0  0  0  0  0
   -3.3504   25.8735    2.6324 C   0  0  0  0  0  0  0  0  0  0  0  0
   -4.2806   25.2545    1.7878 C   0  0  0  0  0  0  0  0  0  0  0  0
   -5.1755   24.3262    2.3038 C   0  0  0  0  0  0  0  0  0  0  0  0
   -5.1319   24.0277    3.6594 C   0  0  0  0  0  0  0  0  0  0  0  0
   -6.2406   22.8833    4.3118 Cl  0  0  0  0  0  0  0  0  0  0  0  0
   -4.2014   24.6499    4.4987 C   0  0  0  0  0  0  0  0  0  0  0  0
   -6.1035   30.9429    9.1362 C   0  0  0  0  0  0  0  0  0  0  0  0
   -6.7733   30.7162    7.7768 C   0  0  0  0  0  0  0  0  0  0  0  0
   -6.8357   29.3231    7.4592 O   0  0  0  0  0  0  0  0  0  0  0  0
   -6.5851   28.9317    6.1754 C   0  0  0  0  0  0  0  0  0  0  0  0
   -6.3471   29.9804    5.2825 C   0  0  0  0  0  0  0  0  0  0  0  0
   -6.0779   29.7228    3.9376 C   0  0  0  0  0  0  0  0  0  0  0  0
   -6.0352   28.4089    3.4787 C   0  0  0  0  0  0  0  0  0  0  0  0
   -6.2545   27.3576    4.3670 C   0  0  0  0  0  0  0  0  0  0  0  0
   -6.5243   27.6172    5.7149 C   0  0  0  0  0  0  0  0  0  0  0  0
  7  8  1  0  0  0
  8  1  1  0  0  0
  1  2  2  0  0  0
  2  3  1  0  0  0
  3  9  1  0  0  0
  9 10  1  0  0  0
 10 11  1  0  0  0
 11 12  1  0  0  0
 12 13  1  0  0  0
 13 14  1  0  0  0
 14 15  1  0  0  0
 15 18  1  0  0  0
 18 19  2  0  0  0
 19 20  1  0  0  0
 20 21  2  0  0  0
 21 22  1  0  0  0
 22 23  1  0  0  0
 22 24  2  0  0  0
 15 16  1  0  0  0
 16 17  1  0  0  0
  3  4  1  0  0  0
  4  5  2  0  0  0
  4  6  1  0  0  0
  6 25  1  0  0  0
 25 26  1  0  0  0
 26 27  1  0  0  0
 27 28  1  0  0  0
 28 29  2  0  0  0
 29 30  1  0  0  0
 30 31  2  0  0  0
 31 32  1  0  0  0
 32 33  2  0  0  0
  6  1  1  0  0  0
 33 28  1  0  0  0
 17 12  1  0  0  0
 24 18  1  0  0  0
M  END
> <minimizedAffinity>
-9.33492

$$$$
OCNT-0022119


 28 31  0  0  0  0  0  0  0  0999 V2000
   -3.4663   29.0295    7.2818 N   0  0  0  0  0  0  0  0  0  0  0  0
   -2.6205   28.0888    6.6331 C   0  0  0  0  0  0  0  0  0  0  0  0
   -1.2716   27.9238    7.0042 C   0  0  0  0  0  0  0  0  0  0  0  0
   -0.4542   26.9909    6.3414 C   0  0  0  0  0  0  0  0  0  0  0  0
   -0.9506   26.2293    5.2873 C   0  0  0  0  0  0  0  0  0  0  0  0
   -2.2655   26.4030    4.8817 C   0  0  0  0  0  0  0  0  0  0  0  0
   -3.0835   27.3261    5.5413 C   0  0  0  0  0  0  0  0  0  0  0  0
   -0.5243   28.8291    8.3441 S   0  0  0  0  0  0  0  0  0  0  0  0
   -1.6813   30.1653    8.5618 C   0  0  0  0  0  0  0  0  0  0  0  0
   -1.2361   31.2653    9.3163 C   0  0  0  0  0  0  0  0  0  0  0  0
   -2.0779   32.3465    9.5639 C   0  0  0  0  0  0  0  0  0  0  0  0
   -3.3670   32.3310    9.0519 C   0  0  0  0  0  0  0  0  0  0  0  0
   -4.4130   33.6685    9.3342 Cl  0  0  0  0  0  0  0  0  0  0  0  0
   -3.8212   31.2420    8.3050 C   0  0  0  0  0  0  0  0  0  0  0  0
   -2.9970   30.1256    8.0558 C   0  0  0  0  0  0  0  0  0  0  0  0
   -4.8566   28.5764    7.5573 C   0  0  0  0  0  0  0  0  0  0  0  0
   -5.8768   29.0581    6.5121 C   0  0  0  0  0  0  0  0  0  0  0  0
   -6.7262   27.9420    5.8923 C   0  0  0  0  0  0  0  0  0  0  0  0
   -5.8044   25.1748    2.6940 N   0  0  0  0  0  0  0  0  0  0  0  0
   -5.7033   24.7378    4.1052 C   0  0  0  0  0  0  0  0  0  0  0  0
   -6.4530   25.6852    5.0695 C   0  0  0  0  0  0  0  0  0  0  0  0
   -5.9742   27.0790    4.9690 N   0  0  0  0  0  0  0  0  0  0  0  0
   -6.0848   27.5222    3.5664 C   0  0  0  0  0  0  0  0  0  0  0  0
   -5.3353   26.5753    2.5999 C   0  0  0  0  0  0  0  0  0  0  0  0
   -5.0015   24.3143    1.7962 C   0  0  0  0  0  0  0  0  0  0  0  0
   -7.2110   23.6459    1.0551 O   0  0  0  0  0  0  0  0  0  0  0  0
   -5.8529   23.2174    1.1390 C   0  0  0  0  0  0  0  0  0  0  0  0
   -7.3451   24.1973    1.8535 H   0  0  0  0  0  0  0  0  0  0  0  0
 26 27  1  0  0  0
 27 25  1  0  0  0
 25 19  1  0  0  0
 19 20  1  0  0  0
 20 21  1  0  0  0
 21 22  1  0  0  0
 22 18  1  0  0  0
 18 17  1  0  0  0
 17 16  1  0  0  0
 16  1  1  0  0  0
  1  2  1  0  0  0
  2  3  1  0  0  0
  3  4  2  0  0  0
  4  5  1  0  0  0
  5  6  2  0  0  0
  6  7  1  0  0  0
  3  8  1  0  0  0
  8  9  1  0  0  0
  9 10  1  0  0  0
 10 11  2  0  0  0
 11 12  1  0  0  0
 12 13  1  0  0  0
 12 14  2  0  0  0
 14 15  1  0  0  0
 22 23  1  0  0  0
 23 24  1  0  0  0
 24 19  1  0  0  0
 15  1  1  0  0  0
  7  2  2  0  0  0
 15  9  2  0  0  0
 26 28  1  0  0  0
M  END
> <minimizedAffinity>
-8.64056

$$$$
OCNT-0022126


 31 34  0  0  0  0  0  0  0  0999 V2000
   -2.4975   26.8526    5.7495 N   0  0  0  0  0  0  0  0  0  0  0  0
   -3.8934   26.7082    5.3052 C   0  0  0  0  0  0  0  0  0  0  0  0
   -4.0601   26.7554    3.7869 C   0  0  0  0  0  0  0  0  0  0  0  0
   -3.2424   25.6542    3.0878 C   0  0  0  0  0  0  0  0  0  0  0  0
   -2.0286   25.2244    3.9286 C   0  0  0  0  0  0  0  0  0  0  0  0
   -1.5123   26.3954    4.7589 C   0  0  0  0  0  0  0  0  0  0  0  0
   -4.0759   24.4728    2.6803 C   0  0  0  0  0  0  0  0  0  0  0  0
   -3.8741   23.2685    3.2358 N   0  0  0  0  0  0  0  0  0  0  0  0
   -4.7880   22.4171    2.6404 O   0  0  0  0  0  0  0  0  0  0  0  0
   -5.5335   23.1071    1.7383 C   0  0  0  0  0  0  0  0  0  0  0  0
   -5.1229   24.4295    1.7202 C   0  0  0  0  0  0  0  0  0  0  0  0
   -5.7666   25.3273    0.8489 C   0  0  0  0  0  0  0  0  0  0  0  0
   -6.8003   24.8375    0.0375 C   0  0  0  0  0  0  0  0  0  0  0  0
   -7.1745   23.4953    0.0956 C   0  0  0  0  0  0  0  0  0  0  0  0
   -8.1676   23.0665   -0.6951 F   0  0  0  0  0  0  0  0  0  0  0  0
   -6.5520   22.5863    0.9480 C   0  0  0  0  0  0  0  0  0  0  0  0
   -2.1639   28.1956    6.2387 C   0  0  0  0  0  0  0  0  0  0  0  0
   -0.7165   28.3553    6.7158 C   0  0  0  0  0  0  0  0  0  0  0  0
   -0.6132   28.9008    8.1391 C   0  0  0  0  0  0  0  0  0  0  0  0
   -1.9166   29.0632    8.7007 O   0  0  0  0  0  0  0  0  0  0  0  0
   -3.9195   30.3002    8.8150 C   0  0  0  0  0  0  0  0  0  0  0  0
   -2.5149   30.2969    8.6915 C   0  0  0  0  0  0  0  0  0  0  0  0
   -1.8354   31.5108    8.5525 C   0  0  0  0  0  0  0  0  0  0  0  0
   -2.5357   32.7221    8.5433 C   0  0  0  0  0  0  0  0  0  0  0  0
   -3.9269   32.7302    8.6702 C   0  0  0  0  0  0  0  0  0  0  0  0
   -4.6139   31.5155    8.8045 C   0  0  0  0  0  0  0  0  0  0  0  0
   -4.7194   33.9966    8.6603 C   0  0  0  0  0  0  0  0  0  0  0  0
   -4.6932   34.8857    9.8758 C   0  0  0  0  0  0  0  0  0  0  0  0
   -5.3765   34.3000    7.6666 O   0  0  0  0  0  0  0  0  0  0  0  0
   -5.7447   28.9986    9.6495 C   0  0  0  0  0  0  0  0  0  0  0  0
   -4.5162   29.0690    8.9391 O   0  0  0  0  0  0  0  0  0  0  0  0
 30 31  1  0  0  0
 31 21  1  0  0  0
 21 22  2  0  0  0
 22 20  1  0  0  0
 20 19  1  0  0  0
 19 18  1  0  0  0
 18 17  1  0  0  0
 17  1  1  0  0  0
  1  2  1  0  0  0
  2  3  1  0  0  0
  3  4  1  0  0  0
  4  7  1  0  0  0
  7  8  2  0  0  0
  8  9  1  0  0  0
  9 10  1  0  0  0
 10 11  1  0  0  0
 11 12  2  0  0  0
 12 13  1  0  0  0
 13 14  2  0  0  0
 14 15  1  0  0  0
 14 16  1  0  0  0
  4  5  1  0  0  0
  5  6  1  0  0  0
 22 23  1  0  0  0
 23 24  2  0  0  0
 24 25  1  0  0  0
 25 27  1  0  0  0
 27 28  1  0  0  0
 27 29  2  0  0  0
 25 26  2  0  0  0
 26 21  1  0  0  0
  6  1  1  0  0  0
 11  7  1  0  0  0
 16 10  2  0  0  0
M  END
> <minimizedAffinity>
-9.66490

$$$$
OCNT-0022127


 27 29  0  0  0  0  0  0  0  0999 V2000
   -2.8679   26.6816    5.9087 N   0  0  0  0  0  0  0  0  0  0  0  0
   -4.0118   27.5628    5.6043 C   0  0  0  0  0  0  0  0  0  0  0  0
   -4.8622   27.0509    4.4275 C   0  0  0  0  0  0  0  0  0  0  0  0
   -4.6096   25.5588    4.1384 C   0  0  0  0  0  0  0  0  0  0  0  0
   -4.9496   24.8406    5.3431 O   0  0  0  0  0  0  0  0  0  0  0  0
   -3.1097   25.3249    3.8564 C   0  0  0  0  0  0  0  0  0  0  0  0
   -2.2104   26.2795    4.6550 C   0  0  0  0  0  0  0  0  0  0  0  0
   -4.2917   25.1360    6.0028 H   0  0  0  0  0  0  0  0  0  0  0  0
   -5.4456   24.9893    2.9911 C   0  0  0  0  0  0  0  0  0  0  0  0
   -6.2613   23.8586    3.1935 C   0  0  0  0  0  0  0  0  0  0  0  0
   -7.0008   23.2980    2.1473 C   0  0  0  0  0  0  0  0  0  0  0  0
   -6.9306   23.8567    0.8752 C   0  0  0  0  0  0  0  0  0  0  0  0
   -7.8318   23.1653   -0.4185 Cl  0  0  0  0  0  0  0  0  0  0  0  0
   -6.1270   24.9689    0.6427 C   0  0  0  0  0  0  0  0  0  0  0  0
   -5.3868   25.5276    1.6916 C   0  0  0  0  0  0  0  0  0  0  0  0
   -1.9281   27.3544    6.8240 C   0  0  0  0  0  0  0  0  0  0  0  0
   -0.4855   27.2968    6.2946 C   0  0  0  0  0  0  0  0  0  0  0  0
    0.1651   28.6809    6.1781 C   0  0  0  0  0  0  0  0  0  0  0  0
    1.1893   29.0547    8.3241 O   0  0  0  0  0  0  0  0  0  0  0  0
    0.3000   29.3608    7.5310 C   0  0  0  0  0  0  0  0  0  0  0  0
   -0.6812   30.4167    7.9240 C   0  0  0  0  0  0  0  0  0  0  0  0
   -0.7382   30.9467    9.2208 C   0  0  0  0  0  0  0  0  0  0  0  0
   -1.6810   31.9331    9.5321 C   0  0  0  0  0  0  0  0  0  0  0  0
   -2.5552   32.3896    8.5495 C   0  0  0  0  0  0  0  0  0  0  0  0
   -3.4537   33.3361    8.8535 F   0  0  0  0  0  0  0  0  0  0  0  0
   -2.5050   31.8831    7.2558 C   0  0  0  0  0  0  0  0  0  0  0  0
   -1.5653   30.8983    6.9403 C   0  0  0  0  0  0  0  0  0  0  0  0
 19 20  2  0  0  0
 20 18  1  0  0  0
 18 17  1  0  0  0
 17 16  1  0  0  0
 16  1  1  0  0  0
  1  2  1  0  0  0
  2  3  1  0  0  0
  3  4  1  0  0  0
  4  5  1  0  0  0
  4  9  1  0  0  0
  9 10  1  0  0  0
 10 11  2  0  0  0
 11 12  1  0  0  0
 12 13  1  0  0  0
 12 14  2  0  0  0
 14 15  1  0  0  0
  4  6  1  0  0  0
  6  7  1  0  0  0
 20 21  1  0  0  0
 21 22  1  0  0  0
 22 23  2  0  0  0
 23 24  1  0  0  0
 24 25  1  0  0  0
 24 26  2  0  0  0
 26 27  1  0  0  0
  7  1  1  0  0  0
 27 21  2  0  0  0
 15  9  2  0  0  0
  5  8  1  0  0  0
M  END
> <minimizedAffinity>
-10.12872

$$$$
OCNT-0022128


 31 34  0  0  0  0  0  0  0  0999 V2000
   -5.4241   32.0122    9.0217 C   0  0  0  0  0  0  0  0  0  0  0  0
   -6.6145   31.3116    8.3612 C   0  0  0  0  0  0  0  0  0  0  0  0
   -6.2343   30.0685    7.5578 C   0  0  0  0  0  0  0  0  0  0  0  0
   -6.9351   30.0467    6.3124 O   0  0  0  0  0  0  0  0  0  0  0  0
   -5.8004   23.2546    5.0660 O   0  0  0  0  0  0  0  0  0  0  0  0
   -5.9031   24.3839    4.5922 C   0  0  0  0  0  0  0  0  0  0  0  0
   -5.9554   24.6330    3.1018 C   0  0  0  0  0  0  0  0  0  0  0  0
   -5.3233   25.9625    2.7230 C   0  0  0  0  0  0  0  0  0  0  0  0
   -5.8189   27.0721    3.6068 C   0  0  0  0  0  0  0  0  0  0  0  0
   -6.1451   26.7927    4.9361 C   0  0  0  0  0  0  0  0  0  0  0  0
   -6.5032   27.8188    5.8094 C   0  0  0  0  0  0  0  0  0  0  0  0
   -6.5544   29.1418    5.3599 C   0  0  0  0  0  0  0  0  0  0  0  0
   -6.2397   29.4237    4.0294 C   0  0  0  0  0  0  0  0  0  0  0  0
   -5.8634   28.3949    3.1584 C   0  0  0  0  0  0  0  0  0  0  0  0
   -6.0864   25.4745    5.3997 N   0  0  0  0  0  0  0  0  0  0  0  0
   -6.1838   25.2806    6.3886 H   0  0  0  0  0  0  0  0  0  0  0  0
   -4.2439   32.2120    8.0594 C   0  0  0  0  0  0  0  0  0  0  0  0
   -2.9435   31.9765    8.7074 N   0  0  0  0  0  0  0  0  0  0  0  0
   -2.9165   30.6489    9.3760 C   0  0  0  0  0  0  0  0  0  0  0  0
   -2.9122   29.4315    8.4190 C   0  0  0  0  0  0  0  0  0  0  0  0
   -1.8107   29.5492    7.4448 N   0  0  0  0  0  0  0  0  0  0  0  0
   -1.7448   30.8448    6.7400 C   0  0  0  0  0  0  0  0  0  0  0  0
   -1.8056   32.0166    7.7527 C   0  0  0  0  0  0  0  0  0  0  0  0
   -1.6128   28.4198    6.6282 C   0  0  0  0  0  0  0  0  0  0  0  0
   -0.4586   28.1093    5.8681 C   0  0  0  0  0  0  0  0  0  0  0  0
    0.9315   29.1592    5.8684 Cl  0  0  0  0  0  0  0  0  0  0  0  0
   -0.4263   26.9312    5.0946 C   0  0  0  0  0  0  0  0  0  0  0  0
    0.9450   26.4814    4.1334 Cl  0  0  0  0  0  0  0  0  0  0  0  0
   -1.5219   26.0634    5.0679 C   0  0  0  0  0  0  0  0  0  0  0  0
   -2.6572   26.3565    5.8154 C   0  0  0  0  0  0  0  0  0  0  0  0
   -2.6968   27.5200    6.5825 C   0  0  0  0  0  0  0  0  0  0  0  0
  5  6  2  0  0  0
  6  7  1  0  0  0
  7  8  1  0  0  0
  8  9  1  0  0  0
  9 10  2  0  0  0
 10 11  1  0  0  0
 11 12  2  0  0  0
 12  4  1  0  0  0
  4  3  1  0  0  0
  3  2  1  0  0  0
  2  1  1  0  0  0
  1 17  1  0  0  0
 17 18  1  0  0  0
 18 19  1  0  0  0
 19 20  1  0  0  0
 20 21  1  0  0  0
 21 24  1  0  0  0
 24 25  1  0  0  0
 25 26  1  0  0  0
 25 27  2  0  0  0
 27 28  1  0  0  0
 27 29  1  0  0  0
 29 30  2  0  0  0
 30 31  1  0  0  0
 21 22  1  0  0  0
 22 23  1  0  0  0
 12 13  1  0  0  0
 13 14  2  0  0  0
 10 15  1  0  0  0
 15  6  1  0  0  0
 14  9  1  0  0  0
 23 18  1  0  0  0
 31 24  2  0  0  0
 15 16  1  0  0  0
M  END
> <minimizedAffinity>
-9.81477

$$$$
OCNT-0022137


 30 34  0  0  0  0  0  0  0  0999 V2000
   -5.3878   27.7051    5.1341 N   0  0  0  0  0  0  0  0  0  0  0  0
   -6.1477   27.4287    3.9029 C   0  0  0  0  0  0  0  0  0  0  0  0
   -5.2147   27.3387    2.6959 C   0  0  0  0  0  0  0  0  0  0  0  0
   -4.1040   26.2987    2.8787 C   0  0  0  0  0  0  0  0  0  0  0  0
   -3.4487   26.4312    4.2594 C   0  0  0  0  0  0  0  0  0  0  0  0
   -4.4537   26.5977    5.4023 C   0  0  0  0  0  0  0  0  0  0  0  0
   -4.5628   24.9017    2.5545 C   0  0  0  0  0  0  0  0  0  0  0  0
   -4.0543   23.8340    3.1860 N   0  0  0  0  0  0  0  0  0  0  0  0
   -4.6934   22.7303    2.6513 O   0  0  0  0  0  0  0  0  0  0  0  0
   -5.5850   23.1321    1.7095 C   0  0  0  0  0  0  0  0  0  0  0  0
   -5.5486   24.5123    1.6047 C   0  0  0  0  0  0  0  0  0  0  0  0
   -6.4038   25.1443    0.6831 C   0  0  0  0  0  0  0  0  0  0  0  0
   -7.2545   24.3414   -0.0901 C   0  0  0  0  0  0  0  0  0  0  0  0
   -7.2492   22.9543    0.0543 C   0  0  0  0  0  0  0  0  0  0  0  0
   -8.0768   22.2220   -0.7034 F   0  0  0  0  0  0  0  0  0  0  0  0
   -6.4136   22.3047    0.9598 C   0  0  0  0  0  0  0  0  0  0  0  0
   -6.3278   27.8984    6.2603 C   0  0  0  0  0  0  0  0  0  0  0  0
   -6.5681   29.3806    6.5969 C   0  0  0  0  0  0  0  0  0  0  0  0
   -6.5718   28.9904    9.6440 C   0  0  0  0  0  0  0  0  0  0  0  0
   -5.5276   29.7775    8.8927 C   0  0  0  0  0  0  0  0  0  0  0  0
   -5.5267   29.9102    7.5522 C   0  0  0  0  0  0  0  0  0  0  0  0
   -4.4140   30.6887    6.9390 C   0  0  0  0  0  0  0  0  0  0  0  0
   -4.3872   30.8892    5.7267 O   0  0  0  0  0  0  0  0  0  0  0  0
   -3.4533   31.1457    7.8113 N   0  0  0  0  0  0  0  0  0  0  0  0
   -2.3405   31.9431    7.3218 C   0  0  0  0  0  0  0  0  0  0  0  0
   -1.0245   31.5093    7.9624 C   0  0  0  0  0  0  0  0  0  0  0  0
   -1.1418   31.2504    9.4680 C   0  0  0  0  0  0  0  0  0  0  0  0
   -2.5185   31.5855   10.0271 C   0  0  0  0  0  0  0  0  0  0  0  0
   -3.5945   30.9648    9.1654 C   0  0  0  0  0  0  0  0  0  0  0  0
   -4.5708   30.3227    9.7142 N   0  0  0  0  0  0  0  0  0  0  0  0
 19 20  1  0  0  0
 20 21  2  0  0  0
 21 18  1  0  0  0
 18 17  1  0  0  0
 17  1  1  0  0  0
  1  2  1  0  0  0
  2  3  1  0  0  0
  3  4  1  0  0  0
  4  7  1  0  0  0
  7  8  2  0  0  0
  8  9  1  0  0  0
  9 10  1  0  0  0
 10 11  1  0  0  0
 11 12  2  0  0  0
 12 13  1  0  0  0
 13 14  2  0  0  0
 14 15  1  0  0  0
 14 16  1  0  0  0
  4  5  1  0  0  0
  5  6  1  0  0  0
 21 22  1  0  0  0
 22 23  2  0  0  0
 22 24  1  0  0  0
 24 25  1  0  0  0
 25 26  1  0  0  0
 26 27  1  0  0  0
 27 28  1  0  0  0
 28 29  1  0  0  0
 29 30  2  0  0  0
 30 20  1  0  0  0
  6  1  1  0  0  0
 29 24  1  0  0  0
 11  7  1  0  0  0
 16 10  2  0  0  0
M  END
> <minimizedAffinity>
-10.72072

$$$$
OCNT-0022139


 23 26  0  0  0  0  0  0  0  0999 V2000
   -5.8108   25.0758    3.8707 C   0  0  0  0  0  0  0  0  0  0  0  0
   -5.6401   25.3147    2.5985 N   0  0  0  0  0  0  0  0  0  0  0  0
   -6.1741   24.5224    1.5725 C   0  0  0  0  0  0  0  0  0  0  0  0
   -6.5835   25.1742    0.4041 C   0  0  0  0  0  0  0  0  0  0  0  0
   -7.0433   24.4544   -0.7027 C   0  0  0  0  0  0  0  0  0  0  0  0
   -7.0822   23.0624   -0.6612 C   0  0  0  0  0  0  0  0  0  0  0  0
   -6.6692   22.3933    0.4891 C   0  0  0  0  0  0  0  0  0  0  0  0
   -6.2323   23.1230    1.5997 C   0  0  0  0  0  0  0  0  0  0  0  0
   -5.8478   22.4006    2.7063 O   0  0  0  0  0  0  0  0  0  0  0  0
   -6.6075   22.6815    3.8138 C   0  0  0  0  0  0  0  0  0  0  0  0
   -7.3349   21.6251    4.3696 C   0  0  0  0  0  0  0  0  0  0  0  0
   -8.1493   21.8504    5.4800 C   0  0  0  0  0  0  0  0  0  0  0  0
   -8.2296   23.1294    6.0294 C   0  0  0  0  0  0  0  0  0  0  0  0
   -9.2411   23.4096    7.3926 Cl  0  0  0  0  0  0  0  0  0  0  0  0
   -7.4897   24.1805    5.4915 C   0  0  0  0  0  0  0  0  0  0  0  0
   -6.6550   23.9521    4.3894 C   0  0  0  0  0  0  0  0  0  0  0  0
   -3.0025   28.1497    7.4166 C   0  0  0  0  0  0  0  0  0  0  0  0
   -3.5195   28.0903    6.0527 N   0  0  0  0  0  0  0  0  0  0  0  0
   -4.9994   28.0614    6.0547 C   0  0  0  0  0  0  0  0  0  0  0  0
   -5.6071   27.3525    4.8276 C   0  0  0  0  0  0  0  0  0  0  0  0
   -5.2009   25.9311    4.7952 N   0  0  0  0  0  0  0  0  0  0  0  0
   -3.8316   25.6742    5.2910 C   0  0  0  0  0  0  0  0  0  0  0  0
   -2.9626   26.9511    5.2959 C   0  0  0  0  0  0  0  0  0  0  0  0
 17 18  1  0  0  0
 18 19  1  0  0  0
 19 20  1  0  0  0
 20 21  1  0  0  0
 21  1  1  0  0  0
  1  2  2  0  0  0
  2  3  1  0  0  0
  3  4  2  0  0  0
  4  5  1  0  0  0
  5  6  2  0  0  0
  6  7  1  0  0  0
  7  8  2  0  0  0
  8  9  1  0  0  0
  9 10  1  0  0  0
 10 11  1  0  0  0
 11 12  2  0  0  0
 12 13  1  0  0  0
 13 14  1  0  0  0
 13 15  2  0  0  0
 15 16  1  0  0  0
 21 22  1  0  0  0
 22 23  1  0  0  0
 23 18  1  0  0  0
 16  1  1  0  0  0
  8  3  1  0  0  0
 16 10  2  0  0  0
M  END
> <minimizedAffinity>
-8.80414

$$$$
OCNT-0022141


 25 28  0  0  0  0  0  0  0  0999 V2000
   -1.2314   26.5436    5.3118 C   0  0  0  0  0  0  0  0  0  0  0  0
   -0.6662   27.1307    6.4402 C   0  0  0  0  0  0  0  0  0  0  0  0
   -1.4557   27.9043    7.2920 C   0  0  0  0  0  0  0  0  0  0  0  0
   -2.8213   28.0983    7.0310 C   0  0  0  0  0  0  0  0  0  0  0  0
   -3.7347   29.0637    8.2154 S   0  0  0  0  0  0  0  0  0  0  0  0
   -5.2309   29.4193    7.3168 C   0  0  0  0  0  0  0  0  0  0  0  0
   -5.6097   28.7151    6.1589 C   0  0  0  0  0  0  0  0  0  0  0  0
   -6.8099   29.0980    5.5272 C   0  0  0  0  0  0  0  0  0  0  0  0
   -7.6261   30.1067    6.0468 C   0  0  0  0  0  0  0  0  0  0  0  0
   -7.2530   30.7692    7.2080 C   0  0  0  0  0  0  0  0  0  0  0  0
   -6.0585   30.4290    7.8379 C   0  0  0  0  0  0  0  0  0  0  0  0
   -4.7972   27.6928    5.5942 N   0  0  0  0  0  0  0  0  0  0  0  0
   -3.4180   27.5088    5.9022 C   0  0  0  0  0  0  0  0  0  0  0  0
   -2.5897   26.7560    5.0422 C   0  0  0  0  0  0  0  0  0  0  0  0
    0.9635   26.7852    3.6400 C   0  0  0  0  0  0  0  0  0  0  0  0
   -0.2730   25.5677    4.1640 S   0  0  0  0  0  0  0  0  0  0  0  0
   -5.5257   26.4267    5.2945 C   0  0  0  0  0  0  0  0  0  0  0  0
   -5.7514   26.2500    3.7831 C   0  0  0  0  0  0  0  0  0  0  0  0
   -5.0043   25.0226    3.2140 C   0  0  0  0  0  0  0  0  0  0  0  0
   -4.6023   25.2563    1.7435 C   0  0  0  0  0  0  0  0  0  0  0  0
   -5.7875   25.1642    0.7872 C   0  0  0  0  0  0  0  0  0  0  0  0
   -6.5609   23.8701    1.0092 C   0  0  0  0  0  0  0  0  0  0  0  0
   -6.9235   23.6768    2.4824 C   0  0  0  0  0  0  0  0  0  0  0  0
   -5.7810   23.7801    3.4036 N   0  0  0  0  0  0  0  0  0  0  0  0
   -4.9340   22.5870    3.3476 C   0  0  0  0  0  0  0  0  0  0  0  0
 15 16  1  0  0  0
 16  1  1  0  0  0
  1  2  1  0  0  0
  2  3  2  0  0  0
  3  4  1  0  0  0
  4  5  1  0  0  0
  5  6  1  0  0  0
  6  7  1  0  0  0
  7  8  2  0  0  0
  8  9  1  0  0  0
  9 10  2  0  0  0
 10 11  1  0  0  0
  7 12  1  0  0  0
 12 17  1  0  0  0
 17 18  1  0  0  0
 18 19  1  0  0  0
 19 20  1  0  0  0
 20 21  1  0  0  0
 21 22  1  0  0  0
 22 23  1  0  0  0
 23 24  1  0  0  0
 24 25  1  0  0  0
 12 13  1  0  0  0
 13 14  1  0  0  0
 14  1  2  0  0  0
 13  4  2  0  0  0
 11  6  2  0  0  0
 24 19  1  0  0  0
M  END
> <minimizedAffinity>
-8.60062

$$$$
OCNT-0022142


 21 23  0  0  0  0  0  0  0  0999 V2000
   -2.0067   28.4179    7.2650 C   0  0  0  0  0  0  0  0  0  0  0  0
   -0.6665   28.3621    7.6321 C   0  0  0  0  0  0  0  0  0  0  0  0
    0.0757   29.1007    8.6876 C   0  0  0  0  0  0  0  0  0  0  0  0
   -0.0355   27.4521    6.8175 N   0  0  0  0  0  0  0  0  0  0  0  0
   -0.9424   26.9252    5.9443 C   0  0  0  0  0  0  0  0  0  0  0  0
   -2.1766   27.4906    6.1930 C   0  0  0  0  0  0  0  0  0  0  0  0
   -3.3513   27.1091    5.4094 C   0  0  0  0  0  0  0  0  0  0  0  0
   -4.4521   27.6245    5.5934 O   0  0  0  0  0  0  0  0  0  0  0  0
   -3.1429   25.9664    4.3944 C   0  0  0  0  0  0  0  0  0  0  0  0
   -1.7079   25.9839    3.8096 C   0  0  0  0  0  0  0  0  0  0  0  0
   -0.6317   25.9130    4.9037 C   0  0  0  0  0  0  0  0  0  0  0  0
    0.9479   27.2156    6.8598 H   0  0  0  0  0  0  0  0  0  0  0  0
   -3.2195   30.6111    7.1589 C   0  0  0  0  0  0  0  0  0  0  0  0
   -3.0661   29.2805    7.8797 C   0  0  0  0  0  0  0  0  0  0  0  0
   -4.2091   26.0770    3.2864 C   0  0  0  0  0  0  0  0  0  0  0  0
   -4.6123   24.7821    2.7028 N   0  0  0  0  0  0  0  0  0  0  0  0
   -4.4872   24.7913    1.2263 C   0  0  0  0  0  0  0  0  0  0  0  0
   -5.8188   25.0325    0.4983 C   0  0  0  0  0  0  0  0  0  0  0  0
   -6.8103   24.0397    0.7959 O   0  0  0  0  0  0  0  0  0  0  0  0
   -6.6392   23.4462    2.0901 C   0  0  0  0  0  0  0  0  0  0  0  0
   -5.9894   24.4051    3.0995 C   0  0  0  0  0  0  0  0  0  0  0  0
 13 14  1  0  0  0
 14  1  1  0  0  0
  1  2  2  0  0  0
  2  3  1  0  0  0
  2  4  1  0  0  0
  4  5  1  0  0  0
  5  6  2  0  0  0
  6  7  1  0  0  0
  7  8  2  0  0  0
  7  9  1  0  0  0
  9 15  1  0  0  0
 15 16  1  0  0  0
 16 17  1  0  0  0
 17 18  1  0  0  0
 18 19  1  0  0  0
 19 20  1  0  0  0
 20 21  1  0  0  0
  9 10  1  0  0  0
 10 11  1  0  0  0
  6  1  1  0  0  0
 21 16  1  0  0  0
 11  5  1  0  0  0
  4 12  1  0  0  0
M  END
> <minimizedAffinity>
-7.87804

$$$$
OCNT-0022215


 34 38  0  0  0  0  0  0  0  0999 V2000
   -5.4919   25.5718    4.2010 C   0  0  0  0  0  0  0  0  0  0  0  0
   -6.0133   24.3776    5.0647 C   0  0  0  0  0  0  0  0  0  0  0  0
   -7.4122   24.1964    5.1888 C   0  0  0  0  0  0  0  0  0  0  0  0
   -7.9527   23.1563    5.9474 C   0  0  0  0  0  0  0  0  0  0  0  0
   -7.1102   22.2623    6.5959 C   0  0  0  0  0  0  0  0  0  0  0  0
   -5.7318   22.4052    6.4762 C   0  0  0  0  0  0  0  0  0  0  0  0
   -5.1897   23.4472    5.7151 C   0  0  0  0  0  0  0  0  0  0  0  0
   -3.9677   25.8385    4.4922 C   0  0  0  0  0  0  0  0  0  0  0  0
   -3.5097   26.0951    5.8006 C   0  0  0  0  0  0  0  0  0  0  0  0
   -2.1529   26.2865    6.0791 C   0  0  0  0  0  0  0  0  0  0  0  0
   -1.2122   26.2075    5.0593 C   0  0  0  0  0  0  0  0  0  0  0  0
   -1.6280   25.9277    3.7630 C   0  0  0  0  0  0  0  0  0  0  0  0
   -2.9855   25.7368    3.4845 C   0  0  0  0  0  0  0  0  0  0  0  0
   -5.6263   23.8138    2.3866 N   0  0  0  0  0  0  0  0  0  0  0  0
   -5.7266   25.1534    2.6817 C   0  0  0  0  0  0  0  0  0  0  0  0
   -6.0164   25.9104    1.7584 O   0  0  0  0  0  0  0  0  0  0  0  0
   -5.6700   23.6030    1.3965 H   0  0  0  0  0  0  0  0  0  0  0  0
   -5.0104   23.2266    2.9358 H   0  0  0  0  0  0  0  0  0  0  0  0
   -6.2121   26.9672    4.3635 C   0  0  0  0  0  0  0  0  0  0  0  0
   -5.6086   28.1611    3.6004 C   0  0  0  0  0  0  0  0  0  0  0  0
   -5.7495   29.3543    4.5384 C   0  0  0  0  0  0  0  0  0  0  0  0
   -6.7294   28.9232    5.5363 N   0  0  0  0  0  0  0  0  0  0  0  0
   -6.4541   27.5025    5.7784 C   0  0  0  0  0  0  0  0  0  0  0  0
   -6.6811   29.7537    6.7461 C   0  0  0  0  0  0  0  0  0  0  0  0
   -6.0806   29.0149    7.9528 C   0  0  0  0  0  0  0  0  0  0  0  0
   -4.7498   29.6063    8.3593 C   0  0  0  0  0  0  0  0  0  0  0  0
   -4.7089   30.7681    9.1611 C   0  0  0  0  0  0  0  0  0  0  0  0
   -3.4904   31.3456    9.5267 C   0  0  0  0  0  0  0  0  0  0  0  0
   -2.3329   30.7411    9.0864 C   0  0  0  0  0  0  0  0  0  0  0  0
   -1.0697   31.1981    9.3599 O   0  0  0  0  0  0  0  0  0  0  0  0
   -0.2170   30.1066    8.9419 C   0  0  0  0  0  0  0  0  0  0  0  0
   -0.9679   29.2411    7.9289 C   0  0  0  0  0  0  0  0  0  0  0  0
   -2.3544   29.6049    8.2943 C   0  0  0  0  0  0  0  0  0  0  0  0
   -3.5517   29.0255    7.9125 C   0  0  0  0  0  0  0  0  0  0  0  0
 14 15  1  0  0  0
 15 16  2  0  0  0
 15  1  1  0  0  0
  1  2  1  0  0  0
  2  3  2  0  0  0
  3  4  1  0  0  0
  4  5  2  0  0  0
  5  6  1  0  0  0
  6  7  2  0  0  0
  1  8  1  0  0  0
  8  9  2  0  0  0
  9 10  1  0  0  0
 10 11  2  0  0  0
 11 12  1  0  0  0
 12 13  2  0  0  0
  1 19  1  0  0  0
 19 20  1  0  0  0
 20 21  1  0  0  0
 21 22  1  0  0  0
 22 24  1  0  0  0
 24 25  1  0  0  0
 25 26  1  0  0  0
 26 27  1  0  0  0
 27 28  2  0  0  0
 28 29  1  0  0  0
 29 30  1  0  0  0
 30 31  1  0  0  0
 31 32  1  0  0  0
 32 33  1  0  0  0
 33 34  1  0  0  0
 22 23  1  0  0  0
  7  2  1  0  0  0
 13  8  1  0  0  0
 23 19  1  0  0  0
 34 26  2  0  0  0
 33 29  2  0  0  0
 14 17  1  0  0  0
 14 18  1  0  0  0
M  END
> <minimizedAffinity>
-10.18531

$$$$
OCNT-0022237


 25 29  0  0  0  0  0  0  0  0999 V2000
   -5.2909   30.8545    8.0027 C   0  0  0  0  0  0  0  0  0  0  0  0
   -6.5946   30.5024    7.6424 C   0  0  0  0  0  0  0  0  0  0  0  0
   -6.8394   29.3911    6.8312 C   0  0  0  0  0  0  0  0  0  0  0  0
   -5.7831   28.6095    6.3506 C   0  0  0  0  0  0  0  0  0  0  0  0
   -6.0128   27.5072    5.5215 C   0  0  0  0  0  0  0  0  0  0  0  0
   -4.9457   26.7351    5.0399 C   0  0  0  0  0  0  0  0  0  0  0  0
   -5.0989   25.5699    4.1444 C   0  0  0  0  0  0  0  0  0  0  0  0
   -4.0020   25.1466    3.3405 C   0  0  0  0  0  0  0  0  0  0  0  0
   -4.1204   24.0798    2.4340 C   0  0  0  0  0  0  0  0  0  0  0  0
   -5.3285   23.4267    2.3680 C   0  0  0  0  0  0  0  0  0  0  0  0
   -5.6213   22.3726    1.5643 O   0  0  0  0  0  0  0  0  0  0  0  0
   -6.9966   22.1221    1.9273 C   0  0  0  0  0  0  0  0  0  0  0  0
   -7.4862   23.0264    2.9433 O   0  0  0  0  0  0  0  0  0  0  0  0
   -6.3886   23.8002    3.1520 C   0  0  0  0  0  0  0  0  0  0  0  0
   -6.3082   24.8547    4.0409 C   0  0  0  0  0  0  0  0  0  0  0  0
   -2.7005   25.8897    3.4611 C   0  0  0  0  0  0  0  0  0  0  0  0
   -2.5081   26.2935    4.9118 C   0  0  0  0  0  0  0  0  0  0  0  0
   -3.6741   27.0890    5.3789 N   0  0  0  0  0  0  0  0  0  0  0  0
   -3.4377   28.1453    6.1926 C   0  0  0  0  0  0  0  0  0  0  0  0
   -4.4674   28.9411    6.7050 C   0  0  0  0  0  0  0  0  0  0  0  0
   -4.2236   30.0501    7.5568 C   0  0  0  0  0  0  0  0  0  0  0  0
   -5.1310   33.2431    8.1447 C   0  0  0  0  0  0  0  0  0  0  0  0
   -4.9869   31.9611    8.7461 O   0  0  0  0  0  0  0  0  0  0  0  0
   -2.8905   30.2702    7.8294 O   0  0  0  0  0  0  0  0  0  0  0  0
   -2.2117   31.2188    7.0072 C   0  0  0  0  0  0  0  0  0  0  0  0
 22 23  1  0  0  0
 23  1  1  0  0  0
  1  2  2  0  0  0
  2  3  1  0  0  0
  3  4  2  0  0  0
  4  5  1  0  0  0
  5  6  2  0  0  0
  6  7  1  0  0  0
  7  8  2  0  0  0
  8  9  1  0  0  0
  9 10  2  0  0  0
 10 11  1  0  0  0
 11 12  1  0  0  0
 12 13  1  0  0  0
 13 14  1  0  0  0
 14 15  2  0  0  0
  8 16  1  0  0  0
 16 17  1  0  0  0
 17 18  1  0  0  0
 18 19  2  0  0  0
 19 20  1  0  0  0
 20 21  2  0  0  0
 21 24  1  0  0  0
 24 25  1  0  0  0
 21  1  1  0  0  0
 20  4  1  0  0  0
 18  6  1  0  0  0
 15  7  1  0  0  0
 14 10  1  0  0  0
M  CHG 1  18   1
M  END
> <minimizedAffinity>
-9.10654

$$$$
OCNT-0022246


 28 31  0  0  0  0  0  0  0  0999 V2000
   -6.1089   24.1038    4.2133 N   0  0  0  0  0  0  0  0  0  0  0  0
   -6.0559   23.1971    3.1122 C   0  0  0  0  0  0  0  0  0  0  0  0
   -6.3236   21.8157    3.2566 C   0  0  0  0  0  0  0  0  0  0  0  0
   -6.2855   20.9202    2.1805 C   0  0  0  0  0  0  0  0  0  0  0  0
   -5.9797   21.3775    0.9108 C   0  0  0  0  0  0  0  0  0  0  0  0
   -5.7151   22.7291    0.7260 C   0  0  0  0  0  0  0  0  0  0  0  0
   -5.7537   23.6342    1.8064 C   0  0  0  0  0  0  0  0  0  0  0  0
   -5.3623   25.3181    1.3983 S   0  0  0  0  0  0  0  0  0  0  0  0
   -5.7523   26.1743    2.9044 C   0  0  0  0  0  0  0  0  0  0  0  0
   -6.0567   25.5245    4.1168 C   0  0  0  0  0  0  0  0  0  0  0  0
   -6.3299   26.3662    5.2209 C   0  0  0  0  0  0  0  0  0  0  0  0
   -6.3028   27.7739    5.1452 C   0  0  0  0  0  0  0  0  0  0  0  0
   -5.9793   28.3749    3.9321 C   0  0  0  0  0  0  0  0  0  0  0  0
   -5.7106   27.5802    2.8229 C   0  0  0  0  0  0  0  0  0  0  0  0
   -6.5869   28.6065    6.3705 C   0  0  0  0  0  0  0  0  0  0  0  0
   -7.6742   28.1612    7.0576 F   0  0  0  0  0  0  0  0  0  0  0  0
   -6.8414   29.9130    6.0767 F   0  0  0  0  0  0  0  0  0  0  0  0
   -5.5584   28.6213    7.2633 F   0  0  0  0  0  0  0  0  0  0  0  0
   -6.1321   23.5073    5.5728 C   0  0  0  0  0  0  0  0  0  0  0  0
   -7.5633   23.1435    5.9987 C   0  0  0  0  0  0  0  0  0  0  0  0
   -7.5857   22.1846    7.1951 C   0  0  0  0  0  0  0  0  0  0  0  0
  -10.8143   24.3210   10.7533 C   0  0  0  0  0  0  0  0  0  0  0  0
  -10.8754   23.4172    9.6090 N   0  0  0  0  0  0  0  0  0  0  0  0
  -10.2881   24.0476    8.4121 C   0  0  0  0  0  0  0  0  0  0  0  0
   -9.8985   23.0240    7.3209 C   0  0  0  0  0  0  0  0  0  0  0  0
   -8.9272   21.9951    7.7568 N   0  0  0  0  0  0  0  0  0  0  0  0
   -8.8711   21.9090    9.2318 C   0  0  0  0  0  0  0  0  0  0  0  0
  -10.2499   22.1120    9.8979 C   0  0  0  0  0  0  0  0  0  0  0  0
 22 23  1  0  0  0
 23 24  1  0  0  0
 24 25  1  0  0  0
 25 26  1  0  0  0
 26 21  1  0  0  0
 21 20  1  0  0  0
 20 19  1  0  0  0
 19  1  1  0  0  0
  1  2  1  0  0  0
  2  3  2  0  0  0
  3  4  1  0  0  0
  4  5  2  0  0  0
  5  6  1  0  0  0
  6  7  2  0  0  0
  7  8  1  0  0  0
  8  9  1  0  0  0
  9 10  2  0  0  0
 10 11  1  0  0  0
 11 12  2  0  0  0
 12 15  1  0  0  0
 15 16  1  0  0  0
 15 17  1  0  0  0
 15 18  1  0  0  0
 12 13  1  0  0  0
 13 14  2  0  0  0
 26 27  1  0  0  0
 27 28  1  0  0  0
 28 23  1  0  0  0
 10  1  1  0  0  0
  7  2  1  0  0  0
 14  9  1  0  0  0
M  END
> <minimizedAffinity>
-9.24133

$$$$
OCNT-0022254


 24 26  0  0  0  0  0  0  0  0999 V2000
   -4.3735   28.5469    6.0127 N   0  0  0  0  0  0  0  0  0  0  0  0
   -4.5741   27.6733    4.9073 C   0  0  0  0  0  0  0  0  0  0  0  0
   -3.7004   26.6057    4.6284 C   0  0  0  0  0  0  0  0  0  0  0  0
   -3.9282   25.7719    3.5201 C   0  0  0  0  0  0  0  0  0  0  0  0
   -5.0041   25.9991    2.6651 C   0  0  0  0  0  0  0  0  0  0  0  0
   -5.8568   27.0674    2.9070 C   0  0  0  0  0  0  0  0  0  0  0  0
   -5.6389   27.8963    4.0107 C   0  0  0  0  0  0  0  0  0  0  0  0
   -2.3018   26.2104    5.6583 S   0  0  0  0  0  0  0  0  0  0  0  0
   -2.1262   27.7000    6.6180 C   0  0  0  0  0  0  0  0  0  0  0  0
   -0.9246   27.8588    7.3276 C   0  0  0  0  0  0  0  0  0  0  0  0
   -0.7064   28.9831    8.1227 C   0  0  0  0  0  0  0  0  0  0  0  0
   -1.6818   29.9787    8.2098 C   0  0  0  0  0  0  0  0  0  0  0  0
   -2.8866   29.8082    7.5061 C   0  0  0  0  0  0  0  0  0  0  0  0
   -3.1425   28.6674    6.7168 C   0  0  0  0  0  0  0  0  0  0  0  0
   -1.4635   31.1972    9.0707 C   0  0  0  0  0  0  0  0  0  0  0  0
   -0.1735   31.3024    9.4943 F   0  0  0  0  0  0  0  0  0  0  0  0
   -2.2281   31.2074   10.1979 F   0  0  0  0  0  0  0  0  0  0  0  0
   -1.7403   32.3641    8.4245 F   0  0  0  0  0  0  0  0  0  0  0  0
   -5.5824   28.7396    6.8634 C   0  0  0  0  0  0  0  0  0  0  0  0
   -6.3546   30.0090    6.4734 C   0  0  0  0  0  0  0  0  0  0  0  0
   -6.8217   30.8055    7.6979 C   0  0  0  0  0  0  0  0  0  0  0  0
   -5.2727   32.1604    8.9465 C   0  0  0  0  0  0  0  0  0  0  0  0
   -5.8577   30.8227    8.8109 N   0  0  0  0  0  0  0  0  0  0  0  0
   -6.4798   30.4320   10.0799 C   0  0  0  0  0  0  0  0  0  0  0  0
 22 23  1  0  0  0
 23 24  1  0  0  0
 23 21  1  0  0  0
 21 20  1  0  0  0
 20 19  1  0  0  0
 19  1  1  0  0  0
  1  2  1  0  0  0
  2  3  1  0  0  0
  3  4  2  0  0  0
  4  5  1  0  0  0
  5  6  2  0  0  0
  6  7  1  0  0  0
  3  8  1  0  0  0
  8  9  1  0  0  0
  9 10  1  0  0  0
 10 11  2  0  0  0
 11 12  1  0  0  0
 12 15  1  0  0  0
 15 16  1  0  0  0
 15 17  1  0  0  0
 15 18  1  0  0  0
 12 13  2  0  0  0
 13 14  1  0  0  0
 14  1  1  0  0  0
  7  2  2  0  0  0
 14  9  2  0  0  0
M  END
> <minimizedAffinity>
-8.49547

$$$$
OCNT-0022266


 20 22  0  0  0  0  0  0  0  0999 V2000
   -3.3227   28.4477    7.1271 N   0  0  0  0  0  0  0  0  0  0  0  0
   -3.1545   27.5812    5.9976 C   0  0  0  0  0  0  0  0  0  0  0  0
   -1.9770   26.8213    5.7870 C   0  0  0  0  0  0  0  0  0  0  0  0
   -1.8028   25.9721    4.6859 C   0  0  0  0  0  0  0  0  0  0  0  0
   -2.8064   25.8474    3.7438 C   0  0  0  0  0  0  0  0  0  0  0  0
   -3.9770   26.5753    3.9106 C   0  0  0  0  0  0  0  0  0  0  0  0
   -4.1567   27.4322    5.0179 C   0  0  0  0  0  0  0  0  0  0  0  0
   -5.7159   28.2746    5.0563 S   0  0  0  0  0  0  0  0  0  0  0  0
   -5.6059   29.2260    6.5496 C   0  0  0  0  0  0  0  0  0  0  0  0
   -6.7503   30.0032    6.8323 C   0  0  0  0  0  0  0  0  0  0  0  0
   -6.8149   30.8067    7.9618 C   0  0  0  0  0  0  0  0  0  0  0  0
   -5.7304   30.8406    8.8174 C   0  0  0  0  0  0  0  0  0  0  0  0
   -4.5924   30.0696    8.5399 C   0  0  0  0  0  0  0  0  0  0  0  0
   -4.4833   29.2320    7.4044 C   0  0  0  0  0  0  0  0  0  0  0  0
   -2.2018   28.4754    8.1087 C   0  0  0  0  0  0  0  0  0  0  0  0
   -1.0883   30.6652    8.8825 C   0  0  0  0  0  0  0  0  0  0  0  0
   -1.1375   29.5809    7.7964 C   0  0  0  0  0  0  0  0  0  0  0  0
    0.1817   28.9579    7.4976 N   0  0  0  0  0  0  0  0  0  0  0  0
    1.1920   29.1541    8.5359 C   0  0  0  0  0  0  0  0  0  0  0  0
    0.7055   29.3712    6.1947 C   0  0  0  0  0  0  0  0  0  0  0  0
 16 17  1  0  0  0
 17 15  1  0  0  0
 15  1  1  0  0  0
  1  2  1  0  0  0
  2  3  2  0  0  0
  3  4  1  0  0  0
  4  5  2  0  0  0
  5  6  1  0  0  0
  6  7  2  0  0  0
  7  8  1  0  0  0
  8  9  1  0  0  0
  9 10  2  0  0  0
 10 11  1  0  0  0
 11 12  2  0  0  0
 12 13  1  0  0  0
 13 14  2  0  0  0
 17 18  1  0  0  0
 18 19  1  0  0  0
 18 20  1  0  0  0
 14  1  1  0  0  0
  7  2  1  0  0  0
 14  9  1  0  0  0
M  END
> <minimizedAffinity>
-7.58354

$$$$
OCNT-0022267


 20 22  0  0  0  0  0  0  0  0999 V2000
   -2.9618   28.3269    6.8876 N   0  0  0  0  0  0  0  0  0  0  0  0
   -4.2932   28.8343    6.8305 C   0  0  0  0  0  0  0  0  0  0  0  0
   -4.7348   29.8919    7.6585 C   0  0  0  0  0  0  0  0  0  0  0  0
   -6.0363   30.4064    7.6020 C   0  0  0  0  0  0  0  0  0  0  0  0
   -6.9496   29.8798    6.7059 C   0  0  0  0  0  0  0  0  0  0  0  0
   -6.5536   28.8421    5.8710 C   0  0  0  0  0  0  0  0  0  0  0  0
   -5.2438   28.3226    5.9238 C   0  0  0  0  0  0  0  0  0  0  0  0
   -4.9167   26.9804    4.8070 S   0  0  0  0  0  0  0  0  0  0  0  0
   -3.1608   26.7681    4.9724 C   0  0  0  0  0  0  0  0  0  0  0  0
   -2.5751   25.8731    4.0539 C   0  0  0  0  0  0  0  0  0  0  0  0
   -1.2126   25.6022    4.0830 C   0  0  0  0  0  0  0  0  0  0  0  0
   -0.4237   26.2268    5.0327 C   0  0  0  0  0  0  0  0  0  0  0  0
   -1.0018   27.1152    5.9485 C   0  0  0  0  0  0  0  0  0  0  0  0
   -2.3849   27.4125    5.9572 C   0  0  0  0  0  0  0  0  0  0  0  0
   -2.1389   28.7100    8.0622 C   0  0  0  0  0  0  0  0  0  0  0  0
   -1.2220   29.9000    7.7392 C   0  0  0  0  0  0  0  0  0  0  0  0
   -0.7065   30.5953    9.0049 C   0  0  0  0  0  0  0  0  0  0  0  0
   -2.3104   31.8764   10.3089 C   0  0  0  0  0  0  0  0  0  0  0  0
   -1.3042   31.9189    9.2435 N   0  0  0  0  0  0  0  0  0  0  0  0
   -1.9225   32.4209    8.0118 C   0  0  0  0  0  0  0  0  0  0  0  0
 18 19  1  0  0  0
 19 20  1  0  0  0
 19 17  1  0  0  0
 17 16  1  0  0  0
 16 15  1  0  0  0
 15  1  1  0  0  0
  1  2  1  0  0  0
  2  3  2  0  0  0
  3  4  1  0  0  0
  4  5  2  0  0  0
  5  6  1  0  0  0
  6  7  2  0  0  0
  7  8  1  0  0  0
  8  9  1  0  0  0
  9 10  2  0  0  0
 10 11  1  0  0  0
 11 12  2  0  0  0
 12 13  1  0  0  0
 13 14  2  0  0  0
 14  1  1  0  0  0
  7  2  1  0  0  0
 14  9  1  0  0  0
M  END
> <minimizedAffinity>
-7.47526

$$$$
OCNT-0022268


 25 28  0  0  0  0  0  0  0  0999 V2000
   -3.4269   29.0094    7.3242 N   0  0  0  0  0  0  0  0  0  0  0  0
   -2.5718   28.0877    6.6659 C   0  0  0  0  0  0  0  0  0  0  0  0
   -3.0203   27.3456    5.5544 C   0  0  0  0  0  0  0  0  0  0  0  0
   -2.1899   26.4391    4.8882 C   0  0  0  0  0  0  0  0  0  0  0  0
   -0.8786   26.2640    5.3075 C   0  0  0  0  0  0  0  0  0  0  0  0
   -0.3960   27.0108    6.3790 C   0  0  0  0  0  0  0  0  0  0  0  0
   -1.2246   27.9286    7.0464 C   0  0  0  0  0  0  0  0  0  0  0  0
   -0.4993   28.8349    8.3991 S   0  0  0  0  0  0  0  0  0  0  0  0
   -1.6515   30.1834    8.5752 C   0  0  0  0  0  0  0  0  0  0  0  0
   -1.2092   31.3048    9.2978 C   0  0  0  0  0  0  0  0  0  0  0  0
   -2.0535   32.3922    9.5091 C   0  0  0  0  0  0  0  0  0  0  0  0
   -3.3417   32.3603    8.9941 C   0  0  0  0  0  0  0  0  0  0  0  0
   -4.3905   33.7036    9.2349 Cl  0  0  0  0  0  0  0  0  0  0  0  0
   -3.7932   31.2492    8.2788 C   0  0  0  0  0  0  0  0  0  0  0  0
   -2.9657   30.1286    8.0656 C   0  0  0  0  0  0  0  0  0  0  0  0
   -4.8242   28.5679    7.5634 C   0  0  0  0  0  0  0  0  0  0  0  0
   -5.8055   28.9862    6.4556 C   0  0  0  0  0  0  0  0  0  0  0  0
   -6.6657   27.8593    5.8599 C   0  0  0  0  0  0  0  0  0  0  0  0
   -4.6774   24.2338    1.9023 C   0  0  0  0  0  0  0  0  0  0  0  0
   -4.9683   25.1131    3.0260 N   0  0  0  0  0  0  0  0  0  0  0  0
   -5.1399   26.5144    2.5960 C   0  0  0  0  0  0  0  0  0  0  0  0
   -6.0647   27.3802    3.4970 C   0  0  0  0  0  0  0  0  0  0  0  0
   -6.0426   26.9600    4.8913 N   0  0  0  0  0  0  0  0  0  0  0  0
   -6.3755   25.5388    5.0601 C   0  0  0  0  0  0  0  0  0  0  0  0
   -6.1225   24.6573    3.8067 C   0  0  0  0  0  0  0  0  0  0  0  0
 19 20  1  0  0  0
 20 21  1  0  0  0
 21 22  1  0  0  0
 22 23  1  0  0  0
 23 18  1  0  0  0
 18 17  1  0  0  0
 17 16  1  0  0  0
 16  1  1  0  0  0
  1  2  1  0  0  0
  2  3  2  0  0  0
  3  4  1  0  0  0
  4  5  2  0  0  0
  5  6  1  0  0  0
  6  7  2  0  0  0
  7  8  1  0  0  0
  8  9  1  0  0  0
  9 10  1  0  0  0
 10 11  2  0  0  0
 11 12  1  0  0  0
 12 13  1  0  0  0
 12 14  2  0  0  0
 14 15  1  0  0  0
 23 24  1  0  0  0
 24 25  1  0  0  0
 25 20  1  0  0  0
 15  1  1  0  0  0
  7  2  1  0  0  0
 15  9  2  0  0  0
M  END
> <minimizedAffinity>
-8.56876

$$$$
OCNT-0022269


 30 33  0  0  0  0  0  0  0  0999 V2000
   -6.0861   29.5869    7.2834 C   0  0  0  0  0  0  0  0  0  0  0  0
   -6.8893   29.1046    6.2575 C   0  0  0  0  0  0  0  0  0  0  0  0
   -6.3599   28.1820    5.3597 C   0  0  0  0  0  0  0  0  0  0  0  0
   -5.0307   27.7285    5.4739 C   0  0  0  0  0  0  0  0  0  0  0  0
   -4.5351   26.5272    4.2638 S   0  0  0  0  0  0  0  0  0  0  0  0
   -2.7869   26.3974    4.5521 C   0  0  0  0  0  0  0  0  0  0  0  0
   -2.1339   26.9736    5.6608 C   0  0  0  0  0  0  0  0  0  0  0  0
   -0.7384   26.7579    5.7387 C   0  0  0  0  0  0  0  0  0  0  0  0
   -0.0340   26.0082    4.7881 C   0  0  0  0  0  0  0  0  0  0  0  0
   -0.7039   25.4464    3.7155 C   0  0  0  0  0  0  0  0  0  0  0  0
   -2.0746   25.6415    3.5989 C   0  0  0  0  0  0  0  0  0  0  0  0
   -2.8410   27.7469    6.6285 N   0  0  0  0  0  0  0  0  0  0  0  0
   -4.1907   28.1904    6.5065 C   0  0  0  0  0  0  0  0  0  0  0  0
   -4.7593   29.1323    7.3956 C   0  0  0  0  0  0  0  0  0  0  0  0
   -6.4552   30.2506    9.7532 C   0  0  0  0  0  0  0  0  0  0  0  0
   -6.5894   30.5706    8.2874 C   0  0  0  0  0  0  0  0  0  0  0  0
   -7.0918   31.6271    7.9098 O   0  0  0  0  0  0  0  0  0  0  0  0
   -2.1453   28.0354    7.9056 C   0  0  0  0  0  0  0  0  0  0  0  0
   -0.6515   28.3210    7.6904 C   0  0  0  0  0  0  0  0  0  0  0  0
   -0.4014   29.8324    7.6259 C   0  0  0  0  0  0  0  0  0  0  0  0
   -1.5662   30.6172    8.0544 N   0  0  0  0  0  0  0  0  0  0  0  0
   -1.3808   31.1155    9.4285 C   0  0  0  0  0  0  0  0  0  0  0  0
   -2.2498   32.3318    9.7865 C   0  0  0  0  0  0  0  0  0  0  0  0
   -3.5718   32.3241    9.0154 C   0  0  0  0  0  0  0  0  0  0  0  0
   -3.2860   32.2872    7.4988 C   0  0  0  0  0  0  0  0  0  0  0  0
   -1.9114   31.7050    7.1418 C   0  0  0  0  0  0  0  0  0  0  0  0
   -4.4827   33.5201    9.3548 C   0  0  0  0  0  0  0  0  0  0  0  0
   -4.6451   34.5397    8.2315 C   0  0  0  0  0  0  0  0  0  0  0  0
   -5.7555   34.1970    7.4175 O   0  0  0  0  0  0  0  0  0  0  0  0
   -5.8198   34.8701    6.7191 H   0  0  0  0  0  0  0  0  0  0  0  0
 15 16  1  0  0  0
 16 17  2  0  0  0
 16  1  1  0  0  0
  1  2  1  0  0  0
  2  3  2  0  0  0
  3  4  1  0  0  0
  4  5  1  0  0  0
  5  6  1  0  0  0
  6  7  1  0  0  0
  7  8  2  0  0  0
  8  9  1  0  0  0
  9 10  2  0  0  0
 10 11  1  0  0  0
  7 12  1  0  0  0
 12 18  1  0  0  0
 18 19  1  0  0  0
 19 20  1  0  0  0
 20 21  1  0  0  0
 21 22  1  0  0  0
 22 23  1  0  0  0
 23 24  1  0  0  0
 24 27  1  0  0  0
 27 28  1  0  0  0
 28 29  1  0  0  0
 24 25  1  0  0  0
 25 26  1  0  0  0
 12 13  1  0  0  0
 13 14  1  0  0  0
 14  1  2  0  0  0
 13  4  2  0  0  0
 11  6  2  0  0  0
 26 21  1  0  0  0
 29 30  1  0  0  0
M  END
> <minimizedAffinity>
-9.51055

$$$$
OCNT-0022271


 35 39  0  0  0  0  0  0  0  0999 V2000
   -1.6199   25.7950    4.7679 C   0  0  0  0  0  0  0  0  0  0  0  0
   -1.8064   28.8817    7.7623 C   0  0  0  0  0  0  0  0  0  0  0  0
   -3.0784   28.4561    7.0259 C   0  0  0  0  0  0  0  0  0  0  0  0
   -2.8821   27.0939    6.3626 C   0  0  0  0  0  0  0  0  0  0  0  0
   -1.7320   27.0972    5.4451 N   0  0  0  0  0  0  0  0  0  0  0  0
   -0.4934   27.4727    6.1420 C   0  0  0  0  0  0  0  0  0  0  0  0
   -0.6149   28.8461    6.8032 C   0  0  0  0  0  0  0  0  0  0  0  0
    0.1935   30.5049    9.3712 O   0  0  0  0  0  0  0  0  0  0  0  0
   -0.9524   30.8543    9.1448 C   0  0  0  0  0  0  0  0  0  0  0  0
   -1.5292   32.0522    9.5916 N   0  0  0  0  0  0  0  0  0  0  0  0
   -2.8436   32.1161    9.1515 C   0  0  0  0  0  0  0  0  0  0  0  0
   -3.7750   33.1078    9.3596 C   0  0  0  0  0  0  0  0  0  0  0  0
   -5.0390   32.9124    8.7972 C   0  0  0  0  0  0  0  0  0  0  0  0
   -5.3292   31.7485    8.0553 C   0  0  0  0  0  0  0  0  0  0  0  0
   -4.3616   30.7543    7.8590 C   0  0  0  0  0  0  0  0  0  0  0  0
   -3.1185   30.9606    8.4190 C   0  0  0  0  0  0  0  0  0  0  0  0
   -1.9513   30.1755    8.4086 N   0  0  0  0  0  0  0  0  0  0  0  0
   -1.0353   32.7318   10.1454 H   0  0  0  0  0  0  0  0  0  0  0  0
   -2.2213   25.7561    3.3541 C   0  0  0  0  0  0  0  0  0  0  0  0
   -3.6137   25.1057    3.3155 C   0  0  0  0  0  0  0  0  0  0  0  0
   -4.6622   25.9764    2.5781 C   0  0  0  0  0  0  0  0  0  0  0  0
   -5.6558   25.1289    1.7847 C   0  0  0  0  0  0  0  0  0  0  0  0
   -6.2472   23.9813    2.3417 C   0  0  0  0  0  0  0  0  0  0  0  0
   -7.1539   23.2200    1.6027 C   0  0  0  0  0  0  0  0  0  0  0  0
   -7.4745   23.6030    0.3070 C   0  0  0  0  0  0  0  0  0  0  0  0
   -8.3445   22.8716   -0.4013 F   0  0  0  0  0  0  0  0  0  0  0  0
   -6.9070   24.7343   -0.2647 C   0  0  0  0  0  0  0  0  0  0  0  0
   -5.9999   25.4977    0.4720 C   0  0  0  0  0  0  0  0  0  0  0  0
   -5.3852   26.9860    3.4738 C   0  0  0  0  0  0  0  0  0  0  0  0
   -5.5803   28.3287    3.1061 C   0  0  0  0  0  0  0  0  0  0  0  0
   -6.2338   29.2156    3.9656 C   0  0  0  0  0  0  0  0  0  0  0  0
   -6.6899   28.7686    5.1984 C   0  0  0  0  0  0  0  0  0  0  0  0
   -7.3147   29.6211    6.0210 F   0  0  0  0  0  0  0  0  0  0  0  0
   -6.5042   27.4505    5.5916 C   0  0  0  0  0  0  0  0  0  0  0  0
   -5.8525   26.5629    4.7339 C   0  0  0  0  0  0  0  0  0  0  0  0
  8  9  2  0  0  0
  9 10  1  0  0  0
 10 11  1  0  0  0
 11 12  2  0  0  0
 12 13  1  0  0  0
 13 14  2  0  0  0
 14 15  1  0  0  0
 15 16  2  0  0  0
 16 17  1  0  0  0
 17  2  1  0  0  0
  2  3  1  0  0  0
  3  4  1  0  0  0
  4  5  1  0  0  0
  5  1  1  0  0  0
  1 19  1  0  0  0
 19 20  1  0  0  0
 20 21  1  0  0  0
 21 22  1  0  0  0
 22 23  1  0  0  0
 23 24  2  0  0  0
 24 25  1  0  0  0
 25 26  1  0  0  0
 25 27  2  0  0  0
 27 28  1  0  0  0
 21 29  1  0  0  0
 29 30  1  0  0  0
 30 31  2  0  0  0
 31 32  1  0  0  0
 32 33  1  0  0  0
 32 34  2  0  0  0
 34 35  1  0  0  0
  5  6  1  0  0  0
  6  7  1  0  0  0
 17  9  1  0  0  0
  7  2  1  0  0  0
 16 11  1  0  0  0
 28 22  2  0  0  0
 35 29  2  0  0  0
 10 18  1  0  0  0
M  END
> <minimizedAffinity>
-11.91261

$$$$
OCNT-0022281


 19 20  0  0  0  0  0  0  0  0999 V2000
   -0.5095   27.8737    7.3961 C   0  0  0  0  0  0  0  0  0  0  0  0
   -0.2679   29.3237    7.0258 C   0  0  0  0  0  0  0  0  0  0  0  0
    0.6328   29.6277    6.2441 O   0  0  0  0  0  0  0  0  0  0  0  0
   -1.1211   30.4031    7.6139 C   0  0  0  0  0  0  0  0  0  0  0  0
   -0.9442   30.7166    8.9722 C   0  0  0  0  0  0  0  0  0  0  0  0
   -1.7122   31.7145    9.5763 C   0  0  0  0  0  0  0  0  0  0  0  0
   -2.6589   32.3968    8.8238 C   0  0  0  0  0  0  0  0  0  0  0  0
   -3.3974   33.3537    9.3996 F   0  0  0  0  0  0  0  0  0  0  0  0
   -2.8527   32.0983    7.4799 C   0  0  0  0  0  0  0  0  0  0  0  0
   -2.0851   31.0997    6.8714 C   0  0  0  0  0  0  0  0  0  0  0  0
   -1.9964   27.5373    7.3196 C   0  0  0  0  0  0  0  0  0  0  0  0
   -2.5014   27.2657    5.8931 C   0  0  0  0  0  0  0  0  0  0  0  0
   -6.1969   29.6660    3.1691 C   0  0  0  0  0  0  0  0  0  0  0  0
   -6.1533   28.8394    4.4541 C   0  0  0  0  0  0  0  0  0  0  0  0
   -5.8843   27.3538    4.1649 C   0  0  0  0  0  0  0  0  0  0  0  0
   -4.4103   26.9966    4.3640 C   0  0  0  0  0  0  0  0  0  0  0  0
   -3.9619   27.2117    5.7454 N   0  0  0  0  0  0  0  0  0  0  0  0
   -4.6218   28.3520    6.4039 C   0  0  0  0  0  0  0  0  0  0  0  0
   -5.1143   29.4176    5.4268 C   0  0  0  0  0  0  0  0  0  0  0  0
 13 14  1  0  0  0
 14 15  1  0  0  0
 15 16  1  0  0  0
 16 17  1  0  0  0
 17 12  1  0  0  0
 12 11  1  0  0  0
 11  1  1  0  0  0
  1  2  1  0  0  0
  2  3  2  0  0  0
  2  4  1  0  0  0
  4  5  1  0  0  0
  5  6  2  0  0  0
  6  7  1  0  0  0
  7  8  1  0  0  0
  7  9  2  0  0  0
  9 10  1  0  0  0
 17 18  1  0  0  0
 18 19  1  0  0  0
 19 14  1  0  0  0
 10  4  2  0  0  0
M  END
> <minimizedAffinity>
-7.62505

$$$$
OCNT-0022288


 31 34  0  0  0  0  0  0  0  0999 V2000
   -5.9264   24.1148    4.2326 N   0  0  0  0  0  0  0  0  0  0  0  0
   -5.9436   23.2376    3.1134 C   0  0  0  0  0  0  0  0  0  0  0  0
   -6.3699   21.9004    3.2451 C   0  0  0  0  0  0  0  0  0  0  0  0
   -6.4059   21.0237    2.1565 C   0  0  0  0  0  0  0  0  0  0  0  0
   -6.0302   21.4678    0.8966 C   0  0  0  0  0  0  0  0  0  0  0  0
   -5.6316   22.7905    0.7291 C   0  0  0  0  0  0  0  0  0  0  0  0
   -5.5992   23.6770    1.8200 C   0  0  0  0  0  0  0  0  0  0  0  0
   -5.0541   25.3387    1.4831 S   0  0  0  0  0  0  0  0  0  0  0  0
   -5.6075   26.1977    2.9404 C   0  0  0  0  0  0  0  0  0  0  0  0
   -5.6513   27.6000    2.8664 C   0  0  0  0  0  0  0  0  0  0  0  0
   -6.0445   28.3620    3.9644 C   0  0  0  0  0  0  0  0  0  0  0  0
   -6.3988   27.7325    5.1594 C   0  0  0  0  0  0  0  0  0  0  0  0
   -6.3578   26.3273    5.2240 C   0  0  0  0  0  0  0  0  0  0  0  0
   -5.9452   25.5322    4.1343 C   0  0  0  0  0  0  0  0  0  0  0  0
   -6.8620   28.5345    6.3499 C   0  0  0  0  0  0  0  0  0  0  0  0
   -7.2357   29.8048    6.0305 F   0  0  0  0  0  0  0  0  0  0  0  0
   -5.9013   28.6618    7.3080 F   0  0  0  0  0  0  0  0  0  0  0  0
   -7.9358   27.9727    6.9695 F   0  0  0  0  0  0  0  0  0  0  0  0
   -5.3619   23.5518    5.4897 C   0  0  0  0  0  0  0  0  0  0  0  0
   -6.3373   22.6297    6.2403 C   0  0  0  0  0  0  0  0  0  0  0  0
   -7.7975   23.1018    6.2236 C   0  0  0  0  0  0  0  0  0  0  0  0
  -10.3090   23.8700    8.1636 N   0  0  0  0  0  0  0  0  0  0  0  0
  -10.8311   23.5301    6.8212 C   0  0  0  0  0  0  0  0  0  0  0  0
  -10.1248   22.3263    6.1385 C   0  0  0  0  0  0  0  0  0  0  0  0
   -8.7547   22.0469    6.6045 N   0  0  0  0  0  0  0  0  0  0  0  0
   -8.7802   21.8626    8.0752 C   0  0  0  0  0  0  0  0  0  0  0  0
   -9.8726   22.6455    8.8542 C   0  0  0  0  0  0  0  0  0  0  0  0
  -11.2851   24.6243    8.9743 C   0  0  0  0  0  0  0  0  0  0  0  0
   -9.4958   25.9933    9.8749 O   0  0  0  0  0  0  0  0  0  0  0  0
  -10.6391   25.2197   10.2350 C   0  0  0  0  0  0  0  0  0  0  0  0
   -9.7073   26.3527    8.9883 H   0  0  0  0  0  0  0  0  0  0  0  0
 29 30  1  0  0  0
 30 28  1  0  0  0
 28 22  1  0  0  0
 22 23  1  0  0  0
 23 24  1  0  0  0
 24 25  1  0  0  0
 25 21  1  0  0  0
 21 20  1  0  0  0
 20 19  1  0  0  0
 19  1  1  0  0  0
  1  2  1  0  0  0
  2  3  2  0  0  0
  3  4  1  0  0  0
  4  5  2  0  0  0
  5  6  1  0  0  0
  6  7  2  0  0  0
  7  8  1  0  0  0
  8  9  1  0  0  0
  9 10  1  0  0  0
 10 11  2  0  0  0
 11 12  1  0  0  0
 12 15  1  0  0  0
 15 16  1  0  0  0
 15 17  1  0  0  0
 15 18  1  0  0  0
 12 13  2  0  0  0
 13 14  1  0  0  0
 25 26  1  0  0  0
 26 27  1  0  0  0
 27 22  1  0  0  0
 14  1  1  0  0  0
  7  2  1  0  0  0
 14  9  2  0  0  0
 29 31  1  0  0  0
M  END
> <minimizedAffinity>
-9.14945

$$$$
OCNT-0022291


 29 32  0  0  0  0  0  0  0  0999 V2000
   -1.8203   26.9516    5.1783 N   0  0  0  0  0  0  0  0  0  0  0  0
   -0.5345   27.4922    5.6384 C   0  0  0  0  0  0  0  0  0  0  0  0
   -0.6515   28.6755    6.5572 C   0  0  0  0  0  0  0  0  0  0  0  0
   -1.7879   29.0484    7.1744 C   0  0  0  0  0  0  0  0  0  0  0  0
   -3.0382   28.2293    6.9130 C   0  0  0  0  0  0  0  0  0  0  0  0
   -2.7511   26.8438    6.3091 C   0  0  0  0  0  0  0  0  0  0  0  0
   -1.8941   30.1516    8.0201 N   0  0  0  0  0  0  0  0  0  0  0  0
   -0.8642   30.5402    8.9556 C   0  0  0  0  0  0  0  0  0  0  0  0
    0.2370   30.0503    9.1562 O   0  0  0  0  0  0  0  0  0  0  0  0
   -1.3548   31.6376    9.6754 N   0  0  0  0  0  0  0  0  0  0  0  0
   -2.6137   31.9672    9.2118 C   0  0  0  0  0  0  0  0  0  0  0  0
   -2.9591   31.0848    8.1874 C   0  0  0  0  0  0  0  0  0  0  0  0
   -4.1439   31.2747    7.4998 C   0  0  0  0  0  0  0  0  0  0  0  0
   -4.9880   32.3202    7.9042 C   0  0  0  0  0  0  0  0  0  0  0  0
   -4.6335   33.1717    8.9660 C   0  0  0  0  0  0  0  0  0  0  0  0
   -3.4199   33.0047    9.6316 C   0  0  0  0  0  0  0  0  0  0  0  0
   -0.8292   32.0980   10.3995 H   0  0  0  0  0  0  0  0  0  0  0  0
   -1.6119   25.6745    4.4812 C   0  0  0  0  0  0  0  0  0  0  0  0
   -2.8580   25.1796    3.7356 C   0  0  0  0  0  0  0  0  0  0  0  0
   -3.4762   26.3053    2.9010 C   0  0  0  0  0  0  0  0  0  0  0  0
   -5.7107   25.5727    2.3627 O   0  0  0  0  0  0  0  0  0  0  0  0
   -4.9920   26.3334    3.0070 C   0  0  0  0  0  0  0  0  0  0  0  0
   -5.6295   27.3400    3.9120 C   0  0  0  0  0  0  0  0  0  0  0  0
   -5.7258   28.6690    3.4673 C   0  0  0  0  0  0  0  0  0  0  0  0
   -6.3132   29.6455    4.2746 C   0  0  0  0  0  0  0  0  0  0  0  0
   -6.8030   29.2933    5.5251 C   0  0  0  0  0  0  0  0  0  0  0  0
   -7.3713   30.2261    6.2995 F   0  0  0  0  0  0  0  0  0  0  0  0
   -6.7112   27.9847    5.9863 C   0  0  0  0  0  0  0  0  0  0  0  0
   -6.1230   27.0039    5.1812 C   0  0  0  0  0  0  0  0  0  0  0  0
 21 22  2  0  0  0
 22 20  1  0  0  0
 20 19  1  0  0  0
 19 18  1  0  0  0
 18  1  1  0  0  0
  1  2  1  0  0  0
  2  3  1  0  0  0
  3  4  2  0  0  0
  4  7  1  0  0  0
  7  8  1  0  0  0
  8  9  2  0  0  0
  8 10  1  0  0  0
 10 11  1  0  0  0
 11 12  1  0  0  0
 12 13  2  0  0  0
 13 14  1  0  0  0
 14 15  2  0  0  0
 15 16  1  0  0  0
  4  5  1  0  0  0
  5  6  1  0  0  0
 22 23  1  0  0  0
 23 24  1  0  0  0
 24 25  2  0  0  0
 25 26  1  0  0  0
 26 27  1  0  0  0
 26 28  2  0  0  0
 28 29  1  0  0  0
  6  1  1  0  0  0
 29 23  2  0  0  0
 12  7  1  0  0  0
 16 11  2  0  0  0
 10 17  1  0  0  0
M  END
> <minimizedAffinity>
-9.54201

$$$$
OCNT-0022294


 21 23  0  0  0  0  0  0  0  0999 V2000
   -2.7178   28.2519    6.8668 N   0  0  0  0  0  0  0  0  0  0  0  0
   -2.1764   27.3473    5.9061 C   0  0  0  0  0  0  0  0  0  0  0  0
   -0.7904   27.0801    5.8187 C   0  0  0  0  0  0  0  0  0  0  0  0
   -0.2473   26.2033    4.8711 C   0  0  0  0  0  0  0  0  0  0  0  0
   -1.0763   25.5607    3.9683 C   0  0  0  0  0  0  0  0  0  0  0  0
   -2.4438   25.8022    4.0172 C   0  0  0  0  0  0  0  0  0  0  0  0
   -2.9943   26.6860    4.9675 C   0  0  0  0  0  0  0  0  0  0  0  0
   -4.7614   26.8586    4.9097 S   0  0  0  0  0  0  0  0  0  0  0  0
   -5.0462   28.2135    6.0222 C   0  0  0  0  0  0  0  0  0  0  0  0
   -4.0553   28.7470    6.8736 C   0  0  0  0  0  0  0  0  0  0  0  0
   -4.4594   29.8127    7.7100 C   0  0  0  0  0  0  0  0  0  0  0  0
   -5.7680   30.3070    7.7090 C   0  0  0  0  0  0  0  0  0  0  0  0
   -6.1918   31.6063    8.7563 Cl  0  0  0  0  0  0  0  0  0  0  0  0
   -6.7256   29.7622    6.8715 C   0  0  0  0  0  0  0  0  0  0  0  0
   -6.3629   28.7175    6.0298 C   0  0  0  0  0  0  0  0  0  0  0  0
   -1.8560   28.6086    8.0182 C   0  0  0  0  0  0  0  0  0  0  0  0
   -0.9957   29.8480    7.7286 C   0  0  0  0  0  0  0  0  0  0  0  0
   -0.6023   30.5421    9.0386 C   0  0  0  0  0  0  0  0  0  0  0  0
   -1.7973   32.3333    7.9611 C   0  0  0  0  0  0  0  0  0  0  0  0
   -1.2872   31.8293    9.2397 N   0  0  0  0  0  0  0  0  0  0  0  0
   -2.3861   31.7320   10.2033 C   0  0  0  0  0  0  0  0  0  0  0  0
 19 20  1  0  0  0
 20 21  1  0  0  0
 20 18  1  0  0  0
 18 17  1  0  0  0
 17 16  1  0  0  0
 16  1  1  0  0  0
  1  2  1  0  0  0
  2  3  2  0  0  0
  3  4  1  0  0  0
  4  5  2  0  0  0
  5  6  1  0  0  0
  6  7  2  0  0  0
  7  8  1  0  0  0
  8  9  1  0  0  0
  9 10  2  0  0  0
 10 11  1  0  0  0
 11 12  2  0  0  0
 12 13  1  0  0  0
 12 14  1  0  0  0
 14 15  2  0  0  0
 10  1  1  0  0  0
  7  2  1  0  0  0
 15  9  1  0  0  0
M  END
> <minimizedAffinity>
-7.68943

$$$$
OCNT-0022297


 32 36  0  0  0  0  0  0  0  0999 V2000
   -0.4970   27.8120    6.7418 C   0  0  0  0  0  0  0  0  0  0  0  0
    0.3155   29.0403    7.1585 C   0  0  0  0  0  0  0  0  0  0  0  0
    0.2312   29.3428    8.6551 C   0  0  0  0  0  0  0  0  0  0  0  0
   -0.0709   30.7229    8.8686 O   0  0  0  0  0  0  0  0  0  0  0  0
   -6.6842   28.6678    9.9910 O   0  0  0  0  0  0  0  0  0  0  0  0
   -5.9090   29.5637    9.6769 C   0  0  0  0  0  0  0  0  0  0  0  0
   -6.4108   30.9182    9.3375 C   0  0  0  0  0  0  0  0  0  0  0  0
   -5.5743   31.9070    8.9947 C   0  0  0  0  0  0  0  0  0  0  0  0
   -4.1333   31.6614    8.9486 C   0  0  0  0  0  0  0  0  0  0  0  0
   -3.6498   30.3859    9.2639 C   0  0  0  0  0  0  0  0  0  0  0  0
   -2.2833   30.1147    9.2261 C   0  0  0  0  0  0  0  0  0  0  0  0
   -1.3778   31.1210    8.8765 C   0  0  0  0  0  0  0  0  0  0  0  0
   -1.8562   32.3938    8.5580 C   0  0  0  0  0  0  0  0  0  0  0  0
   -3.2301   32.6644    8.5946 C   0  0  0  0  0  0  0  0  0  0  0  0
   -4.5549   29.3765    9.6194 N   0  0  0  0  0  0  0  0  0  0  0  0
   -4.2234   28.4506    9.8521 H   0  0  0  0  0  0  0  0  0  0  0  0
   -1.9793   28.1308    6.4978 C   0  0  0  0  0  0  0  0  0  0  0  0
   -2.6968   27.0066    5.8910 N   0  0  0  0  0  0  0  0  0  0  0  0
   -1.9341   26.3244    4.8188 C   0  0  0  0  0  0  0  0  0  0  0  0
   -2.7412   25.8988    3.5639 C   0  0  0  0  0  0  0  0  0  0  0  0
   -4.0525   25.3592    3.9424 N   0  0  0  0  0  0  0  0  0  0  0  0
   -4.8443   26.2004    4.8572 C   0  0  0  0  0  0  0  0  0  0  0  0
   -4.0345   27.3954    5.4186 C   0  0  0  0  0  0  0  0  0  0  0  0
   -4.7840   24.8147    2.8640 C   0  0  0  0  0  0  0  0  0  0  0  0
   -5.0886   23.4289    2.6816 C   0  0  0  0  0  0  0  0  0  0  0  0
   -4.7494   22.2696    3.4720 C   0  0  0  0  0  0  0  0  0  0  0  0
   -5.2338   21.0922    2.9558 C   0  0  0  0  0  0  0  0  0  0  0  0
   -6.1026   21.3441    1.5144 S   0  0  0  0  0  0  0  0  0  0  0  0
   -5.8368   23.0484    1.5604 C   0  0  0  0  0  0  0  0  0  0  0  0
   -6.2932   23.9850    0.6129 C   0  0  0  0  0  0  0  0  0  0  0  0
   -5.9880   25.3295    0.7966 C   0  0  0  0  0  0  0  0  0  0  0  0
   -5.2493   25.7328    1.9005 C   0  0  0  0  0  0  0  0  0  0  0  0
  5  6  2  0  0  0
  6  7  1  0  0  0
  7  8  2  0  0  0
  8  9  1  0  0  0
  9 10  2  0  0  0
 10 11  1  0  0  0
 11 12  2  0  0  0
 12  4  1  0  0  0
  4  3  1  0  0  0
  3  2  1  0  0  0
  2  1  1  0  0  0
  1 17  1  0  0  0
 17 18  1  0  0  0
 18 19  1  0  0  0
 19 20  1  0  0  0
 20 21  1  0  0  0
 21 24  1  0  0  0
 24 25  2  0  0  0
 25 26  1  0  0  0
 26 27  2  0  0  0
 27 28  1  0  0  0
 28 29  1  0  0  0
 29 30  2  0  0  0
 30 31  1  0  0  0
 31 32  2  0  0  0
 21 22  1  0  0  0
 22 23  1  0  0  0
 12 13  1  0  0  0
 13 14  2  0  0  0
 10 15  1  0  0  0
 15  6  1  0  0  0
 14  9  1  0  0  0
 23 18  1  0  0  0
 32 24  1  0  0  0
 29 25  1  0  0  0
 15 16  1  0  0  0
M  END
> <minimizedAffinity>
-10.65112

$$$$
OCNT-0022301


 29 32  0  0  0  0  0  0  0  0999 V2000
   -6.3560   30.4146    7.1852 N   0  0  0  0  0  0  0  0  0  0  0  0
   -6.5137   29.0110    7.5801 C   0  0  0  0  0  0  0  0  0  0  0  0
   -6.9636   28.1485    6.3990 C   0  0  0  0  0  0  0  0  0  0  0  0
   -6.1962   28.3791    5.0864 C   0  0  0  0  0  0  0  0  0  0  0  0
   -5.8130   29.8479    4.8737 C   0  0  0  0  0  0  0  0  0  0  0  0
   -5.3297   30.5346    6.1457 C   0  0  0  0  0  0  0  0  0  0  0  0
   -5.0676   27.4736    4.8710 N   0  0  0  0  0  0  0  0  0  0  0  0
   -3.8519   27.4133    5.5868 C   0  0  0  0  0  0  0  0  0  0  0  0
   -3.5151   28.0320    6.5803 O   0  0  0  0  0  0  0  0  0  0  0  0
   -3.0399   26.4759    4.9333 N   0  0  0  0  0  0  0  0  0  0  0  0
   -3.7056   25.9960    3.8171 C   0  0  0  0  0  0  0  0  0  0  0  0
   -3.2705   25.0905    2.8763 C   0  0  0  0  0  0  0  0  0  0  0  0
   -4.1472   24.8015    1.8278 C   0  0  0  0  0  0  0  0  0  0  0  0
   -5.4117   25.4208    1.7513 C   0  0  0  0  0  0  0  0  0  0  0  0
   -5.8276   26.3401    2.7234 C   0  0  0  0  0  0  0  0  0  0  0  0
   -4.9551   26.6112    3.7573 C   0  0  0  0  0  0  0  0  0  0  0  0
   -2.1074   26.2474    5.2350 H   0  0  0  0  0  0  0  0  0  0  0  0
   -6.1062   31.2958    8.3345 C   0  0  0  0  0  0  0  0  0  0  0  0
   -4.8563   31.0140    9.1810 C   0  0  0  0  0  0  0  0  0  0  0  0
   -3.8770   32.1891    9.1012 C   0  0  0  0  0  0  0  0  0  0  0  0
   -2.0313   32.0604   10.6503 O   0  0  0  0  0  0  0  0  0  0  0  0
   -2.4720   31.8030    9.5326 C   0  0  0  0  0  0  0  0  0  0  0  0
   -1.6004   31.0705    8.5616 C   0  0  0  0  0  0  0  0  0  0  0  0
   -1.8002   31.1362    7.1750 C   0  0  0  0  0  0  0  0  0  0  0  0
   -0.9562   30.4307    6.3116 C   0  0  0  0  0  0  0  0  0  0  0  0
    0.0799   29.6635    6.8322 C   0  0  0  0  0  0  0  0  0  0  0  0
    0.8841   28.9905    5.9997 F   0  0  0  0  0  0  0  0  0  0  0  0
    0.2908   29.5849    8.2026 C   0  0  0  0  0  0  0  0  0  0  0  0
   -0.5498   30.2877    9.0683 C   0  0  0  0  0  0  0  0  0  0  0  0
 21 22  2  0  0  0
 22 20  1  0  0  0
 20 19  1  0  0  0
 19 18  1  0  0  0
 18  1  1  0  0  0
  1  2  1  0  0  0
  2  3  1  0  0  0
  3  4  1  0  0  0
  4  7  1  0  0  0
  7  8  1  0  0  0
  8  9  2  0  0  0
  8 10  1  0  0  0
 10 11  1  0  0  0
 11 12  2  0  0  0
 12 13  1  0  0  0
 13 14  2  0  0  0
 14 15  1  0  0  0
 15 16  2  0  0  0
  4  5  1  0  0  0
  5  6  1  0  0  0
 22 23  1  0  0  0
 23 24  1  0  0  0
 24 25  2  0  0  0
 25 26  1  0  0  0
 26 27  1  0  0  0
 26 28  2  0  0  0
 28 29  1  0  0  0
  6  1  1  0  0  0
 29 23  2  0  0  0
 16  7  1  0  0  0
 16 11  1  0  0  0
 10 17  1  0  0  0
M  END
> <minimizedAffinity>
-9.42196

$$$$
OCNT-0022303


 23 26  0  0  0  0  0  0  0  0999 V2000
   -5.3404   34.6123    7.9189 Cl  0  0  0  0  0  0  0  0  0  0  0  0
   -4.4265   33.2126    8.3259 C   0  0  0  0  0  0  0  0  0  0  0  0
   -3.6659   33.2001    9.4944 C   0  0  0  0  0  0  0  0  0  0  0  0
   -2.9212   32.0666    9.8223 C   0  0  0  0  0  0  0  0  0  0  0  0
   -2.9373   30.9537    8.9764 C   0  0  0  0  0  0  0  0  0  0  0  0
   -2.1686   29.8794    9.3468 O   0  0  0  0  0  0  0  0  0  0  0  0
   -1.1975   29.5725    8.4218 C   0  0  0  0  0  0  0  0  0  0  0  0
    0.1311   29.6414    8.8544 C   0  0  0  0  0  0  0  0  0  0  0  0
    1.1655   29.3512    7.9673 C   0  0  0  0  0  0  0  0  0  0  0  0
    0.8687   28.9795    6.6578 C   0  0  0  0  0  0  0  0  0  0  0  0
   -0.4629   28.8911    6.2412 C   0  0  0  0  0  0  0  0  0  0  0  0
   -1.5161   29.1884    7.1132 C   0  0  0  0  0  0  0  0  0  0  0  0
   -2.8199   28.9850    6.6397 N   0  0  0  0  0  0  0  0  0  0  0  0
   -3.8366   29.7410    6.9516 C   0  0  0  0  0  0  0  0  0  0  0  0
   -3.7275   30.9526    7.8262 C   0  0  0  0  0  0  0  0  0  0  0  0
   -4.4624   32.0978    7.4910 C   0  0  0  0  0  0  0  0  0  0  0  0
   -5.1033   29.4288    6.4329 N   0  0  0  0  0  0  0  0  0  0  0  0
   -6.1461   28.9848    7.3966 C   0  0  0  0  0  0  0  0  0  0  0  0
   -7.3162   28.2535    6.7055 C   0  0  0  0  0  0  0  0  0  0  0  0
   -6.9158   27.0692    5.9249 N   0  0  0  0  0  0  0  0  0  0  0  0
   -5.5922   27.2659    5.2972 C   0  0  0  0  0  0  0  0  0  0  0  0
   -5.1853   28.7414    5.1236 C   0  0  0  0  0  0  0  0  0  0  0  0
   -7.6157   26.8983    5.2041 H   0  0  0  0  0  0  0  0  0  0  0  0
  1  2  1  0  0  0
  2  3  1  0  0  0
  3  4  2  0  0  0
  4  5  1  0  0  0
  5  6  1  0  0  0
  6  7  1  0  0  0
  7  8  2  0  0  0
  8  9  1  0  0  0
  9 10  2  0  0  0
 10 11  1  0  0  0
 11 12  2  0  0  0
 12 13  1  0  0  0
 13 14  2  0  0  0
 14 17  1  0  0  0
 17 18  1  0  0  0
 18 19  1  0  0  0
 19 20  1  0  0  0
 20 21  1  0  0  0
 21 22  1  0  0  0
 14 15  1  0  0  0
 15 16  1  0  0  0
 16  2  2  0  0  0
 15  5  2  0  0  0
 12  7  1  0  0  0
 22 17  1  0  0  0
 20 23  1  0  0  0
M  END
> <minimizedAffinity>
-9.19347

$$$$
OCNT-0022315


 30 33  0  0  0  0  0  0  0  0999 V2000
   -2.3547   25.9318    5.1471 C   0  0  0  0  0  0  0  0  0  0  0  0
   -5.2568   24.7484    2.6128 N   0  0  0  0  0  0  0  0  0  0  0  0
   -3.9230   25.2833    2.2627 C   0  0  0  0  0  0  0  0  0  0  0  0
   -3.5646   26.5256    3.1124 C   0  0  0  0  0  0  0  0  0  0  0  0
   -3.6499   26.3515    4.5814 N   0  0  0  0  0  0  0  0  0  0  0  0
   -4.7297   25.3961    4.9343 C   0  0  0  0  0  0  0  0  0  0  0  0
   -5.8375   25.2547    3.8645 C   0  0  0  0  0  0  0  0  0  0  0  0
   -6.6965   23.0162    1.6083 C   0  0  0  0  0  0  0  0  0  0  0  0
   -6.0642   24.2821    1.5742 C   0  0  0  0  0  0  0  0  0  0  0  0
   -6.3138   25.0614    0.4303 C   0  0  0  0  0  0  0  0  0  0  0  0
   -7.1025   24.5960   -0.6317 C   0  0  0  0  0  0  0  0  0  0  0  0
   -7.6681   23.3275   -0.5817 C   0  0  0  0  0  0  0  0  0  0  0  0
   -7.4609   22.5330    0.5383 C   0  0  0  0  0  0  0  0  0  0  0  0
   -5.5883   21.1979    2.4510 C   0  0  0  0  0  0  0  0  0  0  0  0
   -6.5926   22.1818    2.7010 O   0  0  0  0  0  0  0  0  0  0  0  0
   -1.9614   26.6669    6.4492 C   0  0  0  0  0  0  0  0  0  0  0  0
   -0.5280   26.7153    6.5382 O   0  0  0  0  0  0  0  0  0  0  0  0
   -0.2468   27.4389    5.9453 H   0  0  0  0  0  0  0  0  0  0  0  0
   -2.5180   28.0974    6.5200 C   0  0  0  0  0  0  0  0  0  0  0  0
   -2.7837   28.4049    7.8948 O   0  0  0  0  0  0  0  0  0  0  0  0
   -2.2770   29.5801    8.3961 C   0  0  0  0  0  0  0  0  0  0  0  0
   -0.9231   29.7862    8.6802 C   0  0  0  0  0  0  0  0  0  0  0  0
   -0.4869   31.0131    9.1769 C   0  0  0  0  0  0  0  0  0  0  0  0
   -1.3974   32.0450    9.3894 C   0  0  0  0  0  0  0  0  0  0  0  0
   -2.7593   31.8682    9.1084 C   0  0  0  0  0  0  0  0  0  0  0  0
   -3.6745   32.9129    9.3238 C   0  0  0  0  0  0  0  0  0  0  0  0
   -5.0319   32.7462    9.0487 C   0  0  0  0  0  0  0  0  0  0  0  0
   -5.4922   31.5325    8.5533 C   0  0  0  0  0  0  0  0  0  0  0  0
   -4.5942   30.4853    8.3346 C   0  0  0  0  0  0  0  0  0  0  0  0
   -3.2143   30.6251    8.6041 C   0  0  0  0  0  0  0  0  0  0  0  0
 14 15  1  0  0  0
 15  8  1  0  0  0
  8  9  1  0  0  0
  9  2  1  0  0  0
  2  3  1  0  0  0
  3  4  1  0  0  0
  4  5  1  0  0  0
  5  1  1  0  0  0
  1 16  1  0  0  0
 16 17  1  0  0  0
 16 19  1  0  0  0
 19 20  1  0  0  0
 20 21  1  0  0  0
 21 22  2  0  0  0
 22 23  1  0  0  0
 23 24  2  0  0  0
 24 25  1  0  0  0
 25 26  2  0  0  0
 26 27  1  0  0  0
 27 28  2  0  0  0
 28 29  1  0  0  0
 29 30  2  0  0  0
  5  6  1  0  0  0
  6  7  1  0  0  0
  9 10  2  0  0  0
 10 11  1  0  0  0
 11 12  2  0  0  0
 12 13  1  0  0  0
 13  8  2  0  0  0
  7  2  1  0  0  0
 30 21  1  0  0  0
 30 25  1  0  0  0
 17 18  1  0  0  0
M  END
> <minimizedAffinity>
-10.77487

$$$$
OCNT-0022317


 39 41  0  0  0  0  0  0  0  0999 V2000
   -6.1370   27.6742    5.1614 C   0  0  0  0  0  0  0  0  0  0  0  0
   -6.0150   26.3477    4.4462 C   0  0  0  0  0  0  0  0  0  0  0  0
   -5.7236   26.3013    3.0710 C   0  0  0  0  0  0  0  0  0  0  0  0
   -5.5878   25.0772    2.3806 C   0  0  0  0  0  0  0  0  0  0  0  0
   -5.7640   23.8749    3.0614 C   0  0  0  0  0  0  0  0  0  0  0  0
   -6.0436   23.9497    4.4433 C   0  0  0  0  0  0  0  0  0  0  0  0
   -6.1692   25.1473    5.1406 C   0  0  0  0  0  0  0  0  0  0  0  0
   -6.1172   22.5767    5.0247 C   0  0  0  0  0  0  0  0  0  0  0  0
   -6.2800   21.7618    3.7411 C   0  0  0  0  0  0  0  0  0  0  0  0
   -5.6354   22.5302    2.6573 N   0  0  0  0  0  0  0  0  0  0  0  0
   -5.2029   25.1952    0.9624 C   0  0  0  0  0  0  0  0  0  0  0  0
   -3.8797   24.9621    0.7021 N   0  0  0  0  0  0  0  0  0  0  0  0
   -5.9889   25.5175    0.0827 O   0  0  0  0  0  0  0  0  0  0  0  0
   -3.2859   24.5100    1.3834 H   0  0  0  0  0  0  0  0  0  0  0  0
   -3.6026   24.9426   -0.2702 H   0  0  0  0  0  0  0  0  0  0  0  0
   -5.9146   22.0943    1.2866 C   0  0  0  0  0  0  0  0  0  0  0  0
   -7.4085   22.1950    0.9792 C   0  0  0  0  0  0  0  0  0  0  0  0
   -7.6739   22.7123   -0.4315 C   0  0  0  0  0  0  0  0  0  0  0  0
   -8.2096   24.0330   -0.3686 O   0  0  0  0  0  0  0  0  0  0  0  0
   -7.5658   24.5833    0.1082 H   0  0  0  0  0  0  0  0  0  0  0  0
   -6.2876   29.7022    3.6194 C   0  0  0  0  0  0  0  0  0  0  0  0
   -5.3805   28.8728    4.5351 C   0  0  0  0  0  0  0  0  0  0  0  0
   -4.7598   29.6995    5.5905 N   0  0  0  0  0  0  0  0  0  0  0  0
   -3.7709   29.4482    5.6495 H   0  0  0  0  0  0  0  0  0  0  0  0
   -5.3735   29.5450    6.9198 C   0  0  0  0  0  0  0  0  0  0  0  0
   -4.3966   29.6829    8.1063 C   0  0  0  0  0  0  0  0  0  0  0  0
   -3.4632   28.6076    8.2050 O   0  0  0  0  0  0  0  0  0  0  0  0
   -2.1472   28.8346    7.9124 C   0  0  0  0  0  0  0  0  0  0  0  0
   -1.6578   28.1978    6.7597 C   0  0  0  0  0  0  0  0  0  0  0  0
   -0.3322   28.3655    6.3557 C   0  0  0  0  0  0  0  0  0  0  0  0
    0.5324   29.1310    7.1343 C   0  0  0  0  0  0  0  0  0  0  0  0
    0.0638   29.7415    8.2989 C   0  0  0  0  0  0  0  0  0  0  0  0
   -1.2708   29.5948    8.6877 C   0  0  0  0  0  0  0  0  0  0  0  0
   -2.5302   27.4811    5.9806 O   0  0  0  0  0  0  0  0  0  0  0  0
   -1.9770   26.2316    5.5358 C   0  0  0  0  0  0  0  0  0  0  0  0
   -2.0253   25.9853    4.0315 C   0  0  0  0  0  0  0  0  0  0  0  0
   -0.8024   26.0119    3.4620 F   0  0  0  0  0  0  0  0  0  0  0  0
   -2.5440   24.7510    3.7960 F   0  0  0  0  0  0  0  0  0  0  0  0
   -2.8206   26.8705    3.3893 F   0  0  0  0  0  0  0  0  0  0  0  0
 21 22  1  0  0  0
 22  1  1  0  0  0
  1  2  1  0  0  0
  2  3  1  0  0  0
  3  4  2  0  0  0
  4 11  1  0  0  0
 11 12  1  0  0  0
 11 13  2  0  0  0
  4  5  1  0  0  0
  5  6  2  0  0  0
  6  7  1  0  0  0
  6  8  1  0  0  0
  8  9  1  0  0  0
  9 10  1  0  0  0
 10 16  1  0  0  0
 16 17  1  0  0  0
 17 18  1  0  0  0
 18 19  1  0  0  0
 22 23  1  0  0  0
 23 25  1  0  0  0
 25 26  1  0  0  0
 26 27  1  0  0  0
 27 28  1  0  0  0
 28 29  1  0  0  0
 29 34  1  0  0  0
 34 35  1  0  0  0
 35 36  1  0  0  0
 36 37  1  0  0  0
 36 38  1  0  0  0
 36 39  1  0  0  0
 29 30  2  0  0  0
 30 31  1  0  0  0
 31 32  2  0  0  0
 32 33  1  0  0  0
  7  2  2  0  0  0
 33 28  2  0  0  0
 10  5  1  0  0  0
 12 14  1  0  0  0
 12 15  1  0  0  0
 19 20  1  0  0  0
 23 24  1  0  0  0
M  END
> <minimizedAffinity>
-8.88516

$$$$
OCNT-0283087


 23 26  0  0  0  0  0  0  0  0999 V2000
   -5.6064   25.0452    1.9780 C   0  0  0  0  0  0  0  0  0  0  0  0
   -5.7823   24.1958    3.0674 C   0  0  0  0  0  0  0  0  0  0  0  0
   -6.0568   24.7140    4.3411 C   0  0  0  0  0  0  0  0  0  0  0  0
   -6.1489   26.1068    4.5234 C   0  0  0  0  0  0  0  0  0  0  0  0
   -6.4171   26.9331    5.6442 C   0  0  0  0  0  0  0  0  0  0  0  0
   -6.3661   28.2585    5.2416 C   0  0  0  0  0  0  0  0  0  0  0  0
   -6.1300   28.2427    3.8781 N   0  0  0  0  0  0  0  0  0  0  0  0
   -6.0555   29.4295    3.0488 C   0  0  0  0  0  0  0  0  0  0  0  0
   -5.9705   26.9471    3.4255 C   0  0  0  0  0  0  0  0  0  0  0  0
   -5.7011   26.4331    2.1452 C   0  0  0  0  0  0  0  0  0  0  0  0
   -6.6123   29.4630    6.0133 C   0  0  0  0  0  0  0  0  0  0  0  0
   -7.7353   29.9646    6.0485 O   0  0  0  0  0  0  0  0  0  0  0  0
   -5.5437   30.0494    6.6999 N   0  0  0  0  0  0  0  0  0  0  0  0
   -4.1559   29.5639    6.6670 C   0  0  0  0  0  0  0  0  0  0  0  0
   -3.1454   30.7067    6.6870 C   0  0  0  0  0  0  0  0  0  0  0  0
   -3.4784   31.6342    7.7397 N   0  0  0  0  0  0  0  0  0  0  0  0
   -2.6470   32.4749    8.4080 C   0  0  0  0  0  0  0  0  0  0  0  0
   -3.3072   33.1705    9.3071 N   0  0  0  0  0  0  0  0  0  0  0  0
   -4.6136   32.7580    9.2023 C   0  0  0  0  0  0  0  0  0  0  0  0
   -4.7457   31.7921    8.2282 C   0  0  0  0  0  0  0  0  0  0  0  0
   -5.9121   31.0222    7.7325 C   0  0  0  0  0  0  0  0  0  0  0  0
   -6.1481   25.2115   -0.3339 C   0  0  0  0  0  0  0  0  0  0  0  0
   -5.3379   24.6536    0.6926 O   0  0  0  0  0  0  0  0  0  0  0  0
 22 23  1  0  0  0
 23  1  1  0  0  0
  1  2  2  0  0  0
  2  3  1  0  0  0
  3  4  2  0  0  0
  4  5  1  0  0  0
  5  6  2  0  0  0
  6 11  1  0  0  0
 11 12  2  0  0  0
 11 13  1  0  0  0
 13 14  1  0  0  0
 14 15  1  0  0  0
 15 16  1  0  0  0
 16 17  1  0  0  0
 17 18  2  0  0  0
 18 19  1  0  0  0
 19 20  2  0  0  0
 20 21  1  0  0  0
  6  7  1  0  0  0
  7  8  1  0  0  0
  7  9  1  0  0  0
  9 10  2  0  0  0
 10  1  1  0  0  0
  9  4  1  0  0  0
 21 13  1  0  0  0
 20 16  1  0  0  0
M  END
> <minimizedAffinity>
-8.39297

$$$$
OCNT-0381046


 27 28  0  0  0  0  0  0  0  0999 V2000
   -3.4744   30.2931    8.6067 C   0  0  0  0  0  0  0  0  0  0  0  0
   -2.3041   31.0349    8.7872 C   0  0  0  0  0  0  0  0  0  0  0  0
   -2.3728   32.3889    9.1265 C   0  0  0  0  0  0  0  0  0  0  0  0
   -3.6098   33.0047    9.3126 C   0  0  0  0  0  0  0  0  0  0  0  0
   -4.7826   32.2632    9.1773 C   0  0  0  0  0  0  0  0  0  0  0  0
   -4.7141   30.9050    8.8390 C   0  0  0  0  0  0  0  0  0  0  0  0
   -5.9744   30.1320    8.7161 C   0  0  0  0  0  0  0  0  0  0  0  0
   -6.4177   29.5172    9.6832 O   0  0  0  0  0  0  0  0  0  0  0  0
   -6.6386   30.0965    7.3522 C   0  0  0  0  0  0  0  0  0  0  0  0
   -7.0107   28.6740    6.9385 C   0  0  0  0  0  0  0  0  0  0  0  0
   -6.5273   28.3357    5.5483 C   0  0  0  0  0  0  0  0  0  0  0  0
   -6.2464   27.0086    5.1987 C   0  0  0  0  0  0  0  0  0  0  0  0
   -5.8260   26.6904    3.9072 C   0  0  0  0  0  0  0  0  0  0  0  0
   -5.6814   27.6950    2.9529 C   0  0  0  0  0  0  0  0  0  0  0  0
   -5.9595   29.0183    3.2890 C   0  0  0  0  0  0  0  0  0  0  0  0
   -6.3829   29.3380    4.5802 C   0  0  0  0  0  0  0  0  0  0  0  0
   -3.4544   28.9577    8.3227 O   0  0  0  0  0  0  0  0  0  0  0  0
   -3.0423   28.5840    7.0051 C   0  0  0  0  0  0  0  0  0  0  0  0
   -2.7089   27.0879    6.9170 C   0  0  0  0  0  0  0  0  0  0  0  0
   -2.4437   26.5950    8.2392 O   0  0  0  0  0  0  0  0  0  0  0  0
   -2.2676   25.6420    8.1534 H   0  0  0  0  0  0  0  0  0  0  0  0
   -1.5372   26.7365    5.9632 C   0  0  0  0  0  0  0  0  0  0  0  0
   -0.1653   27.0805    6.3690 N   0  0  0  0  0  0  0  0  0  0  0  0
    0.4425   26.2786    6.2044 H   0  0  0  0  0  0  0  0  0  0  0  0
    0.4114   28.2628    5.7346 C   0  0  0  0  0  0  0  0  0  0  0  0
    0.6405   29.0766    8.1392 C   0  0  0  0  0  0  0  0  0  0  0  0
    0.6253   29.4599    6.6666 C   0  0  0  0  0  0  0  0  0  0  0  0
 26 27  1  0  0  0
 27 25  1  0  0  0
 25 23  1  0  0  0
 23 22  1  0  0  0
 22 19  1  0  0  0
 19 20  1  0  0  0
 19 18  1  0  0  0
 18 17  1  0  0  0
 17  1  1  0  0  0
  1  2  2  0  0  0
  2  3  1  0  0  0
  3  4  2  0  0  0
  4  5  1  0  0  0
  5  6  2  0  0  0
  6  7  1  0  0  0
  7  8  2  0  0  0
  7  9  1  0  0  0
  9 10  1  0  0  0
 10 11  1  0  0  0
 11 12  2  0  0  0
 12 13  1  0  0  0
 13 14  2  0  0  0
 14 15  1  0  0  0
 15 16  2  0  0  0
  6  1  1  0  0  0
 16 11  1  0  0  0
 23 24  1  0  0  0
 20 21  1  0  0  0
M  END
> <minimizedAffinity>
-8.45646

$$$$
OCNT-0476550


 29 31  0  0  0  0  0  0  0  0999 V2000
   -4.2471   27.5989    5.6680 C   0  0  0  0  0  0  0  0  0  0  0  0
   -2.9127   27.6478    6.1518 C   0  0  0  0  0  0  0  0  0  0  0  0
   -2.5260   28.3563    7.3189 C   0  0  0  0  0  0  0  0  0  0  0  0
   -1.2044   28.3658    7.7595 C   0  0  0  0  0  0  0  0  0  0  0  0
   -0.2523   27.6698    7.0251 C   0  0  0  0  0  0  0  0  0  0  0  0
   -0.6215   26.9822    5.8663 C   0  0  0  0  0  0  0  0  0  0  0  0
   -1.9324   26.9631    5.4144 C   0  0  0  0  0  0  0  0  0  0  0  0
   -2.2041   26.2910    4.2873 N   0  0  0  0  0  0  0  0  0  0  0  0
   -3.4552   26.2720    3.8114 C   0  0  0  0  0  0  0  0  0  0  0  0
   -4.5341   26.9141    4.4531 C   0  0  0  0  0  0  0  0  0  0  0  0
   -5.8146   26.8448    3.8460 C   0  0  0  0  0  0  0  0  0  0  0  0
   -6.0165   26.1492    2.6549 C   0  0  0  0  0  0  0  0  0  0  0  0
   -4.9408   25.5173    2.0516 C   0  0  0  0  0  0  0  0  0  0  0  0
   -5.1712   24.6533    0.5822 Cl  0  0  0  0  0  0  0  0  0  0  0  0
   -3.6760   25.5830    2.6281 C   0  0  0  0  0  0  0  0  0  0  0  0
   -5.2818   28.2220    6.4426 N   0  0  0  0  0  0  0  0  0  0  0  0
   -4.9237   28.3074    7.3929 H   0  0  0  0  0  0  0  0  0  0  0  0
   -5.7002   29.5508    5.9328 C   0  0  0  0  0  0  0  0  0  0  0  0
   -7.2276   29.6495    5.8605 C   0  0  0  0  0  0  0  0  0  0  0  0
   -5.1773   30.6478    6.8862 C   0  0  0  0  0  0  0  0  0  0  0  0
   -5.5554   30.4015    8.3526 C   0  0  0  0  0  0  0  0  0  0  0  0
   -4.5624   31.0865    9.3031 C   0  0  0  0  0  0  0  0  0  0  0  0
   -3.9251   32.2480    8.6509 N   0  0  0  0  0  0  0  0  0  0  0  0
   -2.0232   31.8991   10.2167 C   0  0  0  0  0  0  0  0  0  0  0  0
   -2.4556   32.1722    8.7792 C   0  0  0  0  0  0  0  0  0  0  0  0
   -4.4296   33.5121    9.2232 C   0  0  0  0  0  0  0  0  0  0  0  0
   -4.9962   34.4372    8.1495 C   0  0  0  0  0  0  0  0  0  0  0  0
   -0.7255   29.0051    8.8675 O   0  0  0  0  0  0  0  0  0  0  0  0
    0.6098   29.4905    8.8012 C   0  0  0  0  0  0  0  0  0  0  0  0
 24 25  1  0  0  0
 25 23  1  0  0  0
 23 26  1  0  0  0
 26 27  1  0  0  0
 23 22  1  0  0  0
 22 21  1  0  0  0
 21 20  1  0  0  0
 20 18  1  0  0  0
 18 19  1  0  0  0
 18 16  1  0  0  0
 16  1  1  0  0  0
  1  2  1  0  0  0
  2  3  2  0  0  0
  3  4  1  0  0  0
  4 28  1  0  0  0
 28 29  1  0  0  0
  4  5  2  0  0  0
  5  6  1  0  0  0
  6  7  2  0  0  0
  7  8  1  0  0  0
  8  9  2  0  0  0
  9 10  1  0  0  0
 10 11  1  0  0  0
 11 12  2  0  0  0
 12 13  1  0  0  0
 13 14  1  0  0  0
 13 15  2  0  0  0
 10  1  2  0  0  0
  7  2  1  0  0  0
 15  9  1  0  0  0
 16 17  1  0  0  0
M  END
> <minimizedAffinity>
-8.58477

$$$$
OCNT-0476578


 20 22  0  0  0  0  0  0  0  0999 V2000
   -5.3913   25.2471    2.3184 C   0  0  0  0  0  0  0  0  0  0  0  0
   -4.0934   24.7628    2.5318 C   0  0  0  0  0  0  0  0  0  0  0  0
   -3.2648   25.2756    3.5388 C   0  0  0  0  0  0  0  0  0  0  0  0
   -3.6919   26.3069    4.3732 C   0  0  0  0  0  0  0  0  0  0  0  0
   -2.7835   26.7485    5.3446 N   0  0  0  0  0  0  0  0  0  0  0  0
   -3.0752   27.7156    6.1486 C   0  0  0  0  0  0  0  0  0  0  0  0
   -2.0195   28.0886    7.1210 C   0  0  0  0  0  0  0  0  0  0  0  0
   -2.1520   29.0793    8.0067 C   0  0  0  0  0  0  0  0  0  0  0  0
   -3.3969   29.8951    8.0858 C   0  0  0  0  0  0  0  0  0  0  0  0
   -3.5387   30.8750    8.9354 N   0  0  0  0  0  0  0  0  0  0  0  0
   -4.8271   31.6235    9.0997 C   0  0  0  0  0  0  0  0  0  0  0  0
   -2.4241   31.3410    9.8231 C   0  0  0  0  0  0  0  0  0  0  0  0
   -4.4687   29.5039    7.1211 C   0  0  0  0  0  0  0  0  0  0  0  0
   -4.3303   28.5089    6.2308 C   0  0  0  0  0  0  0  0  0  0  0  0
   -5.6369   28.1485    5.1655 S   0  0  0  0  0  0  0  0  0  0  0  0
   -4.9721   26.8242    4.1807 C   0  0  0  0  0  0  0  0  0  0  0  0
   -5.7962   26.2959    3.1645 C   0  0  0  0  0  0  0  0  0  0  0  0
   -6.1173   25.3169   -0.0440 C   0  0  0  0  0  0  0  0  0  0  0  0
   -6.2161   24.7546    1.3032 N   0  0  0  0  0  0  0  0  0  0  0  0
   -6.6813   23.3691    1.3728 C   0  0  0  0  0  0  0  0  0  0  0  0
 18 19  1  0  0  0
 19 20  1  0  0  0
 19  1  1  0  0  0
  1  2  1  0  0  0
  2  3  2  0  0  0
  3  4  1  0  0  0
  4  5  1  0  0  0
  5  6  2  0  0  0
  6  7  1  0  0  0
  7  8  2  0  0  0
  8  9  1  0  0  0
  9 10  2  0  0  0
 10 11  1  0  0  0
 10 12  1  0  0  0
  9 13  1  0  0  0
 13 14  2  0  0  0
 14 15  1  0  0  0
 15 16  1  0  0  0
 16 17  1  0  0  0
 17  1  2  0  0  0
 16  4  2  0  0  0
 14  6  1  0  0  0
M  CHG 1  10   1
M  END
> <minimizedAffinity>
-7.79799

$$$$
OCNT-0477348


 22 24  0  0  0  0  0  0  0  0999 V2000
   -5.2238   25.0417    2.5372 N   0  0  0  0  0  0  0  0  0  0  0  0
   -5.7893   23.7577    2.3180 C   0  0  0  0  0  0  0  0  0  0  0  0
   -6.6269   23.0760    3.2266 C   0  0  0  0  0  0  0  0  0  0  0  0
   -7.1863   21.8254    2.8617 C   0  0  0  0  0  0  0  0  0  0  0  0
   -6.9224   21.2323    1.6322 C   0  0  0  0  0  0  0  0  0  0  0  0
   -6.1089   21.8896    0.7287 C   0  0  0  0  0  0  0  0  0  0  0  0
   -5.5652   23.1317    1.0663 C   0  0  0  0  0  0  0  0  0  0  0  0
   -7.0191   23.5742    4.5996 C   0  0  0  0  0  0  0  0  0  0  0  0
   -5.9995   24.4515    5.3085 C   0  0  0  0  0  0  0  0  0  0  0  0
   -6.0288   25.8414    4.7410 C   0  0  0  0  0  0  0  0  0  0  0  0
   -6.4245   26.9155    5.5599 C   0  0  0  0  0  0  0  0  0  0  0  0
   -6.4760   28.2136    5.0561 C   0  0  0  0  0  0  0  0  0  0  0  0
   -6.1356   28.4433    3.7300 C   0  0  0  0  0  0  0  0  0  0  0  0
   -6.2042   30.0406    3.0931 Cl  0  0  0  0  0  0  0  0  0  0  0  0
   -5.7367   27.3875    2.9129 C   0  0  0  0  0  0  0  0  0  0  0  0
   -5.6676   26.0700    3.4058 C   0  0  0  0  0  0  0  0  0  0  0  0
   -3.7843   25.1951    2.1878 C   0  0  0  0  0  0  0  0  0  0  0  0
   -2.8707   24.9354    3.3938 C   0  0  0  0  0  0  0  0  0  0  0  0
   -2.0503   26.1874    3.7275 C   0  0  0  0  0  0  0  0  0  0  0  0
   -0.8872   26.5780    5.7990 C   0  0  0  0  0  0  0  0  0  0  0  0
   -0.8326   25.8949    4.5034 N   0  0  0  0  0  0  0  0  0  0  0  0
    0.3859   26.2871    3.7915 C   0  0  0  0  0  0  0  0  0  0  0  0
 20 21  1  0  0  0
 21 22  1  0  0  0
 21 19  1  0  0  0
 19 18  1  0  0  0
 18 17  1  0  0  0
 17  1  1  0  0  0
  1  2  1  0  0  0
  2  3  1  0  0  0
  3  4  2  0  0  0
  4  5  1  0  0  0
  5  6  2  0  0  0
  6  7  1  0  0  0
  3  8  1  0  0  0
  8  9  1  0  0  0
  9 10  1  0  0  0
 10 11  1  0  0  0
 11 12  2  0  0  0
 12 13  1  0  0  0
 13 14  1  0  0  0
 13 15  2  0  0  0
 15 16  1  0  0  0
 16  1  1  0  0  0
  7  2  2  0  0  0
 16 10  2  0  0  0
M  END
> <minimizedAffinity>
-8.28278

$$$$
OCNT-0477587


 21 22  0  0  0  0  0  0  0  0999 V2000
   -6.1835   23.0387    1.7004 C   0  0  0  0  0  0  0  0  0  0  0  0
   -6.6226   24.3889    1.0776 C   0  0  0  0  0  0  0  0  0  0  0  0
   -7.6228   24.0196   -0.0153 C   0  0  0  0  0  0  0  0  0  0  0  0
   -7.2283   22.6227   -0.4804 C   0  0  0  0  0  0  0  0  0  0  0  0
   -6.0455   22.2160    0.3949 C   0  0  0  0  0  0  0  0  0  0  0  0
   -7.2047   22.5223    2.7264 C   0  0  0  0  0  0  0  0  0  0  0  0
   -7.6508   21.1908    2.7572 C   0  0  0  0  0  0  0  0  0  0  0  0
   -8.5697   20.7562    3.7179 C   0  0  0  0  0  0  0  0  0  0  0  0
   -9.0560   21.6408    4.6744 C   0  0  0  0  0  0  0  0  0  0  0  0
   -8.6186   22.9607    4.6761 C   0  0  0  0  0  0  0  0  0  0  0  0
   -7.7008   23.3942    3.7168 C   0  0  0  0  0  0  0  0  0  0  0  0
   -4.7955   23.1195    2.3533 C   0  0  0  0  0  0  0  0  0  0  0  0
   -4.2881   22.2199    3.0122 O   0  0  0  0  0  0  0  0  0  0  0  0
   -4.2140   24.3349    2.1415 O   0  0  0  0  0  0  0  0  0  0  0  0
   -3.2261   24.7048    3.1183 C   0  0  0  0  0  0  0  0  0  0  0  0
   -3.2297   26.2363    3.2467 C   0  0  0  0  0  0  0  0  0  0  0  0
   -3.6241   26.8101    4.5482 N   0  0  0  0  0  0  0  0  0  0  0  0
   -5.8672   27.2474    3.5297 C   0  0  0  0  0  0  0  0  0  0  0  0
   -5.0849   26.7338    4.7347 C   0  0  0  0  0  0  0  0  0  0  0  0
   -2.8916   26.2450    5.6933 C   0  0  0  0  0  0  0  0  0  0  0  0
   -1.4187   26.6434    5.7362 C   0  0  0  0  0  0  0  0  0  0  0  0
 18 19  1  0  0  0
 19 17  1  0  0  0
 17 20  1  0  0  0
 20 21  1  0  0  0
 17 16  1  0  0  0
 16 15  1  0  0  0
 15 14  1  0  0  0
 14 12  1  0  0  0
 12 13  2  0  0  0
 12  1  1  0  0  0
  1  6  1  0  0  0
  6  7  2  0  0  0
  7  8  1  0  0  0
  8  9  2  0  0  0
  9 10  1  0  0  0
 10 11  2  0  0  0
  1  2  1  0  0  0
  2  3  1  0  0  0
  3  4  1  0  0  0
  4  5  1  0  0  0
  5  1  1  0  0  0
 11  6  1  0  0  0
M  END
> <minimizedAffinity>
-7.18139

$$$$
OCNT-0478484


 21 23  0  0  0  0  0  0  0  0999 V2000
   -3.2244   30.8084    7.4149 N   0  0  0  0  0  0  0  0  0  0  0  0
   -3.7454   32.0258    7.9711 C   0  0  0  0  0  0  0  0  0  0  0  0
   -3.4555   32.4741    9.2729 C   0  0  0  0  0  0  0  0  0  0  0  0
   -4.0571   33.6442    9.7930 C   0  0  0  0  0  0  0  0  0  0  0  0
   -4.9278   34.4093    9.0291 C   0  0  0  0  0  0  0  0  0  0  0  0
   -5.1995   34.0181    7.7317 C   0  0  0  0  0  0  0  0  0  0  0  0
   -4.6159   32.8532    7.2193 C   0  0  0  0  0  0  0  0  0  0  0  0
   -2.4730   31.7597   10.1511 C   0  0  0  0  0  0  0  0  0  0  0  0
   -1.1258   31.7549    9.4527 C   0  0  0  0  0  0  0  0  0  0  0  0
   -0.9828   30.5620    8.5446 C   0  0  0  0  0  0  0  0  0  0  0  0
   -1.9954   30.1082    7.6662 C   0  0  0  0  0  0  0  0  0  0  0  0
   -1.6931   28.8941    6.9928 C   0  0  0  0  0  0  0  0  0  0  0  0
   -0.4772   28.2086    7.1221 C   0  0  0  0  0  0  0  0  0  0  0  0
    0.5102   28.7111    7.9427 C   0  0  0  0  0  0  0  0  0  0  0  0
    0.2569   29.8768    8.6486 C   0  0  0  0  0  0  0  0  0  0  0  0
   -4.2216   30.1083    6.5468 C   0  0  0  0  0  0  0  0  0  0  0  0
   -5.2136   29.2623    7.3682 C   0  0  0  0  0  0  0  0  0  0  0  0
   -6.5686   29.1233    6.6719 C   0  0  0  0  0  0  0  0  0  0  0  0
   -6.1821   27.1795    5.3059 C   0  0  0  0  0  0  0  0  0  0  0  0
   -6.9055   27.7164    6.4524 N   0  0  0  0  0  0  0  0  0  0  0  0
   -6.6561   27.1755    7.2812 H   0  0  0  0  0  0  0  0  0  0  0  0
 19 20  1  0  0  0
 20 18  1  0  0  0
 18 17  1  0  0  0
 17 16  1  0  0  0
 16  1  1  0  0  0
  1  2  1  0  0  0
  2  3  1  0  0  0
  3  4  2  0  0  0
  4  5  1  0  0  0
  5  6  2  0  0  0
  6  7  1  0  0  0
  3  8  1  0  0  0
  8  9  1  0  0  0
  9 10  1  0  0  0
 10 11  1  0  0  0
 11 12  2  0  0  0
 12 13  1  0  0  0
 13 14  2  0  0  0
 14 15  1  0  0  0
 11  1  1  0  0  0
  7  2  2  0  0  0
 15 10  2  0  0  0
 20 21  1  0  0  0
M  END
> <minimizedAffinity>
-8.75608

$$$$
OCNT-0478585


 17 19  0  0  0  0  0  0  0  0999 V2000
   -3.8917   31.0264    5.6955 N   0  0  0  0  0  0  0  0  0  0  0  0
   -3.3729   31.2626    6.9932 C   0  0  0  0  0  0  0  0  0  0  0  0
   -4.0054   32.2143    7.8011 C   0  0  0  0  0  0  0  0  0  0  0  0
   -5.3114   32.8814    7.4576 C   0  0  0  0  0  0  0  0  0  0  0  0
   -5.3030   34.3658    7.8385 C   0  0  0  0  0  0  0  0  0  0  0  0
   -4.6423   34.6834    9.1876 C   0  0  0  0  0  0  0  0  0  0  0  0
   -4.1682   33.4528    9.9568 C   0  0  0  0  0  0  0  0  0  0  0  0
   -3.4405   32.5033    9.0419 C   0  0  0  0  0  0  0  0  0  0  0  0
   -2.2882   31.9597    9.4850 N   0  0  0  0  0  0  0  0  0  0  0  0
   -1.6403   31.1064    8.6800 C   0  0  0  0  0  0  0  0  0  0  0  0
   -2.1231   30.7258    7.4066 C   0  0  0  0  0  0  0  0  0  0  0  0
   -1.3387   29.8374    6.6276 C   0  0  0  0  0  0  0  0  0  0  0  0
   -0.1265   29.3332    7.0993 C   0  0  0  0  0  0  0  0  0  0  0  0
    0.3264   29.7066    8.3552 C   0  0  0  0  0  0  0  0  0  0  0  0
   -0.4330   30.5867    9.1275 C   0  0  0  0  0  0  0  0  0  0  0  0
   -3.6352   30.1154    5.3302 H   0  0  0  0  0  0  0  0  0  0  0  0
   -3.5757   31.7540    5.0567 H   0  0  0  0  0  0  0  0  0  0  0  0
  1  2  1  0  0  0
  2  3  2  0  0  0
  3  4  1  0  0  0
  4  5  1  0  0  0
  5  6  1  0  0  0
  6  7  1  0  0  0
  7  8  1  0  0  0
  8  9  2  0  0  0
  9 10  1  0  0  0
 10 11  1  0  0  0
 11 12  2  0  0  0
 12 13  1  0  0  0
 13 14  2  0  0  0
 14 15  1  0  0  0
 11  2  1  0  0  0
  8  3  1  0  0  0
 15 10  2  0  0  0
  1 16  1  0  0  0
  1 17  1  0  0  0
M  END
> <minimizedAffinity>
-8.24871

$$$$
OCNT-0483502


 27 30  0  0  0  0  0  0  0  0999 V2000
   -6.7375   29.6615    5.7205 C   0  0  0  0  0  0  0  0  0  0  0  0
   -6.1248   30.1325    3.0301 O   0  0  0  0  0  0  0  0  0  0  0  0
   -6.1061   28.9541    3.3670 C   0  0  0  0  0  0  0  0  0  0  0  0
   -5.8538   27.9554    2.4382 O   0  0  0  0  0  0  0  0  0  0  0  0
   -5.7735   26.6048    2.8120 C   0  0  0  0  0  0  0  0  0  0  0  0
   -5.5115   25.6810    1.8006 C   0  0  0  0  0  0  0  0  0  0  0  0
   -5.4187   24.3293    2.1223 C   0  0  0  0  0  0  0  0  0  0  0  0
   -5.5882   23.9178    3.4446 C   0  0  0  0  0  0  0  0  0  0  0  0
   -5.8501   24.8588    4.4466 C   0  0  0  0  0  0  0  0  0  0  0  0
   -5.9447   26.2207    4.1367 C   0  0  0  0  0  0  0  0  0  0  0  0
   -6.2185   27.2551    5.1315 C   0  0  0  0  0  0  0  0  0  0  0  0
   -6.3394   26.8056    6.4311 O   0  0  0  0  0  0  0  0  0  0  0  0
   -6.3275   28.5482    4.7786 C   0  0  0  0  0  0  0  0  0  0  0  0
   -6.0586   27.5287    7.0283 H   0  0  0  0  0  0  0  0  0  0  0  0
   -5.6704   30.0513    6.7158 C   0  0  0  0  0  0  0  0  0  0  0  0
   -4.5722   30.7537    6.3922 C   0  0  0  0  0  0  0  0  0  0  0  0
   -4.3643   31.1808    5.0925 O   0  0  0  0  0  0  0  0  0  0  0  0
   -3.5782   31.1163    7.4060 C   0  0  0  0  0  0  0  0  0  0  0  0
   -2.3545   31.7423    7.1321 C   0  0  0  0  0  0  0  0  0  0  0  0
   -1.4806   32.0852    8.1716 C   0  0  0  0  0  0  0  0  0  0  0  0
   -1.8131   31.7993    9.4951 C   0  0  0  0  0  0  0  0  0  0  0  0
   -3.0118   31.1537    9.7809 C   0  0  0  0  0  0  0  0  0  0  0  0
   -3.8692   30.8143    8.7343 C   0  0  0  0  0  0  0  0  0  0  0  0
   -5.0313   30.1044    9.0793 O   0  0  0  0  0  0  0  0  0  0  0  0
   -5.8645   29.5689    8.1074 C   0  0  0  0  0  0  0  0  0  0  0  0
   -6.7111   28.7314    8.3964 O   0  0  0  0  0  0  0  0  0  0  0  0
   -3.8818   32.0278    5.1280 H   0  0  0  0  0  0  0  0  0  0  0  0
  2  3  2  0  0  0
  3  4  1  0  0  0
  4  5  1  0  0  0
  5  6  2  0  0  0
  6  7  1  0  0  0
  7  8  2  0  0  0
  8  9  1  0  0  0
  9 10  2  0  0  0
 10 11  1  0  0  0
 11 12  1  0  0  0
 11 13  2  0  0  0
 13  1  1  0  0  0
  1 15  1  0  0  0
 15 16  2  0  0  0
 16 17  1  0  0  0
 16 18  1  0  0  0
 18 19  2  0  0  0
 19 20  1  0  0  0
 20 21  2  0  0  0
 21 22  1  0  0  0
 22 23  2  0  0  0
 23 24  1  0  0  0
 24 25  1  0  0  0
 25 26  2  0  0  0
 13  3  1  0  0  0
 25 15  1  0  0  0
 10  5  1  0  0  0
 23 18  1  0  0  0
 12 14  1  0  0  0
 17 27  1  0  0  0
M  END
> <minimizedAffinity>
-10.05835

$$$$
OCNT-0483505


 16 18  0  0  0  0  0  0  0  0999 V2000
   -3.4853   30.5303    7.1612 C   0  0  0  0  0  0  0  0  0  0  0  0
   -2.2050   30.0346    7.4682 C   0  0  0  0  0  0  0  0  0  0  0  0
   -1.7591   28.8964    6.7451 O   0  0  0  0  0  0  0  0  0  0  0  0
   -0.5172   28.3227    6.9628 C   0  0  0  0  0  0  0  0  0  0  0  0
   -0.1217   27.3410    6.3455 O   0  0  0  0  0  0  0  0  0  0  0  0
    0.3290   28.9533    7.9893 C   0  0  0  0  0  0  0  0  0  0  0  0
   -0.0645   30.0241    8.6844 C   0  0  0  0  0  0  0  0  0  0  0  0
   -1.3749   30.6072    8.4354 C   0  0  0  0  0  0  0  0  0  0  0  0
   -1.8109   31.7298    9.1508 C   0  0  0  0  0  0  0  0  0  0  0  0
   -3.0865   32.2602    8.8765 C   0  0  0  0  0  0  0  0  0  0  0  0
   -3.8810   31.6547    7.9010 C   0  0  0  0  0  0  0  0  0  0  0  0
   -5.0656   32.3312    7.8045 O   0  0  0  0  0  0  0  0  0  0  0  0
   -5.0331   33.3498    8.6987 C   0  0  0  0  0  0  0  0  0  0  0  0
   -3.8421   33.3524    9.3826 C   0  0  0  0  0  0  0  0  0  0  0  0
   -5.2402   29.0075    6.6216 C   0  0  0  0  0  0  0  0  0  0  0  0
   -4.1933   29.8600    6.1797 O   0  0  0  0  0  0  0  0  0  0  0  0
 15 16  1  0  0  0
 16  1  1  0  0  0
  1  2  1  0  0  0
  2  3  1  0  0  0
  3  4  1  0  0  0
  4  5  2  0  0  0
  4  6  1  0  0  0
  6  7  2  0  0  0
  7  8  1  0  0  0
  8  9  1  0  0  0
  9 10  2  0  0  0
 10 11  1  0  0  0
 11 12  1  0  0  0
 12 13  1  0  0  0
 13 14  2  0  0  0
 11  1  2  0  0  0
  8  2  2  0  0  0
 14 10  1  0  0  0
M  END
> <minimizedAffinity>
-7.27772

$$$$
OCNT-0493312


 27 30  0  0  0  0  0  0  0  0999 V2000
    0.8806   27.2165    4.0481 C   0  0  0  0  0  0  0  0  0  0  0  0
    1.6054   28.0710    4.5431 O   0  0  0  0  0  0  0  0  0  0  0  0
   -0.2955   26.7717    4.6182 N   0  0  0  0  0  0  0  0  0  0  0  0
   -0.7456   27.3172    5.8913 C   0  0  0  0  0  0  0  0  0  0  0  0
   -2.2564   27.5923    5.9022 C   0  0  0  0  0  0  0  0  0  0  0  0
   -3.1078   26.4477    5.3505 C   0  0  0  0  0  0  0  0  0  0  0  0
   -4.4608   26.5363    5.2085 C   0  0  0  0  0  0  0  0  0  0  0  0
   -5.2055   25.4115    4.5950 C   0  0  0  0  0  0  0  0  0  0  0  0
   -5.4220   24.2190    5.2987 C   0  0  0  0  0  0  0  0  0  0  0  0
   -6.1272   23.1726    4.7030 C   0  0  0  0  0  0  0  0  0  0  0  0
   -6.6235   23.3227    3.4095 C   0  0  0  0  0  0  0  0  0  0  0  0
   -7.4931   22.0318    2.6752 Cl  0  0  0  0  0  0  0  0  0  0  0  0
   -6.4301   24.5127    2.7068 C   0  0  0  0  0  0  0  0  0  0  0  0
   -5.7245   25.5695    3.2983 C   0  0  0  0  0  0  0  0  0  0  0  0
   -5.5420   26.8843    2.5814 C   0  0  0  0  0  0  0  0  0  0  0  0
   -6.3541   28.0106    3.2323 C   0  0  0  0  0  0  0  0  0  0  0  0
   -6.0402   28.4452    4.6501 C   0  0  0  0  0  0  0  0  0  0  0  0
   -6.6958   29.6007    5.1136 C   0  0  0  0  0  0  0  0  0  0  0  0
   -6.5014   30.0550    6.4119 C   0  0  0  0  0  0  0  0  0  0  0  0
   -5.6559   29.3339    7.2276 C   0  0  0  0  0  0  0  0  0  0  0  0
   -5.0080   28.2202    6.8320 N   0  0  0  0  0  0  0  0  0  0  0  0
   -5.1924   27.7888    5.5548 C   0  0  0  0  0  0  0  0  0  0  0  0
   -2.2674   25.2587    4.9031 C   0  0  0  0  0  0  0  0  0  0  0  0
   -1.0995   25.7107    4.0187 C   0  0  0  0  0  0  0  0  0  0  0  0
    1.1393   26.5962    2.8632 O   0  0  0  0  0  0  0  0  0  0  0  0
    2.4096   24.6519    3.5469 C   0  0  0  0  0  0  0  0  0  0  0  0
    2.4144   25.9480    2.7582 C   0  0  0  0  0  0  0  0  0  0  0  0
 26 27  1  0  0  0
 27 25  1  0  0  0
 25  1  1  0  0  0
  1  2  2  0  0  0
  1  3  1  0  0  0
  3  4  1  0  0  0
  4  5  1  0  0  0
  5  6  1  0  0  0
  6  7  2  0  0  0
  7  8  1  0  0  0
  8  9  1  0  0  0
  9 10  2  0  0  0
 10 11  1  0  0  0
 11 12  1  0  0  0
 11 13  2  0  0  0
 13 14  1  0  0  0
 14 15  1  0  0  0
 15 16  1  0  0  0
 16 17  1  0  0  0
 17 18  1  0  0  0
 18 19  2  0  0  0
 19 20  1  0  0  0
 20 21  2  0  0  0
 21 22  1  0  0  0
  6 23  1  0  0  0
 23 24  1  0  0  0
 24  3  1  0  0  0
 22  7  1  0  0  0
 14  8  2  0  0  0
 22 17  2  0  0  0
M  END
> <minimizedAffinity>
-8.00915

$$$$
OCNT-0493664


 24 26  0  0  0  0  0  0  0  0999 V2000
   -1.6721   26.0044    4.1553 C   0  0  0  0  0  0  0  0  0  0  0  0
   -2.8264   26.6889    4.8138 C   0  0  0  0  0  0  0  0  0  0  0  0
   -4.1092   26.7317    4.4180 C   0  0  0  0  0  0  0  0  0  0  0  0
   -4.7936   27.6704    5.3642 C   0  0  0  0  0  0  0  0  0  0  0  0
   -5.9690   27.9805    5.2233 O   0  0  0  0  0  0  0  0  0  0  0  0
   -3.8286   28.0932    6.2797 N   0  0  0  0  0  0  0  0  0  0  0  0
   -2.5923   27.4494    5.9783 N   0  0  0  0  0  0  0  0  0  0  0  0
   -2.0071   26.7405    7.1331 C   0  0  0  0  0  0  0  0  0  0  0  0
   -3.8771   29.2933    7.0352 C   0  0  0  0  0  0  0  0  0  0  0  0
   -4.2067   29.2708    8.3974 C   0  0  0  0  0  0  0  0  0  0  0  0
   -4.2521   30.4507    9.1479 C   0  0  0  0  0  0  0  0  0  0  0  0
   -3.9731   31.6738    8.5455 C   0  0  0  0  0  0  0  0  0  0  0  0
   -3.6520   31.7182    7.1925 C   0  0  0  0  0  0  0  0  0  0  0  0
   -3.6056   30.5373    6.4446 C   0  0  0  0  0  0  0  0  0  0  0  0
   -4.8353   26.1696    3.4013 N   0  0  0  0  0  0  0  0  0  0  0  0
   -5.1813   24.8487    3.2239 C   0  0  0  0  0  0  0  0  0  0  0  0
   -4.9719   23.9411    4.0190 O   0  0  0  0  0  0  0  0  0  0  0  0
   -5.2962   26.8647    2.8188 H   0  0  0  0  0  0  0  0  0  0  0  0
   -5.9304   24.5446    1.9783 C   0  0  0  0  0  0  0  0  0  0  0  0
   -5.8931   25.3545    0.8393 C   0  0  0  0  0  0  0  0  0  0  0  0
   -6.6281   24.9849   -0.2866 C   0  0  0  0  0  0  0  0  0  0  0  0
   -7.3697   23.8147   -0.2377 C   0  0  0  0  0  0  0  0  0  0  0  0
   -7.4170   23.0033    0.8402 N   0  0  0  0  0  0  0  0  0  0  0  0
   -6.6895   23.3814    1.9218 C   0  0  0  0  0  0  0  0  0  0  0  0
  1  2  1  0  0  0
  2  3  2  0  0  0
  3 15  1  0  0  0
 15 16  1  0  0  0
 16 17  2  0  0  0
 16 19  1  0  0  0
 19 20  1  0  0  0
 20 21  2  0  0  0
 21 22  1  0  0  0
 22 23  2  0  0  0
 23 24  1  0  0  0
  3  4  1  0  0  0
  4  5  2  0  0  0
  4  6  1  0  0  0
  6  9  1  0  0  0
  9 10  2  0  0  0
 10 11  1  0  0  0
 11 12  2  0  0  0
 12 13  1  0  0  0
 13 14  2  0  0  0
  6  7  1  0  0  0
  7  8  1  0  0  0
  7  2  1  0  0  0
 24 19  2  0  0  0
 14  9  1  0  0  0
 15 18  1  0  0  0
M  END
> <minimizedAffinity>
-8.41434

$$$$
OCNT-0493764


 27 28  0  0  0  0  0  0  0  0999 V2000
   -3.7247   28.2672    5.7989 N   0  0  0  0  0  0  0  0  0  0  0  0
   -3.5224   28.7268    6.6890 H   0  0  0  0  0  0  0  0  0  0  0  0
   -5.1515   27.9128    5.7834 C   0  0  0  0  0  0  0  0  0  0  0  0
   -5.7354   27.9490    4.3595 C   0  0  0  0  0  0  0  0  0  0  0  0
   -6.0357   24.0467    2.5100 C   0  0  0  0  0  0  0  0  0  0  0  0
   -6.2392   24.1986    3.8852 C   0  0  0  0  0  0  0  0  0  0  0  0
   -6.1467   25.4595    4.4796 C   0  0  0  0  0  0  0  0  0  0  0  0
   -5.8497   26.5879    3.7099 C   0  0  0  0  0  0  0  0  0  0  0  0
   -5.6459   26.4370    2.3299 C   0  0  0  0  0  0  0  0  0  0  0  0
   -5.7350   25.1771    1.7241 C   0  0  0  0  0  0  0  0  0  0  0  0
   -7.3148   22.1126    1.9330 C   0  0  0  0  0  0  0  0  0  0  0  0
   -6.1034   22.8478    1.8433 O   0  0  0  0  0  0  0  0  0  0  0  0
   -5.5458   24.9459    0.3832 O   0  0  0  0  0  0  0  0  0  0  0  0
   -6.5687   25.3633   -0.5086 C   0  0  0  0  0  0  0  0  0  0  0  0
   -2.8476   27.0870    5.6889 C   0  0  0  0  0  0  0  0  0  0  0  0
   -1.8033   26.9260    6.8131 C   0  0  0  0  0  0  0  0  0  0  0  0
   -2.4552   26.5657    8.0435 O   0  0  0  0  0  0  0  0  0  0  0  0
   -1.7577   26.5969    8.7261 H   0  0  0  0  0  0  0  0  0  0  0  0
   -1.0475   28.2434    7.0423 C   0  0  0  0  0  0  0  0  0  0  0  0
   -1.1778   28.5787    8.4304 O   0  0  0  0  0  0  0  0  0  0  0  0
   -1.7457   29.7872    8.7274 C   0  0  0  0  0  0  0  0  0  0  0  0
   -0.8321   30.8048    9.0098 C   0  0  0  0  0  0  0  0  0  0  0  0
   -1.2752   32.0860    9.3371 C   0  0  0  0  0  0  0  0  0  0  0  0
   -2.6410   32.3591    9.3810 C   0  0  0  0  0  0  0  0  0  0  0  0
   -3.5706   31.3549    9.0879 C   0  0  0  0  0  0  0  0  0  0  0  0
   -5.0421   31.6385    9.1694 C   0  0  0  0  0  0  0  0  0  0  0  0
   -3.1138   30.0644    8.7738 C   0  0  0  0  0  0  0  0  0  0  0  0
 11 12  1  0  0  0
 12  5  1  0  0  0
  5  6  1  0  0  0
  6  7  2  0  0  0
  7  8  1  0  0  0
  8  4  1  0  0  0
  4  3  1  0  0  0
  3  1  1  0  0  0
  1 15  1  0  0  0
 15 16  1  0  0  0
 16 17  1  0  0  0
 16 19  1  0  0  0
 19 20  1  0  0  0
 20 21  1  0  0  0
 21 22  1  0  0  0
 22 23  2  0  0  0
 23 24  1  0  0  0
 24 25  2  0  0  0
 25 26  1  0  0  0
 25 27  1  0  0  0
  8  9  2  0  0  0
  9 10  1  0  0  0
 10 13  1  0  0  0
 13 14  1  0  0  0
 10  5  2  0  0  0
 27 21  2  0  0  0
  1  2  1  0  0  0
 17 18  1  0  0  0
M  END
> <minimizedAffinity>
-8.47216

$$$$
OCNT-0493927


 22 24  0  0  0  0  0  0  0  0999 V2000
   -7.2670   23.6123   -0.6504 O   0  0  0  0  0  0  0  0  0  0  0  0
   -7.0951   23.5528    0.5605 C   0  0  0  0  0  0  0  0  0  0  0  0
   -7.5834   22.5096    1.2937 N   0  0  0  0  0  0  0  0  0  0  0  0
   -7.5160   22.4244    2.6767 C   0  0  0  0  0  0  0  0  0  0  0  0
   -8.2462   21.4482    3.3547 C   0  0  0  0  0  0  0  0  0  0  0  0
   -8.1748   21.3784    4.7462 C   0  0  0  0  0  0  0  0  0  0  0  0
   -7.3649   22.2732    5.4424 C   0  0  0  0  0  0  0  0  0  0  0  0
   -7.2671   22.1802    7.1569 Cl  0  0  0  0  0  0  0  0  0  0  0  0
   -6.6206   23.2355    4.7577 C   0  0  0  0  0  0  0  0  0  0  0  0
   -6.6975   23.3228    3.3564 C   0  0  0  0  0  0  0  0  0  0  0  0
   -5.8511   24.2679    2.5174 C   0  0  0  0  0  0  0  0  0  0  0  0
   -6.4879   24.5496    1.2458 O   0  0  0  0  0  0  0  0  0  0  0  0
   -8.1285   21.8421    0.7623 H   0  0  0  0  0  0  0  0  0  0  0  0
   -4.4515   23.6407    2.2547 C   0  0  0  0  0  0  0  0  0  0  0  0
   -4.4720   22.2874    2.3591 F   0  0  0  0  0  0  0  0  0  0  0  0
   -3.5189   24.0892    3.1307 F   0  0  0  0  0  0  0  0  0  0  0  0
   -3.9887   23.9296    1.0122 F   0  0  0  0  0  0  0  0  0  0  0  0
   -5.6987   25.5848    3.1893 C   0  0  0  0  0  0  0  0  0  0  0  0
   -5.5706   26.6502    3.7296 C   0  0  0  0  0  0  0  0  0  0  0  0
   -5.4099   27.9215    4.3696 C   0  0  0  0  0  0  0  0  0  0  0  0
   -6.5737   28.4967    5.1333 C   0  0  0  0  0  0  0  0  0  0  0  0
   -6.1649   29.1049    3.8233 C   0  0  0  0  0  0  0  0  0  0  0  0
  1  2  2  0  0  0
  2  3  1  0  0  0
  3  4  1  0  0  0
  4  5  1  0  0  0
  5  6  2  0  0  0
  6  7  1  0  0  0
  7  8  1  0  0  0
  7  9  2  0  0  0
  9 10  1  0  0  0
 10 11  1  0  0  0
 11 18  1  0  0  0
 18 19  3  0  0  0
 19 20  1  0  0  0
 20 21  1  0  0  0
 21 22  1  0  0  0
 11 14  1  0  0  0
 14 15  1  0  0  0
 14 16  1  0  0  0
 14 17  1  0  0  0
 11 12  1  0  0  0
 12  2  1  0  0  0
 10  4  2  0  0  0
 22 20  1  0  0  0
  3 13  1  0  0  0
M  END
> <minimizedAffinity>
-8.45091

$$$$
OCNT-0493940


 23 25  0  0  0  0  0  0  0  0999 V2000
   -5.4412   25.7687    3.8396 N   0  0  0  0  0  0  0  0  0  0  0  0
   -5.8212   27.0786    4.2218 C   0  0  0  0  0  0  0  0  0  0  0  0
   -5.7849   28.1497    3.3151 C   0  0  0  0  0  0  0  0  0  0  0  0
   -6.1597   29.4420    3.7012 C   0  0  0  0  0  0  0  0  0  0  0  0
   -6.5811   29.6856    5.0057 C   0  0  0  0  0  0  0  0  0  0  0  0
   -6.6295   28.6317    5.9113 C   0  0  0  0  0  0  0  0  0  0  0  0
   -7.0380   28.8245    7.1992 O   0  0  0  0  0  0  0  0  0  0  0  0
   -6.2612   27.3443    5.5301 C   0  0  0  0  0  0  0  0  0  0  0  0
   -7.3153   29.7496    7.2975 H   0  0  0  0  0  0  0  0  0  0  0  0
   -7.5385   22.8067   -0.6504 C   0  0  0  0  0  0  0  0  0  0  0  0
   -6.9618   23.5697    0.5041 C   0  0  0  0  0  0  0  0  0  0  0  0
   -6.2640   24.7601    0.3030 C   0  0  0  0  0  0  0  0  0  0  0  0
   -5.7550   25.4844    1.3920 C   0  0  0  0  0  0  0  0  0  0  0  0
   -5.9270   25.0507    2.7175 C   0  0  0  0  0  0  0  0  0  0  0  0
   -6.6481   23.8557    2.8941 C   0  0  0  0  0  0  0  0  0  0  0  0
   -7.1585   23.1265    1.8133 C   0  0  0  0  0  0  0  0  0  0  0  0
   -4.5147   25.0733    4.7641 C   0  0  0  0  0  0  0  0  0  0  0  0
   -3.1233   25.7049    4.7865 C   0  0  0  0  0  0  0  0  0  0  0  0
   -2.5503   26.0226    5.9256 N   0  0  0  0  0  0  0  0  0  0  0  0
   -1.2151   26.5547    5.5177 C   0  0  0  0  0  0  0  0  0  0  0  0
   -1.0013   26.1004    4.0712 C   0  0  0  0  0  0  0  0  0  0  0  0
   -2.3647   25.9133    3.6562 N   0  0  0  0  0  0  0  0  0  0  0  0
   -2.5666   25.3219    2.8552 H   0  0  0  0  0  0  0  0  0  0  0  0
 10 11  1  0  0  0
 11 12  1  0  0  0
 12 13  2  0  0  0
 13 14  1  0  0  0
 14  1  1  0  0  0
  1 17  1  0  0  0
 17 18  1  0  0  0
 18 19  2  0  0  0
 19 20  1  0  0  0
 20 21  1  0  0  0
 21 22  1  0  0  0
  1  2  1  0  0  0
  2  3  2  0  0  0
  3  4  1  0  0  0
  4  5  2  0  0  0
  5  6  1  0  0  0
  6  7  1  0  0  0
  6  8  2  0  0  0
 14 15  2  0  0  0
 15 16  1  0  0  0
 16 11  2  0  0  0
 22 18  1  0  0  0
  8  2  1  0  0  0
 22 23  1  0  0  0
  7  9  1  0  0  0
M  END
> <minimizedAffinity>
-8.67166

$$$$
OCNT-0493990


 35 37  0  0  0  0  0  0  0  0999 V2000
   -0.6914   28.2876    7.4421 C   0  0  0  0  0  0  0  0  0  0  0  0
   -0.0130   28.2521    6.2269 C   0  0  0  0  0  0  0  0  0  0  0  0
   -0.4383   27.3883    5.2118 C   0  0  0  0  0  0  0  0  0  0  0  0
   -1.5286   26.5386    5.4141 C   0  0  0  0  0  0  0  0  0  0  0  0
   -2.1923   26.5707    6.6491 C   0  0  0  0  0  0  0  0  0  0  0  0
   -1.7719   27.4349    7.6646 C   0  0  0  0  0  0  0  0  0  0  0  0
   -2.0240   25.6452    4.4412 N   0  0  0  0  0  0  0  0  0  0  0  0
   -3.3335   25.5171    4.0009 C   0  0  0  0  0  0  0  0  0  0  0  0
   -4.2656   26.2324    4.3408 O   0  0  0  0  0  0  0  0  0  0  0  0
   -3.4377   24.4509    3.1170 N   0  0  0  0  0  0  0  0  0  0  0  0
   -1.3282   25.1533    3.9020 H   0  0  0  0  0  0  0  0  0  0  0  0
   -2.6808   23.7848    3.1473 H   0  0  0  0  0  0  0  0  0  0  0  0
   -4.5674   24.0743    2.3620 C   0  0  0  0  0  0  0  0  0  0  0  0
   -4.7510   24.7045    1.1281 C   0  0  0  0  0  0  0  0  0  0  0  0
   -5.8516   24.3895    0.3280 C   0  0  0  0  0  0  0  0  0  0  0  0
   -6.7872   23.4448    0.7556 C   0  0  0  0  0  0  0  0  0  0  0  0
   -8.1175   23.1127   -0.2923 Cl  0  0  0  0  0  0  0  0  0  0  0  0
   -6.6329   22.8086    1.9913 C   0  0  0  0  0  0  0  0  0  0  0  0
   -5.5143   23.1375    2.7874 C   0  0  0  0  0  0  0  0  0  0  0  0
   -7.6312   21.7944    2.4815 C   0  0  0  0  0  0  0  0  0  0  0  0
   -7.0492   20.7561    3.1440 F   0  0  0  0  0  0  0  0  0  0  0  0
   -8.3561   21.2177    1.4801 F   0  0  0  0  0  0  0  0  0  0  0  0
   -8.5526   22.3241    3.3329 F   0  0  0  0  0  0  0  0  0  0  0  0
   -0.2107   29.1342    8.4134 O   0  0  0  0  0  0  0  0  0  0  0  0
   -3.2493   30.8302    9.3937 C   0  0  0  0  0  0  0  0  0  0  0  0
   -2.4011   29.8333    8.9401 C   0  0  0  0  0  0  0  0  0  0  0  0
   -1.0512   30.1404    8.8335 C   0  0  0  0  0  0  0  0  0  0  0  0
   -0.5862   31.3983    9.2121 C   0  0  0  0  0  0  0  0  0  0  0  0
   -1.5118   32.3275    9.6545 C   0  0  0  0  0  0  0  0  0  0  0  0
   -2.8360   32.0823    9.7490 N   0  0  0  0  0  0  0  0  0  0  0  0
   -6.3749   28.8546   10.1767 C   0  0  0  0  0  0  0  0  0  0  0  0
   -5.0293   29.2739    9.8966 N   0  0  0  0  0  0  0  0  0  0  0  0
   -4.7192   30.5604    9.5095 C   0  0  0  0  0  0  0  0  0  0  0  0
   -5.5506   31.4319    9.2847 O   0  0  0  0  0  0  0  0  0  0  0  0
   -4.2410   28.6822   10.1479 H   0  0  0  0  0  0  0  0  0  0  0  0
 31 32  1  0  0  0
 32 33  1  0  0  0
 33 34  2  0  0  0
 33 25  1  0  0  0
 25 26  2  0  0  0
 26 27  1  0  0  0
 27 24  1  0  0  0
 24  1  1  0  0  0
  1  2  1  0  0  0
  2  3  2  0  0  0
  3  4  1  0  0  0
  4  7  1  0  0  0
  7  8  1  0  0  0
  8  9  2  0  0  0
  8 10  1  0  0  0
 10 13  1  0  0  0
 13 14  1  0  0  0
 14 15  2  0  0  0
 15 16  1  0  0  0
 16 17  1  0  0  0
 16 18  2  0  0  0
 18 20  1  0  0  0
 20 21  1  0  0  0
 20 22  1  0  0  0
 20 23  1  0  0  0
 18 19  1  0  0  0
  4  5  2  0  0  0
  5  6  1  0  0  0
 27 28  2  0  0  0
 28 29  1  0  0  0
 29 30  2  0  0  0
 30 25  1  0  0  0
  6  1  2  0  0  0
 19 13  2  0  0  0
 32 35  1  0  0  0
  7 11  1  0  0  0
 10 12  1  0  0  0
M  END
> <minimizedAffinity>
-10.15120

$$$$
OCNT-0494023


 32 35  0  0  0  0  0  0  0  0999 V2000
   -0.4595   26.6440    4.8705 C   0  0  0  0  0  0  0  0  0  0  0  0
    0.3163   27.5318    5.6265 C   0  0  0  0  0  0  0  0  0  0  0  0
   -0.2050   28.2281    6.7128 C   0  0  0  0  0  0  0  0  0  0  0  0
    0.6029   29.0565    7.3818 N   0  0  0  0  0  0  0  0  0  0  0  0
    0.0706   29.7093    8.4204 C   0  0  0  0  0  0  0  0  0  0  0  0
   -1.1889   29.6045    8.8557 N   0  0  0  0  0  0  0  0  0  0  0  0
   -1.9967   28.7601    8.1878 C   0  0  0  0  0  0  0  0  0  0  0  0
   -1.5476   28.0311    7.0679 C   0  0  0  0  0  0  0  0  0  0  0  0
   -2.3449   27.1452    6.3013 C   0  0  0  0  0  0  0  0  0  0  0  0
   -1.8075   26.4736    5.2029 C   0  0  0  0  0  0  0  0  0  0  0  0
    1.2409   26.3127    3.2306 C   0  0  0  0  0  0  0  0  0  0  0  0
   -0.0070   25.9287    3.7927 O   0  0  0  0  0  0  0  0  0  0  0  0
   -3.3397   28.5823    8.6291 N   0  0  0  0  0  0  0  0  0  0  0  0
   -3.3246   28.3356    9.6158 H   0  0  0  0  0  0  0  0  0  0  0  0
   -4.4724   29.3627    8.3041 C   0  0  0  0  0  0  0  0  0  0  0  0
   -4.9720   30.2654    9.2598 C   0  0  0  0  0  0  0  0  0  0  0  0
   -6.1204   31.0202    9.0050 C   0  0  0  0  0  0  0  0  0  0  0  0
   -6.7953   30.8586    7.7995 C   0  0  0  0  0  0  0  0  0  0  0  0
   -7.8941   31.5945    7.5719 F   0  0  0  0  0  0  0  0  0  0  0  0
   -6.3451   29.9383    6.8578 C   0  0  0  0  0  0  0  0  0  0  0  0
   -7.1996   29.7069    5.3772 Cl  0  0  0  0  0  0  0  0  0  0  0  0
   -5.1967   29.1853    7.1146 C   0  0  0  0  0  0  0  0  0  0  0  0
   -2.5528   25.5729    4.4862 O   0  0  0  0  0  0  0  0  0  0  0  0
   -3.8500   26.0539    4.1115 C   0  0  0  0  0  0  0  0  0  0  0  0
   -3.9972   25.9523    2.5946 C   0  0  0  0  0  0  0  0  0  0  0  0
   -5.4166   25.5341    2.2018 C   0  0  0  0  0  0  0  0  0  0  0  0
   -5.4084   24.5822    1.0851 N   0  0  0  0  0  0  0  0  0  0  0  0
   -6.2523   24.9978   -0.0587 C   0  0  0  0  0  0  0  0  0  0  0  0
   -7.5489   24.1814   -0.2094 C   0  0  0  0  0  0  0  0  0  0  0  0
   -7.3236   22.7734   -0.3393 O   0  0  0  0  0  0  0  0  0  0  0  0
   -6.1563   22.3222    0.3620 C   0  0  0  0  0  0  0  0  0  0  0  0
   -5.7816   23.2266    1.5434 C   0  0  0  0  0  0  0  0  0  0  0  0
 11 12  1  0  0  0
 12  1  1  0  0  0
  1  2  2  0  0  0
  2  3  1  0  0  0
  3  4  2  0  0  0
  4  5  1  0  0  0
  5  6  2  0  0  0
  6  7  1  0  0  0
  7 13  1  0  0  0
 13 15  1  0  0  0
 15 16  1  0  0  0
 16 17  2  0  0  0
 17 18  1  0  0  0
 18 19  1  0  0  0
 18 20  2  0  0  0
 20 21  1  0  0  0
 20 22  1  0  0  0
  7  8  2  0  0  0
  8  9  1  0  0  0
  9 10  2  0  0  0
 10 23  1  0  0  0
 23 24  1  0  0  0
 24 25  1  0  0  0
 25 26  1  0  0  0
 26 27  1  0  0  0
 27 28  1  0  0  0
 28 29  1  0  0  0
 29 30  1  0  0  0
 30 31  1  0  0  0
 31 32  1  0  0  0
 10  1  1  0  0  0
 32 27  1  0  0  0
  8  3  1  0  0  0
 22 15  2  0  0  0
 13 14  1  0  0  0
M  END
> <minimizedAffinity>
-9.22509

$$$$
OCNT-0494139


 28 30  0  0  0  0  0  0  0  0999 V2000
   -6.9224   23.4795    3.6819 C   0  0  0  0  0  0  0  0  0  0  0  0
   -7.3582   22.9207    2.4945 C   0  0  0  0  0  0  0  0  0  0  0  0
   -6.8515   23.7362    1.4618 C   0  0  0  0  0  0  0  0  0  0  0  0
   -6.1302   24.7477    1.9709 N   0  0  0  0  0  0  0  0  0  0  0  0
   -6.0967   24.5459    3.3206 N   0  0  0  0  0  0  0  0  0  0  0  0
   -8.5044   21.8140    8.9786 C   0  0  0  0  0  0  0  0  0  0  0  0
   -8.0849   22.2728    7.6132 C   0  0  0  0  0  0  0  0  0  0  0  0
   -6.8039   21.9812    7.1302 C   0  0  0  0  0  0  0  0  0  0  0  0
   -6.4228   22.3799    5.8464 C   0  0  0  0  0  0  0  0  0  0  0  0
   -7.3180   23.0774    5.0277 C   0  0  0  0  0  0  0  0  0  0  0  0
   -8.6100   23.3417    5.4977 C   0  0  0  0  0  0  0  0  0  0  0  0
   -8.9899   22.9421    6.7815 C   0  0  0  0  0  0  0  0  0  0  0  0
   -5.2593   25.3947    4.1156 C   0  0  0  0  0  0  0  0  0  0  0  0
   -5.7714   26.4390    4.8977 C   0  0  0  0  0  0  0  0  0  0  0  0
   -4.9144   27.2413    5.6610 C   0  0  0  0  0  0  0  0  0  0  0  0
   -3.5396   27.0001    5.6480 C   0  0  0  0  0  0  0  0  0  0  0  0
   -3.0147   25.9451    4.9026 C   0  0  0  0  0  0  0  0  0  0  0  0
   -3.8729   25.1464    4.1412 C   0  0  0  0  0  0  0  0  0  0  0  0
   -2.4637   27.9938    6.6386 S   0  0  0  0  0  0  0  0  0  0  0  0
   -2.5075   27.1885    8.1113 N   0  0  0  0  0  0  0  0  0  0  0  0
   -3.0794   29.2793    6.8698 O   0  0  0  0  0  0  0  0  0  0  0  0
   -1.1097   27.8586    6.1543 O   0  0  0  0  0  0  0  0  0  0  0  0
   -2.9102   27.7970    8.8247 H   0  0  0  0  0  0  0  0  0  0  0  0
   -1.5759   26.8430    8.3431 H   0  0  0  0  0  0  0  0  0  0  0  0
   -7.0840   23.5649   -0.0152 C   0  0  0  0  0  0  0  0  0  0  0  0
   -8.3695   23.2315   -0.3049 F   0  0  0  0  0  0  0  0  0  0  0  0
   -6.8224   24.7121   -0.7026 F   0  0  0  0  0  0  0  0  0  0  0  0
   -6.2897   22.6048   -0.5586 F   0  0  0  0  0  0  0  0  0  0  0  0
  6  7  1  0  0  0
  7  8  1  0  0  0
  8  9  2  0  0  0
  9 10  1  0  0  0
 10  1  1  0  0  0
  1  2  2  0  0  0
  2  3  1  0  0  0
  3 25  1  0  0  0
 25 26  1  0  0  0
 25 27  1  0  0  0
 25 28  1  0  0  0
  3  4  2  0  0  0
  4  5  1  0  0  0
  5 13  1  0  0  0
 13 14  1  0  0  0
 14 15  2  0  0  0
 15 16  1  0  0  0
 16 19  1  0  0  0
 19 20  1  0  0  0
 19 21  2  0  0  0
 19 22  2  0  0  0
 16 17  2  0  0  0
 17 18  1  0  0  0
 10 11  2  0  0  0
 11 12  1  0  0  0
 12  7  2  0  0  0
  5  1  1  0  0  0
 18 13  2  0  0  0
 20 23  1  0  0  0
 20 24  1  0  0  0
M  END
> <minimizedAffinity>
-9.91382

$$$$
OCNT-0494161


 25 28  0  0  0  0  0  0  0  0999 V2000
   -4.6016   28.8416    6.5152 C   0  0  0  0  0  0  0  0  0  0  0  0
   -5.6456   28.0980    7.1699 O   0  0  0  0  0  0  0  0  0  0  0  0
   -5.8255   27.3208    6.6120 H   0  0  0  0  0  0  0  0  0  0  0  0
   -3.5369   27.8575    6.0436 C   0  0  0  0  0  0  0  0  0  0  0  0
   -2.3575   27.7541    6.8000 C   0  0  0  0  0  0  0  0  0  0  0  0
   -1.3804   26.8654    6.4055 C   0  0  0  0  0  0  0  0  0  0  0  0
   -1.4870   26.0764    5.3221 N   0  0  0  0  0  0  0  0  0  0  0  0
   -2.5966   26.1746    4.5748 C   0  0  0  0  0  0  0  0  0  0  0  0
   -2.6813   25.3632    3.4548 C   0  0  0  0  0  0  0  0  0  0  0  0
   -3.7886   25.3916    2.6067 C   0  0  0  0  0  0  0  0  0  0  0  0
   -4.8452   26.2526    2.8689 C   0  0  0  0  0  0  0  0  0  0  0  0
   -4.7836   27.0718    3.9975 C   0  0  0  0  0  0  0  0  0  0  0  0
   -3.6668   27.0535    4.8758 C   0  0  0  0  0  0  0  0  0  0  0  0
   -5.8681   26.1979    1.9645 O   0  0  0  0  0  0  0  0  0  0  0  0
   -5.7794   25.2101    0.9457 C   0  0  0  0  0  0  0  0  0  0  0  0
   -3.5383   31.9703    9.4503 C   0  0  0  0  0  0  0  0  0  0  0  0
   -3.6128   32.2483    7.9181 C   0  0  0  0  0  0  0  0  0  0  0  0
   -4.5362   31.3151    7.2200 N   0  0  0  0  0  0  0  0  0  0  0  0
   -5.8947   31.5061    7.7736 C   0  0  0  0  0  0  0  0  0  0  0  0
   -5.9325   31.3366    9.2991 C   0  0  0  0  0  0  0  0  0  0  0  0
   -4.5563   30.8454    9.7838 C   0  0  0  0  0  0  0  0  0  0  0  0
   -4.2592   29.5653    8.9767 C   0  0  0  0  0  0  0  0  0  0  0  0
   -4.0403   29.9283    7.4877 C   0  0  0  0  0  0  0  0  0  0  0  0
   -1.0524   31.4017    9.1874 C   0  0  0  0  0  0  0  0  0  0  0  0
   -2.1102   31.7778    9.9179 C   0  0  0  0  0  0  0  0  0  0  0  0
 24 25  2  0  0  0
 25 16  1  0  0  0
 16 17  1  0  0  0
 17 18  1  0  0  0
 18 19  1  0  0  0
 19 20  1  0  0  0
 20 21  1  0  0  0
 21 22  1  0  0  0
 22 23  1  0  0  0
 23  1  1  0  0  0
  1  2  1  0  0  0
  1  4  1  0  0  0
  4  5  2  0  0  0
  5  6  1  0  0  0
  6  7  2  0  0  0
  7  8  1  0  0  0
  8  9  2  0  0  0
  9 10  1  0  0  0
 10 11  2  0  0  0
 11 14  1  0  0  0
 14 15  1  0  0  0
 11 12  1  0  0  0
 12 13  2  0  0  0
 21 16  1  0  0  0
 13  4  1  0  0  0
 23 18  1  0  0  0
 13  8  1  0  0  0
  2  3  1  0  0  0
M  END
> <minimizedAffinity>
-8.83811

$$$$
OCNT-0494166


 24 27  0  0  0  0  0  0  0  0999 V2000
   -4.5527   25.6364    2.3088 C   0  0  0  0  0  0  0  0  0  0  0  0
   -3.1695   25.9329    2.2843 O   0  0  0  0  0  0  0  0  0  0  0  0
   -5.0118   25.1882    0.8881 C   0  0  0  0  0  0  0  0  0  0  0  0
   -6.0769   24.0825    1.0861 C   0  0  0  0  0  0  0  0  0  0  0  0
   -6.3246   24.1089    2.5847 C   0  0  0  0  0  0  0  0  0  0  0  0
   -7.0117   22.9793    3.3309 C   0  0  0  0  0  0  0  0  0  0  0  0
   -8.2082   22.3480    2.6244 C   0  0  0  0  0  0  0  0  0  0  0  0
   -8.7334   21.1841    3.4689 C   0  0  0  0  0  0  0  0  0  0  0  0
   -8.9935   21.5539    4.9160 C   0  0  0  0  0  0  0  0  0  0  0  0
  -10.1134   21.1139    5.5166 C   0  0  0  0  0  0  0  0  0  0  0  0
  -10.3491   21.3294    6.9622 C   0  0  0  0  0  0  0  0  0  0  0  0
  -11.4096   20.9682    7.4652 O   0  0  0  0  0  0  0  0  0  0  0  0
   -9.2205   21.9030    7.7764 C   0  0  0  0  0  0  0  0  0  0  0  0
   -8.4665   22.9499    6.9723 C   0  0  0  0  0  0  0  0  0  0  0  0
   -7.9350   22.4040    5.6302 C   0  0  0  0  0  0  0  0  0  0  0  0
   -7.4773   23.5593    4.6955 C   0  0  0  0  0  0  0  0  0  0  0  0
   -6.4802   24.6011    5.2843 C   0  0  0  0  0  0  0  0  0  0  0  0
   -5.0465   24.5835    4.7287 C   0  0  0  0  0  0  0  0  0  0  0  0
   -4.9162   24.3977    3.1923 C   0  0  0  0  0  0  0  0  0  0  0  0
   -2.9466   26.3165    3.1494 H   0  0  0  0  0  0  0  0  0  0  0  0
   -5.8147   27.8844    3.0541 C   0  0  0  0  0  0  0  0  0  0  0  0
   -5.2568   26.8753    2.7159 C   0  0  0  0  0  0  0  0  0  0  0  0
   -3.8930   23.2109    2.9503 C   0  0  0  0  0  0  0  0  0  0  0  0
   -4.3362   21.8123    3.3843 C   0  0  0  0  0  0  0  0  0  0  0  0
 21 22  3  0  0  0
  1 22  1  0  0  0
  1  2  1  0  0  0
  1  3  1  0  0  0
  3  4  1  0  0  0
  4  5  1  0  0  0
  5  6  1  0  0  0
  6  7  1  0  0  0
  7  8  1  0  0  0
  8  9  1  0  0  0
  9 10  2  0  0  0
 10 11  1  0  0  0
 11 12  2  0  0  0
 11 13  1  0  0  0
 13 14  1  0  0  0
 14 15  1  0  0  0
 15 16  1  0  0  0
 16 17  1  0  0  0
 17 18  1  0  0  0
 18 19  1  0  0  0
 19 23  1  0  0  0
 23 24  1  0  0  0
 19  1  1  0  0  0
 19  5  1  0  0  0
 16  6  1  0  0  0
 15  9  1  0  0  0
  2 20  1  0  0  0
M  END
> <minimizedAffinity>
-8.96471

$$$$
OCNT-0494811


 19 20  0  0  0  0  0  0  0  0999 V2000
   -6.0467   29.3355    4.7525 O   0  0  0  0  0  0  0  0  0  0  0  0
   -6.0981   28.2186    5.2550 C   0  0  0  0  0  0  0  0  0  0  0  0
   -6.2840   27.9986    6.6045 N   0  0  0  0  0  0  0  0  0  0  0  0
   -6.6793   27.1082    6.8790 H   0  0  0  0  0  0  0  0  0  0  0  0
   -6.0023   27.0052    4.3947 C   0  0  0  0  0  0  0  0  0  0  0  0
   -6.1581   25.7117    4.9122 C   0  0  0  0  0  0  0  0  0  0  0  0
   -6.0563   24.6024    4.0665 C   0  0  0  0  0  0  0  0  0  0  0  0
   -5.7924   24.7843    2.7093 C   0  0  0  0  0  0  0  0  0  0  0  0
   -5.6684   23.4167    1.6733 Cl  0  0  0  0  0  0  0  0  0  0  0  0
   -5.6219   26.0655    2.1883 C   0  0  0  0  0  0  0  0  0  0  0  0
   -5.7225   27.1753    3.0315 C   0  0  0  0  0  0  0  0  0  0  0  0
   -6.6202   29.1014    7.4901 C   0  0  0  0  0  0  0  0  0  0  0  0
   -5.6998   29.1301    8.7260 C   0  0  0  0  0  0  0  0  0  0  0  0
   -4.6279   30.1427    8.6069 N   0  0  0  0  0  0  0  0  0  0  0  0
   -4.9993   31.1639    7.6015 C   0  0  0  0  0  0  0  0  0  0  0  0
   -3.7713   31.9362    7.0989 C   0  0  0  0  0  0  0  0  0  0  0  0
   -2.8333   31.1008    6.4063 O   0  0  0  0  0  0  0  0  0  0  0  0
   -2.8925   29.7288    6.8153 C   0  0  0  0  0  0  0  0  0  0  0  0
   -3.3082   29.5549    8.2857 C   0  0  0  0  0  0  0  0  0  0  0  0
  1  2  2  0  0  0
  2  3  1  0  0  0
  3 12  1  0  0  0
 12 13  1  0  0  0
 13 14  1  0  0  0
 14 15  1  0  0  0
 15 16  1  0  0  0
 16 17  1  0  0  0
 17 18  1  0  0  0
 18 19  1  0  0  0
  2  5  1  0  0  0
  5  6  1  0  0  0
  6  7  2  0  0  0
  7  8  1  0  0  0
  8  9  1  0  0  0
  8 10  2  0  0  0
 10 11  1  0  0  0
 19 14  1  0  0  0
 11  5  2  0  0  0
  3  4  1  0  0  0
M  END
> <minimizedAffinity>
-6.91180

$$$$
OCNT-0495153


 28 31  0  0  0  0  0  0  0  0999 V2000
   -5.1282   27.9142    4.9508 N   0  0  0  0  0  0  0  0  0  0  0  0
   -3.9130   27.0920    4.9780 C   0  0  0  0  0  0  0  0  0  0  0  0
   -4.1736   25.5602    5.0113 C   0  0  0  0  0  0  0  0  0  0  0  0
   -5.4282   25.1802    4.3323 N   0  0  0  0  0  0  0  0  0  0  0  0
   -6.5596   25.8646    5.0119 C   0  0  0  0  0  0  0  0  0  0  0  0
   -6.2362   27.2534    5.6325 C   0  0  0  0  0  0  0  0  0  0  0  0
   -4.9276   29.3232    5.2870 C   0  0  0  0  0  0  0  0  0  0  0  0
   -6.6292   30.8391    9.7977 C   0  0  0  0  0  0  0  0  0  0  0  0
   -5.4932   30.4059    8.9192 C   0  0  0  0  0  0  0  0  0  0  0  0
   -4.2059   30.2588    9.4459 C   0  0  0  0  0  0  0  0  0  0  0  0
   -3.1565   29.8318    8.6332 C   0  0  0  0  0  0  0  0  0  0  0  0
   -3.3875   29.5344    7.2901 C   0  0  0  0  0  0  0  0  0  0  0  0
   -4.6734   29.6508    6.7443 C   0  0  0  0  0  0  0  0  0  0  0  0
   -5.7192   30.0907    7.5722 C   0  0  0  0  0  0  0  0  0  0  0  0
   -5.6211   23.7047    4.2778 C   0  0  0  0  0  0  0  0  0  0  0  0
   -6.7406   23.1984    5.2017 C   0  0  0  0  0  0  0  0  0  0  0  0
   -6.4156   22.5686    6.4161 C   0  0  0  0  0  0  0  0  0  0  0  0
   -7.4195   22.0848    7.2593 C   0  0  0  0  0  0  0  0  0  0  0  0
   -8.7569   22.2214    6.8943 C   0  0  0  0  0  0  0  0  0  0  0  0
   -9.9912   21.6265    7.9353 Cl  0  0  0  0  0  0  0  0  0  0  0  0
   -9.1007   22.8357    5.6934 C   0  0  0  0  0  0  0  0  0  0  0  0
   -8.0974   23.3187    4.8503 C   0  0  0  0  0  0  0  0  0  0  0  0
   -5.8564   23.1679    2.8591 C   0  0  0  0  0  0  0  0  0  0  0  0
   -6.2278   24.0152    1.8003 C   0  0  0  0  0  0  0  0  0  0  0  0
   -6.4570   23.5037    0.5219 C   0  0  0  0  0  0  0  0  0  0  0  0
   -6.3252   22.1377    0.2837 C   0  0  0  0  0  0  0  0  0  0  0  0
   -5.9656   21.2816    1.3225 C   0  0  0  0  0  0  0  0  0  0  0  0
   -5.7352   21.7914    2.6021 C   0  0  0  0  0  0  0  0  0  0  0  0
  8  9  1  0  0  0
  9 10  1  0  0  0
 10 11  2  0  0  0
 11 12  1  0  0  0
 12 13  2  0  0  0
 13  7  1  0  0  0
  7  1  1  0  0  0
  1  2  1  0  0  0
  2  3  1  0  0  0
  3  4  1  0  0  0
  4 15  1  0  0  0
 15 23  1  0  0  0
 23 24  2  0  0  0
 24 25  1  0  0  0
 25 26  2  0  0  0
 26 27  1  0  0  0
 27 28  2  0  0  0
 15 16  1  0  0  0
 16 17  1  0  0  0
 17 18  2  0  0  0
 18 19  1  0  0  0
 19 20  1  0  0  0
 19 21  2  0  0  0
 21 22  1  0  0  0
  4  5  1  0  0  0
  5  6  1  0  0  0
 13 14  1  0  0  0
 14  9  2  0  0  0
  6  1  1  0  0  0
 28 23  1  0  0  0
 22 16  2  0  0  0
M  END
> <minimizedAffinity>
-9.43550

$$$$
OCNT-0495216


 27 28  0  0  0  0  0  0  0  0999 V2000
   -5.4552   25.3007    3.0361 C   0  0  0  0  0  0  0  0  0  0  0  0
   -5.7112   24.2831    4.0353 O   0  0  0  0  0  0  0  0  0  0  0  0
   -4.8852   24.1877    4.5490 H   0  0  0  0  0  0  0  0  0  0  0  0
   -6.1287   24.7306    1.7796 C   0  0  0  0  0  0  0  0  0  0  0  0
   -6.7242   23.4522    1.8281 C   0  0  0  0  0  0  0  0  0  0  0  0
   -7.3611   22.8993    0.7139 C   0  0  0  0  0  0  0  0  0  0  0  0
   -7.4372   23.6196   -0.4722 C   0  0  0  0  0  0  0  0  0  0  0  0
   -6.8883   24.8955   -0.5378 C   0  0  0  0  0  0  0  0  0  0  0  0
   -6.2508   25.4486    0.5787 C   0  0  0  0  0  0  0  0  0  0  0  0
   -6.0342   26.6369    3.6176 C   0  0  0  0  0  0  0  0  0  0  0  0
   -5.9964   26.6823    5.1658 C   0  0  0  0  0  0  0  0  0  0  0  0
   -6.6648   27.9449    5.7115 C   0  0  0  0  0  0  0  0  0  0  0  0
   -6.0615   29.2122    5.1168 C   0  0  0  0  0  0  0  0  0  0  0  0
   -6.0669   29.1750    3.5926 C   0  0  0  0  0  0  0  0  0  0  0  0
   -5.3752   27.9186    3.0640 C   0  0  0  0  0  0  0  0  0  0  0  0
   -3.9144   25.4195    2.8680 C   0  0  0  0  0  0  0  0  0  0  0  0
   -3.3876   25.6395    1.7789 O   0  0  0  0  0  0  0  0  0  0  0  0
   -3.2484   25.2597    4.0408 O   0  0  0  0  0  0  0  0  0  0  0  0
   -2.1259   26.1263    4.2409 C   0  0  0  0  0  0  0  0  0  0  0  0
   -2.5580   27.6298    6.4015 C   0  0  0  0  0  0  0  0  0  0  0  0
   -2.3560   26.9611    5.4237 C   0  0  0  0  0  0  0  0  0  0  0  0
   -2.8264   28.4246    7.6094 C   0  0  0  0  0  0  0  0  0  0  0  0
   -1.8330   29.4620    7.9056 N   0  0  0  0  0  0  0  0  0  0  0  0
    0.5910   29.1909    7.3653 C   0  0  0  0  0  0  0  0  0  0  0  0
   -0.5314   28.9799    8.3762 C   0  0  0  0  0  0  0  0  0  0  0  0
   -1.7336   30.5136    6.8880 C   0  0  0  0  0  0  0  0  0  0  0  0
   -2.9901   31.3246    6.5921 C   0  0  0  0  0  0  0  0  0  0  0  0
 24 25  1  0  0  0
 25 23  1  0  0  0
 23 26  1  0  0  0
 26 27  1  0  0  0
 23 22  1  0  0  0
 22 20  1  0  0  0
 20 21  3  0  0  0
 21 19  1  0  0  0
 19 18  1  0  0  0
 18 16  1  0  0  0
 16 17  2  0  0  0
 16  1  1  0  0  0
  1  2  1  0  0  0
  1  4  1  0  0  0
  4  5  2  0  0  0
  5  6  1  0  0  0
  6  7  2  0  0  0
  7  8  1  0  0  0
  8  9  2  0  0  0
  1 10  1  0  0  0
 10 11  1  0  0  0
 11 12  1  0  0  0
 12 13  1  0  0  0
 13 14  1  0  0  0
 14 15  1  0  0  0
  9  4  1  0  0  0
 15 10  1  0  0  0
  2  3  1  0  0  0
M  END
> <minimizedAffinity>
-8.42395

$$$$
OCNT-0495340


 54 57  0  0  0  0  0  0  0  0999 V2000
   -5.1016   26.9551    3.1386 C   0  0  0  0  0  0  0  0  0  0  0  0
   -5.4452   24.7178    2.0706 C   0  0  0  0  0  0  0  0  0  0  0  0
   -4.5589   24.9320    1.2449 O   0  0  0  0  0  0  0  0  0  0  0  0
   -5.8086   25.6691    3.0086 N   0  0  0  0  0  0  0  0  0  0  0  0
   -6.6766   25.5466    3.5088 H   0  0  0  0  0  0  0  0  0  0  0  0
   -6.3110   23.4213    2.1065 C   0  0  0  0  0  0  0  0  0  0  0  0
   -7.7947   22.8076    5.4403 N   0  0  0  0  0  0  0  0  0  0  0  0
   -7.4829   22.2398    6.7384 C   0  0  0  0  0  0  0  0  0  0  0  0
   -6.8413   22.7361    4.4379 C   0  0  0  0  0  0  0  0  0  0  0  0
   -5.7735   22.1476    4.5795 O   0  0  0  0  0  0  0  0  0  0  0  0
   -7.1814   23.3924    3.2830 N   0  0  0  0  0  0  0  0  0  0  0  0
   -7.7174   24.2390    3.4526 H   0  0  0  0  0  0  0  0  0  0  0  0
   -9.1673   23.2592    5.2266 C   0  0  0  0  0  0  0  0  0  0  0  0
  -10.9142   23.3333    8.3986 C   0  0  0  0  0  0  0  0  0  0  0  0
  -10.1967   23.8476    7.4178 N   0  0  0  0  0  0  0  0  0  0  0  0
   -9.9983   22.8936    6.4195 C   0  0  0  0  0  0  0  0  0  0  0  0
  -10.5963   21.6707    6.6667 C   0  0  0  0  0  0  0  0  0  0  0  0
  -11.4059   21.6997    8.1726 S   0  0  0  0  0  0  0  0  0  0  0  0
  -11.2436   23.1189   10.8598 C   0  0  0  0  0  0  0  0  0  0  0  0
  -11.2821   24.0705    9.6617 C   0  0  0  0  0  0  0  0  0  0  0  0
  -10.3460   25.2569    9.8855 C   0  0  0  0  0  0  0  0  0  0  0  0
   -7.0604   23.0210    0.8020 C   0  0  0  0  0  0  0  0  0  0  0  0
   -6.2276   22.0355   -0.0280 C   0  0  0  0  0  0  0  0  0  0  0  0
   -7.5069   24.1854   -0.0899 C   0  0  0  0  0  0  0  0  0  0  0  0
   -6.1370   28.0583    3.4693 C   0  0  0  0  0  0  0  0  0  0  0  0
   -6.0630   28.6347    4.8607 C   0  0  0  0  0  0  0  0  0  0  0  0
   -5.2215   29.7206    5.1331 C   0  0  0  0  0  0  0  0  0  0  0  0
   -5.1424   30.2495    6.4220 C   0  0  0  0  0  0  0  0  0  0  0  0
   -5.9136   29.7082    7.4498 C   0  0  0  0  0  0  0  0  0  0  0  0
   -6.7640   28.6364    7.1870 C   0  0  0  0  0  0  0  0  0  0  0  0
   -6.8401   28.1009    5.8985 C   0  0  0  0  0  0  0  0  0  0  0  0
   -4.0111   26.7957    4.2260 C   0  0  0  0  0  0  0  0  0  0  0  0
   -2.6616   26.2454    3.7314 C   0  0  0  0  0  0  0  0  0  0  0  0
   -2.7556   24.8153    3.7007 O   0  0  0  0  0  0  0  0  0  0  0  0
   -2.4376   24.4592    4.5565 H   0  0  0  0  0  0  0  0  0  0  0  0
   -1.4676   26.6968    4.6276 C   0  0  0  0  0  0  0  0  0  0  0  0
   -1.9577   27.2754    5.8795 N   0  0  0  0  0  0  0  0  0  0  0  0
   -1.1882   28.0514    6.6854 C   0  0  0  0  0  0  0  0  0  0  0  0
   -0.0172   28.3307    6.4733 O   0  0  0  0  0  0  0  0  0  0  0  0
   -2.9446   27.2508    6.1046 H   0  0  0  0  0  0  0  0  0  0  0  0
   -1.9205   28.4625    7.7433 O   0  0  0  0  0  0  0  0  0  0  0  0
   -1.1800   29.2540    8.6749 C   0  0  0  0  0  0  0  0  0  0  0  0
   -1.8721   30.5714    8.7502 C   0  0  0  0  0  0  0  0  0  0  0  0
   -2.5109   31.1603    9.8231 C   0  0  0  0  0  0  0  0  0  0  0  0
   -3.0793   32.3960    9.5805 N   0  0  0  0  0  0  0  0  0  0  0  0
   -2.8546   32.7363    8.3311 C   0  0  0  0  0  0  0  0  0  0  0  0
   -1.9693   31.6123    7.3874 S   0  0  0  0  0  0  0  0  0  0  0  0
   -0.4852   25.5421    4.9217 C   0  0  0  0  0  0  0  0  0  0  0  0
    0.7526   25.5774    4.0509 C   0  0  0  0  0  0  0  0  0  0  0  0
    1.6739   24.5200    4.0818 C   0  0  0  0  0  0  0  0  0  0  0  0
    2.8089   24.5454    3.2696 C   0  0  0  0  0  0  0  0  0  0  0  0
    3.0351   25.6244    2.4190 C   0  0  0  0  0  0  0  0  0  0  0  0
    2.1261   26.6801    2.3804 C   0  0  0  0  0  0  0  0  0  0  0  0
    0.9895   26.6582    3.1920 C   0  0  0  0  0  0  0  0  0  0  0  0
 19 20  1  0  0  0
 20 21  1  0  0  0
 20 14  1  0  0  0
 14 15  2  0  0  0
 15 16  1  0  0  0
 16 13  1  0  0  0
 13  7  1  0  0  0
  7  8  1  0  0  0
  7  9  1  0  0  0
  9 10  2  0  0  0
  9 11  1  0  0  0
 11  6  1  0  0  0
  6  2  1  0  0  0
  2  3  2  0  0  0
  2  4  1  0  0  0
  4  1  1  0  0  0
  1 25  1  0  0  0
 25 26  1  0  0  0
 26 27  2  0  0  0
 27 28  1  0  0  0
 28 29  2  0  0  0
 29 30  1  0  0  0
 30 31  2  0  0  0
  1 32  1  0  0  0
 32 33  1  0  0  0
 33 34  1  0  0  0
 33 36  1  0  0  0
 36 48  1  0  0  0
 48 49  1  0  0  0
 49 50  2  0  0  0
 50 51  1  0  0  0
 51 52  2  0  0  0
 52 53  1  0  0  0
 53 54  2  0  0  0
 36 37  1  0  0  0
 37 38  1  0  0  0
 38 39  2  0  0  0
 38 41  1  0  0  0
 41 42  1  0  0  0
 42 43  1  0  0  0
 43 44  2  0  0  0
 44 45  1  0  0  0
 45 46  2  0  0  0
 46 47  1  0  0  0
  6 22  1  0  0  0
 22 23  1  0  0  0
 22 24  1  0  0  0
 16 17  2  0  0  0
 17 18  1  0  0  0
 18 14  1  0  0  0
 31 26  1  0  0  0
 54 49  1  0  0  0
 47 43  1  0  0  0
 11 12  1  0  0  0
  4  5  1  0  0  0
 34 35  1  0  0  0
 37 40  1  0  0  0
M  END
> <minimizedAffinity>
-9.94400

$$$$
OCNT-0495493


 26 29  0  0  0  0  0  0  0  0999 V2000
   -5.8445   25.2867    0.5339 O   0  0  0  0  0  0  0  0  0  0  0  0
   -5.7340   25.4215    1.7357 C   0  0  0  0  0  0  0  0  0  0  0  0
   -5.1718   26.4758    2.3867 O   0  0  0  0  0  0  0  0  0  0  0  0
   -5.1475   26.3052    3.8396 C   0  0  0  0  0  0  0  0  0  0  0  0
   -5.9121   25.0232    4.0012 C   0  0  0  0  0  0  0  0  0  0  0  0
   -6.3363   24.3522    5.1430 C   0  0  0  0  0  0  0  0  0  0  0  0
   -7.0450   23.1546    4.9955 C   0  0  0  0  0  0  0  0  0  0  0  0
   -7.3324   22.6434    3.7200 C   0  0  0  0  0  0  0  0  0  0  0  0
   -6.9205   23.3297    2.5783 C   0  0  0  0  0  0  0  0  0  0  0  0
   -6.2195   24.5111    2.7568 C   0  0  0  0  0  0  0  0  0  0  0  0
   -3.6484   26.2600    4.1858 C   0  0  0  0  0  0  0  0  0  0  0  0
   -3.2367   26.6106    5.4913 C   0  0  0  0  0  0  0  0  0  0  0  0
   -1.8907   26.5810    5.8653 C   0  0  0  0  0  0  0  0  0  0  0  0
   -0.9344   26.2025    4.9336 C   0  0  0  0  0  0  0  0  0  0  0  0
    0.3903   26.1574    5.2503 O   0  0  0  0  0  0  0  0  0  0  0  0
   -1.3035   25.8592    3.6406 C   0  0  0  0  0  0  0  0  0  0  0  0
   -2.6505   25.8898    3.2662 C   0  0  0  0  0  0  0  0  0  0  0  0
    0.4974   26.4462    6.1715 H   0  0  0  0  0  0  0  0  0  0  0  0
   -5.8858   27.4815    4.5045 C   0  0  0  0  0  0  0  0  0  0  0  0
   -5.8960   28.7561    3.9023 C   0  0  0  0  0  0  0  0  0  0  0  0
   -6.5410   29.8344    4.5116 C   0  0  0  0  0  0  0  0  0  0  0  0
   -7.1775   29.6562    5.7317 C   0  0  0  0  0  0  0  0  0  0  0  0
   -7.7939   30.7357    6.2909 O   0  0  0  0  0  0  0  0  0  0  0  0
   -7.1799   28.4155    6.3563 C   0  0  0  0  0  0  0  0  0  0  0  0
   -6.5344   27.3352    5.7466 C   0  0  0  0  0  0  0  0  0  0  0  0
   -8.1990   30.4608    7.1298 H   0  0  0  0  0  0  0  0  0  0  0  0
  1  2  2  0  0  0
  2  3  1  0  0  0
  3  4  1  0  0  0
  4 11  1  0  0  0
 11 12  1  0  0  0
 12 13  2  0  0  0
 13 14  1  0  0  0
 14 15  1  0  0  0
 14 16  2  0  0  0
 16 17  1  0  0  0
  4 19  1  0  0  0
 19 20  1  0  0  0
 20 21  2  0  0  0
 21 22  1  0  0  0
 22 23  1  0  0  0
 22 24  2  0  0  0
 24 25  1  0  0  0
  4  5  1  0  0  0
  5  6  2  0  0  0
  6  7  1  0  0  0
  7  8  2  0  0  0
  8  9  1  0  0  0
  9 10  2  0  0  0
 10  2  1  0  0  0
 17 11  2  0  0  0
 25 19  2  0  0  0
 10  5  1  0  0  0
 15 18  1  0  0  0
 23 26  1  0  0  0
M  END
> <minimizedAffinity>
-10.18478

$$$$
OCNT-0495620


 31 34  0  0  0  0  0  0  0  0999 V2000
   -2.5402   30.5716    8.1586 C   0  0  0  0  0  0  0  0  0  0  0  0
   -1.4173   29.7082    8.7833 C   0  0  0  0  0  0  0  0  0  0  0  0
   -1.4068   28.3908    7.9788 C   0  0  0  0  0  0  0  0  0  0  0  0
   -2.4130   28.6274    6.8496 C   0  0  0  0  0  0  0  0  0  0  0  0
   -2.9753   27.4102    6.1028 C   0  0  0  0  0  0  0  0  0  0  0  0
   -1.8386   26.5926    5.4629 C   0  0  0  0  0  0  0  0  0  0  0  0
   -2.1563   26.0785    4.0654 C   0  0  0  0  0  0  0  0  0  0  0  0
   -3.5899   25.5485    3.9430 C   0  0  0  0  0  0  0  0  0  0  0  0
   -3.7600   24.9500    2.5312 C   0  0  0  0  0  0  0  0  0  0  0  0
   -5.2158   24.6968    2.1732 C   0  0  0  0  0  0  0  0  0  0  0  0
   -5.3032   24.1254    0.8708 O   0  0  0  0  0  0  0  0  0  0  0  0
   -6.0350   25.9852    2.1956 C   0  0  0  0  0  0  0  0  0  0  0  0
   -5.4042   27.1043    3.0298 C   0  0  0  0  0  0  0  0  0  0  0  0
   -4.6806   26.6222    4.3167 C   0  0  0  0  0  0  0  0  0  0  0  0
   -5.7300   25.9458    5.2403 C   0  0  0  0  0  0  0  0  0  0  0  0
   -4.0232   27.8665    5.0430 C   0  0  0  0  0  0  0  0  0  0  0  0
   -5.0572   28.8843    5.6125 C   0  0  0  0  0  0  0  0  0  0  0  0
   -4.4286   30.0488    6.4037 C   0  0  0  0  0  0  0  0  0  0  0  0
   -3.7139   30.8856    5.4959 O   0  0  0  0  0  0  0  0  0  0  0  0
   -3.4960   29.5220    7.5119 C   0  0  0  0  0  0  0  0  0  0  0  0
   -4.3298   28.7324    8.5530 C   0  0  0  0  0  0  0  0  0  0  0  0
   -4.7869   23.3015    0.8762 H   0  0  0  0  0  0  0  0  0  0  0  0
   -4.3532   31.2332    4.8504 H   0  0  0  0  0  0  0  0  0  0  0  0
   -2.1833   32.0385   10.1897 C   0  0  0  0  0  0  0  0  0  0  0  0
   -3.0752   31.7856    8.9633 C   0  0  0  0  0  0  0  0  0  0  0  0
   -4.5694   31.8996    9.3321 C   0  0  0  0  0  0  0  0  0  0  0  0
   -5.5164   32.6123    8.3701 C   0  0  0  0  0  0  0  0  0  0  0  0
   -5.1138   34.0285    8.0615 C   0  0  0  0  0  0  0  0  0  0  0  0
   -4.8003   34.8947    8.8600 O   0  0  0  0  0  0  0  0  0  0  0  0
   -5.0838   34.2754    6.7377 O   0  0  0  0  0  0  0  0  0  0  0  0
   -4.7965   35.2106    6.6784 H   0  0  0  0  0  0  0  0  0  0  0  0
 24 25  1  0  0  0
 25 26  1  0  0  0
 26 27  1  0  0  0
 27 28  1  0  0  0
 28 29  2  0  0  0
 28 30  1  0  0  0
 25  1  1  0  0  0
  1  2  1  0  0  0
  2  3  1  0  0  0
  3  4  1  0  0  0
  4  5  1  0  0  0
  5  6  1  0  0  0
  6  7  1  0  0  0
  7  8  1  0  0  0
  8  9  1  0  0  0
  9 10  1  0  0  0
 10 11  1  0  0  0
 10 12  1  0  0  0
 12 13  1  0  0  0
 13 14  1  0  0  0
 14 15  1  0  0  0
 14 16  1  0  0  0
 16 17  1  0  0  0
 17 18  1  0  0  0
 18 19  1  0  0  0
 18 20  1  0  0  0
 20 21  1  0  0  0
 20  1  1  0  0  0
 20  4  1  0  0  0
 16  5  1  0  0  0
 14  8  1  0  0  0
 30 31  1  0  0  0
 11 22  1  0  0  0
 19 23  1  0  0  0
M  END
> <minimizedAffinity>
-10.32592

$$$$
OCNT-0496415


 60 63  0  0  0  0  0  0  0  0999 V2000
   -3.6872   24.8162    3.5611 C   0  0  0  0  0  0  0  0  0  0  0  0
   -4.2496   23.4213    3.3454 C   0  0  0  0  0  0  0  0  0  0  0  0
   -5.1896   22.6958    3.9888 C   0  0  0  0  0  0  0  0  0  0  0  0
   -5.4840   21.2892    3.5206 C   0  0  0  0  0  0  0  0  0  0  0  0
   -5.9731   23.1236    5.2065 C   0  0  0  0  0  0  0  0  0  0  0  0
   -7.5154   23.1884    5.0461 C   0  0  0  0  0  0  0  0  0  0  0  0
   -7.9055   24.2474    4.0058 C   0  0  0  0  0  0  0  0  0  0  0  0
   -8.1354   23.5019    6.4269 C   0  0  0  0  0  0  0  0  0  0  0  0
   -9.5409   22.8966    6.6588 C   0  0  0  0  0  0  0  0  0  0  0  0
   -9.8742   22.9897    8.1715 C   0  0  0  0  0  0  0  0  0  0  0  0
   -9.7657   24.3610    8.5829 O   0  0  0  0  0  0  0  0  0  0  0  0
   -9.7584   24.5465    9.9980 C   0  0  0  0  0  0  0  0  0  0  0  0
   -8.6743   23.8289   10.5650 O   0  0  0  0  0  0  0  0  0  0  0  0
   -9.6181   26.0789   10.1972 C   0  0  0  0  0  0  0  0  0  0  0  0
  -10.4766   26.7907   10.7119 O   0  0  0  0  0  0  0  0  0  0  0  0
   -8.3161   26.6664    9.6297 C   0  0  0  0  0  0  0  0  0  0  0  0
   -7.4558   25.8786    9.2385 O   0  0  0  0  0  0  0  0  0  0  0  0
   -8.1541   28.0488    9.5267 N   0  0  0  0  0  0  0  0  0  0  0  0
   -8.9254   29.0370   10.2820 C   0  0  0  0  0  0  0  0  0  0  0  0
   -8.1381   30.3208   10.5290 C   0  0  0  0  0  0  0  0  0  0  0  0
   -7.5955   30.9477    9.2469 C   0  0  0  0  0  0  0  0  0  0  0  0
   -7.4766   29.9543    8.0915 C   0  0  0  0  0  0  0  0  0  0  0  0
   -7.1579   28.5290    8.5557 C   0  0  0  0  0  0  0  0  0  0  0  0
   -5.7118   28.4363    9.0714 C   0  0  0  0  0  0  0  0  0  0  0  0
   -5.3744   28.4777   10.2486 O   0  0  0  0  0  0  0  0  0  0  0  0
   -4.8628   28.3593    8.0003 O   0  0  0  0  0  0  0  0  0  0  0  0
   -3.4557   28.4528    8.2916 C   0  0  0  0  0  0  0  0  0  0  0  0
   -2.6377   27.5562    7.3006 C   0  0  0  0  0  0  0  0  0  0  0  0
   -1.1301   27.8186    7.4392 C   0  0  0  0  0  0  0  0  0  0  0  0
   -3.1635   27.5968    5.8367 C   0  0  0  0  0  0  0  0  0  0  0  0
   -2.1212   27.5272    4.8602 O   0  0  0  0  0  0  0  0  0  0  0  0
   -4.2135   26.5093    5.5415 C   0  0  0  0  0  0  0  0  0  0  0  0
   -3.5589   25.2324    5.0421 C   0  0  0  0  0  0  0  0  0  0  0  0
   -2.8680   24.5686    5.8274 O   0  0  0  0  0  0  0  0  0  0  0  0
  -11.0954   24.0193   10.5784 C   0  0  0  0  0  0  0  0  0  0  0  0
  -11.1238   24.0307   12.1112 C   0  0  0  0  0  0  0  0  0  0  0  0
  -11.4114   22.5919   10.0822 C   0  0  0  0  0  0  0  0  0  0  0  0
  -11.2559   22.4443    8.5597 C   0  0  0  0  0  0  0  0  0  0  0  0
   -7.8741   24.2020   10.1428 H   0  0  0  0  0  0  0  0  0  0  0  0
   -1.5181   26.8032    5.1095 H   0  0  0  0  0  0  0  0  0  0  0  0
   -3.0569   29.9405    8.3136 C   0  0  0  0  0  0  0  0  0  0  0  0
   -1.6318   30.2482    8.6714 C   0  0  0  0  0  0  0  0  0  0  0  0
   -3.9881   30.8643    7.9836 C   0  0  0  0  0  0  0  0  0  0  0  0
   -4.0053   32.3819    7.9437 C   0  0  0  0  0  0  0  0  0  0  0  0
   -2.6916   33.1115    7.5949 C   0  0  0  0  0  0  0  0  0  0  0  0
   -2.6123   34.5536    8.1177 C   0  0  0  0  0  0  0  0  0  0  0  0
   -3.9876   35.2053    8.2519 C   0  0  0  0  0  0  0  0  0  0  0  0
   -4.6047   35.2570    6.9593 O   0  0  0  0  0  0  0  0  0  0  0  0
   -4.8829   34.4169    9.2313 C   0  0  0  0  0  0  0  0  0  0  0  0
   -4.5241   32.9187    9.2908 C   0  0  0  0  0  0  0  0  0  0  0  0
   -4.0483   35.8264    6.3986 H   0  0  0  0  0  0  0  0  0  0  0  0
   -4.7283   34.9981   10.5379 O   0  0  0  0  0  0  0  0  0  0  0  0
   -4.8423   36.4163   10.5341 C   0  0  0  0  0  0  0  0  0  0  0  0
  -10.4966   23.6361    5.8896 O   0  0  0  0  0  0  0  0  0  0  0  0
  -10.6869   24.9568    6.3818 C   0  0  0  0  0  0  0  0  0  0  0  0
  -11.3448   21.0700    8.1661 O   0  0  0  0  0  0  0  0  0  0  0  0
  -11.4106   20.8810    6.7590 C   0  0  0  0  0  0  0  0  0  0  0  0
   -4.3515   25.8466    2.6231 C   0  0  0  0  0  0  0  0  0  0  0  0
   -6.1002   24.9051    1.0720 C   0  0  0  0  0  0  0  0  0  0  0  0
   -4.8299   25.2577    1.3169 C   0  0  0  0  0  0  0  0  0  0  0  0
 59 60  2  0  0  0
 60 58  1  0  0  0
 58  1  1  0  0  0
  1  2  1  0  0  0
  2  3  2  0  0  0
  3  4  1  0  0  0
  3  5  1  0  0  0
  5  6  1  0  0  0
  6  7  1  0  0  0
  6  8  1  0  0  0
  8  9  1  0  0  0
  9 54  1  0  0  0
 54 55  1  0  0  0
  9 10  1  0  0  0
 10 11  1  0  0  0
 11 12  1  0  0  0
 12 13  1  0  0  0
 12 14  1  0  0  0
 14 15  2  0  0  0
 14 16  1  0  0  0
 16 17  2  0  0  0
 16 18  1  0  0  0
 18 19  1  0  0  0
 19 20  1  0  0  0
 20 21  1  0  0  0
 21 22  1  0  0  0
 22 23  1  0  0  0
 23 24  1  0  0  0
 24 25  2  0  0  0
 24 26  1  0  0  0
 26 27  1  0  0  0
 27 41  1  0  0  0
 41 42  1  0  0  0
 41 43  2  0  0  0
 43 44  1  0  0  0
 44 45  1  0  0  0
 45 46  1  0  0  0
 46 47  1  0  0  0
 47 48  1  0  0  0
 47 49  1  0  0  0
 49 52  1  0  0  0
 52 53  1  0  0  0
 49 50  1  0  0  0
 27 28  1  0  0  0
 28 29  1  0  0  0
 28 30  1  0  0  0
 30 31  1  0  0  0
 30 32  1  0  0  0
 32 33  1  0  0  0
 33 34  2  0  0  0
 12 35  1  0  0  0
 35 36  1  0  0  0
 35 37  1  0  0  0
 37 38  1  0  0  0
 38 56  1  0  0  0
 56 57  1  0  0  0
 33  1  1  0  0  0
 38 10  1  0  0  0
 23 18  1  0  0  0
 50 44  1  0  0  0
 13 39  1  0  0  0
 48 51  1  0  0  0
 31 40  1  0  0  0
M  END
> <minimizedAffinity>
17.40143

$$$$
OCNT-0496475


 17 19  0  0  0  0  0  0  0  0999 V2000
   -4.7747   25.5251    3.0306 N   0  0  0  0  0  0  0  0  0  0  0  0
   -5.8150   24.8518    3.8415 C   0  0  0  0  0  0  0  0  0  0  0  0
   -6.0805   25.5848    5.1742 C   0  0  0  0  0  0  0  0  0  0  0  0
   -6.1910   27.0506    4.9197 C   0  0  0  0  0  0  0  0  0  0  0  0
   -5.7732   27.6515    3.7496 C   0  0  0  0  0  0  0  0  0  0  0  0
   -5.9728   29.0660    3.8056 C   0  0  0  0  0  0  0  0  0  0  0  0
   -6.5246   29.4675    5.0042 C   0  0  0  0  0  0  0  0  0  0  0  0
   -6.8048   28.1477    6.0590 S   0  0  0  0  0  0  0  0  0  0  0  0
   -5.2178   26.8682    2.5912 C   0  0  0  0  0  0  0  0  0  0  0  0
   -4.4009   24.6809    1.8842 C   0  0  0  0  0  0  0  0  0  0  0  0
   -5.3926   21.7209    2.2720 Cl  0  0  0  0  0  0  0  0  0  0  0  0
   -6.0794   22.8766    1.1854 C   0  0  0  0  0  0  0  0  0  0  0  0
   -7.1696   22.4637    0.4117 C   0  0  0  0  0  0  0  0  0  0  0  0
   -7.7811   23.3502   -0.4738 C   0  0  0  0  0  0  0  0  0  0  0  0
   -7.3059   24.6533   -0.5873 C   0  0  0  0  0  0  0  0  0  0  0  0
   -6.2180   25.0697    0.1824 C   0  0  0  0  0  0  0  0  0  0  0  0
   -5.5862   24.1879    1.0799 C   0  0  0  0  0  0  0  0  0  0  0  0
 11 12  1  0  0  0
 12 13  2  0  0  0
 13 14  1  0  0  0
 14 15  2  0  0  0
 15 16  1  0  0  0
 16 17  2  0  0  0
 17 10  1  0  0  0
 10  1  1  0  0  0
  1  2  1  0  0  0
  2  3  1  0  0  0
  3  4  1  0  0  0
  4  5  2  0  0  0
  5  6  1  0  0  0
  6  7  2  0  0  0
  7  8  1  0  0  0
  5  9  1  0  0  0
 17 12  1  0  0  0
  9  1  1  0  0  0
  8  4  1  0  0  0
M  END
> <minimizedAffinity>
-8.14545

$$$$
OCNT-0496647


 21 24  0  0  0  0  0  0  0  0999 V2000
    1.1183   29.0538    8.6184 C   0  0  0  0  0  0  0  0  0  0  0  0
   -0.3418   29.0801    8.5851 N   0  0  0  0  0  0  0  0  0  0  0  0
   -0.8572   28.1928    7.5149 C   0  0  0  0  0  0  0  0  0  0  0  0
   -2.4006   28.0480    7.5556 C   0  0  0  0  0  0  0  0  0  0  0  0
   -3.0140   29.3874    7.7800 C   0  0  0  0  0  0  0  0  0  0  0  0
   -2.2988   30.4934    8.1913 C   0  0  0  0  0  0  0  0  0  0  0  0
   -0.8170   30.4761    8.4063 C   0  0  0  0  0  0  0  0  0  0  0  0
   -3.2214   31.5691    8.3141 C   0  0  0  0  0  0  0  0  0  0  0  0
   -3.0939   32.9258    8.6781 C   0  0  0  0  0  0  0  0  0  0  0  0
   -4.2253   33.7467    8.7023 C   0  0  0  0  0  0  0  0  0  0  0  0
   -5.4749   33.2359    8.3693 C   0  0  0  0  0  0  0  0  0  0  0  0
   -5.6301   31.8951    8.0048 C   0  0  0  0  0  0  0  0  0  0  0  0
   -4.4897   31.0728    7.9819 C   0  0  0  0  0  0  0  0  0  0  0  0
   -4.3354   29.7308    7.6629 N   0  0  0  0  0  0  0  0  0  0  0  0
   -5.4204   28.8113    7.3288 C   0  0  0  0  0  0  0  0  0  0  0  0
   -5.5944   28.6097    5.8411 C   0  0  0  0  0  0  0  0  0  0  0  0
   -5.9191   29.6729    4.9845 C   0  0  0  0  0  0  0  0  0  0  0  0
   -6.1048   29.4552    3.6178 C   0  0  0  0  0  0  0  0  0  0  0  0
   -5.9808   28.1719    3.0911 C   0  0  0  0  0  0  0  0  0  0  0  0
   -5.6737   27.1038    3.9304 C   0  0  0  0  0  0  0  0  0  0  0  0
   -5.4866   27.3196    5.2972 C   0  0  0  0  0  0  0  0  0  0  0  0
  1  2  1  0  0  0
  2  3  1  0  0  0
  3  4  1  0  0  0
  4  5  1  0  0  0
  5  6  2  0  0  0
  6  7  1  0  0  0
  6  8  1  0  0  0
  8  9  2  0  0  0
  9 10  1  0  0  0
 10 11  2  0  0  0
 11 12  1  0  0  0
 12 13  2  0  0  0
 13 14  1  0  0  0
 14 15  1  0  0  0
 15 16  1  0  0  0
 16 17  2  0  0  0
 17 18  1  0  0  0
 18 19  2  0  0  0
 19 20  1  0  0  0
 20 21  2  0  0  0
  7  2  1  0  0  0
 13  8  1  0  0  0
 21 16  1  0  0  0
 14  5  1  0  0  0
M  END
> <minimizedAffinity>
-9.21492

$$$$
OCNT-0497719


 23 25  0  0  0  0  0  0  0  0999 V2000
   -5.9948   27.8159    4.4470 C   0  0  0  0  0  0  0  0  0  0  0  0
   -6.1814   26.6895    5.2553 C   0  0  0  0  0  0  0  0  0  0  0  0
   -6.1361   25.4049    4.7049 C   0  0  0  0  0  0  0  0  0  0  0  0
   -5.9125   25.2090    3.3331 C   0  0  0  0  0  0  0  0  0  0  0  0
   -5.7350   26.3454    2.5296 C   0  0  0  0  0  0  0  0  0  0  0  0
   -5.7760   27.6329    3.0759 C   0  0  0  0  0  0  0  0  0  0  0  0
   -5.8727   23.8542    2.7570 C   0  0  0  0  0  0  0  0  0  0  0  0
   -5.4820   22.7486    3.5301 C   0  0  0  0  0  0  0  0  0  0  0  0
   -5.4579   21.4599    2.9881 C   0  0  0  0  0  0  0  0  0  0  0  0
   -5.8212   21.2540    1.6621 C   0  0  0  0  0  0  0  0  0  0  0  0
   -6.2094   22.3360    0.8771 C   0  0  0  0  0  0  0  0  0  0  0  0
   -6.2343   23.6242    1.4209 C   0  0  0  0  0  0  0  0  0  0  0  0
   -6.0428   29.2018    5.0436 C   0  0  0  0  0  0  0  0  0  0  0  0
   -5.6813   29.2573    7.4113 O   0  0  0  0  0  0  0  0  0  0  0  0
   -5.1848   29.3483    6.2914 C   0  0  0  0  0  0  0  0  0  0  0  0
   -3.8634   29.6010    6.0061 N   0  0  0  0  0  0  0  0  0  0  0  0
   -3.5608   29.6263    5.0405 H   0  0  0  0  0  0  0  0  0  0  0  0
   -2.8068   29.8030    6.8923 C   0  0  0  0  0  0  0  0  0  0  0  0
   -2.3248   31.0508    7.2647 C   0  0  0  0  0  0  0  0  0  0  0  0
   -1.2588   31.1187    8.1615 C   0  0  0  0  0  0  0  0  0  0  0  0
   -0.7068   29.9448    8.6567 C   0  0  0  0  0  0  0  0  0  0  0  0
   -1.2494   28.7452    8.2324 C   0  0  0  0  0  0  0  0  0  0  0  0
   -2.2824   28.6504    7.3652 N   0  0  0  0  0  0  0  0  0  0  0  0
 14 15  2  0  0  0
 15 13  1  0  0  0
 13  1  1  0  0  0
  1  2  1  0  0  0
  2  3  2  0  0  0
  3  4  1  0  0  0
  4  7  1  0  0  0
  7  8  2  0  0  0
  8  9  1  0  0  0
  9 10  2  0  0  0
 10 11  1  0  0  0
 11 12  2  0  0  0
  4  5  2  0  0  0
  5  6  1  0  0  0
 15 16  1  0  0  0
 16 18  1  0  0  0
 18 19  2  0  0  0
 19 20  1  0  0  0
 20 21  2  0  0  0
 21 22  1  0  0  0
 22 23  2  0  0  0
  6  1  2  0  0  0
 23 18  1  0  0  0
 12  7  1  0  0  0
 16 17  1  0  0  0
M  END
> <minimizedAffinity>
-9.73033

$$$$
OCNT-0497954


 21 23  0  0  0  0  0  0  0  0999 V2000
   -1.9202   27.9787    7.1728 C   0  0  0  0  0  0  0  0  0  0  0  0
   -2.8889   28.9068    7.3522 C   0  0  0  0  0  0  0  0  0  0  0  0
   -2.5951   30.0333    8.2830 C   0  0  0  0  0  0  0  0  0  0  0  0
   -1.4027   30.7713    8.2078 C   0  0  0  0  0  0  0  0  0  0  0  0
   -1.1615   31.8225    9.0945 C   0  0  0  0  0  0  0  0  0  0  0  0
   -2.1102   32.1532   10.0591 C   0  0  0  0  0  0  0  0  0  0  0  0
   -3.3085   31.4419   10.1320 C   0  0  0  0  0  0  0  0  0  0  0  0
   -3.5637   30.3908    9.2417 C   0  0  0  0  0  0  0  0  0  0  0  0
   -5.1336   29.5315    9.3696 S   0  0  0  0  0  0  0  0  0  0  0  0
   -5.3600   28.9952    7.6740 C   0  0  0  0  0  0  0  0  0  0  0  0
   -6.6697   28.8456    7.1976 C   0  0  0  0  0  0  0  0  0  0  0  0
   -6.8996   28.4846    5.8691 C   0  0  0  0  0  0  0  0  0  0  0  0
   -5.8204   28.2898    5.0119 C   0  0  0  0  0  0  0  0  0  0  0  0
   -6.1005   27.8694    3.3671 Cl  0  0  0  0  0  0  0  0  0  0  0  0
   -4.5129   28.4326    5.4741 C   0  0  0  0  0  0  0  0  0  0  0  0
   -4.2674   28.7462    6.8192 C   0  0  0  0  0  0  0  0  0  0  0  0
   -1.9896   26.6528    6.4543 C   0  0  0  0  0  0  0  0  0  0  0  0
   -0.6665   26.3336    5.7333 C   0  0  0  0  0  0  0  0  0  0  0  0
    0.3232   26.2667    3.5033 C   0  0  0  0  0  0  0  0  0  0  0  0
   -0.7634   25.8052    4.3638 N   0  0  0  0  0  0  0  0  0  0  0  0
   -2.0627   26.0578    3.7483 C   0  0  0  0  0  0  0  0  0  0  0  0
 19 20  1  0  0  0
 20 21  1  0  0  0
 20 18  1  0  0  0
 18 17  1  0  0  0
 17  1  1  0  0  0
  1  2  2  0  0  0
  2  3  1  0  0  0
  3  4  2  0  0  0
  4  5  1  0  0  0
  5  6  2  0  0  0
  6  7  1  0  0  0
  7  8  2  0  0  0
  8  9  1  0  0  0
  9 10  1  0  0  0
 10 11  1  0  0  0
 11 12  2  0  0  0
 12 13  1  0  0  0
 13 14  1  0  0  0
 13 15  2  0  0  0
 15 16  1  0  0  0
 16  2  1  0  0  0
  8  3  1  0  0  0
 16 10  2  0  0  0
M  END
> <minimizedAffinity>
-8.34635

$$$$
OCNT-0497979


 22 23  0  0  0  0  0  0  0  0999 V2000
   -4.9799   28.6465    7.0577 C   0  0  0  0  0  0  0  0  0  0  0  0
   -5.2197   29.9063    6.3719 N   0  0  0  0  0  0  0  0  0  0  0  0
   -6.0235   29.8064    5.1605 C   0  0  0  0  0  0  0  0  0  0  0  0
   -6.0084   28.4501    4.5058 C   0  0  0  0  0  0  0  0  0  0  0  0
   -5.7720   28.1776    3.2136 C   0  0  0  0  0  0  0  0  0  0  0  0
   -5.7836   26.8443    2.7253 C   0  0  0  0  0  0  0  0  0  0  0  0
   -5.7938   25.7173    2.3100 C   0  0  0  0  0  0  0  0  0  0  0  0
   -5.8057   24.3282    1.8000 C   0  0  0  0  0  0  0  0  0  0  0  0
   -4.3696   23.7871    1.7615 C   0  0  0  0  0  0  0  0  0  0  0  0
   -6.6599   23.4525    2.7274 C   0  0  0  0  0  0  0  0  0  0  0  0
   -6.3999   24.3097    0.3848 C   0  0  0  0  0  0  0  0  0  0  0  0
   -4.0583   30.7978    6.2898 C   0  0  0  0  0  0  0  0  0  0  0  0
   -3.2227   31.1509    7.5180 C   0  0  0  0  0  0  0  0  0  0  0  0
   -3.6585   32.0598    8.4966 C   0  0  0  0  0  0  0  0  0  0  0  0
   -2.8780   32.3610    9.6100 C   0  0  0  0  0  0  0  0  0  0  0  0
   -1.6386   31.7569    9.7749 C   0  0  0  0  0  0  0  0  0  0  0  0
   -1.1606   30.8413    8.8319 C   0  0  0  0  0  0  0  0  0  0  0  0
    0.0956   30.2418    9.0243 C   0  0  0  0  0  0  0  0  0  0  0  0
    0.6022   29.3238    8.1081 C   0  0  0  0  0  0  0  0  0  0  0  0
   -0.1436   28.9935    6.9868 C   0  0  0  0  0  0  0  0  0  0  0  0
   -1.3947   29.5829    6.7827 C   0  0  0  0  0  0  0  0  0  0  0  0
   -1.9440   30.5224    7.6906 C   0  0  0  0  0  0  0  0  0  0  0  0
  1  2  1  0  0  0
  2  3  1  0  0  0
  3  4  1  0  0  0
  4  5  2  0  0  0
  5  6  1  0  0  0
  6  7  3  0  0  0
  7  8  1  0  0  0
  8  9  1  0  0  0
  8 10  1  0  0  0
  8 11  1  0  0  0
  2 12  1  0  0  0
 12 13  1  0  0  0
 13 14  2  0  0  0
 14 15  1  0  0  0
 15 16  2  0  0  0
 16 17  1  0  0  0
 17 18  2  0  0  0
 18 19  1  0  0  0
 19 20  2  0  0  0
 20 21  1  0  0  0
 21 22  2  0  0  0
 22 13  1  0  0  0
 22 17  1  0  0  0
M  END
> <minimizedAffinity>
-9.15304

$$$$
OCNT-0497986


 24 25  0  0  0  0  0  0  0  0999 V2000
   -3.0525   29.7083    6.7520 C   0  0  0  0  0  0  0  0  0  0  0  0
   -4.3075   29.3465    6.2514 C   0  0  0  0  0  0  0  0  0  0  0  0
   -4.5295   28.0265    5.8459 C   0  0  0  0  0  0  0  0  0  0  0  0
   -3.5376   27.0478    5.9075 C   0  0  0  0  0  0  0  0  0  0  0  0
   -2.2997   27.4258    6.4460 C   0  0  0  0  0  0  0  0  0  0  0  0
   -2.0251   28.7529    6.8513 C   0  0  0  0  0  0  0  0  0  0  0  0
   -3.7640   25.6992    5.6112 N   0  0  0  0  0  0  0  0  0  0  0  0
   -4.8739   25.3814    4.7432 C   0  0  0  0  0  0  0  0  0  0  0  0
   -6.0735   25.9080    5.3313 N   0  0  0  0  0  0  0  0  0  0  0  0
   -6.1319   27.5767    5.2739 S   0  0  0  0  0  0  0  0  0  0  0  0
   -6.2195   27.9857    3.8906 O   0  0  0  0  0  0  0  0  0  0  0  0
   -7.0930   27.9942    6.2695 O   0  0  0  0  0  0  0  0  0  0  0  0
   -2.9132   25.2119    5.3354 H   0  0  0  0  0  0  0  0  0  0  0  0
   -6.2731   25.5591    6.2654 H   0  0  0  0  0  0  0  0  0  0  0  0
   -4.1689   32.1976    6.8080 N   0  0  0  0  0  0  0  0  0  0  0  0
   -2.7904   31.3774    7.3021 S   0  0  0  0  0  0  0  0  0  0  0  0
   -1.7012   31.9286    6.5361 O   0  0  0  0  0  0  0  0  0  0  0  0
   -2.8514   31.3953    8.7421 O   0  0  0  0  0  0  0  0  0  0  0  0
   -4.6767   32.5388    7.6268 H   0  0  0  0  0  0  0  0  0  0  0  0
   -3.9124   32.9421    6.1566 H   0  0  0  0  0  0  0  0  0  0  0  0
   -0.6513   29.0753    7.3968 C   0  0  0  0  0  0  0  0  0  0  0  0
    0.0740   29.8994    6.6000 F   0  0  0  0  0  0  0  0  0  0  0  0
    0.1179   27.9554    7.5399 F   0  0  0  0  0  0  0  0  0  0  0  0
   -0.6962   29.6387    8.6306 F   0  0  0  0  0  0  0  0  0  0  0  0
 15 16  1  0  0  0
 16 17  2  0  0  0
 16 18  2  0  0  0
 16  1  1  0  0  0
  1  2  1  0  0  0
  2  3  2  0  0  0
  3  4  1  0  0  0
  4  5  2  0  0  0
  5  6  1  0  0  0
  6 21  1  0  0  0
 21 22  1  0  0  0
 21 23  1  0  0  0
 21 24  1  0  0  0
  4  7  1  0  0  0
  7  8  1  0  0  0
  8  9  1  0  0  0
  9 10  1  0  0  0
 10 11  2  0  0  0
 10 12  2  0  0  0
  6  1  2  0  0  0
 10  3  1  0  0  0
 15 19  1  0  0  0
 15 20  1  0  0  0
  7 13  1  0  0  0
  9 14  1  0  0  0
M  END
> <minimizedAffinity>
-7.68713

$$$$
OCNT-0497994


 26 27  0  0  0  0  0  0  0  0999 V2000
   -2.7626   28.7960    6.5457 C   0  0  0  0  0  0  0  0  0  0  0  0
   -2.5939   27.4689    6.3480 C   0  0  0  0  0  0  0  0  0  0  0  0
   -1.2943   26.7308    6.5493 C   0  0  0  0  0  0  0  0  0  0  0  0
   -3.6592   26.7040    5.8962 N   0  0  0  0  0  0  0  0  0  0  0  0
   -4.8939   27.2169    5.5288 C   0  0  0  0  0  0  0  0  0  0  0  0
   -5.8495   26.2388    4.8949 C   0  0  0  0  0  0  0  0  0  0  0  0
   -5.1487   28.5316    5.7140 C   0  0  0  0  0  0  0  0  0  0  0  0
   -4.1079   29.4807    6.3045 C   0  0  0  0  0  0  0  0  0  0  0  0
   -3.4769   25.7246    5.6893 H   0  0  0  0  0  0  0  0  0  0  0  0
   -4.6307   30.1281    7.5989 C   0  0  0  0  0  0  0  0  0  0  0  0
   -5.2392   29.2987    8.5690 C   0  0  0  0  0  0  0  0  0  0  0  0
   -5.7337   29.8202    9.7627 C   0  0  0  0  0  0  0  0  0  0  0  0
   -5.6313   31.1832   10.0162 C   0  0  0  0  0  0  0  0  0  0  0  0
   -5.0332   32.0277    9.0771 C   0  0  0  0  0  0  0  0  0  0  0  0
   -4.9473   33.7097    9.4818 Cl  0  0  0  0  0  0  0  0  0  0  0  0
   -4.5306   31.5111    7.8680 C   0  0  0  0  0  0  0  0  0  0  0  0
   -3.7877   32.5841    6.7239 Cl  0  0  0  0  0  0  0  0  0  0  0  0
   -1.6589   29.6436    7.0441 C   0  0  0  0  0  0  0  0  0  0  0  0
   -0.9552   30.3456    6.3356 O   0  0  0  0  0  0  0  0  0  0  0  0
   -1.5732   29.5120    8.3894 O   0  0  0  0  0  0  0  0  0  0  0  0
   -1.3758   31.6434    9.5183 C   0  0  0  0  0  0  0  0  0  0  0  0
   -0.6537   30.3957    9.0462 C   0  0  0  0  0  0  0  0  0  0  0  0
   -6.4234   29.1673    5.3269 C   0  0  0  0  0  0  0  0  0  0  0  0
   -7.4929   28.9109    5.8554 O   0  0  0  0  0  0  0  0  0  0  0  0
   -6.2246   29.9964    4.2716 O   0  0  0  0  0  0  0  0  0  0  0  0
   -6.1084   29.3166    3.0217 C   0  0  0  0  0  0  0  0  0  0  0  0
 21 22  1  0  0  0
 22 20  1  0  0  0
 20 18  1  0  0  0
 18 19  2  0  0  0
 18  1  1  0  0  0
  1  2  2  0  0  0
  2  3  1  0  0  0
  2  4  1  0  0  0
  4  5  1  0  0  0
  5  6  1  0  0  0
  5  7  2  0  0  0
  7 23  1  0  0  0
 23 24  2  0  0  0
 23 25  1  0  0  0
 25 26  1  0  0  0
  7  8  1  0  0  0
  8 10  1  0  0  0
 10 11  2  0  0  0
 11 12  1  0  0  0
 12 13  2  0  0  0
 13 14  1  0  0  0
 14 15  1  0  0  0
 14 16  2  0  0  0
 16 17  1  0  0  0
  8  1  1  0  0  0
 16 10  1  0  0  0
  4  9  1  0  0  0
M  END
> <minimizedAffinity>
-7.37696

$$$$
OCNT-0498030


 27 29  0  0  0  0  0  0  0  0999 V2000
   -5.9701   27.8220    4.6099 C   0  0  0  0  0  0  0  0  0  0  0  0
   -5.7643   27.8304    3.2234 C   0  0  0  0  0  0  0  0  0  0  0  0
   -5.7161   26.6332    2.5036 C   0  0  0  0  0  0  0  0  0  0  0  0
   -5.8871   25.4115    3.1560 C   0  0  0  0  0  0  0  0  0  0  0  0
   -6.1089   25.3821    4.5343 C   0  0  0  0  0  0  0  0  0  0  0  0
   -6.1345   26.5814    5.2579 C   0  0  0  0  0  0  0  0  0  0  0  0
   -6.0858   29.0920    5.4421 C   0  0  0  0  0  0  0  0  0  0  0  0
   -7.4994   29.4388    5.9200 C   0  0  0  0  0  0  0  0  0  0  0  0
   -3.7579   29.2780    6.1843 N   0  0  0  0  0  0  0  0  0  0  0  0
   -5.0595   29.0801    6.5867 C   0  0  0  0  0  0  0  0  0  0  0  0
   -5.4370   28.9469    7.7508 O   0  0  0  0  0  0  0  0  0  0  0  0
   -3.5509   29.4396    5.2080 H   0  0  0  0  0  0  0  0  0  0  0  0
   -0.7862   31.6608    9.3871 C   0  0  0  0  0  0  0  0  0  0  0  0
   -1.1165   30.5006    8.4989 C   0  0  0  0  0  0  0  0  0  0  0  0
   -0.2707   29.3950    8.4104 C   0  0  0  0  0  0  0  0  0  0  0  0
   -0.6495   28.3441    7.5925 C   0  0  0  0  0  0  0  0  0  0  0  0
   -1.7915   28.3239    6.8693 N   0  0  0  0  0  0  0  0  0  0  0  0
   -2.6113   29.3942    6.9718 C   0  0  0  0  0  0  0  0  0  0  0  0
   -2.3179   30.4854    7.7784 C   0  0  0  0  0  0  0  0  0  0  0  0
   -6.2779   24.0633    5.2022 C   0  0  0  0  0  0  0  0  0  0  0  0
   -5.3541   23.6020    5.8685 O   0  0  0  0  0  0  0  0  0  0  0  0
   -7.5427   23.2950    5.0905 C   0  0  0  0  0  0  0  0  0  0  0  0
   -8.6908   23.6605    5.8033 C   0  0  0  0  0  0  0  0  0  0  0  0
   -9.8540   22.8967    5.6848 C   0  0  0  0  0  0  0  0  0  0  0  0
   -9.8788   21.7823    4.8435 C   0  0  0  0  0  0  0  0  0  0  0  0
   -8.7444   21.4333    4.1108 C   0  0  0  0  0  0  0  0  0  0  0  0
   -7.5775   22.1919    4.2295 C   0  0  0  0  0  0  0  0  0  0  0  0
 13 14  1  0  0  0
 14 15  2  0  0  0
 15 16  1  0  0  0
 16 17  2  0  0  0
 17 18  1  0  0  0
 18  9  1  0  0  0
  9 10  1  0  0  0
 10 11  2  0  0  0
 10  7  1  0  0  0
  7  8  1  0  0  0
  7  1  1  0  0  0
  1  2  2  0  0  0
  2  3  1  0  0  0
  3  4  2  0  0  0
  4  5  1  0  0  0
  5 20  1  0  0  0
 20 21  2  0  0  0
 20 22  1  0  0  0
 22 23  2  0  0  0
 23 24  1  0  0  0
 24 25  2  0  0  0
 25 26  1  0  0  0
 26 27  2  0  0  0
  5  6  2  0  0  0
 18 19  2  0  0  0
 19 14  1  0  0  0
  6  1  1  0  0  0
 27 22  1  0  0  0
  9 12  1  0  0  0
M  END
> <minimizedAffinity>
-10.14241

$$$$
OCNT-0498067


 32 35  0  0  0  0  0  0  0  0999 V2000
   -2.0911   25.9211    2.9424 O   0  0  0  0  0  0  0  0  0  0  0  0
   -2.9511   26.1380    3.7657 C   0  0  0  0  0  0  0  0  0  0  0  0
   -2.9748   26.7783    5.1630 C   0  0  0  0  0  0  0  0  0  0  0  0
   -4.5016   26.4357    5.1559 C   0  0  0  0  0  0  0  0  0  0  0  0
   -4.2843   25.8977    3.8087 N   0  0  0  0  0  0  0  0  0  0  0  0
   -5.5057   27.6587    5.3328 C   0  0  0  0  0  0  0  0  0  0  0  0
   -5.7154   28.6288    4.3296 C   0  0  0  0  0  0  0  0  0  0  0  0
   -6.5982   29.6981    4.5054 C   0  0  0  0  0  0  0  0  0  0  0  0
   -7.2939   29.8252    5.6971 C   0  0  0  0  0  0  0  0  0  0  0  0
   -8.1439   30.8814    5.8297 O   0  0  0  0  0  0  0  0  0  0  0  0
   -7.1205   28.8993    6.7154 C   0  0  0  0  0  0  0  0  0  0  0  0
   -6.2350   27.8320    6.5290 C   0  0  0  0  0  0  0  0  0  0  0  0
   -8.5561   30.8423    6.7082 H   0  0  0  0  0  0  0  0  0  0  0  0
   -5.1438   25.2160    2.9485 C   0  0  0  0  0  0  0  0  0  0  0  0
   -5.3775   25.6818    1.6478 C   0  0  0  0  0  0  0  0  0  0  0  0
   -6.2416   24.9946    0.7903 C   0  0  0  0  0  0  0  0  0  0  0  0
   -6.8734   23.8411    1.2337 C   0  0  0  0  0  0  0  0  0  0  0  0
   -7.7017   23.1825    0.4130 F   0  0  0  0  0  0  0  0  0  0  0  0
   -6.6576   23.3621    2.5187 C   0  0  0  0  0  0  0  0  0  0  0  0
   -5.7929   24.0489    3.3757 C   0  0  0  0  0  0  0  0  0  0  0  0
   -2.1634   26.1111    6.2708 C   0  0  0  0  0  0  0  0  0  0  0  0
   -2.0226   27.0241    7.4971 C   0  0  0  0  0  0  0  0  0  0  0  0
   -1.2076   28.2928    7.2058 C   0  0  0  0  0  0  0  0  0  0  0  0
    0.1812   28.0035    7.3791 O   0  0  0  0  0  0  0  0  0  0  0  0
    0.6373   28.8613    7.4411 H   0  0  0  0  0  0  0  0  0  0  0  0
   -1.6120   29.4408    8.1072 C   0  0  0  0  0  0  0  0  0  0  0  0
   -2.9436   29.6040    8.5266 C   0  0  0  0  0  0  0  0  0  0  0  0
   -3.3007   30.6751    9.3467 C   0  0  0  0  0  0  0  0  0  0  0  0
   -2.3307   31.5873    9.7436 C   0  0  0  0  0  0  0  0  0  0  0  0
   -2.6750   32.6157   10.5300 F   0  0  0  0  0  0  0  0  0  0  0  0
   -1.0100   31.4508    9.3343 C   0  0  0  0  0  0  0  0  0  0  0  0
   -0.6499   30.3801    8.5145 C   0  0  0  0  0  0  0  0  0  0  0  0
  1  2  2  0  0  0
  2  3  1  0  0  0
  3 21  1  0  0  0
 21 22  1  0  0  0
 22 23  1  0  0  0
 23 24  1  0  0  0
 23 26  1  0  0  0
 26 27  1  0  0  0
 27 28  2  0  0  0
 28 29  1  0  0  0
 29 30  1  0  0  0
 29 31  2  0  0  0
 31 32  1  0  0  0
  3  4  1  0  0  0
  4  6  1  0  0  0
  6  7  1  0  0  0
  7  8  2  0  0  0
  8  9  1  0  0  0
  9 10  1  0  0  0
  9 11  2  0  0  0
 11 12  1  0  0  0
  4  5  1  0  0  0
  5 14  1  0  0  0
 14 15  1  0  0  0
 15 16  2  0  0  0
 16 17  1  0  0  0
 17 18  1  0  0  0
 17 19  2  0  0  0
 19 20  1  0  0  0
  5  2  1  0  0  0
 20 14  2  0  0  0
 32 26  2  0  0  0
 12  6  2  0  0  0
 24 25  1  0  0  0
 10 13  1  0  0  0
M  END
> <minimizedAffinity>
-10.19106

$$$$
OCNT-0713834


 32 34  0  0  0  0  0  0  0  0999 V2000
   -2.6723   29.7217    7.5139 C   0  0  0  0  0  0  0  0  0  0  0  0
   -3.9958   29.7536    7.0250 C   0  0  0  0  0  0  0  0  0  0  0  0
   -4.5523   28.8031    6.1186 C   0  0  0  0  0  0  0  0  0  0  0  0
   -3.6994   27.7534    5.6789 C   0  0  0  0  0  0  0  0  0  0  0  0
   -2.3805   27.7174    6.1574 C   0  0  0  0  0  0  0  0  0  0  0  0
   -1.8820   28.6715    7.0499 C   0  0  0  0  0  0  0  0  0  0  0  0
   -0.5808   28.5573    7.4591 O   0  0  0  0  0  0  0  0  0  0  0  0
   -0.2045   27.7407    7.0910 H   0  0  0  0  0  0  0  0  0  0  0  0
   -0.7699   30.4376    9.1273 C   0  0  0  0  0  0  0  0  0  0  0  0
   -2.1432   30.7890    8.4981 C   0  0  0  0  0  0  0  0  0  0  0  0
   -1.9492   32.1410    7.7753 C   0  0  0  0  0  0  0  0  0  0  0  0
   -3.1249   30.9641    9.6786 C   0  0  0  0  0  0  0  0  0  0  0  0
   -6.0367   28.9797    5.6846 C   0  0  0  0  0  0  0  0  0  0  0  0
   -6.8384   30.0193    6.5278 C   0  0  0  0  0  0  0  0  0  0  0  0
   -6.8236   27.6607    5.8682 C   0  0  0  0  0  0  0  0  0  0  0  0
   -6.1158   29.5194    4.2386 C   0  0  0  0  0  0  0  0  0  0  0  0
   -4.1482   26.7615    4.7619 N   0  0  0  0  0  0  0  0  0  0  0  0
   -3.4369   26.1181    3.7642 C   0  0  0  0  0  0  0  0  0  0  0  0
   -2.2433   26.2723    3.5117 O   0  0  0  0  0  0  0  0  0  0  0  0
   -5.1147   26.4644    4.8508 H   0  0  0  0  0  0  0  0  0  0  0  0
   -4.2325   25.1474    2.9436 C   0  0  0  0  0  0  0  0  0  0  0  0
   -3.8926   23.8462    2.9880 C   0  0  0  0  0  0  0  0  0  0  0  0
   -4.5122   22.8355    2.2985 N   0  0  0  0  0  0  0  0  0  0  0  0
   -5.5405   23.1127    1.3918 C   0  0  0  0  0  0  0  0  0  0  0  0
   -6.0151   24.4276    1.2563 C   0  0  0  0  0  0  0  0  0  0  0  0
   -7.0690   24.7244    0.3846 C   0  0  0  0  0  0  0  0  0  0  0  0
   -7.6588   23.7006   -0.3557 C   0  0  0  0  0  0  0  0  0  0  0  0
   -7.2004   22.3894   -0.2204 C   0  0  0  0  0  0  0  0  0  0  0  0
   -6.1498   22.0946    0.6548 C   0  0  0  0  0  0  0  0  0  0  0  0
   -5.3761   25.5049    2.0571 C   0  0  0  0  0  0  0  0  0  0  0  0
   -5.7852   26.6602    1.9791 O   0  0  0  0  0  0  0  0  0  0  0  0
   -4.0896   21.9134    2.3042 H   0  0  0  0  0  0  0  0  0  0  0  0
  9 10  1  0  0  0
 10 11  1  0  0  0
 10 12  1  0  0  0
 10  1  1  0  0  0
  1  2  2  0  0  0
  2  3  1  0  0  0
  3 13  1  0  0  0
 13 14  1  0  0  0
 13 15  1  0  0  0
 13 16  1  0  0  0
  3  4  2  0  0  0
  4 17  1  0  0  0
 17 18  1  0  0  0
 18 19  2  0  0  0
 18 21  1  0  0  0
 21 22  2  0  0  0
 22 23  1  0  0  0
 23 24  1  0  0  0
 24 25  1  0  0  0
 25 26  2  0  0  0
 26 27  1  0  0  0
 27 28  2  0  0  0
 28 29  1  0  0  0
 25 30  1  0  0  0
 30 31  2  0  0  0
  4  5  1  0  0  0
  5  6  2  0  0  0
  6  7  1  0  0  0
  6  1  1  0  0  0
 30 21  1  0  0  0
 29 24  2  0  0  0
 17 20  1  0  0  0
 23 32  1  0  0  0
  7  8  1  0  0  0
M  END
> <minimizedAffinity>
-10.95452

$$$$
OCNT-0713835


 42 45  0  0  0  0  0  0  0  0999 V2000
   -3.2968   26.1437    5.3242 C   0  0  0  0  0  0  0  0  0  0  0  0
   -1.9527   25.9147    5.6425 C   0  0  0  0  0  0  0  0  0  0  0  0
   -1.2732   26.8440    6.4216 C   0  0  0  0  0  0  0  0  0  0  0  0
   -1.9654   27.9696    6.8559 C   0  0  0  0  0  0  0  0  0  0  0  0
   -3.2695   28.2026    6.5381 N   0  0  0  0  0  0  0  0  0  0  0  0
   -3.9375   27.2984    5.7802 C   0  0  0  0  0  0  0  0  0  0  0  0
   -5.2556   27.5763    5.4355 N   0  0  0  0  0  0  0  0  0  0  0  0
   -5.9801   28.3587    6.4537 C   0  0  0  0  0  0  0  0  0  0  0  0
   -7.1544   28.9632    5.6874 C   0  0  0  0  0  0  0  0  0  0  0  0
   -7.7842   30.1541    6.3905 C   0  0  0  0  0  0  0  0  0  0  0  0
   -6.4945   29.3189    4.3581 C   0  0  0  0  0  0  0  0  0  0  0  0
   -5.5683   28.1103    4.0788 C   0  0  0  0  0  0  0  0  0  0  0  0
   -6.3309   27.0215    3.3050 C   0  0  0  0  0  0  0  0  0  0  0  0
   -4.3587   28.5585    3.2470 C   0  0  0  0  0  0  0  0  0  0  0  0
   -1.2966   28.9260    7.6777 N   0  0  0  0  0  0  0  0  0  0  0  0
    0.0065   28.8436    8.1224 C   0  0  0  0  0  0  0  0  0  0  0  0
    0.2503   29.9749    8.8629 C   0  0  0  0  0  0  0  0  0  0  0  0
   -0.9576   30.6797    8.8203 C   0  0  0  0  0  0  0  0  0  0  0  0
   -1.9045   30.0657    8.1132 N   0  0  0  0  0  0  0  0  0  0  0  0
   -1.1806   31.8735    9.4077 O   0  0  0  0  0  0  0  0  0  0  0  0
   -2.3851   31.9500   10.1720 C   0  0  0  0  0  0  0  0  0  0  0  0
   -3.5313   32.5182    9.3135 C   0  0  0  0  0  0  0  0  0  0  0  0
   -2.9707   32.8974    7.9293 C   0  0  0  0  0  0  0  0  0  0  0  0
   -4.1351   33.7708    9.9735 C   0  0  0  0  0  0  0  0  0  0  0  0
   -4.6166   31.4547    9.1442 C   0  0  0  0  0  0  0  0  0  0  0  0
   -4.3520   30.3599    9.8945 F   0  0  0  0  0  0  0  0  0  0  0  0
   -4.6903   31.0432    7.8556 F   0  0  0  0  0  0  0  0  0  0  0  0
   -5.8443   31.8990    9.4883 F   0  0  0  0  0  0  0  0  0  0  0  0
   -5.0326   24.4875    5.3243 N   0  0  0  0  0  0  0  0  0  0  0  0
   -4.0309   25.1132    4.5745 C   0  0  0  0  0  0  0  0  0  0  0  0
   -3.8327   24.9214    3.3885 O   0  0  0  0  0  0  0  0  0  0  0  0
   -5.0905   24.6086    6.3309 H   0  0  0  0  0  0  0  0  0  0  0  0
   -6.0244   23.2755    4.7780 S   0  0  0  0  0  0  0  0  0  0  0  0
   -5.1256   22.1831    4.4576 O   0  0  0  0  0  0  0  0  0  0  0  0
   -6.9708   23.7692    3.8076 O   0  0  0  0  0  0  0  0  0  0  0  0
   -5.1345   21.5131    7.6211 C   0  0  0  0  0  0  0  0  0  0  0  0
   -6.5000   21.9487    7.2280 C   0  0  0  0  0  0  0  0  0  0  0  0
   -7.5352   21.6087    8.0160 N   0  0  0  0  0  0  0  0  0  0  0  0
   -8.6052   22.1626    7.4232 N   0  0  0  0  0  0  0  0  0  0  0  0
   -9.9067   22.0238    8.0310 C   0  0  0  0  0  0  0  0  0  0  0  0
   -8.3124   22.7932    6.2554 C   0  0  0  0  0  0  0  0  0  0  0  0
   -6.9436   22.6773    6.0987 C   0  0  0  0  0  0  0  0  0  0  0  0
 36 37  1  0  0  0
 37 38  2  0  0  0
 38 39  1  0  0  0
 39 40  1  0  0  0
 39 41  1  0  0  0
 41 42  2  0  0  0
 42 33  1  0  0  0
 33 34  2  0  0  0
 33 35  2  0  0  0
 33 29  1  0  0  0
 29 30  1  0  0  0
 30 31  2  0  0  0
 30  1  1  0  0  0
  1  2  2  0  0  0
  2  3  1  0  0  0
  3  4  2  0  0  0
  4 15  1  0  0  0
 15 16  1  0  0  0
 16 17  2  0  0  0
 17 18  1  0  0  0
 18 20  1  0  0  0
 20 21  1  0  0  0
 21 22  1  0  0  0
 22 23  1  0  0  0
 22 24  1  0  0  0
 22 25  1  0  0  0
 25 26  1  0  0  0
 25 27  1  0  0  0
 25 28  1  0  0  0
 18 19  2  0  0  0
  4  5  1  0  0  0
  5  6  2  0  0  0
  6  7  1  0  0  0
  7  8  1  0  0  0
  8  9  1  0  0  0
  9 10  1  0  0  0
  9 11  1  0  0  0
 11 12  1  0  0  0
 12 13  1  0  0  0
 12 14  1  0  0  0
 42 37  1  0  0  0
  6  1  1  0  0  0
 12  7  1  0  0  0
 19 15  1  0  0  0
 29 32  1  0  0  0
M  END
> <minimizedAffinity>
-8.76179

$$$$
OCNT-1411118


 26 28  0  0  0  0  0  0  0  0999 V2000
   -6.6700   23.5502    4.1643 C   0  0  0  0  0  0  0  0  0  0  0  0
   -6.1223   24.7678    4.3808 C   0  0  0  0  0  0  0  0  0  0  0  0
   -4.6612   21.1356    3.5035 C   0  0  0  0  0  0  0  0  0  0  0  0
   -5.6028   21.8351    2.5731 C   0  0  0  0  0  0  0  0  0  0  0  0
   -6.4627   22.8804    2.9101 C   0  0  0  0  0  0  0  0  0  0  0  0
   -7.4092   23.3686    1.5497 S   0  0  0  0  0  0  0  0  0  0  0  0
   -6.6701   22.2262    0.5258 C   0  0  0  0  0  0  0  0  0  0  0  0
   -5.7285   21.4756    1.1880 C   0  0  0  0  0  0  0  0  0  0  0  0
   -7.4811   22.9931    5.2181 C   0  0  0  0  0  0  0  0  0  0  0  0
   -7.0950   22.3527    6.3943 C   0  0  0  0  0  0  0  0  0  0  0  0
   -5.6839   22.1225    6.8267 C   0  0  0  0  0  0  0  0  0  0  0  0
   -8.2292   21.9329    7.1675 C   0  0  0  0  0  0  0  0  0  0  0  0
   -9.4257   22.2460    6.5702 C   0  0  0  0  0  0  0  0  0  0  0  0
   -9.2052   23.0351    5.0769 S   0  0  0  0  0  0  0  0  0  0  0  0
   -5.2927   25.6053    3.4409 C   0  0  0  0  0  0  0  0  0  0  0  0
   -4.7359   26.9095    4.0479 C   0  0  0  0  0  0  0  0  0  0  0  0
   -3.3218   26.8511    4.4710 N   0  0  0  0  0  0  0  0  0  0  0  0
   -2.4534   26.2483    3.4444 C   0  0  0  0  0  0  0  0  0  0  0  0
   -1.1793   25.5959    3.9971 C   0  0  0  0  0  0  0  0  0  0  0  0
   -0.6861   26.3219    5.2398 C   0  0  0  0  0  0  0  0  0  0  0  0
   -1.7611   26.2920    6.3380 C   0  0  0  0  0  0  0  0  0  0  0  0
   -3.1865   26.1690    5.7674 C   0  0  0  0  0  0  0  0  0  0  0  0
   -1.6400   27.4812    7.2675 C   0  0  0  0  0  0  0  0  0  0  0  0
   -0.9337   28.4671    7.1332 O   0  0  0  0  0  0  0  0  0  0  0  0
   -2.3772   27.3383    8.3911 O   0  0  0  0  0  0  0  0  0  0  0  0
   -2.1851   28.1597    8.8930 H   0  0  0  0  0  0  0  0  0  0  0  0
  3  4  1  0  0  0
  4  5  2  0  0  0
  5  1  1  0  0  0
  1  2  2  0  0  0
  2 15  1  0  0  0
 15 16  1  0  0  0
 16 17  1  0  0  0
 17 18  1  0  0  0
 18 19  1  0  0  0
 19 20  1  0  0  0
 20 21  1  0  0  0
 21 23  1  0  0  0
 23 24  2  0  0  0
 23 25  1  0  0  0
 21 22  1  0  0  0
  1  9  1  0  0  0
  9 10  2  0  0  0
 10 11  1  0  0  0
 10 12  1  0  0  0
 12 13  2  0  0  0
 13 14  1  0  0  0
  5  6  1  0  0  0
  6  7  1  0  0  0
  7  8  2  0  0  0
  8  4  1  0  0  0
 22 17  1  0  0  0
 14  9  1  0  0  0
 25 26  1  0  0  0
M  END
> <minimizedAffinity>
-8.59082

$$$$
OCNT-1893991


 28 31  0  0  0  0  0  0  0  0999 V2000
   -5.0380   27.5508    3.4937 C   0  0  0  0  0  0  0  0  0  0  0  0
   -5.7090   28.9292    3.4502 C   0  0  0  0  0  0  0  0  0  0  0  0
   -6.5374   29.1861    4.7062 C   0  0  0  0  0  0  0  0  0  0  0  0
   -5.6986   29.1898    5.9116 N   0  0  0  0  0  0  0  0  0  0  0  0
   -4.6808   28.1263    5.9261 C   0  0  0  0  0  0  0  0  0  0  0  0
   -4.9379   27.0056    4.9230 C   0  0  0  0  0  0  0  0  0  0  0  0
   -3.8504   25.4541    2.0017 O   0  0  0  0  0  0  0  0  0  0  0  0
   -5.0697   25.5795    1.9867 C   0  0  0  0  0  0  0  0  0  0  0  0
   -5.7388   26.5946    2.6400 N   0  0  0  0  0  0  0  0  0  0  0  0
   -6.7439   26.6609    2.5658 H   0  0  0  0  0  0  0  0  0  0  0  0
   -5.9080   24.6236    1.2121 C   0  0  0  0  0  0  0  0  0  0  0  0
   -6.5464   25.0894    0.0557 C   0  0  0  0  0  0  0  0  0  0  0  0
   -7.3415   24.2290   -0.7033 C   0  0  0  0  0  0  0  0  0  0  0  0
   -7.4941   22.8985   -0.3157 C   0  0  0  0  0  0  0  0  0  0  0  0
   -6.8462   22.4235    0.8247 C   0  0  0  0  0  0  0  0  0  0  0  0
   -6.0499   23.2814    1.5878 C   0  0  0  0  0  0  0  0  0  0  0  0
   -6.5322   29.2082    7.1277 C   0  0  0  0  0  0  0  0  0  0  0  0
   -5.7080   29.0709    8.4207 C   0  0  0  0  0  0  0  0  0  0  0  0
   -4.9488   30.3240    8.7370 C   0  0  0  0  0  0  0  0  0  0  0  0
   -5.4909   31.5636    9.0162 C   0  0  0  0  0  0  0  0  0  0  0  0
   -4.4653   32.4388    9.2508 N   0  0  0  0  0  0  0  0  0  0  0  0
   -3.2548   31.7971    9.1330 C   0  0  0  0  0  0  0  0  0  0  0  0
   -1.9535   32.2903    9.2868 C   0  0  0  0  0  0  0  0  0  0  0  0
   -0.8954   31.3956    9.1015 C   0  0  0  0  0  0  0  0  0  0  0  0
   -1.1322   30.0630    8.7738 C   0  0  0  0  0  0  0  0  0  0  0  0
   -2.4399   29.5871    8.6232 C   0  0  0  0  0  0  0  0  0  0  0  0
   -3.5255   30.4682    8.8067 C   0  0  0  0  0  0  0  0  0  0  0  0
   -4.5743   33.4173    9.4768 H   0  0  0  0  0  0  0  0  0  0  0  0
  7  8  2  0  0  0
  8  9  1  0  0  0
  9  1  1  0  0  0
  1  2  1  0  0  0
  2  3  1  0  0  0
  3  4  1  0  0  0
  4 17  1  0  0  0
 17 18  1  0  0  0
 18 19  1  0  0  0
 19 20  2  0  0  0
 20 21  1  0  0  0
 21 22  1  0  0  0
 22 23  2  0  0  0
 23 24  1  0  0  0
 24 25  2  0  0  0
 25 26  1  0  0  0
 26 27  2  0  0  0
  4  5  1  0  0  0
  5  6  1  0  0  0
  8 11  1  0  0  0
 11 12  2  0  0  0
 12 13  1  0  0  0
 13 14  2  0  0  0
 14 15  1  0  0  0
 15 16  2  0  0  0
  6  1  1  0  0  0
 16 11  1  0  0  0
 27 19  1  0  0  0
 27 22  1  0  0  0
  9 10  1  0  0  0
 21 28  1  0  0  0
M  END
> <minimizedAffinity>
-10.21103

$$$$
OCNT-1893994


 21 22  0  0  0  0  0  0  0  0999 V2000
   -3.8118   29.1148    7.6038 C   0  0  0  0  0  0  0  0  0  0  0  0
   -4.6133   28.4778    8.2843 O   0  0  0  0  0  0  0  0  0  0  0  0
   -3.5290   28.8726    6.2658 N   0  0  0  0  0  0  0  0  0  0  0  0
   -2.5910   29.1283    5.9952 H   0  0  0  0  0  0  0  0  0  0  0  0
   -4.1815   27.9315    5.4306 C   0  0  0  0  0  0  0  0  0  0  0  0
   -5.4343   28.1717    4.8251 C   0  0  0  0  0  0  0  0  0  0  0  0
   -6.1878   29.4725    4.9111 C   0  0  0  0  0  0  0  0  0  0  0  0
   -6.0257   27.1592    4.0454 C   0  0  0  0  0  0  0  0  0  0  0  0
   -5.3709   25.9560    3.8096 C   0  0  0  0  0  0  0  0  0  0  0  0
   -4.1073   25.7451    4.3456 C   0  0  0  0  0  0  0  0  0  0  0  0
   -3.4964   26.7217    5.1500 C   0  0  0  0  0  0  0  0  0  0  0  0
   -2.1387   26.4077    5.7233 C   0  0  0  0  0  0  0  0  0  0  0  0
   -1.6840   29.7786    8.8684 N   0  0  0  0  0  0  0  0  0  0  0  0
   -0.7015   30.8620    9.0432 C   0  0  0  0  0  0  0  0  0  0  0  0
   -1.3478   32.2311    9.2540 C   0  0  0  0  0  0  0  0  0  0  0  0
   -2.1953   32.6440    8.0527 C   0  0  0  0  0  0  0  0  0  0  0  0
   -2.7492   31.4380    7.2950 C   0  0  0  0  0  0  0  0  0  0  0  0
   -2.9528   30.2397    8.2338 C   0  0  0  0  0  0  0  0  0  0  0  0
   -1.0868   28.5551    8.3193 C   0  0  0  0  0  0  0  0  0  0  0  0
    0.3881   29.1161    6.3502 C   0  0  0  0  0  0  0  0  0  0  0  0
    0.3563   28.7363    7.8241 C   0  0  0  0  0  0  0  0  0  0  0  0
 20 21  1  0  0  0
 21 19  1  0  0  0
 19 13  1  0  0  0
 13 14  1  0  0  0
 14 15  1  0  0  0
 15 16  1  0  0  0
 16 17  1  0  0  0
 17 18  1  0  0  0
 18  1  1  0  0  0
  1  2  2  0  0  0
  1  3  1  0  0  0
  3  5  1  0  0  0
  5  6  2  0  0  0
  6  7  1  0  0  0
  6  8  1  0  0  0
  8  9  2  0  0  0
  9 10  1  0  0  0
 10 11  2  0  0  0
 11 12  1  0  0  0
 18 13  1  0  0  0
 11  5  1  0  0  0
  3  4  1  0  0  0
M  END
> <minimizedAffinity>
-7.87191

$$$$
OCNT-1893998


 23 23  0  0  0  0  0  0  0  0999 V2000
   -5.5818   31.5363    8.0331 C   0  0  0  0  0  0  0  0  0  0  0  0
   -6.3393   31.3987    8.9868 O   0  0  0  0  0  0  0  0  0  0  0  0
   -5.6397   30.7598    6.8956 N   0  0  0  0  0  0  0  0  0  0  0  0
   -5.1058   31.0468    6.0869 H   0  0  0  0  0  0  0  0  0  0  0  0
   -4.4712   32.5698    7.9791 C   0  0  0  0  0  0  0  0  0  0  0  0
   -3.9859   32.9690    9.3718 C   0  0  0  0  0  0  0  0  0  0  0  0
   -2.6892   32.2694    9.7910 C   0  0  0  0  0  0  0  0  0  0  0  0
   -2.1574   31.2962    8.7356 C   0  0  0  0  0  0  0  0  0  0  0  0
   -0.7329   30.8077    9.0238 C   0  0  0  0  0  0  0  0  0  0  0  0
   -0.4888   29.3587    8.5936 C   0  0  0  0  0  0  0  0  0  0  0  0
    0.7166   29.3173    6.3446 C   0  0  0  0  0  0  0  0  0  0  0  0
    0.8373   29.1656    7.8531 C   0  0  0  0  0  0  0  0  0  0  0  0
   -6.6948   29.7939    6.6883 C   0  0  0  0  0  0  0  0  0  0  0  0
   -6.4031   28.9358    5.4832 C   0  0  0  0  0  0  0  0  0  0  0  0
   -6.1733   29.5147    4.2286 C   0  0  0  0  0  0  0  0  0  0  0  0
   -5.9267   28.7097    3.1162 C   0  0  0  0  0  0  0  0  0  0  0  0
   -5.9175   27.3215    3.2555 C   0  0  0  0  0  0  0  0  0  0  0  0
   -5.6776   26.5321    2.1616 O   0  0  0  0  0  0  0  0  0  0  0  0
   -6.1533   26.7166    4.4972 C   0  0  0  0  0  0  0  0  0  0  0  0
   -6.3947   27.5339    5.6054 C   0  0  0  0  0  0  0  0  0  0  0  0
   -5.5090   27.0970    1.3927 H   0  0  0  0  0  0  0  0  0  0  0  0
   -6.1280   25.3470    4.5214 O   0  0  0  0  0  0  0  0  0  0  0  0
   -4.9903   24.7261    5.1034 C   0  0  0  0  0  0  0  0  0  0  0  0
 11 12  1  0  0  0
 12 10  1  0  0  0
 10  9  1  0  0  0
  9  8  1  0  0  0
  8  7  1  0  0  0
  7  6  1  0  0  0
  6  5  1  0  0  0
  5  1  1  0  0  0
  1  2  2  0  0  0
  1  3  1  0  0  0
  3 13  1  0  0  0
 13 14  1  0  0  0
 14 15  1  0  0  0
 15 16  2  0  0  0
 16 17  1  0  0  0
 17 18  1  0  0  0
 17 19  2  0  0  0
 19 22  1  0  0  0
 22 23  1  0  0  0
 19 20  1  0  0  0
 20 14  2  0  0  0
  3  4  1  0  0  0
 18 21  1  0  0  0
M  END
> <minimizedAffinity>
-7.65908

$$$$
OCNT-1911794


 25 28  0  0  0  0  0  0  0  0999 V2000
   -4.9837   25.4712    2.7182 C   0  0  0  0  0  0  0  0  0  0  0  0
   -5.8532   26.1418    1.8146 O   0  0  0  0  0  0  0  0  0  0  0  0
   -5.6189   25.8148    0.9295 H   0  0  0  0  0  0  0  0  0  0  0  0
   -4.6888   26.3102    3.9615 C   0  0  0  0  0  0  0  0  0  0  0  0
   -3.4080   26.4965    4.5630 C   0  0  0  0  0  0  0  0  0  0  0  0
   -2.1949   25.8968    4.1344 C   0  0  0  0  0  0  0  0  0  0  0  0
   -0.9706   26.1361    4.7666 C   0  0  0  0  0  0  0  0  0  0  0  0
   -0.9368   26.9875    5.8588 C   0  0  0  0  0  0  0  0  0  0  0  0
   -2.1200   27.5822    6.3037 C   0  0  0  0  0  0  0  0  0  0  0  0
   -3.3417   27.3568    5.6866 C   0  0  0  0  0  0  0  0  0  0  0  0
   -4.4066   27.9871    6.2035 N   0  0  0  0  0  0  0  0  0  0  0  0
   -5.6020   27.7880    5.6249 C   0  0  0  0  0  0  0  0  0  0  0  0
   -5.7903   26.9799    4.5238 C   0  0  0  0  0  0  0  0  0  0  0  0
    0.0985   25.4836    4.2193 O   0  0  0  0  0  0  0  0  0  0  0  0
    1.0164   26.2687    3.4692 C   0  0  0  0  0  0  0  0  0  0  0  0
   -6.7903   22.1367    1.0991 C   0  0  0  0  0  0  0  0  0  0  0  0
   -5.3517   22.7048    0.9840 C   0  0  0  0  0  0  0  0  0  0  0  0
   -4.7211   22.9410    2.3133 N   0  0  0  0  0  0  0  0  0  0  0  0
   -4.8724   21.6843    3.0968 C   0  0  0  0  0  0  0  0  0  0  0  0
   -6.3519   21.4082    3.4294 C   0  0  0  0  0  0  0  0  0  0  0  0
   -7.2461   22.3210    2.5663 C   0  0  0  0  0  0  0  0  0  0  0  0
   -6.9763   23.7801    2.9924 C   0  0  0  0  0  0  0  0  0  0  0  0
   -5.4511   24.0192    3.0708 C   0  0  0  0  0  0  0  0  0  0  0  0
   -7.4356   23.8654   -0.6135 C   0  0  0  0  0  0  0  0  0  0  0  0
   -7.7311   22.7732    0.1034 C   0  0  0  0  0  0  0  0  0  0  0  0
 24 25  2  0  0  0
 25 16  1  0  0  0
 16 17  1  0  0  0
 17 18  1  0  0  0
 18 19  1  0  0  0
 19 20  1  0  0  0
 20 21  1  0  0  0
 21 22  1  0  0  0
 22 23  1  0  0  0
 23  1  1  0  0  0
  1  2  1  0  0  0
  1  4  1  0  0  0
  4  5  1  0  0  0
  5  6  2  0  0  0
  6  7  1  0  0  0
  7 14  1  0  0  0
 14 15  1  0  0  0
  7  8  2  0  0  0
  8  9  1  0  0  0
  9 10  2  0  0  0
 10 11  1  0  0  0
 11 12  2  0  0  0
 12 13  1  0  0  0
 21 16  1  0  0  0
 13  4  2  0  0  0
 23 18  1  0  0  0
 10  5  1  0  0  0
  2  3  1  0  0  0
M  END
> <minimizedAffinity>
-9.08410

$$$$
OCNT-1911799


 18 20  0  0  0  0  0  0  0  0999 V2000
    0.8594   29.3844    8.5024 Cl  0  0  0  0  0  0  0  0  0  0  0  0
   -0.7470   30.0248    8.6923 C   0  0  0  0  0  0  0  0  0  0  0  0
   -1.8591   29.1560    8.5311 C   0  0  0  0  0  0  0  0  0  0  0  0
   -3.1299   29.7917    8.6929 C   0  0  0  0  0  0  0  0  0  0  0  0
   -4.3387   29.2150    8.5538 N   0  0  0  0  0  0  0  0  0  0  0  0
   -5.4699   30.3823    8.8731 S   0  0  0  0  0  0  0  0  0  0  0  0
   -4.4946   31.7003    9.1333 N   0  0  0  0  0  0  0  0  0  0  0  0
   -3.2312   31.2642    9.0170 C   0  0  0  0  0  0  0  0  0  0  0  0
   -2.0754   32.0642    9.1666 C   0  0  0  0  0  0  0  0  0  0  0  0
   -0.8474   31.4076    8.9914 C   0  0  0  0  0  0  0  0  0  0  0  0
   -1.6962   27.7719    8.3062 N   0  0  0  0  0  0  0  0  0  0  0  0
   -2.2065   27.2006    8.9688 H   0  0  0  0  0  0  0  0  0  0  0  0
   -1.7083   27.2688    7.0421 C   0  0  0  0  0  0  0  0  0  0  0  0
   -2.7085   27.1739    6.2139 N   0  0  0  0  0  0  0  0  0  0  0  0
   -2.1237   26.5322    5.0077 C   0  0  0  0  0  0  0  0  0  0  0  0
   -0.6061   26.5764    5.1933 C   0  0  0  0  0  0  0  0  0  0  0  0
   -0.4921   26.8142    6.6188 N   0  0  0  0  0  0  0  0  0  0  0  0
    0.2741   27.4240    6.8800 H   0  0  0  0  0  0  0  0  0  0  0  0
  1  2  1  0  0  0
  2  3  2  0  0  0
  3 11  1  0  0  0
 11 13  1  0  0  0
 13 14  2  0  0  0
 14 15  1  0  0  0
 15 16  1  0  0  0
 16 17  1  0  0  0
  3  4  1  0  0  0
  4  5  2  0  0  0
  5  6  1  0  0  0
  6  7  1  0  0  0
  7  8  2  0  0  0
  8  9  1  0  0  0
  9 10  2  0  0  0
 10  2  1  0  0  0
 17 13  1  0  0  0
  8  4  1  0  0  0
 11 12  1  0  0  0
 17 18  1  0  0  0
M  END
> <minimizedAffinity>
-7.56525

$$$$
OCNT-1911800


 25 28  0  0  0  0  0  0  0  0999 V2000
   -3.3004   31.4133    7.5779 C   0  0  0  0  0  0  0  0  0  0  0  0
   -3.2014   32.9064    7.9681 C   0  0  0  0  0  0  0  0  0  0  0  0
   -4.4702   33.4379    8.6336 C   0  0  0  0  0  0  0  0  0  0  0  0
   -5.6494   32.9196    7.9602 N   0  0  0  0  0  0  0  0  0  0  0  0
   -5.7788   31.4646    8.0893 C   0  0  0  0  0  0  0  0  0  0  0  0
   -4.4495   30.7161    8.3416 C   0  0  0  0  0  0  0  0  0  0  0  0
   -6.4923   33.3688    8.3183 H   0  0  0  0  0  0  0  0  0  0  0  0
    1.7393   28.9185    8.1932 F   0  0  0  0  0  0  0  0  0  0  0  0
    0.5452   29.5062    8.0421 C   0  0  0  0  0  0  0  0  0  0  0  0
   -0.0760   29.4851    6.8003 C   0  0  0  0  0  0  0  0  0  0  0  0
   -1.3207   30.0969    6.6417 C   0  0  0  0  0  0  0  0  0  0  0  0
   -1.9451   30.7371    7.7261 C   0  0  0  0  0  0  0  0  0  0  0  0
   -1.2996   30.7387    8.9742 C   0  0  0  0  0  0  0  0  0  0  0  0
   -0.0553   30.1256    9.1304 C   0  0  0  0  0  0  0  0  0  0  0  0
   -4.6013   29.2316    7.9640 C   0  0  0  0  0  0  0  0  0  0  0  0
   -5.6659   29.1073    7.0172 O   0  0  0  0  0  0  0  0  0  0  0  0
   -5.3957   28.4346    5.8562 C   0  0  0  0  0  0  0  0  0  0  0  0
   -4.1728   27.7531    5.8541 C   0  0  0  0  0  0  0  0  0  0  0  0
   -3.8208   27.0491    4.7227 C   0  0  0  0  0  0  0  0  0  0  0  0
   -4.6344   27.0066    3.6167 C   0  0  0  0  0  0  0  0  0  0  0  0
   -5.8427   27.6665    3.5833 C   0  0  0  0  0  0  0  0  0  0  0  0
   -6.2259   28.3900    4.7202 C   0  0  0  0  0  0  0  0  0  0  0  0
   -4.1062   26.2608    2.6106 O   0  0  0  0  0  0  0  0  0  0  0  0
   -2.8638   25.8383    3.2107 C   0  0  0  0  0  0  0  0  0  0  0  0
   -2.6763   26.3346    4.5524 O   0  0  0  0  0  0  0  0  0  0  0  0
  8  9  1  0  0  0
  9 10  1  0  0  0
 10 11  2  0  0  0
 11 12  1  0  0  0
 12  1  1  0  0  0
  1  2  1  0  0  0
  2  3  1  0  0  0
  3  4  1  0  0  0
  4  5  1  0  0  0
  5  6  1  0  0  0
  6 15  1  0  0  0
 15 16  1  0  0  0
 16 17  1  0  0  0
 17 18  2  0  0  0
 18 19  1  0  0  0
 19 20  2  0  0  0
 20 21  1  0  0  0
 21 22  2  0  0  0
 20 23  1  0  0  0
 23 24  1  0  0  0
 24 25  1  0  0  0
 12 13  2  0  0  0
 13 14  1  0  0  0
 14  9  2  0  0  0
  6  1  1  0  0  0
 22 17  1  0  0  0
 25 19  1  0  0  0
  4  7  1  0  0  0
M  END
> <minimizedAffinity>
-9.08041

$$$$
OCNT-1965934


 22 23  0  0  0  0  0  0  0  0999 V2000
   -2.4511   27.8011    6.8149 C   0  0  0  0  0  0  0  0  0  0  0  0
   -2.2865   26.7616    7.4569 O   0  0  0  0  0  0  0  0  0  0  0  0
   -3.2807   27.9468    5.7043 N   0  0  0  0  0  0  0  0  0  0  0  0
   -3.7185   28.8589    5.6483 H   0  0  0  0  0  0  0  0  0  0  0  0
   -3.8889   26.9108    4.9531 C   0  0  0  0  0  0  0  0  0  0  0  0
   -5.3077   26.8659    4.9393 C   0  0  0  0  0  0  0  0  0  0  0  0
   -6.1622   27.8427    5.7093 C   0  0  0  0  0  0  0  0  0  0  0  0
   -5.9660   25.8489    4.2280 C   0  0  0  0  0  0  0  0  0  0  0  0
   -5.2462   24.8919    3.5221 C   0  0  0  0  0  0  0  0  0  0  0  0
   -3.8575   24.9575    3.4959 C   0  0  0  0  0  0  0  0  0  0  0  0
   -3.1616   25.9756    4.1748 C   0  0  0  0  0  0  0  0  0  0  0  0
   -1.6667   26.0021    3.9751 C   0  0  0  0  0  0  0  0  0  0  0  0
   -2.6264   30.3017    7.2081 N   0  0  0  0  0  0  0  0  0  0  0  0
   -1.8403   31.5004    7.5546 C   0  0  0  0  0  0  0  0  0  0  0  0
   -1.0508   31.3746    8.8653 C   0  0  0  0  0  0  0  0  0  0  0  0
   -0.1319   30.1544    8.8477 C   0  0  0  0  0  0  0  0  0  0  0  0
   -0.9092   28.9001    8.4714 C   0  0  0  0  0  0  0  0  0  0  0  0
   -1.7191   29.1129    7.1768 C   0  0  0  0  0  0  0  0  0  0  0  0
   -3.7841   30.1540    8.1148 C   0  0  0  0  0  0  0  0  0  0  0  0
   -4.8728   31.2165    7.8662 C   0  0  0  0  0  0  0  0  0  0  0  0
   -4.5212   33.3879    9.1947 C   0  0  0  0  0  0  0  0  0  0  0  0
   -5.2419   32.0489    9.0983 C   0  0  0  0  0  0  0  0  0  0  0  0
 21 22  1  0  0  0
 22 20  1  0  0  0
 20 19  1  0  0  0
 19 13  1  0  0  0
 13 14  1  0  0  0
 14 15  1  0  0  0
 15 16  1  0  0  0
 16 17  1  0  0  0
 17 18  1  0  0  0
 18  1  1  0  0  0
  1  2  2  0  0  0
  1  3  1  0  0  0
  3  5  1  0  0  0
  5  6  2  0  0  0
  6  7  1  0  0  0
  6  8  1  0  0  0
  8  9  2  0  0  0
  9 10  1  0  0  0
 10 11  2  0  0  0
 11 12  1  0  0  0
 18 13  1  0  0  0
 11  5  1  0  0  0
  3  4  1  0  0  0
M  END
> <minimizedAffinity>
-8.02235

$$$$
OCNT-2077048


 24 24  0  0  0  0  0  0  0  0999 V2000
   -4.8484   26.5356    4.2247 C   0  0  0  0  0  0  0  0  0  0  0  0
   -3.6916   26.2070    4.7271 N   0  0  0  0  0  0  0  0  0  0  0  0
   -5.4982   25.5864    3.2602 C   0  0  0  0  0  0  0  0  0  0  0  0
   -5.4840   25.8974    1.8934 C   0  0  0  0  0  0  0  0  0  0  0  0
   -6.0758   25.0407    0.9600 C   0  0  0  0  0  0  0  0  0  0  0  0
   -6.6961   23.8549    1.3758 C   0  0  0  0  0  0  0  0  0  0  0  0
   -6.6949   23.5372    2.7422 C   0  0  0  0  0  0  0  0  0  0  0  0
   -6.1029   24.3950    3.6770 C   0  0  0  0  0  0  0  0  0  0  0  0
   -7.3161   22.9127    0.3720 C   0  0  0  0  0  0  0  0  0  0  0  0
   -6.3912   22.3037   -0.4220 F   0  0  0  0  0  0  0  0  0  0  0  0
   -8.0316   21.9059    0.9472 F   0  0  0  0  0  0  0  0  0  0  0  0
   -8.1742   23.5479   -0.4725 F   0  0  0  0  0  0  0  0  0  0  0  0
   -5.5643   27.8395    4.5698 C   0  0  0  0  0  0  0  0  0  0  0  0
   -6.5879   27.6303    5.6858 C   0  0  0  0  0  0  0  0  0  0  0  0
   -6.9026   28.9474    6.3992 C   0  0  0  0  0  0  0  0  0  0  0  0
   -6.3032   29.0100    7.8045 C   0  0  0  0  0  0  0  0  0  0  0  0
   -4.3591   30.2485    7.2099 C   0  0  0  0  0  0  0  0  0  0  0  0
   -4.8794   29.0680    7.8052 O   0  0  0  0  0  0  0  0  0  0  0  0
   -3.2077   27.1799    5.6121 O   0  0  0  0  0  0  0  0  0  0  0  0
   -1.8299   26.9089    5.8783 C   0  0  0  0  0  0  0  0  0  0  0  0
   -1.4741   27.5211    7.2341 C   0  0  0  0  0  0  0  0  0  0  0  0
   -2.4681   27.2316    8.2682 N   0  0  0  0  0  0  0  0  0  0  0  0
   -2.5158   26.2246    8.4229 H   0  0  0  0  0  0  0  0  0  0  0  0
   -2.1622   27.6405    9.1505 H   0  0  0  0  0  0  0  0  0  0  0  0
 17 18  1  0  0  0
 18 16  1  0  0  0
 16 15  1  0  0  0
 15 14  1  0  0  0
 14 13  1  0  0  0
 13  1  1  0  0  0
  1  2  2  0  0  0
  2 19  1  0  0  0
 19 20  1  0  0  0
 20 21  1  0  0  0
 21 22  1  0  0  0
  1  3  1  0  0  0
  3  4  1  0  0  0
  4  5  2  0  0  0
  5  6  1  0  0  0
  6  9  1  0  0  0
  9 10  1  0  0  0
  9 11  1  0  0  0
  9 12  1  0  0  0
  6  7  2  0  0  0
  7  8  1  0  0  0
  8  3  2  0  0  0
 22 23  1  0  0  0
 22 24  1  0  0  0
M  END
> <minimizedAffinity>
-7.07376

$$$$
OCNT-2127780


 19 20  0  0  0  0  0  0  0  0999 V2000
   -5.1304   25.0089    2.9171 C   0  0  0  0  0  0  0  0  0  0  0  0
   -5.6103   26.2779    3.6034 C   0  0  0  0  0  0  0  0  0  0  0  0
   -5.6080   27.5013    2.9133 C   0  0  0  0  0  0  0  0  0  0  0  0
   -6.0390   28.6728    3.5394 C   0  0  0  0  0  0  0  0  0  0  0  0
   -6.4742   28.6382    4.8625 C   0  0  0  0  0  0  0  0  0  0  0  0
   -6.4790   27.4335    5.5618 C   0  0  0  0  0  0  0  0  0  0  0  0
   -6.0490   26.2616    4.9374 C   0  0  0  0  0  0  0  0  0  0  0  0
   -6.0116   24.6082    1.7408 C   0  0  0  0  0  0  0  0  0  0  0  0
   -5.9701   25.3558    0.5512 C   0  0  0  0  0  0  0  0  0  0  0  0
   -6.7608   25.0012   -0.5439 C   0  0  0  0  0  0  0  0  0  0  0  0
   -7.6008   23.8927   -0.4681 C   0  0  0  0  0  0  0  0  0  0  0  0
   -7.6487   23.1361    0.7004 C   0  0  0  0  0  0  0  0  0  0  0  0
   -6.8582   23.4892    1.7958 C   0  0  0  0  0  0  0  0  0  0  0  0
   -3.7763   25.2091    2.4782 O   0  0  0  0  0  0  0  0  0  0  0  0
   -2.7939   24.9446    3.4820 C   0  0  0  0  0  0  0  0  0  0  0  0
   -1.9422   26.1924    3.7905 C   0  0  0  0  0  0  0  0  0  0  0  0
   -0.7646   26.7246    5.8581 C   0  0  0  0  0  0  0  0  0  0  0  0
   -0.7218   26.0007    4.5906 N   0  0  0  0  0  0  0  0  0  0  0  0
    0.4956   26.3123    3.8483 C   0  0  0  0  0  0  0  0  0  0  0  0
 17 18  1  0  0  0
 18 19  1  0  0  0
 18 16  1  0  0  0
 16 15  1  0  0  0
 15 14  1  0  0  0
 14  1  1  0  0  0
  1  2  1  0  0  0
  2  3  2  0  0  0
  3  4  1  0  0  0
  4  5  2  0  0  0
  5  6  1  0  0  0
  6  7  2  0  0  0
  1  8  1  0  0  0
  8  9  2  0  0  0
  9 10  1  0  0  0
 10 11  2  0  0  0
 11 12  1  0  0  0
 12 13  2  0  0  0
  7  2  1  0  0  0
 13  8  1  0  0  0
M  END
> <minimizedAffinity>
-7.70339

$$$$
OCNT-2308466


 28 31  0  0  0  0  0  0  0  0999 V2000
    1.0051   28.9265    7.9521 O   0  0  0  0  0  0  0  0  0  0  0  0
   -0.1880   29.0618    7.7096 C   0  0  0  0  0  0  0  0  0  0  0  0
   -0.8755   28.3629    6.7411 N   0  0  0  0  0  0  0  0  0  0  0  0
   -1.8702   28.5742    6.6623 H   0  0  0  0  0  0  0  0  0  0  0  0
   -1.0363   30.0310    8.4751 C   0  0  0  0  0  0  0  0  0  0  0  0
   -0.4662   31.1509    9.0587 C   0  0  0  0  0  0  0  0  0  0  0  0
   -1.2996   32.0152    9.7588 C   0  0  0  0  0  0  0  0  0  0  0  0
   -2.6647   31.7345    9.8531 C   0  0  0  0  0  0  0  0  0  0  0  0
   -3.1633   30.5848    9.2385 C   0  0  0  0  0  0  0  0  0  0  0  0
   -2.3604   29.7306    8.5501 N   0  0  0  0  0  0  0  0  0  0  0  0
   -4.5601   30.2672    9.3186 N   0  0  0  0  0  0  0  0  0  0  0  0
   -5.6408   31.1300    9.3201 C   0  0  0  0  0  0  0  0  0  0  0  0
   -6.7765   30.3603    9.4131 C   0  0  0  0  0  0  0  0  0  0  0  0
   -6.3052   29.0421    9.4640 C   0  0  0  0  0  0  0  0  0  0  0  0
   -4.9761   28.9715    9.4088 N   0  0  0  0  0  0  0  0  0  0  0  0
   -0.2803   27.3451    5.9053 C   0  0  0  0  0  0  0  0  0  0  0  0
   -1.2710   26.2149    5.5867 C   0  0  0  0  0  0  0  0  0  0  0  0
   -1.4394   26.0237    4.0683 C   0  0  0  0  0  0  0  0  0  0  0  0
   -2.7989   25.4110    3.7426 C   0  0  0  0  0  0  0  0  0  0  0  0
   -3.9068   26.3036    4.1139 N   0  0  0  0  0  0  0  0  0  0  0  0
   -3.6422   27.0970    5.3239 C   0  0  0  0  0  0  0  0  0  0  0  0
   -2.6298   26.4529    6.2706 C   0  0  0  0  0  0  0  0  0  0  0  0
   -5.1712   25.5524    4.1810 C   0  0  0  0  0  0  0  0  0  0  0  0
   -5.6009   25.0279    2.8358 C   0  0  0  0  0  0  0  0  0  0  0  0
   -5.7364   25.7178    1.6452 C   0  0  0  0  0  0  0  0  0  0  0  0
   -6.1539   24.8791    0.5730 C   0  0  0  0  0  0  0  0  0  0  0  0
   -6.3164   23.5729    0.9759 C   0  0  0  0  0  0  0  0  0  0  0  0
   -5.9659   23.3640    2.6364 S   0  0  0  0  0  0  0  0  0  0  0  0
  1  2  2  0  0  0
  2  3  1  0  0  0
  3 16  1  0  0  0
 16 17  1  0  0  0
 17 18  1  0  0  0
 18 19  1  0  0  0
 19 20  1  0  0  0
 20 23  1  0  0  0
 23 24  1  0  0  0
 24 25  2  0  0  0
 25 26  1  0  0  0
 26 27  2  0  0  0
 27 28  1  0  0  0
 20 21  1  0  0  0
 21 22  1  0  0  0
  2  5  1  0  0  0
  5  6  1  0  0  0
  6  7  2  0  0  0
  7  8  1  0  0  0
  8  9  2  0  0  0
  9 11  1  0  0  0
 11 12  1  0  0  0
 12 13  2  0  0  0
 13 14  1  0  0  0
 14 15  2  0  0  0
  9 10  1  0  0  0
 22 17  1  0  0  0
 10  5  2  0  0  0
 28 24  1  0  0  0
 15 11  1  0  0  0
  3  4  1  0  0  0
M  END
> <minimizedAffinity>
-9.10206

$$$$
OCNT-2308478


 30 33  0  0  0  0  0  0  0  0999 V2000
   -5.6600   27.2932    5.6796 N   0  0  0  0  0  0  0  0  0  0  0  0
   -6.0618   28.5302    6.1280 C   0  0  0  0  0  0  0  0  0  0  0  0
   -6.8151   29.2479    5.4787 O   0  0  0  0  0  0  0  0  0  0  0  0
   -4.9804   26.7657    6.2066 H   0  0  0  0  0  0  0  0  0  0  0  0
   -7.0209   23.1485    5.2294 C   0  0  0  0  0  0  0  0  0  0  0  0
   -6.0187   22.4555    4.5369 C   0  0  0  0  0  0  0  0  0  0  0  0
   -5.0459   23.1472    3.8127 C   0  0  0  0  0  0  0  0  0  0  0  0
   -5.0545   24.5398    3.7744 C   0  0  0  0  0  0  0  0  0  0  0  0
   -4.0643   25.1239    3.0325 O   0  0  0  0  0  0  0  0  0  0  0  0
   -3.8935   26.5268    3.2473 C   0  0  0  0  0  0  0  0  0  0  0  0
   -5.2157   27.2732    3.2475 C   0  0  0  0  0  0  0  0  0  0  0  0
   -6.0857   26.7609    4.3952 C   0  0  0  0  0  0  0  0  0  0  0  0
   -6.0525   25.2549    4.4408 C   0  0  0  0  0  0  0  0  0  0  0  0
   -7.0262   24.5511    5.1720 C   0  0  0  0  0  0  0  0  0  0  0  0
   -7.5835   22.0096    7.4074 C   0  0  0  0  0  0  0  0  0  0  0  0
   -8.0918   22.4212    6.0235 C   0  0  0  0  0  0  0  0  0  0  0  0
   -9.3709   23.2544    6.1373 C   0  0  0  0  0  0  0  0  0  0  0  0
   -5.5203   28.9278    7.4225 C   0  0  0  0  0  0  0  0  0  0  0  0
   -6.2070   29.1675    8.6000 C   0  0  0  0  0  0  0  0  0  0  0  0
   -5.2788   29.5370    9.5256 N   0  0  0  0  0  0  0  0  0  0  0  0
   -4.0303   29.5619    9.0493 N   0  0  0  0  0  0  0  0  0  0  0  0
   -4.1535   29.1827    7.7667 C   0  0  0  0  0  0  0  0  0  0  0  0
   -5.4262   29.7916   10.4974 H   0  0  0  0  0  0  0  0  0  0  0  0
   -2.9360   29.0859    6.8686 C   0  0  0  0  0  0  0  0  0  0  0  0
   -2.0943   30.3727    6.9051 C   0  0  0  0  0  0  0  0  0  0  0  0
   -1.2202   30.4528    8.1567 C   0  0  0  0  0  0  0  0  0  0  0  0
   -0.4043   29.1762    8.3538 C   0  0  0  0  0  0  0  0  0  0  0  0
   -1.2468   27.9796    8.3944 N   0  0  0  0  0  0  0  0  0  0  0  0
   -2.0398   27.8606    7.1584 C   0  0  0  0  0  0  0  0  0  0  0  0
   -1.9356   28.1019    9.1492 H   0  0  0  0  0  0  0  0  0  0  0  0
 15 16  1  0  0  0
 16 17  1  0  0  0
 16  5  1  0  0  0
  5  6  1  0  0  0
  6  7  2  0  0  0
  7  8  1  0  0  0
  8  9  1  0  0  0
  9 10  1  0  0  0
 10 11  1  0  0  0
 11 12  1  0  0  0
 12  1  1  0  0  0
  1  2  1  0  0  0
  2  3  2  0  0  0
  2 18  1  0  0  0
 18 19  2  0  0  0
 19 20  1  0  0  0
 20 21  1  0  0  0
 21 22  2  0  0  0
 22 24  1  0  0  0
 24 25  1  0  0  0
 25 26  1  0  0  0
 26 27  1  0  0  0
 27 28  1  0  0  0
 28 29  1  0  0  0
 12 13  1  0  0  0
 13 14  1  0  0  0
 14  5  2  0  0  0
 13  8  2  0  0  0
 22 18  1  0  0  0
 29 24  1  0  0  0
  1  4  1  0  0  0
 20 23  1  0  0  0
 28 30  1  0  0  0
M  END
> <minimizedAffinity>
-9.71891

$$$$
OCNT-2308483


 22 25  0  0  0  0  0  0  0  0999 V2000
   -7.6646   22.6160   -0.6981 C   0  0  0  0  0  0  0  0  0  0  0  0
   -7.0279   23.5693    0.2772 C   0  0  0  0  0  0  0  0  0  0  0  0
   -6.5615   24.8013   -0.1906 C   0  0  0  0  0  0  0  0  0  0  0  0
   -5.9622   25.7035    0.6818 C   0  0  0  0  0  0  0  0  0  0  0  0
   -5.8159   25.3876    2.0387 C   0  0  0  0  0  0  0  0  0  0  0  0
   -5.1960   26.2893    2.9179 C   0  0  0  0  0  0  0  0  0  0  0  0
   -5.0435   25.9658    4.2634 C   0  0  0  0  0  0  0  0  0  0  0  0
   -5.5319   24.7359    4.6707 C   0  0  0  0  0  0  0  0  0  0  0  0
   -6.1349   23.8420    3.8493 N   0  0  0  0  0  0  0  0  0  0  0  0
   -6.2850   24.1539    2.5442 C   0  0  0  0  0  0  0  0  0  0  0  0
   -6.9103   23.2604    1.6552 C   0  0  0  0  0  0  0  0  0  0  0  0
   -7.4023   21.9309    2.1789 C   0  0  0  0  0  0  0  0  0  0  0  0
   -4.3992   26.8691    5.1980 C   0  0  0  0  0  0  0  0  0  0  0  0
   -5.0880   27.8355    5.9049 C   0  0  0  0  0  0  0  0  0  0  0  0
   -4.1958   28.4925    6.7110 N   0  0  0  0  0  0  0  0  0  0  0  0
   -2.9329   27.9775    6.5386 C   0  0  0  0  0  0  0  0  0  0  0  0
   -1.7284   28.3278    7.1354 C   0  0  0  0  0  0  0  0  0  0  0  0
   -0.6028   27.6654    6.7872 N   0  0  0  0  0  0  0  0  0  0  0  0
   -0.6810   26.6825    5.8642 C   0  0  0  0  0  0  0  0  0  0  0  0
   -1.8484   26.2813    5.2317 C   0  0  0  0  0  0  0  0  0  0  0  0
   -3.0255   26.9567    5.5916 C   0  0  0  0  0  0  0  0  0  0  0  0
   -4.4288   29.2458    7.3439 H   0  0  0  0  0  0  0  0  0  0  0  0
  1  2  1  0  0  0
  2  3  2  0  0  0
  3  4  1  0  0  0
  4  5  2  0  0  0
  5  6  1  0  0  0
  6  7  2  0  0  0
  7 13  1  0  0  0
 13 14  2  0  0  0
 14 15  1  0  0  0
 15 16  1  0  0  0
 16 17  2  0  0  0
 17 18  1  0  0  0
 18 19  2  0  0  0
 19 20  1  0  0  0
 20 21  2  0  0  0
  7  8  1  0  0  0
  8  9  2  0  0  0
  9 10  1  0  0  0
 10 11  2  0  0  0
 11 12  1  0  0  0
 11  2  1  0  0  0
 10  5  1  0  0  0
 21 13  1  0  0  0
 21 16  1  0  0  0
 15 22  1  0  0  0
M  END
> <minimizedAffinity>
-9.29183

$$$$
OCNT-2308499


 21 23  0  0  0  0  0  0  0  0999 V2000
   -5.8785   30.3282    7.1991 C   0  0  0  0  0  0  0  0  0  0  0  0
   -4.5364   30.6045    6.4973 C   0  0  0  0  0  0  0  0  0  0  0  0
   -3.8855   29.9495    7.6027 N   0  0  0  0  0  0  0  0  0  0  0  0
   -5.0900   29.2513    7.9682 C   0  0  0  0  0  0  0  0  0  0  0  0
   -2.5426   29.4917    7.6438 C   0  0  0  0  0  0  0  0  0  0  0  0
   -2.1489   28.4838    6.7364 C   0  0  0  0  0  0  0  0  0  0  0  0
   -0.8423   27.9895    6.7137 C   0  0  0  0  0  0  0  0  0  0  0  0
   -0.3728   26.6323    5.4854 Br  0  0  0  0  0  0  0  0  0  0  0  0
    0.1119   28.4897    7.5843 C   0  0  0  0  0  0  0  0  0  0  0  0
   -0.2536   29.4950    8.4705 C   0  0  0  0  0  0  0  0  0  0  0  0
    0.6870   29.9766    9.2976 F   0  0  0  0  0  0  0  0  0  0  0  0
   -1.5574   30.0078    8.5118 C   0  0  0  0  0  0  0  0  0  0  0  0
   -1.8108   31.0626    9.4452 C   0  0  0  0  0  0  0  0  0  0  0  0
   -2.0115   31.9152   10.2080 N   0  0  0  0  0  0  0  0  0  0  0  0
   -6.9645   29.8354    6.3870 O   0  0  0  0  0  0  0  0  0  0  0  0
   -5.7084   26.3501    3.2934 C   0  0  0  0  0  0  0  0  0  0  0  0
   -6.0162   27.6326    3.8781 N   0  0  0  0  0  0  0  0  0  0  0  0
   -6.3991   27.8773    5.1642 C   0  0  0  0  0  0  0  0  0  0  0  0
   -6.5801   29.2343    5.2463 C   0  0  0  0  0  0  0  0  0  0  0  0
   -6.2901   29.7230    3.9577 C   0  0  0  0  0  0  0  0  0  0  0  0
   -5.9333   28.7444    3.1193 N   0  0  0  0  0  0  0  0  0  0  0  0
 16 17  1  0  0  0
 17 18  1  0  0  0
 18 19  2  0  0  0
 19 15  1  0  0  0
 15  1  1  0  0  0
  1  2  1  0  0  0
  2  3  1  0  0  0
  3  5  1  0  0  0
  5  6  1  0  0  0
  6  7  2  0  0  0
  7  8  1  0  0  0
  7  9  1  0  0  0
  9 10  2  0  0  0
 10 11  1  0  0  0
 10 12  1  0  0  0
 12 13  1  0  0  0
 13 14  3  0  0  0
  3  4  1  0  0  0
 19 20  1  0  0  0
 20 21  2  0  0  0
 21 17  1  0  0  0
  4  1  1  0  0  0
 12  5  2  0  0  0
M  END
> <minimizedAffinity>
-7.59361

$$$$
OCNT-2308519


 23 27  0  0  0  0  0  0  0  0999 V2000
   -5.3681   22.7686    5.2116 O   0  0  0  0  0  0  0  0  0  0  0  0
   -5.5754   23.2953    4.1209 C   0  0  0  0  0  0  0  0  0  0  0  0
   -4.9330   24.5134    3.7390 C   0  0  0  0  0  0  0  0  0  0  0  0
   -4.0436   25.3227    4.4081 C   0  0  0  0  0  0  0  0  0  0  0  0
   -3.6887   26.3986    3.6353 N   0  0  0  0  0  0  0  0  0  0  0  0
   -4.3542   26.2423    2.5100 C   0  0  0  0  0  0  0  0  0  0  0  0
   -5.1251   25.1091    2.5257 N   0  0  0  0  0  0  0  0  0  0  0  0
   -5.9784   24.5685    1.5522 C   0  0  0  0  0  0  0  0  0  0  0  0
   -6.1502   25.2005    0.3129 C   0  0  0  0  0  0  0  0  0  0  0  0
   -7.0063   24.6373   -0.6286 C   0  0  0  0  0  0  0  0  0  0  0  0
   -7.6827   23.4588   -0.3313 C   0  0  0  0  0  0  0  0  0  0  0  0
   -7.5069   22.8337    0.9092 C   0  0  0  0  0  0  0  0  0  0  0  0
   -6.6486   23.3706    1.8779 C   0  0  0  0  0  0  0  0  0  0  0  0
   -6.4477   22.7498    3.1609 N   0  0  0  0  0  0  0  0  0  0  0  0
   -7.0884   21.4824    3.5069 C   0  0  0  0  0  0  0  0  0  0  0  0
   -8.0591   21.6656    4.6400 C   0  0  0  0  0  0  0  0  0  0  0  0
   -8.9146   22.9145    4.6962 C   0  0  0  0  0  0  0  0  0  0  0  0
   -9.0705   23.7159    5.9549 C   0  0  0  0  0  0  0  0  0  0  0  0
   -9.3995   22.9506    7.2300 C   0  0  0  0  0  0  0  0  0  0  0  0
  -10.8505   22.4791    7.3281 C   0  0  0  0  0  0  0  0  0  0  0  0
  -11.4113   21.7514    6.1062 C   0  0  0  0  0  0  0  0  0  0  0  0
  -10.4023   20.8335    5.4277 C   0  0  0  0  0  0  0  0  0  0  0  0
   -9.5591   21.5693    4.4309 C   0  0  0  0  0  0  0  0  0  0  0  0
  1  2  2  0  0  0
  2  3  1  0  0  0
  3  4  2  0  0  0
  4  5  1  0  0  0
  5  6  2  0  0  0
  6  7  1  0  0  0
  7  8  1  0  0  0
  8  9  2  0  0  0
  9 10  1  0  0  0
 10 11  2  0  0  0
 11 12  1  0  0  0
 12 13  2  0  0  0
 13 14  1  0  0  0
 14 15  1  0  0  0
 15 16  1  0  0  0
 16 17  1  0  0  0
 17 18  1  0  0  0
 18 19  1  0  0  0
 19 20  1  0  0  0
 20 21  1  0  0  0
 21 22  1  0  0  0
 22 23  1  0  0  0
 14  2  1  0  0  0
 23 16  1  0  0  0
  7  3  1  0  0  0
 13  8  1  0  0  0
 23 17  1  0  0  0
M  END
> <minimizedAffinity>
-9.59580

$$$$
OCNT-2308520


 27 30  0  0  0  0  0  0  0  0999 V2000
   -5.3852   28.9988    8.3100 O   0  0  0  0  0  0  0  0  0  0  0  0
   -5.1499   30.0839    7.7973 C   0  0  0  0  0  0  0  0  0  0  0  0
   -5.9023   30.6608    6.8113 N   0  0  0  0  0  0  0  0  0  0  0  0
   -4.0920   30.8777    8.1468 N   0  0  0  0  0  0  0  0  0  0  0  0
   -5.4104   31.3164    6.2223 H   0  0  0  0  0  0  0  0  0  0  0  0
   -4.2408   31.8715    8.0431 H   0  0  0  0  0  0  0  0  0  0  0  0
   -3.2311   30.4772    9.2444 C   0  0  0  0  0  0  0  0  0  0  0  0
   -2.4866   31.6562    9.9038 C   0  0  0  0  0  0  0  0  0  0  0  0
   -1.1825   31.7954    9.2779 O   0  0  0  0  0  0  0  0  0  0  0  0
   -0.9381   30.5461    8.7683 C   0  0  0  0  0  0  0  0  0  0  0  0
    0.2882   30.1276    8.2958 C   0  0  0  0  0  0  0  0  0  0  0  0
    0.3844   28.8287    7.7915 C   0  0  0  0  0  0  0  0  0  0  0  0
   -0.7417   27.9887    7.7613 C   0  0  0  0  0  0  0  0  0  0  0  0
   -1.9783   28.4381    8.2323 C   0  0  0  0  0  0  0  0  0  0  0  0
   -2.0563   29.7252    8.7378 C   0  0  0  0  0  0  0  0  0  0  0  0
   -7.0238   29.9628    6.2220 C   0  0  0  0  0  0  0  0  0  0  0  0
   -6.5718   28.8987    5.2638 C   0  0  0  0  0  0  0  0  0  0  0  0
   -6.2022   29.2058    3.9526 C   0  0  0  0  0  0  0  0  0  0  0  0
   -5.8040   28.1919    3.0808 C   0  0  0  0  0  0  0  0  0  0  0  0
   -5.7893   26.8810    3.5469 C   0  0  0  0  0  0  0  0  0  0  0  0
   -6.1488   26.5566    4.8167 N   0  0  0  0  0  0  0  0  0  0  0  0
   -6.5280   27.5626    5.6374 C   0  0  0  0  0  0  0  0  0  0  0  0
   -5.3923   25.8165    2.6921 N   0  0  0  0  0  0  0  0  0  0  0  0
   -5.8233   25.5173    1.4178 C   0  0  0  0  0  0  0  0  0  0  0  0
   -5.1287   24.3907    1.0418 C   0  0  0  0  0  0  0  0  0  0  0  0
   -4.2851   23.9827    2.0358 N   0  0  0  0  0  0  0  0  0  0  0  0
   -4.4615   24.8513    3.0083 C   0  0  0  0  0  0  0  0  0  0  0  0
  1  2  2  0  0  0
  2  3  1  0  0  0
  3 16  1  0  0  0
 16 17  1  0  0  0
 17 18  2  0  0  0
 18 19  1  0  0  0
 19 20  2  0  0  0
 20 23  1  0  0  0
 23 24  1  0  0  0
 24 25  2  0  0  0
 25 26  1  0  0  0
 26 27  2  0  0  0
 20 21  1  0  0  0
 21 22  2  0  0  0
  2  4  1  0  0  0
  4  7  1  0  0  0
  7  8  1  0  0  0
  8  9  1  0  0  0
  9 10  1  0  0  0
 10 11  2  0  0  0
 11 12  1  0  0  0
 12 13  2  0  0  0
 13 14  1  0  0  0
 14 15  2  0  0  0
 22 17  1  0  0  0
 15  7  1  0  0  0
 27 23  1  0  0  0
 15 10  1  0  0  0
  3  5  1  0  0  0
  4  6  1  0  0  0
M  END
> <minimizedAffinity>
-9.33836

$$$$
OCNT-2308523


 28 30  0  0  0  0  0  0  0  0999 V2000
   -5.0785   28.7332    5.4940 C   0  0  0  0  0  0  0  0  0  0  0  0
   -5.8013   29.6430    4.7081 C   0  0  0  0  0  0  0  0  0  0  0  0
   -6.1859   29.3195    3.4040 C   0  0  0  0  0  0  0  0  0  0  0  0
   -5.8524   28.0780    2.8697 C   0  0  0  0  0  0  0  0  0  0  0  0
   -5.1337   27.1630    3.6475 C   0  0  0  0  0  0  0  0  0  0  0  0
   -4.7593   27.4835    4.9597 C   0  0  0  0  0  0  0  0  0  0  0  0
   -5.5680   29.1710    7.9174 C   0  0  0  0  0  0  0  0  0  0  0  0
   -6.7051   28.7076    7.9541 O   0  0  0  0  0  0  0  0  0  0  0  0
   -4.7381   29.1449    6.8002 N   0  0  0  0  0  0  0  0  0  0  0  0
   -3.7661   29.3812    6.9469 H   0  0  0  0  0  0  0  0  0  0  0  0
   -3.1355   31.2852    8.1495 N   0  0  0  0  0  0  0  0  0  0  0  0
   -3.8557   32.4102    8.7857 C   0  0  0  0  0  0  0  0  0  0  0  0
   -5.3431   32.0886    8.9864 C   0  0  0  0  0  0  0  0  0  0  0  0
   -5.5205   30.9036    9.7736 O   0  0  0  0  0  0  0  0  0  0  0  0
   -4.8773   29.7734    9.1768 C   0  0  0  0  0  0  0  0  0  0  0  0
   -3.3729   30.0634    8.9456 C   0  0  0  0  0  0  0  0  0  0  0  0
   -0.8355   30.8718    9.0219 C   0  0  0  0  0  0  0  0  0  0  0  0
   -1.7086   31.6095    8.0129 C   0  0  0  0  0  0  0  0  0  0  0  0
   -4.7866   25.8220    3.1094 C   0  0  0  0  0  0  0  0  0  0  0  0
   -3.6219   25.5948    2.8117 O   0  0  0  0  0  0  0  0  0  0  0  0
   -5.8647   24.9630    2.9898 N   0  0  0  0  0  0  0  0  0  0  0  0
   -6.7793   25.3513    3.1816 H   0  0  0  0  0  0  0  0  0  0  0  0
   -5.8402   23.6235    2.5451 C   0  0  0  0  0  0  0  0  0  0  0  0
   -5.4447   22.5496    3.3357 C   0  0  0  0  0  0  0  0  0  0  0  0
   -5.4717   21.2781    2.7841 C   0  0  0  0  0  0  0  0  0  0  0  0
   -5.8630   21.0110    1.5199 N   0  0  0  0  0  0  0  0  0  0  0  0
   -6.2409   22.0670    0.7732 C   0  0  0  0  0  0  0  0  0  0  0  0
   -6.2482   23.3742    1.2340 C   0  0  0  0  0  0  0  0  0  0  0  0
 17 18  1  0  0  0
 18 11  1  0  0  0
 11 12  1  0  0  0
 12 13  1  0  0  0
 13 14  1  0  0  0
 14 15  1  0  0  0
 15  7  1  0  0  0
  7  8  2  0  0  0
  7  9  1  0  0  0
  9  1  1  0  0  0
  1  2  2  0  0  0
  2  3  1  0  0  0
  3  4  2  0  0  0
  4  5  1  0  0  0
  5 19  1  0  0  0
 19 20  2  0  0  0
 19 21  1  0  0  0
 21 23  1  0  0  0
 23 24  2  0  0  0
 24 25  1  0  0  0
 25 26  2  0  0  0
 26 27  1  0  0  0
 27 28  2  0  0  0
  5  6  2  0  0  0
 15 16  1  0  0  0
 16 11  1  0  0  0
  6  1  1  0  0  0
 28 23  1  0  0  0
  9 10  1  0  0  0
 21 22  1  0  0  0
M  END
> <minimizedAffinity>
-9.02177

$$$$
OCNT-2308526


 27 29  0  0  0  0  0  0  0  0999 V2000
   -4.2876   31.4168    6.1081 C   0  0  0  0  0  0  0  0  0  0  0  0
   -3.6690   31.6167    7.4790 C   0  0  0  0  0  0  0  0  0  0  0  0
   -4.0682   32.7594    8.2077 C   0  0  0  0  0  0  0  0  0  0  0  0
   -3.6038   32.9886    9.4988 C   0  0  0  0  0  0  0  0  0  0  0  0
   -2.7361   32.0778   10.0819 C   0  0  0  0  0  0  0  0  0  0  0  0
   -2.3247   30.9478    9.3684 C   0  0  0  0  0  0  0  0  0  0  0  0
   -2.7607   30.6935    8.0543 C   0  0  0  0  0  0  0  0  0  0  0  0
   -2.3110   29.5749    7.3442 N   0  0  0  0  0  0  0  0  0  0  0  0
   -1.0022   29.7471    6.6646 C   0  0  0  0  0  0  0  0  0  0  0  0
   -0.0541   28.5501    6.9189 C   0  0  0  0  0  0  0  0  0  0  0  0
   -0.6087   27.2102    6.6186 N   0  0  0  0  0  0  0  0  0  0  0  0
   -0.2860   26.7866    5.2587 C   0  0  0  0  0  0  0  0  0  0  0  0
   -2.0754   27.1769    6.8357 C   0  0  0  0  0  0  0  0  0  0  0  0
   -2.5715   28.2207    7.8616 C   0  0  0  0  0  0  0  0  0  0  0  0
   -5.4299   30.4968    6.1648 N   0  0  0  0  0  0  0  0  0  0  0  0
   -5.5787   30.2133    7.1311 H   0  0  0  0  0  0  0  0  0  0  0  0
   -5.5131   26.9974    3.6780 C   0  0  0  0  0  0  0  0  0  0  0  0
   -4.0839   26.9766    3.8458 O   0  0  0  0  0  0  0  0  0  0  0  0
   -5.9071   28.3512    3.0421 C   0  0  0  0  0  0  0  0  0  0  0  0
   -6.1153   29.4849    4.0591 C   0  0  0  0  0  0  0  0  0  0  0  0
   -5.2458   29.3198    5.3086 C   0  0  0  0  0  0  0  0  0  0  0  0
   -5.5917   28.0064    6.0347 C   0  0  0  0  0  0  0  0  0  0  0  0
   -6.0961   26.8976    5.0983 C   0  0  0  0  0  0  0  0  0  0  0  0
   -3.6664   27.1946    2.9961 H   0  0  0  0  0  0  0  0  0  0  0  0
   -4.8453   25.4034    1.7394 C   0  0  0  0  0  0  0  0  0  0  0  0
   -5.8909   25.7620    2.8018 C   0  0  0  0  0  0  0  0  0  0  0  0
   -6.2073   24.5100    3.6342 C   0  0  0  0  0  0  0  0  0  0  0  0
 25 26  1  0  0  0
 26 27  1  0  0  0
 26 17  1  0  0  0
 17 18  1  0  0  0
 17 19  1  0  0  0
 19 20  1  0  0  0
 20 21  1  0  0  0
 21 15  1  0  0  0
 15  1  1  0  0  0
  1  2  1  0  0  0
  2  3  2  0  0  0
  3  4  1  0  0  0
  4  5  2  0  0  0
  5  6  1  0  0  0
  6  7  2  0  0  0
  7  8  1  0  0  0
  8  9  1  0  0  0
  9 10  1  0  0  0
 10 11  1  0  0  0
 11 12  1  0  0  0
 11 13  1  0  0  0
 13 14  1  0  0  0
 21 22  1  0  0  0
 22 23  1  0  0  0
 23 17  1  0  0  0
  7  2  1  0  0  0
 14  8  1  0  0  0
 18 24  1  0  0  0
 15 16  1  0  0  0
M  END
> <minimizedAffinity>
-9.27179

$$$$
OCNT-2308537


 26 30  0  0  0  0  0  0  0  0999 V2000
   -4.5844   24.5341    4.0505 C   0  0  0  0  0  0  0  0  0  0  0  0
   -4.0435   24.0703    2.6831 C   0  0  0  0  0  0  0  0  0  0  0  0
   -4.6408   24.8144    1.4816 C   0  0  0  0  0  0  0  0  0  0  0  0
   -5.6382   25.8914    1.8961 C   0  0  0  0  0  0  0  0  0  0  0  0
   -5.0710   26.7521    3.0293 C   0  0  0  0  0  0  0  0  0  0  0  0
   -4.5574   26.0076    4.1956 N   0  0  0  0  0  0  0  0  0  0  0  0
   -9.9772   22.4853    5.6229 C   0  0  0  0  0  0  0  0  0  0  0  0
   -9.6239   21.4569    4.7230 C   0  0  0  0  0  0  0  0  0  0  0  0
   -8.3917   21.4575    4.0521 C   0  0  0  0  0  0  0  0  0  0  0  0
   -7.5632   22.5429    4.3353 C   0  0  0  0  0  0  0  0  0  0  0  0
   -6.3244   22.7866    3.8224 O   0  0  0  0  0  0  0  0  0  0  0  0
   -5.9511   23.9769    4.4062 C   0  0  0  0  0  0  0  0  0  0  0  0
   -6.8349   24.4666    5.2616 N   0  0  0  0  0  0  0  0  0  0  0  0
   -7.8721   23.5727    5.2129 C   0  0  0  0  0  0  0  0  0  0  0  0
   -9.1034   23.5470    5.8799 C   0  0  0  0  0  0  0  0  0  0  0  0
   -3.2361   26.4945    4.6276 C   0  0  0  0  0  0  0  0  0  0  0  0
   -3.3146   27.4814    5.7449 C   0  0  0  0  0  0  0  0  0  0  0  0
   -4.3808   28.1744    6.0927 N   0  0  0  0  0  0  0  0  0  0  0  0
   -4.0419   28.9834    7.1477 N   0  0  0  0  0  0  0  0  0  0  0  0
   -2.7757   28.7732    7.4319 C   0  0  0  0  0  0  0  0  0  0  0  0
   -1.9841   29.4416    8.4956 C   0  0  0  0  0  0  0  0  0  0  0  0
   -0.7938   30.2190    7.9371 C   0  0  0  0  0  0  0  0  0  0  0  0
    0.3808   29.3320    7.5147 C   0  0  0  0  0  0  0  0  0  0  0  0
    0.1151   28.4331    6.3034 C   0  0  0  0  0  0  0  0  0  0  0  0
   -0.9188   27.3351    6.5578 C   0  0  0  0  0  0  0  0  0  0  0  0
   -2.2760   27.8314    6.5691 N   0  0  0  0  0  0  0  0  0  0  0  0
  7  8  2  0  0  0
  8  9  1  0  0  0
  9 10  2  0  0  0
 10 11  1  0  0  0
 11 12  1  0  0  0
 12  1  1  0  0  0
  1  2  1  0  0  0
  2  3  1  0  0  0
  3  4  1  0  0  0
  4  5  1  0  0  0
  5  6  1  0  0  0
  6 16  1  0  0  0
 16 17  1  0  0  0
 17 18  2  0  0  0
 18 19  1  0  0  0
 19 20  2  0  0  0
 20 21  1  0  0  0
 21 22  1  0  0  0
 22 23  1  0  0  0
 23 24  1  0  0  0
 24 25  1  0  0  0
 25 26  1  0  0  0
 12 13  2  0  0  0
 13 14  1  0  0  0
 14 15  2  0  0  0
 15  7  1  0  0  0
 14 10  1  0  0  0
  6  1  1  0  0  0
 26 17  1  0  0  0
 26 20  1  0  0  0
M  END
> <minimizedAffinity>
-9.73877

$$$$
OCNT-2308543


 24 26  0  0  0  0  0  0  0  0999 V2000
   -6.4204   30.8618    8.8024 C   0  0  0  0  0  0  0  0  0  0  0  0
   -5.4172   30.2170    7.9381 C   0  0  0  0  0  0  0  0  0  0  0  0
   -5.4519   29.5391    6.7369 C   0  0  0  0  0  0  0  0  0  0  0  0
   -4.1691   29.1614    6.3912 N   0  0  0  0  0  0  0  0  0  0  0  0
   -3.4206   29.5871    7.3923 C   0  0  0  0  0  0  0  0  0  0  0  0
   -4.1209   30.2470    8.3680 O   0  0  0  0  0  0  0  0  0  0  0  0
   -1.9781   29.4617    7.5851 C   0  0  0  0  0  0  0  0  0  0  0  0
   -1.1762   28.6980    6.7232 C   0  0  0  0  0  0  0  0  0  0  0  0
    0.2024   28.5966    6.9319 C   0  0  0  0  0  0  0  0  0  0  0  0
    0.7965   29.2567    8.0055 C   0  0  0  0  0  0  0  0  0  0  0  0
    0.0150   30.0188    8.8707 C   0  0  0  0  0  0  0  0  0  0  0  0
   -1.3627   30.1203    8.6608 C   0  0  0  0  0  0  0  0  0  0  0  0
   -6.5935   29.2511    5.8282 C   0  0  0  0  0  0  0  0  0  0  0  0
   -6.1781   28.8067    4.4291 C   0  0  0  0  0  0  0  0  0  0  0  0
   -5.8874   29.6078    3.5396 O   0  0  0  0  0  0  0  0  0  0  0  0
   -6.0890   27.4327    4.2199 N   0  0  0  0  0  0  0  0  0  0  0  0
   -6.4630   26.4185    5.2086 C   0  0  0  0  0  0  0  0  0  0  0  0
   -6.1796   24.9829    4.7304 C   0  0  0  0  0  0  0  0  0  0  0  0
   -4.8444   24.8427    4.1319 N   0  0  0  0  0  0  0  0  0  0  0  0
   -4.6476   25.7856    2.9941 C   0  0  0  0  0  0  0  0  0  0  0  0
   -3.2502   26.4190    3.1377 C   0  0  0  0  0  0  0  0  0  0  0  0
   -4.6825   24.9543    1.7020 C   0  0  0  0  0  0  0  0  0  0  0  0
   -5.7164   26.9206    2.8986 C   0  0  0  0  0  0  0  0  0  0  0  0
   -4.1522   25.0474    4.8537 H   0  0  0  0  0  0  0  0  0  0  0  0
  1  2  1  0  0  0
  2  3  2  0  0  0
  3 13  1  0  0  0
 13 14  1  0  0  0
 14 15  2  0  0  0
 14 16  1  0  0  0
 16 17  1  0  0  0
 17 18  1  0  0  0
 18 19  1  0  0  0
 19 20  1  0  0  0
 20 21  1  0  0  0
 20 22  1  0  0  0
 20 23  1  0  0  0
  3  4  1  0  0  0
  4  5  2  0  0  0
  5  7  1  0  0  0
  7  8  2  0  0  0
  8  9  1  0  0  0
  9 10  2  0  0  0
 10 11  1  0  0  0
 11 12  2  0  0  0
  5  6  1  0  0  0
  6  2  1  0  0  0
 23 16  1  0  0  0
 12  7  1  0  0  0
 19 24  1  0  0  0
M  END
> <minimizedAffinity>
-9.09685

$$$$
OCNT-2308546


 23 26  0  0  0  0  0  0  0  0999 V2000
   -4.0158   25.5435    3.8627 C   0  0  0  0  0  0  0  0  0  0  0  0
   -5.0902   25.7661    4.4004 O   0  0  0  0  0  0  0  0  0  0  0  0
   -3.7066   24.5664    2.9448 N   0  0  0  0  0  0  0  0  0  0  0  0
   -2.7569   24.5142    2.6033 H   0  0  0  0  0  0  0  0  0  0  0  0
   -4.5879   23.6316    2.4301 C   0  0  0  0  0  0  0  0  0  0  0  0
   -4.7443   22.3239    2.8245 C   0  0  0  0  0  0  0  0  0  0  0  0
   -5.7217   21.7565    2.0519 N   0  0  0  0  0  0  0  0  0  0  0  0
   -6.2131   22.6763    1.1546 C   0  0  0  0  0  0  0  0  0  0  0  0
   -7.2096   22.5420    0.1804 C   0  0  0  0  0  0  0  0  0  0  0  0
   -7.5061   23.6618   -0.6014 C   0  0  0  0  0  0  0  0  0  0  0  0
   -6.8322   24.8659   -0.4147 C   0  0  0  0  0  0  0  0  0  0  0  0
   -5.8379   24.9835    0.5641 C   0  0  0  0  0  0  0  0  0  0  0  0
   -5.5177   23.8682    1.3681 C   0  0  0  0  0  0  0  0  0  0  0  0
   -6.0385   20.8000    2.1273 H   0  0  0  0  0  0  0  0  0  0  0  0
   -2.2224   26.2819    5.5865 C   0  0  0  0  0  0  0  0  0  0  0  0
   -1.4806   25.7600    4.3894 C   0  0  0  0  0  0  0  0  0  0  0  0
   -2.8409   26.3889    4.2084 C   0  0  0  0  0  0  0  0  0  0  0  0
   -3.8976   28.7223    6.7279 C   0  0  0  0  0  0  0  0  0  0  0  0
   -2.4630   28.6046    6.7629 N   0  0  0  0  0  0  0  0  0  0  0  0
   -1.5965   29.5261    7.2775 C   0  0  0  0  0  0  0  0  0  0  0  0
   -0.3467   29.1382    7.1468 N   0  0  0  0  0  0  0  0  0  0  0  0
   -0.4092   27.9163    6.5270 C   0  0  0  0  0  0  0  0  0  0  0  0
   -1.7161   27.5643    6.2852 C   0  0  0  0  0  0  0  0  0  0  0  0
 18 19  1  0  0  0
 19 20  1  0  0  0
 20 21  2  0  0  0
 21 22  1  0  0  0
 22 23  2  0  0  0
 23 15  1  0  0  0
 15 16  1  0  0  0
 16 17  1  0  0  0
 17  1  1  0  0  0
  1  2  2  0  0  0
  1  3  1  0  0  0
  3  5  1  0  0  0
  5  6  2  0  0  0
  6  7  1  0  0  0
  7  8  1  0  0  0
  8  9  2  0  0  0
  9 10  1  0  0  0
 10 11  2  0  0  0
 11 12  1  0  0  0
 12 13  2  0  0  0
 23 19  1  0  0  0
 17 15  1  0  0  0
 13  5  1  0  0  0
 13  8  1  0  0  0
  3  4  1  0  0  0
  7 14  1  0  0  0
M  END
> <minimizedAffinity>
-8.58436

$$$$
OCNT-2308571


 25 27  0  0  0  0  0  0  0  0999 V2000
   -6.6108   24.1423   -0.4797 C   0  0  0  0  0  0  0  0  0  0  0  0
   -4.4314   24.9875    1.0784 O   0  0  0  0  0  0  0  0  0  0  0  0
   -5.5640   25.2772    1.4453 C   0  0  0  0  0  0  0  0  0  0  0  0
   -6.6986   24.9046    0.7557 N   0  0  0  0  0  0  0  0  0  0  0  0
   -7.6099   25.0060    1.1825 H   0  0  0  0  0  0  0  0  0  0  0  0
   -5.7670   26.0309    2.7126 C   0  0  0  0  0  0  0  0  0  0  0  0
   -5.8662   25.3031    3.9086 C   0  0  0  0  0  0  0  0  0  0  0  0
   -6.0519   25.9663    5.1231 C   0  0  0  0  0  0  0  0  0  0  0  0
   -6.1287   27.3553    5.1419 C   0  0  0  0  0  0  0  0  0  0  0  0
   -6.3085   27.9746    6.3174 F   0  0  0  0  0  0  0  0  0  0  0  0
   -6.0145   28.0872    3.9608 C   0  0  0  0  0  0  0  0  0  0  0  0
   -6.0944   29.8072    3.9849 Cl  0  0  0  0  0  0  0  0  0  0  0  0
   -5.8291   27.4304    2.7421 C   0  0  0  0  0  0  0  0  0  0  0  0
   -7.1974   22.7386   -0.3500 C   0  0  0  0  0  0  0  0  0  0  0  0
   -6.7981   22.1268    0.9345 C   0  0  0  0  0  0  0  0  0  0  0  0
   -5.8564   21.2420    1.1792 N   0  0  0  0  0  0  0  0  0  0  0  0
   -5.8865   21.0158    2.5401 N   0  0  0  0  0  0  0  0  0  0  0  0
   -6.8445   21.7786    3.0307 C   0  0  0  0  0  0  0  0  0  0  0  0
   -7.4699   22.5194    2.0590 O   0  0  0  0  0  0  0  0  0  0  0  0
   -7.3088   21.9387    4.4026 C   0  0  0  0  0  0  0  0  0  0  0  0
   -6.4174   22.0049    5.4847 C   0  0  0  0  0  0  0  0  0  0  0  0
   -6.8902   22.1580    6.7912 C   0  0  0  0  0  0  0  0  0  0  0  0
   -8.2595   22.2470    7.0322 C   0  0  0  0  0  0  0  0  0  0  0  0
   -9.1576   22.1829    5.9696 C   0  0  0  0  0  0  0  0  0  0  0  0
   -8.6849   22.0296    4.6636 C   0  0  0  0  0  0  0  0  0  0  0  0
  2  3  2  0  0  0
  3  4  1  0  0  0
  4  1  1  0  0  0
  1 14  1  0  0  0
 14 15  1  0  0  0
 15 16  2  0  0  0
 16 17  1  0  0  0
 17 18  2  0  0  0
 18 20  1  0  0  0
 20 21  2  0  0  0
 21 22  1  0  0  0
 22 23  2  0  0  0
 23 24  1  0  0  0
 24 25  2  0  0  0
 18 19  1  0  0  0
  3  6  1  0  0  0
  6  7  1  0  0  0
  7  8  2  0  0  0
  8  9  1  0  0  0
  9 10  1  0  0  0
  9 11  2  0  0  0
 11 12  1  0  0  0
 11 13  1  0  0  0
 19 15  1  0  0  0
 13  6  2  0  0  0
 25 20  1  0  0  0
  4  5  1  0  0  0
M  END
> <minimizedAffinity>
-9.23758

$$$$
OCNT-2308588


 23 25  0  0  0  0  0  0  0  0999 V2000
   -3.4864   25.7907    4.3610 C   0  0  0  0  0  0  0  0  0  0  0  0
   -2.4284   25.6932    3.5351 N   0  0  0  0  0  0  0  0  0  0  0  0
   -1.2106   25.9948    4.0220 C   0  0  0  0  0  0  0  0  0  0  0  0
   -0.9951   26.4051    5.3072 C   0  0  0  0  0  0  0  0  0  0  0  0
   -2.1306   26.4996    6.0715 C   0  0  0  0  0  0  0  0  0  0  0  0
   -3.3630   26.1872    5.6356 N   0  0  0  0  0  0  0  0  0  0  0  0
   -5.7219   24.0090    1.1887 N   0  0  0  0  0  0  0  0  0  0  0  0
   -5.8634   23.1071    2.3298 C   0  0  0  0  0  0  0  0  0  0  0  0
   -6.4832   23.6925    3.6003 C   0  0  0  0  0  0  0  0  0  0  0  0
   -5.4616   24.3825    4.5030 C   0  0  0  0  0  0  0  0  0  0  0  0
   -4.7441   25.4822    3.8784 N   0  0  0  0  0  0  0  0  0  0  0  0
   -5.1886   26.0768    2.6262 C   0  0  0  0  0  0  0  0  0  0  0  0
   -4.8653   25.1807    1.4118 C   0  0  0  0  0  0  0  0  0  0  0  0
   -7.2198   22.8305   -0.3354 C   0  0  0  0  0  0  0  0  0  0  0  0
   -6.9149   24.1714    0.3484 C   0  0  0  0  0  0  0  0  0  0  0  0
   -6.8711   25.2824   -0.7035 C   0  0  0  0  0  0  0  0  0  0  0  0
   -2.0406   26.8673    7.3991 O   0  0  0  0  0  0  0  0  0  0  0  0
   -1.7495   28.1918    7.6387 C   0  0  0  0  0  0  0  0  0  0  0  0
   -0.5944   28.6113    8.3045 C   0  0  0  0  0  0  0  0  0  0  0  0
   -0.3564   29.9742    8.4883 C   0  0  0  0  0  0  0  0  0  0  0  0
   -1.2618   30.9145    7.9957 C   0  0  0  0  0  0  0  0  0  0  0  0
   -2.4023   30.4952    7.3104 C   0  0  0  0  0  0  0  0  0  0  0  0
   -2.6428   29.1333    7.1252 C   0  0  0  0  0  0  0  0  0  0  0  0
 14 15  1  0  0  0
 15 16  1  0  0  0
 15  7  1  0  0  0
  7  8  1  0  0  0
  8  9  1  0  0  0
  9 10  1  0  0  0
 10 11  1  0  0  0
 11  1  1  0  0  0
  1  2  2  0  0  0
  2  3  1  0  0  0
  3  4  2  0  0  0
  4  5  1  0  0  0
  5 17  1  0  0  0
 17 18  1  0  0  0
 18 19  2  0  0  0
 19 20  1  0  0  0
 20 21  2  0  0  0
 21 22  1  0  0  0
 22 23  2  0  0  0
  5  6  2  0  0  0
 11 12  1  0  0  0
 12 13  1  0  0  0
 13  7  1  0  0  0
  6  1  1  0  0  0
 23 18  1  0  0  0
M  END
> <minimizedAffinity>
-8.85616

$$$$
OCNT-2308589


 24 27  0  0  0  0  0  0  0  0999 V2000
   -5.7268   27.7225    4.9369 C   0  0  0  0  0  0  0  0  0  0  0  0
   -4.4666   26.9376    4.6640 C   0  0  0  0  0  0  0  0  0  0  0  0
   -4.4292   25.9834    3.6297 C   0  0  0  0  0  0  0  0  0  0  0  0
   -5.8055   25.6624    2.6308 Cl  0  0  0  0  0  0  0  0  0  0  0  0
   -3.2668   25.2644    3.3598 C   0  0  0  0  0  0  0  0  0  0  0  0
   -2.1227   25.4995    4.1114 C   0  0  0  0  0  0  0  0  0  0  0  0
   -2.1380   26.4637    5.1285 C   0  0  0  0  0  0  0  0  0  0  0  0
   -0.9942   26.7215    5.8847 C   0  0  0  0  0  0  0  0  0  0  0  0
   -1.0299   27.6938    6.8786 C   0  0  0  0  0  0  0  0  0  0  0  0
   -2.2036   28.4042    7.1055 C   0  0  0  0  0  0  0  0  0  0  0  0
   -3.3144   28.1374    6.3843 N   0  0  0  0  0  0  0  0  0  0  0  0
   -3.3079   27.1993    5.4135 C   0  0  0  0  0  0  0  0  0  0  0  0
   -2.2513   29.3859    8.1095 N   0  0  0  0  0  0  0  0  0  0  0  0
   -0.9462   29.6954    8.7148 C   0  0  0  0  0  0  0  0  0  0  0  0
   -0.8779   31.1360    9.2287 C   0  0  0  0  0  0  0  0  0  0  0  0
   -2.1559   31.5320    9.9616 C   0  0  0  0  0  0  0  0  0  0  0  0
   -3.4125   31.3241    9.0885 C   0  0  0  0  0  0  0  0  0  0  0  0
   -3.1100   30.5346    7.7942 C   0  0  0  0  0  0  0  0  0  0  0  0
   -4.0913   32.6265    8.7756 C   0  0  0  0  0  0  0  0  0  0  0  0
   -4.3191   33.7632    9.5226 C   0  0  0  0  0  0  0  0  0  0  0  0
   -5.0003   34.6331    8.6564 C   0  0  0  0  0  0  0  0  0  0  0  0
   -5.1899   34.1019    7.4500 N   0  0  0  0  0  0  0  0  0  0  0  0
   -4.6274   32.8873    7.5444 N   0  0  0  0  0  0  0  0  0  0  0  0
   -4.6474   32.2861    6.7280 H   0  0  0  0  0  0  0  0  0  0  0  0
  1  2  1  0  0  0
  2  3  1  0  0  0
  3  4  1  0  0  0
  3  5  2  0  0  0
  5  6  1  0  0  0
  6  7  2  0  0  0
  7  8  1  0  0  0
  8  9  2  0  0  0
  9 10  1  0  0  0
 10 13  1  0  0  0
 13 14  1  0  0  0
 14 15  1  0  0  0
 15 16  1  0  0  0
 16 17  1  0  0  0
 17 19  1  0  0  0
 19 20  2  0  0  0
 20 21  1  0  0  0
 21 22  2  0  0  0
 22 23  1  0  0  0
 17 18  1  0  0  0
 10 11  2  0  0  0
 11 12  1  0  0  0
 12  2  2  0  0  0
 12  7  1  0  0  0
 18 13  1  0  0  0
 23 19  1  0  0  0
 23 24  1  0  0  0
M  END
> <minimizedAffinity>
-10.02928

$$$$
OCNT-2308599


 32 35  0  0  0  0  0  0  0  0999 V2000
   -5.2721   27.0621    5.3977 C   0  0  0  0  0  0  0  0  0  0  0  0
   -6.4716   26.3658    5.2378 C   0  0  0  0  0  0  0  0  0  0  0  0
   -6.4920   25.1637    4.5241 C   0  0  0  0  0  0  0  0  0  0  0  0
   -5.3119   24.6623    3.9630 C   0  0  0  0  0  0  0  0  0  0  0  0
   -4.1028   25.3380    4.1307 C   0  0  0  0  0  0  0  0  0  0  0  0
   -4.0903   26.5407    4.8345 C   0  0  0  0  0  0  0  0  0  0  0  0
   -5.3389   23.1066    3.0932 S   0  0  0  0  0  0  0  0  0  0  0  0
   -3.9794   22.6156    3.0502 O   0  0  0  0  0  0  0  0  0  0  0  0
   -6.4014   22.3127    3.6755 O   0  0  0  0  0  0  0  0  0  0  0  0
   -5.8184   23.5461    1.5232 N   0  0  0  0  0  0  0  0  0  0  0  0
   -5.9244   22.4824    0.5053 C   0  0  0  0  0  0  0  0  0  0  0  0
   -7.2567   22.5723   -0.2496 C   0  0  0  0  0  0  0  0  0  0  0  0
   -8.0063   23.9010   -0.1447 C   0  0  0  0  0  0  0  0  0  0  0  0
   -7.2636   25.1148   -0.6987 C   0  0  0  0  0  0  0  0  0  0  0  0
   -5.7675   25.1843   -0.4011 C   0  0  0  0  0  0  0  0  0  0  0  0
   -5.3758   24.8803    1.0449 C   0  0  0  0  0  0  0  0  0  0  0  0
   -6.2851   28.7585    6.7289 C   0  0  0  0  0  0  0  0  0  0  0  0
   -5.1279   28.2488    6.0748 O   0  0  0  0  0  0  0  0  0  0  0  0
   -2.8677   27.2611    5.0256 N   0  0  0  0  0  0  0  0  0  0  0  0
   -3.0025   28.2665    5.1569 H   0  0  0  0  0  0  0  0  0  0  0  0
   -1.7537   26.6724    6.1546 S   0  0  0  0  0  0  0  0  0  0  0  0
   -0.5510   26.3561    5.4131 O   0  0  0  0  0  0  0  0  0  0  0  0
   -2.4034   25.6818    6.9851 O   0  0  0  0  0  0  0  0  0  0  0  0
   -1.3992   28.0970    7.1600 C   0  0  0  0  0  0  0  0  0  0  0  0
   -0.0621   28.5292    7.2901 C   0  0  0  0  0  0  0  0  0  0  0  0
    0.2372   29.6483    8.0712 C   0  0  0  0  0  0  0  0  0  0  0  0
   -0.8101   30.2880    8.7011 C   0  0  0  0  0  0  0  0  0  0  0  0
   -0.7043   31.3879    9.4935 O   0  0  0  0  0  0  0  0  0  0  0  0
   -2.0817   31.5787    9.8816 C   0  0  0  0  0  0  0  0  0  0  0  0
   -2.9810   30.6200    9.2879 O   0  0  0  0  0  0  0  0  0  0  0  0
   -2.1103   29.8495    8.5837 C   0  0  0  0  0  0  0  0  0  0  0  0
   -2.4437   28.7495    7.8251 C   0  0  0  0  0  0  0  0  0  0  0  0
 17 18  1  0  0  0
 18  1  1  0  0  0
  1  2  1  0  0  0
  2  3  2  0  0  0
  3  4  1  0  0  0
  4  7  1  0  0  0
  7  8  2  0  0  0
  7  9  2  0  0  0
  7 10  1  0  0  0
 10 11  1  0  0  0
 11 12  1  0  0  0
 12 13  1  0  0  0
 13 14  1  0  0  0
 14 15  1  0  0  0
 15 16  1  0  0  0
  4  5  2  0  0  0
  5  6  1  0  0  0
  6 19  1  0  0  0
 19 21  1  0  0  0
 21 22  2  0  0  0
 21 23  2  0  0  0
 21 24  1  0  0  0
 24 25  1  0  0  0
 25 26  2  0  0  0
 26 27  1  0  0  0
 27 28  1  0  0  0
 28 29  1  0  0  0
 29 30  1  0  0  0
 30 31  1  0  0  0
 31 32  1  0  0  0
  6  1  2  0  0  0
 32 24  2  0  0  0
 16 10  1  0  0  0
 31 27  2  0  0  0
 19 20  1  0  0  0
M  END
> <minimizedAffinity>
-10.09075

$$$$
OCNT-2308603


 27 29  0  0  0  0  0  0  0  0999 V2000
   -3.7888   27.0258    4.2299 N   0  0  0  0  0  0  0  0  0  0  0  0
   -3.1082   27.2539    3.5074 H   0  0  0  0  0  0  0  0  0  0  0  0
   -4.8856   26.2155    3.6598 C   0  0  0  0  0  0  0  0  0  0  0  0
   -6.5095   26.3596    5.5369 O   0  0  0  0  0  0  0  0  0  0  0  0
   -5.7011   25.4891    4.7595 C   0  0  0  0  0  0  0  0  0  0  0  0
   -5.9935   27.1575    5.7477 H   0  0  0  0  0  0  0  0  0  0  0  0
   -4.2549   25.2131    2.6566 C   0  0  0  0  0  0  0  0  0  0  0  0
   -5.2551   24.5227    1.7548 C   0  0  0  0  0  0  0  0  0  0  0  0
   -5.4798   23.1417    1.8759 C   0  0  0  0  0  0  0  0  0  0  0  0
   -6.3995   22.5008    1.0452 C   0  0  0  0  0  0  0  0  0  0  0  0
   -7.0953   23.2384    0.0954 C   0  0  0  0  0  0  0  0  0  0  0  0
   -7.9758   22.6212   -0.7033 F   0  0  0  0  0  0  0  0  0  0  0  0
   -6.8900   24.6057   -0.0385 C   0  0  0  0  0  0  0  0  0  0  0  0
   -5.9721   25.2492    0.7927 C   0  0  0  0  0  0  0  0  0  0  0  0
   -3.1686   26.4384    5.4101 C   0  0  0  0  0  0  0  0  0  0  0  0
   -2.5132   27.5017    6.2699 C   0  0  0  0  0  0  0  0  0  0  0  0
   -1.1247   27.3243    6.4954 C   0  0  0  0  0  0  0  0  0  0  0  0
   -0.3936   28.1697    7.3296 C   0  0  0  0  0  0  0  0  0  0  0  0
   -1.0381   29.2109    7.9748 C   0  0  0  0  0  0  0  0  0  0  0  0
   -0.1497   30.2540    9.0145 Cl  0  0  0  0  0  0  0  0  0  0  0  0
   -2.4019   29.4147    7.7822 C   0  0  0  0  0  0  0  0  0  0  0  0
   -3.1586   28.5817    6.9217 C   0  0  0  0  0  0  0  0  0  0  0  0
   -4.5457   28.9074    6.8027 N   0  0  0  0  0  0  0  0  0  0  0  0
   -5.5748   28.8663    7.7122 C   0  0  0  0  0  0  0  0  0  0  0  0
   -6.6913   29.3174    7.1867 N   0  0  0  0  0  0  0  0  0  0  0  0
   -6.3301   29.5774    5.9052 C   0  0  0  0  0  0  0  0  0  0  0  0
   -5.0573   29.3238    5.6105 N   0  0  0  0  0  0  0  0  0  0  0  0
  4  5  1  0  0  0
  5  3  1  0  0  0
  3  7  1  0  0  0
  7  8  1  0  0  0
  8  9  1  0  0  0
  9 10  2  0  0  0
 10 11  1  0  0  0
 11 12  1  0  0  0
 11 13  2  0  0  0
 13 14  1  0  0  0
  3  1  1  0  0  0
  1 15  1  0  0  0
 15 16  1  0  0  0
 16 17  1  0  0  0
 17 18  2  0  0  0
 18 19  1  0  0  0
 19 20  1  0  0  0
 19 21  2  0  0  0
 21 22  1  0  0  0
 22 23  1  0  0  0
 23 24  1  0  0  0
 24 25  2  0  0  0
 25 26  1  0  0  0
 26 27  2  0  0  0
 14  8  2  0  0  0
 22 16  2  0  0  0
 27 23  1  0  0  0
  4  6  1  0  0  0
  1  2  1  0  0  0
M  END
> <minimizedAffinity>
-8.54316

$$$$
OCNT-2308609


 25 27  0  0  0  0  0  0  0  0999 V2000
   -4.3171   26.3378    3.0315 C   0  0  0  0  0  0  0  0  0  0  0  0
   -5.6031   26.8733    3.1053 C   0  0  0  0  0  0  0  0  0  0  0  0
   -6.0037   27.5798    4.2375 C   0  0  0  0  0  0  0  0  0  0  0  0
   -5.1264   27.7521    5.3089 C   0  0  0  0  0  0  0  0  0  0  0  0
   -5.7096   28.6768    6.6531 Cl  0  0  0  0  0  0  0  0  0  0  0  0
   -3.8235   27.2145    5.2728 C   0  0  0  0  0  0  0  0  0  0  0  0
   -3.4142   26.5154    4.1067 C   0  0  0  0  0  0  0  0  0  0  0  0
   -2.0364   25.8882    4.0023 C   0  0  0  0  0  0  0  0  0  0  0  0
   -1.0547   26.3101    5.0885 C   0  0  0  0  0  0  0  0  0  0  0  0
   -1.7561   26.3455    6.4361 C   0  0  0  0  0  0  0  0  0  0  0  0
   -2.8628   27.4154    6.4470 C   0  0  0  0  0  0  0  0  0  0  0  0
   -4.7753   24.8799    1.1923 C   0  0  0  0  0  0  0  0  0  0  0  0
   -3.8390   25.6197    1.9649 O   0  0  0  0  0  0  0  0  0  0  0  0
   -2.3319   28.7932    6.3871 N   0  0  0  0  0  0  0  0  0  0  0  0
   -3.1172   29.4311    6.2830 H   0  0  0  0  0  0  0  0  0  0  0  0
   -1.5397   29.1927    7.5558 C   0  0  0  0  0  0  0  0  0  0  0  0
   -2.1343   30.3082    8.3405 C   0  0  0  0  0  0  0  0  0  0  0  0
   -1.6118   30.9256    9.3786 N   0  0  0  0  0  0  0  0  0  0  0  0
   -2.5136   31.8677    9.8126 N   0  0  0  0  0  0  0  0  0  0  0  0
   -3.5733   31.8083    9.0345 C   0  0  0  0  0  0  0  0  0  0  0  0
   -3.3651   30.8484    8.0812 N   0  0  0  0  0  0  0  0  0  0  0  0
   -4.0102   30.5615    7.3607 H   0  0  0  0  0  0  0  0  0  0  0  0
   -4.8275   32.6125    9.1311 C   0  0  0  0  0  0  0  0  0  0  0  0
   -4.5842   34.0421    8.6493 C   0  0  0  0  0  0  0  0  0  0  0  0
   -5.9524   31.9564    8.3318 C   0  0  0  0  0  0  0  0  0  0  0  0
 12 13  1  0  0  0
 13  1  1  0  0  0
  1  2  1  0  0  0
  2  3  2  0  0  0
  3  4  1  0  0  0
  4  5  1  0  0  0
  4  6  2  0  0  0
  6  7  1  0  0  0
  7  8  1  0  0  0
  8  9  1  0  0  0
  9 10  1  0  0  0
 10 11  1  0  0  0
 11 14  1  0  0  0
 14 16  1  0  0  0
 16 17  1  0  0  0
 17 18  2  0  0  0
 18 19  1  0  0  0
 19 20  2  0  0  0
 20 23  1  0  0  0
 23 24  1  0  0  0
 23 25  1  0  0  0
 20 21  1  0  0  0
  7  1  2  0  0  0
 21 17  1  0  0  0
 11  6  1  0  0  0
 14 15  1  0  0  0
 21 22  1  0  0  0
M  END
> <minimizedAffinity>
-8.61082

$$$$
OCNT-2308610


 29 33  0  0  0  0  0  0  0  0999 V2000
   -2.4276   26.2229    6.5979 O   0  0  0  0  0  0  0  0  0  0  0  0
   -2.7454   27.3975    6.4115 C   0  0  0  0  0  0  0  0  0  0  0  0
   -2.1034   28.4161    7.0716 N   0  0  0  0  0  0  0  0  0  0  0  0
   -1.2925   28.2586    8.2969 C   0  0  0  0  0  0  0  0  0  0  0  0
   -1.1674   29.7866    8.2206 C   0  0  0  0  0  0  0  0  0  0  0  0
   -1.1045   30.8776    9.2651 C   0  0  0  0  0  0  0  0  0  0  0  0
   -1.7413   32.1510    8.6696 C   0  0  0  0  0  0  0  0  0  0  0  0
   -1.7920   32.1921    7.1258 C   0  0  0  0  0  0  0  0  0  0  0  0
   -2.2730   30.8940    6.4187 C   0  0  0  0  0  0  0  0  0  0  0  0
   -2.5208   29.7790    7.4443 C   0  0  0  0  0  0  0  0  0  0  0  0
   -3.9735   29.8707    8.1736 C   0  0  0  0  0  0  0  0  0  0  0  0
   -4.9617   30.8068    7.7855 C   0  0  0  0  0  0  0  0  0  0  0  0
   -6.2196   30.8864    8.3969 C   0  0  0  0  0  0  0  0  0  0  0  0
   -6.5466   30.0210    9.4296 C   0  0  0  0  0  0  0  0  0  0  0  0
   -5.6182   29.0772    9.8420 C   0  0  0  0  0  0  0  0  0  0  0  0
   -4.3641   29.0058    9.2214 C   0  0  0  0  0  0  0  0  0  0  0  0
   -3.8327   27.8078    5.4488 C   0  0  0  0  0  0  0  0  0  0  0  0
   -3.9647   26.9171    4.3118 N   0  0  0  0  0  0  0  0  0  0  0  0
   -5.0365   26.1651    3.9238 C   0  0  0  0  0  0  0  0  0  0  0  0
   -4.5640   25.4307    2.8582 C   0  0  0  0  0  0  0  0  0  0  0  0
   -3.2371   25.7216    2.6728 N   0  0  0  0  0  0  0  0  0  0  0  0
   -2.8741   26.6149    3.5820 N   0  0  0  0  0  0  0  0  0  0  0  0
   -5.2980   24.4858    2.0436 C   0  0  0  0  0  0  0  0  0  0  0  0
   -5.1656   23.1138    2.2691 C   0  0  0  0  0  0  0  0  0  0  0  0
   -5.8130   22.1490    1.5632 N   0  0  0  0  0  0  0  0  0  0  0  0
   -6.6346   22.5773    0.5787 C   0  0  0  0  0  0  0  0  0  0  0  0
   -6.8309   23.9134    0.2805 C   0  0  0  0  0  0  0  0  0  0  0  0
   -7.6643   24.2770   -0.7025 F   0  0  0  0  0  0  0  0  0  0  0  0
   -6.1588   24.8814    1.0159 C   0  0  0  0  0  0  0  0  0  0  0  0
  1  2  2  0  0  0
  2 17  1  0  0  0
 17 18  1  0  0  0
 18 19  1  0  0  0
 19 20  2  0  0  0
 20 23  1  0  0  0
 23 24  2  0  0  0
 24 25  1  0  0  0
 25 26  2  0  0  0
 26 27  1  0  0  0
 27 28  1  0  0  0
 27 29  2  0  0  0
 20 21  1  0  0  0
 21 22  2  0  0  0
  2  3  1  0  0  0
  3  4  1  0  0  0
  4  5  1  0  0  0
  5  6  1  0  0  0
  6  7  1  0  0  0
  7  8  1  0  0  0
  8  9  1  0  0  0
  9 10  1  0  0  0
 10 11  1  0  0  0
 11 12  2  0  0  0
 12 13  1  0  0  0
 13 14  2  0  0  0
 14 15  1  0  0  0
 15 16  2  0  0  0
 22 18  1  0  0  0
 10  3  1  0  0  0
 16 11  1  0  0  0
 29 23  1  0  0  0
 10  5  1  0  0  0
M  END
> <minimizedAffinity>
-10.21981

$$$$
OCNT-2308624


 24 26  0  0  0  0  0  0  0  0999 V2000
    0.3715   29.3188    6.3995 C   0  0  0  0  0  0  0  0  0  0  0  0
   -0.4398   28.8293    7.5031 N   0  0  0  0  0  0  0  0  0  0  0  0
   -1.5355   27.9691    7.3540 C   0  0  0  0  0  0  0  0  0  0  0  0
   -2.1254   27.5178    8.3429 O   0  0  0  0  0  0  0  0  0  0  0  0
   -1.9678   27.5635    5.8946 C   0  0  0  0  0  0  0  0  0  0  0  0
   -1.2991   26.2641    5.6535 N   0  0  0  0  0  0  0  0  0  0  0  0
   -1.2585   25.8741    4.2454 C   0  0  0  0  0  0  0  0  0  0  0  0
   -2.5956   25.9476    3.5175 C   0  0  0  0  0  0  0  0  0  0  0  0
   -3.6482   25.5071    4.3811 O   0  0  0  0  0  0  0  0  0  0  0  0
   -4.2169   26.5609    5.0513 C   0  0  0  0  0  0  0  0  0  0  0  0
   -5.6164   26.5842    5.0103 C   0  0  0  0  0  0  0  0  0  0  0  0
   -6.3205   27.6441    5.5729 C   0  0  0  0  0  0  0  0  0  0  0  0
   -5.6243   28.6853    6.1763 C   0  0  0  0  0  0  0  0  0  0  0  0
   -4.2293   28.6432    6.2484 C   0  0  0  0  0  0  0  0  0  0  0  0
   -3.4919   27.5573    5.7297 C   0  0  0  0  0  0  0  0  0  0  0  0
   -1.8378   25.5654    6.1764 H   0  0  0  0  0  0  0  0  0  0  0  0
   -0.1337   29.3513    8.8387 C   0  0  0  0  0  0  0  0  0  0  0  0
   -0.5115   30.8305    9.0268 C   0  0  0  0  0  0  0  0  0  0  0  0
   -1.9374   31.1868    8.6802 C   0  0  0  0  0  0  0  0  0  0  0  0
   -2.2546   31.8416    7.4854 C   0  0  0  0  0  0  0  0  0  0  0  0
   -3.5835   32.1343    7.2143 C   0  0  0  0  0  0  0  0  0  0  0  0
   -4.6086   31.8118    8.0338 N   0  0  0  0  0  0  0  0  0  0  0  0
   -4.2853   31.1666    9.1761 C   0  0  0  0  0  0  0  0  0  0  0  0
   -2.9864   30.8365    9.5379 C   0  0  0  0  0  0  0  0  0  0  0  0
  1  2  1  0  0  0
  2 17  1  0  0  0
 17 18  1  0  0  0
 18 19  1  0  0  0
 19 20  2  0  0  0
 20 21  1  0  0  0
 21 22  2  0  0  0
 22 23  1  0  0  0
 23 24  2  0  0  0
  2  3  1  0  0  0
  3  4  2  0  0  0
  3  5  1  0  0  0
  5  6  1  0  0  0
  6  7  1  0  0  0
  7  8  1  0  0  0
  8  9  1  0  0  0
  9 10  1  0  0  0
 10 11  2  0  0  0
 11 12  1  0  0  0
 12 13  2  0  0  0
 13 14  1  0  0  0
 14 15  2  0  0  0
 24 19  1  0  0  0
 15  5  1  0  0  0
 15 10  1  0  0  0
  6 16  1  0  0  0
M  END
> <minimizedAffinity>
-8.09639

$$$$
OCNT-2308630


 26 29  0  0  0  0  0  0  0  0999 V2000
   -5.6552   27.6000    3.8675 C   0  0  0  0  0  0  0  0  0  0  0  0
   -6.1961   28.2925    3.0009 O   0  0  0  0  0  0  0  0  0  0  0  0
   -5.1015   28.2139    4.9821 N   0  0  0  0  0  0  0  0  0  0  0  0
   -5.6234   29.4986    5.4491 C   0  0  0  0  0  0  0  0  0  0  0  0
   -5.2308   29.5889    6.9349 C   0  0  0  0  0  0  0  0  0  0  0  0
   -4.9784   31.0239    7.4004 C   0  0  0  0  0  0  0  0  0  0  0  0
   -5.3057   31.0489    8.8958 C   0  0  0  0  0  0  0  0  0  0  0  0
   -6.0187   29.7372    9.2158 C   0  0  0  0  0  0  0  0  0  0  0  0
   -6.3494   29.1080    7.8681 C   0  0  0  0  0  0  0  0  0  0  0  0
   -4.0260   28.6667    6.9482 C   0  0  0  0  0  0  0  0  0  0  0  0
   -3.0475   28.5452    7.9289 C   0  0  0  0  0  0  0  0  0  0  0  0
   -2.0044   27.6434    7.7303 C   0  0  0  0  0  0  0  0  0  0  0  0
   -1.9260   26.9033    6.5443 C   0  0  0  0  0  0  0  0  0  0  0  0
   -2.9034   27.0325    5.5486 C   0  0  0  0  0  0  0  0  0  0  0  0
   -2.5806   26.2594    4.0441 Cl  0  0  0  0  0  0  0  0  0  0  0  0
   -3.9852   27.8807    5.7792 C   0  0  0  0  0  0  0  0  0  0  0  0
   -5.7468   23.7721    3.1108 C   0  0  0  0  0  0  0  0  0  0  0  0
   -6.0611   23.9067    4.4496 C   0  0  0  0  0  0  0  0  0  0  0  0
   -6.0729   25.2663    4.8766 C   0  0  0  0  0  0  0  0  0  0  0  0
   -5.7387   26.1421    3.8590 C   0  0  0  0  0  0  0  0  0  0  0  0
   -5.4845   25.3007    2.3854 S   0  0  0  0  0  0  0  0  0  0  0  0
   -5.3779   21.3957    3.0790 N   0  0  0  0  0  0  0  0  0  0  0  0
   -5.6504   22.5287    2.3645 C   0  0  0  0  0  0  0  0  0  0  0  0
   -5.7990   22.4458    1.1476 O   0  0  0  0  0  0  0  0  0  0  0  0
   -5.3144   20.5206    2.5797 H   0  0  0  0  0  0  0  0  0  0  0  0
   -5.2569   21.4154    4.0818 H   0  0  0  0  0  0  0  0  0  0  0  0
 22 23  1  0  0  0
 23 24  2  0  0  0
 23 17  1  0  0  0
 17 18  2  0  0  0
 18 19  1  0  0  0
 19 20  2  0  0  0
 20  1  1  0  0  0
  1  2  2  0  0  0
  1  3  1  0  0  0
  3  4  1  0  0  0
  4  5  1  0  0  0
  5  6  1  0  0  0
  6  7  1  0  0  0
  7  8  1  0  0  0
  8  9  1  0  0  0
  5 10  1  0  0  0
 10 11  2  0  0  0
 11 12  1  0  0  0
 12 13  2  0  0  0
 13 14  1  0  0  0
 14 15  1  0  0  0
 14 16  2  0  0  0
 20 21  1  0  0  0
 21 17  1  0  0  0
 16  3  1  0  0  0
  9  5  1  0  0  0
 16 10  1  0  0  0
 22 25  1  0  0  0
 22 26  1  0  0  0
M  END
> <minimizedAffinity>
-8.91312

$$$$
OCNT-2308638


 24 27  0  0  0  0  0  0  0  0999 V2000
   -3.2149   29.9089    6.5519 O   0  0  0  0  0  0  0  0  0  0  0  0
   -4.2945   30.4874    6.4692 C   0  0  0  0  0  0  0  0  0  0  0  0
   -5.4142   30.0267    5.7993 N   0  0  0  0  0  0  0  0  0  0  0  0
   -6.2374   30.6145    5.8211 H   0  0  0  0  0  0  0  0  0  0  0  0
   -4.4804   31.8404    7.1464 C   0  0  0  0  0  0  0  0  0  0  0  0
   -3.1992   32.3628    7.8296 C   0  0  0  0  0  0  0  0  0  0  0  0
   -3.6642   33.1088    9.0437 C   0  0  0  0  0  0  0  0  0  0  0  0
   -5.1061   32.7890    9.2873 C   0  0  0  0  0  0  0  0  0  0  0  0
   -5.5775   31.8352    8.2313 C   0  0  0  0  0  0  0  0  0  0  0  0
   -4.6935   34.1779    8.9537 C   0  0  0  0  0  0  0  0  0  0  0  0
   -5.0235   34.7469    7.7477 F   0  0  0  0  0  0  0  0  0  0  0  0
   -4.7505   35.1633    9.9101 F   0  0  0  0  0  0  0  0  0  0  0  0
   -5.5513   28.8199    5.0818 C   0  0  0  0  0  0  0  0  0  0  0  0
   -5.7262   28.9159    3.6975 C   0  0  0  0  0  0  0  0  0  0  0  0
   -5.8705   27.7659    2.9107 C   0  0  0  0  0  0  0  0  0  0  0  0
   -5.8453   26.4862    3.4852 C   0  0  0  0  0  0  0  0  0  0  0  0
   -5.6690   26.4035    4.8747 C   0  0  0  0  0  0  0  0  0  0  0  0
   -5.5232   27.5541    5.6628 C   0  0  0  0  0  0  0  0  0  0  0  0
   -5.9990   25.2803    2.6648 C   0  0  0  0  0  0  0  0  0  0  0  0
   -5.8876   25.2815    1.2834 C   0  0  0  0  0  0  0  0  0  0  0  0
   -6.0216   24.1885    0.4996 N   0  0  0  0  0  0  0  0  0  0  0  0
   -6.2784   23.0416    1.1436 C   0  0  0  0  0  0  0  0  0  0  0  0
   -6.4094   22.8978    2.4698 N   0  0  0  0  0  0  0  0  0  0  0  0
   -6.2683   24.0288    3.1960 C   0  0  0  0  0  0  0  0  0  0  0  0
  1  2  2  0  0  0
  2  3  1  0  0  0
  3 13  1  0  0  0
 13 14  1  0  0  0
 14 15  2  0  0  0
 15 16  1  0  0  0
 16 19  1  0  0  0
 19 20  2  0  0  0
 20 21  1  0  0  0
 21 22  2  0  0  0
 22 23  1  0  0  0
 23 24  2  0  0  0
 16 17  2  0  0  0
 17 18  1  0  0  0
  2  5  1  0  0  0
  5  6  1  0  0  0
  6  7  1  0  0  0
  7  8  1  0  0  0
  8  9  1  0  0  0
  8 10  1  0  0  0
 10 11  1  0  0  0
 10 12  1  0  0  0
 18 13  2  0  0  0
  9  5  1  0  0  0
 24 19  1  0  0  0
 10  7  1  0  0  0
  3  4  1  0  0  0
M  END
> <minimizedAffinity>
-9.85270

$$$$
OCNT-2308640


 33 36  0  0  0  0  0  0  0  0999 V2000
   -5.3210   27.1302    4.0322 C   0  0  0  0  0  0  0  0  0  0  0  0
   -5.9094   27.1465    2.7643 C   0  0  0  0  0  0  0  0  0  0  0  0
   -5.7976   26.0309    1.9314 C   0  0  0  0  0  0  0  0  0  0  0  0
   -5.1231   24.8896    2.3739 C   0  0  0  0  0  0  0  0  0  0  0  0
   -4.5377   24.8756    3.6417 C   0  0  0  0  0  0  0  0  0  0  0  0
   -4.6479   25.9890    4.4789 C   0  0  0  0  0  0  0  0  0  0  0  0
   -6.3280   29.1458    4.5824 O   0  0  0  0  0  0  0  0  0  0  0  0
   -5.4848   28.3130    4.9082 C   0  0  0  0  0  0  0  0  0  0  0  0
   -4.6929   28.4290    6.0500 N   0  0  0  0  0  0  0  0  0  0  0  0
   -4.9710   29.5437    6.9530 C   0  0  0  0  0  0  0  0  0  0  0  0
   -4.4202   29.2902    8.3506 C   0  0  0  0  0  0  0  0  0  0  0  0
   -2.9009   29.0355    8.3391 C   0  0  0  0  0  0  0  0  0  0  0  0
   -2.4004   28.5234    6.9764 C   0  0  0  0  0  0  0  0  0  0  0  0
   -3.4554   27.6763    6.2745 C   0  0  0  0  0  0  0  0  0  0  0  0
   -2.1162   30.2317    8.7951 C   0  0  0  0  0  0  0  0  0  0  0  0
   -0.7507   30.3712    8.9421 C   0  0  0  0  0  0  0  0  0  0  0  0
   -0.5358   31.6448    9.3819 N   0  0  0  0  0  0  0  0  0  0  0  0
   -1.6654   32.3515    9.5359 N   0  0  0  0  0  0  0  0  0  0  0  0
   -2.6246   31.4958    9.1790 C   0  0  0  0  0  0  0  0  0  0  0  0
    0.3477   32.0960    9.5963 H   0  0  0  0  0  0  0  0  0  0  0  0
   -5.0484   23.7661    1.5025 N   0  0  0  0  0  0  0  0  0  0  0  0
   -4.6401   23.9025    0.5771 H   0  0  0  0  0  0  0  0  0  0  0  0
   -6.3066   22.6398    1.4584 S   0  0  0  0  0  0  0  0  0  0  0  0
   -5.7743   21.3794    0.9827 O   0  0  0  0  0  0  0  0  0  0  0  0
   -7.4199   23.2645    0.7788 O   0  0  0  0  0  0  0  0  0  0  0  0
   -6.7581   22.4307    3.1599 C   0  0  0  0  0  0  0  0  0  0  0  0
   -8.0063   22.9201    3.5773 C   0  0  0  0  0  0  0  0  0  0  0  0
   -8.3963   22.7750    4.9056 C   0  0  0  0  0  0  0  0  0  0  0  0
   -9.9264   23.3684    5.4172 Cl  0  0  0  0  0  0  0  0  0  0  0  0
   -7.5543   22.1523    5.8229 C   0  0  0  0  0  0  0  0  0  0  0  0
   -6.3108   21.6700    5.4070 C   0  0  0  0  0  0  0  0  0  0  0  0
   -5.9041   21.8067    4.0739 C   0  0  0  0  0  0  0  0  0  0  0  0
   -4.3624   21.1477    3.6628 Cl  0  0  0  0  0  0  0  0  0  0  0  0
  7  8  2  0  0  0
  8  1  1  0  0  0
  1  2  1  0  0  0
  2  3  2  0  0  0
  3  4  1  0  0  0
  4 21  1  0  0  0
 21 23  1  0  0  0
 23 24  2  0  0  0
 23 25  2  0  0  0
 23 26  1  0  0  0
 26 27  1  0  0  0
 27 28  2  0  0  0
 28 29  1  0  0  0
 28 30  1  0  0  0
 30 31  2  0  0  0
 31 32  1  0  0  0
 32 33  1  0  0  0
  4  5  2  0  0  0
  5  6  1  0  0  0
  8  9  1  0  0  0
  9 10  1  0  0  0
 10 11  1  0  0  0
 11 12  1  0  0  0
 12 15  1  0  0  0
 15 16  2  0  0  0
 16 17  1  0  0  0
 17 18  1  0  0  0
 18 19  2  0  0  0
 12 13  1  0  0  0
 13 14  1  0  0  0
  6  1  2  0  0  0
 14  9  1  0  0  0
 32 26  2  0  0  0
 19 15  1  0  0  0
 21 22  1  0  0  0
 17 20  1  0  0  0
M  END
> <minimizedAffinity>
-10.05248

$$$$
OCNT-2308641


 29 32  0  0  0  0  0  0  0  0999 V2000
   -5.5084   29.0226    7.1131 C   0  0  0  0  0  0  0  0  0  0  0  0
   -6.3822   29.8856    7.0777 O   0  0  0  0  0  0  0  0  0  0  0  0
   -5.1395   28.2647    6.0169 N   0  0  0  0  0  0  0  0  0  0  0  0
   -4.6022   27.4266    6.2051 H   0  0  0  0  0  0  0  0  0  0  0  0
   -4.7980   28.6117    8.3986 C   0  0  0  0  0  0  0  0  0  0  0  0
   -1.2013   28.9456    7.9647 N   0  0  0  0  0  0  0  0  0  0  0  0
   -2.3996   28.2335    7.7646 C   0  0  0  0  0  0  0  0  0  0  0  0
   -2.5359   27.1238    7.2659 O   0  0  0  0  0  0  0  0  0  0  0  0
   -3.4290   29.0295    8.3008 N   0  0  0  0  0  0  0  0  0  0  0  0
   -2.8717   30.1851    8.8585 C   0  0  0  0  0  0  0  0  0  0  0  0
   -3.4648   31.2288    9.5328 C   0  0  0  0  0  0  0  0  0  0  0  0
   -2.6275   32.2605    9.9778 C   0  0  0  0  0  0  0  0  0  0  0  0
   -1.2387   32.2230    9.7432 C   0  0  0  0  0  0  0  0  0  0  0  0
   -0.6540   31.1515    9.0656 C   0  0  0  0  0  0  0  0  0  0  0  0
   -1.4925   30.1436    8.6343 C   0  0  0  0  0  0  0  0  0  0  0  0
    0.6268   29.2441    6.3530 C   0  0  0  0  0  0  0  0  0  0  0  0
    0.1084   28.4984    7.5676 C   0  0  0  0  0  0  0  0  0  0  0  0
   -5.9054   28.3297    4.8026 C   0  0  0  0  0  0  0  0  0  0  0  0
   -5.9262   27.0115    4.0903 C   0  0  0  0  0  0  0  0  0  0  0  0
   -5.7301   26.9144    2.7129 C   0  0  0  0  0  0  0  0  0  0  0  0
   -5.7351   25.6643    2.0934 C   0  0  0  0  0  0  0  0  0  0  0  0
   -5.9359   24.5326    2.8753 C   0  0  0  0  0  0  0  0  0  0  0  0
   -6.1459   24.6046    4.2126 N   0  0  0  0  0  0  0  0  0  0  0  0
   -6.1401   25.8301    4.7843 C   0  0  0  0  0  0  0  0  0  0  0  0
   -5.9021   23.2358    2.2934 N   0  0  0  0  0  0  0  0  0  0  0  0
   -5.8768   22.0052    2.9101 C   0  0  0  0  0  0  0  0  0  0  0  0
   -5.8906   21.0737    1.8984 C   0  0  0  0  0  0  0  0  0  0  0  0
   -5.9121   21.6840    0.6782 N   0  0  0  0  0  0  0  0  0  0  0  0
   -5.9066   22.9737    0.9418 C   0  0  0  0  0  0  0  0  0  0  0  0
 16 17  1  0  0  0
 17  6  1  0  0  0
  6  7  1  0  0  0
  7  8  2  0  0  0
  7  9  1  0  0  0
  9  5  1  0  0  0
  5  1  1  0  0  0
  1  2  2  0  0  0
  1  3  1  0  0  0
  3 18  1  0  0  0
 18 19  1  0  0  0
 19 20  2  0  0  0
 20 21  1  0  0  0
 21 22  2  0  0  0
 22 25  1  0  0  0
 25 26  1  0  0  0
 26 27  2  0  0  0
 27 28  1  0  0  0
 28 29  2  0  0  0
 22 23  1  0  0  0
 23 24  2  0  0  0
  9 10  1  0  0  0
 10 11  2  0  0  0
 11 12  1  0  0  0
 12 13  2  0  0  0
 13 14  1  0  0  0
 14 15  2  0  0  0
 15  6  1  0  0  0
 24 19  1  0  0  0
 15 10  1  0  0  0
 29 25  1  0  0  0
  3  4  1  0  0  0
M  END
> <minimizedAffinity>
-9.59825

$$$$
OCNT-2308647


 26 28  0  0  0  0  0  0  0  0999 V2000
   -6.4749   29.0668    5.7516 N   0  0  0  0  0  0  0  0  0  0  0  0
   -6.1023   29.6935    4.4869 C   0  0  0  0  0  0  0  0  0  0  0  0
   -6.0792   28.6437    3.3684 C   0  0  0  0  0  0  0  0  0  0  0  0
   -5.5125   27.2762    3.8109 C   0  0  0  0  0  0  0  0  0  0  0  0
   -4.6538   27.4546    5.0694 C   0  0  0  0  0  0  0  0  0  0  0  0
   -5.4546   28.1089    6.2038 C   0  0  0  0  0  0  0  0  0  0  0  0
   -4.7359   26.5843    2.6746 C   0  0  0  0  0  0  0  0  0  0  0  0
   -3.3304   26.6673    2.9258 O   0  0  0  0  0  0  0  0  0  0  0  0
   -3.1351   25.9465    3.5604 H   0  0  0  0  0  0  0  0  0  0  0  0
   -5.0430   25.1169    2.5829 C   0  0  0  0  0  0  0  0  0  0  0  0
   -4.7325   24.2247    3.5078 N   0  0  0  0  0  0  0  0  0  0  0  0
   -5.1709   23.0190    3.0278 C   0  0  0  0  0  0  0  0  0  0  0  0
   -5.7412   23.1678    1.7893 C   0  0  0  0  0  0  0  0  0  0  0  0
   -5.6364   24.5021    1.5055 N   0  0  0  0  0  0  0  0  0  0  0  0
   -6.0533   25.1254    0.2734 C   0  0  0  0  0  0  0  0  0  0  0  0
   -6.7760   30.0301    6.8202 C   0  0  0  0  0  0  0  0  0  0  0  0
   -6.4205   28.8124    9.8035 C   0  0  0  0  0  0  0  0  0  0  0  0
   -5.4624   29.6616    9.0496 C   0  0  0  0  0  0  0  0  0  0  0  0
   -4.2930   29.9979    9.6019 N   0  0  0  0  0  0  0  0  0  0  0  0
   -3.6826   30.7522    8.6660 N   0  0  0  0  0  0  0  0  0  0  0  0
   -4.4322   30.9077    7.5243 C   0  0  0  0  0  0  0  0  0  0  0  0
   -3.9777   31.6829    6.3407 C   0  0  0  0  0  0  0  0  0  0  0  0
   -5.6064   30.1981    7.7391 C   0  0  0  0  0  0  0  0  0  0  0  0
   -2.3404   31.2686    8.9335 C   0  0  0  0  0  0  0  0  0  0  0  0
   -1.2922   30.1695    8.7739 C   0  0  0  0  0  0  0  0  0  0  0  0
   -2.2468   31.9365   10.3070 C   0  0  0  0  0  0  0  0  0  0  0  0
 17 18  1  0  0  0
 18 19  2  0  0  0
 19 20  1  0  0  0
 20 24  1  0  0  0
 24 25  1  0  0  0
 24 26  1  0  0  0
 20 21  1  0  0  0
 21 22  1  0  0  0
 21 23  2  0  0  0
 23 16  1  0  0  0
 16  1  1  0  0  0
  1  2  1  0  0  0
  2  3  1  0  0  0
  3  4  1  0  0  0
  4  7  1  0  0  0
  7  8  1  0  0  0
  7 10  1  0  0  0
 10 11  2  0  0  0
 11 12  1  0  0  0
 12 13  2  0  0  0
 13 14  1  0  0  0
 14 15  1  0  0  0
  4  5  1  0  0  0
  5  6  1  0  0  0
 23 18  1  0  0  0
  6  1  1  0  0  0
 14 10  1  0  0  0
  8  9  1  0  0  0
M  END
> <minimizedAffinity>
-8.58081

$$$$
OCNT-2308660


 25 27  0  0  0  0  0  0  0  0999 V2000
   -2.9907   26.6669    5.1686 C   0  0  0  0  0  0  0  0  0  0  0  0
   -4.1679   26.2863    4.5569 C   0  0  0  0  0  0  0  0  0  0  0  0
   -3.8222   25.4666    3.5062 N   0  0  0  0  0  0  0  0  0  0  0  0
   -2.4440   25.3910    3.5407 C   0  0  0  0  0  0  0  0  0  0  0  0
   -1.9151   26.0923    4.5199 N   0  0  0  0  0  0  0  0  0  0  0  0
   -4.7014   24.8303    2.5795 C   0  0  0  0  0  0  0  0  0  0  0  0
   -5.4584   25.5889    1.6745 C   0  0  0  0  0  0  0  0  0  0  0  0
   -6.3191   24.9582    0.7681 C   0  0  0  0  0  0  0  0  0  0  0  0
   -6.4363   23.5674    0.7521 C   0  0  0  0  0  0  0  0  0  0  0  0
   -7.5183   22.8630   -0.3942 Cl  0  0  0  0  0  0  0  0  0  0  0  0
   -5.6867   22.8032    1.6494 C   0  0  0  0  0  0  0  0  0  0  0  0
   -5.7769   21.0773    1.6913 Cl  0  0  0  0  0  0  0  0  0  0  0  0
   -4.8233   23.4314    2.5588 C   0  0  0  0  0  0  0  0  0  0  0  0
   -2.3370   27.1707    7.3875 O   0  0  0  0  0  0  0  0  0  0  0  0
   -2.8521   27.5365    6.3372 C   0  0  0  0  0  0  0  0  0  0  0  0
   -3.3496   28.8005    6.1120 N   0  0  0  0  0  0  0  0  0  0  0  0
   -3.5927   28.9900    5.1426 H   0  0  0  0  0  0  0  0  0  0  0  0
   -3.1159   29.8926    7.0322 C   0  0  0  0  0  0  0  0  0  0  0  0
   -1.8302   30.6490    6.6997 C   0  0  0  0  0  0  0  0  0  0  0  0
   -0.6350   30.0580    7.3609 C   0  0  0  0  0  0  0  0  0  0  0  0
    0.4246   29.3966    6.7769 C   0  0  0  0  0  0  0  0  0  0  0  0
    1.2680   29.0484    7.7912 N   0  0  0  0  0  0  0  0  0  0  0  0
    0.8325   29.4347    9.0006 N   0  0  0  0  0  0  0  0  0  0  0  0
   -0.3241   30.0465    8.7400 C   0  0  0  0  0  0  0  0  0  0  0  0
    2.1508   28.5514    7.7330 H   0  0  0  0  0  0  0  0  0  0  0  0
 14 15  2  0  0  0
 15 16  1  0  0  0
 16 18  1  0  0  0
 18 19  1  0  0  0
 19 20  1  0  0  0
 20 21  2  0  0  0
 21 22  1  0  0  0
 22 23  1  0  0  0
 23 24  2  0  0  0
 15  1  1  0  0  0
  1  2  2  0  0  0
  2  3  1  0  0  0
  3  6  1  0  0  0
  6  7  1  0  0  0
  7  8  2  0  0  0
  8  9  1  0  0  0
  9 10  1  0  0  0
  9 11  2  0  0  0
 11 12  1  0  0  0
 11 13  1  0  0  0
  3  4  1  0  0  0
  4  5  2  0  0  0
 24 20  1  0  0  0
  5  1  1  0  0  0
 13  6  2  0  0  0
 16 17  1  0  0  0
 22 25  1  0  0  0
M  END
> <minimizedAffinity>
-8.82443

$$$$
OCNT-2308661


 26 29  0  0  0  0  0  0  0  0999 V2000
   -3.3014   25.5233    3.9931 C   0  0  0  0  0  0  0  0  0  0  0  0
   -3.5618   25.7578    5.3261 C   0  0  0  0  0  0  0  0  0  0  0  0
   -2.4039   26.3077    5.7955 N   0  0  0  0  0  0  0  0  0  0  0  0
   -1.4868   26.4251    4.8239 N   0  0  0  0  0  0  0  0  0  0  0  0
   -2.0224   25.9370    3.7139 N   0  0  0  0  0  0  0  0  0  0  0  0
   -5.9206   23.7465    1.1002 C   0  0  0  0  0  0  0  0  0  0  0  0
   -5.6893   25.1242    1.0875 C   0  0  0  0  0  0  0  0  0  0  0  0
   -4.8339   25.7132    2.0300 C   0  0  0  0  0  0  0  0  0  0  0  0
   -4.1917   24.9387    3.0048 C   0  0  0  0  0  0  0  0  0  0  0  0
   -4.4242   23.5576    3.0157 C   0  0  0  0  0  0  0  0  0  0  0  0
   -5.2775   22.9691    2.0755 C   0  0  0  0  0  0  0  0  0  0  0  0
   -5.5116   21.2563    2.1577 Cl  0  0  0  0  0  0  0  0  0  0  0  0
   -7.8029   23.8187   -0.3709 C   0  0  0  0  0  0  0  0  0  0  0  0
   -6.7380   23.0872    0.2207 O   0  0  0  0  0  0  0  0  0  0  0  0
   -2.1135   26.7521    7.1407 C   0  0  0  0  0  0  0  0  0  0  0  0
   -2.2414   28.2519    7.3295 C   0  0  0  0  0  0  0  0  0  0  0  0
   -1.4847   28.8076    8.2398 N   0  0  0  0  0  0  0  0  0  0  0  0
   -1.5853   30.1623    8.3869 C   0  0  0  0  0  0  0  0  0  0  0  0
   -0.9717   31.0457    9.2444 C   0  0  0  0  0  0  0  0  0  0  0  0
   -1.4852   32.3074    8.9006 C   0  0  0  0  0  0  0  0  0  0  0  0
   -2.3624   32.2553    7.8953 N   0  0  0  0  0  0  0  0  0  0  0  0
   -2.4290   30.9311    7.5893 N   0  0  0  0  0  0  0  0  0  0  0  0
   -3.2157   30.3358    6.5975 C   0  0  0  0  0  0  0  0  0  0  0  0
   -4.0329   31.1332    5.8126 O   0  0  0  0  0  0  0  0  0  0  0  0
   -3.1683   29.0096    6.4184 C   0  0  0  0  0  0  0  0  0  0  0  0
   -3.9122   32.0465    6.1535 H   0  0  0  0  0  0  0  0  0  0  0  0
 13 14  1  0  0  0
 14  6  1  0  0  0
  6  7  1  0  0  0
  7  8  2  0  0  0
  8  9  1  0  0  0
  9  1  1  0  0  0
  1  2  2  0  0  0
  2  3  1  0  0  0
  3 15  1  0  0  0
 15 16  1  0  0  0
 16 17  2  0  0  0
 17 18  1  0  0  0
 18 19  2  0  0  0
 19 20  1  0  0  0
 20 21  2  0  0  0
 21 22  1  0  0  0
 22 23  1  0  0  0
 23 24  1  0  0  0
 23 25  2  0  0  0
  3  4  1  0  0  0
  4  5  2  0  0  0
  9 10  2  0  0  0
 10 11  1  0  0  0
 11 12  1  0  0  0
 11  6  2  0  0  0
  5  1  1  0  0  0
 25 16  1  0  0  0
 22 18  1  0  0  0
 24 26  1  0  0  0
M  END
> <minimizedAffinity>
-9.41461

$$$$
OCNT-2308666


 29 32  0  0  0  0  0  0  0  0999 V2000
   -2.5915   26.7064    5.9874 C   0  0  0  0  0  0  0  0  0  0  0  0
   -1.1335   26.2624    5.9613 C   0  0  0  0  0  0  0  0  0  0  0  0
   -0.9220   26.1210    4.4735 C   0  0  0  0  0  0  0  0  0  0  0  0
   -2.0024   26.1987    3.7512 N   0  0  0  0  0  0  0  0  0  0  0  0
   -3.0322   26.4661    4.6168 N   0  0  0  0  0  0  0  0  0  0  0  0
   -4.3645   26.4261    4.2336 C   0  0  0  0  0  0  0  0  0  0  0  0
   -5.2823   26.5417    5.0454 O   0  0  0  0  0  0  0  0  0  0  0  0
   -2.9465   30.8803    7.1370 C   0  0  0  0  0  0  0  0  0  0  0  0
   -4.0942   30.1265    6.8988 C   0  0  0  0  0  0  0  0  0  0  0  0
   -3.9888   28.7792    6.5327 C   0  0  0  0  0  0  0  0  0  0  0  0
   -2.7342   28.1611    6.4040 C   0  0  0  0  0  0  0  0  0  0  0  0
   -1.5872   28.9288    6.6459 C   0  0  0  0  0  0  0  0  0  0  0  0
   -1.6963   30.2748    7.0058 C   0  0  0  0  0  0  0  0  0  0  0  0
   -2.8871   32.4837    8.8900 C   0  0  0  0  0  0  0  0  0  0  0  0
   -2.9087   32.1988    7.4970 O   0  0  0  0  0  0  0  0  0  0  0  0
    0.4214   25.8734    3.8989 C   0  0  0  0  0  0  0  0  0  0  0  0
    1.1010   24.6978    4.2426 C   0  0  0  0  0  0  0  0  0  0  0  0
    2.3668   24.4376    3.7146 C   0  0  0  0  0  0  0  0  0  0  0  0
    2.9594   25.3493    2.8431 C   0  0  0  0  0  0  0  0  0  0  0  0
    2.2888   26.5221    2.4989 C   0  0  0  0  0  0  0  0  0  0  0  0
    1.0220   26.7873    3.0253 C   0  0  0  0  0  0  0  0  0  0  0  0
   -4.5764   26.2004    2.7493 C   0  0  0  0  0  0  0  0  0  0  0  0
   -4.8697   24.8173    2.4142 N   0  0  0  0  0  0  0  0  0  0  0  0
   -4.5748   23.7485    3.2132 C   0  0  0  0  0  0  0  0  0  0  0  0
   -5.0403   22.6287    2.7127 N   0  0  0  0  0  0  0  0  0  0  0  0
   -5.6418   22.9781    1.5272 C   0  0  0  0  0  0  0  0  0  0  0  0
   -6.2625   21.9420    0.6709 C   0  0  0  0  0  0  0  0  0  0  0  0
   -5.5520   24.3442    1.3175 C   0  0  0  0  0  0  0  0  0  0  0  0
   -6.0268   25.1950    0.2010 C   0  0  0  0  0  0  0  0  0  0  0  0
 14 15  1  0  0  0
 15  8  1  0  0  0
  8  9  1  0  0  0
  9 10  2  0  0  0
 10 11  1  0  0  0
 11  1  1  0  0  0
  1  2  1  0  0  0
  2  3  1  0  0  0
  3 16  1  0  0  0
 16 17  2  0  0  0
 17 18  1  0  0  0
 18 19  2  0  0  0
 19 20  1  0  0  0
 20 21  2  0  0  0
  3  4  2  0  0  0
  4  5  1  0  0  0
  5  6  1  0  0  0
  6  7  2  0  0  0
  6 22  1  0  0  0
 22 23  1  0  0  0
 23 24  1  0  0  0
 24 25  2  0  0  0
 25 26  1  0  0  0
 26 27  1  0  0  0
 26 28  2  0  0  0
 28 29  1  0  0  0
 11 12  2  0  0  0
 12 13  1  0  0  0
 13  8  2  0  0  0
  5  1  1  0  0  0
 28 23  1  0  0  0
 21 16  1  0  0  0
M  END
> <minimizedAffinity>
-9.68958

$$$$
OCNT-2308676


 29 32  0  0  0  0  0  0  0  0999 V2000
   -7.7833   30.6414    6.7362 C   0  0  0  0  0  0  0  0  0  0  0  0
   -6.4773   29.9205    6.5926 C   0  0  0  0  0  0  0  0  0  0  0  0
   -6.3680   28.8393    5.7399 C   0  0  0  0  0  0  0  0  0  0  0  0
   -5.1375   28.2127    5.6395 C   0  0  0  0  0  0  0  0  0  0  0  0
   -4.0826   28.6815    6.3289 N   0  0  0  0  0  0  0  0  0  0  0  0
   -4.2663   29.7387    7.1417 C   0  0  0  0  0  0  0  0  0  0  0  0
   -5.4364   30.3771    7.3086 N   0  0  0  0  0  0  0  0  0  0  0  0
   -4.9626   27.1243    4.7719 N   0  0  0  0  0  0  0  0  0  0  0  0
   -3.5576   26.7323    4.5611 C   0  0  0  0  0  0  0  0  0  0  0  0
   -3.4554   25.4273    3.7707 C   0  0  0  0  0  0  0  0  0  0  0  0
   -4.6296   25.2814    2.8055 C   0  0  0  0  0  0  0  0  0  0  0  0
   -5.9510   25.2316    3.5907 C   0  0  0  0  0  0  0  0  0  0  0  0
   -5.8970   26.0076    4.9075 C   0  0  0  0  0  0  0  0  0  0  0  0
   -4.5355   24.0537    2.0678 O   0  0  0  0  0  0  0  0  0  0  0  0
   -5.5127   23.8650    1.1143 C   0  0  0  0  0  0  0  0  0  0  0  0
   -6.0030   22.5760    0.9502 C   0  0  0  0  0  0  0  0  0  0  0  0
   -6.9578   22.2635    0.0386 N   0  0  0  0  0  0  0  0  0  0  0  0
   -7.3986   23.3037   -0.7033 C   0  0  0  0  0  0  0  0  0  0  0  0
   -6.9077   24.5900   -0.5431 C   0  0  0  0  0  0  0  0  0  0  0  0
   -5.9535   24.9002    0.3655 N   0  0  0  0  0  0  0  0  0  0  0  0
   -3.0999   30.2326    7.9043 C   0  0  0  0  0  0  0  0  0  0  0  0
   -3.2234   31.2848    8.8358 C   0  0  0  0  0  0  0  0  0  0  0  0
   -2.1274   31.7609    9.5640 C   0  0  0  0  0  0  0  0  0  0  0  0
   -0.8696   31.1943    9.3794 C   0  0  0  0  0  0  0  0  0  0  0  0
   -0.7191   30.1494    8.4616 C   0  0  0  0  0  0  0  0  0  0  0  0
   -1.8186   29.6718    7.7314 C   0  0  0  0  0  0  0  0  0  0  0  0
    0.6052   29.5469    8.2613 N   0  0  0  0  0  0  0  0  0  0  0  0
    1.2948   29.3243    9.2673 O   0  0  0  0  0  0  0  0  0  0  0  0
    0.9586   29.2960    7.1005 O   0  0  0  0  0  0  0  0  0  0  0  0
  1  2  1  0  0  0
  2  3  1  0  0  0
  3  4  2  0  0  0
  4  8  1  0  0  0
  8  9  1  0  0  0
  9 10  1  0  0  0
 10 11  1  0  0  0
 11 14  1  0  0  0
 14 15  1  0  0  0
 15 16  2  0  0  0
 16 17  1  0  0  0
 17 18  2  0  0  0
 18 19  1  0  0  0
 19 20  2  0  0  0
 11 12  1  0  0  0
 12 13  1  0  0  0
  4  5  1  0  0  0
  5  6  2  0  0  0
  6 21  1  0  0  0
 21 22  1  0  0  0
 22 23  2  0  0  0
 23 24  1  0  0  0
 24 25  2  0  0  0
 25 27  1  0  0  0
 27 28  2  0  0  0
 27 29  1  0  0  0
 25 26  1  0  0  0
  6  7  1  0  0  0
  7  2  2  0  0  0
 13  8  1  0  0  0
 26 21  2  0  0  0
 20 15  1  0  0  0
M  CHG 1  27   1
M  CHG 1  29  -1
M  END
> <minimizedAffinity>
-9.85681

$$$$
OCNT-2308682


 29 33  0  0  0  0  0  0  0  0999 V2000
   -3.1126   25.1770    2.1822 O   0  0  0  0  0  0  0  0  0  0  0  0
   -3.5705   25.8847    3.0759 C   0  0  0  0  0  0  0  0  0  0  0  0
   -2.7003   26.2980    4.1916 C   0  0  0  0  0  0  0  0  0  0  0  0
   -1.3719   25.8432    4.2248 C   0  0  0  0  0  0  0  0  0  0  0  0
   -0.5384   26.1938    5.2830 C   0  0  0  0  0  0  0  0  0  0  0  0
   -1.0321   26.9912    6.3096 C   0  0  0  0  0  0  0  0  0  0  0  0
   -2.3552   27.4463    6.2758 C   0  0  0  0  0  0  0  0  0  0  0  0
   -3.2010   27.1138    5.2063 C   0  0  0  0  0  0  0  0  0  0  0  0
   -4.6175   27.5517    5.0828 C   0  0  0  0  0  0  0  0  0  0  0  0
   -5.3814   27.1499    4.1077 N   0  0  0  0  0  0  0  0  0  0  0  0
   -4.8846   26.3257    3.1287 N   0  0  0  0  0  0  0  0  0  0  0  0
   -5.2265   28.4599    6.0358 C   0  0  0  0  0  0  0  0  0  0  0  0
   -4.8284   29.6597    6.4061 N   0  0  0  0  0  0  0  0  0  0  0  0
   -5.7895   30.0334    7.3136 C   0  0  0  0  0  0  0  0  0  0  0  0
   -6.7641   29.1332    7.4959 N   0  0  0  0  0  0  0  0  0  0  0  0
   -6.3964   28.0868    6.6471 O   0  0  0  0  0  0  0  0  0  0  0  0
   -5.7723   31.3340    8.0199 C   0  0  0  0  0  0  0  0  0  0  0  0
   -4.4750   31.5615    8.6223 N   0  0  0  0  0  0  0  0  0  0  0  0
   -3.5886   32.5569    8.3416 C   0  0  0  0  0  0  0  0  0  0  0  0
   -2.4981   32.3865    9.0526 N   0  0  0  0  0  0  0  0  0  0  0  0
   -2.7628   31.2464    9.7556 C   0  0  0  0  0  0  0  0  0  0  0  0
   -3.9561   30.6950    9.5181 N   0  0  0  0  0  0  0  0  0  0  0  0
   -5.7954   26.0028    2.0323 C   0  0  0  0  0  0  0  0  0  0  0  0
   -6.1392   24.5314    1.9942 C   0  0  0  0  0  0  0  0  0  0  0  0
   -6.0754   23.8158    0.7899 C   0  0  0  0  0  0  0  0  0  0  0  0
   -6.4088   22.4611    0.7530 C   0  0  0  0  0  0  0  0  0  0  0  0
   -6.8155   21.8103    1.9165 C   0  0  0  0  0  0  0  0  0  0  0  0
   -6.8949   22.5140    3.1168 C   0  0  0  0  0  0  0  0  0  0  0  0
   -6.5623   23.8690    3.1556 C   0  0  0  0  0  0  0  0  0  0  0  0
  1  2  2  0  0  0
  2  3  1  0  0  0
  3  4  2  0  0  0
  4  5  1  0  0  0
  5  6  2  0  0  0
  6  7  1  0  0  0
  7  8  2  0  0  0
  8  9  1  0  0  0
  9 12  1  0  0  0
 12 13  2  0  0  0
 13 14  1  0  0  0
 14 17  1  0  0  0
 17 18  1  0  0  0
 18 19  1  0  0  0
 19 20  2  0  0  0
 20 21  1  0  0  0
 21 22  2  0  0  0
 14 15  2  0  0  0
 15 16  1  0  0  0
  9 10  2  0  0  0
 10 11  1  0  0  0
 11 23  1  0  0  0
 23 24  1  0  0  0
 24 25  2  0  0  0
 25 26  1  0  0  0
 26 27  2  0  0  0
 27 28  1  0  0  0
 28 29  2  0  0  0
 11  2  1  0  0  0
 29 24  1  0  0  0
  8  3  1  0  0  0
 16 12  1  0  0  0
 22 18  1  0  0  0
M  END
> <minimizedAffinity>
-9.36274

$$$$
OCNT-2308683


 30 33  0  0  0  0  0  0  0  0999 V2000
   -6.1760   24.1683    3.3355 C   0  0  0  0  0  0  0  0  0  0  0  0
   -6.9049   23.4704    2.1646 C   0  0  0  0  0  0  0  0  0  0  0  0
   -6.5040   24.2824    0.9391 C   0  0  0  0  0  0  0  0  0  0  0  0
   -5.0704   24.6732    1.2490 C   0  0  0  0  0  0  0  0  0  0  0  0
   -5.0921   24.9252    2.6795 N   0  0  0  0  0  0  0  0  0  0  0  0
   -4.1722   25.7943    3.2382 C   0  0  0  0  0  0  0  0  0  0  0  0
   -3.1985   26.1846    2.6031 O   0  0  0  0  0  0  0  0  0  0  0  0
   -4.4751   26.1732    4.5270 N   0  0  0  0  0  0  0  0  0  0  0  0
   -5.4586   26.1777    4.7444 H   0  0  0  0  0  0  0  0  0  0  0  0
   -3.6420   26.8762    5.4221 C   0  0  0  0  0  0  0  0  0  0  0  0
   -2.4955   26.2193    5.8818 C   0  0  0  0  0  0  0  0  0  0  0  0
   -1.6123   26.8587    6.7558 C   0  0  0  0  0  0  0  0  0  0  0  0
   -1.8534   28.1734    7.1600 C   0  0  0  0  0  0  0  0  0  0  0  0
   -0.9419   28.7633    8.0461 N   0  0  0  0  0  0  0  0  0  0  0  0
   -0.9053   30.0802    8.4132 C   0  0  0  0  0  0  0  0  0  0  0  0
   -0.0892   30.4416    9.2639 O   0  0  0  0  0  0  0  0  0  0  0  0
   -1.7596   31.0756    7.6626 C   0  0  0  0  0  0  0  0  0  0  0  0
   -3.4175   30.4728    7.2854 S   0  0  0  0  0  0  0  0  0  0  0  0
   -2.9970   28.8412    6.7072 C   0  0  0  0  0  0  0  0  0  0  0  0
   -3.8851   28.1875    5.8393 C   0  0  0  0  0  0  0  0  0  0  0  0
   -0.2373   28.1883    8.4904 H   0  0  0  0  0  0  0  0  0  0  0  0
   -5.7019   23.2065    4.4650 C   0  0  0  0  0  0  0  0  0  0  0  0
   -6.8156   22.9825    5.4837 C   0  0  0  0  0  0  0  0  0  0  0  0
   -6.5797   22.1485    6.5912 C   0  0  0  0  0  0  0  0  0  0  0  0
   -7.5680   21.9471    7.5562 C   0  0  0  0  0  0  0  0  0  0  0  0
   -8.8034   22.5769    7.4315 C   0  0  0  0  0  0  0  0  0  0  0  0
   -9.0531   23.4067    6.3414 C   0  0  0  0  0  0  0  0  0  0  0  0
   -8.0673   23.6106    5.3738 C   0  0  0  0  0  0  0  0  0  0  0  0
   -4.6842   20.9670    3.5056 N   0  0  0  0  0  0  0  0  0  0  0  0
   -5.1279   21.9487    3.9393 C   0  0  0  0  0  0  0  0  0  0  0  0
 29 30  3  0  0  0
 30 22  1  0  0  0
 22 23  1  0  0  0
 23 24  2  0  0  0
 24 25  1  0  0  0
 25 26  2  0  0  0
 26 27  1  0  0  0
 27 28  2  0  0  0
 22  1  1  0  0  0
  1  2  1  0  0  0
  2  3  1  0  0  0
  3  4  1  0  0  0
  4  5  1  0  0  0
  5  6  1  0  0  0
  6  7  2  0  0  0
  6  8  1  0  0  0
  8 10  1  0  0  0
 10 11  1  0  0  0
 11 12  2  0  0  0
 12 13  1  0  0  0
 13 14  1  0  0  0
 14 15  1  0  0  0
 15 16  2  0  0  0
 15 17  1  0  0  0
 17 18  1  0  0  0
 18 19  1  0  0  0
 19 20  1  0  0  0
 28 23  1  0  0  0
  5  1  1  0  0  0
 20 10  2  0  0  0
 19 13  2  0  0  0
  8  9  1  0  0  0
 14 21  1  0  0  0
M  END
> <minimizedAffinity>
-9.85551

$$$$
OCNT-2308684


 34 37  0  0  0  0  0  0  0  0999 V2000
   -2.8525   25.3501    3.7576 N   0  0  0  0  0  0  0  0  0  0  0  0
   -4.0699   25.9166    3.4422 C   0  0  0  0  0  0  0  0  0  0  0  0
   -4.2310   27.1033    3.1933 O   0  0  0  0  0  0  0  0  0  0  0  0
   -2.7701   24.3423    3.8104 H   0  0  0  0  0  0  0  0  0  0  0  0
   -5.2098   24.9708    3.4125 C   0  0  0  0  0  0  0  0  0  0  0  0
   -5.6623   24.4723    4.6368 C   0  0  0  0  0  0  0  0  0  0  0  0
   -6.7237   23.5838    4.6387 C   0  0  0  0  0  0  0  0  0  0  0  0
   -7.3082   23.1845    3.4831 N   0  0  0  0  0  0  0  0  0  0  0  0
   -6.8845   23.6784    2.3065 C   0  0  0  0  0  0  0  0  0  0  0  0
   -7.5242   23.2559    1.1484 C   0  0  0  0  0  0  0  0  0  0  0  0
   -7.1446   23.7116   -0.1160 C   0  0  0  0  0  0  0  0  0  0  0  0
   -6.0977   24.6133   -0.2341 C   0  0  0  0  0  0  0  0  0  0  0  0
   -5.4387   25.0517    0.9128 C   0  0  0  0  0  0  0  0  0  0  0  0
   -5.8232   24.5944    2.1993 C   0  0  0  0  0  0  0  0  0  0  0  0
   -7.2841   22.9966    5.8721 C   0  0  0  0  0  0  0  0  0  0  0  0
   -6.5116   22.2344    6.7601 C   0  0  0  0  0  0  0  0  0  0  0  0
   -7.1054   21.7068    7.8981 C   0  0  0  0  0  0  0  0  0  0  0  0
   -8.4030   21.8793    8.2170 N   0  0  0  0  0  0  0  0  0  0  0  0
   -9.1364   22.6265    7.3685 C   0  0  0  0  0  0  0  0  0  0  0  0
   -8.6313   23.1940    6.2094 C   0  0  0  0  0  0  0  0  0  0  0  0
   -1.6368   26.1424    3.7771 C   0  0  0  0  0  0  0  0  0  0  0  0
   -0.8568   25.9764    5.0839 C   0  0  0  0  0  0  0  0  0  0  0  0
   -1.4715   29.3378    7.6993 C   0  0  0  0  0  0  0  0  0  0  0  0
   -0.3354   29.2910    6.8873 C   0  0  0  0  0  0  0  0  0  0  0  0
   -0.1355   28.1934    6.0495 C   0  0  0  0  0  0  0  0  0  0  0  0
   -1.0690   27.1461    6.0136 C   0  0  0  0  0  0  0  0  0  0  0  0
   -2.2135   27.2164    6.8211 C   0  0  0  0  0  0  0  0  0  0  0  0
   -2.4184   28.3113    7.6624 C   0  0  0  0  0  0  0  0  0  0  0  0
   -1.7290   30.7442    8.7528 S   0  0  0  0  0  0  0  0  0  0  0  0
   -0.4633   31.0955    9.3576 O   0  0  0  0  0  0  0  0  0  0  0  0
   -2.9112   30.4920    9.5464 O   0  0  0  0  0  0  0  0  0  0  0  0
   -3.3014   31.7938    6.8039 C   0  0  0  0  0  0  0  0  0  0  0  0
   -2.1365   31.9454    7.6597 N   0  0  0  0  0  0  0  0  0  0  0  0
   -1.8138   32.8773    7.9104 H   0  0  0  0  0  0  0  0  0  0  0  0
 32 33  1  0  0  0
 33 29  1  0  0  0
 29 30  2  0  0  0
 29 31  2  0  0  0
 29 23  1  0  0  0
 23 24  1  0  0  0
 24 25  2  0  0  0
 25 26  1  0  0  0
 26 22  1  0  0  0
 22 21  1  0  0  0
 21  1  1  0  0  0
  1  2  1  0  0  0
  2  3  2  0  0  0
  2  5  1  0  0  0
  5  6  2  0  0  0
  6  7  1  0  0  0
  7 15  1  0  0  0
 15 16  2  0  0  0
 16 17  1  0  0  0
 17 18  2  0  0  0
 18 19  1  0  0  0
 19 20  2  0  0  0
  7  8  2  0  0  0
  8  9  1  0  0  0
  9 10  2  0  0  0
 10 11  1  0  0  0
 11 12  2  0  0  0
 12 13  1  0  0  0
 13 14  2  0  0  0
 26 27  2  0  0  0
 27 28  1  0  0  0
 28 23  2  0  0  0
 14  5  1  0  0  0
 20 15  1  0  0  0
 14  9  1  0  0  0
 33 34  1  0  0  0
  1  4  1  0  0  0
M  END
> <minimizedAffinity>
-10.00945

$$$$
OCNT-2308710


 27 29  0  0  0  0  0  0  0  0999 V2000
   -4.5826   27.1539    5.3572 C   0  0  0  0  0  0  0  0  0  0  0  0
   -3.4132   26.2499    4.9439 C   0  0  0  0  0  0  0  0  0  0  0  0
   -3.2662   26.1694    3.4308 C   0  0  0  0  0  0  0  0  0  0  0  0
   -4.4831   25.6740    2.7941 N   0  0  0  0  0  0  0  0  0  0  0  0
   -4.3688   25.1531    1.5044 C   0  0  0  0  0  0  0  0  0  0  0  0
   -3.3228   25.1848    0.8595 O   0  0  0  0  0  0  0  0  0  0  0  0
   -5.7593   25.9915    3.4434 C   0  0  0  0  0  0  0  0  0  0  0  0
   -5.6620   27.2663    4.2707 C   0  0  0  0  0  0  0  0  0  0  0  0
   -5.5533   24.5267    0.8730 C   0  0  0  0  0  0  0  0  0  0  0  0
   -6.2702   25.2537   -0.0824 C   0  0  0  0  0  0  0  0  0  0  0  0
   -7.3785   24.6769   -0.7035 C   0  0  0  0  0  0  0  0  0  0  0  0
   -7.7583   23.3728   -0.3815 C   0  0  0  0  0  0  0  0  0  0  0  0
   -7.0270   22.6379    0.5533 C   0  0  0  0  0  0  0  0  0  0  0  0
   -5.9179   23.2102    1.1774 C   0  0  0  0  0  0  0  0  0  0  0  0
   -3.5866   28.7340    6.9864 C   0  0  0  0  0  0  0  0  0  0  0  0
   -3.3809   27.8711    7.8299 O   0  0  0  0  0  0  0  0  0  0  0  0
   -4.1106   28.4822    5.7353 N   0  0  0  0  0  0  0  0  0  0  0  0
   -4.2832   29.2593    5.1098 H   0  0  0  0  0  0  0  0  0  0  0  0
   -1.9225   30.6008    7.2899 C   0  0  0  0  0  0  0  0  0  0  0  0
   -1.6782   31.9465    7.6204 C   0  0  0  0  0  0  0  0  0  0  0  0
   -2.7286   32.8281    7.8850 C   0  0  0  0  0  0  0  0  0  0  0  0
   -4.0448   32.3782    7.8453 C   0  0  0  0  0  0  0  0  0  0  0  0
   -4.3118   31.0438    7.5436 C   0  0  0  0  0  0  0  0  0  0  0  0
   -3.2585   30.1563    7.2652 C   0  0  0  0  0  0  0  0  0  0  0  0
   -0.7635   29.6609    7.0293 C   0  0  0  0  0  0  0  0  0  0  0  0
    0.9468   29.3811    8.6508 C   0  0  0  0  0  0  0  0  0  0  0  0
   -0.3459   28.9753    8.2178 O   0  0  0  0  0  0  0  0  0  0  0  0
 26 27  1  0  0  0
 27 25  1  0  0  0
 25 19  1  0  0  0
 19 20  2  0  0  0
 20 21  1  0  0  0
 21 22  2  0  0  0
 22 23  1  0  0  0
 23 24  2  0  0  0
 24 15  1  0  0  0
 15 16  2  0  0  0
 15 17  1  0  0  0
 17  1  1  0  0  0
  1  2  1  0  0  0
  2  3  1  0  0  0
  3  4  1  0  0  0
  4  5  1  0  0  0
  5  6  2  0  0  0
  5  9  1  0  0  0
  9 10  2  0  0  0
 10 11  1  0  0  0
 11 12  2  0  0  0
 12 13  1  0  0  0
 13 14  2  0  0  0
  4  7  1  0  0  0
  7  8  1  0  0  0
 24 19  1  0  0  0
  8  1  1  0  0  0
 14  9  1  0  0  0
 17 18  1  0  0  0
M  END
> <minimizedAffinity>
-9.20598

$$$$
OCNT-2308724


 29 31  0  0  0  0  0  0  0  0999 V2000
   -3.7422   27.8848    6.1942 O   0  0  0  0  0  0  0  0  0  0  0  0
   -4.9417   27.9300    6.4279 C   0  0  0  0  0  0  0  0  0  0  0  0
   -5.4493   28.6308    7.5022 N   0  0  0  0  0  0  0  0  0  0  0  0
   -5.9558   27.3633    5.6906 N   0  0  0  0  0  0  0  0  0  0  0  0
   -6.2936   28.2440    7.9024 H   0  0  0  0  0  0  0  0  0  0  0  0
   -6.8882   27.6722    5.9229 H   0  0  0  0  0  0  0  0  0  0  0  0
   -5.8345   26.5331    4.5590 C   0  0  0  0  0  0  0  0  0  0  0  0
   -5.7797   27.0054    3.2475 C   0  0  0  0  0  0  0  0  0  0  0  0
   -5.6512   26.1175    2.1689 C   0  0  0  0  0  0  0  0  0  0  0  0
   -5.5724   24.7441    2.3909 C   0  0  0  0  0  0  0  0  0  0  0  0
   -5.6214   24.2707    3.7038 C   0  0  0  0  0  0  0  0  0  0  0  0
   -5.7495   25.1554    4.7793 C   0  0  0  0  0  0  0  0  0  0  0  0
   -5.4467   23.7711    1.4427 O   0  0  0  0  0  0  0  0  0  0  0  0
   -6.5890   23.4538    0.6660 C   0  0  0  0  0  0  0  0  0  0  0  0
   -6.8321   24.4082   -0.2575 F   0  0  0  0  0  0  0  0  0  0  0  0
   -7.6616   23.3811    1.4853 F   0  0  0  0  0  0  0  0  0  0  0  0
   -6.4472   22.2581    0.0552 F   0  0  0  0  0  0  0  0  0  0  0  0
   -4.5326   29.2063    8.4646 C   0  0  0  0  0  0  0  0  0  0  0  0
   -4.1571   30.5580    8.0058 C   0  0  0  0  0  0  0  0  0  0  0  0
   -5.0234   31.5309    7.7845 N   0  0  0  0  0  0  0  0  0  0  0  0
   -4.2921   32.6498    7.5272 N   0  0  0  0  0  0  0  0  0  0  0  0
   -2.9980   32.3902    7.5772 N   0  0  0  0  0  0  0  0  0  0  0  0
   -2.8746   31.0554    7.8078 N   0  0  0  0  0  0  0  0  0  0  0  0
   -1.5885   30.4469    7.7959 C   0  0  0  0  0  0  0  0  0  0  0  0
   -0.9873   29.9722    6.6246 C   0  0  0  0  0  0  0  0  0  0  0  0
    0.2806   29.3811    6.6707 C   0  0  0  0  0  0  0  0  0  0  0  0
    0.9637   29.2683    7.8786 C   0  0  0  0  0  0  0  0  0  0  0  0
    0.3867   29.7558    9.0466 C   0  0  0  0  0  0  0  0  0  0  0  0
   -0.8787   30.3470    9.0072 C   0  0  0  0  0  0  0  0  0  0  0  0
  1  2  2  0  0  0
  2  3  1  0  0  0
  3 18  1  0  0  0
 18 19  1  0  0  0
 19 20  2  0  0  0
 20 21  1  0  0  0
 21 22  2  0  0  0
 22 23  1  0  0  0
 23 24  1  0  0  0
 24 25  2  0  0  0
 25 26  1  0  0  0
 26 27  2  0  0  0
 27 28  1  0  0  0
 28 29  2  0  0  0
  2  4  1  0  0  0
  4  7  1  0  0  0
  7  8  1  0  0  0
  8  9  2  0  0  0
  9 10  1  0  0  0
 10 13  1  0  0  0
 13 14  1  0  0  0
 14 15  1  0  0  0
 14 16  1  0  0  0
 14 17  1  0  0  0
 10 11  2  0  0  0
 11 12  1  0  0  0
 23 19  1  0  0  0
 29 24  1  0  0  0
 12  7  2  0  0  0
  3  5  1  0  0  0
  4  6  1  0  0  0
M  END
> <minimizedAffinity>
-9.70682

$$$$
OCNT-2308752


 25 27  0  0  0  0  0  0  0  0999 V2000
   -1.6883   27.3326    6.4553 N   0  0  0  0  0  0  0  0  0  0  0  0
   -2.3320   27.7685    7.6830 C   0  0  0  0  0  0  0  0  0  0  0  0
   -1.2242   28.4948    8.4406 C   0  0  0  0  0  0  0  0  0  0  0  0
   -0.2941   29.0596    7.3499 C   0  0  0  0  0  0  0  0  0  0  0  0
   -0.4190   28.0182    6.2171 C   0  0  0  0  0  0  0  0  0  0  0  0
   -4.3593   26.6461    4.1895 C   0  0  0  0  0  0  0  0  0  0  0  0
   -3.8486   25.8056    3.2762 N   0  0  0  0  0  0  0  0  0  0  0  0
   -2.5581   25.4833    3.4421 C   0  0  0  0  0  0  0  0  0  0  0  0
   -1.7804   25.9563    4.4745 C   0  0  0  0  0  0  0  0  0  0  0  0
   -2.3790   26.8052    5.3850 C   0  0  0  0  0  0  0  0  0  0  0  0
   -3.6697   27.1569    5.2290 N   0  0  0  0  0  0  0  0  0  0  0  0
   -6.4564   27.2466    5.4140 C   0  0  0  0  0  0  0  0  0  0  0  0
   -5.8136   27.0321    4.0439 C   0  0  0  0  0  0  0  0  0  0  0  0
   -5.9634   28.2731    3.1650 C   0  0  0  0  0  0  0  0  0  0  0  0
    1.1547   29.0938    7.8791 C   0  0  0  0  0  0  0  0  0  0  0  0
    1.2029   29.3954    9.2679 O   0  0  0  0  0  0  0  0  0  0  0  0
    1.1381   30.3609    9.3707 H   0  0  0  0  0  0  0  0  0  0  0  0
   -0.6727   30.4973    6.8760 C   0  0  0  0  0  0  0  0  0  0  0  0
   -1.6994   31.2768    7.6680 C   0  0  0  0  0  0  0  0  0  0  0  0
   -1.4303   31.6576    8.9931 C   0  0  0  0  0  0  0  0  0  0  0  0
   -2.3779   32.3680    9.7317 C   0  0  0  0  0  0  0  0  0  0  0  0
   -3.5932   32.7021    9.1473 C   0  0  0  0  0  0  0  0  0  0  0  0
   -4.5040   33.3774    9.8604 F   0  0  0  0  0  0  0  0  0  0  0  0
   -3.8762   32.3460    7.8355 C   0  0  0  0  0  0  0  0  0  0  0  0
   -2.9277   31.6403    7.0938 C   0  0  0  0  0  0  0  0  0  0  0  0
 12 13  1  0  0  0
 13 14  1  0  0  0
 13  6  1  0  0  0
  6  7  2  0  0  0
  7  8  1  0  0  0
  8  9  2  0  0  0
  9 10  1  0  0  0
 10  1  1  0  0  0
  1  2  1  0  0  0
  2  3  1  0  0  0
  3  4  1  0  0  0
  4 15  1  0  0  0
 15 16  1  0  0  0
  4 18  1  0  0  0
 18 19  1  0  0  0
 19 20  1  0  0  0
 20 21  2  0  0  0
 21 22  1  0  0  0
 22 23  1  0  0  0
 22 24  2  0  0  0
 24 25  1  0  0  0
  4  5  1  0  0  0
 10 11  2  0  0  0
 11  6  1  0  0  0
  5  1  1  0  0  0
 25 19  2  0  0  0
 16 17  1  0  0  0
M  END
> <minimizedAffinity>
-9.24794

$$$$
OCNT-2308766


 31 33  0  0  0  0  0  0  0  0999 V2000
   -5.2843   27.3495    3.4624 C   0  0  0  0  0  0  0  0  0  0  0  0
   -5.1451   27.1357    4.9790 C   0  0  0  0  0  0  0  0  0  0  0  0
   -6.3031   27.7760    5.7392 C   0  0  0  0  0  0  0  0  0  0  0  0
   -6.3497   29.3079    5.5472 C   0  0  0  0  0  0  0  0  0  0  0  0
   -5.8287   29.7255    4.1575 C   0  0  0  0  0  0  0  0  0  0  0  0
   -6.0540   28.6368    3.1140 C   0  0  0  0  0  0  0  0  0  0  0  0
   -3.9773   25.3239    2.0052 O   0  0  0  0  0  0  0  0  0  0  0  0
   -5.1996   25.2765    2.1025 C   0  0  0  0  0  0  0  0  0  0  0  0
   -5.9286   26.1974    2.8407 N   0  0  0  0  0  0  0  0  0  0  0  0
   -6.9324   26.2279    2.7153 H   0  0  0  0  0  0  0  0  0  0  0  0
   -6.0733   24.2033    1.4447 C   0  0  0  0  0  0  0  0  0  0  0  0
   -5.8880   22.9395    2.0635 O   0  0  0  0  0  0  0  0  0  0  0  0
   -6.4445   22.7558    3.2974 C   0  0  0  0  0  0  0  0  0  0  0  0
   -5.5304   22.4217    4.3017 C   0  0  0  0  0  0  0  0  0  0  0  0
   -5.9591   22.2038    5.6128 C   0  0  0  0  0  0  0  0  0  0  0  0
   -7.3108   22.3223    5.9212 C   0  0  0  0  0  0  0  0  0  0  0  0
   -7.8496   22.0554    7.5327 Cl  0  0  0  0  0  0  0  0  0  0  0  0
   -8.2312   22.6566    4.9295 C   0  0  0  0  0  0  0  0  0  0  0  0
   -7.7986   22.8741    3.6163 C   0  0  0  0  0  0  0  0  0  0  0  0
   -5.5781   29.9289    6.6289 N   0  0  0  0  0  0  0  0  0  0  0  0
   -5.6796   29.4072    7.4983 H   0  0  0  0  0  0  0  0  0  0  0  0
   -4.1648   30.1588    6.3255 C   0  0  0  0  0  0  0  0  0  0  0  0
   -3.8123   31.6350    6.5423 C   0  0  0  0  0  0  0  0  0  0  0  0
   -2.3474   31.6447    6.9791 C   0  0  0  0  0  0  0  0  0  0  0  0
   -1.9203   30.2424    6.9529 N   0  0  0  0  0  0  0  0  0  0  0  0
   -3.1269   29.4487    7.2036 C   0  0  0  0  0  0  0  0  0  0  0  0
   -0.8278   29.9379    7.9025 C   0  0  0  0  0  0  0  0  0  0  0  0
    0.4096   29.1981    7.3551 C   0  0  0  0  0  0  0  0  0  0  0  0
    1.4657   29.2996    8.1943 F   0  0  0  0  0  0  0  0  0  0  0  0
    0.7887   29.6655    6.1459 F   0  0  0  0  0  0  0  0  0  0  0  0
    0.1389   27.8780    7.2123 F   0  0  0  0  0  0  0  0  0  0  0  0
  7  8  2  0  0  0
  8 11  1  0  0  0
 11 12  1  0  0  0
 12 13  1  0  0  0
 13 14  1  0  0  0
 14 15  2  0  0  0
 15 16  1  0  0  0
 16 17  1  0  0  0
 16 18  2  0  0  0
 18 19  1  0  0  0
  8  9  1  0  0  0
  9  1  1  0  0  0
  1  2  1  0  0  0
  2  3  1  0  0  0
  3  4  1  0  0  0
  4 20  1  0  0  0
 20 22  1  0  0  0
 22 23  1  0  0  0
 23 24  1  0  0  0
 24 25  1  0  0  0
 25 27  1  0  0  0
 27 28  1  0  0  0
 28 29  1  0  0  0
 28 30  1  0  0  0
 28 31  1  0  0  0
 25 26  1  0  0  0
  4  5  1  0  0  0
  5  6  1  0  0  0
 19 13  2  0  0  0
  6  1  1  0  0  0
 26 22  1  0  0  0
  9 10  1  0  0  0
 20 21  1  0  0  0
M  END
> <minimizedAffinity>
-9.41605

$$$$
OCNT-2308774


 28 30  0  0  0  0  0  0  0  0999 V2000
   -4.9374   25.5186    3.6791 N   0  0  0  0  0  0  0  0  0  0  0  0
   -5.8605   25.9641    4.5988 C   0  0  0  0  0  0  0  0  0  0  0  0
   -6.7266   25.2602    5.1078 O   0  0  0  0  0  0  0  0  0  0  0  0
   -4.3489   26.2508    3.2952 H   0  0  0  0  0  0  0  0  0  0  0  0
   -5.7010   27.3918    4.9179 C   0  0  0  0  0  0  0  0  0  0  0  0
   -5.7562   28.3479    3.9677 N   0  0  0  0  0  0  0  0  0  0  0  0
   -5.5713   29.4883    4.6570 N   0  0  0  0  0  0  0  0  0  0  0  0
   -5.4030   29.3277    6.0088 C   0  0  0  0  0  0  0  0  0  0  0  0
   -5.4853   27.9615    6.1990 C   0  0  0  0  0  0  0  0  0  0  0  0
   -5.5669   30.3752    4.1610 H   0  0  0  0  0  0  0  0  0  0  0  0
   -5.1915   30.4516    6.9322 C   0  0  0  0  0  0  0  0  0  0  0  0
   -6.0686   30.6382    8.0130 C   0  0  0  0  0  0  0  0  0  0  0  0
   -5.8973   31.6965    8.9110 C   0  0  0  0  0  0  0  0  0  0  0  0
   -4.8436   32.5901    8.7450 C   0  0  0  0  0  0  0  0  0  0  0  0
   -3.9583   32.4291    7.6815 C   0  0  0  0  0  0  0  0  0  0  0  0
   -4.1325   31.3696    6.7850 C   0  0  0  0  0  0  0  0  0  0  0  0
   -3.2445   31.2339    5.7442 O   0  0  0  0  0  0  0  0  0  0  0  0
   -2.5887   31.9501    5.8089 H   0  0  0  0  0  0  0  0  0  0  0  0
   -5.0368   24.2305    3.0328 C   0  0  0  0  0  0  0  0  0  0  0  0
   -3.6612   23.5960    2.8267 C   0  0  0  0  0  0  0  0  0  0  0  0
   -8.2522   22.3233   -0.5591 C   0  0  0  0  0  0  0  0  0  0  0  0
   -7.3689   23.3980    0.0224 C   0  0  0  0  0  0  0  0  0  0  0  0
   -7.2244   24.5906   -0.7021 C   0  0  0  0  0  0  0  0  0  0  0  0
   -6.4104   25.6103   -0.2313 C   0  0  0  0  0  0  0  0  0  0  0  0
   -5.7280   25.4476    0.9692 C   0  0  0  0  0  0  0  0  0  0  0  0
   -5.8485   24.2690    1.7375 C   0  0  0  0  0  0  0  0  0  0  0  0
   -6.7047   23.2359    1.2690 C   0  0  0  0  0  0  0  0  0  0  0  0
   -6.8703   21.9353    2.0167 C   0  0  0  0  0  0  0  0  0  0  0  0
 21 22  1  0  0  0
 22 23  1  0  0  0
 23 24  2  0  0  0
 24 25  1  0  0  0
 25 26  2  0  0  0
 26 19  1  0  0  0
 19 20  1  0  0  0
 19  1  1  0  0  0
  1  2  1  0  0  0
  2  3  2  0  0  0
  2  5  1  0  0  0
  5  6  2  0  0  0
  6  7  1  0  0  0
  7  8  1  0  0  0
  8 11  1  0  0  0
 11 12  2  0  0  0
 12 13  1  0  0  0
 13 14  2  0  0  0
 14 15  1  0  0  0
 15 16  2  0  0  0
 16 17  1  0  0  0
  8  9  2  0  0  0
 26 27  1  0  0  0
 27 28  1  0  0  0
 27 22  2  0  0  0
  9  5  1  0  0  0
 16 11  1  0  0  0
  1  4  1  0  0  0
  7 10  1  0  0  0
 17 18  1  0  0  0
M  END
> <minimizedAffinity>
-9.74061

$$$$
OCNT-2308775


 28 30  0  0  0  0  0  0  0  0999 V2000
    0.0964   29.0975    7.1469 C   0  0  0  0  0  0  0  0  0  0  0  0
    1.2964   29.1901    8.0936 C   0  0  0  0  0  0  0  0  0  0  0  0
   -3.1408   31.7765    8.2019 C   0  0  0  0  0  0  0  0  0  0  0  0
   -2.5808   30.9316    9.1606 C   0  0  0  0  0  0  0  0  0  0  0  0
   -1.5374   30.0790    8.7962 C   0  0  0  0  0  0  0  0  0  0  0  0
   -1.0538   30.0441    7.4732 C   0  0  0  0  0  0  0  0  0  0  0  0
   -1.6338   30.9054    6.5268 C   0  0  0  0  0  0  0  0  0  0  0  0
   -2.6789   31.7623    6.8844 C   0  0  0  0  0  0  0  0  0  0  0  0
   -4.4788   32.8492    8.6631 S   0  0  0  0  0  0  0  0  0  0  0  0
   -4.0962   33.5621    9.8616 O   0  0  0  0  0  0  0  0  0  0  0  0
   -4.9235   33.5379    7.4720 O   0  0  0  0  0  0  0  0  0  0  0  0
   -6.4316   31.0713    8.0279 C   0  0  0  0  0  0  0  0  0  0  0  0
   -5.6885   31.7647    9.0662 N   0  0  0  0  0  0  0  0  0  0  0  0
   -6.1129   31.9147    9.9788 H   0  0  0  0  0  0  0  0  0  0  0  0
   -0.4316   27.7375    7.1579 N   0  0  0  0  0  0  0  0  0  0  0  0
   -0.1659   27.2006    7.9781 H   0  0  0  0  0  0  0  0  0  0  0  0
   -0.9782   27.1283    6.0821 C   0  0  0  0  0  0  0  0  0  0  0  0
   -2.3260   27.1044    5.7869 C   0  0  0  0  0  0  0  0  0  0  0  0
   -3.4615   27.6150    6.5971 C   0  0  0  0  0  0  0  0  0  0  0  0
   -2.4380   26.4369    4.5636 N   0  0  0  0  0  0  0  0  0  0  0  0
   -1.2356   25.9115    4.1855 N   0  0  0  0  0  0  0  0  0  0  0  0
   -0.3615   26.3845    5.0683 C   0  0  0  0  0  0  0  0  0  0  0  0
   -3.5652   26.2408    3.7027 C   0  0  0  0  0  0  0  0  0  0  0  0
   -3.6081   25.0871    2.8978 C   0  0  0  0  0  0  0  0  0  0  0  0
   -4.6850   24.8527    2.0392 C   0  0  0  0  0  0  0  0  0  0  0  0
   -5.7261   25.7726    1.9619 C   0  0  0  0  0  0  0  0  0  0  0  0
   -5.6852   26.9296    2.7359 C   0  0  0  0  0  0  0  0  0  0  0  0
   -4.6085   27.1681    3.5986 C   0  0  0  0  0  0  0  0  0  0  0  0
 12 13  1  0  0  0
 13  9  1  0  0  0
  9 10  2  0  0  0
  9 11  2  0  0  0
  9  3  1  0  0  0
  3  4  1  0  0  0
  4  5  2  0  0  0
  5  6  1  0  0  0
  6  1  1  0  0  0
  1  2  1  0  0  0
  1 15  1  0  0  0
 15 17  1  0  0  0
 17 18  2  0  0  0
 18 19  1  0  0  0
 18 20  1  0  0  0
 20 23  1  0  0  0
 23 24  2  0  0  0
 24 25  1  0  0  0
 25 26  2  0  0  0
 26 27  1  0  0  0
 27 28  2  0  0  0
 20 21  1  0  0  0
 21 22  2  0  0  0
  6  7  2  0  0  0
  7  8  1  0  0  0
  8  3  2  0  0  0
 22 17  1  0  0  0
 28 23  1  0  0  0
 13 14  1  0  0  0
 15 16  1  0  0  0
M  END
> <minimizedAffinity>
-9.13856

$$$$
OCNT-2308782


 24 26  0  0  0  0  0  0  0  0999 V2000
   -3.7975   25.4135    2.5773 N   0  0  0  0  0  0  0  0  0  0  0  0
   -3.2678   25.4098    1.7062 H   0  0  0  0  0  0  0  0  0  0  0  0
   -3.1289   26.2943    3.5531 C   0  0  0  0  0  0  0  0  0  0  0  0
   -3.9659   26.3385    4.8335 C   0  0  0  0  0  0  0  0  0  0  0  0
   -3.3828   27.3374    5.8412 C   0  0  0  0  0  0  0  0  0  0  0  0
   -1.9244   27.4760    5.6817 N   0  0  0  0  0  0  0  0  0  0  0  0
   -1.2352   26.2517    5.2822 C   0  0  0  0  0  0  0  0  0  0  0  0
   -1.6919   25.8436    3.8768 C   0  0  0  0  0  0  0  0  0  0  0  0
   -1.3151   28.2235    6.7052 C   0  0  0  0  0  0  0  0  0  0  0  0
    0.0578   28.4589    6.6859 C   0  0  0  0  0  0  0  0  0  0  0  0
    0.6561   29.2201    7.6875 C   0  0  0  0  0  0  0  0  0  0  0  0
   -0.1465   29.7344    8.6803 C   0  0  0  0  0  0  0  0  0  0  0  0
   -1.4718   29.5270    8.6973 N   0  0  0  0  0  0  0  0  0  0  0  0
   -2.0504   28.7783    7.6963 N   0  0  0  0  0  0  0  0  0  0  0  0
   -5.1825   25.8110    2.2697 C   0  0  0  0  0  0  0  0  0  0  0  0
   -6.1090   23.4738    1.7520 C   0  0  0  0  0  0  0  0  0  0  0  0
   -6.7319   22.6159    0.8328 C   0  0  0  0  0  0  0  0  0  0  0  0
   -7.2464   23.0930   -0.3756 C   0  0  0  0  0  0  0  0  0  0  0  0
   -7.1205   24.4368   -0.7034 C   0  0  0  0  0  0  0  0  0  0  0  0
   -6.4640   25.3003    0.1699 C   0  0  0  0  0  0  0  0  0  0  0  0
   -5.9427   24.8336    1.3925 C   0  0  0  0  0  0  0  0  0  0  0  0
   -5.1264   21.6139    3.0238 C   0  0  0  0  0  0  0  0  0  0  0  0
   -5.5374   23.0043    2.9515 N   0  0  0  0  0  0  0  0  0  0  0  0
   -6.1787   23.2469    3.7182 H   0  0  0  0  0  0  0  0  0  0  0  0
 22 23  1  0  0  0
 23 16  1  0  0  0
 16 17  2  0  0  0
 17 18  1  0  0  0
 18 19  2  0  0  0
 19 20  1  0  0  0
 20 21  2  0  0  0
 21 15  1  0  0  0
 15  1  1  0  0  0
  1  3  1  0  0  0
  3  4  1  0  0  0
  4  5  1  0  0  0
  5  6  1  0  0  0
  6  9  1  0  0  0
  9 10  2  0  0  0
 10 11  1  0  0  0
 11 12  2  0  0  0
 12 13  1  0  0  0
 13 14  2  0  0  0
  6  7  1  0  0  0
  7  8  1  0  0  0
 21 16  1  0  0  0
  8  3  1  0  0  0
 14  9  1  0  0  0
 23 24  1  0  0  0
  1  2  1  0  0  0
M  END
> <minimizedAffinity>
-8.78921

$$$$
OCNT-2308794


 22 24  0  0  0  0  0  0  0  0999 V2000
   -2.2540   25.8111    5.3410 O   0  0  0  0  0  0  0  0  0  0  0  0
   -2.9152   26.8420    5.2620 C   0  0  0  0  0  0  0  0  0  0  0  0
   -3.7103   27.1310    4.1764 N   0  0  0  0  0  0  0  0  0  0  0  0
   -4.2240   28.0057    4.2234 H   0  0  0  0  0  0  0  0  0  0  0  0
   -2.9563   27.8808    6.2775 C   0  0  0  0  0  0  0  0  0  0  0  0
   -4.0989   28.4261    6.6862 N   0  0  0  0  0  0  0  0  0  0  0  0
   -3.7554   29.3312    7.6561 C   0  0  0  0  0  0  0  0  0  0  0  0
   -2.3950   29.3600    7.8369 C   0  0  0  0  0  0  0  0  0  0  0  0
   -1.4900   30.0741    8.6700 C   0  0  0  0  0  0  0  0  0  0  0  0
   -0.1699   29.8346    8.5654 C   0  0  0  0  0  0  0  0  0  0  0  0
    0.3553   28.8571    7.6258 C   0  0  0  0  0  0  0  0  0  0  0  0
   -0.5016   28.1824    6.8394 C   0  0  0  0  0  0  0  0  0  0  0  0
   -1.8722   28.4278    6.9444 N   0  0  0  0  0  0  0  0  0  0  0  0
   -3.9441   26.2234    3.0765 C   0  0  0  0  0  0  0  0  0  0  0  0
   -5.4141   26.2003    2.6075 C   0  0  0  0  0  0  0  0  0  0  0  0
   -5.8772   25.0562    1.7976 N   0  0  0  0  0  0  0  0  0  0  0  0
   -5.3952   23.7683    2.2891 C   0  0  0  0  0  0  0  0  0  0  0  0
   -5.7864   22.5295    1.4749 C   0  0  0  0  0  0  0  0  0  0  0  0
   -7.2081   22.5498    0.9195 C   0  0  0  0  0  0  0  0  0  0  0  0
   -7.2962   23.2966   -0.4096 C   0  0  0  0  0  0  0  0  0  0  0  0
   -7.0774   24.8066   -0.3285 C   0  0  0  0  0  0  0  0  0  0  0  0
   -5.7821   25.2560    0.3544 C   0  0  0  0  0  0  0  0  0  0  0  0
  1  2  2  0  0  0
  2  3  1  0  0  0
  3 14  1  0  0  0
 14 15  1  0  0  0
 15 16  1  0  0  0
 16 17  1  0  0  0
 17 18  1  0  0  0
 18 19  1  0  0  0
 19 20  1  0  0  0
 20 21  1  0  0  0
 21 22  1  0  0  0
  2  5  1  0  0  0
  5  6  2  0  0  0
  6  7  1  0  0  0
  7  8  2  0  0  0
  8  9  1  0  0  0
  9 10  2  0  0  0
 10 11  1  0  0  0
 11 12  2  0  0  0
 12 13  1  0  0  0
 22 16  1  0  0  0
 13  5  1  0  0  0
 13  8  1  0  0  0
  3  4  1  0  0  0
M  END
> <minimizedAffinity>
-8.66091

$$$$
OCNT-2308798


 26 29  0  0  0  0  0  0  0  0999 V2000
   -3.7606   25.7804    3.6707 N   0  0  0  0  0  0  0  0  0  0  0  0
   -2.4106   25.8103    3.4934 N   0  0  0  0  0  0  0  0  0  0  0  0
   -1.8528   26.4276    4.5178 N   0  0  0  0  0  0  0  0  0  0  0  0
   -2.8509   26.8829    5.3367 C   0  0  0  0  0  0  0  0  0  0  0  0
   -4.0820   26.5441    4.7904 C   0  0  0  0  0  0  0  0  0  0  0  0
   -5.4439   26.9298    5.2303 C   0  0  0  0  0  0  0  0  0  0  0  0
   -6.9678   22.6266    0.0874 C   0  0  0  0  0  0  0  0  0  0  0  0
   -6.1569   23.4581    1.0365 C   0  0  0  0  0  0  0  0  0  0  0  0
   -6.1773   24.8536    0.9547 C   0  0  0  0  0  0  0  0  0  0  0  0
   -5.3985   25.6352    1.8179 C   0  0  0  0  0  0  0  0  0  0  0  0
   -4.5682   25.0296    2.7664 C   0  0  0  0  0  0  0  0  0  0  0  0
   -4.5548   23.6264    2.8505 C   0  0  0  0  0  0  0  0  0  0  0  0
   -5.3327   22.8500    1.9860 C   0  0  0  0  0  0  0  0  0  0  0  0
   -2.5575   27.6295    6.5623 C   0  0  0  0  0  0  0  0  0  0  0  0
   -2.0321   27.1003    7.5344 O   0  0  0  0  0  0  0  0  0  0  0  0
   -2.9355   28.9536    6.4579 N   0  0  0  0  0  0  0  0  0  0  0  0
   -3.3490   29.2053    5.5643 H   0  0  0  0  0  0  0  0  0  0  0  0
   -2.8080   29.9892    7.4126 C   0  0  0  0  0  0  0  0  0  0  0  0
   -1.8297   30.9822    7.3267 C   0  0  0  0  0  0  0  0  0  0  0  0
   -1.7526   31.9712    8.3022 C   0  0  0  0  0  0  0  0  0  0  0  0
   -2.6591   31.9365    9.3411 C   0  0  0  0  0  0  0  0  0  0  0  0
   -3.6180   30.9968    9.4633 N   0  0  0  0  0  0  0  0  0  0  0  0
   -3.7041   30.0292    8.5069 C   0  0  0  0  0  0  0  0  0  0  0  0
   -4.7925   28.9844    8.6961 C   0  0  0  0  0  0  0  0  0  0  0  0
   -6.1912   29.2390    8.1773 C   0  0  0  0  0  0  0  0  0  0  0  0
   -5.9350   29.2447    9.6531 C   0  0  0  0  0  0  0  0  0  0  0  0
  7  8  1  0  0  0
  8  9  1  0  0  0
  9 10  2  0  0  0
 10 11  1  0  0  0
 11  1  1  0  0  0
  1  2  1  0  0  0
  2  3  2  0  0  0
  3  4  1  0  0  0
  4 14  1  0  0  0
 14 15  2  0  0  0
 14 16  1  0  0  0
 16 18  1  0  0  0
 18 19  1  0  0  0
 19 20  2  0  0  0
 20 21  1  0  0  0
 21 22  2  0  0  0
 22 23  1  0  0  0
 23 24  1  0  0  0
 24 25  1  0  0  0
 25 26  1  0  0  0
  4  5  2  0  0  0
  5  6  1  0  0  0
 11 12  2  0  0  0
 12 13  1  0  0  0
 13  8  2  0  0  0
  5  1  1  0  0  0
 23 18  2  0  0  0
 26 24  1  0  0  0
 16 17  1  0  0  0
M  END
> <minimizedAffinity>
-9.48072

$$$$
OCNT-2308800


 25 26  0  0  0  0  0  0  0  0999 V2000
   -5.4101   24.9217    3.7385 C   0  0  0  0  0  0  0  0  0  0  0  0
   -4.9680   25.9434    2.6733 C   0  0  0  0  0  0  0  0  0  0  0  0
   -5.7264   27.2606    2.7788 C   0  0  0  0  0  0  0  0  0  0  0  0
   -5.6294   27.8434    4.1167 N   0  0  0  0  0  0  0  0  0  0  0  0
   -5.9459   29.2028    4.2419 C   0  0  0  0  0  0  0  0  0  0  0  0
   -6.4098   29.8383    3.2978 O   0  0  0  0  0  0  0  0  0  0  0  0
   -5.6496   26.9157    5.2516 C   0  0  0  0  0  0  0  0  0  0  0  0
   -6.2321   25.5567    4.8698 C   0  0  0  0  0  0  0  0  0  0  0  0
   -5.6870   29.8356    5.5198 C   0  0  0  0  0  0  0  0  0  0  0  0
   -6.5220   29.8994    6.6255 C   0  0  0  0  0  0  0  0  0  0  0  0
   -5.8631   30.6428    7.6286 C   0  0  0  0  0  0  0  0  0  0  0  0
   -6.4803   30.9676    9.1736 Cl  0  0  0  0  0  0  0  0  0  0  0  0
   -4.6571   31.0526    7.1143 C   0  0  0  0  0  0  0  0  0  0  0  0
   -4.5724   30.5864    5.8289 N   0  0  0  0  0  0  0  0  0  0  0  0
   -3.8179   30.7825    5.1840 H   0  0  0  0  0  0  0  0  0  0  0  0
   -6.0239   23.7059    3.1764 N   0  0  0  0  0  0  0  0  0  0  0  0
   -7.0367   23.8382    3.1344 H   0  0  0  0  0  0  0  0  0  0  0  0
   -5.5308   23.3128    1.8399 C   0  0  0  0  0  0  0  0  0  0  0  0
   -7.6766   21.9325    2.0627 C   0  0  0  0  0  0  0  0  0  0  0  0
   -6.5533   22.3882    1.1258 C   0  0  0  0  0  0  0  0  0  0  0  0
   -5.8495   21.2018    0.7040 O   0  0  0  0  0  0  0  0  0  0  0  0
   -5.1538   21.0623    1.3791 H   0  0  0  0  0  0  0  0  0  0  0  0
   -7.1565   23.1411   -0.0763 C   0  0  0  0  0  0  0  0  0  0  0  0
   -7.4637   24.4215    0.2506 F   0  0  0  0  0  0  0  0  0  0  0  0
   -8.3081   22.5518   -0.4878 F   0  0  0  0  0  0  0  0  0  0  0  0
 19 20  1  0  0  0
 20 21  1  0  0  0
 20 18  1  0  0  0
 18 16  1  0  0  0
 16  1  1  0  0  0
  1  2  1  0  0  0
  2  3  1  0  0  0
  3  4  1  0  0  0
  4  5  1  0  0  0
  5  6  2  0  0  0
  5  9  1  0  0  0
  9 10  2  0  0  0
 10 11  1  0  0  0
 11 12  1  0  0  0
 11 13  2  0  0  0
 13 14  1  0  0  0
  4  7  1  0  0  0
  7  8  1  0  0  0
 20 23  1  0  0  0
 23 24  1  0  0  0
 23 25  1  0  0  0
  8  1  1  0  0  0
 14  9  1  0  0  0
 21 22  1  0  0  0
 16 17  1  0  0  0
 14 15  1  0  0  0
M  END
> <minimizedAffinity>
-8.05106

$$$$
OCNT-2308810


 27 30  0  0  0  0  0  0  0  0999 V2000
   -3.8616   26.4053    2.9134 O   0  0  0  0  0  0  0  0  0  0  0  0
   -5.0380   26.2600    2.5971 C   0  0  0  0  0  0  0  0  0  0  0  0
   -6.0378   27.1062    3.0252 N   0  0  0  0  0  0  0  0  0  0  0  0
   -6.9943   26.8035    2.9098 H   0  0  0  0  0  0  0  0  0  0  0  0
   -5.4968   25.1338    1.7907 C   0  0  0  0  0  0  0  0  0  0  0  0
   -6.0807   25.2831    0.5395 C   0  0  0  0  0  0  0  0  0  0  0  0
   -6.3713   24.0435    0.0407 N   0  0  0  0  0  0  0  0  0  0  0  0
   -6.0185   23.0875    0.9490 C   0  0  0  0  0  0  0  0  0  0  0  0
   -6.1911   21.7675    0.7550 N   0  0  0  0  0  0  0  0  0  0  0  0
   -5.8007   21.0221    1.8115 C   0  0  0  0  0  0  0  0  0  0  0  0
   -5.2746   21.5161    2.9965 C   0  0  0  0  0  0  0  0  0  0  0  0
   -5.1121   22.8951    3.1429 C   0  0  0  0  0  0  0  0  0  0  0  0
   -5.4865   23.7243    2.0673 C   0  0  0  0  0  0  0  0  0  0  0  0
   -6.7973   23.8367   -0.8510 H   0  0  0  0  0  0  0  0  0  0  0  0
   -5.7665   28.2161    3.9179 C   0  0  0  0  0  0  0  0  0  0  0  0
   -5.7349   27.7892    5.3918 C   0  0  0  0  0  0  0  0  0  0  0  0
   -6.8962   28.3585    6.2072 C   0  0  0  0  0  0  0  0  0  0  0  0
   -6.4447   29.7740    6.5649 C   0  0  0  0  0  0  0  0  0  0  0  0
   -4.9846   29.6992    6.5592 N   0  0  0  0  0  0  0  0  0  0  0  0
   -4.5185   28.3884    6.1065 C   0  0  0  0  0  0  0  0  0  0  0  0
   -4.1729   30.6465    7.1432 C   0  0  0  0  0  0  0  0  0  0  0  0
   -2.7752   30.5047    7.1838 C   0  0  0  0  0  0  0  0  0  0  0  0
   -1.9429   31.4676    7.7696 C   0  0  0  0  0  0  0  0  0  0  0  0
   -2.4923   32.6130    8.3312 C   0  0  0  0  0  0  0  0  0  0  0  0
   -3.8701   32.7841    8.2981 C   0  0  0  0  0  0  0  0  0  0  0  0
   -4.6368   34.3421    9.0495 Br  0  0  0  0  0  0  0  0  0  0  0  0
   -4.6969   31.8188    7.7124 C   0  0  0  0  0  0  0  0  0  0  0  0
  1  2  2  0  0  0
  2  3  1  0  0  0
  3 15  1  0  0  0
 15 16  1  0  0  0
 16 17  1  0  0  0
 17 18  1  0  0  0
 18 19  1  0  0  0
 19 21  1  0  0  0
 21 22  2  0  0  0
 22 23  1  0  0  0
 23 24  2  0  0  0
 24 25  1  0  0  0
 25 26  1  0  0  0
 25 27  2  0  0  0
 19 20  1  0  0  0
  2  5  1  0  0  0
  5  6  2  0  0  0
  6  7  1  0  0  0
  7  8  1  0  0  0
  8  9  1  0  0  0
  9 10  2  0  0  0
 10 11  1  0  0  0
 11 12  2  0  0  0
 12 13  1  0  0  0
 20 16  1  0  0  0
 13  5  1  0  0  0
 27 21  1  0  0  0
 13  8  2  0  0  0
  3  4  1  0  0  0
  7 14  1  0  0  0
M  END
> <minimizedAffinity>
-9.76332

$$$$
OCNT-2308818


 29 33  0  0  0  0  0  0  0  0999 V2000
   -2.8819   29.1022    7.0861 C   0  0  0  0  0  0  0  0  0  0  0  0
   -3.1223   28.1482    6.1696 N   0  0  0  0  0  0  0  0  0  0  0  0
   -4.3649   28.0557    5.6662 C   0  0  0  0  0  0  0  0  0  0  0  0
   -5.4032   28.9069    6.0851 C   0  0  0  0  0  0  0  0  0  0  0  0
   -6.7463   28.8393    5.6339 C   0  0  0  0  0  0  0  0  0  0  0  0
   -7.7073   29.7296    6.1064 C   0  0  0  0  0  0  0  0  0  0  0  0
   -7.3410   30.6916    7.0368 C   0  0  0  0  0  0  0  0  0  0  0  0
   -6.0203   30.7484    7.4918 C   0  0  0  0  0  0  0  0  0  0  0  0
   -5.0454   29.8681    7.0365 C   0  0  0  0  0  0  0  0  0  0  0  0
   -3.8088   29.9753    7.5305 N   0  0  0  0  0  0  0  0  0  0  0  0
    1.0743   29.3517    8.6343 C   0  0  0  0  0  0  0  0  0  0  0  0
    0.1015   30.1890    9.1606 C   0  0  0  0  0  0  0  0  0  0  0  0
   -1.1994   30.1199    8.6640 C   0  0  0  0  0  0  0  0  0  0  0  0
   -1.5080   29.2112    7.6460 C   0  0  0  0  0  0  0  0  0  0  0  0
   -0.5469   28.3891    7.1307 N   0  0  0  0  0  0  0  0  0  0  0  0
    0.7048   28.4769    7.6296 C   0  0  0  0  0  0  0  0  0  0  0  0
   -4.6129   27.0789    4.6614 N   0  0  0  0  0  0  0  0  0  0  0  0
   -3.3268   26.6383    4.0804 C   0  0  0  0  0  0  0  0  0  0  0  0
   -3.4554   25.2692    3.4108 C   0  0  0  0  0  0  0  0  0  0  0  0
   -4.8626   25.0638    2.8516 C   0  0  0  0  0  0  0  0  0  0  0  0
   -5.8972   25.1187    3.9884 C   0  0  0  0  0  0  0  0  0  0  0  0
   -5.4331   25.9724    5.1690 C   0  0  0  0  0  0  0  0  0  0  0  0
   -4.9818   23.7739    2.2351 O   0  0  0  0  0  0  0  0  0  0  0  0
   -5.9362   23.6782    1.2455 C   0  0  0  0  0  0  0  0  0  0  0  0
   -6.6691   22.4992    1.1820 C   0  0  0  0  0  0  0  0  0  0  0  0
   -7.6285   22.2800    0.2487 N   0  0  0  0  0  0  0  0  0  0  0  0
   -7.8212   23.2987   -0.6184 C   0  0  0  0  0  0  0  0  0  0  0  0
   -7.0909   24.4756   -0.5561 C   0  0  0  0  0  0  0  0  0  0  0  0
   -6.1309   24.6924    0.3730 N   0  0  0  0  0  0  0  0  0  0  0  0
 11 12  2  0  0  0
 12 13  1  0  0  0
 13 14  2  0  0  0
 14  1  1  0  0  0
  1  2  2  0  0  0
  2  3  1  0  0  0
  3 17  1  0  0  0
 17 18  1  0  0  0
 18 19  1  0  0  0
 19 20  1  0  0  0
 20 23  1  0  0  0
 23 24  1  0  0  0
 24 25  2  0  0  0
 25 26  1  0  0  0
 26 27  2  0  0  0
 27 28  1  0  0  0
 28 29  2  0  0  0
 20 21  1  0  0  0
 21 22  1  0  0  0
  3  4  2  0  0  0
  4  5  1  0  0  0
  5  6  2  0  0  0
  6  7  1  0  0  0
  7  8  2  0  0  0
  8  9  1  0  0  0
  9 10  2  0  0  0
 14 15  1  0  0  0
 15 16  2  0  0  0
 16 11  1  0  0  0
 10  1  1  0  0  0
 22 17  1  0  0  0
  9  4  1  0  0  0
 29 24  1  0  0  0
M  END
> <minimizedAffinity>
-9.51879

$$$$
OCNT-2308832


 23 24  0  0  0  0  0  0  0  0999 V2000
   -5.8011   25.5214    2.8943 C   0  0  0  0  0  0  0  0  0  0  0  0
   -5.8984   25.5851    4.2106 N   0  0  0  0  0  0  0  0  0  0  0  0
   -5.9822   26.9304    4.4680 C   0  0  0  0  0  0  0  0  0  0  0  0
   -6.0991   27.6375    5.6722 C   0  0  0  0  0  0  0  0  0  0  0  0
   -6.1381   29.0469    5.6497 C   0  0  0  0  0  0  0  0  0  0  0  0
   -6.1379   29.7048    4.4059 C   0  0  0  0  0  0  0  0  0  0  0  0
   -6.0166   29.0183    3.1860 C   0  0  0  0  0  0  0  0  0  0  0  0
   -5.9361   27.6383    3.2812 C   0  0  0  0  0  0  0  0  0  0  0  0
   -5.8083   26.7421    2.2625 O   0  0  0  0  0  0  0  0  0  0  0  0
   -5.7358   24.7305    0.5459 C   0  0  0  0  0  0  0  0  0  0  0  0
   -5.6480   24.3047    2.0200 C   0  0  0  0  0  0  0  0  0  0  0  0
   -6.7501   23.2742    2.3232 C   0  0  0  0  0  0  0  0  0  0  0  0
   -4.2804   23.6453    2.2717 C   0  0  0  0  0  0  0  0  0  0  0  0
   -6.3057   29.7151    6.8677 N   0  0  0  0  0  0  0  0  0  0  0  0
   -6.9081   30.5353    6.7775 H   0  0  0  0  0  0  0  0  0  0  0  0
   -6.5944   28.9581    8.0919 C   0  0  0  0  0  0  0  0  0  0  0  0
   -5.5750   29.3194    9.1993 C   0  0  0  0  0  0  0  0  0  0  0  0
   -6.1296   29.0289   10.5958 C   0  0  0  0  0  0  0  0  0  0  0  0
   -4.3858   28.5085    9.0330 O   0  0  0  0  0  0  0  0  0  0  0  0
   -4.0424   28.6894    8.1366 H   0  0  0  0  0  0  0  0  0  0  0  0
   -5.2155   30.8062    9.0834 C   0  0  0  0  0  0  0  0  0  0  0  0
   -4.0152   31.0592    9.6595 F   0  0  0  0  0  0  0  0  0  0  0  0
   -6.1348   31.5449    9.7644 F   0  0  0  0  0  0  0  0  0  0  0  0
 10 11  1  0  0  0
 11 12  1  0  0  0
 11 13  1  0  0  0
 11  1  1  0  0  0
  1  2  2  0  0  0
  2  3  1  0  0  0
  3  4  2  0  0  0
  4  5  1  0  0  0
  5 14  1  0  0  0
 14 16  1  0  0  0
 16 17  1  0  0  0
 17 18  1  0  0  0
 17 19  1  0  0  0
 17 21  1  0  0  0
 21 22  1  0  0  0
 21 23  1  0  0  0
  5  6  2  0  0  0
  6  7  1  0  0  0
  7  8  2  0  0  0
  8  9  1  0  0  0
  9  1  1  0  0  0
  8  3  1  0  0  0
 14 15  1  0  0  0
 19 20  1  0  0  0
M  END
> <minimizedAffinity>
-8.12153

$$$$
OCNT-2308837


 26 28  0  0  0  0  0  0  0  0999 V2000
   -6.1454   29.5976    3.5232 C   0  0  0  0  0  0  0  0  0  0  0  0
   -5.8770   28.6140    4.6684 C   0  0  0  0  0  0  0  0  0  0  0  0
   -5.9214   27.1817    4.1449 C   0  0  0  0  0  0  0  0  0  0  0  0
   -5.6483   26.8925    2.8004 C   0  0  0  0  0  0  0  0  0  0  0  0
   -5.6928   25.5806    2.3347 C   0  0  0  0  0  0  0  0  0  0  0  0
   -6.0101   24.5347    3.2039 C   0  0  0  0  0  0  0  0  0  0  0  0
   -6.2855   24.7943    4.5539 C   0  0  0  0  0  0  0  0  0  0  0  0
   -6.2380   26.1213    5.0149 C   0  0  0  0  0  0  0  0  0  0  0  0
   -6.6093   23.7288    5.4457 N   0  0  0  0  0  0  0  0  0  0  0  0
   -7.8643   23.3273    5.8560 C   0  0  0  0  0  0  0  0  0  0  0  0
   -7.6714   22.2669    6.7094 C   0  0  0  0  0  0  0  0  0  0  0  0
   -6.3436   21.9919    6.8464 N   0  0  0  0  0  0  0  0  0  0  0  0
   -5.7338   22.8749    6.0857 C   0  0  0  0  0  0  0  0  0  0  0  0
   -4.5758   28.8663    5.3135 N   0  0  0  0  0  0  0  0  0  0  0  0
   -4.0726   27.9749    5.3186 H   0  0  0  0  0  0  0  0  0  0  0  0
   -4.7233   29.2703    6.7308 C   0  0  0  0  0  0  0  0  0  0  0  0
   -4.2712   30.7452    6.9732 C   0  0  0  0  0  0  0  0  0  0  0  0
   -5.3504   31.5487    7.7184 C   0  0  0  0  0  0  0  0  0  0  0  0
   -4.1107   31.3659    5.6831 O   0  0  0  0  0  0  0  0  0  0  0  0
   -5.0005   31.3628    5.2868 H   0  0  0  0  0  0  0  0  0  0  0  0
   -2.9475   30.7765    7.7383 C   0  0  0  0  0  0  0  0  0  0  0  0
   -2.1096   29.6504    7.7989 C   0  0  0  0  0  0  0  0  0  0  0  0
   -0.9057   29.6831    8.5075 C   0  0  0  0  0  0  0  0  0  0  0  0
   -0.5163   30.8433    9.1703 C   0  0  0  0  0  0  0  0  0  0  0  0
   -1.3301   31.9715    9.1248 C   0  0  0  0  0  0  0  0  0  0  0  0
   -2.5342   31.9387    8.4164 C   0  0  0  0  0  0  0  0  0  0  0  0
  1  2  1  0  0  0
  2 14  1  0  0  0
 14 16  1  0  0  0
 16 17  1  0  0  0
 17 18  1  0  0  0
 17 19  1  0  0  0
 17 21  1  0  0  0
 21 22  2  0  0  0
 22 23  1  0  0  0
 23 24  2  0  0  0
 24 25  1  0  0  0
 25 26  2  0  0  0
  2  3  1  0  0  0
  3  4  2  0  0  0
  4  5  1  0  0  0
  5  6  2  0  0  0
  6  7  1  0  0  0
  7  9  1  0  0  0
  9 10  1  0  0  0
 10 11  2  0  0  0
 11 12  1  0  0  0
 12 13  2  0  0  0
  7  8  2  0  0  0
 26 21  1  0  0  0
  8  3  1  0  0  0
 13  9  1  0  0  0
 14 15  1  0  0  0
 19 20  1  0  0  0
M  END
> <minimizedAffinity>
-9.45881

$$$$
OCNT-2308839


 22 24  0  0  0  0  0  0  0  0999 V2000
   -2.4301   26.8542    5.4667 C   0  0  0  0  0  0  0  0  0  0  0  0
   -2.5452   25.8997    4.4811 C   0  0  0  0  0  0  0  0  0  0  0  0
   -3.8720   25.9258    4.1127 N   0  0  0  0  0  0  0  0  0  0  0  0
   -4.5189   26.8644    4.8478 N   0  0  0  0  0  0  0  0  0  0  0  0
   -3.6524   27.4261    5.6773 N   0  0  0  0  0  0  0  0  0  0  0  0
   -4.5428   25.1449    3.1363 C   0  0  0  0  0  0  0  0  0  0  0  0
   -5.2248   25.7943    2.0784 C   0  0  0  0  0  0  0  0  0  0  0  0
   -5.8963   25.0544    1.0985 C   0  0  0  0  0  0  0  0  0  0  0  0
   -5.8688   23.6818    1.2012 C   0  0  0  0  0  0  0  0  0  0  0  0
   -6.4618   22.8078    0.3457 O   0  0  0  0  0  0  0  0  0  0  0  0
   -6.1005   21.5482    0.9484 C   0  0  0  0  0  0  0  0  0  0  0  0
   -5.3034   21.6924    2.1434 O   0  0  0  0  0  0  0  0  0  0  0  0
   -5.2082   23.0471    2.2264 C   0  0  0  0  0  0  0  0  0  0  0  0
   -4.5353   23.7434    3.2105 C   0  0  0  0  0  0  0  0  0  0  0  0
   -1.2356   27.2829    6.2500 C   0  0  0  0  0  0  0  0  0  0  0  0
   -1.5808   28.3732    7.2865 C   0  0  0  0  0  0  0  0  0  0  0  0
   -1.5506   27.7895    8.5979 O   0  0  0  0  0  0  0  0  0  0  0  0
   -2.1630   27.0266    8.5872 H   0  0  0  0  0  0  0  0  0  0  0  0
   -1.3876   30.8313    6.7016 C   0  0  0  0  0  0  0  0  0  0  0  0
   -0.6306   29.6122    7.2740 C   0  0  0  0  0  0  0  0  0  0  0  0
    0.5962   29.3556    6.3785 C   0  0  0  0  0  0  0  0  0  0  0  0
   -0.1496   29.9718    8.6921 C   0  0  0  0  0  0  0  0  0  0  0  0
 19 20  1  0  0  0
 20 21  1  0  0  0
 20 22  1  0  0  0
 20 16  1  0  0  0
 16 17  1  0  0  0
 16 15  1  0  0  0
 15  1  1  0  0  0
  1  2  2  0  0  0
  2  3  1  0  0  0
  3  6  1  0  0  0
  6  7  1  0  0  0
  7  8  2  0  0  0
  8  9  1  0  0  0
  9 10  1  0  0  0
 10 11  1  0  0  0
 11 12  1  0  0  0
 12 13  1  0  0  0
 13 14  1  0  0  0
  3  4  1  0  0  0
  4  5  2  0  0  0
  5  1  1  0  0  0
 14  6  2  0  0  0
 13  9  2  0  0  0
 17 18  1  0  0  0
M  END
> <minimizedAffinity>
-8.45862

$$$$
OCNT-2308851


 28 31  0  0  0  0  0  0  0  0999 V2000
   -6.5328   28.5767    5.8519 C   0  0  0  0  0  0  0  0  0  0  0  0
   -6.5454   27.2727    5.8628 N   0  0  0  0  0  0  0  0  0  0  0  0
   -6.2788   26.6978    4.6577 C   0  0  0  0  0  0  0  0  0  0  0  0
   -6.0123   27.3713    3.4877 C   0  0  0  0  0  0  0  0  0  0  0  0
   -5.8008   26.3964    2.5191 C   0  0  0  0  0  0  0  0  0  0  0  0
   -5.9130   25.1638    3.0167 N   0  0  0  0  0  0  0  0  0  0  0  0
   -6.2201   25.3382    4.3459 N   0  0  0  0  0  0  0  0  0  0  0  0
   -6.0035   28.8025    3.4832 C   0  0  0  0  0  0  0  0  0  0  0  0
   -5.7936   29.4942    2.4942 O   0  0  0  0  0  0  0  0  0  0  0  0
   -6.2619   29.3403    4.7256 N   0  0  0  0  0  0  0  0  0  0  0  0
   -6.2829   30.3473    4.7655 H   0  0  0  0  0  0  0  0  0  0  0  0
   -6.4224   24.1955    5.1798 C   0  0  0  0  0  0  0  0  0  0  0  0
   -5.3533   23.4585    5.7043 C   0  0  0  0  0  0  0  0  0  0  0  0
   -5.5942   22.3435    6.5148 C   0  0  0  0  0  0  0  0  0  0  0  0
   -6.8989   21.9553    6.8087 C   0  0  0  0  0  0  0  0  0  0  0  0
   -7.9697   22.6817    6.2955 C   0  0  0  0  0  0  0  0  0  0  0  0
   -7.7352   23.7961    5.4863 C   0  0  0  0  0  0  0  0  0  0  0  0
   -6.8268   29.3701    7.1231 C   0  0  0  0  0  0  0  0  0  0  0  0
   -2.5609   31.9008   10.0272 C   0  0  0  0  0  0  0  0  0  0  0  0
   -3.3856   30.9890    9.1157 C   0  0  0  0  0  0  0  0  0  0  0  0
   -4.4516   30.2555    9.9364 C   0  0  0  0  0  0  0  0  0  0  0  0
   -5.3116   29.3361    9.0576 C   0  0  0  0  0  0  0  0  0  0  0  0
   -5.5710   29.8664    7.7111 N   0  0  0  0  0  0  0  0  0  0  0  0
   -5.4919   31.3269    7.6805 C   0  0  0  0  0  0  0  0  0  0  0  0
   -4.0413   31.7834    7.9481 C   0  0  0  0  0  0  0  0  0  0  0  0
   -3.2090   31.6677    6.6586 C   0  0  0  0  0  0  0  0  0  0  0  0
   -4.0224   31.2841    5.5560 O   0  0  0  0  0  0  0  0  0  0  0  0
   -4.4767   32.0843    5.2415 H   0  0  0  0  0  0  0  0  0  0  0  0
 19 20  1  0  0  0
 20 21  1  0  0  0
 21 22  1  0  0  0
 22 23  1  0  0  0
 23 18  1  0  0  0
 18  1  1  0  0  0
  1  2  2  0  0  0
  2  3  1  0  0  0
  3  4  2  0  0  0
  4  5  1  0  0  0
  5  6  2  0  0  0
  6  7  1  0  0  0
  7 12  1  0  0  0
 12 13  2  0  0  0
 13 14  1  0  0  0
 14 15  2  0  0  0
 15 16  1  0  0  0
 16 17  2  0  0  0
  4  8  1  0  0  0
  8  9  2  0  0  0
  8 10  1  0  0  0
 23 24  1  0  0  0
 24 25  1  0  0  0
 25 26  1  0  0  0
 26 27  1  0  0  0
 25 20  1  0  0  0
 10  1  1  0  0  0
  7  3  1  0  0  0
 17 12  1  0  0  0
 10 11  1  0  0  0
 27 28  1  0  0  0
M  END
> <minimizedAffinity>
-9.22619

$$$$
OCNT-2308854


 26 29  0  0  0  0  0  0  0  0999 V2000
   -7.0375   29.7802    6.2239 O   0  0  0  0  0  0  0  0  0  0  0  0
   -5.8504   29.9004    5.9335 C   0  0  0  0  0  0  0  0  0  0  0  0
   -5.3529   29.5360    4.6958 N   0  0  0  0  0  0  0  0  0  0  0  0
   -4.3549   29.4743    4.5753 H   0  0  0  0  0  0  0  0  0  0  0  0
   -4.8511   30.4276    6.8764 C   0  0  0  0  0  0  0  0  0  0  0  0
   -4.8991   30.4359    8.2623 C   0  0  0  0  0  0  0  0  0  0  0  0
   -3.7310   31.0229    8.6810 N   0  0  0  0  0  0  0  0  0  0  0  0
   -3.2791   31.2736    9.9749 C   0  0  0  0  0  0  0  0  0  0  0  0
   -2.0856   31.8677   10.1467 C   0  0  0  0  0  0  0  0  0  0  0  0
   -1.3038   32.2295    8.9731 C   0  0  0  0  0  0  0  0  0  0  0  0
   -1.7499   31.9816    7.7256 C   0  0  0  0  0  0  0  0  0  0  0  0
   -3.0133   31.3526    7.5399 C   0  0  0  0  0  0  0  0  0  0  0  0
   -3.6626   31.0050    6.4518 N   0  0  0  0  0  0  0  0  0  0  0  0
   -6.1817   28.8683    3.7205 C   0  0  0  0  0  0  0  0  0  0  0  0
   -5.9674   27.3768    3.7669 C   0  0  0  0  0  0  0  0  0  0  0  0
   -6.2016   26.6699    4.9532 C   0  0  0  0  0  0  0  0  0  0  0  0
   -5.9918   25.2934    5.0096 C   0  0  0  0  0  0  0  0  0  0  0  0
   -5.5433   24.6071    3.8814 C   0  0  0  0  0  0  0  0  0  0  0  0
   -5.2991   25.2906    2.6816 C   0  0  0  0  0  0  0  0  0  0  0  0
   -5.5019   26.6808    2.6408 C   0  0  0  0  0  0  0  0  0  0  0  0
   -4.7910   24.5387    1.4755 C   0  0  0  0  0  0  0  0  0  0  0  0
   -5.8663   23.9746    0.6767 N   0  0  0  0  0  0  0  0  0  0  0  0
   -6.2657   22.6660    0.6625 C   0  0  0  0  0  0  0  0  0  0  0  0
   -7.3348   22.6323   -0.2022 C   0  0  0  0  0  0  0  0  0  0  0  0
   -7.5958   23.8814   -0.7023 N   0  0  0  0  0  0  0  0  0  0  0  0
   -6.6984   24.6700   -0.1547 C   0  0  0  0  0  0  0  0  0  0  0  0
  1  2  2  0  0  0
  2  3  1  0  0  0
  3 14  1  0  0  0
 14 15  1  0  0  0
 15 16  1  0  0  0
 16 17  2  0  0  0
 17 18  1  0  0  0
 18 19  2  0  0  0
 19 21  1  0  0  0
 21 22  1  0  0  0
 22 23  1  0  0  0
 23 24  2  0  0  0
 24 25  1  0  0  0
 25 26  2  0  0  0
 19 20  1  0  0  0
  2  5  1  0  0  0
  5  6  2  0  0  0
  6  7  1  0  0  0
  7  8  1  0  0  0
  8  9  2  0  0  0
  9 10  1  0  0  0
 10 11  2  0  0  0
 11 12  1  0  0  0
 12 13  2  0  0  0
 20 15  2  0  0  0
 13  5  1  0  0  0
 26 22  1  0  0  0
 12  7  1  0  0  0
  3  4  1  0  0  0
M  END
> <minimizedAffinity>
-9.48507

$$$$
OCNT-2308858


 26 29  0  0  0  0  0  0  0  0999 V2000
   -5.4437   29.0474    6.2475 N   0  0  0  0  0  0  0  0  0  0  0  0
   -6.3960   29.9270    6.7404 C   0  0  0  0  0  0  0  0  0  0  0  0
   -7.5372   30.0751    6.3214 O   0  0  0  0  0  0  0  0  0  0  0  0
   -4.5427   29.0543    6.7094 H   0  0  0  0  0  0  0  0  0  0  0  0
   -6.3597   22.8731    1.4103 C   0  0  0  0  0  0  0  0  0  0  0  0
   -6.0725   23.8581    2.4363 N   0  0  0  0  0  0  0  0  0  0  0  0
   -6.4512   23.5344    3.8038 C   0  0  0  0  0  0  0  0  0  0  0  0
   -5.6458   24.3386    4.8179 C   0  0  0  0  0  0  0  0  0  0  0  0
   -5.7023   25.8026    4.4830 C   0  0  0  0  0  0  0  0  0  0  0  0
   -5.5635   26.7753    5.4864 C   0  0  0  0  0  0  0  0  0  0  0  0
   -5.5809   28.1429    5.1742 C   0  0  0  0  0  0  0  0  0  0  0  0
   -5.7268   28.5288    3.8411 C   0  0  0  0  0  0  0  0  0  0  0  0
   -5.8489   27.5664    2.8319 C   0  0  0  0  0  0  0  0  0  0  0  0
   -5.8357   26.2048    3.1468 C   0  0  0  0  0  0  0  0  0  0  0  0
   -5.9491   25.1955    2.0514 C   0  0  0  0  0  0  0  0  0  0  0  0
   -5.9284   25.5628    0.8806 O   0  0  0  0  0  0  0  0  0  0  0  0
   -5.8485   30.7341    7.9070 C   0  0  0  0  0  0  0  0  0  0  0  0
   -4.8445   31.8021    7.4662 C   0  0  0  0  0  0  0  0  0  0  0  0
   -5.0869   33.1785    8.1299 C   0  0  0  0  0  0  0  0  0  0  0  0
   -4.2802   33.1992    9.4369 C   0  0  0  0  0  0  0  0  0  0  0  0
   -3.1499   32.2818    9.0946 C   0  0  0  0  0  0  0  0  0  0  0  0
   -1.9415   32.1386    9.7552 C   0  0  0  0  0  0  0  0  0  0  0  0
   -1.0308   31.1956    9.2741 C   0  0  0  0  0  0  0  0  0  0  0  0
   -1.3401   30.4091    8.1534 C   0  0  0  0  0  0  0  0  0  0  0  0
   -2.5662   30.5518    7.5006 C   0  0  0  0  0  0  0  0  0  0  0  0
   -3.4640   31.4909    7.9835 C   0  0  0  0  0  0  0  0  0  0  0  0
  5  6  1  0  0  0
  6  7  1  0  0  0
  7  8  1  0  0  0
  8  9  1  0  0  0
  9 10  1  0  0  0
 10 11  2  0  0  0
 11  1  1  0  0  0
  1  2  1  0  0  0
  2  3  2  0  0  0
  2 17  1  0  0  0
 17 18  1  0  0  0
 18 19  1  0  0  0
 19 20  1  0  0  0
 20 21  1  0  0  0
 21 22  2  0  0  0
 22 23  1  0  0  0
 23 24  2  0  0  0
 24 25  1  0  0  0
 25 26  2  0  0  0
 11 12  1  0  0  0
 12 13  2  0  0  0
 13 14  1  0  0  0
 14 15  1  0  0  0
 15 16  2  0  0  0
 15  6  1  0  0  0
 14  9  2  0  0  0
 26 18  1  0  0  0
 26 21  1  0  0  0
  1  4  1  0  0  0
M  END
> <minimizedAffinity>
-10.39270

$$$$
OCNT-2308864


 26 29  0  0  0  0  0  0  0  0999 V2000
   -3.0701   30.8871    8.9778 C   0  0  0  0  0  0  0  0  0  0  0  0
   -3.3547   30.3016   10.0204 O   0  0  0  0  0  0  0  0  0  0  0  0
   -2.0085   30.5360    8.1370 N   0  0  0  0  0  0  0  0  0  0  0  0
   -1.7910   31.1433    6.8298 C   0  0  0  0  0  0  0  0  0  0  0  0
   -1.1636   29.3988    8.5726 C   0  0  0  0  0  0  0  0  0  0  0  0
    0.3280   29.4732    8.2213 C   0  0  0  0  0  0  0  0  0  0  0  0
    0.6749   29.0987    6.7812 C   0  0  0  0  0  0  0  0  0  0  0  0
   -0.1734   28.0075    6.1835 C   0  0  0  0  0  0  0  0  0  0  0  0
    0.1901   27.4817    4.9326 C   0  0  0  0  0  0  0  0  0  0  0  0
   -0.5784   26.4902    4.3235 C   0  0  0  0  0  0  0  0  0  0  0  0
   -1.7214   26.0133    4.9557 C   0  0  0  0  0  0  0  0  0  0  0  0
   -2.0967   26.5321    6.1943 C   0  0  0  0  0  0  0  0  0  0  0  0
   -1.3377   27.5398    6.8114 C   0  0  0  0  0  0  0  0  0  0  0  0
   -1.7570   28.0350    8.1728 C   0  0  0  0  0  0  0  0  0  0  0  0
   -5.0878   31.8109    7.7991 C   0  0  0  0  0  0  0  0  0  0  0  0
   -5.8269   32.9486    7.4270 C   0  0  0  0  0  0  0  0  0  0  0  0
   -5.4389   34.2292    7.8358 C   0  0  0  0  0  0  0  0  0  0  0  0
   -4.2981   34.4001    8.6162 C   0  0  0  0  0  0  0  0  0  0  0  0
   -3.5452   33.2904    8.9908 C   0  0  0  0  0  0  0  0  0  0  0  0
   -3.9489   32.0056    8.5960 C   0  0  0  0  0  0  0  0  0  0  0  0
   -5.3297   28.0136    4.8703 C   0  0  0  0  0  0  0  0  0  0  0  0
   -5.6373   28.8153    6.0654 C   0  0  0  0  0  0  0  0  0  0  0  0
   -6.4119   28.5352    7.0896 N   0  0  0  0  0  0  0  0  0  0  0  0
   -6.3349   29.6205    7.9382 N   0  0  0  0  0  0  0  0  0  0  0  0
   -5.5215   30.4887    7.3717 C   0  0  0  0  0  0  0  0  0  0  0  0
   -5.0477   30.0460    6.1607 O   0  0  0  0  0  0  0  0  0  0  0  0
 21 22  1  0  0  0
 22 23  2  0  0  0
 23 24  1  0  0  0
 24 25  2  0  0  0
 25 15  1  0  0  0
 15 16  2  0  0  0
 16 17  1  0  0  0
 17 18  2  0  0  0
 18 19  1  0  0  0
 19 20  2  0  0  0
 20  1  1  0  0  0
  1  2  2  0  0  0
  1  3  1  0  0  0
  3  4  1  0  0  0
  3  5  1  0  0  0
  5  6  1  0  0  0
  6  7  1  0  0  0
  7  8  1  0  0  0
  8  9  2  0  0  0
  9 10  1  0  0  0
 10 11  2  0  0  0
 11 12  1  0  0  0
 12 13  2  0  0  0
 13 14  1  0  0  0
 25 26  1  0  0  0
 26 22  1  0  0  0
 20 15  1  0  0  0
 14  5  1  0  0  0
 13  8  1  0  0  0
M  END
> <minimizedAffinity>
-9.11248

$$$$
OCNT-2308872


 23 25  0  0  0  0  0  0  0  0999 V2000
   -5.3085   30.7412    6.4564 N   0  0  0  0  0  0  0  0  0  0  0  0
   -6.1002   29.6421    6.6587 C   0  0  0  0  0  0  0  0  0  0  0  0
   -6.4712   29.2366    7.7507 O   0  0  0  0  0  0  0  0  0  0  0  0
   -5.2248   31.1069    5.5176 H   0  0  0  0  0  0  0  0  0  0  0  0
   -6.5366   28.9583    5.4186 C   0  0  0  0  0  0  0  0  0  0  0  0
   -6.2167   29.4818    4.0432 C   0  0  0  0  0  0  0  0  0  0  0  0
   -5.4780   28.2757    4.5663 C   0  0  0  0  0  0  0  0  0  0  0  0
   -5.7528   26.8956    4.0238 C   0  0  0  0  0  0  0  0  0  0  0  0
   -6.1211   25.8477    4.8774 C   0  0  0  0  0  0  0  0  0  0  0  0
   -6.3474   24.5847    4.3525 C   0  0  0  0  0  0  0  0  0  0  0  0
   -6.2348   24.2881    3.0418 N   0  0  0  0  0  0  0  0  0  0  0  0
   -5.8708   25.2992    2.2275 C   0  0  0  0  0  0  0  0  0  0  0  0
   -5.6202   26.5917    2.6642 C   0  0  0  0  0  0  0  0  0  0  0  0
   -4.9391   31.5943    7.5579 C   0  0  0  0  0  0  0  0  0  0  0  0
   -1.3398   30.1525    8.1988 C   0  0  0  0  0  0  0  0  0  0  0  0
   -1.5165   31.1763    9.1090 C   0  0  0  0  0  0  0  0  0  0  0  0
   -2.7899   31.8013    8.9822 C   0  0  0  0  0  0  0  0  0  0  0  0
   -3.5508   31.2371    7.9773 C   0  0  0  0  0  0  0  0  0  0  0  0
   -2.7092   29.9643    7.1942 S   0  0  0  0  0  0  0  0  0  0  0  0
    0.6748   29.5201    6.3445 C   0  0  0  0  0  0  0  0  0  0  0  0
    0.0199   29.0396    7.9209 S   0  0  0  0  0  0  0  0  0  0  0  0
    0.9857   29.3832    8.9456 O   0  0  0  0  0  0  0  0  0  0  0  0
   -0.5582   27.7149    7.8254 O   0  0  0  0  0  0  0  0  0  0  0  0
 20 21  1  0  0  0
 21 22  2  0  0  0
 21 23  2  0  0  0
 21 15  1  0  0  0
 15 16  2  0  0  0
 16 17  1  0  0  0
 17 18  2  0  0  0
 18 14  1  0  0  0
 14  1  1  0  0  0
  1  2  1  0  0  0
  2  3  2  0  0  0
  2  5  1  0  0  0
  5  6  1  0  0  0
  6  7  1  0  0  0
  7  8  1  0  0  0
  8  9  2  0  0  0
  9 10  1  0  0  0
 10 11  2  0  0  0
 11 12  1  0  0  0
 12 13  2  0  0  0
 18 19  1  0  0  0
 19 15  1  0  0  0
  7  5  1  0  0  0
 13  8  1  0  0  0
  1  4  1  0  0  0
M  END
> <minimizedAffinity>
-8.24634

$$$$
OCNT-2308879


 28 30  0  0  0  0  0  0  0  0999 V2000
   -3.4730   27.2968    5.0653 N   0  0  0  0  0  0  0  0  0  0  0  0
   -3.2799   27.5723    6.3955 C   0  0  0  0  0  0  0  0  0  0  0  0
   -2.6362   26.8205    7.1247 O   0  0  0  0  0  0  0  0  0  0  0  0
   -3.8793   28.7474    6.8470 N   0  0  0  0  0  0  0  0  0  0  0  0
   -4.3136   29.8300    5.9574 C   0  0  0  0  0  0  0  0  0  0  0  0
   -5.6924   30.4103    6.2740 C   0  0  0  0  0  0  0  0  0  0  0  0
   -6.6945   29.3932    6.8210 C   0  0  0  0  0  0  0  0  0  0  0  0
   -6.3762   28.8139    8.2089 C   0  0  0  0  0  0  0  0  0  0  0  0
   -5.1688   29.4378    8.9140 C   0  0  0  0  0  0  0  0  0  0  0  0
   -3.8126   29.0142    8.2983 C   0  0  0  0  0  0  0  0  0  0  0  0
   -4.3836   27.5659    4.7279 H   0  0  0  0  0  0  0  0  0  0  0  0
   -2.6316   29.9104    8.6569 C   0  0  0  0  0  0  0  0  0  0  0  0
   -2.8749   31.1951    9.1569 C   0  0  0  0  0  0  0  0  0  0  0  0
   -1.8051   32.0060    9.5044 C   0  0  0  0  0  0  0  0  0  0  0  0
   -0.5158   31.6330    9.3940 N   0  0  0  0  0  0  0  0  0  0  0  0
   -0.2908   30.3880    8.9281 C   0  0  0  0  0  0  0  0  0  0  0  0
   -1.2965   29.5031    8.5601 C   0  0  0  0  0  0  0  0  0  0  0  0
   -2.9602   26.0678    4.4737 C   0  0  0  0  0  0  0  0  0  0  0  0
   -1.5578   26.3157    3.9122 C   0  0  0  0  0  0  0  0  0  0  0  0
   -5.7874   24.6733    1.4644 C   0  0  0  0  0  0  0  0  0  0  0  0
   -5.7848   26.0019    1.8878 C   0  0  0  0  0  0  0  0  0  0  0  0
   -4.8760   26.4287    2.8664 C   0  0  0  0  0  0  0  0  0  0  0  0
   -3.9522   25.5413    3.4462 C   0  0  0  0  0  0  0  0  0  0  0  0
   -3.9505   24.2128    3.0022 C   0  0  0  0  0  0  0  0  0  0  0  0
   -4.8615   23.7930    2.0320 C   0  0  0  0  0  0  0  0  0  0  0  0
   -4.8307   22.5086    1.6453 F   0  0  0  0  0  0  0  0  0  0  0  0
   -6.9077   24.9417   -0.6191 C   0  0  0  0  0  0  0  0  0  0  0  0
   -6.6199   24.1387    0.5177 O   0  0  0  0  0  0  0  0  0  0  0  0
 27 28  1  0  0  0
 28 20  1  0  0  0
 20 21  1  0  0  0
 21 22  2  0  0  0
 22 23  1  0  0  0
 23 18  1  0  0  0
 18 19  1  0  0  0
 18  1  1  0  0  0
  1  2  1  0  0  0
  2  3  2  0  0  0
  2  4  1  0  0  0
  4  5  1  0  0  0
  5  6  1  0  0  0
  6  7  1  0  0  0
  7  8  1  0  0  0
  8  9  1  0  0  0
  9 10  1  0  0  0
 10 12  1  0  0  0
 12 13  2  0  0  0
 13 14  1  0  0  0
 14 15  2  0  0  0
 15 16  1  0  0  0
 16 17  2  0  0  0
 23 24  2  0  0  0
 24 25  1  0  0  0
 25 26  1  0  0  0
 25 20  2  0  0  0
 10  4  1  0  0  0
 17 12  1  0  0  0
  1 11  1  0  0  0
M  END
> <minimizedAffinity>
-9.12264

$$$$
OCNT-2308899


 25 27  0  0  0  0  0  0  0  0999 V2000
   -5.7345   32.3476    8.3931 N   0  0  0  0  0  0  0  0  0  0  0  0
   -6.5171   32.8483    8.7969 H   0  0  0  0  0  0  0  0  0  0  0  0
   -5.8918   31.0947    7.9235 C   0  0  0  0  0  0  0  0  0  0  0  0
   -5.7656   30.7178    6.6545 N   0  0  0  0  0  0  0  0  0  0  0  0
   -6.0103   29.3786    6.6574 N   0  0  0  0  0  0  0  0  0  0  0  0
   -6.2943   28.9241    7.9306 C   0  0  0  0  0  0  0  0  0  0  0  0
   -6.2240   30.0136    8.7630 C   0  0  0  0  0  0  0  0  0  0  0  0
   -5.9734   28.5784    5.4633 C   0  0  0  0  0  0  0  0  0  0  0  0
   -5.9529   27.2308    5.5874 N   0  0  0  0  0  0  0  0  0  0  0  0
   -5.9190   26.5180    4.4477 C   0  0  0  0  0  0  0  0  0  0  0  0
   -5.9028   27.0868    3.1973 C   0  0  0  0  0  0  0  0  0  0  0  0
   -5.9236   28.4605    3.1685 C   0  0  0  0  0  0  0  0  0  0  0  0
   -5.9581   29.2290    4.2735 N   0  0  0  0  0  0  0  0  0  0  0  0
   -4.6104   33.1728    7.9721 C   0  0  0  0  0  0  0  0  0  0  0  0
   -3.4580   33.1007    8.9799 C   0  0  0  0  0  0  0  0  0  0  0  0
   -0.4788   30.2030    7.7695 C   0  0  0  0  0  0  0  0  0  0  0  0
   -0.5652   30.6182    9.1069 C   0  0  0  0  0  0  0  0  0  0  0  0
   -1.5239   31.5547    9.5008 C   0  0  0  0  0  0  0  0  0  0  0  0
   -2.4069   32.1007    8.5621 C   0  0  0  0  0  0  0  0  0  0  0  0
   -2.3206   31.6919    7.2252 C   0  0  0  0  0  0  0  0  0  0  0  0
   -1.3627   30.7555    6.8314 C   0  0  0  0  0  0  0  0  0  0  0  0
    1.0473   29.4623    6.0909 F   0  0  0  0  0  0  0  0  0  0  0  0
    0.5719   29.2093    7.3418 C   0  0  0  0  0  0  0  0  0  0  0  0
    1.6627   29.1993    8.1595 F   0  0  0  0  0  0  0  0  0  0  0  0
    0.1189   27.9243    7.3161 F   0  0  0  0  0  0  0  0  0  0  0  0
 22 23  1  0  0  0
 23 24  1  0  0  0
 23 25  1  0  0  0
 23 16  1  0  0  0
 16 17  1  0  0  0
 17 18  2  0  0  0
 18 19  1  0  0  0
 19 15  1  0  0  0
 15 14  1  0  0  0
 14  1  1  0  0  0
  1  3  1  0  0  0
  3  4  2  0  0  0
  4  5  1  0  0  0
  5  8  1  0  0  0
  8  9  2  0  0  0
  9 10  1  0  0  0
 10 11  2  0  0  0
 11 12  1  0  0  0
 12 13  2  0  0  0
  5  6  1  0  0  0
  6  7  2  0  0  0
 19 20  2  0  0  0
 20 21  1  0  0  0
 21 16  2  0  0  0
  7  3  1  0  0  0
 13  8  1  0  0  0
  1  2  1  0  0  0
M  END
> <minimizedAffinity>
-9.25111

$$$$
OCNT-2308903


 23 25  0  0  0  0  0  0  0  0999 V2000
   -4.6480   25.8065    4.5213 C   0  0  0  0  0  0  0  0  0  0  0  0
   -2.6697   28.0611    6.4733 C   0  0  0  0  0  0  0  0  0  0  0  0
   -2.7296   26.8781    5.7786 C   0  0  0  0  0  0  0  0  0  0  0  0
   -4.0136   26.8376    5.3193 N   0  0  0  0  0  0  0  0  0  0  0  0
   -4.7122   27.9165    5.7090 N   0  0  0  0  0  0  0  0  0  0  0  0
   -3.8923   28.6781    6.4214 N   0  0  0  0  0  0  0  0  0  0  0  0
   -2.5107   30.1659    8.9495 C   0  0  0  0  0  0  0  0  0  0  0  0
   -1.4083   29.5528    8.2563 N   0  0  0  0  0  0  0  0  0  0  0  0
   -0.0893   29.7704    8.5489 C   0  0  0  0  0  0  0  0  0  0  0  0
    0.7036   29.0792    7.7627 N   0  0  0  0  0  0  0  0  0  0  0  0
   -0.1389   28.3873    6.9291 C   0  0  0  0  0  0  0  0  0  0  0  0
   -1.4586   28.6651    7.2150 C   0  0  0  0  0  0  0  0  0  0  0  0
   -4.9141   26.2920    3.0931 C   0  0  0  0  0  0  0  0  0  0  0  0
   -4.3530   27.6076    2.9464 O   0  0  0  0  0  0  0  0  0  0  0  0
   -4.7042   27.9815    2.1175 H   0  0  0  0  0  0  0  0  0  0  0  0
   -4.2542   25.3847    2.0416 C   0  0  0  0  0  0  0  0  0  0  0  0
   -5.2205   24.5348    1.2568 C   0  0  0  0  0  0  0  0  0  0  0  0
   -6.1830   25.1314    0.4273 C   0  0  0  0  0  0  0  0  0  0  0  0
   -7.0784   24.3462   -0.3047 C   0  0  0  0  0  0  0  0  0  0  0  0
   -7.0244   22.9573   -0.2110 C   0  0  0  0  0  0  0  0  0  0  0  0
   -6.0776   22.3655    0.6150 C   0  0  0  0  0  0  0  0  0  0  0  0
   -6.0296   21.0306    0.7127 F   0  0  0  0  0  0  0  0  0  0  0  0
   -5.1794   23.1369    1.3468 C   0  0  0  0  0  0  0  0  0  0  0  0
  7  8  1  0  0  0
  8  9  1  0  0  0
  9 10  2  0  0  0
 10 11  1  0  0  0
 11 12  2  0  0  0
 12  2  1  0  0  0
  2  3  2  0  0  0
  3  4  1  0  0  0
  4  1  1  0  0  0
  1 13  1  0  0  0
 13 14  1  0  0  0
 13 16  1  0  0  0
 16 17  1  0  0  0
 17 18  2  0  0  0
 18 19  1  0  0  0
 19 20  2  0  0  0
 20 21  1  0  0  0
 21 22  1  0  0  0
 21 23  2  0  0  0
  4  5  1  0  0  0
  5  6  2  0  0  0
 12  8  1  0  0  0
  6  2  1  0  0  0
 23 17  1  0  0  0
 14 15  1  0  0  0
M  END
> <minimizedAffinity>
-8.68685

$$$$
OCNT-2308915


 25 27  0  0  0  0  0  0  0  0999 V2000
   -4.8267   28.8384    7.3275 N   0  0  0  0  0  0  0  0  0  0  0  0
   -3.9014   28.1626    6.5792 C   0  0  0  0  0  0  0  0  0  0  0  0
   -2.6961   28.2431    6.7982 O   0  0  0  0  0  0  0  0  0  0  0  0
   -4.4333   27.3886    5.5612 N   0  0  0  0  0  0  0  0  0  0  0  0
   -5.8096   27.4928    5.0737 C   0  0  0  0  0  0  0  0  0  0  0  0
   -5.9115   27.1703    3.5871 C   0  0  0  0  0  0  0  0  0  0  0  0
   -5.4005   25.7531    3.2634 C   0  0  0  0  0  0  0  0  0  0  0  0
   -4.2426   25.3403    4.1961 C   0  0  0  0  0  0  0  0  0  0  0  0
   -3.5203   26.5399    4.7997 C   0  0  0  0  0  0  0  0  0  0  0  0
   -5.7352   28.4105    7.3930 H   0  0  0  0  0  0  0  0  0  0  0  0
   -5.2150   29.3172    9.7175 C   0  0  0  0  0  0  0  0  0  0  0  0
   -4.4245   29.6591    8.4538 C   0  0  0  0  0  0  0  0  0  0  0  0
   -4.6001   31.0858    8.0381 C   0  0  0  0  0  0  0  0  0  0  0  0
   -4.1179   31.7440    6.9222 C   0  0  0  0  0  0  0  0  0  0  0  0
   -4.5634   33.0307    7.0089 N   0  0  0  0  0  0  0  0  0  0  0  0
   -5.2943   33.2681    8.1076 N   0  0  0  0  0  0  0  0  0  0  0  0
   -5.3160   32.0894    8.7334 C   0  0  0  0  0  0  0  0  0  0  0  0
   -4.4089   33.7958    6.3603 H   0  0  0  0  0  0  0  0  0  0  0  0
   -5.0211   25.6754    1.7688 C   0  0  0  0  0  0  0  0  0  0  0  0
   -5.7513   24.5971    1.0029 C   0  0  0  0  0  0  0  0  0  0  0  0
   -6.6819   24.9335    0.0099 C   0  0  0  0  0  0  0  0  0  0  0  0
   -7.3549   23.9365   -0.6984 C   0  0  0  0  0  0  0  0  0  0  0  0
   -7.1025   22.5941   -0.4243 C   0  0  0  0  0  0  0  0  0  0  0  0
   -6.1751   22.2475    0.5561 C   0  0  0  0  0  0  0  0  0  0  0  0
   -5.5009   23.2433    1.2650 C   0  0  0  0  0  0  0  0  0  0  0  0
 11 12  1  0  0  0
 12  1  1  0  0  0
  1  2  1  0  0  0
  2  3  2  0  0  0
  2  4  1  0  0  0
  4  5  1  0  0  0
  5  6  1  0  0  0
  6  7  1  0  0  0
  7 19  1  0  0  0
 19 20  1  0  0  0
 20 21  2  0  0  0
 21 22  1  0  0  0
 22 23  2  0  0  0
 23 24  1  0  0  0
 24 25  2  0  0  0
  7  8  1  0  0  0
  8  9  1  0  0  0
 12 13  1  0  0  0
 13 14  2  0  0  0
 14 15  1  0  0  0
 15 16  1  0  0  0
 16 17  2  0  0  0
  9  4  1  0  0  0
 17 13  1  0  0  0
 25 20  1  0  0  0
  1 10  1  0  0  0
 15 18  1  0  0  0
M  END
> <minimizedAffinity>
-9.39043

$$$$
OCNT-2308924


 24 26  0  0  0  0  0  0  0  0999 V2000
   -5.6463   27.2302    4.1551 C   0  0  0  0  0  0  0  0  0  0  0  0
   -6.1003   28.3643    3.4811 C   0  0  0  0  0  0  0  0  0  0  0  0
   -6.0567   29.6019    4.1148 C   0  0  0  0  0  0  0  0  0  0  0  0
   -5.5450   29.7094    5.4131 C   0  0  0  0  0  0  0  0  0  0  0  0
   -5.0450   28.5940    6.0965 C   0  0  0  0  0  0  0  0  0  0  0  0
   -5.1127   27.3479    5.4481 C   0  0  0  0  0  0  0  0  0  0  0  0
   -5.7595   25.9681    2.0799 N   0  0  0  0  0  0  0  0  0  0  0  0
   -5.7223   25.9174    3.4627 C   0  0  0  0  0  0  0  0  0  0  0  0
   -5.7178   24.8836    4.1179 O   0  0  0  0  0  0  0  0  0  0  0  0
   -5.5868   26.8781    1.6662 H   0  0  0  0  0  0  0  0  0  0  0  0
   -4.4262   24.1485    1.1345 C   0  0  0  0  0  0  0  0  0  0  0  0
   -5.8154   24.7856    1.1776 C   0  0  0  0  0  0  0  0  0  0  0  0
   -6.9626   23.7827    1.4547 C   0  0  0  0  0  0  0  0  0  0  0  0
   -7.1851   23.6893   -0.0719 C   0  0  0  0  0  0  0  0  0  0  0  0
   -6.5833   22.6337   -0.6709 F   0  0  0  0  0  0  0  0  0  0  0  0
   -8.4718   23.6797   -0.4833 F   0  0  0  0  0  0  0  0  0  0  0  0
   -6.4360   25.0330   -0.2200 C   0  0  0  0  0  0  0  0  0  0  0  0
   -4.5273   28.6370    7.4050 N   0  0  0  0  0  0  0  0  0  0  0  0
   -5.1672   28.3184    8.1207 H   0  0  0  0  0  0  0  0  0  0  0  0
   -3.2684   28.9123    7.8227 C   0  0  0  0  0  0  0  0  0  0  0  0
   -2.8373   29.9962    8.4302 N   0  0  0  0  0  0  0  0  0  0  0  0
   -1.4888   29.9023    8.7066 C   0  0  0  0  0  0  0  0  0  0  0  0
   -0.8837   28.7323    8.3119 C   0  0  0  0  0  0  0  0  0  0  0  0
   -2.0400   27.7132    7.5709 S   0  0  0  0  0  0  0  0  0  0  0  0
 11 12  1  0  0  0
 12  7  1  0  0  0
  7  8  1  0  0  0
  8  9  2  0  0  0
  8  1  1  0  0  0
  1  2  1  0  0  0
  2  3  2  0  0  0
  3  4  1  0  0  0
  4  5  2  0  0  0
  5 18  1  0  0  0
 18 20  1  0  0  0
 20 21  2  0  0  0
 21 22  1  0  0  0
 22 23  2  0  0  0
 23 24  1  0  0  0
  5  6  1  0  0  0
 12 13  1  0  0  0
 13 14  1  0  0  0
 14 15  1  0  0  0
 14 16  1  0  0  0
 14 17  1  0  0  0
 17 12  1  0  0  0
  6  1  2  0  0  0
 24 20  1  0  0  0
  7 10  1  0  0  0
 18 19  1  0  0  0
M  END
> <minimizedAffinity>
-9.22020

$$$$
OCNT-2308941


 27 30  0  0  0  0  0  0  0  0999 V2000
   -2.1436   26.4583    5.6008 N   0  0  0  0  0  0  0  0  0  0  0  0
   -2.1038   26.1331    4.2639 C   0  0  0  0  0  0  0  0  0  0  0  0
   -1.0661   26.0321    3.6185 O   0  0  0  0  0  0  0  0  0  0  0  0
   -3.0121   26.7794    6.0051 H   0  0  0  0  0  0  0  0  0  0  0  0
   -3.4159   25.9396    3.5845 C   0  0  0  0  0  0  0  0  0  0  0  0
   -4.3198   26.9920    3.3963 C   0  0  0  0  0  0  0  0  0  0  0  0
   -5.5380   26.7588    2.7568 C   0  0  0  0  0  0  0  0  0  0  0  0
   -5.8639   25.4762    2.3112 C   0  0  0  0  0  0  0  0  0  0  0  0
   -4.9729   24.4108    2.5107 C   0  0  0  0  0  0  0  0  0  0  0  0
   -3.7487   24.6457    3.1510 C   0  0  0  0  0  0  0  0  0  0  0  0
   -5.3238   23.1138    2.0648 N   0  0  0  0  0  0  0  0  0  0  0  0
   -5.2915   21.9172    2.7359 C   0  0  0  0  0  0  0  0  0  0  0  0
   -5.6988   20.9581    1.9363 N   0  0  0  0  0  0  0  0  0  0  0  0
   -5.9930   21.5672    0.7459 N   0  0  0  0  0  0  0  0  0  0  0  0
   -5.7713   22.8722    0.8107 N   0  0  0  0  0  0  0  0  0  0  0  0
   -0.9432   26.8319    6.3164 C   0  0  0  0  0  0  0  0  0  0  0  0
    0.9638   29.1448    7.7016 C   0  0  0  0  0  0  0  0  0  0  0  0
   -0.5067   28.9668    7.8042 C   0  0  0  0  0  0  0  0  0  0  0  0
   -1.2697   27.9765    7.2046 C   0  0  0  0  0  0  0  0  0  0  0  0
   -2.5907   28.1425    7.5029 O   0  0  0  0  0  0  0  0  0  0  0  0
   -2.6877   29.2370    8.3021 C   0  0  0  0  0  0  0  0  0  0  0  0
   -3.8738   29.7453    8.8309 C   0  0  0  0  0  0  0  0  0  0  0  0
   -3.7596   30.8882    9.6278 C   0  0  0  0  0  0  0  0  0  0  0  0
   -2.5150   31.4676    9.8632 C   0  0  0  0  0  0  0  0  0  0  0  0
   -2.4427   32.5637   10.6308 F   0  0  0  0  0  0  0  0  0  0  0  0
   -1.3383   30.9412    9.3231 C   0  0  0  0  0  0  0  0  0  0  0  0
   -1.4303   29.7895    8.5200 C   0  0  0  0  0  0  0  0  0  0  0  0
 17 18  1  0  0  0
 18 19  2  0  0  0
 19 16  1  0  0  0
 16  1  1  0  0  0
  1  2  1  0  0  0
  2  3  2  0  0  0
  2  5  1  0  0  0
  5  6  1  0  0  0
  6  7  2  0  0  0
  7  8  1  0  0  0
  8  9  2  0  0  0
  9 11  1  0  0  0
 11 12  1  0  0  0
 12 13  2  0  0  0
 13 14  1  0  0  0
 14 15  2  0  0  0
  9 10  1  0  0  0
 19 20  1  0  0  0
 20 21  1  0  0  0
 21 22  2  0  0  0
 22 23  1  0  0  0
 23 24  2  0  0  0
 24 25  1  0  0  0
 24 26  1  0  0  0
 26 27  2  0  0  0
 27 18  1  0  0  0
 10  5  2  0  0  0
 27 21  1  0  0  0
 15 11  1  0  0  0
  1  4  1  0  0  0
M  END
> <minimizedAffinity>
-10.50620

$$$$
OCNT-2308945


 25 27  0  0  0  0  0  0  0  0999 V2000
   -6.2903   23.5550    0.8830 C   0  0  0  0  0  0  0  0  0  0  0  0
   -6.0818   24.9404    0.7432 C   0  0  0  0  0  0  0  0  0  0  0  0
   -5.7503   25.7378    1.8453 C   0  0  0  0  0  0  0  0  0  0  0  0
   -5.6230   25.1392    3.0870 C   0  0  0  0  0  0  0  0  0  0  0  0
   -5.8228   23.7659    3.2294 C   0  0  0  0  0  0  0  0  0  0  0  0
   -6.1531   22.9631    2.1453 C   0  0  0  0  0  0  0  0  0  0  0  0
   -5.6363   23.3277    4.6434 C   0  0  0  0  0  0  0  0  0  0  0  0
   -5.2799   24.6438    5.3417 C   0  0  0  0  0  0  0  0  0  0  0  0
   -5.2973   25.7194    4.3324 N   0  0  0  0  0  0  0  0  0  0  0  0
   -5.0356   27.0720    4.5456 C   0  0  0  0  0  0  0  0  0  0  0  0
   -5.0691   27.9181    3.6545 O   0  0  0  0  0  0  0  0  0  0  0  0
   -4.7317   27.3775    5.8646 N   0  0  0  0  0  0  0  0  0  0  0  0
   -4.7207   26.6249    6.5357 H   0  0  0  0  0  0  0  0  0  0  0  0
   -4.4295   28.6379    6.3623 C   0  0  0  0  0  0  0  0  0  0  0  0
   -3.1993   29.1431    6.7069 C   0  0  0  0  0  0  0  0  0  0  0  0
   -3.4081   30.4150    7.1416 N   0  0  0  0  0  0  0  0  0  0  0  0
   -2.4088   31.3451    7.6095 C   0  0  0  0  0  0  0  0  0  0  0  0
   -4.6989   30.7893    7.1087 N   0  0  0  0  0  0  0  0  0  0  0  0
   -5.3437   29.7042    6.6292 C   0  0  0  0  0  0  0  0  0  0  0  0
   -6.8297   29.6865    6.4240 C   0  0  0  0  0  0  0  0  0  0  0  0
   -7.4356   30.7325    7.0669 F   0  0  0  0  0  0  0  0  0  0  0  0
   -7.4175   28.5603    6.9085 F   0  0  0  0  0  0  0  0  0  0  0  0
   -7.1865   29.7944    5.1167 F   0  0  0  0  0  0  0  0  0  0  0  0
   -8.1239   22.6981   -0.5986 C   0  0  0  0  0  0  0  0  0  0  0  0
   -6.6284   22.7129   -0.3216 C   0  0  0  0  0  0  0  0  0  0  0  0
 24 25  1  0  0  0
 25  1  1  0  0  0
  1  2  1  0  0  0
  2  3  2  0  0  0
  3  4  1  0  0  0
  4  5  2  0  0  0
  5  6  1  0  0  0
  5  7  1  0  0  0
  7  8  1  0  0  0
  8  9  1  0  0  0
  9 10  1  0  0  0
 10 11  2  0  0  0
 10 12  1  0  0  0
 12 14  1  0  0  0
 14 15  2  0  0  0
 15 16  1  0  0  0
 16 17  1  0  0  0
 16 18  1  0  0  0
 18 19  2  0  0  0
 19 20  1  0  0  0
 20 21  1  0  0  0
 20 22  1  0  0  0
 20 23  1  0  0  0
  6  1  2  0  0  0
 19 14  1  0  0  0
  9  4  1  0  0  0
 12 13  1  0  0  0
M  END
> <minimizedAffinity>
-9.09022

$$$$
OCNT-2308952


 22 25  0  0  0  0  0  0  0  0999 V2000
   -4.9625   28.6984    7.1092 N   0  0  0  0  0  0  0  0  0  0  0  0
   -4.5529   29.4291    6.5218 H   0  0  0  0  0  0  0  0  0  0  0  0
   -4.8162   34.4519    8.4532 Br  0  0  0  0  0  0  0  0  0  0  0  0
   -4.0170   32.7632    8.7324 C   0  0  0  0  0  0  0  0  0  0  0  0
   -2.6745   32.6952    9.1124 C   0  0  0  0  0  0  0  0  0  0  0  0
   -2.0569   31.4532    9.3229 C   0  0  0  0  0  0  0  0  0  0  0  0
   -2.7704   30.2662    9.1448 C   0  0  0  0  0  0  0  0  0  0  0  0
   -4.1014   30.3395    8.7569 C   0  0  0  0  0  0  0  0  0  0  0  0
   -4.7282   31.5844    8.5733 C   0  0  0  0  0  0  0  0  0  0  0  0
   -6.1613   31.3890    8.1799 C   0  0  0  0  0  0  0  0  0  0  0  0
   -6.3960   29.9503    8.6600 C   0  0  0  0  0  0  0  0  0  0  0  0
   -5.0545   29.2021    8.4814 C   0  0  0  0  0  0  0  0  0  0  0  0
   -6.2548   28.3607    6.5016 C   0  0  0  0  0  0  0  0  0  0  0  0
   -6.1084   27.9949    5.0574 C   0  0  0  0  0  0  0  0  0  0  0  0
   -6.1610   28.9444    4.1009 N   0  0  0  0  0  0  0  0  0  0  0  0
   -5.9923   28.2798    2.8885 O   0  0  0  0  0  0  0  0  0  0  0  0
   -5.8498   26.9671    3.1464 C   0  0  0  0  0  0  0  0  0  0  0  0
   -5.9115   26.7198    4.4889 C   0  0  0  0  0  0  0  0  0  0  0  0
   -5.7918   25.3447    5.0130 C   0  0  0  0  0  0  0  0  0  0  0  0
   -5.2740   24.4363    4.0078 O   0  0  0  0  0  0  0  0  0  0  0  0
   -5.9190   24.5872    2.7216 C   0  0  0  0  0  0  0  0  0  0  0  0
   -5.6328   25.9678    2.0883 C   0  0  0  0  0  0  0  0  0  0  0  0
  3  4  1  0  0  0
  4  5  1  0  0  0
  5  6  2  0  0  0
  6  7  1  0  0  0
  7  8  2  0  0  0
  8  9  1  0  0  0
  9 10  1  0  0  0
 10 11  1  0  0  0
 11 12  1  0  0  0
 12  1  1  0  0  0
  1 13  1  0  0  0
 13 14  1  0  0  0
 14 15  2  0  0  0
 15 16  1  0  0  0
 16 17  1  0  0  0
 17 18  2  0  0  0
 18 19  1  0  0  0
 19 20  1  0  0  0
 20 21  1  0  0  0
 21 22  1  0  0  0
  9  4  2  0  0  0
 18 14  1  0  0  0
 12  8  1  0  0  0
 22 17  1  0  0  0
  1  2  1  0  0  0
M  END
> <minimizedAffinity>
-8.72801

$$$$
OCNT-2308954


 28 31  0  0  0  0  0  0  0  0999 V2000
   -0.6540   27.7106    7.3848 N   0  0  0  0  0  0  0  0  0  0  0  0
   -1.3672   27.7621    8.1111 H   0  0  0  0  0  0  0  0  0  0  0  0
   -3.4324   27.7275    6.4434 C   0  0  0  0  0  0  0  0  0  0  0  0
   -2.3230   27.0551    5.6726 C   0  0  0  0  0  0  0  0  0  0  0  0
   -0.9985   27.0636    6.1614 C   0  0  0  0  0  0  0  0  0  0  0  0
    0.0421   26.4711    5.4401 C   0  0  0  0  0  0  0  0  0  0  0  0
   -0.2119   25.8546    4.2227 C   0  0  0  0  0  0  0  0  0  0  0  0
   -1.5140   25.8185    3.7326 C   0  0  0  0  0  0  0  0  0  0  0  0
   -2.5863   26.3923    4.4458 C   0  0  0  0  0  0  0  0  0  0  0  0
   -3.9167   26.2627    3.8423 C   0  0  0  0  0  0  0  0  0  0  0  0
   -4.5598   27.1205    3.0693 N   0  0  0  0  0  0  0  0  0  0  0  0
   -5.7239   26.4719    2.7459 C   0  0  0  0  0  0  0  0  0  0  0  0
   -5.7357   25.2261    3.3168 C   0  0  0  0  0  0  0  0  0  0  0  0
   -4.5762   25.0725    4.0130 O   0  0  0  0  0  0  0  0  0  0  0  0
    0.2456   29.1409    7.3093 S   0  0  0  0  0  0  0  0  0  0  0  0
    0.4629   29.4004    5.9013 O   0  0  0  0  0  0  0  0  0  0  0  0
    1.3551   29.0693    8.2345 O   0  0  0  0  0  0  0  0  0  0  0  0
   -0.9084   30.3615    7.8927 C   0  0  0  0  0  0  0  0  0  0  0  0
   -0.7316   30.9276    9.1738 C   0  0  0  0  0  0  0  0  0  0  0  0
   -1.6218   31.8968    9.6441 C   0  0  0  0  0  0  0  0  0  0  0  0
   -2.6519   32.2687    8.8058 C   0  0  0  0  0  0  0  0  0  0  0  0
   -3.6458   33.2012    9.0512 N   0  0  0  0  0  0  0  0  0  0  0  0
   -4.5098   33.3166    7.9685 C   0  0  0  0  0  0  0  0  0  0  0  0
   -5.4761   34.0577    7.9040 O   0  0  0  0  0  0  0  0  0  0  0  0
   -4.0257   32.3457    6.8847 C   0  0  0  0  0  0  0  0  0  0  0  0
   -2.8254   31.7223    7.5340 C   0  0  0  0  0  0  0  0  0  0  0  0
   -1.9557   30.7626    7.0512 C   0  0  0  0  0  0  0  0  0  0  0  0
   -3.7524   33.7466    9.8934 H   0  0  0  0  0  0  0  0  0  0  0  0
  3  4  1  0  0  0
  4  5  1  0  0  0
  5  1  1  0  0  0
  1 15  1  0  0  0
 15 16  2  0  0  0
 15 17  2  0  0  0
 15 18  1  0  0  0
 18 19  1  0  0  0
 19 20  2  0  0  0
 20 21  1  0  0  0
 21 22  1  0  0  0
 22 23  1  0  0  0
 23 24  2  0  0  0
 23 25  1  0  0  0
 25 26  1  0  0  0
 26 27  1  0  0  0
  5  6  2  0  0  0
  6  7  1  0  0  0
  7  8  2  0  0  0
  8  9  1  0  0  0
  9 10  1  0  0  0
 10 11  2  0  0  0
 11 12  1  0  0  0
 12 13  2  0  0  0
 13 14  1  0  0  0
  9  4  2  0  0  0
 14 10  1  0  0  0
 27 18  2  0  0  0
 26 21  2  0  0  0
  1  2  1  0  0  0
 22 28  1  0  0  0
M  END
> <minimizedAffinity>
-9.85678

$$$$
OCNT-2308968


 32 35  0  0  0  0  0  0  0  0999 V2000
   -2.0494   25.8927    5.4155 C   0  0  0  0  0  0  0  0  0  0  0  0
   -0.6089   28.7583    7.2114 N   0  0  0  0  0  0  0  0  0  0  0  0
    0.3850   29.2557    6.2629 C   0  0  0  0  0  0  0  0  0  0  0  0
   -1.3266   27.5844    7.0376 C   0  0  0  0  0  0  0  0  0  0  0  0
   -1.9537   27.0422    7.9441 O   0  0  0  0  0  0  0  0  0  0  0  0
   -1.2934   27.0762    5.7650 N   0  0  0  0  0  0  0  0  0  0  0  0
   -1.2321   27.7719    5.0398 H   0  0  0  0  0  0  0  0  0  0  0  0
   -0.7400   29.4559    8.5067 C   0  0  0  0  0  0  0  0  0  0  0  0
    0.6439   29.8183    9.0642 C   0  0  0  0  0  0  0  0  0  0  0  0
   -4.5721   33.8799    8.4386 C   0  0  0  0  0  0  0  0  0  0  0  0
   -3.5995   32.7384    8.4328 C   0  0  0  0  0  0  0  0  0  0  0  0
   -3.3899   31.9754    7.2803 C   0  0  0  0  0  0  0  0  0  0  0  0
   -2.4733   30.9188    7.2817 C   0  0  0  0  0  0  0  0  0  0  0  0
   -1.7424   30.6035    8.4358 C   0  0  0  0  0  0  0  0  0  0  0  0
   -1.9641   31.3727    9.5908 C   0  0  0  0  0  0  0  0  0  0  0  0
   -2.8782   32.4288    9.5895 C   0  0  0  0  0  0  0  0  0  0  0  0
   -3.2042   26.2329    4.5056 C   0  0  0  0  0  0  0  0  0  0  0  0
   -4.1745   27.1627    4.8989 C   0  0  0  0  0  0  0  0  0  0  0  0
   -5.2529   27.4522    4.0640 C   0  0  0  0  0  0  0  0  0  0  0  0
   -5.3774   26.8107    2.8318 C   0  0  0  0  0  0  0  0  0  0  0  0
   -4.4219   25.8728    2.4167 C   0  0  0  0  0  0  0  0  0  0  0  0
   -3.3410   25.5898    3.2653 C   0  0  0  0  0  0  0  0  0  0  0  0
   -4.5531   25.1617    1.0929 C   0  0  0  0  0  0  0  0  0  0  0  0
   -5.7117   24.2870    1.0577 N   0  0  0  0  0  0  0  0  0  0  0  0
   -6.7477   24.3976    0.1700 C   0  0  0  0  0  0  0  0  0  0  0  0
   -7.6363   23.4457    0.3379 N   0  0  0  0  0  0  0  0  0  0  0  0
   -7.1583   22.6881    1.3789 C   0  0  0  0  0  0  0  0  0  0  0  0
   -7.7122   21.5457    1.9757 C   0  0  0  0  0  0  0  0  0  0  0  0
   -7.0284   20.9375    3.0351 C   0  0  0  0  0  0  0  0  0  0  0  0
   -5.8158   21.4559    3.4921 C   0  0  0  0  0  0  0  0  0  0  0  0
   -5.2462   22.5941    2.9097 C   0  0  0  0  0  0  0  0  0  0  0  0
   -5.9462   23.1886    1.8516 C   0  0  0  0  0  0  0  0  0  0  0  0
 10 11  1  0  0  0
 11 12  1  0  0  0
 12 13  2  0  0  0
 13 14  1  0  0  0
 14  8  1  0  0  0
  8  9  1  0  0  0
  8  2  1  0  0  0
  2  3  1  0  0  0
  2  4  1  0  0  0
  4  5  2  0  0  0
  4  6  1  0  0  0
  6  1  1  0  0  0
  1 17  1  0  0  0
 17 18  1  0  0  0
 18 19  2  0  0  0
 19 20  1  0  0  0
 20 21  2  0  0  0
 21 23  1  0  0  0
 23 24  1  0  0  0
 24 25  1  0  0  0
 25 26  2  0  0  0
 26 27  1  0  0  0
 27 28  2  0  0  0
 28 29  1  0  0  0
 29 30  2  0  0  0
 30 31  1  0  0  0
 31 32  2  0  0  0
 21 22  1  0  0  0
 14 15  2  0  0  0
 15 16  1  0  0  0
 16 11  2  0  0  0
 22 17  2  0  0  0
 32 24  1  0  0  0
 32 27  1  0  0  0
  6  7  1  0  0  0
M  END
> <minimizedAffinity>
-11.11192

$$$$
OCNT-2308971


 28 30  0  0  0  0  0  0  0  0999 V2000
   -4.6966   28.5282    4.9175 N   0  0  0  0  0  0  0  0  0  0  0  0
   -4.4512   28.8413    6.2297 C   0  0  0  0  0  0  0  0  0  0  0  0
   -5.0778   28.3820    7.1742 O   0  0  0  0  0  0  0  0  0  0  0  0
   -3.4069   29.7166    6.3397 N   0  0  0  0  0  0  0  0  0  0  0  0
   -4.5435   29.3021    4.2817 H   0  0  0  0  0  0  0  0  0  0  0  0
   -2.8233   29.8220    5.5263 H   0  0  0  0  0  0  0  0  0  0  0  0
   -5.8501   27.7207    4.5877 C   0  0  0  0  0  0  0  0  0  0  0  0
   -6.0598   25.2570    0.2035 C   0  0  0  0  0  0  0  0  0  0  0  0
   -5.4590   25.3643    1.5709 C   0  0  0  0  0  0  0  0  0  0  0  0
   -4.5194   24.5251    2.0312 C   0  0  0  0  0  0  0  0  0  0  0  0
   -4.0127   24.6739    3.2957 N   0  0  0  0  0  0  0  0  0  0  0  0
   -4.4118   25.6496    4.1773 C   0  0  0  0  0  0  0  0  0  0  0  0
   -3.9607   25.7187    5.3166 O   0  0  0  0  0  0  0  0  0  0  0  0
   -5.4431   26.6076    3.6766 C   0  0  0  0  0  0  0  0  0  0  0  0
   -5.9209   26.4403    2.4292 C   0  0  0  0  0  0  0  0  0  0  0  0
   -3.3127   24.0291    3.6415 H   0  0  0  0  0  0  0  0  0  0  0  0
   -2.8948   30.1710    7.6228 C   0  0  0  0  0  0  0  0  0  0  0  0
   -3.5091   31.5147    7.9990 C   0  0  0  0  0  0  0  0  0  0  0  0
   -3.3434   32.0056    9.3053 C   0  0  0  0  0  0  0  0  0  0  0  0
   -3.8821   33.2375    9.6822 C   0  0  0  0  0  0  0  0  0  0  0  0
   -4.5932   33.9995    8.7591 C   0  0  0  0  0  0  0  0  0  0  0  0
   -4.7660   33.5304    7.4595 C   0  0  0  0  0  0  0  0  0  0  0  0
   -4.2281   32.2978    7.0812 C   0  0  0  0  0  0  0  0  0  0  0  0
   -1.3504   30.2067    7.7095 C   0  0  0  0  0  0  0  0  0  0  0  0
   -0.7529   29.3018    8.7897 C   0  0  0  0  0  0  0  0  0  0  0  0
    0.7371   29.3375    8.4820 C   0  0  0  0  0  0  0  0  0  0  0  0
    0.8275   29.4171    6.9601 C   0  0  0  0  0  0  0  0  0  0  0  0
   -0.5766   29.7673    6.4613 C   0  0  0  0  0  0  0  0  0  0  0  0
  8  9  1  0  0  0
  9 10  2  0  0  0
 10 11  1  0  0  0
 11 12  1  0  0  0
 12 13  2  0  0  0
 12 14  1  0  0  0
 14  7  1  0  0  0
  7  1  1  0  0  0
  1  2  1  0  0  0
  2  3  2  0  0  0
  2  4  1  0  0  0
  4 17  1  0  0  0
 17 18  1  0  0  0
 18 19  2  0  0  0
 19 20  1  0  0  0
 20 21  2  0  0  0
 21 22  1  0  0  0
 22 23  2  0  0  0
 17 24  1  0  0  0
 24 25  1  0  0  0
 25 26  1  0  0  0
 26 27  1  0  0  0
 27 28  1  0  0  0
 14 15  2  0  0  0
 15  9  1  0  0  0
 23 18  1  0  0  0
 28 24  1  0  0  0
 11 16  1  0  0  0
  1  5  1  0  0  0
  4  6  1  0  0  0
M  END
> <minimizedAffinity>
-9.55684

$$$$
OCNT-2308982


 25 27  0  0  0  0  0  0  0  0999 V2000
   -5.3157   29.8686    6.1772 C   0  0  0  0  0  0  0  0  0  0  0  0
   -5.9995   29.9127    7.1948 O   0  0  0  0  0  0  0  0  0  0  0  0
   -4.2889   30.7483    5.9308 N   0  0  0  0  0  0  0  0  0  0  0  0
   -3.7064   30.6064    5.1159 H   0  0  0  0  0  0  0  0  0  0  0  0
   -5.8171   27.1170    3.8235 C   0  0  0  0  0  0  0  0  0  0  0  0
   -5.9546   28.1854    3.0313 N   0  0  0  0  0  0  0  0  0  0  0  0
   -5.7713   29.2272    3.8587 N   0  0  0  0  0  0  0  0  0  0  0  0
   -5.5259   28.8746    5.1590 C   0  0  0  0  0  0  0  0  0  0  0  0
   -5.5477   27.4934    5.1613 C   0  0  0  0  0  0  0  0  0  0  0  0
   -5.8261   30.1698    3.4848 H   0  0  0  0  0  0  0  0  0  0  0  0
   -5.9519   25.7385    3.2678 C   0  0  0  0  0  0  0  0  0  0  0  0
   -4.5097   24.8531    1.3995 C   0  0  0  0  0  0  0  0  0  0  0  0
   -5.7197   25.7014    1.7568 C   0  0  0  0  0  0  0  0  0  0  0  0
   -3.8752   31.7393    6.8924 C   0  0  0  0  0  0  0  0  0  0  0  0
   -2.4220   31.6043    7.2906 C   0  0  0  0  0  0  0  0  0  0  0  0
   -1.7181   30.4296    6.6572 C   0  0  0  0  0  0  0  0  0  0  0  0
   -0.6186   30.0878    7.5779 N   0  0  0  0  0  0  0  0  0  0  0  0
   -1.0279   30.5031    8.9324 C   0  0  0  0  0  0  0  0  0  0  0  0
   -1.9755   31.6451    8.7283 C   0  0  0  0  0  0  0  0  0  0  0  0
   -1.6010   32.7889    7.7971 C   0  0  0  0  0  0  0  0  0  0  0  0
    0.1923   30.6461    7.3095 H   0  0  0  0  0  0  0  0  0  0  0  0
   -2.9016   31.8745    9.8747 C   0  0  0  0  0  0  0  0  0  0  0  0
   -3.7646   30.8420   10.0099 F   0  0  0  0  0  0  0  0  0  0  0  0
   -2.2125   31.9972   11.0313 F   0  0  0  0  0  0  0  0  0  0  0  0
   -3.6427   33.0005    9.7209 F   0  0  0  0  0  0  0  0  0  0  0  0
 12 13  1  0  0  0
 13 11  1  0  0  0
 11  5  1  0  0  0
  5  6  2  0  0  0
  6  7  1  0  0  0
  7  8  1  0  0  0
  8  1  1  0  0  0
  1  2  2  0  0  0
  1  3  1  0  0  0
  3 14  1  0  0  0
 15 14  1  0  0  0
 15 16  1  0  0  0
 16 17  1  0  0  0
 17 18  1  0  0  0
 18 19  1  0  0  0
 19 22  1  0  0  0
 22 23  1  0  0  0
 22 24  1  0  0  0
 22 25  1  0  0  0
 19 20  1  0  0  0
  8  9  2  0  0  0
  9  5  1  0  0  0
 19 15  1  0  0  0
 20 15  1  0  0  0
  7 10  1  0  0  0
  3  4  1  0  0  0
 17 21  1  0  0  0
M  END
> <minimizedAffinity>
-8.16523

$$$$
OCNT-2308998


 28 30  0  0  0  0  0  0  0  0999 V2000
   -2.8946   27.0482    5.8159 C   0  0  0  0  0  0  0  0  0  0  0  0
   -2.3745   26.0476    6.2974 O   0  0  0  0  0  0  0  0  0  0  0  0
   -2.5172   28.3556    6.0469 N   0  0  0  0  0  0  0  0  0  0  0  0
   -2.9579   29.0881    5.4870 H   0  0  0  0  0  0  0  0  0  0  0  0
   -5.2595   25.3810    3.3715 C   0  0  0  0  0  0  0  0  0  0  0  0
   -6.0861   26.4761    3.1133 C   0  0  0  0  0  0  0  0  0  0  0  0
   -5.9450   27.7035    3.6720 N   0  0  0  0  0  0  0  0  0  0  0  0
   -4.9142   27.8629    4.5364 C   0  0  0  0  0  0  0  0  0  0  0  0
   -4.0131   26.8563    4.8557 C   0  0  0  0  0  0  0  0  0  0  0  0
   -4.2056   25.5985    4.2704 C   0  0  0  0  0  0  0  0  0  0  0  0
   -7.2075   22.6335   -0.3555 C   0  0  0  0  0  0  0  0  0  0  0  0
   -6.4069   22.7232    0.9101 C   0  0  0  0  0  0  0  0  0  0  0  0
   -5.9129   21.5665    1.5194 C   0  0  0  0  0  0  0  0  0  0  0  0
   -5.2024   21.6516    2.7149 C   0  0  0  0  0  0  0  0  0  0  0  0
   -4.9882   22.8936    3.3161 C   0  0  0  0  0  0  0  0  0  0  0  0
   -5.4817   24.0735    2.7361 C   0  0  0  0  0  0  0  0  0  0  0  0
   -6.1978   23.9648    1.5302 C   0  0  0  0  0  0  0  0  0  0  0  0
   -1.5445   28.8457    6.9576 C   0  0  0  0  0  0  0  0  0  0  0  0
   -0.1795   28.5712    6.8112 C   0  0  0  0  0  0  0  0  0  0  0  0
    0.7529   29.0417    7.7409 C   0  0  0  0  0  0  0  0  0  0  0  0
    0.3358   29.7857    8.8388 C   0  0  0  0  0  0  0  0  0  0  0  0
   -1.0178   30.0736    9.0054 C   0  0  0  0  0  0  0  0  0  0  0  0
   -1.9625   29.6239    8.0656 C   0  0  0  0  0  0  0  0  0  0  0  0
   -3.4076   29.9571    8.2524 C   0  0  0  0  0  0  0  0  0  0  0  0
   -4.0240   29.5361    9.3990 N   0  0  0  0  0  0  0  0  0  0  0  0
   -4.0230   30.6311    7.4318 O   0  0  0  0  0  0  0  0  0  0  0  0
   -3.5046   29.2536   10.2181 H   0  0  0  0  0  0  0  0  0  0  0  0
   -4.9618   29.8872    9.5522 H   0  0  0  0  0  0  0  0  0  0  0  0
 11 12  1  0  0  0
 12 13  2  0  0  0
 13 14  1  0  0  0
 14 15  2  0  0  0
 15 16  1  0  0  0
 16  5  1  0  0  0
  5  6  2  0  0  0
  6  7  1  0  0  0
  7  8  2  0  0  0
  8  9  1  0  0  0
  9  1  1  0  0  0
  1  2  2  0  0  0
  1  3  1  0  0  0
  3 18  1  0  0  0
 18 19  2  0  0  0
 19 20  1  0  0  0
 20 21  2  0  0  0
 21 22  1  0  0  0
 22 23  2  0  0  0
 23 24  1  0  0  0
 24 25  1  0  0  0
 24 26  2  0  0  0
  9 10  2  0  0  0
 16 17  2  0  0  0
 17 12  1  0  0  0
 10  5  1  0  0  0
 23 18  1  0  0  0
  3  4  1  0  0  0
 25 27  1  0  0  0
 25 28  1  0  0  0
M  END
> <minimizedAffinity>
-9.89386

$$$$
OCNT-2309000


 26 28  0  0  0  0  0  0  0  0999 V2000
   -4.7064   27.1158    3.5769 C   0  0  0  0  0  0  0  0  0  0  0  0
   -6.0359   27.7209    4.0326 C   0  0  0  0  0  0  0  0  0  0  0  0
   -6.1140   29.2325    3.7696 C   0  0  0  0  0  0  0  0  0  0  0  0
   -6.4869   29.8492    5.1094 C   0  0  0  0  0  0  0  0  0  0  0  0
   -5.8861   28.9157    6.0621 N   0  0  0  0  0  0  0  0  0  0  0  0
   -6.2297   27.5868    5.5455 C   0  0  0  0  0  0  0  0  0  0  0  0
   -6.3590   29.0994    7.4414 C   0  0  0  0  0  0  0  0  0  0  0  0
   -6.6292   30.5733    7.7835 C   0  0  0  0  0  0  0  0  0  0  0  0
   -5.4126   31.2357    8.3859 C   0  0  0  0  0  0  0  0  0  0  0  0
   -4.9681   32.4745    7.9050 C   0  0  0  0  0  0  0  0  0  0  0  0
   -3.8328   33.0775    8.4481 C   0  0  0  0  0  0  0  0  0  0  0  0
   -3.1298   32.4468    9.4728 C   0  0  0  0  0  0  0  0  0  0  0  0
   -3.5604   31.2120    9.9548 C   0  0  0  0  0  0  0  0  0  0  0  0
   -4.6956   30.6071    9.4129 C   0  0  0  0  0  0  0  0  0  0  0  0
   -2.0973   26.1136    3.3568 O   0  0  0  0  0  0  0  0  0  0  0  0
   -2.5121   26.4348    4.4662 C   0  0  0  0  0  0  0  0  0  0  0  0
   -3.7547   27.0154    4.6707 N   0  0  0  0  0  0  0  0  0  0  0  0
   -4.1297   26.9714    5.6095 H   0  0  0  0  0  0  0  0  0  0  0  0
   -1.7010   26.2691    5.7655 C   0  0  0  0  0  0  0  0  0  0  0  0
   -1.0086   27.4162    6.2298 O   0  0  0  0  0  0  0  0  0  0  0  0
   -1.3288   27.7812    7.5793 C   0  0  0  0  0  0  0  0  0  0  0  0
   -2.6434   28.5609    7.5450 C   0  0  0  0  0  0  0  0  0  0  0  0
   -2.5438   29.8511    6.7254 C   0  0  0  0  0  0  0  0  0  0  0  0
   -1.1620   30.5035    6.7782 C   0  0  0  0  0  0  0  0  0  0  0  0
   -0.4111   30.1398    8.0504 C   0  0  0  0  0  0  0  0  0  0  0  0
   -0.1916   28.6280    8.1774 C   0  0  0  0  0  0  0  0  0  0  0  0
 15 16  2  0  0  0
 16 19  1  0  0  0
 19 20  1  0  0  0
 20 21  1  0  0  0
 21 22  1  0  0  0
 22 23  1  0  0  0
 23 24  1  0  0  0
 24 25  1  0  0  0
 25 26  1  0  0  0
 16 17  1  0  0  0
 17  1  1  0  0  0
  1  2  1  0  0  0
  2  3  1  0  0  0
  3  4  1  0  0  0
  4  5  1  0  0  0
  5  7  1  0  0  0
  7  8  1  0  0  0
  8  9  1  0  0  0
  9 10  2  0  0  0
 10 11  1  0  0  0
 11 12  2  0  0  0
 12 13  1  0  0  0
 13 14  2  0  0  0
  5  6  1  0  0  0
 26 21  1  0  0  0
  6  2  1  0  0  0
 14  9  1  0  0  0
 17 18  1  0  0  0
M  END
> <minimizedAffinity>
-8.18348

$$$$
OCNT-2309003


 33 37  0  0  0  0  0  0  0  0999 V2000
   -5.9160   24.9457    4.7597 C   0  0  0  0  0  0  0  0  0  0  0  0
   -6.1596   24.7845    3.2624 C   0  0  0  0  0  0  0  0  0  0  0  0
   -5.7778   25.7818    2.3430 C   0  0  0  0  0  0  0  0  0  0  0  0
   -5.9780   25.6382    0.9636 C   0  0  0  0  0  0  0  0  0  0  0  0
   -6.5706   24.4492    0.5393 C   0  0  0  0  0  0  0  0  0  0  0  0
   -6.9153   23.9778   -0.7016 N   0  0  0  0  0  0  0  0  0  0  0  0
   -7.4728   22.7404   -0.5427 C   0  0  0  0  0  0  0  0  0  0  0  0
   -7.5072   22.3815    0.7203 N   0  0  0  0  0  0  0  0  0  0  0  0
   -6.9541   23.4340    1.4084 C   0  0  0  0  0  0  0  0  0  0  0  0
   -6.7450   23.5933    2.7857 C   0  0  0  0  0  0  0  0  0  0  0  0
   -6.7857   24.4624   -1.5780 H   0  0  0  0  0  0  0  0  0  0  0  0
   -6.5431   23.8265    5.5888 C   0  0  0  0  0  0  0  0  0  0  0  0
   -5.7793   22.8542    6.2569 C   0  0  0  0  0  0  0  0  0  0  0  0
   -6.3959   21.8544    7.0132 C   0  0  0  0  0  0  0  0  0  0  0  0
   -7.7847   21.8145    7.1192 C   0  0  0  0  0  0  0  0  0  0  0  0
   -8.5583   22.7731    6.4700 C   0  0  0  0  0  0  0  0  0  0  0  0
   -7.9431   23.7711    5.7118 C   0  0  0  0  0  0  0  0  0  0  0  0
   -4.2687   27.1891    5.3869 O   0  0  0  0  0  0  0  0  0  0  0  0
   -5.4912   27.2993    5.4294 C   0  0  0  0  0  0  0  0  0  0  0  0
   -6.3528   26.2675    5.1655 N   0  0  0  0  0  0  0  0  0  0  0  0
   -7.3479   26.4766    5.1295 H   0  0  0  0  0  0  0  0  0  0  0  0
   -6.1514   28.6122    5.8298 C   0  0  0  0  0  0  0  0  0  0  0  0
   -5.8098   29.7522    4.8752 C   0  0  0  0  0  0  0  0  0  0  0  0
   -4.6005   30.4630    5.4930 C   0  0  0  0  0  0  0  0  0  0  0  0
   -4.4016   29.8280    6.8102 N   0  0  0  0  0  0  0  0  0  0  0  0
   -5.6475   29.1203    7.1734 C   0  0  0  0  0  0  0  0  0  0  0  0
   -3.9343   30.6671    7.8351 C   0  0  0  0  0  0  0  0  0  0  0  0
   -4.5047   31.9435    7.9444 C   0  0  0  0  0  0  0  0  0  0  0  0
   -4.0828   32.8404    8.9318 C   0  0  0  0  0  0  0  0  0  0  0  0
   -3.0757   32.4768    9.8251 C   0  0  0  0  0  0  0  0  0  0  0  0
   -2.4857   31.2187    9.7264 C   0  0  0  0  0  0  0  0  0  0  0  0
   -2.9112   30.3312    8.7392 C   0  0  0  0  0  0  0  0  0  0  0  0
   -2.3010   29.1369    8.6545 F   0  0  0  0  0  0  0  0  0  0  0  0
 18 19  2  0  0  0
 19 20  1  0  0  0
 20  1  1  0  0  0
  1 12  1  0  0  0
 12 13  2  0  0  0
 13 14  1  0  0  0
 14 15  2  0  0  0
 15 16  1  0  0  0
 16 17  2  0  0  0
  1  2  1  0  0  0
  2  3  2  0  0  0
  3  4  1  0  0  0
  4  5  2  0  0  0
  5  6  1  0  0  0
  6  7  1  0  0  0
  7  8  2  0  0  0
  8  9  1  0  0  0
  9 10  2  0  0  0
 19 22  1  0  0  0
 22 23  1  0  0  0
 23 24  1  0  0  0
 24 25  1  0  0  0
 25 27  1  0  0  0
 27 28  2  0  0  0
 28 29  1  0  0  0
 29 30  2  0  0  0
 30 31  1  0  0  0
 31 32  2  0  0  0
 32 33  1  0  0  0
 25 26  1  0  0  0
 17 12  1  0  0  0
 10  2  1  0  0  0
 26 22  1  0  0  0
  9  5  1  0  0  0
 32 27  1  0  0  0
 20 21  1  0  0  0
  6 11  1  0  0  0
M  END
> <minimizedAffinity>
-10.92190

$$$$
OCNT-2309014


 27 30  0  0  0  0  0  0  0  0999 V2000
   -4.3002   25.8646    4.2213 C   0  0  0  0  0  0  0  0  0  0  0  0
   -5.1721   26.7085    4.4043 O   0  0  0  0  0  0  0  0  0  0  0  0
   -4.5652   24.6299    3.6752 N   0  0  0  0  0  0  0  0  0  0  0  0
   -3.8465   23.9177    3.7127 H   0  0  0  0  0  0  0  0  0  0  0  0
   -5.9366   24.1698    3.4893 C   0  0  0  0  0  0  0  0  0  0  0  0
   -6.3186   24.1578    2.0143 C   0  0  0  0  0  0  0  0  0  0  0  0
   -5.9314   25.2261    1.1835 C   0  0  0  0  0  0  0  0  0  0  0  0
   -6.2867   25.2545   -0.1648 C   0  0  0  0  0  0  0  0  0  0  0  0
   -7.0475   24.2231   -0.7030 C   0  0  0  0  0  0  0  0  0  0  0  0
   -7.4633   23.1700    0.1096 C   0  0  0  0  0  0  0  0  0  0  0  0
   -7.1215   23.1338    1.4715 C   0  0  0  0  0  0  0  0  0  0  0  0
   -7.5953   21.9614    2.2964 C   0  0  0  0  0  0  0  0  0  0  0  0
   -7.4804   22.1899    3.8008 C   0  0  0  0  0  0  0  0  0  0  0  0
   -6.1263   22.7852    4.1679 C   0  0  0  0  0  0  0  0  0  0  0  0
   -5.0829   21.8618    3.8081 O   0  0  0  0  0  0  0  0  0  0  0  0
   -4.9430   21.9335    2.8474 H   0  0  0  0  0  0  0  0  0  0  0  0
    0.0165   28.5376    7.6857 C   0  0  0  0  0  0  0  0  0  0  0  0
   -1.1612   28.0318    7.0408 N   0  0  0  0  0  0  0  0  0  0  0  0
   -2.4639   28.2975    7.3972 C   0  0  0  0  0  0  0  0  0  0  0  0
   -2.8384   29.0023    8.3233 O   0  0  0  0  0  0  0  0  0  0  0  0
   -3.3559   27.6373    6.5397 O   0  0  0  0  0  0  0  0  0  0  0  0
   -2.5143   26.9676    5.6577 C   0  0  0  0  0  0  0  0  0  0  0  0
   -2.8905   26.1593    4.5984 C   0  0  0  0  0  0  0  0  0  0  0  0
   -1.8548   25.5881    3.8353 C   0  0  0  0  0  0  0  0  0  0  0  0
   -0.5004   25.8297    4.1406 C   0  0  0  0  0  0  0  0  0  0  0  0
   -0.1497   26.6482    5.2147 C   0  0  0  0  0  0  0  0  0  0  0  0
   -1.1804   27.1981    5.9475 C   0  0  0  0  0  0  0  0  0  0  0  0
 17 18  1  0  0  0
 18 19  1  0  0  0
 19 20  2  0  0  0
 19 21  1  0  0  0
 21 22  1  0  0  0
 22 23  2  0  0  0
 23  1  1  0  0  0
  1  2  2  0  0  0
  1  3  1  0  0  0
  3  5  1  0  0  0
  5  6  1  0  0  0
  6  7  2  0  0  0
  7  8  1  0  0  0
  8  9  2  0  0  0
  9 10  1  0  0  0
 10 11  2  0  0  0
 11 12  1  0  0  0
 12 13  1  0  0  0
 13 14  1  0  0  0
 14 15  1  0  0  0
 23 24  1  0  0  0
 24 25  2  0  0  0
 25 26  1  0  0  0
 26 27  2  0  0  0
 27 18  1  0  0  0
 27 22  1  0  0  0
 14  5  1  0  0  0
 11  6  1  0  0  0
  3  4  1  0  0  0
 15 16  1  0  0  0
M  END
> <minimizedAffinity>
-10.46774

$$$$
OCNT-2309041


 28 30  0  0  0  0  0  0  0  0999 V2000
   -3.8142   30.9781    7.8800 N   0  0  0  0  0  0  0  0  0  0  0  0
   -3.8721   32.2971    8.3050 C   0  0  0  0  0  0  0  0  0  0  0  0
   -5.0466   33.1888    8.1555 C   0  0  0  0  0  0  0  0  0  0  0  0
   -2.6989   32.6531    8.7933 N   0  0  0  0  0  0  0  0  0  0  0  0
   -1.8653   31.5667    8.7438 N   0  0  0  0  0  0  0  0  0  0  0  0
   -2.5451   30.5654    8.2348 C   0  0  0  0  0  0  0  0  0  0  0  0
   -6.1108   29.6029    3.7463 C   0  0  0  0  0  0  0  0  0  0  0  0
   -6.0034   29.5752    5.2431 C   0  0  0  0  0  0  0  0  0  0  0  0
   -6.9170   28.8497    6.0111 C   0  0  0  0  0  0  0  0  0  0  0  0
   -6.8013   28.8106    7.4038 C   0  0  0  0  0  0  0  0  0  0  0  0
   -5.7613   29.4817    8.0669 C   0  0  0  0  0  0  0  0  0  0  0  0
   -5.6722   29.3306    9.5616 C   0  0  0  0  0  0  0  0  0  0  0  0
   -4.8545   30.2248    7.2886 C   0  0  0  0  0  0  0  0  0  0  0  0
   -4.9620   30.2513    5.8872 C   0  0  0  0  0  0  0  0  0  0  0  0
   -1.9713   28.9277    8.2632 S   0  0  0  0  0  0  0  0  0  0  0  0
   -0.2002   29.1444    7.9075 C   0  0  0  0  0  0  0  0  0  0  0  0
    0.2060   28.6200    6.5405 C   0  0  0  0  0  0  0  0  0  0  0  0
    0.8462   29.3131    5.7537 O   0  0  0  0  0  0  0  0  0  0  0  0
   -0.1820   27.3220    6.2711 N   0  0  0  0  0  0  0  0  0  0  0  0
   -0.9710   26.9867    6.8162 H   0  0  0  0  0  0  0  0  0  0  0  0
   -0.0746   26.7901    4.9257 C   0  0  0  0  0  0  0  0  0  0  0  0
   -1.3257   26.0205    4.5087 C   0  0  0  0  0  0  0  0  0  0  0  0
   -2.5885   26.5708    5.1681 C   0  0  0  0  0  0  0  0  0  0  0  0
   -3.7929   26.3484    4.3915 N   0  0  0  0  0  0  0  0  0  0  0  0
   -5.0086   25.9397    4.8616 C   0  0  0  0  0  0  0  0  0  0  0  0
   -5.8324   25.8614    3.7635 C   0  0  0  0  0  0  0  0  0  0  0  0
   -5.0147   26.2248    2.6777 C   0  0  0  0  0  0  0  0  0  0  0  0
   -3.7667   26.5110    3.0552 N   0  0  0  0  0  0  0  0  0  0  0  0
  7  8  1  0  0  0
  8  9  1  0  0  0
  9 10  2  0  0  0
 10 11  1  0  0  0
 11 12  1  0  0  0
 11 13  2  0  0  0
 13  1  1  0  0  0
  1  2  1  0  0  0
  2  3  1  0  0  0
  2  4  2  0  0  0
  4  5  1  0  0  0
  5  6  2  0  0  0
  6 15  1  0  0  0
 15 16  1  0  0  0
 16 17  1  0  0  0
 17 18  2  0  0  0
 17 19  1  0  0  0
 19 21  1  0  0  0
 21 22  1  0  0  0
 22 23  1  0  0  0
 23 24  1  0  0  0
 24 25  1  0  0  0
 25 26  2  0  0  0
 26 27  1  0  0  0
 27 28  2  0  0  0
 13 14  1  0  0  0
 14  8  2  0  0  0
  6  1  1  0  0  0
 28 24  1  0  0  0
 19 20  1  0  0  0
M  END
> <minimizedAffinity>
-8.39740

$$$$
OCNT-2309057


 29 32  0  0  0  0  0  0  0  0999 V2000
   -5.7594   27.0949    4.2590 C   0  0  0  0  0  0  0  0  0  0  0  0
   -6.2284   27.8043    3.3689 O   0  0  0  0  0  0  0  0  0  0  0  0
   -5.8174   27.4478    5.5860 N   0  0  0  0  0  0  0  0  0  0  0  0
   -5.5910   26.7501    6.2884 H   0  0  0  0  0  0  0  0  0  0  0  0
   -8.6201   21.2210    3.9959 C   0  0  0  0  0  0  0  0  0  0  0  0
   -7.6865   22.3990    4.0748 C   0  0  0  0  0  0  0  0  0  0  0  0
   -7.2391   22.9943    2.8831 C   0  0  0  0  0  0  0  0  0  0  0  0
   -6.3788   24.0679    2.9648 C   0  0  0  0  0  0  0  0  0  0  0  0
   -5.9622   24.5813    4.1793 C   0  0  0  0  0  0  0  0  0  0  0  0
   -6.3880   24.0201    5.3705 C   0  0  0  0  0  0  0  0  0  0  0  0
   -7.2550   22.9136    5.3275 C   0  0  0  0  0  0  0  0  0  0  0  0
   -7.7205   22.2999    6.6212 C   0  0  0  0  0  0  0  0  0  0  0  0
   -5.0958   25.7645    3.9409 C   0  0  0  0  0  0  0  0  0  0  0  0
   -4.8505   25.5956    2.4380 C   0  0  0  0  0  0  0  0  0  0  0  0
   -5.8892   24.7484    1.8808 O   0  0  0  0  0  0  0  0  0  0  0  0
   -6.5469   28.6082    6.0412 C   0  0  0  0  0  0  0  0  0  0  0  0
   -6.0117   29.0122    7.3666 C   0  0  0  0  0  0  0  0  0  0  0  0
   -6.5526   28.7425    8.5403 N   0  0  0  0  0  0  0  0  0  0  0  0
   -5.7584   29.2894    9.5206 N   0  0  0  0  0  0  0  0  0  0  0  0
   -4.7474   29.8845    8.9315 C   0  0  0  0  0  0  0  0  0  0  0  0
   -3.6343   30.6404    9.5620 C   0  0  0  0  0  0  0  0  0  0  0  0
   -2.4431   30.7791    8.6059 C   0  0  0  0  0  0  0  0  0  0  0  0
   -2.9281   31.2279    7.2155 C   0  0  0  0  0  0  0  0  0  0  0  0
   -3.9005   30.2094    6.6142 C   0  0  0  0  0  0  0  0  0  0  0  0
   -4.8714   29.7380    7.5756 N   0  0  0  0  0  0  0  0  0  0  0  0
   -1.4332   31.7533    9.1779 C   0  0  0  0  0  0  0  0  0  0  0  0
   -0.2215   31.1802    9.3300 F   0  0  0  0  0  0  0  0  0  0  0  0
   -1.8334   32.1992   10.3888 F   0  0  0  0  0  0  0  0  0  0  0  0
   -1.2880   32.8287    8.3758 F   0  0  0  0  0  0  0  0  0  0  0  0
  5  6  1  0  0  0
  6  7  1  0  0  0
  7  8  2  0  0  0
  8  9  1  0  0  0
  9 10  2  0  0  0
 10 11  1  0  0  0
 11 12  1  0  0  0
  9 13  1  0  0  0
 13  1  1  0  0  0
  1  2  2  0  0  0
  1  3  1  0  0  0
  3 16  1  0  0  0
 16 17  1  0  0  0
 17 18  2  0  0  0
 18 19  1  0  0  0
 19 20  2  0  0  0
 20 21  1  0  0  0
 21 22  1  0  0  0
 22 26  1  0  0  0
 26 27  1  0  0  0
 26 28  1  0  0  0
 26 29  1  0  0  0
 22 23  1  0  0  0
 23 24  1  0  0  0
 24 25  1  0  0  0
 13 14  1  0  0  0
 14 15  1  0  0  0
 11  6  2  0  0  0
 25 17  1  0  0  0
 15  8  1  0  0  0
 25 20  1  0  0  0
  3  4  1  0  0  0
M  END
> <minimizedAffinity>
-10.46089

$$$$
OCNT-2309065


 28 31  0  0  0  0  0  0  0  0999 V2000
   -5.3838   25.6078    2.9070 C   0  0  0  0  0  0  0  0  0  0  0  0
   -5.4217   26.9220    2.9649 N   0  0  0  0  0  0  0  0  0  0  0  0
   -5.9344   27.1392    4.2177 C   0  0  0  0  0  0  0  0  0  0  0  0
   -6.2207   26.0304    4.9116 N   0  0  0  0  0  0  0  0  0  0  0  0
   -5.8500   25.0046    4.0410 O   0  0  0  0  0  0  0  0  0  0  0  0
   -4.9232   24.7029    1.8113 C   0  0  0  0  0  0  0  0  0  0  0  0
   -3.8401   23.7418    2.3078 C   0  0  0  0  0  0  0  0  0  0  0  0
   -6.7642   25.6727   -0.6998 C   0  0  0  0  0  0  0  0  0  0  0  0
   -6.8548   24.4037    0.0610 C   0  0  0  0  0  0  0  0  0  0  0  0
   -7.7797   23.4966   -0.2681 N   0  0  0  0  0  0  0  0  0  0  0  0
   -7.6124   22.4503    0.6133 O   0  0  0  0  0  0  0  0  0  0  0  0
   -6.5894   22.7267    1.4630 C   0  0  0  0  0  0  0  0  0  0  0  0
   -6.2994   21.6903    2.4741 C   0  0  0  0  0  0  0  0  0  0  0  0
   -6.0604   23.9679    1.1622 C   0  0  0  0  0  0  0  0  0  0  0  0
   -6.1650   28.5012    4.7581 C   0  0  0  0  0  0  0  0  0  0  0  0
   -6.8030   28.4618    6.1486 C   0  0  0  0  0  0  0  0  0  0  0  0
   -6.5255   29.7389    6.9367 C   0  0  0  0  0  0  0  0  0  0  0  0
   -5.2216   29.6459    7.5048 O   0  0  0  0  0  0  0  0  0  0  0  0
   -4.6946   30.7678    8.0989 C   0  0  0  0  0  0  0  0  0  0  0  0
   -5.4331   31.9205    8.3871 C   0  0  0  0  0  0  0  0  0  0  0  0
   -4.8202   33.0161    8.9926 C   0  0  0  0  0  0  0  0  0  0  0  0
   -3.4655   32.9715    9.3130 C   0  0  0  0  0  0  0  0  0  0  0  0
   -2.7002   31.8314    9.0314 C   0  0  0  0  0  0  0  0  0  0  0  0
   -1.3331   31.7916    9.3542 C   0  0  0  0  0  0  0  0  0  0  0  0
   -0.5634   30.6622    9.0767 C   0  0  0  0  0  0  0  0  0  0  0  0
   -1.1502   29.5575    8.4725 C   0  0  0  0  0  0  0  0  0  0  0  0
   -2.5077   29.5826    8.1464 C   0  0  0  0  0  0  0  0  0  0  0  0
   -3.3124   30.7121    8.4160 C   0  0  0  0  0  0  0  0  0  0  0  0
  8  9  1  0  0  0
  9 10  2  0  0  0
 10 11  1  0  0  0
 11 12  1  0  0  0
 12 13  1  0  0  0
 12 14  2  0  0  0
 14  6  1  0  0  0
  6  7  1  0  0  0
  6  1  1  0  0  0
  1  2  2  0  0  0
  2  3  1  0  0  0
  3 15  1  0  0  0
 15 16  1  0  0  0
 16 17  1  0  0  0
 17 18  1  0  0  0
 18 19  1  0  0  0
 19 20  2  0  0  0
 20 21  1  0  0  0
 21 22  2  0  0  0
 22 23  1  0  0  0
 23 24  2  0  0  0
 24 25  1  0  0  0
 25 26  2  0  0  0
 26 27  1  0  0  0
 27 28  2  0  0  0
  3  4  2  0  0  0
  4  5  1  0  0  0
 14  9  1  0  0  0
  5  1  1  0  0  0
 28 19  1  0  0  0
 28 23  1  0  0  0
M  END
> <minimizedAffinity>
-10.02396

$$$$
OCNT-2309084


 30 34  0  0  0  0  0  0  0  0999 V2000
   -5.5990   28.9798    6.7292 S   0  0  0  0  0  0  0  0  0  0  0  0
   -5.7484   29.9321    5.6537 O   0  0  0  0  0  0  0  0  0  0  0  0
   -6.1519   29.2182    8.0483 O   0  0  0  0  0  0  0  0  0  0  0  0
   -3.8649   28.6220    6.9161 C   0  0  0  0  0  0  0  0  0  0  0  0
   -3.3207   27.5245    6.1922 C   0  0  0  0  0  0  0  0  0  0  0  0
   -1.9499   27.2276    6.2457 C   0  0  0  0  0  0  0  0  0  0  0  0
   -1.1614   28.0397    7.0254 C   0  0  0  0  0  0  0  0  0  0  0  0
    0.2091   27.9950    7.2580 N   0  0  0  0  0  0  0  0  0  0  0  0
    0.5618   29.0224    8.1195 C   0  0  0  0  0  0  0  0  0  0  0  0
    1.6632   29.2998    8.5459 O   0  0  0  0  0  0  0  0  0  0  0  0
   -0.7026   29.7291    8.4193 C   0  0  0  0  0  0  0  0  0  0  0  0
   -1.6989   29.0866    7.7283 C   0  0  0  0  0  0  0  0  0  0  0  0
   -3.0443   29.4464    7.7410 C   0  0  0  0  0  0  0  0  0  0  0  0
   -3.3343   30.5691    8.5703 C   0  0  0  0  0  0  0  0  0  0  0  0
   -2.3125   31.2411    9.2855 C   0  0  0  0  0  0  0  0  0  0  0  0
   -0.9772   30.8227    9.2110 C   0  0  0  0  0  0  0  0  0  0  0  0
    0.8677   27.3322    6.8775 H   0  0  0  0  0  0  0  0  0  0  0  0
   -6.2273   27.5009    6.1962 N   0  0  0  0  0  0  0  0  0  0  0  0
   -7.0815   27.2099    6.6741 H   0  0  0  0  0  0  0  0  0  0  0  0
   -5.7372   25.9361    4.2463 C   0  0  0  0  0  0  0  0  0  0  0  0
   -6.0174   27.1690    4.7865 C   0  0  0  0  0  0  0  0  0  0  0  0
   -6.0516   28.0472    3.7325 N   0  0  0  0  0  0  0  0  0  0  0  0
   -5.8677   27.4523    2.5400 N   0  0  0  0  0  0  0  0  0  0  0  0
   -5.6722   26.1690    2.8592 C   0  0  0  0  0  0  0  0  0  0  0  0
   -6.2099   29.0516    3.7704 H   0  0  0  0  0  0  0  0  0  0  0  0
   -5.3984   25.0767    1.7886 C   0  0  0  0  0  0  0  0  0  0  0  0
   -6.0592   25.1863    0.4381 C   0  0  0  0  0  0  0  0  0  0  0  0
   -6.5062   24.1288    1.4037 C   0  0  0  0  0  0  0  0  0  0  0  0
   -5.5013   23.6932    5.5001 N   0  0  0  0  0  0  0  0  0  0  0  0
   -5.5853   24.7085    4.9449 C   0  0  0  0  0  0  0  0  0  0  0  0
 29 30  3  0  0  0
 30 20  1  0  0  0
 20 21  2  0  0  0
 21 18  1  0  0  0
 18  1  1  0  0  0
  1  2  2  0  0  0
  1  3  2  0  0  0
  1  4  1  0  0  0
  4  5  2  0  0  0
  5  6  1  0  0  0
  6  7  2  0  0  0
  7  8  1  0  0  0
  8  9  1  0  0  0
  9 10  2  0  0  0
  9 11  1  0  0  0
 11 12  2  0  0  0
 12 13  1  0  0  0
 13 14  2  0  0  0
 14 15  1  0  0  0
 15 16  2  0  0  0
 21 22  1  0  0  0
 22 23  1  0  0  0
 23 24  2  0  0  0
 24 26  1  0  0  0
 26 27  1  0  0  0
 27 28  1  0  0  0
 24 20  1  0  0  0
 28 26  1  0  0  0
 13  4  1  0  0  0
 12  7  1  0  0  0
 16 11  1  0  0  0
 18 19  1  0  0  0
  8 17  1  0  0  0
 22 25  1  0  0  0
M  END
> <minimizedAffinity>
-10.02064

$$$$
OCNT-2309101


 23 25  0  0  0  0  0  0  0  0999 V2000
   -3.3775   26.3621    4.4298 C   0  0  0  0  0  0  0  0  0  0  0  0
   -2.1281   26.2061    3.5389 C   0  0  0  0  0  0  0  0  0  0  0  0
   -0.9359   25.6970    4.3420 C   0  0  0  0  0  0  0  0  0  0  0  0
   -0.6359   26.5928    5.5520 C   0  0  0  0  0  0  0  0  0  0  0  0
   -1.8241   27.2750    6.0953 N   0  0  0  0  0  0  0  0  0  0  0  0
   -3.0214   26.4327    5.9266 C   0  0  0  0  0  0  0  0  0  0  0  0
   -4.1295   24.5989    2.9625 N   0  0  0  0  0  0  0  0  0  0  0  0
   -4.3847   25.2398    4.1637 C   0  0  0  0  0  0  0  0  0  0  0  0
   -5.2761   24.9794    4.9622 O   0  0  0  0  0  0  0  0  0  0  0  0
   -3.3588   24.9343    2.4053 H   0  0  0  0  0  0  0  0  0  0  0  0
   -7.2117   22.8362   -0.2992 C   0  0  0  0  0  0  0  0  0  0  0  0
   -6.3392   22.6157    0.8989 C   0  0  0  0  0  0  0  0  0  0  0  0
   -6.2432   21.3552    1.4727 C   0  0  0  0  0  0  0  0  0  0  0  0
   -5.4177   21.1930    2.5772 C   0  0  0  0  0  0  0  0  0  0  0  0
   -4.7156   22.2903    3.0690 C   0  0  0  0  0  0  0  0  0  0  0  0
   -4.8589   23.5232    2.4383 C   0  0  0  0  0  0  0  0  0  0  0  0
   -5.6585   23.6853    1.3716 N   0  0  0  0  0  0  0  0  0  0  0  0
   -1.6011   27.6484    7.5038 C   0  0  0  0  0  0  0  0  0  0  0  0
   -1.6411   29.1358    7.6691 C   0  0  0  0  0  0  0  0  0  0  0  0
   -2.2791   30.0492    6.8432 C   0  0  0  0  0  0  0  0  0  0  0  0
   -1.9974   31.6103    7.4877 S   0  0  0  0  0  0  0  0  0  0  0  0
   -1.0776   31.0250    8.7549 N   0  0  0  0  0  0  0  0  0  0  0  0
   -0.9618   29.7075    8.7410 N   0  0  0  0  0  0  0  0  0  0  0  0
 11 12  1  0  0  0
 12 13  2  0  0  0
 13 14  1  0  0  0
 14 15  2  0  0  0
 15 16  1  0  0  0
 16  7  1  0  0  0
  7  8  1  0  0  0
  8  9  2  0  0  0
  8  1  1  0  0  0
  1  2  1  0  0  0
  2  3  1  0  0  0
  3  4  1  0  0  0
  4  5  1  0  0  0
  5 18  1  0  0  0
 18 19  1  0  0  0
 19 20  2  0  0  0
 20 21  1  0  0  0
 21 22  1  0  0  0
 22 23  2  0  0  0
  5  6  1  0  0  0
 16 17  2  0  0  0
 17 12  1  0  0  0
  6  1  1  0  0  0
 23 19  1  0  0  0
  7 10  1  0  0  0
M  END
> <minimizedAffinity>
-8.37303

$$$$
OCNT-2309109


 25 27  0  0  0  0  0  0  0  0999 V2000
   -5.5599   28.4209    6.9129 N   0  0  0  0  0  0  0  0  0  0  0  0
   -5.0397   27.7183    7.4375 H   0  0  0  0  0  0  0  0  0  0  0  0
   -5.0962   28.4949    5.5379 C   0  0  0  0  0  0  0  0  0  0  0  0
   -5.9517   29.5178    4.7574 C   0  0  0  0  0  0  0  0  0  0  0  0
   -5.8738   29.1016    3.2841 C   0  0  0  0  0  0  0  0  0  0  0  0
   -5.7680   27.6135    3.4194 C   0  0  0  0  0  0  0  0  0  0  0  0
   -6.0088   26.6572    2.4462 C   0  0  0  0  0  0  0  0  0  0  0  0
   -5.8225   25.3189    2.7844 C   0  0  0  0  0  0  0  0  0  0  0  0
   -6.0604   24.3847    1.8510 F   0  0  0  0  0  0  0  0  0  0  0  0
   -5.3922   24.9494    4.0663 C   0  0  0  0  0  0  0  0  0  0  0  0
   -5.1628   23.2879    4.4621 Cl  0  0  0  0  0  0  0  0  0  0  0  0
   -5.1374   25.9219    5.0379 C   0  0  0  0  0  0  0  0  0  0  0  0
   -5.3342   27.2568    4.7074 C   0  0  0  0  0  0  0  0  0  0  0  0
   -5.5432   29.7154    7.6022 C   0  0  0  0  0  0  0  0  0  0  0  0
   -4.9064   29.6686    9.0141 C   0  0  0  0  0  0  0  0  0  0  0  0
   -4.9434   28.3143    9.4909 O   0  0  0  0  0  0  0  0  0  0  0  0
   -4.3668   28.2887   10.2747 H   0  0  0  0  0  0  0  0  0  0  0  0
   -2.4170   29.4498    8.5023 C   0  0  0  0  0  0  0  0  0  0  0  0
   -1.1154   29.9615    8.5650 C   0  0  0  0  0  0  0  0  0  0  0  0
   -0.8630   31.1896    9.1816 C   0  0  0  0  0  0  0  0  0  0  0  0
   -1.9061   31.9159    9.7451 C   0  0  0  0  0  0  0  0  0  0  0  0
   -3.2058   31.4182    9.6857 C   0  0  0  0  0  0  0  0  0  0  0  0
   -3.4810   30.1895    9.0556 C   0  0  0  0  0  0  0  0  0  0  0  0
   -1.7133   27.5204    7.2855 C   0  0  0  0  0  0  0  0  0  0  0  0
   -2.7516   28.2504    7.9273 O   0  0  0  0  0  0  0  0  0  0  0  0
 24 25  1  0  0  0
 25 18  1  0  0  0
 18 19  2  0  0  0
 19 20  1  0  0  0
 20 21  2  0  0  0
 21 22  1  0  0  0
 22 23  2  0  0  0
 23 15  1  0  0  0
 15 16  1  0  0  0
 15 14  1  0  0  0
 14  1  1  0  0  0
  1  3  1  0  0  0
  3  4  1  0  0  0
  4  5  1  0  0  0
  5  6  1  0  0  0
  6  7  1  0  0  0
  7  8  2  0  0  0
  8  9  1  0  0  0
  8 10  1  0  0  0
 10 11  1  0  0  0
 10 12  2  0  0  0
 12 13  1  0  0  0
 23 18  1  0  0  0
 13  3  1  0  0  0
 13  6  2  0  0  0
 16 17  1  0  0  0
  1  2  1  0  0  0
M  END
> <minimizedAffinity>
-9.10183

$$$$
OCNT-2309135


 21 23  0  0  0  0  0  0  0  0999 V2000
   -2.4065   28.8741    6.7711 O   0  0  0  0  0  0  0  0  0  0  0  0
   -3.6123   29.1087    6.6701 C   0  0  0  0  0  0  0  0  0  0  0  0
   -4.4257   28.2946    5.8692 N   0  0  0  0  0  0  0  0  0  0  0  0
   -3.8342   27.0819    5.3125 C   0  0  0  0  0  0  0  0  0  0  0  0
   -4.8982   26.0706    4.8978 C   0  0  0  0  0  0  0  0  0  0  0  0
   -5.8852   26.6397    3.8598 C   0  0  0  0  0  0  0  0  0  0  0  0
   -5.9425   28.1812    3.9223 C   0  0  0  0  0  0  0  0  0  0  0  0
   -5.7289   28.7031    5.3403 C   0  0  0  0  0  0  0  0  0  0  0  0
   -4.2068   30.2493    7.3518 C   0  0  0  0  0  0  0  0  0  0  0  0
   -4.0886   31.5807    6.9977 C   0  0  0  0  0  0  0  0  0  0  0  0
   -4.7474   32.4500    7.9144 C   0  0  0  0  0  0  0  0  0  0  0  0
   -5.3125   31.7579    8.9619 C   0  0  0  0  0  0  0  0  0  0  0  0
   -5.0318   30.0748    8.8446 S   0  0  0  0  0  0  0  0  0  0  0  0
   -5.5815   26.2005    2.4144 C   0  0  0  0  0  0  0  0  0  0  0  0
   -4.4926   25.1314    2.1975 C   0  0  0  0  0  0  0  0  0  0  0  0
   -4.8662   23.7539    1.8785 N   0  0  0  0  0  0  0  0  0  0  0  0
   -5.9659   23.6168    0.9133 C   0  0  0  0  0  0  0  0  0  0  0  0
   -6.1917   22.1422    0.5402 C   0  0  0  0  0  0  0  0  0  0  0  0
   -6.4480   21.3456    1.7055 O   0  0  0  0  0  0  0  0  0  0  0  0
   -5.3391   21.4340    2.6115 C   0  0  0  0  0  0  0  0  0  0  0  0
   -5.0874   22.8884    3.0452 C   0  0  0  0  0  0  0  0  0  0  0  0
  1  2  2  0  0  0
  2  9  1  0  0  0
  9 10  2  0  0  0
 10 11  1  0  0  0
 11 12  2  0  0  0
 12 13  1  0  0  0
  2  3  1  0  0  0
  3  4  1  0  0  0
  4  5  1  0  0  0
  5  6  1  0  0  0
  6 14  1  0  0  0
 14 15  1  0  0  0
 15 16  1  0  0  0
 16 17  1  0  0  0
 17 18  1  0  0  0
 18 19  1  0  0  0
 19 20  1  0  0  0
 20 21  1  0  0  0
  6  7  1  0  0  0
  7  8  1  0  0  0
 13  9  1  0  0  0
  8  3  1  0  0  0
 21 16  1  0  0  0
M  END
> <minimizedAffinity>
-7.56262

$$$$
OCNT-2309139


 27 30  0  0  0  0  0  0  0  0999 V2000
   -5.3576   30.6547    8.1557 C   0  0  0  0  0  0  0  0  0  0  0  0
   -6.2020   30.2961    8.9709 O   0  0  0  0  0  0  0  0  0  0  0  0
   -5.5657   30.5825    6.7953 N   0  0  0  0  0  0  0  0  0  0  0  0
   -4.7523   30.6521    6.2022 H   0  0  0  0  0  0  0  0  0  0  0  0
   -4.5048   33.5923    9.3669 C   0  0  0  0  0  0  0  0  0  0  0  0
   -3.6892   32.3928    9.0387 C   0  0  0  0  0  0  0  0  0  0  0  0
   -4.0317   31.1341    8.5467 C   0  0  0  0  0  0  0  0  0  0  0  0
   -2.8229   30.3566    8.5228 C   0  0  0  0  0  0  0  0  0  0  0  0
   -2.5161   29.0289    8.1537 C   0  0  0  0  0  0  0  0  0  0  0  0
   -1.1955   28.5734    8.2360 C   0  0  0  0  0  0  0  0  0  0  0  0
   -0.1812   29.4186    8.6769 C   0  0  0  0  0  0  0  0  0  0  0  0
   -0.4559   30.7377    9.0481 C   0  0  0  0  0  0  0  0  0  0  0  0
   -1.7833   31.1750    8.9591 C   0  0  0  0  0  0  0  0  0  0  0  0
   -2.3318   32.3969    9.2580 N   0  0  0  0  0  0  0  0  0  0  0  0
   -1.8029   33.1785    9.6198 H   0  0  0  0  0  0  0  0  0  0  0  0
   -6.7602   29.9860    6.2506 C   0  0  0  0  0  0  0  0  0  0  0  0
   -6.4307   28.8773    5.2943 C   0  0  0  0  0  0  0  0  0  0  0  0
   -6.1253   29.1270    3.9549 C   0  0  0  0  0  0  0  0  0  0  0  0
   -5.8078   28.0684    3.1021 C   0  0  0  0  0  0  0  0  0  0  0  0
   -5.7986   26.7752    3.6175 C   0  0  0  0  0  0  0  0  0  0  0  0
   -6.0837   26.5103    4.9177 N   0  0  0  0  0  0  0  0  0  0  0  0
   -6.3842   27.5563    5.7221 C   0  0  0  0  0  0  0  0  0  0  0  0
   -5.4826   25.6680    2.7835 N   0  0  0  0  0  0  0  0  0  0  0  0
   -4.7885   24.5177    3.0917 C   0  0  0  0  0  0  0  0  0  0  0  0
   -4.7610   23.7749    1.9339 C   0  0  0  0  0  0  0  0  0  0  0  0
   -5.4117   24.4225    0.9227 N   0  0  0  0  0  0  0  0  0  0  0  0
   -5.8331   25.5491    1.4564 C   0  0  0  0  0  0  0  0  0  0  0  0
  5  6  1  0  0  0
  6  7  2  0  0  0
  7  1  1  0  0  0
  1  2  2  0  0  0
  1  3  1  0  0  0
  3 16  1  0  0  0
 16 17  1  0  0  0
 17 18  2  0  0  0
 18 19  1  0  0  0
 19 20  2  0  0  0
 20 23  1  0  0  0
 23 24  1  0  0  0
 24 25  2  0  0  0
 25 26  1  0  0  0
 26 27  2  0  0  0
 20 21  1  0  0  0
 21 22  2  0  0  0
  7  8  1  0  0  0
  8  9  2  0  0  0
  9 10  1  0  0  0
 10 11  2  0  0  0
 11 12  1  0  0  0
 12 13  2  0  0  0
 13 14  1  0  0  0
 14  6  1  0  0  0
 22 17  1  0  0  0
 13  8  1  0  0  0
 27 23  1  0  0  0
  3  4  1  0  0  0
 14 15  1  0  0  0
M  END
> <minimizedAffinity>
-9.96116

$$$$
OCNT-2309149


 23 25  0  0  0  0  0  0  0  0999 V2000
   -5.4466   26.2012    3.8686 C   0  0  0  0  0  0  0  0  0  0  0  0
   -4.5203   25.5315    4.8961 C   0  0  0  0  0  0  0  0  0  0  0  0
   -3.3057   26.3978    5.2125 C   0  0  0  0  0  0  0  0  0  0  0  0
   -3.7388   27.6812    5.7491 N   0  0  0  0  0  0  0  0  0  0  0  0
   -5.0164   28.2347    5.3167 C   0  0  0  0  0  0  0  0  0  0  0  0
   -5.3557   27.7322    3.9196 C   0  0  0  0  0  0  0  0  0  0  0  0
   -2.8851   28.4702    6.4381 C   0  0  0  0  0  0  0  0  0  0  0  0
   -3.0847   29.6378    7.0160 N   0  0  0  0  0  0  0  0  0  0  0  0
   -1.8889   30.0193    7.5866 N   0  0  0  0  0  0  0  0  0  0  0  0
   -1.0341   29.0530    7.3196 C   0  0  0  0  0  0  0  0  0  0  0  0
   -1.5955   28.0362    6.5928 O   0  0  0  0  0  0  0  0  0  0  0  0
    0.3921   28.9282    7.6868 C   0  0  0  0  0  0  0  0  0  0  0  0
    1.1972   29.6170    6.8295 F   0  0  0  0  0  0  0  0  0  0  0  0
    0.6413   29.4372    8.9264 F   0  0  0  0  0  0  0  0  0  0  0  0
   -5.0328   25.7398    2.5741 O   0  0  0  0  0  0  0  0  0  0  0  0
   -8.2532   22.7308   -0.7035 F   0  0  0  0  0  0  0  0  0  0  0  0
   -7.4710   23.4345    0.1244 C   0  0  0  0  0  0  0  0  0  0  0  0
   -6.9709   24.6634   -0.2853 C   0  0  0  0  0  0  0  0  0  0  0  0
   -6.1556   25.3951    0.5806 C   0  0  0  0  0  0  0  0  0  0  0  0
   -5.8372   24.9029    1.8539 C   0  0  0  0  0  0  0  0  0  0  0  0
   -6.3580   23.6631    2.2386 C   0  0  0  0  0  0  0  0  0  0  0  0
   -6.1046   23.1326    3.4427 F   0  0  0  0  0  0  0  0  0  0  0  0
   -7.1723   22.9271    1.3801 C   0  0  0  0  0  0  0  0  0  0  0  0
 16 17  1  0  0  0
 17 18  1  0  0  0
 18 19  2  0  0  0
 19 20  1  0  0  0
 20 15  1  0  0  0
 15  1  1  0  0  0
  1  2  1  0  0  0
  2  3  1  0  0  0
  3  4  1  0  0  0
  4  7  1  0  0  0
  7  8  2  0  0  0
  8  9  1  0  0  0
  9 10  2  0  0  0
 10 12  1  0  0  0
 12 13  1  0  0  0
 12 14  1  0  0  0
 10 11  1  0  0  0
  4  5  1  0  0  0
  5  6  1  0  0  0
 20 21  2  0  0  0
 21 22  1  0  0  0
 21 23  1  0  0  0
 23 17  2  0  0  0
  6  1  1  0  0  0
 11  7  1  0  0  0
M  END
> <minimizedAffinity>
-8.84028

$$$$
OCNT-2309157


 28 31  0  0  0  0  0  0  0  0999 V2000
   -4.9348   27.1663    5.5433 N   0  0  0  0  0  0  0  0  0  0  0  0
   -5.8631   28.0180    6.0966 C   0  0  0  0  0  0  0  0  0  0  0  0
   -7.0740   27.8163    6.1468 O   0  0  0  0  0  0  0  0  0  0  0  0
   -5.3071   29.1823    6.6546 N   0  0  0  0  0  0  0  0  0  0  0  0
   -6.2347   30.0956    7.3211 C   0  0  0  0  0  0  0  0  0  0  0  0
   -5.5307   31.0145    8.3114 C   0  0  0  0  0  0  0  0  0  0  0  0
   -4.3943   31.8119    7.6746 C   0  0  0  0  0  0  0  0  0  0  0  0
   -3.9715   31.2664    6.3118 C   0  0  0  0  0  0  0  0  0  0  0  0
   -4.0064   29.7322    6.2363 C   0  0  0  0  0  0  0  0  0  0  0  0
   -3.9968   27.2133    5.9020 H   0  0  0  0  0  0  0  0  0  0  0  0
   -5.4677   22.4272    4.2181 C   0  0  0  0  0  0  0  0  0  0  0  0
   -5.4182   23.9083    4.2049 C   0  0  0  0  0  0  0  0  0  0  0  0
   -5.0003   24.7351    5.2307 C   0  0  0  0  0  0  0  0  0  0  0  0
   -5.2255   26.0492    4.7895 C   0  0  0  0  0  0  0  0  0  0  0  0
   -5.7144   26.0533    3.5585 N   0  0  0  0  0  0  0  0  0  0  0  0
   -5.8232   24.7549    3.1733 N   0  0  0  0  0  0  0  0  0  0  0  0
   -6.3024   24.4795    1.8506 C   0  0  0  0  0  0  0  0  0  0  0  0
   -6.0755   25.3253    0.7595 C   0  0  0  0  0  0  0  0  0  0  0  0
   -6.5712   24.9977   -0.5094 C   0  0  0  0  0  0  0  0  0  0  0  0
   -7.3019   23.8284   -0.7029 C   0  0  0  0  0  0  0  0  0  0  0  0
   -7.5467   22.9835    0.3737 C   0  0  0  0  0  0  0  0  0  0  0  0
   -7.0548   23.3071    1.6409 C   0  0  0  0  0  0  0  0  0  0  0  0
   -2.8951   29.0960    7.0249 C   0  0  0  0  0  0  0  0  0  0  0  0
   -2.9266   28.4497    8.2460 C   0  0  0  0  0  0  0  0  0  0  0  0
   -1.6518   28.0445    8.5088 N   0  0  0  0  0  0  0  0  0  0  0  0
   -0.7868   28.3553    7.5312 N   0  0  0  0  0  0  0  0  0  0  0  0
   -1.5345   29.0082    6.6407 C   0  0  0  0  0  0  0  0  0  0  0  0
   -1.3041   27.5465    9.3224 H   0  0  0  0  0  0  0  0  0  0  0  0
 11 12  1  0  0  0
 12 13  2  0  0  0
 13 14  1  0  0  0
 14  1  1  0  0  0
  1  2  1  0  0  0
  2  3  2  0  0  0
  2  4  1  0  0  0
  4  5  1  0  0  0
  5  6  1  0  0  0
  6  7  1  0  0  0
  7  8  1  0  0  0
  8  9  1  0  0  0
  9 23  1  0  0  0
 23 24  2  0  0  0
 24 25  1  0  0  0
 25 26  1  0  0  0
 26 27  2  0  0  0
 14 15  2  0  0  0
 15 16  1  0  0  0
 16 17  1  0  0  0
 17 18  2  0  0  0
 18 19  1  0  0  0
 19 20  2  0  0  0
 20 21  1  0  0  0
 21 22  2  0  0  0
 16 12  1  0  0  0
 22 17  1  0  0  0
  9  4  1  0  0  0
 27 23  1  0  0  0
  1 10  1  0  0  0
 25 28  1  0  0  0
M  END
> <minimizedAffinity>
-9.89941

$$$$
OCNT-2309162


 23 24  0  0  0  0  0  0  0  0999 V2000
   -4.0215   30.9292    8.3955 N   0  0  0  0  0  0  0  0  0  0  0  0
   -5.1009   31.5548    9.1736 C   0  0  0  0  0  0  0  0  0  0  0  0
   -6.4033   30.9964    8.6041 C   0  0  0  0  0  0  0  0  0  0  0  0
   -5.9852   30.3408    7.2904 C   0  0  0  0  0  0  0  0  0  0  0  0
   -4.5978   29.8133    7.6411 C   0  0  0  0  0  0  0  0  0  0  0  0
   -2.1766   31.6790   10.0153 C   0  0  0  0  0  0  0  0  0  0  0  0
   -2.7995   30.5743    9.1560 C   0  0  0  0  0  0  0  0  0  0  0  0
   -1.7471   29.9876    8.1857 C   0  0  0  0  0  0  0  0  0  0  0  0
   -1.1835   30.6336    7.3081 O   0  0  0  0  0  0  0  0  0  0  0  0
   -1.4484   28.6575    8.4408 N   0  0  0  0  0  0  0  0  0  0  0  0
   -2.1694   28.1771    8.9733 H   0  0  0  0  0  0  0  0  0  0  0  0
   -0.6650   27.8928    7.4728 C   0  0  0  0  0  0  0  0  0  0  0  0
   -1.4877   26.9708    6.5665 C   0  0  0  0  0  0  0  0  0  0  0  0
   -2.3821   27.6898    5.8406 F   0  0  0  0  0  0  0  0  0  0  0  0
   -0.7238   26.2781    5.6949 F   0  0  0  0  0  0  0  0  0  0  0  0
   -2.1880   26.0748    7.3028 F   0  0  0  0  0  0  0  0  0  0  0  0
   -6.9202   29.2308    6.8051 C   0  0  0  0  0  0  0  0  0  0  0  0
   -6.4986   28.6301    5.4841 C   0  0  0  0  0  0  0  0  0  0  0  0
   -6.2758   27.2502    5.3702 C   0  0  0  0  0  0  0  0  0  0  0  0
   -5.8874   26.6956    4.1502 C   0  0  0  0  0  0  0  0  0  0  0  0
   -5.7191   27.5114    3.0305 C   0  0  0  0  0  0  0  0  0  0  0  0
   -5.9428   28.8842    3.1329 C   0  0  0  0  0  0  0  0  0  0  0  0
   -6.3293   29.4420    4.3519 C   0  0  0  0  0  0  0  0  0  0  0  0
  6  7  1  0  0  0
  7  8  1  0  0  0
  8  9  2  0  0  0
  8 10  1  0  0  0
 10 12  1  0  0  0
 12 13  1  0  0  0
 13 14  1  0  0  0
 13 15  1  0  0  0
 13 16  1  0  0  0
  7  1  1  0  0  0
  1  2  1  0  0  0
  2  3  1  0  0  0
  3  4  1  0  0  0
  4 17  1  0  0  0
 17 18  1  0  0  0
 18 19  2  0  0  0
 19 20  1  0  0  0
 20 21  2  0  0  0
 21 22  1  0  0  0
 22 23  2  0  0  0
  4  5  1  0  0  0
  5  1  1  0  0  0
 23 18  1  0  0  0
 10 11  1  0  0  0
M  END
> <minimizedAffinity>
-8.64669

$$$$
OCNT-2309174


 24 26  0  0  0  0  0  0  0  0999 V2000
   -5.7268   22.8244    2.9094 C   0  0  0  0  0  0  0  0  0  0  0  0
   -4.5337   22.6132    3.1029 O   0  0  0  0  0  0  0  0  0  0  0  0
   -6.7494   22.3037    3.7072 N   0  0  0  0  0  0  0  0  0  0  0  0
   -6.3971   21.4394    4.8283 C   0  0  0  0  0  0  0  0  0  0  0  0
   -7.0597   21.9337    6.1110 C   0  0  0  0  0  0  0  0  0  0  0  0
   -8.5794   22.1780    5.9634 C   0  0  0  0  0  0  0  0  0  0  0  0
   -9.0629   21.8919    4.5298 C   0  0  0  0  0  0  0  0  0  0  0  0
   -8.1739   22.5374    3.4694 C   0  0  0  0  0  0  0  0  0  0  0  0
   -5.9982   25.0580    1.6776 C   0  0  0  0  0  0  0  0  0  0  0  0
   -6.3758   25.6483    0.4476 C   0  0  0  0  0  0  0  0  0  0  0  0
   -6.8332   24.8966   -0.6426 C   0  0  0  0  0  0  0  0  0  0  0  0
   -6.9121   23.5161   -0.5560 C   0  0  0  0  0  0  0  0  0  0  0  0
   -6.5393   22.8916    0.6267 C   0  0  0  0  0  0  0  0  0  0  0  0
   -6.1074   23.6462    1.7374 C   0  0  0  0  0  0  0  0  0  0  0  0
   -5.8383   27.4495    2.6503 C   0  0  0  0  0  0  0  0  0  0  0  0
   -5.4453   25.9541    2.8148 C   0  0  0  0  0  0  0  0  0  0  0  0
   -5.9553   25.5640    4.2186 C   0  0  0  0  0  0  0  0  0  0  0  0
   -3.9044   25.8942    2.7953 C   0  0  0  0  0  0  0  0  0  0  0  0
   -8.9228   23.6027    6.4424 C   0  0  0  0  0  0  0  0  0  0  0  0
   -9.8181   23.6494    7.5774 N   0  0  0  0  0  0  0  0  0  0  0  0
  -10.9711   24.3635    7.7080 C   0  0  0  0  0  0  0  0  0  0  0  0
  -11.4050   24.0498    8.9732 C   0  0  0  0  0  0  0  0  0  0  0  0
  -10.5251   23.1825    9.5554 N   0  0  0  0  0  0  0  0  0  0  0  0
   -9.5474   22.9477    8.6900 N   0  0  0  0  0  0  0  0  0  0  0  0
 15 16  1  0  0  0
 16 17  1  0  0  0
 16 18  1  0  0  0
 16  9  1  0  0  0
  9 10  2  0  0  0
 10 11  1  0  0  0
 11 12  2  0  0  0
 12 13  1  0  0  0
 13 14  2  0  0  0
 14  1  1  0  0  0
  1  2  2  0  0  0
  1  3  1  0  0  0
  3  4  1  0  0  0
  4  5  1  0  0  0
  5  6  1  0  0  0
  6 19  1  0  0  0
 19 20  1  0  0  0
 20 21  1  0  0  0
 21 22  2  0  0  0
 22 23  1  0  0  0
 23 24  2  0  0  0
  6  7  1  0  0  0
  7  8  1  0  0  0
 14  9  1  0  0  0
  8  3  1  0  0  0
 24 20  1  0  0  0
M  END
> <minimizedAffinity>
-8.27470

$$$$
OCNT-2309179


 26 28  0  0  0  0  0  0  0  0999 V2000
   -6.1466   30.8296    6.5811 N   0  0  0  0  0  0  0  0  0  0  0  0
   -6.6170   31.6105    7.0290 H   0  0  0  0  0  0  0  0  0  0  0  0
   -2.2472   30.4620    7.9843 C   0  0  0  0  0  0  0  0  0  0  0  0
   -2.5054   31.2719    6.8854 C   0  0  0  0  0  0  0  0  0  0  0  0
   -3.8184   31.3884    6.4296 C   0  0  0  0  0  0  0  0  0  0  0  0
   -4.8455   30.7157    7.0943 C   0  0  0  0  0  0  0  0  0  0  0  0
   -4.6004   29.9374    8.1701 N   0  0  0  0  0  0  0  0  0  0  0  0
   -3.3184   29.8412    8.6040 C   0  0  0  0  0  0  0  0  0  0  0  0
    1.2164   29.1076    8.7301 C   0  0  0  0  0  0  0  0  0  0  0  0
   -0.0736   29.2843    8.0842 N   0  0  0  0  0  0  0  0  0  0  0  0
   -0.2618   28.5583    6.8339 C   0  0  0  0  0  0  0  0  0  0  0  0
   -0.8797   30.3364    8.5162 C   0  0  0  0  0  0  0  0  0  0  0  0
   -0.5218   31.1718    9.3434 O   0  0  0  0  0  0  0  0  0  0  0  0
   -6.9336   29.6075    6.6720 C   0  0  0  0  0  0  0  0  0  0  0  0
   -6.5172   28.6791    5.5531 C   0  0  0  0  0  0  0  0  0  0  0  0
   -6.2314   29.1691    4.2747 C   0  0  0  0  0  0  0  0  0  0  0  0
   -5.8368   28.3018    3.2466 C   0  0  0  0  0  0  0  0  0  0  0  0
   -5.7153   26.9204    3.4774 C   0  0  0  0  0  0  0  0  0  0  0  0
   -5.9974   26.4407    4.7620 C   0  0  0  0  0  0  0  0  0  0  0  0
   -5.9031   25.1426    5.0777 F   0  0  0  0  0  0  0  0  0  0  0  0
   -6.3910   27.3050    5.7852 C   0  0  0  0  0  0  0  0  0  0  0  0
   -5.3138   26.0480    2.4225 N   0  0  0  0  0  0  0  0  0  0  0  0
   -4.1014   25.4137    2.2492 C   0  0  0  0  0  0  0  0  0  0  0  0
   -4.2019   24.6842    1.0887 C   0  0  0  0  0  0  0  0  0  0  0  0
   -5.4331   24.8385    0.5274 N   0  0  0  0  0  0  0  0  0  0  0  0
   -6.0739   25.6522    1.3375 C   0  0  0  0  0  0  0  0  0  0  0  0
  9 10  1  0  0  0
 10 11  1  0  0  0
 10 12  1  0  0  0
 12 13  2  0  0  0
 12  3  1  0  0  0
  3  4  2  0  0  0
  4  5  1  0  0  0
  5  6  2  0  0  0
  6  1  1  0  0  0
  1 14  1  0  0  0
 14 15  1  0  0  0
 15 16  1  0  0  0
 16 17  2  0  0  0
 17 18  1  0  0  0
 18 22  1  0  0  0
 22 23  1  0  0  0
 23 24  2  0  0  0
 24 25  1  0  0  0
 25 26  2  0  0  0
 18 19  2  0  0  0
 19 20  1  0  0  0
 19 21  1  0  0  0
  6  7  1  0  0  0
  7  8  2  0  0  0
  8  3  1  0  0  0
 21 15  2  0  0  0
 26 22  1  0  0  0
  1  2  1  0  0  0
M  END
> <minimizedAffinity>
-8.86537

$$$$
OCNT-2309181


 25 27  0  0  0  0  0  0  0  0999 V2000
   -4.9981   28.0453    4.8445 C   0  0  0  0  0  0  0  0  0  0  0  0
   -6.0814   28.4510    3.8521 C   0  0  0  0  0  0  0  0  0  0  0  0
   -5.8034   27.5228    2.6806 C   0  0  0  0  0  0  0  0  0  0  0  0
   -5.5178   26.2416    3.3338 N   0  0  0  0  0  0  0  0  0  0  0  0
   -4.7517   26.5501    4.5543 C   0  0  0  0  0  0  0  0  0  0  0  0
   -5.2564   28.4179    6.2449 N   0  0  0  0  0  0  0  0  0  0  0  0
   -4.1914   28.8077    7.0704 C   0  0  0  0  0  0  0  0  0  0  0  0
   -3.0271   28.8007    6.6709 O   0  0  0  0  0  0  0  0  0  0  0  0
   -7.2728   29.8365    6.4525 C   0  0  0  0  0  0  0  0  0  0  0  0
   -6.6627   28.4581    6.6575 C   0  0  0  0  0  0  0  0  0  0  0  0
   -4.5426   29.2193    8.5018 C   0  0  0  0  0  0  0  0  0  0  0  0
   -4.1941   30.6301    8.8431 C   0  0  0  0  0  0  0  0  0  0  0  0
   -4.9460   31.7697    8.6324 C   0  0  0  0  0  0  0  0  0  0  0  0
   -4.2176   32.8087    9.1341 N   0  0  0  0  0  0  0  0  0  0  0  0
   -4.5775   34.2051    9.1311 C   0  0  0  0  0  0  0  0  0  0  0  0
   -3.0556   32.4276    9.6899 N   0  0  0  0  0  0  0  0  0  0  0  0
   -3.0282   31.1079    9.4888 C   0  0  0  0  0  0  0  0  0  0  0  0
   -4.8961   25.2361    2.4559 C   0  0  0  0  0  0  0  0  0  0  0  0
   -4.2745   24.0801    3.2595 C   0  0  0  0  0  0  0  0  0  0  0  0
   -5.8848   24.6452    1.4535 C   0  0  0  0  0  0  0  0  0  0  0  0
   -6.5763   23.4617    1.7568 C   0  0  0  0  0  0  0  0  0  0  0  0
   -7.4912   22.9211    0.8506 C   0  0  0  0  0  0  0  0  0  0  0  0
   -7.7267   23.5554   -0.3678 C   0  0  0  0  0  0  0  0  0  0  0  0
   -7.0477   24.7303   -0.6833 C   0  0  0  0  0  0  0  0  0  0  0  0
   -6.1341   25.2730    0.2214 C   0  0  0  0  0  0  0  0  0  0  0  0
  9 10  1  0  0  0
 10  6  1  0  0  0
  6  7  1  0  0  0
  7  8  2  0  0  0
  7 11  1  0  0  0
 11 12  1  0  0  0
 12 13  2  0  0  0
 13 14  1  0  0  0
 14 15  1  0  0  0
 14 16  1  0  0  0
 16 17  2  0  0  0
  6  1  1  0  0  0
  1  2  1  0  0  0
  2  3  1  0  0  0
  3  4  1  0  0  0
  4 18  1  0  0  0
 18 19  1  0  0  0
 18 20  1  0  0  0
 20 21  2  0  0  0
 21 22  1  0  0  0
 22 23  2  0  0  0
 23 24  1  0  0  0
 24 25  2  0  0  0
  4  5  1  0  0  0
 17 12  1  0  0  0
  5  1  1  0  0  0
 25 20  1  0  0  0
M  END
> <minimizedAffinity>
-9.00078

$$$$
OCNT-2309187


 26 28  0  0  0  0  0  0  0  0999 V2000
   -1.5500   26.0414    4.2322 O   0  0  0  0  0  0  0  0  0  0  0  0
   -1.6657   26.4095    5.3981 C   0  0  0  0  0  0  0  0  0  0  0  0
   -2.8483   26.3450    6.1040 N   0  0  0  0  0  0  0  0  0  0  0  0
   -2.7558   26.2723    7.1186 H   0  0  0  0  0  0  0  0  0  0  0  0
   -0.4768   26.8761    6.2352 C   0  0  0  0  0  0  0  0  0  0  0  0
   -0.8808   28.0106    7.0441 N   0  0  0  0  0  0  0  0  0  0  0  0
   -0.2469   29.2316    6.8988 C   0  0  0  0  0  0  0  0  0  0  0  0
    0.7028   29.3473    6.1230 O   0  0  0  0  0  0  0  0  0  0  0  0
   -1.8172   27.9936    7.4233 H   0  0  0  0  0  0  0  0  0  0  0  0
   -0.8184   30.3221    7.6771 C   0  0  0  0  0  0  0  0  0  0  0  0
   -0.6357   30.6639    9.0069 C   0  0  0  0  0  0  0  0  0  0  0  0
   -1.3898   31.8136    9.3877 C   0  0  0  0  0  0  0  0  0  0  0  0
   -2.1206   32.3203    8.3384 C   0  0  0  0  0  0  0  0  0  0  0  0
   -1.8933   31.4185    6.9057 S   0  0  0  0  0  0  0  0  0  0  0  0
   -4.0347   25.7959    5.4985 C   0  0  0  0  0  0  0  0  0  0  0  0
   -4.8482   26.8507    4.7852 C   0  0  0  0  0  0  0  0  0  0  0  0
   -5.0723   28.0488    5.5008 C   0  0  0  0  0  0  0  0  0  0  0  0
   -5.7275   29.1368    4.9258 C   0  0  0  0  0  0  0  0  0  0  0  0
   -6.1746   29.0564    3.6160 C   0  0  0  0  0  0  0  0  0  0  0  0
   -5.9808   27.8828    2.8875 C   0  0  0  0  0  0  0  0  0  0  0  0
   -5.3398   26.7635    3.4604 C   0  0  0  0  0  0  0  0  0  0  0  0
   -5.2251   25.5953    2.6464 N   0  0  0  0  0  0  0  0  0  0  0  0
   -4.1994   25.3149    1.7627 C   0  0  0  0  0  0  0  0  0  0  0  0
   -4.4947   24.0966    1.2007 C   0  0  0  0  0  0  0  0  0  0  0  0
   -5.6820   23.6229    1.6737 N   0  0  0  0  0  0  0  0  0  0  0  0
   -6.1073   24.5458    2.5107 C   0  0  0  0  0  0  0  0  0  0  0  0
  1  2  2  0  0  0
  2  5  1  0  0  0
  5  6  1  0  0  0
  6  7  1  0  0  0
  7  8  2  0  0  0
  7 10  1  0  0  0
 10 11  2  0  0  0
 11 12  1  0  0  0
 12 13  2  0  0  0
 13 14  1  0  0  0
  2  3  1  0  0  0
  3 15  1  0  0  0
 15 16  1  0  0  0
 16 17  2  0  0  0
 17 18  1  0  0  0
 18 19  2  0  0  0
 19 20  1  0  0  0
 20 21  2  0  0  0
 21 22  1  0  0  0
 22 23  1  0  0  0
 23 24  2  0  0  0
 24 25  1  0  0  0
 25 26  2  0  0  0
 14 10  1  0  0  0
 21 16  1  0  0  0
 26 22  1  0  0  0
  6  9  1  0  0  0
  3  4  1  0  0  0
M  END
> <minimizedAffinity>
-8.26197

$$$$
OCNT-2309193


 25 26  0  0  0  0  0  0  0  0999 V2000
   -4.2361   30.6125    7.6364 C   0  0  0  0  0  0  0  0  0  0  0  0
   -5.4722   31.3702    8.1837 C   0  0  0  0  0  0  0  0  0  0  0  0
   -6.3626   30.2697    8.7354 C   0  0  0  0  0  0  0  0  0  0  0  0
   -6.2142   29.1784    7.6907 C   0  0  0  0  0  0  0  0  0  0  0  0
   -4.8657   29.3385    7.1561 N   0  0  0  0  0  0  0  0  0  0  0  0
   -4.1880   28.3983    6.4135 C   0  0  0  0  0  0  0  0  0  0  0  0
   -3.0080   28.5260    6.0979 O   0  0  0  0  0  0  0  0  0  0  0  0
   -4.9275   27.3110    6.0418 N   0  0  0  0  0  0  0  0  0  0  0  0
   -5.9304   27.4110    6.0437 H   0  0  0  0  0  0  0  0  0  0  0  0
   -3.6439   31.4320    6.4522 C   0  0  0  0  0  0  0  0  0  0  0  0
   -4.3648   31.2962    5.2334 O   0  0  0  0  0  0  0  0  0  0  0  0
   -5.3092   31.4682    5.4513 H   0  0  0  0  0  0  0  0  0  0  0  0
   -3.1967   30.2540    8.7454 C   0  0  0  0  0  0  0  0  0  0  0  0
   -0.6414   30.4742    9.0062 C   0  0  0  0  0  0  0  0  0  0  0  0
   -1.9898   31.1877    8.9859 C   0  0  0  0  0  0  0  0  0  0  0  0
   -2.1862   31.9302   10.3149 C   0  0  0  0  0  0  0  0  0  0  0  0
   -4.3986   26.2668    5.1765 C   0  0  0  0  0  0  0  0  0  0  0  0
   -5.0291   26.2405    3.7502 C   0  0  0  0  0  0  0  0  0  0  0  0
   -3.8863   26.2749    2.7098 C   0  0  0  0  0  0  0  0  0  0  0  0
   -5.8709   27.5187    3.5326 C   0  0  0  0  0  0  0  0  0  0  0  0
   -5.8831   24.9752    3.5399 C   0  0  0  0  0  0  0  0  0  0  0  0
   -6.1714   24.3002    2.3638 C   0  0  0  0  0  0  0  0  0  0  0  0
   -7.0098   23.1652    2.5607 C   0  0  0  0  0  0  0  0  0  0  0  0
   -7.3427   22.9953    3.8829 C   0  0  0  0  0  0  0  0  0  0  0  0
   -6.6502   24.1961    4.8761 S   0  0  0  0  0  0  0  0  0  0  0  0
 14 15  1  0  0  0
 15 16  1  0  0  0
 15 13  1  0  0  0
 13  1  1  0  0  0
  1 10  1  0  0  0
 10 11  1  0  0  0
  1  2  1  0  0  0
  2  3  1  0  0  0
  3  4  1  0  0  0
  4  5  1  0  0  0
  5  6  1  0  0  0
  6  7  2  0  0  0
  6  8  1  0  0  0
  8 17  1  0  0  0
 17 18  1  0  0  0
 18 19  1  0  0  0
 18 20  1  0  0  0
 18 21  1  0  0  0
 21 22  2  0  0  0
 22 23  1  0  0  0
 23 24  2  0  0  0
 24 25  1  0  0  0
  5  1  1  0  0  0
 25 21  1  0  0  0
 11 12  1  0  0  0
  8  9  1  0  0  0
M  END
> <minimizedAffinity>
-8.45350

$$$$
OCNT-2309194


 29 32  0  0  0  0  0  0  0  0999 V2000
   -5.7305   28.0110    6.2461 C   0  0  0  0  0  0  0  0  0  0  0  0
   -6.7363   28.2565    6.9052 O   0  0  0  0  0  0  0  0  0  0  0  0
   -4.4571   28.1556    6.7634 N   0  0  0  0  0  0  0  0  0  0  0  0
   -3.6972   28.2345    6.1036 H   0  0  0  0  0  0  0  0  0  0  0  0
   -5.4320   23.8860    4.0450 C   0  0  0  0  0  0  0  0  0  0  0  0
   -5.5826   24.0449    2.6623 C   0  0  0  0  0  0  0  0  0  0  0  0
   -5.7795   25.3031    2.0828 C   0  0  0  0  0  0  0  0  0  0  0  0
   -5.8190   26.3843    2.9566 C   0  0  0  0  0  0  0  0  0  0  0  0
   -5.9917   27.6809    2.5946 O   0  0  0  0  0  0  0  0  0  0  0  0
   -5.9577   28.4307    3.7324 C   0  0  0  0  0  0  0  0  0  0  0  0
   -6.0577   29.8898    3.5172 C   0  0  0  0  0  0  0  0  0  0  0  0
   -5.8030   27.6180    4.8473 C   0  0  0  0  0  0  0  0  0  0  0  0
   -5.6813   26.2835    4.3331 C   0  0  0  0  0  0  0  0  0  0  0  0
   -5.4826   25.0017    4.8929 C   0  0  0  0  0  0  0  0  0  0  0  0
   -5.2760   21.5921    3.4333 C   0  0  0  0  0  0  0  0  0  0  0  0
   -5.2438   22.5898    4.4469 O   0  0  0  0  0  0  0  0  0  0  0  0
   -4.2849   28.7484    8.0807 C   0  0  0  0  0  0  0  0  0  0  0  0
   -3.6994   30.1954    8.0826 C   0  0  0  0  0  0  0  0  0  0  0  0
   -4.0157   30.8528    9.4818 C   0  0  0  0  0  0  0  0  0  0  0  0
   -4.3074   32.2809    9.1303 C   0  0  0  0  0  0  0  0  0  0  0  0
   -4.3452   33.3758    9.9774 C   0  0  0  0  0  0  0  0  0  0  0  0
   -4.6730   34.6207    9.4364 C   0  0  0  0  0  0  0  0  0  0  0  0
   -4.9680   34.7510    8.0701 C   0  0  0  0  0  0  0  0  0  0  0  0
   -4.9393   33.6381    7.2271 C   0  0  0  0  0  0  0  0  0  0  0  0
   -4.6001   32.4110    7.7720 C   0  0  0  0  0  0  0  0  0  0  0  0
   -4.5503   31.0796    7.0925 C   0  0  0  0  0  0  0  0  0  0  0  0
   -2.2116   30.2759    7.8953 N   0  0  0  0  0  0  0  0  0  0  0  0
   -1.7307   30.7024    6.5903 C   0  0  0  0  0  0  0  0  0  0  0  0
   -1.4700   29.1054    8.3631 C   0  0  0  0  0  0  0  0  0  0  0  0
 15 16  1  0  0  0
 16  5  1  0  0  0
  5  6  2  0  0  0
  6  7  1  0  0  0
  7  8  2  0  0  0
  8  9  1  0  0  0
  9 10  1  0  0  0
 10 11  1  0  0  0
 10 12  2  0  0  0
 12  1  1  0  0  0
  1  2  2  0  0  0
  1  3  1  0  0  0
  3 17  1  0  0  0
 17 18  1  0  0  0
 18 27  1  0  0  0
 27 28  1  0  0  0
 27 29  1  0  0  0
 18 19  1  0  0  0
 19 20  1  0  0  0
 20 21  2  0  0  0
 21 22  1  0  0  0
 22 23  2  0  0  0
 23 24  1  0  0  0
 24 25  2  0  0  0
 25 26  1  0  0  0
 12 13  1  0  0  0
 13 14  2  0  0  0
 14  5  1  0  0  0
 13  8  1  0  0  0
 26 18  1  0  0  0
 25 20  1  0  0  0
  3  4  1  0  0  0
M  END
> <minimizedAffinity>
-9.68874

$$$$
OCNT-2309206


 31 32  0  0  0  0  0  0  0  0999 V2000
   -4.0616   26.5517    4.9352 C   0  0  0  0  0  0  0  0  0  0  0  0
   -7.1304   28.2656    6.3748 C   0  0  0  0  0  0  0  0  0  0  0  0
   -6.0333   27.3666    6.1140 N   0  0  0  0  0  0  0  0  0  0  0  0
   -5.2162   27.5450    5.0164 C   0  0  0  0  0  0  0  0  0  0  0  0
   -5.4261   28.3998    4.1591 O   0  0  0  0  0  0  0  0  0  0  0  0
   -5.7063   26.7876    6.8770 H   0  0  0  0  0  0  0  0  0  0  0  0
   -2.9274   26.9649    5.8852 C   0  0  0  0  0  0  0  0  0  0  0  0
   -2.7199   28.4029    5.9444 N   0  0  0  0  0  0  0  0  0  0  0  0
   -3.2219   29.1369    7.0014 C   0  0  0  0  0  0  0  0  0  0  0  0
   -3.7333   28.6144    7.9819 O   0  0  0  0  0  0  0  0  0  0  0  0
   -3.0221   30.4833    6.7886 N   0  0  0  0  0  0  0  0  0  0  0  0
   -2.8031   28.8554    5.0386 H   0  0  0  0  0  0  0  0  0  0  0  0
   -2.4482   30.7082    5.9898 H   0  0  0  0  0  0  0  0  0  0  0  0
   -3.4195   31.5560    7.6089 C   0  0  0  0  0  0  0  0  0  0  0  0
   -2.8953   31.7998    8.8808 C   0  0  0  0  0  0  0  0  0  0  0  0
   -3.3464   32.8868    9.6385 C   0  0  0  0  0  0  0  0  0  0  0  0
   -4.3266   33.7321    9.1268 C   0  0  0  0  0  0  0  0  0  0  0  0
   -4.8811   35.0671   10.0586 Cl  0  0  0  0  0  0  0  0  0  0  0  0
   -4.8616   33.4991    7.8632 C   0  0  0  0  0  0  0  0  0  0  0  0
   -4.4091   32.4129    7.1078 C   0  0  0  0  0  0  0  0  0  0  0  0
   -3.6121   26.4229    3.4687 C   0  0  0  0  0  0  0  0  0  0  0  0
   -4.3537   25.3484    2.7092 C   0  0  0  0  0  0  0  0  0  0  0  0
   -4.0610   23.9959    2.9245 C   0  0  0  0  0  0  0  0  0  0  0  0
   -4.7595   23.0006    2.2376 C   0  0  0  0  0  0  0  0  0  0  0  0
   -5.7584   23.3386    1.3141 C   0  0  0  0  0  0  0  0  0  0  0  0
   -6.0555   24.6938    1.1062 C   0  0  0  0  0  0  0  0  0  0  0  0
   -5.3593   25.6891    1.7963 C   0  0  0  0  0  0  0  0  0  0  0  0
   -6.5296   22.2669    0.5849 C   0  0  0  0  0  0  0  0  0  0  0  0
   -6.8828   22.6212   -0.6823 F   0  0  0  0  0  0  0  0  0  0  0  0
   -5.8241   21.1082    0.4679 F   0  0  0  0  0  0  0  0  0  0  0  0
   -7.6929   21.9319    1.2122 F   0  0  0  0  0  0  0  0  0  0  0  0
  2  3  1  0  0  0
  3  4  1  0  0  0
  4  5  2  0  0  0
  4  1  1  0  0  0
  1  7  1  0  0  0
  7  8  1  0  0  0
  8  9  1  0  0  0
  9 10  2  0  0  0
  9 11  1  0  0  0
 11 14  1  0  0  0
 14 15  1  0  0  0
 15 16  2  0  0  0
 16 17  1  0  0  0
 17 18  1  0  0  0
 17 19  2  0  0  0
 19 20  1  0  0  0
  1 21  1  0  0  0
 21 22  1  0  0  0
 22 23  1  0  0  0
 23 24  2  0  0  0
 24 25  1  0  0  0
 25 28  1  0  0  0
 28 29  1  0  0  0
 28 30  1  0  0  0
 28 31  1  0  0  0
 25 26  2  0  0  0
 26 27  1  0  0  0
 20 14  2  0  0  0
 27 22  2  0  0  0
  3  6  1  0  0  0
  8 12  1  0  0  0
 11 13  1  0  0  0
M  END
> <minimizedAffinity>
-9.63928

$$$$
OCNT-2309207


 26 28  0  0  0  0  0  0  0  0999 V2000
   -2.4419   26.9909    5.4388 C   0  0  0  0  0  0  0  0  0  0  0  0
   -2.9416   27.8454    6.5506 N   0  0  0  0  0  0  0  0  0  0  0  0
   -3.9877   28.7674    6.0865 C   0  0  0  0  0  0  0  0  0  0  0  0
   -4.9964   28.8872    7.2149 C   0  0  0  0  0  0  0  0  0  0  0  0
   -6.1425   28.4560    7.0375 O   0  0  0  0  0  0  0  0  0  0  0  0
   -4.6045   29.4717    8.4168 N   0  0  0  0  0  0  0  0  0  0  0  0
   -5.6465   29.5498    9.4402 C   0  0  0  0  0  0  0  0  0  0  0  0
   -3.3315   30.0817    8.6907 C   0  0  0  0  0  0  0  0  0  0  0  0
   -3.3044   31.1259    9.6500 C   0  0  0  0  0  0  0  0  0  0  0  0
   -2.1367   31.8083    9.9995 C   0  0  0  0  0  0  0  0  0  0  0  0
   -0.9427   31.4657    9.3989 C   0  0  0  0  0  0  0  0  0  0  0  0
   -0.9318   30.4422    8.4581 C   0  0  0  0  0  0  0  0  0  0  0  0
   -2.1077   29.7315    8.0841 C   0  0  0  0  0  0  0  0  0  0  0  0
   -1.8252   28.6226    7.0878 C   0  0  0  0  0  0  0  0  0  0  0  0
   -3.4567   25.8933    3.5145 N   0  0  0  0  0  0  0  0  0  0  0  0
   -3.5162   26.0403    4.8858 C   0  0  0  0  0  0  0  0  0  0  0  0
   -4.3401   25.5351    5.6442 O   0  0  0  0  0  0  0  0  0  0  0  0
   -2.6575   26.3483    3.0815 H   0  0  0  0  0  0  0  0  0  0  0  0
   -5.8643   23.4383    1.0605 C   0  0  0  0  0  0  0  0  0  0  0  0
   -4.8740   22.9015    1.8894 C   0  0  0  0  0  0  0  0  0  0  0  0
   -4.0934   23.7380    2.6928 C   0  0  0  0  0  0  0  0  0  0  0  0
   -4.2859   25.1240    2.6810 C   0  0  0  0  0  0  0  0  0  0  0  0
   -5.2692   25.6609    1.8509 C   0  0  0  0  0  0  0  0  0  0  0  0
   -6.0504   24.8251    1.0445 C   0  0  0  0  0  0  0  0  0  0  0  0
   -7.8902   23.2806   -0.4087 C   0  0  0  0  0  0  0  0  0  0  0  0
   -6.6984   22.5428    0.1817 C   0  0  0  0  0  0  0  0  0  0  0  0
 25 26  1  0  0  0
 26 19  1  0  0  0
 19 20  1  0  0  0
 20 21  2  0  0  0
 21 22  1  0  0  0
 22 15  1  0  0  0
 15 16  1  0  0  0
 16 17  2  0  0  0
 16  1  1  0  0  0
  1  2  1  0  0  0
  2  3  1  0  0  0
  3  4  1  0  0  0
  4  5  2  0  0  0
  4  6  1  0  0  0
  6  7  1  0  0  0
  6  8  1  0  0  0
  8  9  2  0  0  0
  9 10  1  0  0  0
 10 11  2  0  0  0
 11 12  1  0  0  0
 12 13  2  0  0  0
 13 14  1  0  0  0
 22 23  2  0  0  0
 23 24  1  0  0  0
 24 19  2  0  0  0
 14  2  1  0  0  0
 13  8  1  0  0  0
 15 18  1  0  0  0
M  END
> <minimizedAffinity>
-9.83495

$$$$
OCNT-2309214


 24 26  0  0  0  0  0  0  0  0999 V2000
   -4.4170   30.2372    7.1905 N   0  0  0  0  0  0  0  0  0  0  0  0
   -4.1315   31.5683    6.5722 C   0  0  0  0  0  0  0  0  0  0  0  0
   -4.5246   32.7488    7.4804 C   0  0  0  0  0  0  0  0  0  0  0  0
   -3.8946   32.6753    8.8105 N   0  0  0  0  0  0  0  0  0  0  0  0
   -4.3529   33.7706    9.6631 C   0  0  0  0  0  0  0  0  0  0  0  0
   -4.1900   31.3654    9.4365 C   0  0  0  0  0  0  0  0  0  0  0  0
   -3.8142   30.1241    8.5648 C   0  0  0  0  0  0  0  0  0  0  0  0
   -2.3324   29.7668    8.4639 C   0  0  0  0  0  0  0  0  0  0  0  0
   -1.9751   28.6144    7.7376 C   0  0  0  0  0  0  0  0  0  0  0  0
   -0.6392   28.2329    7.6020 C   0  0  0  0  0  0  0  0  0  0  0  0
    0.3643   28.9997    8.1865 C   0  0  0  0  0  0  0  0  0  0  0  0
    0.0313   30.1470    8.9023 C   0  0  0  0  0  0  0  0  0  0  0  0
   -1.3064   30.5293    9.0390 C   0  0  0  0  0  0  0  0  0  0  0  0
   -5.9964   29.6386    7.0638 S   0  0  0  0  0  0  0  0  0  0  0  0
   -6.1942   28.6446    8.0968 O   0  0  0  0  0  0  0  0  0  0  0  0
   -6.8951   30.7656    6.9339 O   0  0  0  0  0  0  0  0  0  0  0  0
   -5.8680   26.6987    4.2831 C   0  0  0  0  0  0  0  0  0  0  0  0
   -5.9434   27.4329    3.0937 C   0  0  0  0  0  0  0  0  0  0  0  0
   -6.0228   28.8275    3.1128 C   0  0  0  0  0  0  0  0  0  0  0  0
   -6.0321   29.5021    4.3298 C   0  0  0  0  0  0  0  0  0  0  0  0
   -5.9653   28.7676    5.5173 C   0  0  0  0  0  0  0  0  0  0  0  0
   -5.8793   27.3702    5.5044 C   0  0  0  0  0  0  0  0  0  0  0  0
   -6.5795   24.5389    4.9824 C   0  0  0  0  0  0  0  0  0  0  0  0
   -5.7926   25.3438    4.1124 O   0  0  0  0  0  0  0  0  0  0  0  0
 23 24  1  0  0  0
 24 17  1  0  0  0
 17 18  1  0  0  0
 18 19  2  0  0  0
 19 20  1  0  0  0
 20 21  2  0  0  0
 21 14  1  0  0  0
 14 15  2  0  0  0
 14 16  2  0  0  0
 14  1  1  0  0  0
  1  2  1  0  0  0
  2  3  1  0  0  0
  3  4  1  0  0  0
  4  5  1  0  0  0
  4  6  1  0  0  0
  6  7  1  0  0  0
  7  8  1  0  0  0
  8  9  2  0  0  0
  9 10  1  0  0  0
 10 11  2  0  0  0
 11 12  1  0  0  0
 12 13  2  0  0  0
 21 22  1  0  0  0
 22 17  2  0  0  0
  7  1  1  0  0  0
 13  8  1  0  0  0
M  END
> <minimizedAffinity>
-9.00810

$$$$
OCNT-2309246


 24 28  0  0  0  0  0  0  0  0999 V2000
   -2.9849   25.0459    2.8735 O   0  0  0  0  0  0  0  0  0  0  0  0
   -4.1390   25.0721    3.2975 C   0  0  0  0  0  0  0  0  0  0  0  0
   -4.5875   26.0240    4.2276 N   0  0  0  0  0  0  0  0  0  0  0  0
   -5.9892   26.4549    4.2776 C   0  0  0  0  0  0  0  0  0  0  0  0
   -6.1145   27.9649    4.4150 C   0  0  0  0  0  0  0  0  0  0  0  0
   -5.4404   28.4301    5.6212 N   0  0  0  0  0  0  0  0  0  0  0  0
   -4.1600   27.8562    5.8562 C   0  0  0  0  0  0  0  0  0  0  0  0
   -3.3036   28.4210    6.8235 C   0  0  0  0  0  0  0  0  0  0  0  0
   -2.0305   27.9074    7.0699 C   0  0  0  0  0  0  0  0  0  0  0  0
   -1.5877   26.8013    6.3626 C   0  0  0  0  0  0  0  0  0  0  0  0
   -2.4214   26.2010    5.4180 C   0  0  0  0  0  0  0  0  0  0  0  0
   -3.7077   26.7039    5.1480 C   0  0  0  0  0  0  0  0  0  0  0  0
   -5.1050   24.1066    2.8213 C   0  0  0  0  0  0  0  0  0  0  0  0
   -5.4771   22.8861    3.3579 C   0  0  0  0  0  0  0  0  0  0  0  0
   -6.4280   22.2605    2.5995 N   0  0  0  0  0  0  0  0  0  0  0  0
   -6.6151   23.0517    1.5662 C   0  0  0  0  0  0  0  0  0  0  0  0
   -7.4722   22.9195    0.4365 C   0  0  0  0  0  0  0  0  0  0  0  0
   -7.4882   23.8778   -0.5094 C   0  0  0  0  0  0  0  0  0  0  0  0
   -6.6447   25.0567   -0.4074 C   0  0  0  0  0  0  0  0  0  0  0  0
   -5.8343   25.1888    0.6564 C   0  0  0  0  0  0  0  0  0  0  0  0
   -5.8161   24.1931    1.6377 N   0  0  0  0  0  0  0  0  0  0  0  0
   -5.8372   29.7262    6.1961 C   0  0  0  0  0  0  0  0  0  0  0  0
   -6.3836   29.8920    7.5913 C   0  0  0  0  0  0  0  0  0  0  0  0
   -7.2878   30.0743    6.4130 C   0  0  0  0  0  0  0  0  0  0  0  0
  1  2  2  0  0  0
  2 13  1  0  0  0
 13 14  2  0  0  0
 14 15  1  0  0  0
 15 16  2  0  0  0
 16 17  1  0  0  0
 17 18  2  0  0  0
 18 19  1  0  0  0
 19 20  2  0  0  0
 20 21  1  0  0  0
  2  3  1  0  0  0
  3  4  1  0  0  0
  4  5  1  0  0  0
  5  6  1  0  0  0
  6 22  1  0  0  0
 22 23  1  0  0  0
 23 24  1  0  0  0
  6  7  1  0  0  0
  7  8  2  0  0  0
  8  9  1  0  0  0
  9 10  2  0  0  0
 10 11  1  0  0  0
 11 12  2  0  0  0
 21 13  1  0  0  0
 12  3  1  0  0  0
 21 16  1  0  0  0
 24 22  1  0  0  0
 12  7  1  0  0  0
M  END
> <minimizedAffinity>
-9.16923

$$$$
OCNT-2309252


 23 25  0  0  0  0  0  0  0  0999 V2000
   -7.9804   30.1770    6.0778 O   0  0  0  0  0  0  0  0  0  0  0  0
   -6.8146   29.7734    6.0637 C   0  0  0  0  0  0  0  0  0  0  0  0
   -5.9406   30.0852    7.1160 N   0  0  0  0  0  0  0  0  0  0  0  0
   -6.3810   31.0716    8.0989 C   0  0  0  0  0  0  0  0  0  0  0  0
   -5.1953   31.8120    8.7070 C   0  0  0  0  0  0  0  0  0  0  0  0
   -4.2616   30.8482    9.4569 C   0  0  0  0  0  0  0  0  0  0  0  0
   -4.2511   29.4423    8.8299 C   0  0  0  0  0  0  0  0  0  0  0  0
   -4.6539   29.4283    7.3550 C   0  0  0  0  0  0  0  0  0  0  0  0
   -6.3519   28.9627    4.9240 C   0  0  0  0  0  0  0  0  0  0  0  0
   -6.1087   29.4423    3.6932 N   0  0  0  0  0  0  0  0  0  0  0  0
   -5.7344   28.3615    2.9220 O   0  0  0  0  0  0  0  0  0  0  0  0
   -5.7719   27.2199    3.6656 C   0  0  0  0  0  0  0  0  0  0  0  0
   -6.1662   27.5514    4.9392 C   0  0  0  0  0  0  0  0  0  0  0  0
   -5.4129   25.9813    2.9847 C   0  0  0  0  0  0  0  0  0  0  0  0
   -4.6676   24.9860    3.6248 C   0  0  0  0  0  0  0  0  0  0  0  0
   -4.3574   23.8290    2.9279 C   0  0  0  0  0  0  0  0  0  0  0  0
   -4.7337   23.5976    1.6541 N   0  0  0  0  0  0  0  0  0  0  0  0
   -5.4501   24.5663    1.0496 C   0  0  0  0  0  0  0  0  0  0  0  0
   -5.8092   25.7566    1.6628 C   0  0  0  0  0  0  0  0  0  0  0  0
   -2.8552   31.4388    9.6656 C   0  0  0  0  0  0  0  0  0  0  0  0
   -1.6998   30.6330    9.0790 C   0  0  0  0  0  0  0  0  0  0  0  0
   -0.4667   31.2482    9.4333 O   0  0  0  0  0  0  0  0  0  0  0  0
   -0.4011   31.2419   10.4035 H   0  0  0  0  0  0  0  0  0  0  0  0
  1  2  2  0  0  0
  2  9  1  0  0  0
  9 10  2  0  0  0
 10 11  1  0  0  0
 11 12  1  0  0  0
 12 14  1  0  0  0
 14 15  2  0  0  0
 15 16  1  0  0  0
 16 17  2  0  0  0
 17 18  1  0  0  0
 18 19  2  0  0  0
 12 13  2  0  0  0
  2  3  1  0  0  0
  3  4  1  0  0  0
  4  5  1  0  0  0
  5  6  1  0  0  0
  6 20  1  0  0  0
 20 21  1  0  0  0
 21 22  1  0  0  0
  6  7  1  0  0  0
  7  8  1  0  0  0
 13  9  1  0  0  0
  8  3  1  0  0  0
 19 14  1  0  0  0
 22 23  1  0  0  0
M  END
> <minimizedAffinity>
-8.40509

$$$$
OCNT-2309256


 21 23  0  0  0  0  0  0  0  0999 V2000
   -5.7244   29.1622    4.7564 C   0  0  0  0  0  0  0  0  0  0  0  0
   -5.8435   30.0090    3.8694 O   0  0  0  0  0  0  0  0  0  0  0  0
   -5.7979   27.7896    4.4595 N   0  0  0  0  0  0  0  0  0  0  0  0
   -6.0183   26.7752    5.4889 C   0  0  0  0  0  0  0  0  0  0  0  0
   -6.3210   25.3902    4.9206 C   0  0  0  0  0  0  0  0  0  0  0  0
   -5.2953   25.0363    3.8352 C   0  0  0  0  0  0  0  0  0  0  0  0
   -5.2569   26.1073    2.7049 C   0  0  0  0  0  0  0  0  0  0  0  0
   -5.7675   25.5812    1.3585 C   0  0  0  0  0  0  0  0  0  0  0  0
   -5.1123   24.2613    0.9543 C   0  0  0  0  0  0  0  0  0  0  0  0
   -4.5420   23.4806    2.1387 C   0  0  0  0  0  0  0  0  0  0  0  0
   -5.3199   23.6316    3.3712 N   0  0  0  0  0  0  0  0  0  0  0  0
   -6.6411   23.0198    3.2697 C   0  0  0  0  0  0  0  0  0  0  0  0
   -6.0166   27.3909    3.0767 C   0  0  0  0  0  0  0  0  0  0  0  0
   -4.3657   29.5729    6.8912 C   0  0  0  0  0  0  0  0  0  0  0  0
   -5.5267   29.5396    6.1446 C   0  0  0  0  0  0  0  0  0  0  0  0
   -6.8764   30.0941    7.0390 S   0  0  0  0  0  0  0  0  0  0  0  0
   -5.9348   30.3306    8.4459 C   0  0  0  0  0  0  0  0  0  0  0  0
   -6.5776   30.8329    9.6927 C   0  0  0  0  0  0  0  0  0  0  0  0
   -4.6084   30.0159    8.2280 C   0  0  0  0  0  0  0  0  0  0  0  0
   -2.6775   27.9520    6.7493 C   0  0  0  0  0  0  0  0  0  0  0  0
   -3.1876   29.2070    6.3214 O   0  0  0  0  0  0  0  0  0  0  0  0
 20 21  1  0  0  0
 21 14  1  0  0  0
 14 15  2  0  0  0
 15  1  1  0  0  0
  1  2  2  0  0  0
  1  3  1  0  0  0
  3  4  1  0  0  0
  4  5  1  0  0  0
  5  6  1  0  0  0
  6  7  1  0  0  0
  7  8  1  0  0  0
  8  9  1  0  0  0
  9 10  1  0  0  0
 10 11  1  0  0  0
 11 12  1  0  0  0
  7 13  1  0  0  0
 15 16  1  0  0  0
 16 17  1  0  0  0
 17 18  1  0  0  0
 17 19  2  0  0  0
 19 14  1  0  0  0
 13  3  1  0  0  0
 11  6  1  0  0  0
M  END
> <minimizedAffinity>
-7.53156

$$$$
OCNT-2309262


 23 25  0  0  0  0  0  0  0  0999 V2000
   -0.3452   27.6282    7.3973 N   0  0  0  0  0  0  0  0  0  0  0  0
    0.2062   26.9056    7.8564 H   0  0  0  0  0  0  0  0  0  0  0  0
   -1.2274   27.2417    6.3524 C   0  0  0  0  0  0  0  0  0  0  0  0
   -2.5649   27.6341    6.4184 C   0  0  0  0  0  0  0  0  0  0  0  0
   -3.4678   27.2335    5.4266 C   0  0  0  0  0  0  0  0  0  0  0  0
   -3.0305   26.4371    4.3594 C   0  0  0  0  0  0  0  0  0  0  0  0
   -1.6815   26.0541    4.2971 C   0  0  0  0  0  0  0  0  0  0  0  0
   -0.7847   26.4569    5.2907 C   0  0  0  0  0  0  0  0  0  0  0  0
   -3.9266   26.0090    3.3385 N   0  0  0  0  0  0  0  0  0  0  0  0
   -5.2086   26.4537    3.0867 C   0  0  0  0  0  0  0  0  0  0  0  0
   -5.6791   25.7477    2.0048 C   0  0  0  0  0  0  0  0  0  0  0  0
   -4.6241   24.8940    1.6584 C   0  0  0  0  0  0  0  0  0  0  0  0
   -3.5656   25.0418    2.4543 N   0  0  0  0  0  0  0  0  0  0  0  0
    0.7433   29.3062    5.8815 O   0  0  0  0  0  0  0  0  0  0  0  0
    0.4855   29.0938    7.2906 S   0  0  0  0  0  0  0  0  0  0  0  0
    1.5573   29.1194    8.2616 O   0  0  0  0  0  0  0  0  0  0  0  0
   -0.7411   30.2857    7.7900 C   0  0  0  0  0  0  0  0  0  0  0  0
   -1.5586   30.8788    6.8216 C   0  0  0  0  0  0  0  0  0  0  0  0
   -2.5160   31.8170    7.2131 C   0  0  0  0  0  0  0  0  0  0  0  0
   -2.6421   32.1612    8.5602 C   0  0  0  0  0  0  0  0  0  0  0  0
   -3.8283   33.3120    9.0374 Cl  0  0  0  0  0  0  0  0  0  0  0  0
   -1.8131   31.5825    9.5222 C   0  0  0  0  0  0  0  0  0  0  0  0
   -0.8520   30.6456    9.1376 C   0  0  0  0  0  0  0  0  0  0  0  0
 14 15  2  0  0  0
 15 16  2  0  0  0
 15  1  1  0  0  0
  1  3  1  0  0  0
  3  4  1  0  0  0
  4  5  2  0  0  0
  5  6  1  0  0  0
  6  9  1  0  0  0
  9 10  1  0  0  0
 10 11  2  0  0  0
 11 12  1  0  0  0
 12 13  2  0  0  0
  6  7  2  0  0  0
  7  8  1  0  0  0
 15 17  1  0  0  0
 17 18  1  0  0  0
 18 19  2  0  0  0
 19 20  1  0  0  0
 20 21  1  0  0  0
 20 22  2  0  0  0
 22 23  1  0  0  0
  8  3  2  0  0  0
 23 17  2  0  0  0
 13  9  1  0  0  0
  1  2  1  0  0  0
M  END
> <minimizedAffinity>
-9.27097

$$$$
OCNT-2309265


 25 28  0  0  0  0  0  0  0  0999 V2000
   -4.3985   26.0041    3.9443 N   0  0  0  0  0  0  0  0  0  0  0  0
   -5.3693   27.1162    3.9261 C   0  0  0  0  0  0  0  0  0  0  0  0
   -5.5958   27.8113    5.2890 C   0  0  0  0  0  0  0  0  0  0  0  0
   -4.3165   28.2730    5.8497 N   0  0  0  0  0  0  0  0  0  0  0  0
   -3.1712   27.3598    5.6792 C   0  0  0  0  0  0  0  0  0  0  0  0
   -3.6156   25.9600    5.1888 C   0  0  0  0  0  0  0  0  0  0  0  0
   -4.4004   28.9796    7.0473 C   0  0  0  0  0  0  0  0  0  0  0  0
   -5.5597   28.9491    7.7630 N   0  0  0  0  0  0  0  0  0  0  0  0
   -5.6444   29.6301    8.9232 C   0  0  0  0  0  0  0  0  0  0  0  0
   -4.7049   30.3867    9.5098 N   0  0  0  0  0  0  0  0  0  0  0  0
   -3.5853   30.4278    8.7681 C   0  0  0  0  0  0  0  0  0  0  0  0
   -3.3636   29.7792    7.5647 C   0  0  0  0  0  0  0  0  0  0  0  0
   -2.0617   30.1832    7.1941 C   0  0  0  0  0  0  0  0  0  0  0  0
   -1.4809   30.9833    8.0954 N   0  0  0  0  0  0  0  0  0  0  0  0
   -2.4375   31.1216    9.0419 N   0  0  0  0  0  0  0  0  0  0  0  0
   -2.1798   31.9503   10.1926 C   0  0  0  0  0  0  0  0  0  0  0  0
   -4.9569   24.7079    3.5438 C   0  0  0  0  0  0  0  0  0  0  0  0
   -4.4229   24.1041    2.2306 C   0  0  0  0  0  0  0  0  0  0  0  0
   -5.8490   21.4612    1.7863 C   0  0  0  0  0  0  0  0  0  0  0  0
   -6.1920   22.7027    1.0189 C   0  0  0  0  0  0  0  0  0  0  0  0
   -7.1965   22.6593    0.0520 C   0  0  0  0  0  0  0  0  0  0  0  0
   -7.5817   23.7113   -0.7035 N   0  0  0  0  0  0  0  0  0  0  0  0
   -6.9334   24.8724   -0.4921 C   0  0  0  0  0  0  0  0  0  0  0  0
   -5.9172   25.0275    0.4365 C   0  0  0  0  0  0  0  0  0  0  0  0
   -5.5250   23.9254    1.2084 C   0  0  0  0  0  0  0  0  0  0  0  0
 19 20  1  0  0  0
 20 21  2  0  0  0
 21 22  1  0  0  0
 22 23  2  0  0  0
 23 24  1  0  0  0
 24 25  2  0  0  0
 25 18  1  0  0  0
 18 17  1  0  0  0
 17  1  1  0  0  0
  1  2  1  0  0  0
  2  3  1  0  0  0
  3  4  1  0  0  0
  4  7  1  0  0  0
  7  8  1  0  0  0
  8  9  2  0  0  0
  9 10  1  0  0  0
 10 11  2  0  0  0
 11 12  1  0  0  0
 12 13  1  0  0  0
 13 14  2  0  0  0
 14 15  1  0  0  0
 15 16  1  0  0  0
  4  5  1  0  0  0
  5  6  1  0  0  0
 25 20  1  0  0  0
  6  1  1  0  0  0
 12  7  2  0  0  0
 15 11  1  0  0  0
M  END
> <minimizedAffinity>
-8.75835

$$$$
OCNT-2309277


 23 25  0  0  0  0  0  0  0  0999 V2000
   -2.0658   27.1772    7.8640 O   0  0  0  0  0  0  0  0  0  0  0  0
   -2.0562   27.7146    6.7565 C   0  0  0  0  0  0  0  0  0  0  0  0
   -1.3515   28.8832    6.5573 N   0  0  0  0  0  0  0  0  0  0  0  0
   -1.4620   29.3749    5.6813 H   0  0  0  0  0  0  0  0  0  0  0  0
   -2.7676   27.1864    5.5953 C   0  0  0  0  0  0  0  0  0  0  0  0
   -2.3749   26.3527    4.5629 C   0  0  0  0  0  0  0  0  0  0  0  0
   -0.8071   25.6639    4.3553 Cl  0  0  0  0  0  0  0  0  0  0  0  0
   -3.4249   26.0823    3.6087 C   0  0  0  0  0  0  0  0  0  0  0  0
   -3.4408   25.2919    2.4276 C   0  0  0  0  0  0  0  0  0  0  0  0
   -4.5998   25.1819    1.6534 C   0  0  0  0  0  0  0  0  0  0  0  0
   -5.7560   25.8471    2.0303 C   0  0  0  0  0  0  0  0  0  0  0  0
   -5.7755   26.6323    3.1839 C   0  0  0  0  0  0  0  0  0  0  0  0
   -4.6040   26.7395    3.9603 C   0  0  0  0  0  0  0  0  0  0  0  0
   -4.4112   27.6459    5.4021 S   0  0  0  0  0  0  0  0  0  0  0  0
   -0.7277   29.6025    7.6430 C   0  0  0  0  0  0  0  0  0  0  0  0
   -1.6563   30.6595    8.1815 C   0  0  0  0  0  0  0  0  0  0  0  0
   -1.5092   31.1453    9.4895 C   0  0  0  0  0  0  0  0  0  0  0  0
   -2.3571   32.1445    9.9723 C   0  0  0  0  0  0  0  0  0  0  0  0
   -3.3522   32.6720    9.1512 C   0  0  0  0  0  0  0  0  0  0  0  0
   -3.4929   32.2004    7.8521 C   0  0  0  0  0  0  0  0  0  0  0  0
   -4.4722   32.7486    7.0777 O   0  0  0  0  0  0  0  0  0  0  0  0
   -2.6562   31.2029    7.3600 C   0  0  0  0  0  0  0  0  0  0  0  0
   -4.4352   32.3347    6.1992 H   0  0  0  0  0  0  0  0  0  0  0  0
  1  2  2  0  0  0
  2  3  1  0  0  0
  3 15  1  0  0  0
 15 16  1  0  0  0
 16 17  2  0  0  0
 17 18  1  0  0  0
 18 19  2  0  0  0
 19 20  1  0  0  0
 20 21  1  0  0  0
 20 22  2  0  0  0
  2  5  1  0  0  0
  5  6  2  0  0  0
  6  7  1  0  0  0
  6  8  1  0  0  0
  8  9  2  0  0  0
  9 10  1  0  0  0
 10 11  2  0  0  0
 11 12  1  0  0  0
 12 13  2  0  0  0
 13 14  1  0  0  0
 22 16  1  0  0  0
 14  5  1  0  0  0
 13  8  1  0  0  0
  3  4  1  0  0  0
 21 23  1  0  0  0
M  END
> <minimizedAffinity>
-8.88388

$$$$
OCNT-2309284


 29 32  0  0  0  0  0  0  0  0999 V2000
   -5.8183   29.5987    3.9734 O   0  0  0  0  0  0  0  0  0  0  0  0
   -6.2699   28.6452    4.5965 C   0  0  0  0  0  0  0  0  0  0  0  0
   -6.8790   28.7635    5.8289 N   0  0  0  0  0  0  0  0  0  0  0  0
   -7.0945   27.9319    6.3614 H   0  0  0  0  0  0  0  0  0  0  0  0
   -6.1350   27.2664    4.0538 C   0  0  0  0  0  0  0  0  0  0  0  0
   -6.3320   26.1879    4.9226 C   0  0  0  0  0  0  0  0  0  0  0  0
   -6.2115   24.8750    4.4573 C   0  0  0  0  0  0  0  0  0  0  0  0
   -5.8794   24.6295    3.1161 C   0  0  0  0  0  0  0  0  0  0  0  0
   -5.6652   25.7104    2.2479 C   0  0  0  0  0  0  0  0  0  0  0  0
   -5.7906   27.0242    2.7184 C   0  0  0  0  0  0  0  0  0  0  0  0
   -5.7589   23.2931    2.6624 N   0  0  0  0  0  0  0  0  0  0  0  0
   -5.4001   22.1635    3.3542 C   0  0  0  0  0  0  0  0  0  0  0  0
   -5.4110   21.1320    2.5417 N   0  0  0  0  0  0  0  0  0  0  0  0
   -5.7844   21.6263    1.3207 N   0  0  0  0  0  0  0  0  0  0  0  0
   -5.9979   22.9331    1.3806 N   0  0  0  0  0  0  0  0  0  0  0  0
   -7.0468   30.0495    6.4773 C   0  0  0  0  0  0  0  0  0  0  0  0
   -5.8830   30.4760    7.3667 C   0  0  0  0  0  0  0  0  0  0  0  0
   -6.0186   30.1014    8.8403 C   0  0  0  0  0  0  0  0  0  0  0  0
   -4.6057   30.3312    9.3782 C   0  0  0  0  0  0  0  0  0  0  0  0
   -3.7392   30.0481    8.2355 N   0  0  0  0  0  0  0  0  0  0  0  0
   -4.5173   29.8856    7.0016 C   0  0  0  0  0  0  0  0  0  0  0  0
   -2.3836   29.8368    8.3246 C   0  0  0  0  0  0  0  0  0  0  0  0
   -1.5457   30.7093    9.0459 C   0  0  0  0  0  0  0  0  0  0  0  0
   -0.1626   30.5063    9.1408 C   0  0  0  0  0  0  0  0  0  0  0  0
    0.4108   29.4166    8.5071 C   0  0  0  0  0  0  0  0  0  0  0  0
    1.7331   29.2194    8.5962 F   0  0  0  0  0  0  0  0  0  0  0  0
   -0.3840   28.5415    7.7866 C   0  0  0  0  0  0  0  0  0  0  0  0
    0.1645   27.4843    7.1710 F   0  0  0  0  0  0  0  0  0  0  0  0
   -1.7609   28.7471    7.6936 C   0  0  0  0  0  0  0  0  0  0  0  0
  1  2  2  0  0  0
  2  3  1  0  0  0
  3 16  1  0  0  0
 16 17  1  0  0  0
 17 18  1  0  0  0
 18 19  1  0  0  0
 19 20  1  0  0  0
 20 22  1  0  0  0
 22 23  1  0  0  0
 23 24  2  0  0  0
 24 25  1  0  0  0
 25 26  1  0  0  0
 25 27  2  0  0  0
 27 28  1  0  0  0
 27 29  1  0  0  0
 20 21  1  0  0  0
  2  5  1  0  0  0
  5  6  1  0  0  0
  6  7  2  0  0  0
  7  8  1  0  0  0
  8 11  1  0  0  0
 11 12  1  0  0  0
 12 13  2  0  0  0
 13 14  1  0  0  0
 14 15  2  0  0  0
  8  9  2  0  0  0
  9 10  1  0  0  0
 21 17  1  0  0  0
 10  5  2  0  0  0
 29 22  2  0  0  0
 15 11  1  0  0  0
  3  4  1  0  0  0
M  END
> <minimizedAffinity>
-10.19245

$$$$
OCNT-2309291


 23 25  0  0  0  0  0  0  0  0999 V2000
   -4.5178   29.8828    8.2317 C   0  0  0  0  0  0  0  0  0  0  0  0
   -4.4743   28.7443    8.7099 O   0  0  0  0  0  0  0  0  0  0  0  0
   -3.4471   30.7430    8.3708 N   0  0  0  0  0  0  0  0  0  0  0  0
   -3.3509   32.1250    7.9199 C   0  0  0  0  0  0  0  0  0  0  0  0
   -1.9194   32.5473    8.2206 C   0  0  0  0  0  0  0  0  0  0  0  0
   -1.5282   31.6470    9.3878 C   0  0  0  0  0  0  0  0  0  0  0  0
   -2.2285   30.3255    9.0657 C   0  0  0  0  0  0  0  0  0  0  0  0
   -1.4245   29.4338    8.1581 C   0  0  0  0  0  0  0  0  0  0  0  0
   -0.5640   29.7807    7.2186 N   0  0  0  0  0  0  0  0  0  0  0  0
   -0.1141   28.6055    6.6736 C   0  0  0  0  0  0  0  0  0  0  0  0
   -0.7102   27.5267    7.2784 C   0  0  0  0  0  0  0  0  0  0  0  0
   -1.5347   28.0623    8.2258 N   0  0  0  0  0  0  0  0  0  0  0  0
   -2.1748   27.5683    8.8416 H   0  0  0  0  0  0  0  0  0  0  0  0
   -5.7447   30.3848    7.4397 C   0  0  0  0  0  0  0  0  0  0  0  0
   -6.6235   31.1970    8.3877 C   0  0  0  0  0  0  0  0  0  0  0  0
   -6.5566   29.3267    6.9318 O   0  0  0  0  0  0  0  0  0  0  0  0
   -5.9044   25.4526    4.1086 C   0  0  0  0  0  0  0  0  0  0  0  0
   -5.9993   26.9427    4.2446 C   0  0  0  0  0  0  0  0  0  0  0  0
   -5.9069   27.7703    3.1223 C   0  0  0  0  0  0  0  0  0  0  0  0
   -6.0228   29.1532    3.2593 C   0  0  0  0  0  0  0  0  0  0  0  0
   -6.2446   29.7230    4.5159 C   0  0  0  0  0  0  0  0  0  0  0  0
   -6.3475   28.9100    5.6448 C   0  0  0  0  0  0  0  0  0  0  0  0
   -6.2316   27.5236    5.4990 C   0  0  0  0  0  0  0  0  0  0  0  0
 17 18  1  0  0  0
 18 19  2  0  0  0
 19 20  1  0  0  0
 20 21  2  0  0  0
 21 22  1  0  0  0
 22 16  1  0  0  0
 16 14  1  0  0  0
 14 15  1  0  0  0
 14  1  1  0  0  0
  1  2  2  0  0  0
  1  3  1  0  0  0
  3  4  1  0  0  0
  4  5  1  0  0  0
  5  6  1  0  0  0
  6  7  1  0  0  0
  7  8  1  0  0  0
  8  9  2  0  0  0
  9 10  1  0  0  0
 10 11  2  0  0  0
 11 12  1  0  0  0
 22 23  2  0  0  0
 23 18  1  0  0  0
  7  3  1  0  0  0
 12  8  1  0  0  0
 12 13  1  0  0  0
M  END
> <minimizedAffinity>
-9.03637

$$$$
OCNT-2309292


 27 30  0  0  0  0  0  0  0  0999 V2000
   -5.6888   25.2669    2.6405 C   0  0  0  0  0  0  0  0  0  0  0  0
   -6.1118   25.7763    1.5939 O   0  0  0  0  0  0  0  0  0  0  0  0
   -5.2652   26.0927    3.6750 N   0  0  0  0  0  0  0  0  0  0  0  0
   -5.3894   27.5445    3.4820 C   0  0  0  0  0  0  0  0  0  0  0  0
   -5.4060   28.3403    4.7978 C   0  0  0  0  0  0  0  0  0  0  0  0
   -4.2285   28.0444    5.6361 N   0  0  0  0  0  0  0  0  0  0  0  0
   -3.6057   26.7224    5.4549 C   0  0  0  0  0  0  0  0  0  0  0  0
   -4.6151   25.6835    4.9260 C   0  0  0  0  0  0  0  0  0  0  0  0
   -3.9174   28.8674    6.6824 C   0  0  0  0  0  0  0  0  0  0  0  0
   -3.1817   30.0327    6.7512 C   0  0  0  0  0  0  0  0  0  0  0  0
   -3.2367   30.4284    8.0971 C   0  0  0  0  0  0  0  0  0  0  0  0
   -3.9380   29.5850    8.8518 N   0  0  0  0  0  0  0  0  0  0  0  0
   -4.3113   28.6338    7.9785 N   0  0  0  0  0  0  0  0  0  0  0  0
   -4.8359   27.8453    8.3305 H   0  0  0  0  0  0  0  0  0  0  0  0
   -2.5775   31.7234    8.6381 C   0  0  0  0  0  0  0  0  0  0  0  0
   -1.1732   31.6550    9.1839 C   0  0  0  0  0  0  0  0  0  0  0  0
   -2.3274   31.8841   10.1154 C   0  0  0  0  0  0  0  0  0  0  0  0
   -4.1401   23.2838    2.8417 C   0  0  0  0  0  0  0  0  0  0  0  0
   -5.6328   23.7106    2.7769 C   0  0  0  0  0  0  0  0  0  0  0  0
   -6.2011   23.0738    1.4889 C   0  0  0  0  0  0  0  0  0  0  0  0
   -6.2715   23.2174    4.0895 C   0  0  0  0  0  0  0  0  0  0  0  0
   -5.5059   22.4649    5.0048 C   0  0  0  0  0  0  0  0  0  0  0  0
   -6.0618   21.9987    6.1988 C   0  0  0  0  0  0  0  0  0  0  0  0
   -7.3922   22.2658    6.4841 C   0  0  0  0  0  0  0  0  0  0  0  0
   -7.9282   21.8173    7.6281 F   0  0  0  0  0  0  0  0  0  0  0  0
   -8.1819   22.9772    5.5908 C   0  0  0  0  0  0  0  0  0  0  0  0
   -7.6281   23.4468    4.3961 C   0  0  0  0  0  0  0  0  0  0  0  0
 18 19  1  0  0  0
 19 20  1  0  0  0
 19  1  1  0  0  0
  1  2  2  0  0  0
  1  3  1  0  0  0
  3  4  1  0  0  0
  4  5  1  0  0  0
  5  6  1  0  0  0
  6  9  1  0  0  0
  9 10  2  0  0  0
 10 11  1  0  0  0
 11 15  1  0  0  0
 15 16  1  0  0  0
 16 17  1  0  0  0
 11 12  2  0  0  0
 12 13  1  0  0  0
  6  7  1  0  0  0
  7  8  1  0  0  0
 19 21  1  0  0  0
 21 22  1  0  0  0
 22 23  2  0  0  0
 23 24  1  0  0  0
 24 25  1  0  0  0
 24 26  2  0  0  0
 26 27  1  0  0  0
  8  3  1  0  0  0
 27 21  2  0  0  0
 13  9  1  0  0  0
 17 15  1  0  0  0
 13 14  1  0  0  0
M  END
> <minimizedAffinity>
-9.42308

$$$$
OCNT-2309302


 26 30  0  0  0  0  0  0  0  0999 V2000
   -3.8529   28.4298    6.1472 O   0  0  0  0  0  0  0  0  0  0  0  0
   -3.4035   27.3164    5.8932 C   0  0  0  0  0  0  0  0  0  0  0  0
   -2.3141   26.7852    6.5378 N   0  0  0  0  0  0  0  0  0  0  0  0
   -1.9264   25.9139    6.2133 H   0  0  0  0  0  0  0  0  0  0  0  0
   -3.9881   26.4742    4.8723 C   0  0  0  0  0  0  0  0  0  0  0  0
   -3.6798   26.2623    3.5387 C   0  0  0  0  0  0  0  0  0  0  0  0
   -4.6015   25.3155    3.0089 C   0  0  0  0  0  0  0  0  0  0  0  0
   -4.7897   24.7215    1.7485 C   0  0  0  0  0  0  0  0  0  0  0  0
   -3.9843   25.0336    0.7226 F   0  0  0  0  0  0  0  0  0  0  0  0
   -5.8192   23.8003    1.5527 C   0  0  0  0  0  0  0  0  0  0  0  0
   -6.6668   23.4634    2.6062 C   0  0  0  0  0  0  0  0  0  0  0  0
   -6.5056   24.0368    3.8736 C   0  0  0  0  0  0  0  0  0  0  0  0
   -5.4645   24.9590    4.0434 C   0  0  0  0  0  0  0  0  0  0  0  0
   -5.0718   25.6676    5.1527 N   0  0  0  0  0  0  0  0  0  0  0  0
   -5.5065   25.6199    6.0656 H   0  0  0  0  0  0  0  0  0  0  0  0
   -1.5620   27.5260    7.5231 C   0  0  0  0  0  0  0  0  0  0  0  0
   -0.4084   28.2013    6.8538 C   0  0  0  0  0  0  0  0  0  0  0  0
    0.5705   29.0966    7.5878 C   0  0  0  0  0  0  0  0  0  0  0  0
    0.3116   29.7203    8.9520 C   0  0  0  0  0  0  0  0  0  0  0  0
   -0.8099   30.6981    8.6960 C   0  0  0  0  0  0  0  0  0  0  0  0
   -1.4187   31.5335    9.6199 C   0  0  0  0  0  0  0  0  0  0  0  0
   -2.4589   32.3545    9.1833 C   0  0  0  0  0  0  0  0  0  0  0  0
   -2.8740   32.3288    7.8438 C   0  0  0  0  0  0  0  0  0  0  0  0
   -2.2527   31.4822    6.9213 C   0  0  0  0  0  0  0  0  0  0  0  0
   -1.2159   30.6652    7.3483 C   0  0  0  0  0  0  0  0  0  0  0  0
   -0.4023   29.6844    6.5644 C   0  0  0  0  0  0  0  0  0  0  0  0
  1  2  2  0  0  0
  2  3  1  0  0  0
  3 16  1  0  0  0
 16 17  1  0  0  0
 17 18  1  0  0  0
 18 19  1  0  0  0
 19 20  1  0  0  0
 20 21  2  0  0  0
 21 22  1  0  0  0
 22 23  2  0  0  0
 23 24  1  0  0  0
 24 25  2  0  0  0
 25 26  1  0  0  0
  2  5  1  0  0  0
  5  6  2  0  0  0
  6  7  1  0  0  0
  7  8  2  0  0  0
  8  9  1  0  0  0
  8 10  1  0  0  0
 10 11  2  0  0  0
 11 12  1  0  0  0
 12 13  2  0  0  0
 13 14  1  0  0  0
 26 17  1  0  0  0
 14  5  1  0  0  0
 26 18  1  0  0  0
 13  7  1  0  0  0
 25 20  1  0  0  0
  3  4  1  0  0  0
 14 15  1  0  0  0
M  END
> <minimizedAffinity>
-10.74658

$$$$
OCNT-2309338


 24 25  0  0  0  0  0  0  0  0999 V2000
   -5.1275   31.3881    8.3379 C   0  0  0  0  0  0  0  0  0  0  0  0
   -5.7577   30.4610    9.4138 C   0  0  0  0  0  0  0  0  0  0  0  0
   -3.7092   30.8854    7.9307 C   0  0  0  0  0  0  0  0  0  0  0  0
   -3.0791   29.8581    8.6676 C   0  0  0  0  0  0  0  0  0  0  0  0
   -1.8095   29.3797    8.3293 C   0  0  0  0  0  0  0  0  0  0  0  0
   -1.1405   29.9193    7.2385 C   0  0  0  0  0  0  0  0  0  0  0  0
    0.5752   29.2786    6.7736 Br  0  0  0  0  0  0  0  0  0  0  0  0
   -1.7314   30.9279    6.4861 C   0  0  0  0  0  0  0  0  0  0  0  0
   -3.0032   31.4040    6.8288 C   0  0  0  0  0  0  0  0  0  0  0  0
   -3.7766   33.1666    9.7125 C   0  0  0  0  0  0  0  0  0  0  0  0
   -5.0481   32.8671    8.8998 C   0  0  0  0  0  0  0  0  0  0  0  0
   -5.2104   33.9670    7.8374 C   0  0  0  0  0  0  0  0  0  0  0  0
   -5.9792   31.3124    7.1188 N   0  0  0  0  0  0  0  0  0  0  0  0
   -5.3714   31.3670    6.3018 H   0  0  0  0  0  0  0  0  0  0  0  0
   -6.8850   30.1705    6.9705 C   0  0  0  0  0  0  0  0  0  0  0  0
   -6.4542   29.2857    5.8502 C   0  0  0  0  0  0  0  0  0  0  0  0
   -6.0135   27.9791    5.8733 C   0  0  0  0  0  0  0  0  0  0  0  0
   -5.7600   27.6821    4.5622 N   0  0  0  0  0  0  0  0  0  0  0  0
   -6.0176   28.7466    3.7789 N   0  0  0  0  0  0  0  0  0  0  0  0
   -6.4392   29.7335    4.5561 N   0  0  0  0  0  0  0  0  0  0  0  0
   -5.2731   26.4137    4.0026 C   0  0  0  0  0  0  0  0  0  0  0  0
   -5.6463   26.3318    2.5100 C   0  0  0  0  0  0  0  0  0  0  0  0
   -3.7388   26.2771    4.1194 C   0  0  0  0  0  0  0  0  0  0  0  0
   -5.9170   25.2370    4.7600 C   0  0  0  0  0  0  0  0  0  0  0  0
 10 11  1  0  0  0
 11 12  1  0  0  0
 11  1  1  0  0  0
  1  2  1  0  0  0
  1 13  1  0  0  0
 13 15  1  0  0  0
 15 16  1  0  0  0
 16 17  2  0  0  0
 17 18  1  0  0  0
 18 21  1  0  0  0
 21 22  1  0  0  0
 21 23  1  0  0  0
 21 24  1  0  0  0
 18 19  1  0  0  0
 19 20  2  0  0  0
  1  3  1  0  0  0
  3  4  1  0  0  0
  4  5  2  0  0  0
  5  6  1  0  0  0
  6  7  1  0  0  0
  6  8  2  0  0  0
  8  9  1  0  0  0
 20 16  1  0  0  0
  9  3  2  0  0  0
 13 14  1  0  0  0
M  END
> <minimizedAffinity>
-8.43325

$$$$
OCNT-2309342


 27 30  0  0  0  0  0  0  0  0999 V2000
   -4.2081   30.2904    6.5811 C   0  0  0  0  0  0  0  0  0  0  0  0
   -1.5537   30.1402    8.0743 C   0  0  0  0  0  0  0  0  0  0  0  0
   -2.8773   29.9110    8.8415 C   0  0  0  0  0  0  0  0  0  0  0  0
   -3.5687   30.9006    7.8476 C   0  0  0  0  0  0  0  0  0  0  0  0
   -2.1407   31.4997    7.6254 C   0  0  0  0  0  0  0  0  0  0  0  0
   -4.3451   31.8886    8.6386 N   0  0  0  0  0  0  0  0  0  0  0  0
   -5.4270   32.5573    7.8898 C   0  0  0  0  0  0  0  0  0  0  0  0
   -5.1843   34.0581    7.6583 C   0  0  0  0  0  0  0  0  0  0  0  0
   -5.0174   34.7855    8.8828 O   0  0  0  0  0  0  0  0  0  0  0  0
   -4.3467   34.0262    9.8987 C   0  0  0  0  0  0  0  0  0  0  0  0
   -3.4966   32.8733    9.3389 C   0  0  0  0  0  0  0  0  0  0  0  0
   -0.3659   30.1804    8.8913 O   0  0  0  0  0  0  0  0  0  0  0  0
    0.6192   29.2266    6.9369 C   0  0  0  0  0  0  0  0  0  0  0  0
    0.7260   29.3849    8.4396 C   0  0  0  0  0  0  0  0  0  0  0  0
   -4.6805   28.9201    6.7788 N   0  0  0  0  0  0  0  0  0  0  0  0
   -4.4063   28.5260    7.6719 H   0  0  0  0  0  0  0  0  0  0  0  0
   -4.6907   28.1035    5.6998 C   0  0  0  0  0  0  0  0  0  0  0  0
   -5.6467   27.9764    4.8082 N   0  0  0  0  0  0  0  0  0  0  0  0
   -5.1919   27.0607    3.8960 C   0  0  0  0  0  0  0  0  0  0  0  0
   -5.8111   26.5704    2.7342 C   0  0  0  0  0  0  0  0  0  0  0  0
   -5.1314   25.6315    1.9457 C   0  0  0  0  0  0  0  0  0  0  0  0
   -3.8583   25.1907    2.3079 C   0  0  0  0  0  0  0  0  0  0  0  0
   -3.2416   25.6736    3.4620 C   0  0  0  0  0  0  0  0  0  0  0  0
   -2.0177   25.2454    3.7953 F   0  0  0  0  0  0  0  0  0  0  0  0
   -3.9259   26.6044    4.2425 C   0  0  0  0  0  0  0  0  0  0  0  0
   -3.6365   27.2641    5.4125 N   0  0  0  0  0  0  0  0  0  0  0  0
   -2.4451   27.0760    6.2029 C   0  0  0  0  0  0  0  0  0  0  0  0
 13 14  1  0  0  0
 14 12  1  0  0  0
 12  2  1  0  0  0
  2  3  1  0  0  0
  3  4  1  0  0  0
  4  1  1  0  0  0
  1 15  1  0  0  0
 15 17  1  0  0  0
 17 18  2  0  0  0
 18 19  1  0  0  0
 19 20  2  0  0  0
 20 21  1  0  0  0
 21 22  2  0  0  0
 22 23  1  0  0  0
 23 24  1  0  0  0
 23 25  2  0  0  0
 25 26  1  0  0  0
 26 27  1  0  0  0
  4  6  1  0  0  0
  6  7  1  0  0  0
  7  8  1  0  0  0
  8  9  1  0  0  0
  9 10  1  0  0  0
 10 11  1  0  0  0
  4  5  1  0  0  0
  5  2  1  0  0  0
 26 17  1  0  0  0
 11  6  1  0  0  0
 25 19  1  0  0  0
 15 16  1  0  0  0
M  END
> <minimizedAffinity>
-8.36903

$$$$
OCNT-2309351


 29 32  0  0  0  0  0  0  0  0999 V2000
   -2.3441   26.9084    6.3241 C   0  0  0  0  0  0  0  0  0  0  0  0
   -2.3678   26.0188    7.1670 O   0  0  0  0  0  0  0  0  0  0  0  0
   -3.1790   26.9464    5.2371 N   0  0  0  0  0  0  0  0  0  0  0  0
   -3.1041   27.7070    4.5694 H   0  0  0  0  0  0  0  0  0  0  0  0
   -1.7336   29.3895    6.9224 C   0  0  0  0  0  0  0  0  0  0  0  0
   -0.5297   30.0672    6.9223 C   0  0  0  0  0  0  0  0  0  0  0  0
    0.4221   29.2533    6.3699 N   0  0  0  0  0  0  0  0  0  0  0  0
   -0.1425   28.0496    6.0539 C   0  0  0  0  0  0  0  0  0  0  0  0
   -1.4775   28.0718    6.4286 C   0  0  0  0  0  0  0  0  0  0  0  0
    1.3903   29.5053    6.2160 H   0  0  0  0  0  0  0  0  0  0  0  0
   -6.4103   30.7227    9.3605 C   0  0  0  0  0  0  0  0  0  0  0  0
   -5.2174   30.6853    8.4693 C   0  0  0  0  0  0  0  0  0  0  0  0
   -4.8861   31.5389    7.4396 C   0  0  0  0  0  0  0  0  0  0  0  0
   -3.6556   31.1764    6.8130 C   0  0  0  0  0  0  0  0  0  0  0  0
   -3.0897   30.0523    7.3747 C   0  0  0  0  0  0  0  0  0  0  0  0
   -4.0298   29.4747    8.6838 S   0  0  0  0  0  0  0  0  0  0  0  0
   -4.1114   25.8843    4.9106 C   0  0  0  0  0  0  0  0  0  0  0  0
   -5.3988   26.4420    4.1939 C   0  0  0  0  0  0  0  0  0  0  0  0
   -4.9416   27.7516    3.4588 C   0  0  0  0  0  0  0  0  0  0  0  0
   -5.9885   28.8620    3.4786 C   0  0  0  0  0  0  0  0  0  0  0  0
   -6.3424   29.2790    4.9062 C   0  0  0  0  0  0  0  0  0  0  0  0
   -6.2362   28.1408    5.9213 C   0  0  0  0  0  0  0  0  0  0  0  0
   -6.4708   26.7785    5.2736 C   0  0  0  0  0  0  0  0  0  0  0  0
   -5.8911   25.4047    3.2295 N   0  0  0  0  0  0  0  0  0  0  0  0
   -5.5657   25.6305    1.8025 C   0  0  0  0  0  0  0  0  0  0  0  0
   -4.6256   24.5728    1.1987 C   0  0  0  0  0  0  0  0  0  0  0  0
   -5.1317   23.2375    1.2988 O   0  0  0  0  0  0  0  0  0  0  0  0
   -5.9841   23.0457    2.4339 C   0  0  0  0  0  0  0  0  0  0  0  0
   -5.6549   23.9954    3.5988 C   0  0  0  0  0  0  0  0  0  0  0  0
 11 12  1  0  0  0
 12 13  2  0  0  0
 13 14  1  0  0  0
 14 15  2  0  0  0
 15  5  1  0  0  0
  5  6  2  0  0  0
  6  7  1  0  0  0
  7  8  1  0  0  0
  8  9  2  0  0  0
  9  1  1  0  0  0
  1  2  2  0  0  0
  1  3  1  0  0  0
  3 17  1  0  0  0
 17 18  1  0  0  0
 18 24  1  0  0  0
 24 25  1  0  0  0
 25 26  1  0  0  0
 26 27  1  0  0  0
 27 28  1  0  0  0
 28 29  1  0  0  0
 18 19  1  0  0  0
 19 20  1  0  0  0
 20 21  1  0  0  0
 21 22  1  0  0  0
 22 23  1  0  0  0
 15 16  1  0  0  0
 16 12  1  0  0  0
  9  5  1  0  0  0
 23 18  1  0  0  0
 29 24  1  0  0  0
  7 10  1  0  0  0
  3  4  1  0  0  0
M  END
> <minimizedAffinity>
-8.72243

$$$$
OCNT-2309368


 36 39  0  0  0  0  0  0  0  0999 V2000
   -2.9168   25.9836    6.1632 N   0  0  0  0  0  0  0  0  0  0  0  0
   -2.0404   27.0413    6.2778 C   0  0  0  0  0  0  0  0  0  0  0  0
   -1.7597   27.8561    5.4088 O   0  0  0  0  0  0  0  0  0  0  0  0
   -1.5097   27.0930    7.5519 N   0  0  0  0  0  0  0  0  0  0  0  0
   -3.2097   25.5715    7.0359 H   0  0  0  0  0  0  0  0  0  0  0  0
   -1.4282   26.2066    8.0244 H   0  0  0  0  0  0  0  0  0  0  0  0
   -6.9625   23.9316    4.2925 C   0  0  0  0  0  0  0  0  0  0  0  0
   -5.5910   24.5083    4.0583 C   0  0  0  0  0  0  0  0  0  0  0  0
   -4.8557   24.9883    5.1598 C   0  0  0  0  0  0  0  0  0  0  0  0
   -3.5778   25.5365    5.0020 C   0  0  0  0  0  0  0  0  0  0  0  0
   -3.0221   25.5862    3.7267 C   0  0  0  0  0  0  0  0  0  0  0  0
   -3.7368   25.1051    2.6248 C   0  0  0  0  0  0  0  0  0  0  0  0
   -5.0233   24.5615    2.7684 C   0  0  0  0  0  0  0  0  0  0  0  0
   -5.7253   24.0678    1.5769 C   0  0  0  0  0  0  0  0  0  0  0  0
   -6.3383   24.9558    0.6880 C   0  0  0  0  0  0  0  0  0  0  0  0
   -6.9918   24.4436   -0.4206 C   0  0  0  0  0  0  0  0  0  0  0  0
   -7.0730   23.1252   -0.7026 N   0  0  0  0  0  0  0  0  0  0  0  0
   -6.4659   22.2839    0.1599 C   0  0  0  0  0  0  0  0  0  0  0  0
   -5.7923   22.6989    1.2971 C   0  0  0  0  0  0  0  0  0  0  0  0
   -0.4966   28.0710    7.8868 C   0  0  0  0  0  0  0  0  0  0  0  0
   -1.1221   29.3424    8.4063 C   0  0  0  0  0  0  0  0  0  0  0  0
   -0.3116   30.3769    8.8882 C   0  0  0  0  0  0  0  0  0  0  0  0
   -0.8833   31.5394    9.3953 C   0  0  0  0  0  0  0  0  0  0  0  0
   -2.2716   31.6750    9.4344 C   0  0  0  0  0  0  0  0  0  0  0  0
   -3.1211   30.6580    8.9556 C   0  0  0  0  0  0  0  0  0  0  0  0
   -2.5194   29.4886    8.4527 C   0  0  0  0  0  0  0  0  0  0  0  0
   -4.6366   30.8251    9.0497 C   0  0  0  0  0  0  0  0  0  0  0  0
   -5.0963   32.2834    9.1284 C   0  0  0  0  0  0  0  0  0  0  0  0
   -5.1349   30.0634   10.1812 N   0  0  0  0  0  0  0  0  0  0  0  0
   -5.9528   29.0322    9.7971 C   0  0  0  0  0  0  0  0  0  0  0  0
   -6.3506   28.1444   10.5284 O   0  0  0  0  0  0  0  0  0  0  0  0
   -6.2053   29.1459    8.4763 N   0  0  0  0  0  0  0  0  0  0  0  0
   -5.4471   30.1327    7.9272 C   0  0  0  0  0  0  0  0  0  0  0  0
   -5.4126   30.3865    6.7307 O   0  0  0  0  0  0  0  0  0  0  0  0
   -4.6956   30.0415   11.0915 H   0  0  0  0  0  0  0  0  0  0  0  0
   -6.7628   28.4948    7.9525 H   0  0  0  0  0  0  0  0  0  0  0  0
  7  8  1  0  0  0
  8  9  1  0  0  0
  9 10  2  0  0  0
 10  1  1  0  0  0
  1  2  1  0  0  0
  2  3  2  0  0  0
  2  4  1  0  0  0
  4 20  1  0  0  0
 20 21  1  0  0  0
 21 22  1  0  0  0
 22 23  2  0  0  0
 23 24  1  0  0  0
 24 25  2  0  0  0
 25 27  1  0  0  0
 27 28  1  0  0  0
 27 29  1  0  0  0
 29 30  1  0  0  0
 30 31  2  0  0  0
 30 32  1  0  0  0
 32 33  1  0  0  0
 33 34  2  0  0  0
 25 26  1  0  0  0
 10 11  1  0  0  0
 11 12  2  0  0  0
 12 13  1  0  0  0
 13 14  1  0  0  0
 14 15  2  0  0  0
 15 16  1  0  0  0
 16 17  2  0  0  0
 17 18  1  0  0  0
 18 19  2  0  0  0
 13  8  2  0  0  0
 19 14  1  0  0  0
 26 21  2  0  0  0
 33 27  1  0  0  0
  1  5  1  0  0  0
  4  6  1  0  0  0
 29 35  1  0  0  0
 32 36  1  0  0  0
M  END
> <minimizedAffinity>
-11.34965

$$$$
OCNT-2309371


 23 25  0  0  0  0  0  0  0  0999 V2000
   -3.5644   29.0218    6.0879 N   0  0  0  0  0  0  0  0  0  0  0  0
   -3.6398   29.4676    7.3925 C   0  0  0  0  0  0  0  0  0  0  0  0
   -4.3265   29.0177    8.2989 O   0  0  0  0  0  0  0  0  0  0  0  0
   -2.9853   29.5838    5.4819 H   0  0  0  0  0  0  0  0  0  0  0  0
   -5.5115   28.1391    4.9265 C   0  0  0  0  0  0  0  0  0  0  0  0
   -6.1508   27.0318    4.3649 C   0  0  0  0  0  0  0  0  0  0  0  0
   -5.6355   25.7863    4.3224 N   0  0  0  0  0  0  0  0  0  0  0  0
   -4.4182   25.6246    4.8731 C   0  0  0  0  0  0  0  0  0  0  0  0
   -3.6952   26.6482    5.4630 C   0  0  0  0  0  0  0  0  0  0  0  0
   -4.2431   27.9307    5.4994 C   0  0  0  0  0  0  0  0  0  0  0  0
   -7.1643   29.6328    6.0951 C   0  0  0  0  0  0  0  0  0  0  0  0
   -6.2278   29.4659    4.9067 C   0  0  0  0  0  0  0  0  0  0  0  0
   -2.7622   30.6823    7.6471 C   0  0  0  0  0  0  0  0  0  0  0  0
   -1.5202   30.8564    6.7670 C   0  0  0  0  0  0  0  0  0  0  0  0
   -1.3294   30.4651    8.2066 C   0  0  0  0  0  0  0  0  0  0  0  0
   -0.8464   29.0607    8.4892 C   0  0  0  0  0  0  0  0  0  0  0  0
   -0.7134   31.4913    9.1301 C   0  0  0  0  0  0  0  0  0  0  0  0
   -3.5435   31.9291    8.0758 C   0  0  0  0  0  0  0  0  0  0  0  0
   -3.6064   32.3524    9.4158 C   0  0  0  0  0  0  0  0  0  0  0  0
   -4.3066   33.5047    9.7842 C   0  0  0  0  0  0  0  0  0  0  0  0
   -4.9547   34.2658    8.8160 C   0  0  0  0  0  0  0  0  0  0  0  0
   -4.9000   33.8773    7.4813 C   0  0  0  0  0  0  0  0  0  0  0  0
   -4.1996   32.7245    7.1188 C   0  0  0  0  0  0  0  0  0  0  0  0
 11 12  1  0  0  0
 12  5  1  0  0  0
  5  6  2  0  0  0
  6  7  1  0  0  0
  7  8  2  0  0  0
  8  9  1  0  0  0
  9 10  2  0  0  0
 10  1  1  0  0  0
  1  2  1  0  0  0
  2  3  2  0  0  0
  2 13  1  0  0  0
 13 18  1  0  0  0
 18 19  2  0  0  0
 19 20  1  0  0  0
 20 21  2  0  0  0
 21 22  1  0  0  0
 22 23  2  0  0  0
 13 14  1  0  0  0
 14 15  1  0  0  0
 15 16  1  0  0  0
 15 17  1  0  0  0
 10  5  1  0  0  0
 15 13  1  0  0  0
 23 18  1  0  0  0
  1  4  1  0  0  0
M  END
> <minimizedAffinity>
-8.69301

$$$$
OCNT-2309372


 25 27  0  0  0  0  0  0  0  0999 V2000
   -4.3401   28.8073    5.8445 N   0  0  0  0  0  0  0  0  0  0  0  0
   -3.5566   27.5291    6.0360 C   0  0  0  0  0  0  0  0  0  0  0  0
   -3.8176   26.5071    4.9150 C   0  0  0  0  0  0  0  0  0  0  0  0
   -5.2154   26.0498    4.8965 N   0  0  0  0  0  0  0  0  0  0  0  0
   -6.1533   27.1282    5.2749 C   0  0  0  0  0  0  0  0  0  0  0  0
   -5.6064   28.5606    5.0366 C   0  0  0  0  0  0  0  0  0  0  0  0
   -6.7230   29.5840    5.2187 C   0  0  0  0  0  0  0  0  0  0  0  0
   -5.6247   25.2875    3.7036 C   0  0  0  0  0  0  0  0  0  0  0  0
   -5.6452   26.0880    2.3858 C   0  0  0  0  0  0  0  0  0  0  0  0
   -5.5706   25.1754    1.1637 C   0  0  0  0  0  0  0  0  0  0  0  0
   -6.1713   23.9187    1.4454 O   0  0  0  0  0  0  0  0  0  0  0  0
   -5.4192   23.1536    2.3890 C   0  0  0  0  0  0  0  0  0  0  0  0
   -4.8150   23.9995    3.5106 C   0  0  0  0  0  0  0  0  0  0  0  0
   -4.4671   29.7418    7.2803 S   0  0  0  0  0  0  0  0  0  0  0  0
   -4.9619   31.0554    6.9156 O   0  0  0  0  0  0  0  0  0  0  0  0
   -5.1779   28.9562    8.2665 O   0  0  0  0  0  0  0  0  0  0  0  0
   -2.4199   30.7011    8.9202 C   0  0  0  0  0  0  0  0  0  0  0  0
   -1.0653   30.8659    9.2325 C   0  0  0  0  0  0  0  0  0  0  0  0
   -0.0731   30.3535    8.3920 C   0  0  0  0  0  0  0  0  0  0  0  0
   -0.4175   29.6612    7.2273 C   0  0  0  0  0  0  0  0  0  0  0  0
    0.6463   29.0824    6.3425 C   0  0  0  0  0  0  0  0  0  0  0  0
   -1.7717   29.4661    6.9316 C   0  0  0  0  0  0  0  0  0  0  0  0
   -2.7712   29.9798    7.7769 C   0  0  0  0  0  0  0  0  0  0  0  0
   -3.5989   32.5427    9.7498 C   0  0  0  0  0  0  0  0  0  0  0  0
   -3.3868   31.1324    9.7822 O   0  0  0  0  0  0  0  0  0  0  0  0
 24 25  1  0  0  0
 25 17  1  0  0  0
 17 18  1  0  0  0
 18 19  2  0  0  0
 19 20  1  0  0  0
 20 21  1  0  0  0
 20 22  2  0  0  0
 22 23  1  0  0  0
 23 14  1  0  0  0
 14 15  2  0  0  0
 14 16  2  0  0  0
 14  1  1  0  0  0
  1  2  1  0  0  0
  2  3  1  0  0  0
  3  4  1  0  0  0
  4  8  1  0  0  0
  8  9  1  0  0  0
  9 10  1  0  0  0
 10 11  1  0  0  0
 11 12  1  0  0  0
 12 13  1  0  0  0
  4  5  1  0  0  0
  5  6  1  0  0  0
  6  7  1  0  0  0
 23 17  2  0  0  0
  6  1  1  0  0  0
 13  8  1  0  0  0
M  END
> <minimizedAffinity>
-8.66961

$$$$
OCNT-2309377


 27 29  0  0  0  0  0  0  0  0999 V2000
   -0.6226   27.3357    6.6529 C   0  0  0  0  0  0  0  0  0  0  0  0
   -0.5419   27.1197    5.1314 C   0  0  0  0  0  0  0  0  0  0  0  0
   -1.5553   26.0790    4.6651 C   0  0  0  0  0  0  0  0  0  0  0  0
   -2.9281   26.4467    5.0154 N   0  0  0  0  0  0  0  0  0  0  0  0
   -4.0572   25.8656    4.4445 C   0  0  0  0  0  0  0  0  0  0  0  0
   -5.1990   26.2124    4.7469 O   0  0  0  0  0  0  0  0  0  0  0  0
   -3.1040   27.4626    6.0540 C   0  0  0  0  0  0  0  0  0  0  0  0
   -2.0755   27.2957    7.1691 C   0  0  0  0  0  0  0  0  0  0  0  0
    0.1767   28.5680    7.1333 C   0  0  0  0  0  0  0  0  0  0  0  0
   -2.8868   33.0710    8.6476 N   0  0  0  0  0  0  0  0  0  0  0  0
   -2.1142   31.9618    8.3146 C   0  0  0  0  0  0  0  0  0  0  0  0
   -1.4520   31.2417    9.2962 C   0  0  0  0  0  0  0  0  0  0  0  0
   -0.6980   30.1304    8.9240 C   0  0  0  0  0  0  0  0  0  0  0  0
   -0.6230   29.7624    7.5801 C   0  0  0  0  0  0  0  0  0  0  0  0
   -1.3432   30.5383    6.6788 C   0  0  0  0  0  0  0  0  0  0  0  0
   -2.0774   31.6237    7.0172 N   0  0  0  0  0  0  0  0  0  0  0  0
   -2.3469   33.7545    9.1644 H   0  0  0  0  0  0  0  0  0  0  0  0
   -3.2368   33.4522    7.7717 H   0  0  0  0  0  0  0  0  0  0  0  0
   -3.8100   24.7834    3.4057 C   0  0  0  0  0  0  0  0  0  0  0  0
   -4.2709   25.2178    2.0146 C   0  0  0  0  0  0  0  0  0  0  0  0
   -5.2433   24.2327    1.4178 C   0  0  0  0  0  0  0  0  0  0  0  0
   -5.2083   22.8800    1.7809 C   0  0  0  0  0  0  0  0  0  0  0  0
   -6.1226   21.9771    1.2313 C   0  0  0  0  0  0  0  0  0  0  0  0
   -7.0815   22.4160    0.3179 C   0  0  0  0  0  0  0  0  0  0  0  0
   -7.1280   23.7600   -0.0456 C   0  0  0  0  0  0  0  0  0  0  0  0
   -6.2147   24.6543    0.5052 C   0  0  0  0  0  0  0  0  0  0  0  0
   -6.2826   25.9464    0.1531 F   0  0  0  0  0  0  0  0  0  0  0  0
 10 11  1  0  0  0
 11 12  2  0  0  0
 12 13  1  0  0  0
 13 14  2  0  0  0
 14  9  1  0  0  0
  9  1  1  0  0  0
  1  2  1  0  0  0
  2  3  1  0  0  0
  3  4  1  0  0  0
  4  5  1  0  0  0
  5  6  2  0  0  0
  5 19  1  0  0  0
 19 20  1  0  0  0
 20 21  1  0  0  0
 21 22  2  0  0  0
 22 23  1  0  0  0
 23 24  2  0  0  0
 24 25  1  0  0  0
 25 26  2  0  0  0
 26 27  1  0  0  0
  4  7  1  0  0  0
  7  8  1  0  0  0
 14 15  1  0  0  0
 15 16  2  0  0  0
 16 11  1  0  0  0
  8  1  1  0  0  0
 26 21  1  0  0  0
 10 17  1  0  0  0
 10 18  1  0  0  0
M  END
> <minimizedAffinity>
-9.69084

$$$$
OCNT-2309379


 25 28  0  0  0  0  0  0  0  0999 V2000
   -5.3520   27.9301    4.3658 C   0  0  0  0  0  0  0  0  0  0  0  0
   -5.4123   26.4295    4.7168 C   0  0  0  0  0  0  0  0  0  0  0  0
   -5.5276   26.1833    3.2914 N   0  0  0  0  0  0  0  0  0  0  0  0
   -5.7838   25.0849    2.5237 C   0  0  0  0  0  0  0  0  0  0  0  0
   -6.0851   25.2110    1.3316 O   0  0  0  0  0  0  0  0  0  0  0  0
   -5.8599   27.5637    2.9608 C   0  0  0  0  0  0  0  0  0  0  0  0
   -5.7499   23.6880    3.1428 C   0  0  0  0  0  0  0  0  0  0  0  0
   -5.3181   22.6547    2.0948 C   0  0  0  0  0  0  0  0  0  0  0  0
   -5.7540   21.2555    2.4912 C   0  0  0  0  0  0  0  0  0  0  0  0
   -7.2526   21.1836    2.7590 C   0  0  0  0  0  0  0  0  0  0  0  0
   -7.8524   22.4481    3.0381 O   0  0  0  0  0  0  0  0  0  0  0  0
   -7.0650   23.3257    3.8632 C   0  0  0  0  0  0  0  0  0  0  0  0
   -7.0144   22.7668    5.2840 C   0  0  0  0  0  0  0  0  0  0  0  0
   -8.2303   22.6470    5.9854 C   0  0  0  0  0  0  0  0  0  0  0  0
   -8.2714   22.1428    7.2865 C   0  0  0  0  0  0  0  0  0  0  0  0
   -7.0955   21.7442    7.9128 C   0  0  0  0  0  0  0  0  0  0  0  0
   -5.8834   21.8468    7.2357 C   0  0  0  0  0  0  0  0  0  0  0  0
   -5.8422   22.3515    5.9317 C   0  0  0  0  0  0  0  0  0  0  0  0
   -6.1193   28.9413    5.2103 C   0  0  0  0  0  0  0  0  0  0  0  0
   -6.1499   28.9545   10.2323 C   0  0  0  0  0  0  0  0  0  0  0  0
   -5.7528   29.0042    8.8466 N   0  0  0  0  0  0  0  0  0  0  0  0
   -6.5637   28.9074    7.7539 C   0  0  0  0  0  0  0  0  0  0  0  0
   -5.7422   28.9921    6.6481 C   0  0  0  0  0  0  0  0  0  0  0  0
   -4.4510   29.1676    7.2000 C   0  0  0  0  0  0  0  0  0  0  0  0
   -4.4552   29.1627    8.5340 N   0  0  0  0  0  0  0  0  0  0  0  0
 20 21  1  0  0  0
 21 22  1  0  0  0
 22 23  2  0  0  0
 23 19  1  0  0  0
 19  1  1  0  0  0
  1  2  1  0  0  0
  2  3  1  0  0  0
  3  4  1  0  0  0
  4  5  2  0  0  0
  4  7  1  0  0  0
  7  8  1  0  0  0
  8  9  1  0  0  0
  9 10  1  0  0  0
 10 11  1  0  0  0
 11 12  1  0  0  0
 12 13  1  0  0  0
 13 14  2  0  0  0
 14 15  1  0  0  0
 15 16  2  0  0  0
 16 17  1  0  0  0
 17 18  2  0  0  0
  3  6  1  0  0  0
 23 24  1  0  0  0
 24 25  2  0  0  0
 25 21  1  0  0  0
  6  1  1  0  0  0
 12  7  1  0  0  0
 18 13  1  0  0  0
M  END
> <minimizedAffinity>
-9.18367

$$$$
OCNT-2309390


 23 25  0  0  0  0  0  0  0  0999 V2000
   -4.5140   28.9453    6.0048 N   0  0  0  0  0  0  0  0  0  0  0  0
   -3.3337   28.9875    6.7284 C   0  0  0  0  0  0  0  0  0  0  0  0
   -2.7214   27.7790    6.4574 C   0  0  0  0  0  0  0  0  0  0  0  0
   -3.4793   27.0127    5.6155 N   0  0  0  0  0  0  0  0  0  0  0  0
   -4.5386   27.7388    5.3524 C   0  0  0  0  0  0  0  0  0  0  0  0
   -2.8968   30.0800    7.5826 C   0  0  0  0  0  0  0  0  0  0  0  0
   -2.0982   31.1030    7.0596 C   0  0  0  0  0  0  0  0  0  0  0  0
   -1.6680   32.1479    7.8796 C   0  0  0  0  0  0  0  0  0  0  0  0
   -2.0379   32.1775    9.2236 C   0  0  0  0  0  0  0  0  0  0  0  0
   -2.8418   31.1661    9.7479 C   0  0  0  0  0  0  0  0  0  0  0  0
   -3.2732   30.1211    8.9291 C   0  0  0  0  0  0  0  0  0  0  0  0
   -5.5567   29.9509    6.0292 C   0  0  0  0  0  0  0  0  0  0  0  0
   -7.7634   29.2409    6.3742 F   0  0  0  0  0  0  0  0  0  0  0  0
   -6.6577   29.6819    7.0297 C   0  0  0  0  0  0  0  0  0  0  0  0
   -6.3338   28.7287    7.9276 F   0  0  0  0  0  0  0  0  0  0  0  0
   -7.0298   30.7892    7.7024 F   0  0  0  0  0  0  0  0  0  0  0  0
   -5.8288   27.2215    4.3220 S   0  0  0  0  0  0  0  0  0  0  0  0
   -4.8461   26.5620    2.9331 C   0  0  0  0  0  0  0  0  0  0  0  0
   -5.5709   25.4484    2.2359 C   0  0  0  0  0  0  0  0  0  0  0  0
   -5.8550   25.4249    0.9475 N   0  0  0  0  0  0  0  0  0  0  0  0
   -6.5397   24.2678    0.6374 C   0  0  0  0  0  0  0  0  0  0  0  0
   -6.7671   23.4112    1.6909 C   0  0  0  0  0  0  0  0  0  0  0  0
   -6.1037   24.0703    3.1258 S   0  0  0  0  0  0  0  0  0  0  0  0
 13 14  1  0  0  0
 14 15  1  0  0  0
 14 16  1  0  0  0
 14 12  1  0  0  0
 12  1  1  0  0  0
  1  2  1  0  0  0
  2  6  1  0  0  0
  6  7  2  0  0  0
  7  8  1  0  0  0
  8  9  2  0  0  0
  9 10  1  0  0  0
 10 11  2  0  0  0
  2  3  2  0  0  0
  3  4  1  0  0  0
  4  5  2  0  0  0
  5 17  1  0  0  0
 17 18  1  0  0  0
 18 19  1  0  0  0
 19 20  2  0  0  0
 20 21  1  0  0  0
 21 22  2  0  0  0
 22 23  1  0  0  0
  5  1  1  0  0  0
 23 19  1  0  0  0
 11  6  1  0  0  0
M  END
> <minimizedAffinity>
-7.78123

$$$$
OCNT-2309398


 31 34  0  0  0  0  0  0  0  0999 V2000
   -4.2026   25.9319    2.9400 C   0  0  0  0  0  0  0  0  0  0  0  0
   -5.0718   24.7173    2.6650 C   0  0  0  0  0  0  0  0  0  0  0  0
   -5.2208   23.5717    3.4320 C   0  0  0  0  0  0  0  0  0  0  0  0
   -6.1055   22.7372    2.8069 N   0  0  0  0  0  0  0  0  0  0  0  0
   -6.5179   23.2874    1.6177 C   0  0  0  0  0  0  0  0  0  0  0  0
   -7.3953   22.7836    0.6499 C   0  0  0  0  0  0  0  0  0  0  0  0
   -7.6388   23.5717   -0.4780 C   0  0  0  0  0  0  0  0  0  0  0  0
   -7.0292   24.8141   -0.6285 C   0  0  0  0  0  0  0  0  0  0  0  0
   -6.1564   25.3039    0.3504 C   0  0  0  0  0  0  0  0  0  0  0  0
   -5.8920   24.5288    1.4995 C   0  0  0  0  0  0  0  0  0  0  0  0
   -6.4154   21.8430    3.1620 H   0  0  0  0  0  0  0  0  0  0  0  0
   -6.5878   28.8293    5.1627 C   0  0  0  0  0  0  0  0  0  0  0  0
   -6.1315   29.1045    3.8748 C   0  0  0  0  0  0  0  0  0  0  0  0
   -5.3689   28.1665    3.1735 C   0  0  0  0  0  0  0  0  0  0  0  0
   -5.0485   26.9189    3.7409 C   0  0  0  0  0  0  0  0  0  0  0  0
   -5.5068   26.6604    5.0412 C   0  0  0  0  0  0  0  0  0  0  0  0
   -6.2696   27.6042    5.7443 C   0  0  0  0  0  0  0  0  0  0  0  0
   -6.9398   30.2373    7.0444 C   0  0  0  0  0  0  0  0  0  0  0  0
   -7.3224   29.8292    5.7375 O   0  0  0  0  0  0  0  0  0  0  0  0
   -2.8149   25.5443    3.5070 C   0  0  0  0  0  0  0  0  0  0  0  0
   -2.4455   26.2292    4.7381 N   0  0  0  0  0  0  0  0  0  0  0  0
   -1.1444   26.3925    5.1252 C   0  0  0  0  0  0  0  0  0  0  0  0
   -0.1616   26.0972    4.4638 O   0  0  0  0  0  0  0  0  0  0  0  0
   -3.1741   26.3723    5.4269 H   0  0  0  0  0  0  0  0  0  0  0  0
   -0.9885   26.9823    6.4746 C   0  0  0  0  0  0  0  0  0  0  0  0
   -2.1767   27.5221    7.2427 C   0  0  0  0  0  0  0  0  0  0  0  0
   -1.1805   28.4780    6.6330 C   0  0  0  0  0  0  0  0  0  0  0  0
   -0.2484   29.2785    7.4599 C   0  0  0  0  0  0  0  0  0  0  0  0
    0.9895   29.2888    6.9218 F   0  0  0  0  0  0  0  0  0  0  0  0
   -0.6788   30.5582    7.5435 F   0  0  0  0  0  0  0  0  0  0  0  0
   -0.1528   28.7914    8.7188 F   0  0  0  0  0  0  0  0  0  0  0  0
 18 19  1  0  0  0
 19 12  1  0  0  0
 12 13  1  0  0  0
 13 14  2  0  0  0
 14 15  1  0  0  0
 15  1  1  0  0  0
  1 20  1  0  0  0
 20 21  1  0  0  0
 21 22  1  0  0  0
 22 23  2  0  0  0
 22 25  1  0  0  0
 25 26  1  0  0  0
 26 27  1  0  0  0
 27 28  1  0  0  0
 28 29  1  0  0  0
 28 30  1  0  0  0
 28 31  1  0  0  0
  1  2  1  0  0  0
  2  3  2  0  0  0
  3  4  1  0  0  0
  4  5  1  0  0  0
  5  6  2  0  0  0
  6  7  1  0  0  0
  7  8  2  0  0  0
  8  9  1  0  0  0
  9 10  2  0  0  0
 15 16  2  0  0  0
 16 17  1  0  0  0
 17 12  2  0  0  0
 27 25  1  0  0  0
 10  2  1  0  0  0
 10  5  1  0  0  0
 21 24  1  0  0  0
  4 11  1  0  0  0
M  END
> <minimizedAffinity>
-10.45066

$$$$
OCNT-2309402


 26 29  0  0  0  0  0  0  0  0999 V2000
   -6.5621   28.5077    7.0499 O   0  0  0  0  0  0  0  0  0  0  0  0
   -5.5845   28.4771    6.3056 C   0  0  0  0  0  0  0  0  0  0  0  0
   -5.4519   27.5238    5.2893 N   0  0  0  0  0  0  0  0  0  0  0  0
   -6.4972   26.5030    5.2162 C   0  0  0  0  0  0  0  0  0  0  0  0
   -6.0630   25.2867    4.3779 C   0  0  0  0  0  0  0  0  0  0  0  0
   -5.5885   25.6771    3.0244 N   0  0  0  0  0  0  0  0  0  0  0  0
   -4.4773   26.6448    3.1709 C   0  0  0  0  0  0  0  0  0  0  0  0
   -4.8911   27.8852    3.9829 C   0  0  0  0  0  0  0  0  0  0  0  0
   -4.5032   29.4305    6.4741 C   0  0  0  0  0  0  0  0  0  0  0  0
   -4.6092   30.7745    6.1741 C   0  0  0  0  0  0  0  0  0  0  0  0
   -3.4475   31.4266    6.4314 O   0  0  0  0  0  0  0  0  0  0  0  0
   -2.5877   30.5112    6.9541 C   0  0  0  0  0  0  0  0  0  0  0  0
   -1.2874   30.7777    7.3770 C   0  0  0  0  0  0  0  0  0  0  0  0
   -0.5709   29.7031    7.9130 C   0  0  0  0  0  0  0  0  0  0  0  0
   -1.1448   28.4341    8.0184 C   0  0  0  0  0  0  0  0  0  0  0  0
   -2.4560   28.1968    7.5816 C   0  0  0  0  0  0  0  0  0  0  0  0
   -3.1926   29.2606    7.0224 C   0  0  0  0  0  0  0  0  0  0  0  0
   -5.1275   24.4973    2.2684 C   0  0  0  0  0  0  0  0  0  0  0  0
   -6.0140   24.1606    1.1044 C   0  0  0  0  0  0  0  0  0  0  0  0
   -6.3745   25.0042    0.1537 N   0  0  0  0  0  0  0  0  0  0  0  0
   -7.1721   24.2934   -0.7030 C   0  0  0  0  0  0  0  0  0  0  0  0
   -7.3089   22.9976   -0.2731 C   0  0  0  0  0  0  0  0  0  0  0  0
   -6.5724   22.9214    0.8817 N   0  0  0  0  0  0  0  0  0  0  0  0
   -6.3974   21.7320    1.6912 C   0  0  0  0  0  0  0  0  0  0  0  0
   -5.7592   20.7569    0.9923 F   0  0  0  0  0  0  0  0  0  0  0  0
   -7.6037   21.2132    2.0557 F   0  0  0  0  0  0  0  0  0  0  0  0
  1  2  2  0  0  0
  2  9  1  0  0  0
  9 10  2  0  0  0
 10 11  1  0  0  0
 11 12  1  0  0  0
 12 13  2  0  0  0
 13 14  1  0  0  0
 14 15  2  0  0  0
 15 16  1  0  0  0
 16 17  2  0  0  0
  2  3  1  0  0  0
  3  4  1  0  0  0
  4  5  1  0  0  0
  5  6  1  0  0  0
  6 18  1  0  0  0
 18 19  1  0  0  0
 19 20  2  0  0  0
 20 21  1  0  0  0
 21 22  2  0  0  0
 22 23  1  0  0  0
 23 24  1  0  0  0
 24 25  1  0  0  0
 24 26  1  0  0  0
  6  7  1  0  0  0
  7  8  1  0  0  0
 17  9  1  0  0  0
  8  3  1  0  0  0
 17 12  1  0  0  0
 23 19  1  0  0  0
M  END
> <minimizedAffinity>
-8.93344

$$$$
OCNT-2309424


 22 24  0  0  0  0  0  0  0  0999 V2000
   -3.0679   27.0979    5.7062 C   0  0  0  0  0  0  0  0  0  0  0  0
   -3.7456   26.6750    4.4970 N   0  0  0  0  0  0  0  0  0  0  0  0
   -3.2871   25.8462    3.5202 C   0  0  0  0  0  0  0  0  0  0  0  0
   -4.3219   25.8013    2.6078 C   0  0  0  0  0  0  0  0  0  0  0  0
   -5.3369   26.6147    3.0508 N   0  0  0  0  0  0  0  0  0  0  0  0
   -4.9766   27.1350    4.2151 N   0  0  0  0  0  0  0  0  0  0  0  0
   -4.4234   25.0739    1.3090 C   0  0  0  0  0  0  0  0  0  0  0  0
   -5.7648   24.5936    0.9745 N   0  0  0  0  0  0  0  0  0  0  0  0
   -6.3501   25.1193   -0.2510 C   0  0  0  0  0  0  0  0  0  0  0  0
   -7.6116   24.2792   -0.3963 C   0  0  0  0  0  0  0  0  0  0  0  0
   -7.3158   22.9788    0.3473 C   0  0  0  0  0  0  0  0  0  0  0  0
   -5.9057   23.1430    0.8989 C   0  0  0  0  0  0  0  0  0  0  0  0
   -3.6379   28.4208    6.2339 C   0  0  0  0  0  0  0  0  0  0  0  0
   -4.8187   28.1834    7.0115 O   0  0  0  0  0  0  0  0  0  0  0  0
   -5.4490   27.7154    6.4264 H   0  0  0  0  0  0  0  0  0  0  0  0
   -3.5498   31.4242    6.4924 C   0  0  0  0  0  0  0  0  0  0  0  0
   -2.5507   30.5390    7.1880 C   0  0  0  0  0  0  0  0  0  0  0  0
   -1.5536   31.1407    7.9748 C   0  0  0  0  0  0  0  0  0  0  0  0
   -0.6102   30.3688    8.6514 C   0  0  0  0  0  0  0  0  0  0  0  0
   -0.6518   28.9832    8.5561 C   0  0  0  0  0  0  0  0  0  0  0  0
   -1.6380   28.3698    7.7846 C   0  0  0  0  0  0  0  0  0  0  0  0
   -2.6041   29.1290    7.0963 C   0  0  0  0  0  0  0  0  0  0  0  0
 16 17  1  0  0  0
 17 18  2  0  0  0
 18 19  1  0  0  0
 19 20  2  0  0  0
 20 21  1  0  0  0
 21 22  2  0  0  0
 22 13  1  0  0  0
 13 14  1  0  0  0
 13  1  1  0  0  0
  1  2  1  0  0  0
  2  3  1  0  0  0
  3  4  2  0  0  0
  4  7  1  0  0  0
  7  8  1  0  0  0
  8  9  1  0  0  0
  9 10  1  0  0  0
 10 11  1  0  0  0
 11 12  1  0  0  0
  4  5  1  0  0  0
  5  6  2  0  0  0
 22 17  1  0  0  0
  6  2  1  0  0  0
 12  8  1  0  0  0
 14 15  1  0  0  0
M  END
> <minimizedAffinity>
-8.18947

$$$$
OCNT-2309429


 28 31  0  0  0  0  0  0  0  0999 V2000
   -7.2985   23.3534   -0.7034 C   0  0  0  0  0  0  0  0  0  0  0  0
   -6.7280   23.7321    0.6253 C   0  0  0  0  0  0  0  0  0  0  0  0
   -6.8342   23.0594    1.8358 C   0  0  0  0  0  0  0  0  0  0  0  0
   -7.5740   21.7738    2.0385 C   0  0  0  0  0  0  0  0  0  0  0  0
   -6.1334   23.7607    2.8986 C   0  0  0  0  0  0  0  0  0  0  0  0
   -5.9441   23.5010    4.2714 C   0  0  0  0  0  0  0  0  0  0  0  0
   -5.2108   24.3720    5.0031 N   0  0  0  0  0  0  0  0  0  0  0  0
   -4.6885   25.4677    4.4208 C   0  0  0  0  0  0  0  0  0  0  0  0
   -4.8136   25.7975    3.1308 N   0  0  0  0  0  0  0  0  0  0  0  0
   -5.5396   24.9167    2.4259 C   0  0  0  0  0  0  0  0  0  0  0  0
   -5.8076   25.1654    0.7669 S   0  0  0  0  0  0  0  0  0  0  0  0
   -3.9077   26.3741    5.2761 C   0  0  0  0  0  0  0  0  0  0  0  0
   -4.3656   27.6506    5.6406 C   0  0  0  0  0  0  0  0  0  0  0  0
   -3.5921   28.4841    6.4488 C   0  0  0  0  0  0  0  0  0  0  0  0
   -2.3642   28.0205    6.8832 C   0  0  0  0  0  0  0  0  0  0  0  0
   -1.8759   26.8050    6.5688 N   0  0  0  0  0  0  0  0  0  0  0  0
   -2.6546   26.0182    5.7796 C   0  0  0  0  0  0  0  0  0  0  0  0
   -6.4677   22.3490    4.8886 N   0  0  0  0  0  0  0  0  0  0  0  0
   -5.6636   21.9918    6.0779 C   0  0  0  0  0  0  0  0  0  0  0  0
   -6.5815   22.2039    7.2747 C   0  0  0  0  0  0  0  0  0  0  0  0
   -7.9462   21.8918    6.6887 C   0  0  0  0  0  0  0  0  0  0  0  0
   -7.8731   22.5490    5.3239 C   0  0  0  0  0  0  0  0  0  0  0  0
   -9.2765   22.5114    7.6796 S   0  0  0  0  0  0  0  0  0  0  0  0
   -9.4201   24.0959    7.1489 N   0  0  0  0  0  0  0  0  0  0  0  0
   -8.8795   22.6019    9.0636 O   0  0  0  0  0  0  0  0  0  0  0  0
  -10.5045   21.8678    7.2731 O   0  0  0  0  0  0  0  0  0  0  0  0
  -10.3371   24.2294    6.7145 H   0  0  0  0  0  0  0  0  0  0  0  0
   -9.2584   24.7396    7.9286 H   0  0  0  0  0  0  0  0  0  0  0  0
  1  2  1  0  0  0
  2  3  2  0  0  0
  3  4  1  0  0  0
  3  5  1  0  0  0
  5  6  2  0  0  0
  6 18  1  0  0  0
 18 19  1  0  0  0
 19 20  1  0  0  0
 20 21  1  0  0  0
 21 23  1  0  0  0
 23 24  1  0  0  0
 23 25  2  0  0  0
 23 26  2  0  0  0
 21 22  1  0  0  0
  6  7  1  0  0  0
  7  8  2  0  0  0
  8 12  1  0  0  0
 12 13  1  0  0  0
 13 14  2  0  0  0
 14 15  1  0  0  0
 15 16  2  0  0  0
 16 17  1  0  0  0
  8  9  1  0  0  0
  9 10  2  0  0  0
 10 11  1  0  0  0
 11  2  1  0  0  0
 10  5  1  0  0  0
 22 18  1  0  0  0
 17 12  2  0  0  0
 24 27  1  0  0  0
 24 28  1  0  0  0
M  END
> <minimizedAffinity>
-8.52761

$$$$
OCNT-2309434


 26 29  0  0  0  0  0  0  0  0999 V2000
   -5.0111   33.3399    8.3091 C   0  0  0  0  0  0  0  0  0  0  0  0
   -4.4042   32.0110    8.2483 N   0  0  0  0  0  0  0  0  0  0  0  0
   -5.3811   30.9724    8.6232 C   0  0  0  0  0  0  0  0  0  0  0  0
   -4.8147   29.5453    8.4880 C   0  0  0  0  0  0  0  0  0  0  0  0
   -4.2704   29.2630    7.1257 N   0  0  0  0  0  0  0  0  0  0  0  0
   -3.2747   30.3076    6.7003 C   0  0  0  0  0  0  0  0  0  0  0  0
   -3.8698   31.7407    6.8929 C   0  0  0  0  0  0  0  0  0  0  0  0
   -1.9120   30.0282    7.3323 C   0  0  0  0  0  0  0  0  0  0  0  0
   -1.1068   29.0250    6.7584 C   0  0  0  0  0  0  0  0  0  0  0  0
    0.1467   28.7141    7.2896 C   0  0  0  0  0  0  0  0  0  0  0  0
    0.6161   29.3977    8.4071 C   0  0  0  0  0  0  0  0  0  0  0  0
   -0.1667   30.3927    8.9900 C   0  0  0  0  0  0  0  0  0  0  0  0
   -1.4214   30.7060    8.4583 C   0  0  0  0  0  0  0  0  0  0  0  0
   -5.3810   28.8271    5.9305 S   0  0  0  0  0  0  0  0  0  0  0  0
   -5.5007   29.9227    4.9943 O   0  0  0  0  0  0  0  0  0  0  0  0
   -6.5431   28.2384    6.5581 O   0  0  0  0  0  0  0  0  0  0  0  0
   -4.7027   27.5670    4.9954 C   0  0  0  0  0  0  0  0  0  0  0  0
   -5.1166   27.0615    3.7834 C   0  0  0  0  0  0  0  0  0  0  0  0
   -4.2278   26.0697    3.4768 N   0  0  0  0  0  0  0  0  0  0  0  0
   -3.2859   25.8869    4.4297 N   0  0  0  0  0  0  0  0  0  0  0  0
   -3.5727   26.8171    5.3473 C   0  0  0  0  0  0  0  0  0  0  0  0
   -4.2322   25.2523    2.2741 C   0  0  0  0  0  0  0  0  0  0  0  0
   -4.0216   23.7531    2.5544 C   0  0  0  0  0  0  0  0  0  0  0  0
   -5.3571   23.0961    2.2270 C   0  0  0  0  0  0  0  0  0  0  0  0
   -5.8825   23.9328    1.0711 C   0  0  0  0  0  0  0  0  0  0  0  0
   -5.5490   25.3614    1.4839 C   0  0  0  0  0  0  0  0  0  0  0  0
  1  2  1  0  0  0
  2  3  1  0  0  0
  3  4  1  0  0  0
  4  5  1  0  0  0
  5 14  1  0  0  0
 14 15  2  0  0  0
 14 16  2  0  0  0
 14 17  1  0  0  0
 17 18  2  0  0  0
 18 19  1  0  0  0
 19 22  1  0  0  0
 22 23  1  0  0  0
 23 24  1  0  0  0
 24 25  1  0  0  0
 25 26  1  0  0  0
 19 20  1  0  0  0
 20 21  2  0  0  0
  5  6  1  0  0  0
  6  8  1  0  0  0
  8  9  2  0  0  0
  9 10  1  0  0  0
 10 11  2  0  0  0
 11 12  1  0  0  0
 12 13  2  0  0  0
  6  7  1  0  0  0
  7  2  1  0  0  0
 21 17  1  0  0  0
 13  8  1  0  0  0
 26 22  1  0  0  0
M  END
> <minimizedAffinity>
-9.44835

$$$$
OCNT-2309435


 25 27  0  0  0  0  0  0  0  0999 V2000
   -6.5943   27.5418    6.3413 N   0  0  0  0  0  0  0  0  0  0  0  0
   -7.4303   27.0052    6.5797 H   0  0  0  0  0  0  0  0  0  0  0  0
   -5.3828   25.8136    2.7639 C   0  0  0  0  0  0  0  0  0  0  0  0
   -5.6113   27.1877    2.7974 C   0  0  0  0  0  0  0  0  0  0  0  0
   -6.0163   27.7878    3.9881 C   0  0  0  0  0  0  0  0  0  0  0  0
   -6.1891   27.0011    5.1209 C   0  0  0  0  0  0  0  0  0  0  0  0
   -5.9545   25.6776    5.1161 N   0  0  0  0  0  0  0  0  0  0  0  0
   -5.5603   25.1141    3.9511 C   0  0  0  0  0  0  0  0  0  0  0  0
   -4.9216   25.1217    1.5099 C   0  0  0  0  0  0  0  0  0  0  0  0
   -6.0818   24.8998    0.5328 C   0  0  0  0  0  0  0  0  0  0  0  0
   -7.8179   23.3011   -0.4349 C   0  0  0  0  0  0  0  0  0  0  0  0
   -6.8540   23.5797    0.7182 C   0  0  0  0  0  0  0  0  0  0  0  0
   -5.9233   22.3873    0.9376 C   0  0  0  0  0  0  0  0  0  0  0  0
   -6.9510   28.9627    6.2807 C   0  0  0  0  0  0  0  0  0  0  0  0
   -6.1888   29.8955    7.1857 C   0  0  0  0  0  0  0  0  0  0  0  0
   -6.7176   30.9383    7.9238 C   0  0  0  0  0  0  0  0  0  0  0  0
   -5.4837   31.7073    8.8274 S   0  0  0  0  0  0  0  0  0  0  0  0
   -4.3379   30.6023    8.1865 C   0  0  0  0  0  0  0  0  0  0  0  0
   -4.8197   29.7139    7.3419 N   0  0  0  0  0  0  0  0  0  0  0  0
   -2.8276   30.6328    8.5611 C   0  0  0  0  0  0  0  0  0  0  0  0
   -1.9059   29.6634    8.2402 C   0  0  0  0  0  0  0  0  0  0  0  0
   -0.7215   30.0912    8.7617 N   0  0  0  0  0  0  0  0  0  0  0  0
    0.5513   29.4158    8.6935 C   0  0  0  0  0  0  0  0  0  0  0  0
   -0.8100   31.2773    9.3970 N   0  0  0  0  0  0  0  0  0  0  0  0
   -2.1018   31.6027    9.2738 C   0  0  0  0  0  0  0  0  0  0  0  0
 11 12  1  0  0  0
 12 13  1  0  0  0
 12 10  1  0  0  0
 10  9  1  0  0  0
  9  3  1  0  0  0
  3  4  2  0  0  0
  4  5  1  0  0  0
  5  6  2  0  0  0
  6  1  1  0  0  0
  1 14  1  0  0  0
 14 15  1  0  0  0
 15 16  2  0  0  0
 16 17  1  0  0  0
 17 18  1  0  0  0
 18 20  1  0  0  0
 20 21  2  0  0  0
 21 22  1  0  0  0
 22 23  1  0  0  0
 22 24  1  0  0  0
 24 25  2  0  0  0
 18 19  2  0  0  0
  6  7  1  0  0  0
  7  8  2  0  0  0
  8  3  1  0  0  0
 19 15  1  0  0  0
 25 20  1  0  0  0
  1  2  1  0  0  0
M  END
> <minimizedAffinity>
-8.94340

$$$$
OCNT-2309439


 27 29  0  0  0  0  0  0  0  0999 V2000
   -6.0542   30.3985    6.3967 N   0  0  0  0  0  0  0  0  0  0  0  0
   -4.7293   30.4304    6.7485 C   0  0  0  0  0  0  0  0  0  0  0  0
   -3.9112   29.6482    6.2732 O   0  0  0  0  0  0  0  0  0  0  0  0
   -4.4008   31.3695    7.6979 N   0  0  0  0  0  0  0  0  0  0  0  0
   -5.2506   32.4306    8.2218 C   0  0  0  0  0  0  0  0  0  0  0  0
   -4.2761   33.4668    8.7550 C   0  0  0  0  0  0  0  0  0  0  0  0
   -3.1276   32.6137    9.2640 C   0  0  0  0  0  0  0  0  0  0  0  0
   -3.0324   31.4794    8.2285 C   0  0  0  0  0  0  0  0  0  0  0  0
   -6.5189   31.2910    6.4170 H   0  0  0  0  0  0  0  0  0  0  0  0
   -6.5034   29.4948    5.3510 C   0  0  0  0  0  0  0  0  0  0  0  0
   -6.6264   28.0487    5.8380 C   0  0  0  0  0  0  0  0  0  0  0  0
   -5.6097   25.1330    2.7937 C   0  0  0  0  0  0  0  0  0  0  0  0
   -5.5757   26.4980    2.5036 C   0  0  0  0  0  0  0  0  0  0  0  0
   -5.8971   27.4395    3.4908 C   0  0  0  0  0  0  0  0  0  0  0  0
   -6.2555   27.0323    4.7829 C   0  0  0  0  0  0  0  0  0  0  0  0
   -6.2857   25.6640    5.0725 C   0  0  0  0  0  0  0  0  0  0  0  0
   -5.9671   24.7340    4.0848 C   0  0  0  0  0  0  0  0  0  0  0  0
   -6.0175   23.4299    4.3981 F   0  0  0  0  0  0  0  0  0  0  0  0
   -6.3697   23.7021    1.0486 C   0  0  0  0  0  0  0  0  0  0  0  0
   -5.3250   24.1233    1.9155 O   0  0  0  0  0  0  0  0  0  0  0  0
   -2.4847   30.1765    8.8702 C   0  0  0  0  0  0  0  0  0  0  0  0
   -1.1152   29.8155    8.4422 N   0  0  0  0  0  0  0  0  0  0  0  0
   -0.8100   30.3619    7.0987 C   0  0  0  0  0  0  0  0  0  0  0  0
    0.2892   29.5583    6.3866 C   0  0  0  0  0  0  0  0  0  0  0  0
   -0.0965   28.2022    6.1230 O   0  0  0  0  0  0  0  0  0  0  0  0
   -1.0461   27.6956    7.0711 C   0  0  0  0  0  0  0  0  0  0  0  0
   -0.9169   28.3477    8.4567 C   0  0  0  0  0  0  0  0  0  0  0  0
 19 20  1  0  0  0
 20 12  1  0  0  0
 12 13  1  0  0  0
 13 14  2  0  0  0
 14 15  1  0  0  0
 15 11  1  0  0  0
 11 10  1  0  0  0
 10  1  1  0  0  0
  1  2  1  0  0  0
  2  3  2  0  0  0
  2  4  1  0  0  0
  4  5  1  0  0  0
  5  6  1  0  0  0
  6  7  1  0  0  0
  7  8  1  0  0  0
  8 21  1  0  0  0
 21 22  1  0  0  0
 22 23  1  0  0  0
 23 24  1  0  0  0
 24 25  1  0  0  0
 25 26  1  0  0  0
 26 27  1  0  0  0
 15 16  2  0  0  0
 16 17  1  0  0  0
 17 18  1  0  0  0
 17 12  2  0  0  0
  8  4  1  0  0  0
 27 22  1  0  0  0
  1  9  1  0  0  0
M  END
> <minimizedAffinity>
-8.98197

$$$$
OCNT-2309445


 28 31  0  0  0  0  0  0  0  0999 V2000
   -6.0049   26.7102    3.8394 N   0  0  0  0  0  0  0  0  0  0  0  0
   -5.9550   27.1890    5.1165 C   0  0  0  0  0  0  0  0  0  0  0  0
   -5.9553   28.5578    4.9589 C   0  0  0  0  0  0  0  0  0  0  0  0
   -5.9996   28.8479    3.6168 N   0  0  0  0  0  0  0  0  0  0  0  0
   -6.0240   27.7067    2.9415 N   0  0  0  0  0  0  0  0  0  0  0  0
   -5.9147   29.5682    6.0030 C   0  0  0  0  0  0  0  0  0  0  0  0
   -7.0640   29.9704    6.6912 C   0  0  0  0  0  0  0  0  0  0  0  0
   -6.9796   30.9305    7.6993 C   0  0  0  0  0  0  0  0  0  0  0  0
   -5.7490   31.5095    8.0200 C   0  0  0  0  0  0  0  0  0  0  0  0
   -4.5870   31.1646    7.3241 C   0  0  0  0  0  0  0  0  0  0  0  0
   -4.6876   30.1648    6.3422 C   0  0  0  0  0  0  0  0  0  0  0  0
   -3.3170   31.6558    7.6456 N   0  0  0  0  0  0  0  0  0  0  0  0
   -3.0597   31.4308    8.6045 H   0  0  0  0  0  0  0  0  0  0  0  0
   -2.2014   31.4386    6.7270 C   0  0  0  0  0  0  0  0  0  0  0  0
   -1.1019   30.6068    7.3314 C   0  0  0  0  0  0  0  0  0  0  0  0
   -0.2413   29.7371    6.6881 C   0  0  0  0  0  0  0  0  0  0  0  0
    0.6753   29.1169    7.5844 C   0  0  0  0  0  0  0  0  0  0  0  0
    0.4838   29.5310    8.8833 C   0  0  0  0  0  0  0  0  0  0  0  0
   -0.7937   30.6599    9.0160 S   0  0  0  0  0  0  0  0  0  0  0  0
   -6.0206   25.3231    3.4171 C   0  0  0  0  0  0  0  0  0  0  0  0
   -7.6708   23.4386   -0.3911 C   0  0  0  0  0  0  0  0  0  0  0  0
   -6.8703   23.6029    0.8998 C   0  0  0  0  0  0  0  0  0  0  0  0
   -5.8891   22.4364    1.0819 C   0  0  0  0  0  0  0  0  0  0  0  0
   -5.0847   22.6096    2.2907 N   0  0  0  0  0  0  0  0  0  0  0  0
   -4.3007   23.8447    2.2461 C   0  0  0  0  0  0  0  0  0  0  0  0
   -5.2019   25.0848    2.1336 C   0  0  0  0  0  0  0  0  0  0  0  0
   -6.1194   24.9423    0.9053 C   0  0  0  0  0  0  0  0  0  0  0  0
   -4.4521   21.8152    2.3956 H   0  0  0  0  0  0  0  0  0  0  0  0
 21 22  1  0  0  0
 22 23  1  0  0  0
 23 24  1  0  0  0
 24 25  1  0  0  0
 25 26  1  0  0  0
 26 20  1  0  0  0
 20  1  1  0  0  0
  1  2  1  0  0  0
  2  3  2  0  0  0
  3  6  1  0  0  0
  6  7  1  0  0  0
  7  8  2  0  0  0
  8  9  1  0  0  0
  9 10  2  0  0  0
 10 12  1  0  0  0
 12 14  1  0  0  0
 14 15  1  0  0  0
 15 16  2  0  0  0
 16 17  1  0  0  0
 17 18  2  0  0  0
 18 19  1  0  0  0
 10 11  1  0  0  0
  3  4  1  0  0  0
  4  5  2  0  0  0
 26 27  1  0  0  0
 27 22  1  0  0  0
  5  1  1  0  0  0
 11  6  2  0  0  0
 19 15  1  0  0  0
 24 28  1  0  0  0
 12 13  1  0  0  0
M  END
> <minimizedAffinity>
-9.78399

$$$$
OCNT-2309447


 31 33  0  0  0  0  0  0  0  0999 V2000
   -5.8144   28.4040    5.5908 N   0  0  0  0  0  0  0  0  0  0  0  0
   -5.8756   28.0740    4.2611 C   0  0  0  0  0  0  0  0  0  0  0  0
   -5.8670   28.9129    3.3656 O   0  0  0  0  0  0  0  0  0  0  0  0
   -5.8376   27.6756    6.2874 H   0  0  0  0  0  0  0  0  0  0  0  0
   -5.9554   26.6578    3.9765 C   0  0  0  0  0  0  0  0  0  0  0  0
   -6.1753   25.5494    4.7768 C   0  0  0  0  0  0  0  0  0  0  0  0
   -6.1527   24.3818    3.9562 C   0  0  0  0  0  0  0  0  0  0  0  0
   -6.3074   22.9965    4.1633 C   0  0  0  0  0  0  0  0  0  0  0  0
   -6.6007   22.4910    5.7698 Cl  0  0  0  0  0  0  0  0  0  0  0  0
   -6.2250   22.0888    3.1101 C   0  0  0  0  0  0  0  0  0  0  0  0
   -5.9839   22.5643    1.8261 C   0  0  0  0  0  0  0  0  0  0  0  0
   -5.8799   21.4465    0.5183 Cl  0  0  0  0  0  0  0  0  0  0  0  0
   -5.8226   23.9310    1.5657 C   0  0  0  0  0  0  0  0  0  0  0  0
   -5.9123   24.8149    2.6510 C   0  0  0  0  0  0  0  0  0  0  0  0
   -5.7962   26.1832    2.6923 N   0  0  0  0  0  0  0  0  0  0  0  0
   -5.6180   26.7845    1.8971 H   0  0  0  0  0  0  0  0  0  0  0  0
   -6.9736   30.1453    6.8949 C   0  0  0  0  0  0  0  0  0  0  0  0
   -5.7500   29.7806    6.0483 C   0  0  0  0  0  0  0  0  0  0  0  0
   -4.4412   30.0047    6.7850 C   0  0  0  0  0  0  0  0  0  0  0  0
   -3.5588   31.0010    6.3461 C   0  0  0  0  0  0  0  0  0  0  0  0
   -2.3423   31.2129    7.0005 C   0  0  0  0  0  0  0  0  0  0  0  0
   -1.9721   30.4272    8.0930 C   0  0  0  0  0  0  0  0  0  0  0  0
   -2.8403   29.4319    8.5363 C   0  0  0  0  0  0  0  0  0  0  0  0
   -4.0613   29.2182    7.8837 C   0  0  0  0  0  0  0  0  0  0  0  0
   -0.7610   30.7449    8.6399 O   0  0  0  0  0  0  0  0  0  0  0  0
    0.2569   29.7597    8.6215 C   0  0  0  0  0  0  0  0  0  0  0  0
    0.4852   29.0426    7.2861 C   0  0  0  0  0  0  0  0  0  0  0  0
    0.1604   27.7112    7.2882 N   0  0  0  0  0  0  0  0  0  0  0  0
    0.9393   29.5601    6.2724 O   0  0  0  0  0  0  0  0  0  0  0  0
   -0.4637   27.3167    7.9787 H   0  0  0  0  0  0  0  0  0  0  0  0
    0.2147   27.2453    6.3901 H   0  0  0  0  0  0  0  0  0  0  0  0
 17 18  1  0  0  0
 18  1  1  0  0  0
  1  2  1  0  0  0
  2  3  2  0  0  0
  2  5  1  0  0  0
  5  6  2  0  0  0
  6  7  1  0  0  0
  7  8  2  0  0  0
  8  9  1  0  0  0
  8 10  1  0  0  0
 10 11  2  0  0  0
 11 12  1  0  0  0
 11 13  1  0  0  0
 13 14  2  0  0  0
 14 15  1  0  0  0
 18 19  1  0  0  0
 19 20  1  0  0  0
 20 21  2  0  0  0
 21 22  1  0  0  0
 22 25  1  0  0  0
 25 26  1  0  0  0
 26 27  1  0  0  0
 27 28  1  0  0  0
 27 29  2  0  0  0
 22 23  2  0  0  0
 23 24  1  0  0  0
 15  5  1  0  0  0
 24 19  2  0  0  0
 14  7  1  0  0  0
  1  4  1  0  0  0
 15 16  1  0  0  0
 28 30  1  0  0  0
 28 31  1  0  0  0
M  END
> <minimizedAffinity>
-9.11465

$$$$
OCNT-2309448


 27 30  0  0  0  0  0  0  0  0999 V2000
   -2.6122   26.2769    4.3421 C   0  0  0  0  0  0  0  0  0  0  0  0
   -1.3504   25.9392    3.8346 C   0  0  0  0  0  0  0  0  0  0  0  0
   -0.2004   26.1469    4.5980 C   0  0  0  0  0  0  0  0  0  0  0  0
   -0.2961   26.6940    5.8794 C   0  0  0  0  0  0  0  0  0  0  0  0
   -1.5434   27.0361    6.4012 C   0  0  0  0  0  0  0  0  0  0  0  0
   -2.6927   26.8275    5.6301 C   0  0  0  0  0  0  0  0  0  0  0  0
   -5.2797   25.0493    2.4211 C   0  0  0  0  0  0  0  0  0  0  0  0
   -4.1744   24.8006    3.0906 N   0  0  0  0  0  0  0  0  0  0  0  0
   -3.8111   26.0556    3.5399 C   0  0  0  0  0  0  0  0  0  0  0  0
   -4.6629   27.0290    3.1734 N   0  0  0  0  0  0  0  0  0  0  0  0
   -5.6376   26.3639    2.4360 O   0  0  0  0  0  0  0  0  0  0  0  0
   -7.2240   23.7121    2.6276 O   0  0  0  0  0  0  0  0  0  0  0  0
   -6.1788   24.0860    1.7066 C   0  0  0  0  0  0  0  0  0  0  0  0
   -5.4313   22.8046    1.3067 C   0  0  0  0  0  0  0  0  0  0  0  0
   -6.3153   21.8435    0.5100 C   0  0  0  0  0  0  0  0  0  0  0  0
   -6.9380   22.5287   -0.7026 C   0  0  0  0  0  0  0  0  0  0  0  0
   -7.7095   23.7841   -0.3060 C   0  0  0  0  0  0  0  0  0  0  0  0
   -6.8373   24.7560    0.4902 C   0  0  0  0  0  0  0  0  0  0  0  0
   -7.2591   24.4061    3.3154 H   0  0  0  0  0  0  0  0  0  0  0  0
   -1.7785   27.5796    7.6338 O   0  0  0  0  0  0  0  0  0  0  0  0
   -0.8242   28.5203    8.1250 C   0  0  0  0  0  0  0  0  0  0  0  0
   -1.5607   29.7306    8.6257 C   0  0  0  0  0  0  0  0  0  0  0  0
   -0.8760   30.8494    9.1162 C   0  0  0  0  0  0  0  0  0  0  0  0
   -1.5922   31.9452    9.5883 C   0  0  0  0  0  0  0  0  0  0  0  0
   -2.9785   31.8845    9.5581 C   0  0  0  0  0  0  0  0  0  0  0  0
   -3.6768   30.8225    9.0961 N   0  0  0  0  0  0  0  0  0  0  0  0
   -2.9537   29.7751    8.6375 C   0  0  0  0  0  0  0  0  0  0  0  0
 12 13  1  0  0  0
 13  7  1  0  0  0
  7  8  2  0  0  0
  8  9  1  0  0  0
  9  1  1  0  0  0
  1  2  2  0  0  0
  2  3  1  0  0  0
  3  4  2  0  0  0
  4  5  1  0  0  0
  5 20  1  0  0  0
 20 21  1  0  0  0
 21 22  1  0  0  0
 22 23  1  0  0  0
 23 24  2  0  0  0
 24 25  1  0  0  0
 25 26  2  0  0  0
 26 27  1  0  0  0
  5  6  2  0  0  0
  9 10  2  0  0  0
 10 11  1  0  0  0
 13 14  1  0  0  0
 14 15  1  0  0  0
 15 16  1  0  0  0
 16 17  1  0  0  0
 17 18  1  0  0  0
 18 13  1  0  0  0
 11  7  1  0  0  0
  6  1  1  0  0  0
 27 22  2  0  0  0
 12 19  1  0  0  0
M  END
> <minimizedAffinity>
-10.25097

$$$$
OCNT-2309461


 23 25  0  0  0  0  0  0  0  0999 V2000
   -3.4010   26.7754    5.3939 C   0  0  0  0  0  0  0  0  0  0  0  0
   -3.0242   26.1612    4.0467 C   0  0  0  0  0  0  0  0  0  0  0  0
   -4.0468   25.1434    3.6121 C   0  0  0  0  0  0  0  0  0  0  0  0
   -3.6869   24.0738    2.7840 C   0  0  0  0  0  0  0  0  0  0  0  0
   -4.6613   23.1877    2.3214 C   0  0  0  0  0  0  0  0  0  0  0  0
   -5.9969   23.3821    2.6717 C   0  0  0  0  0  0  0  0  0  0  0  0
   -7.3151   22.1871    2.0311 Br  0  0  0  0  0  0  0  0  0  0  0  0
   -6.3719   24.4507    3.4852 C   0  0  0  0  0  0  0  0  0  0  0  0
   -5.3922   25.3211    3.9604 C   0  0  0  0  0  0  0  0  0  0  0  0
   -5.7631   26.4028    4.7663 N   0  0  0  0  0  0  0  0  0  0  0  0
   -4.8663   27.2330    5.3863 C   0  0  0  0  0  0  0  0  0  0  0  0
   -5.2441   28.2487    5.9733 O   0  0  0  0  0  0  0  0  0  0  0  0
   -6.7412   26.6377    4.8825 H   0  0  0  0  0  0  0  0  0  0  0  0
   -1.4169   27.7891    6.4762 C   0  0  0  0  0  0  0  0  0  0  0  0
   -0.9191   26.7103    6.7734 O   0  0  0  0  0  0  0  0  0  0  0  0
   -2.5750   27.9236    5.7496 N   0  0  0  0  0  0  0  0  0  0  0  0
   -3.0184   28.8362    5.7009 H   0  0  0  0  0  0  0  0  0  0  0  0
   -0.7894   29.0888    6.9095 C   0  0  0  0  0  0  0  0  0  0  0  0
    0.5719   29.4330    6.3241 C   0  0  0  0  0  0  0  0  0  0  0  0
    0.4635   29.0597    7.7706 C   0  0  0  0  0  0  0  0  0  0  0  0
   -1.9244   30.4258    7.1255 S   0  0  0  0  0  0  0  0  0  0  0  0
   -1.4089   31.8237    9.4220 C   0  0  0  0  0  0  0  0  0  0  0  0
   -2.0435   30.5339    8.9340 C   0  0  0  0  0  0  0  0  0  0  0  0
 22 23  1  0  0  0
 23 21  1  0  0  0
 21 18  1  0  0  0
 18 14  1  0  0  0
 14 15  2  0  0  0
 14 16  1  0  0  0
 16  1  1  0  0  0
  1  2  1  0  0  0
  2  3  1  0  0  0
  3  4  1  0  0  0
  4  5  2  0  0  0
  5  6  1  0  0  0
  6  7  1  0  0  0
  6  8  2  0  0  0
  8  9  1  0  0  0
  9 10  1  0  0  0
 10 11  1  0  0  0
 11 12  2  0  0  0
 18 19  1  0  0  0
 19 20  1  0  0  0
 20 18  1  0  0  0
 11  1  1  0  0  0
  9  3  2  0  0  0
 16 17  1  0  0  0
 10 13  1  0  0  0
M  END
> <minimizedAffinity>
-7.85468

$$$$
OCNT-2309465


 31 35  0  0  0  0  0  0  0  0999 V2000
   -6.0672   23.7127    4.6526 C   0  0  0  0  0  0  0  0  0  0  0  0
   -6.4797   23.3413    5.9220 C   0  0  0  0  0  0  0  0  0  0  0  0
   -7.8026   22.8451    5.7954 C   0  0  0  0  0  0  0  0  0  0  0  0
   -8.1914   22.9054    4.5143 N   0  0  0  0  0  0  0  0  0  0  0  0
   -7.1104   23.3488    3.8360 N   0  0  0  0  0  0  0  0  0  0  0  0
   -8.6937   22.3367    6.8455 C   0  0  0  0  0  0  0  0  0  0  0  0
   -8.2088   22.1293    8.1482 C   0  0  0  0  0  0  0  0  0  0  0  0
   -9.0441   21.6426    9.1589 C   0  0  0  0  0  0  0  0  0  0  0  0
  -10.3767   21.3602    8.8756 C   0  0  0  0  0  0  0  0  0  0  0  0
  -11.4084   20.7608   10.1146 Cl  0  0  0  0  0  0  0  0  0  0  0  0
  -10.8799   21.5619    7.5928 C   0  0  0  0  0  0  0  0  0  0  0  0
  -10.0420   22.0486    6.5823 C   0  0  0  0  0  0  0  0  0  0  0  0
   -4.5533   25.6174    4.5410 N   0  0  0  0  0  0  0  0  0  0  0  0
   -5.6344   26.5931    4.4137 C   0  0  0  0  0  0  0  0  0  0  0  0
   -4.8034   24.2710    4.2045 C   0  0  0  0  0  0  0  0  0  0  0  0
   -4.0053   23.5872    3.5675 O   0  0  0  0  0  0  0  0  0  0  0  0
    1.1155   29.1372    7.6608 C   0  0  0  0  0  0  0  0  0  0  0  0
    0.1374   28.3607    6.8649 C   0  0  0  0  0  0  0  0  0  0  0  0
   -1.1383   28.1834    7.1365 N   0  0  0  0  0  0  0  0  0  0  0  0
   -1.6293   27.3944    6.1242 C   0  0  0  0  0  0  0  0  0  0  0  0
   -2.9285   26.8996    5.9164 C   0  0  0  0  0  0  0  0  0  0  0  0
   -3.2134   26.1013    4.7914 C   0  0  0  0  0  0  0  0  0  0  0  0
   -2.1653   25.8480    3.8822 C   0  0  0  0  0  0  0  0  0  0  0  0
   -0.8569   26.3261    4.0702 C   0  0  0  0  0  0  0  0  0  0  0  0
   -0.6333   27.0950    5.2072 C   0  0  0  0  0  0  0  0  0  0  0  0
    0.4838   27.7157    5.7033 N   0  0  0  0  0  0  0  0  0  0  0  0
    1.4030   27.7049    5.2866 H   0  0  0  0  0  0  0  0  0  0  0  0
   -7.2050   23.4894    2.3846 C   0  0  0  0  0  0  0  0  0  0  0  0
   -7.0661   22.2218    1.5867 C   0  0  0  0  0  0  0  0  0  0  0  0
   -5.8603   21.8661    0.7474 C   0  0  0  0  0  0  0  0  0  0  0  0
   -6.1344   21.1155    2.0217 C   0  0  0  0  0  0  0  0  0  0  0  0
 17 18  1  0  0  0
 18 19  2  0  0  0
 19 20  1  0  0  0
 20 21  2  0  0  0
 21 22  1  0  0  0
 22 13  1  0  0  0
 13 14  1  0  0  0
 13 15  1  0  0  0
 15 16  2  0  0  0
 15  1  1  0  0  0
  1  2  2  0  0  0
  2  3  1  0  0  0
  3  6  1  0  0  0
  6  7  1  0  0  0
  7  8  2  0  0  0
  8  9  1  0  0  0
  9 10  1  0  0  0
  9 11  2  0  0  0
 11 12  1  0  0  0
  3  4  2  0  0  0
  4  5  1  0  0  0
  5 28  1  0  0  0
 28 29  1  0  0  0
 29 30  1  0  0  0
 30 31  1  0  0  0
 22 23  2  0  0  0
 23 24  1  0  0  0
 24 25  2  0  0  0
 25 26  1  0  0  0
 26 18  1  0  0  0
 25 20  1  0  0  0
  5  1  1  0  0  0
 31 29  1  0  0  0
 12  6  2  0  0  0
 26 27  1  0  0  0
M  END
> <minimizedAffinity>
-9.30403

$$$$
OCNT-2309466


 24 26  0  0  0  0  0  0  0  0999 V2000
   -6.0659   29.9999    6.6517 C   0  0  0  0  0  0  0  0  0  0  0  0
   -7.1716   30.1160    7.1767 O   0  0  0  0  0  0  0  0  0  0  0  0
   -4.9303   30.6526    7.1287 N   0  0  0  0  0  0  0  0  0  0  0  0
   -5.1135   31.6295    8.1997 C   0  0  0  0  0  0  0  0  0  0  0  0
   -3.9170   32.5630    8.3272 C   0  0  0  0  0  0  0  0  0  0  0  0
   -2.6165   31.8018    8.5970 C   0  0  0  0  0  0  0  0  0  0  0  0
   -2.6251   30.3719    8.0282 C   0  0  0  0  0  0  0  0  0  0  0  0
   -3.5460   30.2670    6.8028 C   0  0  0  0  0  0  0  0  0  0  0  0
   -5.5646   27.0014    4.3993 C   0  0  0  0  0  0  0  0  0  0  0  0
   -5.7426   27.6526    3.1838 C   0  0  0  0  0  0  0  0  0  0  0  0
   -6.0063   28.9786    3.0576 N   0  0  0  0  0  0  0  0  0  0  0  0
   -6.0954   29.6903    4.2070 C   0  0  0  0  0  0  0  0  0  0  0  0
   -5.9627   29.1280    5.4673 C   0  0  0  0  0  0  0  0  0  0  0  0
   -5.6676   27.7674    5.5599 C   0  0  0  0  0  0  0  0  0  0  0  0
   -5.2816   25.6833    4.6020 O   0  0  0  0  0  0  0  0  0  0  0  0
   -6.1187   23.6644    5.5303 C   0  0  0  0  0  0  0  0  0  0  0  0
   -6.3249   24.7156    4.4419 C   0  0  0  0  0  0  0  0  0  0  0  0
   -6.2248   24.0671    3.0644 C   0  0  0  0  0  0  0  0  0  0  0  0
   -1.2375   29.9188    7.7005 C   0  0  0  0  0  0  0  0  0  0  0  0
   -0.6677   29.9184    6.5129 N   0  0  0  0  0  0  0  0  0  0  0  0
    0.5958   29.4246    6.7051 C   0  0  0  0  0  0  0  0  0  0  0  0
    0.8009   29.1196    8.0281 C   0  0  0  0  0  0  0  0  0  0  0  0
   -0.3715   29.4392    8.6534 N   0  0  0  0  0  0  0  0  0  0  0  0
   -0.5702   29.3434    9.6400 H   0  0  0  0  0  0  0  0  0  0  0  0
 16 17  1  0  0  0
 17 18  1  0  0  0
 17 15  1  0  0  0
 15  9  1  0  0  0
  9 10  1  0  0  0
 10 11  2  0  0  0
 11 12  1  0  0  0
 12 13  2  0  0  0
 13  1  1  0  0  0
  1  2  2  0  0  0
  1  3  1  0  0  0
  3  4  1  0  0  0
  4  5  1  0  0  0
  5  6  1  0  0  0
  6  7  1  0  0  0
  7 19  1  0  0  0
 19 20  2  0  0  0
 20 21  1  0  0  0
 21 22  2  0  0  0
 22 23  1  0  0  0
  7  8  1  0  0  0
 13 14  1  0  0  0
 14  9  2  0  0  0
  8  3  1  0  0  0
 23 19  1  0  0  0
 23 24  1  0  0  0
M  END
> <minimizedAffinity>
-8.15184

$$$$
OCNT-2309476


 28 31  0  0  0  0  0  0  0  0999 V2000
   -4.8185   25.4948    3.0480 S   0  0  0  0  0  0  0  0  0  0  0  0
   -5.8003   26.4438    2.5675 O   0  0  0  0  0  0  0  0  0  0  0  0
   -3.8995   24.8129    2.1629 O   0  0  0  0  0  0  0  0  0  0  0  0
   -1.7744   28.4620    7.1287 N   0  0  0  0  0  0  0  0  0  0  0  0
   -2.7272   29.2418    7.6877 N   0  0  0  0  0  0  0  0  0  0  0  0
   -3.8393   28.9094    7.0341 C   0  0  0  0  0  0  0  0  0  0  0  0
   -3.6174   27.9319    6.0437 C   0  0  0  0  0  0  0  0  0  0  0  0
   -4.4189   27.2626    5.1037 C   0  0  0  0  0  0  0  0  0  0  0  0
   -3.8073   26.3275    4.2568 C   0  0  0  0  0  0  0  0  0  0  0  0
   -2.4434   26.0453    4.3422 C   0  0  0  0  0  0  0  0  0  0  0  0
   -1.6411   26.7061    5.2784 C   0  0  0  0  0  0  0  0  0  0  0  0
   -2.2525   27.6508    6.1195 C   0  0  0  0  0  0  0  0  0  0  0  0
   -0.3376   29.4277    8.9094 C   0  0  0  0  0  0  0  0  0  0  0  0
   -0.4119   28.5751    7.6437 C   0  0  0  0  0  0  0  0  0  0  0  0
    0.5766   29.0413    6.5760 C   0  0  0  0  0  0  0  0  0  0  0  0
   -5.6180   24.3598    3.9948 N   0  0  0  0  0  0  0  0  0  0  0  0
   -6.6976   24.8170    4.8965 C   0  0  0  0  0  0  0  0  0  0  0  0
   -6.8026   23.8580    6.1053 C   0  0  0  0  0  0  0  0  0  0  0  0
   -6.6937   22.4107    5.8038 N   0  0  0  0  0  0  0  0  0  0  0  0
   -5.4411   21.8606    6.3227 C   0  0  0  0  0  0  0  0  0  0  0  0
   -6.8169   22.1721    4.3467 C   0  0  0  0  0  0  0  0  0  0  0  0
   -5.8394   22.9898    3.4331 C   0  0  0  0  0  0  0  0  0  0  0  0
   -6.2966   22.9145    1.9837 C   0  0  0  0  0  0  0  0  0  0  0  0
   -7.3294   23.7231    1.4843 C   0  0  0  0  0  0  0  0  0  0  0  0
   -7.7367   23.6210    0.1524 C   0  0  0  0  0  0  0  0  0  0  0  0
   -7.1186   22.7101   -0.7001 C   0  0  0  0  0  0  0  0  0  0  0  0
   -6.0891   21.9036   -0.2233 C   0  0  0  0  0  0  0  0  0  0  0  0
   -5.6805   22.0049    1.1080 C   0  0  0  0  0  0  0  0  0  0  0  0
 13 14  1  0  0  0
 14 15  1  0  0  0
 14  4  1  0  0  0
  4  5  1  0  0  0
  5  6  2  0  0  0
  6  7  1  0  0  0
  7  8  2  0  0  0
  8  9  1  0  0  0
  9  1  1  0  0  0
  1  2  2  0  0  0
  1  3  2  0  0  0
  1 16  1  0  0  0
 16 17  1  0  0  0
 17 18  1  0  0  0
 18 19  1  0  0  0
 19 20  1  0  0  0
 19 21  1  0  0  0
 21 22  1  0  0  0
 22 23  1  0  0  0
 23 24  2  0  0  0
 24 25  1  0  0  0
 25 26  2  0  0  0
 26 27  1  0  0  0
 27 28  2  0  0  0
  9 10  2  0  0  0
 10 11  1  0  0  0
 11 12  2  0  0  0
 12  4  1  0  0  0
 12  7  1  0  0  0
 22 16  1  0  0  0
 28 23  1  0  0  0
M  END
> <minimizedAffinity>
-8.73703

$$$$
OCNT-2309483


 27 29  0  0  0  0  0  0  0  0999 V2000
   -4.6855   28.0513    6.0034 N   0  0  0  0  0  0  0  0  0  0  0  0
   -5.3156   27.7639    4.8157 C   0  0  0  0  0  0  0  0  0  0  0  0
   -5.8854   28.5956    4.1151 O   0  0  0  0  0  0  0  0  0  0  0  0
   -5.2549   26.4270    4.4443 N   0  0  0  0  0  0  0  0  0  0  0  0
   -4.8293   25.3274    5.3110 C   0  0  0  0  0  0  0  0  0  0  0  0
   -5.2495   23.9687    4.7531 C   0  0  0  0  0  0  0  0  0  0  0  0
   -4.7322   23.7814    3.4362 O   0  0  0  0  0  0  0  0  0  0  0  0
   -5.0968   24.8239    2.4933 C   0  0  0  0  0  0  0  0  0  0  0  0
   -3.7581   25.3042    1.9047 C   0  0  0  0  0  0  0  0  0  0  0  0
   -5.8441   26.0221    3.1632 C   0  0  0  0  0  0  0  0  0  0  0  0
   -4.0384   27.3601    6.3544 H   0  0  0  0  0  0  0  0  0  0  0  0
   -4.8147   31.7182    8.1158 C   0  0  0  0  0  0  0  0  0  0  0  0
   -5.8824   30.8247    8.1455 C   0  0  0  0  0  0  0  0  0  0  0  0
   -5.7928   29.6279    7.4342 C   0  0  0  0  0  0  0  0  0  0  0  0
   -6.8334   28.7791    7.4704 F   0  0  0  0  0  0  0  0  0  0  0  0
   -4.6563   29.2862    6.6879 C   0  0  0  0  0  0  0  0  0  0  0  0
   -3.5938   30.1842    6.6534 C   0  0  0  0  0  0  0  0  0  0  0  0
   -3.6807   31.3835    7.3638 C   0  0  0  0  0  0  0  0  0  0  0  0
   -2.6415   32.2312    7.3119 F   0  0  0  0  0  0  0  0  0  0  0  0
   -5.0961   34.0821    8.0072 C   0  0  0  0  0  0  0  0  0  0  0  0
   -4.7671   32.9230    8.7620 O   0  0  0  0  0  0  0  0  0  0  0  0
   -5.9585   24.2215    1.3735 C   0  0  0  0  0  0  0  0  0  0  0  0
   -6.2593   22.8489    1.3347 C   0  0  0  0  0  0  0  0  0  0  0  0
   -7.0491   22.3104    0.3150 C   0  0  0  0  0  0  0  0  0  0  0  0
   -7.5523   23.1332   -0.6879 C   0  0  0  0  0  0  0  0  0  0  0  0
   -7.2635   24.4943   -0.6744 C   0  0  0  0  0  0  0  0  0  0  0  0
   -6.4735   25.0332    0.3444 C   0  0  0  0  0  0  0  0  0  0  0  0
 20 21  1  0  0  0
 21 12  1  0  0  0
 12 13  1  0  0  0
 13 14  2  0  0  0
 14 15  1  0  0  0
 14 16  1  0  0  0
 16  1  1  0  0  0
  1  2  1  0  0  0
  2  3  2  0  0  0
  2  4  1  0  0  0
  4  5  1  0  0  0
  5  6  1  0  0  0
  6  7  1  0  0  0
  7  8  1  0  0  0
  8  9  1  0  0  0
  8 22  1  0  0  0
 22 23  2  0  0  0
 23 24  1  0  0  0
 24 25  2  0  0  0
 25 26  1  0  0  0
 26 27  2  0  0  0
  8 10  1  0  0  0
 16 17  2  0  0  0
 17 18  1  0  0  0
 18 19  1  0  0  0
 18 12  2  0  0  0
 10  4  1  0  0  0
 27 22  1  0  0  0
  1 11  1  0  0  0
M  END
> <minimizedAffinity>
-9.89960

$$$$
OCNT-2309487


 25 28  0  0  0  0  0  0  0  0999 V2000
   -3.1904   30.3913    7.1515 N   0  0  0  0  0  0  0  0  0  0  0  0
   -4.6273   30.0222    7.0600 C   0  0  0  0  0  0  0  0  0  0  0  0
   -4.6648   28.6701    6.3304 C   0  0  0  0  0  0  0  0  0  0  0  0
   -3.2445   28.1955    6.4167 C   0  0  0  0  0  0  0  0  0  0  0  0
   -2.7217   26.9583    6.0417 C   0  0  0  0  0  0  0  0  0  0  0  0
   -1.3391   26.7821    6.1525 C   0  0  0  0  0  0  0  0  0  0  0  0
   -0.5076   27.8297    6.5828 C   0  0  0  0  0  0  0  0  0  0  0  0
   -1.0442   29.0677    6.9344 C   0  0  0  0  0  0  0  0  0  0  0  0
   -2.4163   29.2229    6.8838 C   0  0  0  0  0  0  0  0  0  0  0  0
   -3.6017   25.9570    5.5833 N   0  0  0  0  0  0  0  0  0  0  0  0
   -3.7834   25.5276    4.2859 C   0  0  0  0  0  0  0  0  0  0  0  0
   -3.2672   25.9884    3.2781 O   0  0  0  0  0  0  0  0  0  0  0  0
   -4.6741   24.4690    4.2511 N   0  0  0  0  0  0  0  0  0  0  0  0
   -4.2937   25.6229    6.2349 H   0  0  0  0  0  0  0  0  0  0  0  0
   -4.6285   23.8577    5.0524 H   0  0  0  0  0  0  0  0  0  0  0  0
   -4.9783   23.8264    2.9836 C   0  0  0  0  0  0  0  0  0  0  0  0
   -6.4477   24.0271    2.5574 C   0  0  0  0  0  0  0  0  0  0  0  0
   -6.7985   22.8082    1.7521 C   0  0  0  0  0  0  0  0  0  0  0  0
   -5.9184   22.3038    0.6368 C   0  0  0  0  0  0  0  0  0  0  0  0
   -5.7852   21.7496    2.0323 C   0  0  0  0  0  0  0  0  0  0  0  0
   -4.7843   22.2932    3.0134 C   0  0  0  0  0  0  0  0  0  0  0  0
   -4.1952   32.5319    8.4746 C   0  0  0  0  0  0  0  0  0  0  0  0
   -2.7333   31.5227    8.3088 S   0  0  0  0  0  0  0  0  0  0  0  0
   -2.5080   30.8628    9.5774 O   0  0  0  0  0  0  0  0  0  0  0  0
   -1.7019   32.3532    7.7189 O   0  0  0  0  0  0  0  0  0  0  0  0
 22 23  1  0  0  0
 23 24  2  0  0  0
 23 25  2  0  0  0
 23  1  1  0  0  0
  1  2  1  0  0  0
  2  3  1  0  0  0
  3  4  1  0  0  0
  4  5  2  0  0  0
  5 10  1  0  0  0
 10 11  1  0  0  0
 11 12  2  0  0  0
 11 13  1  0  0  0
 13 16  1  0  0  0
 16 17  1  0  0  0
 17 18  1  0  0  0
 18 19  1  0  0  0
 19 20  1  0  0  0
 20 21  1  0  0  0
  5  6  1  0  0  0
  6  7  2  0  0  0
  7  8  1  0  0  0
  8  9  2  0  0  0
  9  1  1  0  0  0
  9  4  1  0  0  0
 21 16  1  0  0  0
 20 18  1  0  0  0
 10 14  1  0  0  0
 13 15  1  0  0  0
M  END
> <minimizedAffinity>
-8.52355

$$$$
OCNT-2309491


 29 33  0  0  0  0  0  0  0  0999 V2000
   -3.1847   32.4005    8.0997 C   0  0  0  0  0  0  0  0  0  0  0  0
   -4.3600   31.6091    7.6392 C   0  0  0  0  0  0  0  0  0  0  0  0
   -5.6392   31.6631    8.1579 C   0  0  0  0  0  0  0  0  0  0  0  0
   -6.6562   30.5721    7.3245 S   0  0  0  0  0  0  0  0  0  0  0  0
   -5.3344   30.0905    6.3208 C   0  0  0  0  0  0  0  0  0  0  0  0
   -4.1979   30.7147    6.5891 N   0  0  0  0  0  0  0  0  0  0  0  0
   -5.4774   29.0587    5.2678 C   0  0  0  0  0  0  0  0  0  0  0  0
   -5.9625   29.4533    3.9912 C   0  0  0  0  0  0  0  0  0  0  0  0
   -6.1114   28.5380    2.9402 C   0  0  0  0  0  0  0  0  0  0  0  0
   -5.7651   27.2286    3.1828 C   0  0  0  0  0  0  0  0  0  0  0  0
   -5.8314   26.2048    2.2896 O   0  0  0  0  0  0  0  0  0  0  0  0
   -5.3097   25.1161    3.0845 C   0  0  0  0  0  0  0  0  0  0  0  0
   -5.0009   25.4958    4.4409 O   0  0  0  0  0  0  0  0  0  0  0  0
   -5.2940   26.8254    4.4086 C   0  0  0  0  0  0  0  0  0  0  0  0
   -5.1424   27.7057    5.4639 C   0  0  0  0  0  0  0  0  0  0  0  0
   -1.8297   31.7659    9.9869 O   0  0  0  0  0  0  0  0  0  0  0  0
   -2.1945   31.5225    8.8372 C   0  0  0  0  0  0  0  0  0  0  0  0
   -1.7506   30.4364    8.1141 N   0  0  0  0  0  0  0  0  0  0  0  0
   -2.1789   30.2691    7.2098 H   0  0  0  0  0  0  0  0  0  0  0  0
   -0.9309   29.3822    8.7112 C   0  0  0  0  0  0  0  0  0  0  0  0
    0.5545   29.5405    8.2897 C   0  0  0  0  0  0  0  0  0  0  0  0
    0.8099   29.2934    6.7871 C   0  0  0  0  0  0  0  0  0  0  0  0
   -0.0095   28.1465    6.3272 C   0  0  0  0  0  0  0  0  0  0  0  0
   -1.0519   27.5524    7.0028 C   0  0  0  0  0  0  0  0  0  0  0  0
   -1.5066   26.5462    6.1331 C   0  0  0  0  0  0  0  0  0  0  0  0
   -0.8060   26.5100    4.9939 N   0  0  0  0  0  0  0  0  0  0  0  0
    0.1053   27.4911    5.1386 N   0  0  0  0  0  0  0  0  0  0  0  0
   -1.4875   27.9697    8.3643 C   0  0  0  0  0  0  0  0  0  0  0  0
    0.7647   27.6512    4.3839 H   0  0  0  0  0  0  0  0  0  0  0  0
 16 17  2  0  0  0
 17  1  1  0  0  0
  1  2  1  0  0  0
  2  3  2  0  0  0
  3  4  1  0  0  0
  4  5  1  0  0  0
  5  7  1  0  0  0
  7  8  1  0  0  0
  8  9  2  0  0  0
  9 10  1  0  0  0
 10 11  1  0  0  0
 11 12  1  0  0  0
 12 13  1  0  0  0
 13 14  1  0  0  0
 14 15  1  0  0  0
  5  6  2  0  0  0
 17 18  1  0  0  0
 18 20  1  0  0  0
 20 21  1  0  0  0
 21 22  1  0  0  0
 22 23  1  0  0  0
 23 24  2  0  0  0
 24 25  1  0  0  0
 25 26  2  0  0  0
 26 27  1  0  0  0
 24 28  1  0  0  0
  6  2  1  0  0  0
 28 20  1  0  0  0
 15  7  2  0  0  0
 27 23  1  0  0  0
 14 10  2  0  0  0
 18 19  1  0  0  0
 27 29  1  0  0  0
M  END
> <minimizedAffinity>
-9.60819

$$$$
OCNT-2309502


 23 26  0  0  0  0  0  0  0  0999 V2000
   -1.4976   28.3284    7.3383 O   0  0  0  0  0  0  0  0  0  0  0  0
   -2.0103   27.6112    6.4772 C   0  0  0  0  0  0  0  0  0  0  0  0
   -1.2795   26.3870    5.9749 C   0  0  0  0  0  0  0  0  0  0  0  0
   -1.5810   26.1040    4.5197 C   0  0  0  0  0  0  0  0  0  0  0  0
   -3.0644   26.0731    4.2977 C   0  0  0  0  0  0  0  0  0  0  0  0
   -3.8808   26.9576    5.0119 C   0  0  0  0  0  0  0  0  0  0  0  0
   -5.2510   27.0222    4.7204 C   0  0  0  0  0  0  0  0  0  0  0  0
   -5.7993   26.1549    3.7607 C   0  0  0  0  0  0  0  0  0  0  0  0
   -4.9990   25.2504    3.0451 C   0  0  0  0  0  0  0  0  0  0  0  0
   -3.6223   25.2357    3.3197 C   0  0  0  0  0  0  0  0  0  0  0  0
   -6.1468   27.9875    5.4477 C   0  0  0  0  0  0  0  0  0  0  0  0
   -5.3547   29.2162    5.8640 C   0  0  0  0  0  0  0  0  0  0  0  0
   -4.1367   28.7939    6.6695 C   0  0  0  0  0  0  0  0  0  0  0  0
   -3.3042   27.8002    6.0003 N   0  0  0  0  0  0  0  0  0  0  0  0
   -5.5803   24.3507    2.0337 C   0  0  0  0  0  0  0  0  0  0  0  0
   -6.1897   24.8665    0.8738 C   0  0  0  0  0  0  0  0  0  0  0  0
   -6.7459   24.0198   -0.0942 C   0  0  0  0  0  0  0  0  0  0  0  0
   -6.7057   22.6377    0.0767 C   0  0  0  0  0  0  0  0  0  0  0  0
   -6.1084   22.1145    1.2136 C   0  0  0  0  0  0  0  0  0  0  0  0
   -6.0787   20.7567    1.3686 O   0  0  0  0  0  0  0  0  0  0  0  0
   -5.5522   22.9560    2.1779 C   0  0  0  0  0  0  0  0  0  0  0  0
   -4.9931   22.3896    3.2610 F   0  0  0  0  0  0  0  0  0  0  0  0
   -5.6395   20.5800    2.2220 H   0  0  0  0  0  0  0  0  0  0  0  0
  1  2  2  0  0  0
  2  3  1  0  0  0
  3  4  1  0  0  0
  4  5  1  0  0  0
  5  6  2  0  0  0
  6  7  1  0  0  0
  7  8  2  0  0  0
  8  9  1  0  0  0
  9 15  1  0  0  0
 15 16  2  0  0  0
 16 17  1  0  0  0
 17 18  2  0  0  0
 18 19  1  0  0  0
 19 20  1  0  0  0
 19 21  2  0  0  0
 21 22  1  0  0  0
  9 10  2  0  0  0
  7 11  1  0  0  0
 11 12  1  0  0  0
 12 13  1  0  0  0
 13 14  1  0  0  0
 14  2  1  0  0  0
 10  5  1  0  0  0
 14  6  1  0  0  0
 21 15  1  0  0  0
 20 23  1  0  0  0
M  END
> <minimizedAffinity>
-9.98210

$$$$
OCNT-2309505


 27 30  0  0  0  0  0  0  0  0999 V2000
   -4.7486   26.8156    4.5429 C   0  0  0  0  0  0  0  0  0  0  0  0
   -5.0780   26.4915    3.0863 C   0  0  0  0  0  0  0  0  0  0  0  0
   -4.3556   25.2116    2.6289 C   0  0  0  0  0  0  0  0  0  0  0  0
   -4.6317   24.9619    1.1262 C   0  0  0  0  0  0  0  0  0  0  0  0
   -5.7784   23.9840    0.8866 C   0  0  0  0  0  0  0  0  0  0  0  0
   -6.7388   24.0753    1.9300 O   0  0  0  0  0  0  0  0  0  0  0  0
   -6.2391   23.6037    3.1820 C   0  0  0  0  0  0  0  0  0  0  0  0
   -4.7691   23.9466    3.4015 C   0  0  0  0  0  0  0  0  0  0  0  0
   -2.9281   25.3905    2.7390 O   0  0  0  0  0  0  0  0  0  0  0  0
   -2.4621   25.9788    3.8824 C   0  0  0  0  0  0  0  0  0  0  0  0
   -1.0880   25.8621    4.1004 C   0  0  0  0  0  0  0  0  0  0  0  0
   -0.5078   26.4069    5.2449 C   0  0  0  0  0  0  0  0  0  0  0  0
   -1.3034   27.0675    6.1765 C   0  0  0  0  0  0  0  0  0  0  0  0
   -2.6754   27.1941    5.9550 C   0  0  0  0  0  0  0  0  0  0  0  0
   -3.2676   26.6734    4.7903 C   0  0  0  0  0  0  0  0  0  0  0  0
   -6.9954   27.5044    6.1503 O   0  0  0  0  0  0  0  0  0  0  0  0
   -6.3103   28.3939    5.6540 C   0  0  0  0  0  0  0  0  0  0  0  0
   -5.2106   28.1552    4.8643 N   0  0  0  0  0  0  0  0  0  0  0  0
   -4.7330   28.9475    4.4484 H   0  0  0  0  0  0  0  0  0  0  0  0
   -6.6289   29.8794    5.8518 C   0  0  0  0  0  0  0  0  0  0  0  0
   -6.1161   30.4457    7.0529 O   0  0  0  0  0  0  0  0  0  0  0  0
   -4.7599   30.5113    7.1990 C   0  0  0  0  0  0  0  0  0  0  0  0
   -3.8627   31.1856    6.3756 C   0  0  0  0  0  0  0  0  0  0  0  0
   -2.5015   31.1707    6.6832 C   0  0  0  0  0  0  0  0  0  0  0  0
   -2.0820   30.4799    7.8079 C   0  0  0  0  0  0  0  0  0  0  0  0
   -2.9196   29.8154    8.6291 N   0  0  0  0  0  0  0  0  0  0  0  0
   -4.2338   29.8437    8.3012 C   0  0  0  0  0  0  0  0  0  0  0  0
 16 17  2  0  0  0
 17 20  1  0  0  0
 20 21  1  0  0  0
 21 22  1  0  0  0
 22 23  1  0  0  0
 23 24  2  0  0  0
 24 25  1  0  0  0
 25 26  2  0  0  0
 26 27  1  0  0  0
 17 18  1  0  0  0
 18  1  1  0  0  0
  1  2  1  0  0  0
  2  3  1  0  0  0
  3  4  1  0  0  0
  4  5  1  0  0  0
  5  6  1  0  0  0
  6  7  1  0  0  0
  7  8  1  0  0  0
  3  9  1  0  0  0
  9 10  1  0  0  0
 10 11  2  0  0  0
 11 12  1  0  0  0
 12 13  2  0  0  0
 13 14  1  0  0  0
 14 15  2  0  0  0
 27 22  2  0  0  0
 15  1  1  0  0  0
  8  3  1  0  0  0
 15 10  1  0  0  0
 18 19  1  0  0  0
M  END
> <minimizedAffinity>
-8.71985

$$$$
OCNT-2309511


 27 29  0  0  0  0  0  0  0  0999 V2000
   -5.3609   31.7505    7.6146 C   0  0  0  0  0  0  0  0  0  0  0  0
   -5.6633   30.7820    8.7596 C   0  0  0  0  0  0  0  0  0  0  0  0
   -6.5865   31.1532    9.7512 C   0  0  0  0  0  0  0  0  0  0  0  0
   -6.8908   30.2855   10.8015 C   0  0  0  0  0  0  0  0  0  0  0  0
   -6.2837   29.0339   10.8717 C   0  0  0  0  0  0  0  0  0  0  0  0
   -5.3766   28.6447    9.8893 C   0  0  0  0  0  0  0  0  0  0  0  0
   -5.0720   29.5087    8.8365 C   0  0  0  0  0  0  0  0  0  0  0  0
   -5.9998   30.1392    5.8807 N   0  0  0  0  0  0  0  0  0  0  0  0
   -4.9597   30.8999    6.3711 C   0  0  0  0  0  0  0  0  0  0  0  0
   -3.8255   30.9502    5.8967 O   0  0  0  0  0  0  0  0  0  0  0  0
   -6.8612   30.1158    6.4133 H   0  0  0  0  0  0  0  0  0  0  0  0
   -5.6434   26.4188    2.5611 C   0  0  0  0  0  0  0  0  0  0  0  0
   -5.7887   27.6474    3.3591 C   0  0  0  0  0  0  0  0  0  0  0  0
   -5.7267   27.9344    4.6996 C   0  0  0  0  0  0  0  0  0  0  0  0
   -5.9563   29.3252    4.7766 C   0  0  0  0  0  0  0  0  0  0  0  0
   -6.1461   29.8462    3.5590 N   0  0  0  0  0  0  0  0  0  0  0  0
   -6.0411   28.7914    2.6711 O   0  0  0  0  0  0  0  0  0  0  0  0
   -4.3012   32.7836    7.9286 N   0  0  0  0  0  0  0  0  0  0  0  0
   -4.9404   34.1048    8.1127 C   0  0  0  0  0  0  0  0  0  0  0  0
   -3.5728   32.4293    9.1739 C   0  0  0  0  0  0  0  0  0  0  0  0
   -2.1059   32.0712    8.8868 C   0  0  0  0  0  0  0  0  0  0  0  0
   -1.7868   30.6067    9.1974 C   0  0  0  0  0  0  0  0  0  0  0  0
   -0.7269   30.0463    8.3866 N   0  0  0  0  0  0  0  0  0  0  0  0
   -0.7205   29.9398    7.0244 C   0  0  0  0  0  0  0  0  0  0  0  0
    0.4945   29.3714    6.7204 C   0  0  0  0  0  0  0  0  0  0  0  0
    1.2257   29.1487    7.8583 N   0  0  0  0  0  0  0  0  0  0  0  0
    0.4660   29.5663    8.8455 C   0  0  0  0  0  0  0  0  0  0  0  0
 12 13  1  0  0  0
 13 14  2  0  0  0
 14 15  1  0  0  0
 15  8  1  0  0  0
  8  9  1  0  0  0
  9 10  2  0  0  0
  9  1  1  0  0  0
  1  2  1  0  0  0
  2  3  2  0  0  0
  3  4  1  0  0  0
  4  5  2  0  0  0
  5  6  1  0  0  0
  6  7  2  0  0  0
  1 18  1  0  0  0
 18 19  1  0  0  0
 18 20  1  0  0  0
 20 21  1  0  0  0
 21 22  1  0  0  0
 22 23  1  0  0  0
 23 24  1  0  0  0
 24 25  2  0  0  0
 25 26  1  0  0  0
 26 27  2  0  0  0
 15 16  2  0  0  0
 16 17  1  0  0  0
 17 13  1  0  0  0
  7  2  1  0  0  0
 27 23  1  0  0  0
  8 11  1  0  0  0
M  END
> <minimizedAffinity>
-8.04110

$$$$
OCNT-2309518


 28 30  0  0  0  0  0  0  0  0999 V2000
   -3.5638   27.6556    6.1798 N   0  0  0  0  0  0  0  0  0  0  0  0
   -2.9499   26.8201    5.2712 C   0  0  0  0  0  0  0  0  0  0  0  0
   -1.7399   26.7938    5.0574 O   0  0  0  0  0  0  0  0  0  0  0  0
   -3.8183   25.9756    4.5855 N   0  0  0  0  0  0  0  0  0  0  0  0
   -5.2860   26.0036    4.6777 C   0  0  0  0  0  0  0  0  0  0  0  0
   -5.9872   24.9872    3.7563 C   0  0  0  0  0  0  0  0  0  0  0  0
   -5.4946   25.1281    2.3792 N   0  0  0  0  0  0  0  0  0  0  0  0
   -4.0309   25.2382    2.2085 C   0  0  0  0  0  0  0  0  0  0  0  0
   -3.2734   25.0987    3.5440 C   0  0  0  0  0  0  0  0  0  0  0  0
   -4.5091   27.4267    6.4323 H   0  0  0  0  0  0  0  0  0  0  0  0
   -1.0280   31.6971    9.3526 C   0  0  0  0  0  0  0  0  0  0  0  0
   -1.7181   30.6614    8.5081 C   0  0  0  0  0  0  0  0  0  0  0  0
   -1.3098   29.3239    8.5783 C   0  0  0  0  0  0  0  0  0  0  0  0
   -1.9349   28.3517    7.7962 C   0  0  0  0  0  0  0  0  0  0  0  0
   -2.9756   28.6985    6.9300 C   0  0  0  0  0  0  0  0  0  0  0  0
   -3.3916   30.0320    6.8704 C   0  0  0  0  0  0  0  0  0  0  0  0
   -2.7624   31.0201    7.6376 C   0  0  0  0  0  0  0  0  0  0  0  0
   -3.0865   32.3513    7.6312 O   0  0  0  0  0  0  0  0  0  0  0  0
   -4.4648   32.7396    7.6450 C   0  0  0  0  0  0  0  0  0  0  0  0
   -4.7875   33.7003    8.7826 C   0  0  0  0  0  0  0  0  0  0  0  0
   -4.6386   34.9866    8.3744 F   0  0  0  0  0  0  0  0  0  0  0  0
   -3.9616   33.5224    9.8402 F   0  0  0  0  0  0  0  0  0  0  0  0
   -6.2094   24.4369    1.4024 C   0  0  0  0  0  0  0  0  0  0  0  0
   -6.6295   23.1115    1.5840 C   0  0  0  0  0  0  0  0  0  0  0  0
   -7.3194   22.3868    0.6635 N   0  0  0  0  0  0  0  0  0  0  0  0
   -7.5732   23.0349   -0.4886 C   0  0  0  0  0  0  0  0  0  0  0  0
   -7.1589   24.3345   -0.7034 C   0  0  0  0  0  0  0  0  0  0  0  0
   -6.4758   25.0483    0.2239 N   0  0  0  0  0  0  0  0  0  0  0  0
 11 12  1  0  0  0
 12 13  1  0  0  0
 13 14  2  0  0  0
 14 15  1  0  0  0
 15  1  1  0  0  0
  1  2  1  0  0  0
  2  3  2  0  0  0
  2  4  1  0  0  0
  4  5  1  0  0  0
  5  6  1  0  0  0
  6  7  1  0  0  0
  7 23  1  0  0  0
 23 24  2  0  0  0
 24 25  1  0  0  0
 25 26  2  0  0  0
 26 27  1  0  0  0
 27 28  2  0  0  0
  7  8  1  0  0  0
  8  9  1  0  0  0
 15 16  2  0  0  0
 16 17  1  0  0  0
 17 18  1  0  0  0
 18 19  1  0  0  0
 19 20  1  0  0  0
 20 21  1  0  0  0
 20 22  1  0  0  0
 17 12  2  0  0  0
  9  4  1  0  0  0
 28 23  1  0  0  0
  1 10  1  0  0  0
M  END
> <minimizedAffinity>
-9.53214

$$$$
OCNT-2309520


 27 29  0  0  0  0  0  0  0  0999 V2000
   -6.2065   26.8759    5.4172 O   0  0  0  0  0  0  0  0  0  0  0  0
   -5.7264   27.6247    4.5727 C   0  0  0  0  0  0  0  0  0  0  0  0
   -5.0723   28.8059    4.8680 N   0  0  0  0  0  0  0  0  0  0  0  0
   -4.6000   29.2998    4.1197 H   0  0  0  0  0  0  0  0  0  0  0  0
   -4.8322   29.2279    6.2129 C   0  0  0  0  0  0  0  0  0  0  0  0
   -5.8010   30.1221    6.9229 C   0  0  0  0  0  0  0  0  0  0  0  0
   -4.4557   30.6698    6.5086 C   0  0  0  0  0  0  0  0  0  0  0  0
   -3.4023   30.9895    7.5527 C   0  0  0  0  0  0  0  0  0  0  0  0
   -2.1274   30.4002    7.4930 C   0  0  0  0  0  0  0  0  0  0  0  0
   -1.8420   29.5442    6.4986 F   0  0  0  0  0  0  0  0  0  0  0  0
   -1.1250   30.6701    8.4255 C   0  0  0  0  0  0  0  0  0  0  0  0
   -1.3677   31.5659    9.4591 C   0  0  0  0  0  0  0  0  0  0  0  0
   -2.6093   32.1908    9.5430 C   0  0  0  0  0  0  0  0  0  0  0  0
   -3.6077   31.9105    8.5988 C   0  0  0  0  0  0  0  0  0  0  0  0
   -5.1036   32.7689    8.7513 Cl  0  0  0  0  0  0  0  0  0  0  0  0
   -5.7921   27.3560    3.0861 C   0  0  0  0  0  0  0  0  0  0  0  0
   -4.9527   26.1440    2.6964 C   0  0  0  0  0  0  0  0  0  0  0  0
   -5.6759   25.2660    1.6918 C   0  0  0  0  0  0  0  0  0  0  0  0
   -6.2057   25.7559    0.6926 O   0  0  0  0  0  0  0  0  0  0  0  0
   -5.6904   23.8939    1.9462 N   0  0  0  0  0  0  0  0  0  0  0  0
   -5.3825   23.3204    3.2598 C   0  0  0  0  0  0  0  0  0  0  0  0
   -4.8273   21.9034    3.1498 C   0  0  0  0  0  0  0  0  0  0  0  0
   -5.7236   21.0077    2.3025 C   0  0  0  0  0  0  0  0  0  0  0  0
   -6.9486   20.7829    2.9959 O   0  0  0  0  0  0  0  0  0  0  0  0
   -5.9948   21.6448    0.9438 C   0  0  0  0  0  0  0  0  0  0  0  0
   -6.5322   23.0655    1.0848 C   0  0  0  0  0  0  0  0  0  0  0  0
   -7.4610   20.1325    2.4845 H   0  0  0  0  0  0  0  0  0  0  0  0
  1  2  2  0  0  0
  2 16  1  0  0  0
 16 17  1  0  0  0
 17 18  1  0  0  0
 18 19  2  0  0  0
 18 20  1  0  0  0
 20 21  1  0  0  0
 21 22  1  0  0  0
 22 23  1  0  0  0
 23 24  1  0  0  0
 23 25  1  0  0  0
 25 26  1  0  0  0
  2  3  1  0  0  0
  3  5  1  0  0  0
  5  6  1  0  0  0
  6  7  1  0  0  0
  7  8  1  0  0  0
  8  9  2  0  0  0
  9 10  1  0  0  0
  9 11  1  0  0  0
 11 12  2  0  0  0
 12 13  1  0  0  0
 13 14  2  0  0  0
 14 15  1  0  0  0
 26 20  1  0  0  0
  7  5  1  0  0  0
 14  8  1  0  0  0
 24 27  1  0  0  0
  3  4  1  0  0  0
M  END
> <minimizedAffinity>
-9.55644

$$$$
OCNT-2309527


 21 22  0  0  0  0  0  0  0  0999 V2000
   -1.4554   29.2374    7.1637 N   0  0  0  0  0  0  0  0  0  0  0  0
   -2.4329   28.2470    7.3823 C   0  0  0  0  0  0  0  0  0  0  0  0
   -2.1635   27.1126    7.7809 O   0  0  0  0  0  0  0  0  0  0  0  0
   -3.8787   28.5708    7.1404 C   0  0  0  0  0  0  0  0  0  0  0  0
   -4.3331   28.4702    5.8669 N   0  0  0  0  0  0  0  0  0  0  0  0
   -5.6269   28.8129    5.6842 C   0  0  0  0  0  0  0  0  0  0  0  0
   -6.4517   29.2296    6.7027 C   0  0  0  0  0  0  0  0  0  0  0  0
   -7.7288   29.5584    6.4848 F   0  0  0  0  0  0  0  0  0  0  0  0
   -5.8919   29.2862    7.9570 C   0  0  0  0  0  0  0  0  0  0  0  0
   -4.6072   28.9599    8.2123 N   0  0  0  0  0  0  0  0  0  0  0  0
   -0.0448   28.9653    7.5038 C   0  0  0  0  0  0  0  0  0  0  0  0
    0.9041   29.3456    6.3641 C   0  0  0  0  0  0  0  0  0  0  0  0
    0.3908   29.5982    8.8270 C   0  0  0  0  0  0  0  0  0  0  0  0
   -1.7379   30.5081    6.4853 C   0  0  0  0  0  0  0  0  0  0  0  0
   -4.8080   34.2062    9.7898 C   0  0  0  0  0  0  0  0  0  0  0  0
   -4.0356   33.2328    8.9498 C   0  0  0  0  0  0  0  0  0  0  0  0
   -2.8723   32.6348    9.4453 C   0  0  0  0  0  0  0  0  0  0  0  0
   -2.1329   31.7553    8.6503 C   0  0  0  0  0  0  0  0  0  0  0  0
   -2.5361   31.4673    7.3393 C   0  0  0  0  0  0  0  0  0  0  0  0
   -3.6971   32.0763    6.8428 C   0  0  0  0  0  0  0  0  0  0  0  0
   -4.4348   32.9562    7.6382 C   0  0  0  0  0  0  0  0  0  0  0  0
 15 16  1  0  0  0
 16 17  1  0  0  0
 17 18  2  0  0  0
 18 19  1  0  0  0
 19 14  1  0  0  0
 14  1  1  0  0  0
  1  2  1  0  0  0
  2  3  2  0  0  0
  2  4  1  0  0  0
  4  5  2  0  0  0
  5  6  1  0  0  0
  6  7  2  0  0  0
  7  8  1  0  0  0
  7  9  1  0  0  0
  9 10  2  0  0  0
  1 11  1  0  0  0
 11 12  1  0  0  0
 11 13  1  0  0  0
 19 20  2  0  0  0
 20 21  1  0  0  0
 21 16  2  0  0  0
 10  4  1  0  0  0
M  END
> <minimizedAffinity>
-8.19983

$$$$
OCNT-2309539


 25 28  0  0  0  0  0  0  0  0999 V2000
   -6.8594   23.3531    3.9431 C   0  0  0  0  0  0  0  0  0  0  0  0
   -6.8084   22.2351    3.1962 N   0  0  0  0  0  0  0  0  0  0  0  0
   -5.9271   22.2068    2.1903 C   0  0  0  0  0  0  0  0  0  0  0  0
   -5.8932   20.9842    1.3294 C   0  0  0  0  0  0  0  0  0  0  0  0
   -5.0948   23.2096    1.8810 N   0  0  0  0  0  0  0  0  0  0  0  0
   -5.1519   24.3317    2.6356 C   0  0  0  0  0  0  0  0  0  0  0  0
   -6.0558   24.4716    3.6846 C   0  0  0  0  0  0  0  0  0  0  0  0
   -6.1871   25.7078    4.5446 C   0  0  0  0  0  0  0  0  0  0  0  0
   -5.8029   27.0401    3.8936 C   0  0  0  0  0  0  0  0  0  0  0  0
   -4.3674   27.3150    3.8324 N   0  0  0  0  0  0  0  0  0  0  0  0
   -3.5562   26.1899    3.3636 C   0  0  0  0  0  0  0  0  0  0  0  0
   -4.1698   25.3949    2.2111 C   0  0  0  0  0  0  0  0  0  0  0  0
   -4.0293   27.6066    4.7497 H   0  0  0  0  0  0  0  0  0  0  0  0
  -10.0189   22.0722    9.4055 C   0  0  0  0  0  0  0  0  0  0  0  0
   -8.6930   21.6610    9.5318 C   0  0  0  0  0  0  0  0  0  0  0  0
   -7.8083   21.7973    8.4564 C   0  0  0  0  0  0  0  0  0  0  0  0
   -8.2345   22.3508    7.2404 C   0  0  0  0  0  0  0  0  0  0  0  0
   -7.2595   22.4510    6.0802 C   0  0  0  0  0  0  0  0  0  0  0  0
   -7.7496   23.3814    5.0456 N   0  0  0  0  0  0  0  0  0  0  0  0
   -9.1297   23.0621    4.6432 C   0  0  0  0  0  0  0  0  0  0  0  0
  -10.0639   23.3683    5.8186 C   0  0  0  0  0  0  0  0  0  0  0  0
   -9.5778   22.7454    7.1053 C   0  0  0  0  0  0  0  0  0  0  0  0
  -10.4530   22.6147    8.1934 C   0  0  0  0  0  0  0  0  0  0  0  0
  -10.5783   22.3080   11.7039 C   0  0  0  0  0  0  0  0  0  0  0  0
  -10.9805   21.9995   10.3756 O   0  0  0  0  0  0  0  0  0  0  0  0
 24 25  1  0  0  0
 25 14  1  0  0  0
 14 15  1  0  0  0
 15 16  2  0  0  0
 16 17  1  0  0  0
 17 18  1  0  0  0
 18 19  1  0  0  0
 19  1  1  0  0  0
  1  2  1  0  0  0
  2  3  2  0  0  0
  3  4  1  0  0  0
  3  5  1  0  0  0
  5  6  2  0  0  0
  6  7  1  0  0  0
  7  8  1  0  0  0
  8  9  1  0  0  0
  9 10  1  0  0  0
 10 11  1  0  0  0
 11 12  1  0  0  0
 19 20  1  0  0  0
 20 21  1  0  0  0
 21 22  1  0  0  0
 22 23  1  0  0  0
 23 14  2  0  0  0
 22 17  2  0  0  0
  7  1  2  0  0  0
 12  6  1  0  0  0
 10 13  1  0  0  0
M  END
> <minimizedAffinity>
-8.81904

$$$$
OCNT-2309546


 30 34  0  0  0  0  0  0  0  0999 V2000
   -4.4945   25.3109    3.9616 C   0  0  0  0  0  0  0  0  0  0  0  0
   -3.9764   24.3458    3.0719 C   0  0  0  0  0  0  0  0  0  0  0  0
   -4.3386   24.3335    1.7231 C   0  0  0  0  0  0  0  0  0  0  0  0
   -5.2150   25.2927    1.2356 C   0  0  0  0  0  0  0  0  0  0  0  0
   -5.7158   26.2730    2.0928 C   0  0  0  0  0  0  0  0  0  0  0  0
   -5.3607   26.3119    3.4578 C   0  0  0  0  0  0  0  0  0  0  0  0
   -5.9104   27.3923    4.2953 C   0  0  0  0  0  0  0  0  0  0  0  0
   -5.8342   28.7347    3.8935 C   0  0  0  0  0  0  0  0  0  0  0  0
   -6.3415   29.7592    4.7000 C   0  0  0  0  0  0  0  0  0  0  0  0
   -6.9452   29.4650    5.9281 C   0  0  0  0  0  0  0  0  0  0  0  0
   -7.0599   28.1214    6.3140 C   0  0  0  0  0  0  0  0  0  0  0  0
   -6.5405   27.1013    5.5125 C   0  0  0  0  0  0  0  0  0  0  0  0
   -7.5016   30.5773    6.7876 C   0  0  0  0  0  0  0  0  0  0  0  0
   -6.5801   30.9797    7.8431 N   0  0  0  0  0  0  0  0  0  0  0  0
   -5.7715   32.0848    7.8495 C   0  0  0  0  0  0  0  0  0  0  0  0
   -5.0796   32.0421    9.0363 C   0  0  0  0  0  0  0  0  0  0  0  0
   -5.5533   30.8870    9.6856 C   0  0  0  0  0  0  0  0  0  0  0  0
   -6.4734   30.2380    8.9686 N   0  0  0  0  0  0  0  0  0  0  0  0
   -4.0516   25.2770    5.4120 C   0  0  0  0  0  0  0  0  0  0  0  0
   -3.4666   29.2460    7.0047 C   0  0  0  0  0  0  0  0  0  0  0  0
   -2.0010   28.9358    6.9317 C   0  0  0  0  0  0  0  0  0  0  0  0
   -1.0413   30.1486    6.5791 C   0  0  0  0  0  0  0  0  0  0  0  0
    0.0038   29.1302    7.1344 C   0  0  0  0  0  0  0  0  0  0  0  0
   -0.0413   27.9413    6.1664 C   0  0  0  0  0  0  0  0  0  0  0  0
   -1.5023   27.8272    6.0644 N   0  0  0  0  0  0  0  0  0  0  0  0
   -2.0423   26.6297    5.6559 C   0  0  0  0  0  0  0  0  0  0  0  0
   -1.3501   25.7163    5.2098 O   0  0  0  0  0  0  0  0  0  0  0  0
   -3.3917   26.5057    5.8074 N   0  0  0  0  0  0  0  0  0  0  0  0
   -1.0975   28.8532    8.2238 C   0  0  0  0  0  0  0  0  0  0  0  0
   -3.9073   27.3425    5.5974 H   0  0  0  0  0  0  0  0  0  0  0  0
 20 21  1  0  0  0
 21 22  1  0  0  0
 22 23  1  0  0  0
 23 24  1  0  0  0
 24 25  1  0  0  0
 25 26  1  0  0  0
 26 27  2  0  0  0
 26 28  1  0  0  0
 28 19  1  0  0  0
 19  1  1  0  0  0
  1  2  2  0  0  0
  2  3  1  0  0  0
  3  4  2  0  0  0
  4  5  1  0  0  0
  5  6  2  0  0  0
  6  7  1  0  0  0
  7  8  1  0  0  0
  8  9  2  0  0  0
  9 10  1  0  0  0
 10 13  1  0  0  0
 13 14  1  0  0  0
 14 15  1  0  0  0
 15 16  2  0  0  0
 16 17  1  0  0  0
 17 18  2  0  0  0
 10 11  2  0  0  0
 11 12  1  0  0  0
 23 29  1  0  0  0
 25 21  1  0  0  0
  6  1  1  0  0  0
 12  7  2  0  0  0
 29 21  1  0  0  0
 18 14  1  0  0  0
 28 30  1  0  0  0
M  END
> <minimizedAffinity>
-9.75947

$$$$
OCNT-2309549


 25 27  0  0  0  0  0  0  0  0999 V2000
   -2.9245   26.4414    4.7981 C   0  0  0  0  0  0  0  0  0  0  0  0
   -1.5768   26.0948    4.6561 C   0  0  0  0  0  0  0  0  0  0  0  0
   -0.5958   26.6106    5.5149 C   0  0  0  0  0  0  0  0  0  0  0  0
   -0.9728   27.4942    6.5418 C   0  0  0  0  0  0  0  0  0  0  0  0
   -0.2601   28.1815    7.5613 C   0  0  0  0  0  0  0  0  0  0  0  0
   -1.1692   28.9179    8.2856 C   0  0  0  0  0  0  0  0  0  0  0  0
   -2.4107   28.7031    7.7443 N   0  0  0  0  0  0  0  0  0  0  0  0
   -2.3196   27.8352    6.6740 C   0  0  0  0  0  0  0  0  0  0  0  0
   -3.3099   27.3200    5.8156 C   0  0  0  0  0  0  0  0  0  0  0  0
   -4.8470   24.9582    4.1720 C   0  0  0  0  0  0  0  0  0  0  0  0
   -5.1834   24.5451    5.2753 O   0  0  0  0  0  0  0  0  0  0  0  0
   -3.8346   25.8582    3.8893 N   0  0  0  0  0  0  0  0  0  0  0  0
   -3.7688   26.1883    2.9358 H   0  0  0  0  0  0  0  0  0  0  0  0
   -7.8038   23.2527   -0.5151 C   0  0  0  0  0  0  0  0  0  0  0  0
   -7.0223   23.6687    0.6968 C   0  0  0  0  0  0  0  0  0  0  0  0
   -7.1827   22.9887    1.9110 C   0  0  0  0  0  0  0  0  0  0  0  0
   -6.4816   23.3951    3.0499 C   0  0  0  0  0  0  0  0  0  0  0  0
   -5.6124   24.4907    2.9817 C   0  0  0  0  0  0  0  0  0  0  0  0
   -5.4753   25.1934    1.7801 C   0  0  0  0  0  0  0  0  0  0  0  0
   -6.1765   24.7834    0.6439 C   0  0  0  0  0  0  0  0  0  0  0  0
   -3.6402   29.3196    8.2267 C   0  0  0  0  0  0  0  0  0  0  0  0
   -3.3540   30.5278    9.1297 C   0  0  0  0  0  0  0  0  0  0  0  0
   -3.4521   31.8253    8.4271 N   0  0  0  0  0  0  0  0  0  0  0  0
   -2.1301   32.4575    8.3675 C   0  0  0  0  0  0  0  0  0  0  0  0
   -4.3930   32.7290    9.0983 C   0  0  0  0  0  0  0  0  0  0  0  0
 14 15  1  0  0  0
 15 16  1  0  0  0
 16 17  2  0  0  0
 17 18  1  0  0  0
 18 10  1  0  0  0
 10 11  2  0  0  0
 10 12  1  0  0  0
 12  1  1  0  0  0
  1  2  2  0  0  0
  2  3  1  0  0  0
  3  4  2  0  0  0
  4  5  1  0  0  0
  5  6  2  0  0  0
  6  7  1  0  0  0
  7 21  1  0  0  0
 21 22  1  0  0  0
 22 23  1  0  0  0
 23 24  1  0  0  0
 23 25  1  0  0  0
  7  8  1  0  0  0
  8  9  2  0  0  0
 18 19  2  0  0  0
 19 20  1  0  0  0
 20 15  2  0  0  0
  9  1  1  0  0  0
  8  4  1  0  0  0
 12 13  1  0  0  0
M  END
> <minimizedAffinity>
-9.03932

$$$$
OCNT-2309554


 26 28  0  0  0  0  0  0  0  0999 V2000
   -4.4941   26.7118    5.6673 N   0  0  0  0  0  0  0  0  0  0  0  0
   -4.5392   27.4000    6.4205 H   0  0  0  0  0  0  0  0  0  0  0  0
   -5.6077   26.9688    4.7429 C   0  0  0  0  0  0  0  0  0  0  0  0
   -6.1310   24.5568    4.0548 C   0  0  0  0  0  0  0  0  0  0  0  0
   -6.2790   23.5828    3.0527 C   0  0  0  0  0  0  0  0  0  0  0  0
   -6.0999   23.9115    1.7049 C   0  0  0  0  0  0  0  0  0  0  0  0
   -5.7680   25.2253    1.3726 C   0  0  0  0  0  0  0  0  0  0  0  0
   -5.5878   25.5732    0.0895 F   0  0  0  0  0  0  0  0  0  0  0  0
   -5.6145   26.2005    2.3515 C   0  0  0  0  0  0  0  0  0  0  0  0
   -5.7928   25.8796    3.7069 C   0  0  0  0  0  0  0  0  0  0  0  0
   -5.9636   23.0094    5.8716 C   0  0  0  0  0  0  0  0  0  0  0  0
   -6.2790   24.3116    5.3951 O   0  0  0  0  0  0  0  0  0  0  0  0
   -6.2171   23.0472    0.6499 O   0  0  0  0  0  0  0  0  0  0  0  0
   -7.5277   22.7272    0.2040 C   0  0  0  0  0  0  0  0  0  0  0  0
   -3.1706   26.8050    5.0251 C   0  0  0  0  0  0  0  0  0  0  0  0
   -2.0075   26.1564    5.8218 C   0  0  0  0  0  0  0  0  0  0  0  0
   -0.6588   26.7671    5.4833 C   0  0  0  0  0  0  0  0  0  0  0  0
   -0.6108   27.9865    6.3784 C   0  0  0  0  0  0  0  0  0  0  0  0
   -1.4037   27.5543    7.6055 C   0  0  0  0  0  0  0  0  0  0  0  0
   -2.1654   26.3888    7.2344 O   0  0  0  0  0  0  0  0  0  0  0  0
   -2.3584   28.5901    8.0800 C   0  0  0  0  0  0  0  0  0  0  0  0
   -2.1419   29.8723    8.2971 N   0  0  0  0  0  0  0  0  0  0  0  0
   -3.3648   30.3275    8.7028 C   0  0  0  0  0  0  0  0  0  0  0  0
   -4.3346   29.4116    8.7412 N   0  0  0  0  0  0  0  0  0  0  0  0
   -3.6704   28.3092    8.3510 N   0  0  0  0  0  0  0  0  0  0  0  0
   -4.1461   27.4125    8.2538 H   0  0  0  0  0  0  0  0  0  0  0  0
 11 12  1  0  0  0
 12  4  1  0  0  0
  4  5  1  0  0  0
  5  6  2  0  0  0
  6 13  1  0  0  0
 13 14  1  0  0  0
  6  7  1  0  0  0
  7  8  1  0  0  0
  7  9  2  0  0  0
  9 10  1  0  0  0
 10  3  1  0  0  0
  3  1  1  0  0  0
  1 15  1  0  0  0
 15 16  1  0  0  0
 16 17  1  0  0  0
 17 18  1  0  0  0
 18 19  1  0  0  0
 19 21  1  0  0  0
 21 22  2  0  0  0
 22 23  1  0  0  0
 23 24  2  0  0  0
 24 25  1  0  0  0
 19 20  1  0  0  0
 10  4  2  0  0  0
 20 16  1  0  0  0
 25 21  1  0  0  0
  1  2  1  0  0  0
 25 26  1  0  0  0
M  END
> <minimizedAffinity>
-7.74091

$$$$
OCNT-2309565


 24 26  0  0  0  0  0  0  0  0999 V2000
   -4.6311   28.6203    6.5322 C   0  0  0  0  0  0  0  0  0  0  0  0
   -1.2930   30.6240    8.1919 N   0  0  0  0  0  0  0  0  0  0  0  0
   -1.7073   31.1311    6.8823 C   0  0  0  0  0  0  0  0  0  0  0  0
   -3.0945   30.6508    6.4600 C   0  0  0  0  0  0  0  0  0  0  0  0
   -3.1762   29.1117    6.4188 C   0  0  0  0  0  0  0  0  0  0  0  0
   -2.2943   28.4767    7.5129 C   0  0  0  0  0  0  0  0  0  0  0  0
   -2.0199   29.4458    8.6627 C   0  0  0  0  0  0  0  0  0  0  0  0
   -1.1210   31.6613    9.2192 C   0  0  0  0  0  0  0  0  0  0  0  0
   -2.3355   31.9425   10.1217 C   0  0  0  0  0  0  0  0  0  0  0  0
   -5.0946   34.3414    8.1851 C   0  0  0  0  0  0  0  0  0  0  0  0
   -4.1191   33.4940    8.8717 C   0  0  0  0  0  0  0  0  0  0  0  0
   -3.3176   32.7985    9.4346 C   0  0  0  0  0  0  0  0  0  0  0  0
   -5.0905   27.9303    5.3022 C   0  0  0  0  0  0  0  0  0  0  0  0
   -4.8977   26.6910    4.9157 N   0  0  0  0  0  0  0  0  0  0  0  0
   -5.5507   26.6536    3.6936 C   0  0  0  0  0  0  0  0  0  0  0  0
   -6.1177   27.8248    3.3527 N   0  0  0  0  0  0  0  0  0  0  0  0
   -5.8149   28.6680    4.4167 O   0  0  0  0  0  0  0  0  0  0  0  0
   -5.6004   25.4400    2.8709 C   0  0  0  0  0  0  0  0  0  0  0  0
   -5.7565   25.5361    1.4855 C   0  0  0  0  0  0  0  0  0  0  0  0
   -5.8017   24.3677    0.7243 C   0  0  0  0  0  0  0  0  0  0  0  0
   -5.6904   23.1456    1.3668 C   0  0  0  0  0  0  0  0  0  0  0  0
   -5.7299   22.0067    0.6652 F   0  0  0  0  0  0  0  0  0  0  0  0
   -5.5381   23.1247    2.7408 C   0  0  0  0  0  0  0  0  0  0  0  0
   -5.4907   24.2407    3.5071 N   0  0  0  0  0  0  0  0  0  0  0  0
 10 11  1  0  0  0
 11 12  3  0  0  0
 12  9  1  0  0  0
  9  8  1  0  0  0
  8  2  1  0  0  0
  2  3  1  0  0  0
  3  4  1  0  0  0
  4  5  1  0  0  0
  5  1  1  0  0  0
  1 13  1  0  0  0
 13 14  2  0  0  0
 14 15  1  0  0  0
 15 18  1  0  0  0
 18 19  2  0  0  0
 19 20  1  0  0  0
 20 21  2  0  0  0
 21 22  1  0  0  0
 21 23  1  0  0  0
 23 24  2  0  0  0
 15 16  2  0  0  0
 16 17  1  0  0  0
  5  6  1  0  0  0
  6  7  1  0  0  0
  7  2  1  0  0  0
 17 13  1  0  0  0
 24 18  1  0  0  0
M  END
> <minimizedAffinity>
-8.67039

$$$$
OCNT-2309567


 28 32  0  0  0  0  0  0  0  0999 V2000
   -3.3928   26.4748    4.9119 C   0  0  0  0  0  0  0  0  0  0  0  0
   -3.9828   25.1708    5.4599 C   0  0  0  0  0  0  0  0  0  0  0  0
   -5.1568   24.6978    4.6044 C   0  0  0  0  0  0  0  0  0  0  0  0
   -4.8477   24.7325    3.1683 N   0  0  0  0  0  0  0  0  0  0  0  0
   -3.4651   25.0432    2.7961 C   0  0  0  0  0  0  0  0  0  0  0  0
   -3.0583   26.3810    3.4125 C   0  0  0  0  0  0  0  0  0  0  0  0
   -2.8508   29.7945    8.2654 C   0  0  0  0  0  0  0  0  0  0  0  0
   -1.5386   29.8599    8.7292 C   0  0  0  0  0  0  0  0  0  0  0  0
   -0.5482   29.0108    8.2190 C   0  0  0  0  0  0  0  0  0  0  0  0
   -0.9183   28.0949    7.2280 C   0  0  0  0  0  0  0  0  0  0  0  0
   -0.1633   27.1580    6.5647 N   0  0  0  0  0  0  0  0  0  0  0  0
   -0.9385   26.4732    5.6703 C   0  0  0  0  0  0  0  0  0  0  0  0
   -2.2300   26.9627    5.7410 C   0  0  0  0  0  0  0  0  0  0  0  0
   -2.2196   27.9990    6.7359 C   0  0  0  0  0  0  0  0  0  0  0  0
   -3.1945   28.8675    7.2714 C   0  0  0  0  0  0  0  0  0  0  0  0
    0.8227   27.0015    6.7208 H   0  0  0  0  0  0  0  0  0  0  0  0
   -4.9290   29.9214    9.4176 C   0  0  0  0  0  0  0  0  0  0  0  0
   -3.8933   30.5730    8.6937 O   0  0  0  0  0  0  0  0  0  0  0  0
   -5.4310   23.6960    2.4240 C   0  0  0  0  0  0  0  0  0  0  0  0
   -5.3045   22.4052    2.8456 N   0  0  0  0  0  0  0  0  0  0  0  0
   -5.8701   21.4095    2.1330 C   0  0  0  0  0  0  0  0  0  0  0  0
   -6.5762   21.5035    0.9948 N   0  0  0  0  0  0  0  0  0  0  0  0
   -6.6590   22.7797    0.5925 C   0  0  0  0  0  0  0  0  0  0  0  0
   -6.1327   23.8940    1.2195 C   0  0  0  0  0  0  0  0  0  0  0  0
   -6.4812   24.9594    0.3592 C   0  0  0  0  0  0  0  0  0  0  0  0
   -7.1962   24.5681   -0.7035 N   0  0  0  0  0  0  0  0  0  0  0  0
   -7.2826   23.2323   -0.5334 N   0  0  0  0  0  0  0  0  0  0  0  0
   -7.7745   22.6761   -1.2215 H   0  0  0  0  0  0  0  0  0  0  0  0
 17 18  1  0  0  0
 18  7  1  0  0  0
  7  8  2  0  0  0
  8  9  1  0  0  0
  9 10  2  0  0  0
 10 11  1  0  0  0
 11 12  1  0  0  0
 12 13  2  0  0  0
 13  1  1  0  0  0
  1  2  1  0  0  0
  2  3  1  0  0  0
  3  4  1  0  0  0
  4 19  1  0  0  0
 19 20  1  0  0  0
 20 21  2  0  0  0
 21 22  1  0  0  0
 22 23  2  0  0  0
 23 24  1  0  0  0
 24 25  1  0  0  0
 25 26  2  0  0  0
 26 27  1  0  0  0
  4  5  1  0  0  0
  5  6  1  0  0  0
 13 14  1  0  0  0
 14 15  2  0  0  0
 15  7  1  0  0  0
 14 10  1  0  0  0
  6  1  1  0  0  0
 24 19  2  0  0  0
 27 23  1  0  0  0
 11 16  1  0  0  0
 27 28  1  0  0  0
M  END
> <minimizedAffinity>
-9.54510

$$$$
OCNT-2309576


 24 27  0  0  0  0  0  0  0  0999 V2000
   -4.2538   30.7903    5.1292 O   0  0  0  0  0  0  0  0  0  0  0  0
   -4.6355   29.8786    5.8736 C   0  0  0  0  0  0  0  0  0  0  0  0
   -5.6709   29.0320    5.4931 N   0  0  0  0  0  0  0  0  0  0  0  0
   -5.9913   27.7363    6.0941 C   0  0  0  0  0  0  0  0  0  0  0  0
   -5.5327   26.5992    5.1820 C   0  0  0  0  0  0  0  0  0  0  0  0
   -6.1060   26.7674    3.7631 C   0  0  0  0  0  0  0  0  0  0  0  0
   -5.8180   28.1730    3.2042 C   0  0  0  0  0  0  0  0  0  0  0  0
   -6.2927   29.2408    4.1861 C   0  0  0  0  0  0  0  0  0  0  0  0
   -3.9517   29.7269    7.2427 C   0  0  0  0  0  0  0  0  0  0  0  0
   -2.6237   28.9714    7.0857 C   0  0  0  0  0  0  0  0  0  0  0  0
   -1.8600   28.8868    8.3921 C   0  0  0  0  0  0  0  0  0  0  0  0
   -1.2866   30.5368    8.8713 S   0  0  0  0  0  0  0  0  0  0  0  0
   -2.8305   31.4298    8.8096 C   0  0  0  0  0  0  0  0  0  0  0  0
   -2.8971   32.6238    9.5433 C   0  0  0  0  0  0  0  0  0  0  0  0
   -4.0714   33.3746    9.5863 C   0  0  0  0  0  0  0  0  0  0  0  0
   -5.1962   32.9343    8.9011 C   0  0  0  0  0  0  0  0  0  0  0  0
   -5.1376   31.7559    8.1576 C   0  0  0  0  0  0  0  0  0  0  0  0
   -3.9480   31.0015    8.0737 C   0  0  0  0  0  0  0  0  0  0  0  0
   -5.6298   25.6754    2.8288 C   0  0  0  0  0  0  0  0  0  0  0  0
   -4.9911   24.5387    3.2939 C   0  0  0  0  0  0  0  0  0  0  0  0
   -4.6075   23.6175    2.3446 C   0  0  0  0  0  0  0  0  0  0  0  0
   -4.8225   23.7735    1.0272 N   0  0  0  0  0  0  0  0  0  0  0  0
   -5.4476   24.9059    0.6771 C   0  0  0  0  0  0  0  0  0  0  0  0
   -5.8653   25.8704    1.5130 N   0  0  0  0  0  0  0  0  0  0  0  0
  1  2  2  0  0  0
  2  9  1  0  0  0
  9 10  1  0  0  0
 10 11  1  0  0  0
 11 12  1  0  0  0
 12 13  1  0  0  0
 13 14  2  0  0  0
 14 15  1  0  0  0
 15 16  2  0  0  0
 16 17  1  0  0  0
 17 18  2  0  0  0
  2  3  1  0  0  0
  3  4  1  0  0  0
  4  5  1  0  0  0
  5  6  1  0  0  0
  6 19  1  0  0  0
 19 20  1  0  0  0
 20 21  2  0  0  0
 21 22  1  0  0  0
 22 23  2  0  0  0
 23 24  1  0  0  0
  6  7  1  0  0  0
  7  8  1  0  0  0
 18  9  1  0  0  0
  8  3  1  0  0  0
 18 13  1  0  0  0
 24 19  2  0  0  0
M  END
> <minimizedAffinity>
-8.76363

$$$$
OCNT-2309577


 26 28  0  0  0  0  0  0  0  0999 V2000
   -4.8034   26.9923    3.3092 C   0  0  0  0  0  0  0  0  0  0  0  0
   -5.1166   26.4520    4.7152 C   0  0  0  0  0  0  0  0  0  0  0  0
   -3.9143   26.7472    5.6608 C   0  0  0  0  0  0  0  0  0  0  0  0
   -3.7615   28.2234    6.0270 C   0  0  0  0  0  0  0  0  0  0  0  0
   -5.0352   28.7203    6.5632 N   0  0  0  0  0  0  0  0  0  0  0  0
   -6.1760   28.5905    5.6512 C   0  0  0  0  0  0  0  0  0  0  0  0
   -6.3797   27.1132    5.3142 C   0  0  0  0  0  0  0  0  0  0  0  0
   -4.9392   29.9579    7.2235 C   0  0  0  0  0  0  0  0  0  0  0  0
   -4.3130   30.9903    6.4998 C   0  0  0  0  0  0  0  0  0  0  0  0
   -4.1531   32.2687    7.0377 C   0  0  0  0  0  0  0  0  0  0  0  0
   -4.6223   32.5368    8.3170 C   0  0  0  0  0  0  0  0  0  0  0  0
   -4.4296   34.1083    8.9881 Cl  0  0  0  0  0  0  0  0  0  0  0  0
   -5.2493   31.5396    9.0591 C   0  0  0  0  0  0  0  0  0  0  0  0
   -5.4120   30.2515    8.5203 C   0  0  0  0  0  0  0  0  0  0  0  0
   -6.0727   29.2753    9.3368 C   0  0  0  0  0  0  0  0  0  0  0  0
   -6.6086   28.4932   10.0076 N   0  0  0  0  0  0  0  0  0  0  0  0
   -5.3094   24.9169    4.6647 C   0  0  0  0  0  0  0  0  0  0  0  0
   -4.8937   24.1869    5.5694 O   0  0  0  0  0  0  0  0  0  0  0  0
   -5.9768   24.3609    3.6050 N   0  0  0  0  0  0  0  0  0  0  0  0
   -6.0520   22.9330    3.3019 C   0  0  0  0  0  0  0  0  0  0  0  0
   -6.7901   23.3557    2.0230 C   0  0  0  0  0  0  0  0  0  0  0  0
   -6.1562   24.7451    2.2143 C   0  0  0  0  0  0  0  0  0  0  0  0
   -6.4160   22.6430    0.7502 C   0  0  0  0  0  0  0  0  0  0  0  0
   -7.3844   22.9183   -0.3770 C   0  0  0  0  0  0  0  0  0  0  0  0
   -6.3440   21.3066    0.9700 F   0  0  0  0  0  0  0  0  0  0  0  0
   -5.1730   23.0459    0.3821 F   0  0  0  0  0  0  0  0  0  0  0  0
  1  2  1  0  0  0
  2 17  1  0  0  0
 17 18  2  0  0  0
 17 19  1  0  0  0
 19 20  1  0  0  0
 20 21  1  0  0  0
 21 23  1  0  0  0
 23 24  1  0  0  0
 23 25  1  0  0  0
 23 26  1  0  0  0
 21 22  1  0  0  0
  2  3  1  0  0  0
  3  4  1  0  0  0
  4  5  1  0  0  0
  5  8  1  0  0  0
  8  9  1  0  0  0
  9 10  2  0  0  0
 10 11  1  0  0  0
 11 12  1  0  0  0
 11 13  2  0  0  0
 13 14  1  0  0  0
 14 15  1  0  0  0
 15 16  3  0  0  0
  5  6  1  0  0  0
  6  7  1  0  0  0
  7  2  1  0  0  0
 22 19  1  0  0  0
 14  8  2  0  0  0
M  END
> <minimizedAffinity>
-9.04476

$$$$
OCNT-2309578


 26 29  0  0  0  0  0  0  0  0999 V2000
   -1.6500   29.3018    8.3064 C   0  0  0  0  0  0  0  0  0  0  0  0
   -0.7956   30.3786    9.0140 C   0  0  0  0  0  0  0  0  0  0  0  0
    0.6115   29.8044    8.9857 C   0  0  0  0  0  0  0  0  0  0  0  0
    0.6657   29.1473    7.6189 C   0  0  0  0  0  0  0  0  0  0  0  0
   -0.6748   28.6195    7.4258 N   0  0  0  0  0  0  0  0  0  0  0  0
   -0.8338   27.4667    6.6819 C   0  0  0  0  0  0  0  0  0  0  0  0
    0.0868   27.0229    5.9897 O   0  0  0  0  0  0  0  0  0  0  0  0
   -2.8328   29.9553    7.5472 C   0  0  0  0  0  0  0  0  0  0  0  0
   -4.8149   31.3146    8.4244 C   0  0  0  0  0  0  0  0  0  0  0  0
   -5.9732   31.3977    9.2042 C   0  0  0  0  0  0  0  0  0  0  0  0
   -6.4418   30.2846    9.9036 C   0  0  0  0  0  0  0  0  0  0  0  0
   -5.7640   29.0759    9.8217 C   0  0  0  0  0  0  0  0  0  0  0  0
   -4.6094   28.9821    9.0492 C   0  0  0  0  0  0  0  0  0  0  0  0
   -4.1075   30.1011    8.3606 C   0  0  0  0  0  0  0  0  0  0  0  0
   -4.7905   33.6558    7.9622 C   0  0  0  0  0  0  0  0  0  0  0  0
   -4.2946   32.3501    7.6956 O   0  0  0  0  0  0  0  0  0  0  0  0
   -2.1654   26.7353    6.7406 C   0  0  0  0  0  0  0  0  0  0  0  0
   -2.7927   26.5751    5.3988 C   0  0  0  0  0  0  0  0  0  0  0  0
   -3.9709   27.1210    4.9277 C   0  0  0  0  0  0  0  0  0  0  0  0
   -4.9870   27.9580    5.4779 C   0  0  0  0  0  0  0  0  0  0  0  0
   -6.0341   28.3190    4.7147 C   0  0  0  0  0  0  0  0  0  0  0  0
   -6.1611   27.8836    3.3381 C   0  0  0  0  0  0  0  0  0  0  0  0
   -5.2059   27.0968    2.8206 C   0  0  0  0  0  0  0  0  0  0  0  0
   -4.1138   26.7110    3.5991 N   0  0  0  0  0  0  0  0  0  0  0  0
   -3.0734   25.9264    3.2166 N   0  0  0  0  0  0  0  0  0  0  0  0
   -2.2973   25.8448    4.2971 C   0  0  0  0  0  0  0  0  0  0  0  0
 15 16  1  0  0  0
 16  9  1  0  0  0
  9 10  2  0  0  0
 10 11  1  0  0  0
 11 12  2  0  0  0
 12 13  1  0  0  0
 13 14  2  0  0  0
 14  8  1  0  0  0
  8  1  1  0  0  0
  1  2  1  0  0  0
  2  3  1  0  0  0
  3  4  1  0  0  0
  4  5  1  0  0  0
  5  6  1  0  0  0
  6  7  2  0  0  0
  6 17  1  0  0  0
 17 18  1  0  0  0
 18 19  2  0  0  0
 19 20  1  0  0  0
 20 21  2  0  0  0
 21 22  1  0  0  0
 22 23  2  0  0  0
 23 24  1  0  0  0
 24 25  1  0  0  0
 25 26  2  0  0  0
 14  9  1  0  0  0
  5  1  1  0  0  0
 26 18  1  0  0  0
 24 19  1  0  0  0
M  END
> <minimizedAffinity>
-9.19174

$$$$
OCNT-2309581


 21 23  0  0  0  0  0  0  0  0999 V2000
   -6.6959   22.2064    2.1343 C   0  0  0  0  0  0  0  0  0  0  0  0
   -6.3275   21.1021    1.7455 O   0  0  0  0  0  0  0  0  0  0  0  0
   -7.1739   22.4473    3.4196 N   0  0  0  0  0  0  0  0  0  0  0  0
   -7.3088   23.8023    4.0014 C   0  0  0  0  0  0  0  0  0  0  0  0
   -7.4807   23.7916    5.5284 C   0  0  0  0  0  0  0  0  0  0  0  0
   -8.5018   22.8257    5.8923 N   0  0  0  0  0  0  0  0  0  0  0  0
   -9.8362   23.1965    6.0300 C   0  0  0  0  0  0  0  0  0  0  0  0
  -10.2605   24.3161    6.2594 O   0  0  0  0  0  0  0  0  0  0  0  0
  -10.6743   21.9637    5.8118 C   0  0  0  0  0  0  0  0  0  0  0  0
   -9.7757   21.1435    4.8921 C   0  0  0  0  0  0  0  0  0  0  0  0
   -8.3755   21.4642    5.4013 C   0  0  0  0  0  0  0  0  0  0  0  0
   -7.2714   21.3033    4.3405 C   0  0  0  0  0  0  0  0  0  0  0  0
   -5.4695   24.1869    1.1869 C   0  0  0  0  0  0  0  0  0  0  0  0
   -5.4234   25.2340    0.2480 C   0  0  0  0  0  0  0  0  0  0  0  0
   -6.4623   25.4229   -0.6664 C   0  0  0  0  0  0  0  0  0  0  0  0
   -7.5582   24.5637   -0.6700 C   0  0  0  0  0  0  0  0  0  0  0  0
   -7.6225   23.5177    0.2485 C   0  0  0  0  0  0  0  0  0  0  0  0
   -6.5949   23.3405    1.1862 C   0  0  0  0  0  0  0  0  0  0  0  0
   -4.3049   23.9936    2.1339 C   0  0  0  0  0  0  0  0  0  0  0  0
   -3.4271   26.2774    3.1051 N   0  0  0  0  0  0  0  0  0  0  0  0
   -3.8161   25.2584    2.7058 C   0  0  0  0  0  0  0  0  0  0  0  0
 20 21  3  0  0  0
 21 19  1  0  0  0
 19 13  1  0  0  0
 13 14  2  0  0  0
 14 15  1  0  0  0
 15 16  2  0  0  0
 16 17  1  0  0  0
 17 18  2  0  0  0
 18  1  1  0  0  0
  1  2  2  0  0  0
  1  3  1  0  0  0
  3  4  1  0  0  0
  4  5  1  0  0  0
  5  6  1  0  0  0
  6  7  1  0  0  0
  7  8  2  0  0  0
  7  9  1  0  0  0
  9 10  1  0  0  0
 10 11  1  0  0  0
 11 12  1  0  0  0
 18 13  1  0  0  0
 12  3  1  0  0  0
 11  6  1  0  0  0
M  END
> <minimizedAffinity>
-7.76175

$$$$
OCNT-2309582


 23 24  0  0  0  0  0  0  0  0999 V2000
   -2.3722   28.1256    6.7180 C   0  0  0  0  0  0  0  0  0  0  0  0
   -1.3865   27.6709    6.1462 O   0  0  0  0  0  0  0  0  0  0  0  0
   -3.7019   27.9131    6.3956 N   0  0  0  0  0  0  0  0  0  0  0  0
   -4.3268   28.4609    6.9774 H   0  0  0  0  0  0  0  0  0  0  0  0
   -4.2585   27.1314    5.3621 C   0  0  0  0  0  0  0  0  0  0  0  0
   -3.8342   25.8140    5.1394 C   0  0  0  0  0  0  0  0  0  0  0  0
   -4.4134   25.0260    4.1442 C   0  0  0  0  0  0  0  0  0  0  0  0
   -5.4338   25.5420    3.3603 C   0  0  0  0  0  0  0  0  0  0  0  0
   -5.8679   26.8512    3.5633 C   0  0  0  0  0  0  0  0  0  0  0  0
   -5.2851   27.6777    4.5472 C   0  0  0  0  0  0  0  0  0  0  0  0
   -5.7882   29.1109    4.7244 C   0  0  0  0  0  0  0  0  0  0  0  0
   -6.2148   29.8144    3.4275 C   0  0  0  0  0  0  0  0  0  0  0  0
   -6.9362   29.1484    5.7370 C   0  0  0  0  0  0  0  0  0  0  0  0
   -2.2236   28.9915    7.9803 C   0  0  0  0  0  0  0  0  0  0  0  0
   -3.5698   32.5974    7.9876 C   0  0  0  0  0  0  0  0  0  0  0  0
   -3.6208   31.8752    9.3364 C   0  0  0  0  0  0  0  0  0  0  0  0
   -2.2932   31.3507    9.8791 C   0  0  0  0  0  0  0  0  0  0  0  0
   -1.1732   31.0535    8.8814 C   0  0  0  0  0  0  0  0  0  0  0  0
   -1.4751   30.2394    7.6995 N   0  0  0  0  0  0  0  0  0  0  0  0
   -2.0636   31.0215    6.6110 C   0  0  0  0  0  0  0  0  0  0  0  0
   -3.4553   31.6102    6.8211 C   0  0  0  0  0  0  0  0  0  0  0  0
   -4.8392   34.5858    8.3628 C   0  0  0  0  0  0  0  0  0  0  0  0
   -4.8189   33.2838    7.7910 O   0  0  0  0  0  0  0  0  0  0  0  0
 22 23  1  0  0  0
 23 15  1  0  0  0
 15 16  1  0  0  0
 16 17  1  0  0  0
 17 18  1  0  0  0
 18 19  1  0  0  0
 19 14  1  0  0  0
 14  1  1  0  0  0
  1  2  2  0  0  0
  1  3  1  0  0  0
  3  5  1  0  0  0
  5  6  2  0  0  0
  6  7  1  0  0  0
  7  8  2  0  0  0
  8  9  1  0  0  0
  9 10  2  0  0  0
 10 11  1  0  0  0
 11 12  1  0  0  0
 11 13  1  0  0  0
 19 20  1  0  0  0
 20 21  1  0  0  0
 21 15  1  0  0  0
 10  5  1  0  0  0
  3  4  1  0  0  0
M  END
> <minimizedAffinity>
-8.28401

$$$$
OCNT-2309589


 28 29  0  0  0  0  0  0  0  0999 V2000
   -5.3112   28.3638    6.4297 N   0  0  0  0  0  0  0  0  0  0  0  0
   -4.5487   27.6876    5.4866 C   0  0  0  0  0  0  0  0  0  0  0  0
   -3.3244   27.6927    5.5471 O   0  0  0  0  0  0  0  0  0  0  0  0
   -6.3143   28.2423    6.4563 H   0  0  0  0  0  0  0  0  0  0  0  0
   -5.3542   26.9601    4.4011 C   0  0  0  0  0  0  0  0  0  0  0  0
   -5.8262   27.9743    3.3466 C   0  0  0  0  0  0  0  0  0  0  0  0
   -6.5589   26.2624    5.0481 C   0  0  0  0  0  0  0  0  0  0  0  0
   -4.2430   25.7336    3.6379 S   0  0  0  0  0  0  0  0  0  0  0  0
   -3.8654   24.7316    4.6188 O   0  0  0  0  0  0  0  0  0  0  0  0
   -3.2401   26.4141    2.8376 O   0  0  0  0  0  0  0  0  0  0  0  0
   -5.2621   24.8519    2.4497 C   0  0  0  0  0  0  0  0  0  0  0  0
   -5.8349   23.6251    2.8049 C   0  0  0  0  0  0  0  0  0  0  0  0
   -6.6564   22.9589    1.8931 C   0  0  0  0  0  0  0  0  0  0  0  0
   -6.9171   23.5298    0.6466 C   0  0  0  0  0  0  0  0  0  0  0  0
   -7.9271   22.7047   -0.4750 Cl  0  0  0  0  0  0  0  0  0  0  0  0
   -6.3736   24.7692    0.3061 C   0  0  0  0  0  0  0  0  0  0  0  0
   -5.5513   25.4410    1.2132 C   0  0  0  0  0  0  0  0  0  0  0  0
   -4.7116   29.0894    7.5404 C   0  0  0  0  0  0  0  0  0  0  0  0
   -4.8719   30.5993    7.3859 C   0  0  0  0  0  0  0  0  0  0  0  0
   -3.6382   31.3036    6.8101 C   0  0  0  0  0  0  0  0  0  0  0  0
   -2.6671   32.6150    8.7000 C   0  0  0  0  0  0  0  0  0  0  0  0
   -2.5630   31.4688    7.7939 N   0  0  0  0  0  0  0  0  0  0  0  0
   -1.4031   30.6990    7.7717 C   0  0  0  0  0  0  0  0  0  0  0  0
   -0.6958   30.3811    8.9455 C   0  0  0  0  0  0  0  0  0  0  0  0
    0.4708   29.6038    8.9329 C   0  0  0  0  0  0  0  0  0  0  0  0
    0.9670   29.1110    7.7343 C   0  0  0  0  0  0  0  0  0  0  0  0
    0.2943   29.3978    6.5544 C   0  0  0  0  0  0  0  0  0  0  0  0
   -0.8704   30.1780    6.5789 C   0  0  0  0  0  0  0  0  0  0  0  0
 21 22  1  0  0  0
 22 20  1  0  0  0
 20 19  1  0  0  0
 19 18  1  0  0  0
 18  1  1  0  0  0
  1  2  1  0  0  0
  2  3  2  0  0  0
  2  5  1  0  0  0
  5  6  1  0  0  0
  5  7  1  0  0  0
  5  8  1  0  0  0
  8  9  2  0  0  0
  8 10  2  0  0  0
  8 11  1  0  0  0
 11 12  1  0  0  0
 12 13  2  0  0  0
 13 14  1  0  0  0
 14 15  1  0  0  0
 14 16  2  0  0  0
 16 17  1  0  0  0
 22 23  1  0  0  0
 23 24  2  0  0  0
 24 25  1  0  0  0
 25 26  2  0  0  0
 26 27  1  0  0  0
 27 28  2  0  0  0
 17 11  2  0  0  0
 28 23  1  0  0  0
  1  4  1  0  0  0
M  END
> <minimizedAffinity>
-9.22603

$$$$
OCNT-2309593


 28 31  0  0  0  0  0  0  0  0999 V2000
   -4.0639   26.2137    3.8688 C   0  0  0  0  0  0  0  0  0  0  0  0
   -4.0946   25.1892    2.9398 C   0  0  0  0  0  0  0  0  0  0  0  0
   -5.3636   25.1425    2.4133 N   0  0  0  0  0  0  0  0  0  0  0  0
   -6.1654   26.0699    2.9845 N   0  0  0  0  0  0  0  0  0  0  0  0
   -5.3986   26.7152    3.8740 C   0  0  0  0  0  0  0  0  0  0  0  0
   -5.8642   24.2672    1.4069 C   0  0  0  0  0  0  0  0  0  0  0  0
   -5.7004   22.8779    1.5004 C   0  0  0  0  0  0  0  0  0  0  0  0
   -6.2034   22.0445    0.4963 C   0  0  0  0  0  0  0  0  0  0  0  0
   -6.8692   22.5878   -0.6011 C   0  0  0  0  0  0  0  0  0  0  0  0
   -7.0353   23.9672   -0.7008 C   0  0  0  0  0  0  0  0  0  0  0  0
   -6.5355   24.8059    0.2976 C   0  0  0  0  0  0  0  0  0  0  0  0
   -5.9691   27.7840    4.6896 C   0  0  0  0  0  0  0  0  0  0  0  0
   -6.5847   27.5010    5.9158 C   0  0  0  0  0  0  0  0  0  0  0  0
   -7.1264   28.5321    6.6873 C   0  0  0  0  0  0  0  0  0  0  0  0
   -7.0629   29.8497    6.2351 C   0  0  0  0  0  0  0  0  0  0  0  0
   -6.4644   30.1387    5.0095 C   0  0  0  0  0  0  0  0  0  0  0  0
   -5.9227   29.1090    4.2373 C   0  0  0  0  0  0  0  0  0  0  0  0
   -2.8958   26.6675    4.6790 C   0  0  0  0  0  0  0  0  0  0  0  0
   -3.1155   26.2738    6.0693 N   0  0  0  0  0  0  0  0  0  0  0  0
   -3.9652   26.7102    6.4208 H   0  0  0  0  0  0  0  0  0  0  0  0
   -1.9811   26.6143    6.9400 C   0  0  0  0  0  0  0  0  0  0  0  0
   -1.4948   28.0637    6.8187 C   0  0  0  0  0  0  0  0  0  0  0  0
   -2.5335   31.4944   10.0737 C   0  0  0  0  0  0  0  0  0  0  0  0
   -2.7131   30.4368    9.1164 N   0  0  0  0  0  0  0  0  0  0  0  0
   -3.8760   29.8727    8.7002 C   0  0  0  0  0  0  0  0  0  0  0  0
   -3.6167   28.9371    7.8160 N   0  0  0  0  0  0  0  0  0  0  0  0
   -2.2486   28.9693    7.7224 C   0  0  0  0  0  0  0  0  0  0  0  0
   -1.6531   29.8753    8.5090 N   0  0  0  0  0  0  0  0  0  0  0  0
 23 24  1  0  0  0
 24 25  1  0  0  0
 25 26  2  0  0  0
 26 27  1  0  0  0
 27 22  1  0  0  0
 22 21  1  0  0  0
 21 19  1  0  0  0
 19 18  1  0  0  0
 18  1  1  0  0  0
  1  2  2  0  0  0
  2  3  1  0  0  0
  3  6  1  0  0  0
  6  7  2  0  0  0
  7  8  1  0  0  0
  8  9  2  0  0  0
  9 10  1  0  0  0
 10 11  2  0  0  0
  3  4  1  0  0  0
  4  5  2  0  0  0
  5 12  1  0  0  0
 12 13  2  0  0  0
 13 14  1  0  0  0
 14 15  2  0  0  0
 15 16  1  0  0  0
 16 17  2  0  0  0
 27 28  2  0  0  0
 28 24  1  0  0  0
  5  1  1  0  0  0
 17 12  1  0  0  0
 11  6  1  0  0  0
 19 20  1  0  0  0
M  END
> <minimizedAffinity>
-8.94452

$$$$
OCNT-2309595


 29 32  0  0  0  0  0  0  0  0999 V2000
   -4.6871   24.0948    2.5974 C   0  0  0  0  0  0  0  0  0  0  0  0
   -3.7614   23.2927    2.5519 O   0  0  0  0  0  0  0  0  0  0  0  0
   -6.0120   23.7666    2.8310 N   0  0  0  0  0  0  0  0  0  0  0  0
   -6.6856   24.5229    2.8024 H   0  0  0  0  0  0  0  0  0  0  0  0
   -4.7708   27.7655    4.3992 N   0  0  0  0  0  0  0  0  0  0  0  0
   -3.8810   26.6241    4.6386 C   0  0  0  0  0  0  0  0  0  0  0  0
   -3.3419   26.1223    3.3015 C   0  0  0  0  0  0  0  0  0  0  0  0
   -4.4786   25.5999    2.4102 C   0  0  0  0  0  0  0  0  0  0  0  0
   -5.8036   26.3345    2.6744 C   0  0  0  0  0  0  0  0  0  0  0  0
   -5.6014   27.7554    3.1961 C   0  0  0  0  0  0  0  0  0  0  0  0
   -5.9794   29.8764    7.7909 C   0  0  0  0  0  0  0  0  0  0  0  0
   -6.8812   29.6994    6.7502 C   0  0  0  0  0  0  0  0  0  0  0  0
   -6.4814   28.9908    5.6133 C   0  0  0  0  0  0  0  0  0  0  0  0
   -5.1926   28.4584    5.5274 C   0  0  0  0  0  0  0  0  0  0  0  0
   -4.3159   28.6519    6.5389 N   0  0  0  0  0  0  0  0  0  0  0  0
   -4.7160   29.3396    7.6368 C   0  0  0  0  0  0  0  0  0  0  0  0
   -6.6193   31.1754    9.9353 N   0  0  0  0  0  0  0  0  0  0  0  0
   -6.3319   30.5908    8.9749 C   0  0  0  0  0  0  0  0  0  0  0  0
   -6.5586   22.4505    3.0641 C   0  0  0  0  0  0  0  0  0  0  0  0
   -6.0979   21.2490    2.2594 C   0  0  0  0  0  0  0  0  0  0  0  0
   -7.4776   21.7956    2.0495 C   0  0  0  0  0  0  0  0  0  0  0  0
   -6.8670   22.2227    4.5441 C   0  0  0  0  0  0  0  0  0  0  0  0
   -5.8443   22.2318    5.5126 C   0  0  0  0  0  0  0  0  0  0  0  0
   -6.1234   22.0446    6.8688 C   0  0  0  0  0  0  0  0  0  0  0  0
   -7.4370   21.8524    7.2792 C   0  0  0  0  0  0  0  0  0  0  0  0
   -7.6858   21.6791    8.5853 F   0  0  0  0  0  0  0  0  0  0  0  0
   -8.4711   21.8477    6.3490 C   0  0  0  0  0  0  0  0  0  0  0  0
  -10.1027   21.6223    6.8487 Cl  0  0  0  0  0  0  0  0  0  0  0  0
   -8.1882   22.0345    4.9938 C   0  0  0  0  0  0  0  0  0  0  0  0
 17 18  3  0  0  0
 18 11  1  0  0  0
 11 12  2  0  0  0
 12 13  1  0  0  0
 13 14  2  0  0  0
 14  5  1  0  0  0
  5  6  1  0  0  0
  6  7  1  0  0  0
  7  8  1  0  0  0
  8  1  1  0  0  0
  1  2  2  0  0  0
  1  3  1  0  0  0
  3 19  1  0  0  0
 19 22  1  0  0  0
 22 23  1  0  0  0
 23 24  2  0  0  0
 24 25  1  0  0  0
 25 26  1  0  0  0
 25 27  2  0  0  0
 27 28  1  0  0  0
 27 29  1  0  0  0
 19 20  1  0  0  0
 20 21  1  0  0  0
  8  9  1  0  0  0
  9 10  1  0  0  0
 14 15  1  0  0  0
 15 16  2  0  0  0
 16 11  1  0  0  0
 10  5  1  0  0  0
 21 19  1  0  0  0
 29 22  2  0  0  0
  3  4  1  0  0  0
M  END
> <minimizedAffinity>
-9.41369

$$$$
OCNT-2309599


 34 38  0  0  0  0  0  0  0  0999 V2000
   -7.1983   22.8424    1.4585 C   0  0  0  0  0  0  0  0  0  0  0  0
   -6.1423   23.7293    2.0070 C   0  0  0  0  0  0  0  0  0  0  0  0
   -5.3658   24.4394    1.1779 N   0  0  0  0  0  0  0  0  0  0  0  0
   -4.5436   25.1133    2.0016 N   0  0  0  0  0  0  0  0  0  0  0  0
   -4.7559   24.8513    3.3315 C   0  0  0  0  0  0  0  0  0  0  0  0
   -5.8081   23.9588    3.3700 C   0  0  0  0  0  0  0  0  0  0  0  0
   -3.8409   25.7384    1.6121 H   0  0  0  0  0  0  0  0  0  0  0  0
   -6.3723   23.4025    4.5812 C   0  0  0  0  0  0  0  0  0  0  0  0
   -5.6196   22.5219    5.3708 C   0  0  0  0  0  0  0  0  0  0  0  0
   -6.1643   21.9850    6.5394 C   0  0  0  0  0  0  0  0  0  0  0  0
   -7.4578   22.3315    6.9238 C   0  0  0  0  0  0  0  0  0  0  0  0
   -7.9209   21.7832    8.0925 O   0  0  0  0  0  0  0  0  0  0  0  0
   -9.0861   22.4711    8.5639 C   0  0  0  0  0  0  0  0  0  0  0  0
  -10.0715   22.6926    7.4283 C   0  0  0  0  0  0  0  0  0  0  0  0
   -9.5087   23.5507    6.4289 O   0  0  0  0  0  0  0  0  0  0  0  0
   -8.2191   23.1932    6.1275 C   0  0  0  0  0  0  0  0  0  0  0  0
   -7.6736   23.7413    4.9672 C   0  0  0  0  0  0  0  0  0  0  0  0
   -4.0101   25.4009    4.3615 N   0  0  0  0  0  0  0  0  0  0  0  0
   -4.0614   26.7548    4.6739 C   0  0  0  0  0  0  0  0  0  0  0  0
   -4.7860   27.5469    4.0694 O   0  0  0  0  0  0  0  0  0  0  0  0
   -3.4175   24.7735    4.8867 H   0  0  0  0  0  0  0  0  0  0  0  0
   -3.1813   27.1621    5.7933 C   0  0  0  0  0  0  0  0  0  0  0  0
   -3.3219   28.3615    6.3809 N   0  0  0  0  0  0  0  0  0  0  0  0
   -2.3896   28.4345    7.3586 N   0  0  0  0  0  0  0  0  0  0  0  0
   -1.6417   27.2760    7.3883 C   0  0  0  0  0  0  0  0  0  0  0  0
   -2.1230   26.4472    6.4039 C   0  0  0  0  0  0  0  0  0  0  0  0
   -2.2797   29.5840    8.1860 C   0  0  0  0  0  0  0  0  0  0  0  0
   -1.0806   30.3057    8.2546 C   0  0  0  0  0  0  0  0  0  0  0  0
    0.0118   29.9502    7.5641 F   0  0  0  0  0  0  0  0  0  0  0  0
   -0.9607   31.4407    9.0624 C   0  0  0  0  0  0  0  0  0  0  0  0
   -2.0404   31.8801    9.8209 C   0  0  0  0  0  0  0  0  0  0  0  0
   -3.2386   31.1761    9.7664 C   0  0  0  0  0  0  0  0  0  0  0  0
   -3.3539   30.0420    8.9567 C   0  0  0  0  0  0  0  0  0  0  0  0
   -4.5469   29.4323    8.9532 F   0  0  0  0  0  0  0  0  0  0  0  0
  1  2  1  0  0  0
  2  3  2  0  0  0
  3  4  1  0  0  0
  4  5  1  0  0  0
  5 18  1  0  0  0
 18 19  1  0  0  0
 19 20  2  0  0  0
 19 22  1  0  0  0
 22 23  2  0  0  0
 23 24  1  0  0  0
 24 27  1  0  0  0
 27 28  2  0  0  0
 28 29  1  0  0  0
 28 30  1  0  0  0
 30 31  2  0  0  0
 31 32  1  0  0  0
 32 33  2  0  0  0
 33 34  1  0  0  0
 24 25  1  0  0  0
 25 26  2  0  0  0
  5  6  2  0  0  0
  6  8  1  0  0  0
  8  9  1  0  0  0
  9 10  2  0  0  0
 10 11  1  0  0  0
 11 12  1  0  0  0
 12 13  1  0  0  0
 13 14  1  0  0  0
 14 15  1  0  0  0
 15 16  1  0  0  0
 16 17  1  0  0  0
  6  2  1  0  0  0
 17  8  2  0  0  0
 26 22  1  0  0  0
 16 11  2  0  0  0
 33 27  1  0  0  0
  4  7  1  0  0  0
 18 21  1  0  0  0
M  END
> <minimizedAffinity>
-11.11598

$$$$
OCNT-2309602


 28 30  0  0  0  0  0  0  0  0999 V2000
   -6.3416   27.2625    5.6555 O   0  0  0  0  0  0  0  0  0  0  0  0
   -5.6565   28.5055    5.3489 S   0  0  0  0  0  0  0  0  0  0  0  0
   -6.3575   29.7647    5.4770 O   0  0  0  0  0  0  0  0  0  0  0  0
   -4.1902   28.5394    6.3527 C   0  0  0  0  0  0  0  0  0  0  0  0
   -3.8652   29.6977    7.0640 C   0  0  0  0  0  0  0  0  0  0  0  0
   -2.6927   29.7413    7.8276 C   0  0  0  0  0  0  0  0  0  0  0  0
   -1.8412   28.6341    7.8747 C   0  0  0  0  0  0  0  0  0  0  0  0
   -2.1701   27.4873    7.1426 C   0  0  0  0  0  0  0  0  0  0  0  0
   -3.3349   27.4380    6.3744 C   0  0  0  0  0  0  0  0  0  0  0  0
   -0.6744   28.5367    8.5775 O   0  0  0  0  0  0  0  0  0  0  0  0
    0.2652   29.5887    8.4488 C   0  0  0  0  0  0  0  0  0  0  0  0
   -0.0953   30.6595    9.1889 F   0  0  0  0  0  0  0  0  0  0  0  0
    1.4649   29.1557    8.8966 F   0  0  0  0  0  0  0  0  0  0  0  0
    0.4091   29.9606    7.1590 F   0  0  0  0  0  0  0  0  0  0  0  0
   -5.0879   28.3118    3.7938 N   0  0  0  0  0  0  0  0  0  0  0  0
   -4.8169   29.1793    3.3441 H   0  0  0  0  0  0  0  0  0  0  0  0
   -4.9350   27.1064    3.1430 C   0  0  0  0  0  0  0  0  0  0  0  0
   -5.9170   26.4696    2.5235 N   0  0  0  0  0  0  0  0  0  0  0  0
   -5.3609   25.3409    2.0040 N   0  0  0  0  0  0  0  0  0  0  0  0
   -4.0125   25.2901    2.3002 C   0  0  0  0  0  0  0  0  0  0  0  0
   -3.7159   26.4196    3.0266 C   0  0  0  0  0  0  0  0  0  0  0  0
   -6.1680   24.4208    1.2600 C   0  0  0  0  0  0  0  0  0  0  0  0
   -6.4677   23.2217    1.8488 N   0  0  0  0  0  0  0  0  0  0  0  0
   -7.2259   22.3452    1.1560 C   0  0  0  0  0  0  0  0  0  0  0  0
   -7.7184   22.5959   -0.1118 C   0  0  0  0  0  0  0  0  0  0  0  0
   -7.4135   23.8168   -0.7025 C   0  0  0  0  0  0  0  0  0  0  0  0
   -6.6307   24.7399   -0.0128 C   0  0  0  0  0  0  0  0  0  0  0  0
   -6.3599   25.9005   -0.6231 F   0  0  0  0  0  0  0  0  0  0  0  0
  1  2  2  0  0  0
  2  3  2  0  0  0
  2 15  1  0  0  0
 15 17  1  0  0  0
 17 18  2  0  0  0
 18 19  1  0  0  0
 19 22  1  0  0  0
 22 23  1  0  0  0
 23 24  2  0  0  0
 24 25  1  0  0  0
 25 26  2  0  0  0
 26 27  1  0  0  0
 27 28  1  0  0  0
 19 20  1  0  0  0
 20 21  2  0  0  0
  2  4  1  0  0  0
  4  5  1  0  0  0
  5  6  2  0  0  0
  6  7  1  0  0  0
  7 10  1  0  0  0
 10 11  1  0  0  0
 11 12  1  0  0  0
 11 13  1  0  0  0
 11 14  1  0  0  0
  7  8  2  0  0  0
  8  9  1  0  0  0
 21 17  1  0  0  0
  9  4  2  0  0  0
 27 22  2  0  0  0
 15 16  1  0  0  0
M  END
> <minimizedAffinity>
-9.71626

$$$$
OCNT-2309614


 25 27  0  0  0  0  0  0  0  0999 V2000
   -4.4269   28.3196    7.1658 N   0  0  0  0  0  0  0  0  0  0  0  0
   -4.8404   27.7984    7.9438 H   0  0  0  0  0  0  0  0  0  0  0  0
   -1.0887   26.2326    4.7708 N   0  0  0  0  0  0  0  0  0  0  0  0
   -2.2755   25.9923    4.1729 N   0  0  0  0  0  0  0  0  0  0  0  0
   -3.2133   26.6046    4.8918 N   0  0  0  0  0  0  0  0  0  0  0  0
   -2.5978   27.2308    5.9475 C   0  0  0  0  0  0  0  0  0  0  0  0
   -3.0737   28.0116    7.0144 C   0  0  0  0  0  0  0  0  0  0  0  0
   -2.1528   28.4861    7.8993 N   0  0  0  0  0  0  0  0  0  0  0  0
   -0.8484   28.1854    7.7156 C   0  0  0  0  0  0  0  0  0  0  0  0
   -0.2919   27.4461    6.7367 N   0  0  0  0  0  0  0  0  0  0  0  0
   -1.2351   27.0025    5.8881 C   0  0  0  0  0  0  0  0  0  0  0  0
    0.8978   26.7219    3.4076 C   0  0  0  0  0  0  0  0  0  0  0  0
    0.1336   25.6945    4.2231 C   0  0  0  0  0  0  0  0  0  0  0  0
   -4.7583   29.7431    7.1758 C   0  0  0  0  0  0  0  0  0  0  0  0
   -5.0964   30.2763    8.6130 C   0  0  0  0  0  0  0  0  0  0  0  0
   -5.9237   31.5864    8.5036 C   0  0  0  0  0  0  0  0  0  0  0  0
   -5.1088   32.7045    8.1178 O   0  0  0  0  0  0  0  0  0  0  0  0
   -4.1129   32.9333    9.1232 C   0  0  0  0  0  0  0  0  0  0  0  0
   -3.1741   31.7205    9.2535 C   0  0  0  0  0  0  0  0  0  0  0  0
   -2.1851   31.9340   10.3979 C   0  0  0  0  0  0  0  0  0  0  0  0
   -3.8889   30.4488    9.4853 N   0  0  0  0  0  0  0  0  0  0  0  0
   -3.2372   29.6877    9.2836 H   0  0  0  0  0  0  0  0  0  0  0  0
   -5.9803   29.2035    9.3114 C   0  0  0  0  0  0  0  0  0  0  0  0
   -5.2050   28.3027   10.0973 O   0  0  0  0  0  0  0  0  0  0  0  0
   -5.8247   27.6564   10.4805 H   0  0  0  0  0  0  0  0  0  0  0  0
 12 13  1  0  0  0
 13  3  1  0  0  0
  3  4  1  0  0  0
  4  5  2  0  0  0
  5  6  1  0  0  0
  6  7  2  0  0  0
  7  1  1  0  0  0
  1 14  1  0  0  0
 15 14  1  0  0  0
 15 23  1  0  0  0
 23 24  1  0  0  0
 15 16  1  0  0  0
 16 17  1  0  0  0
 17 18  1  0  0  0
 18 19  1  0  0  0
 19 20  1  0  0  0
 19 21  1  0  0  0
  7  8  1  0  0  0
  8  9  2  0  0  0
  9 10  1  0  0  0
 10 11  2  0  0  0
 11  3  1  0  0  0
 11  6  1  0  0  0
 21 15  1  0  0  0
  1  2  1  0  0  0
 24 25  1  0  0  0
 21 22  1  0  0  0
M  END
> <minimizedAffinity>
-7.97199

$$$$
OCNT-2309634


 32 36  0  0  0  0  0  0  0  0999 V2000
   -4.4669   29.4930    6.3175 N   0  0  0  0  0  0  0  0  0  0  0  0
   -3.7097   28.3404    6.2890 C   0  0  0  0  0  0  0  0  0  0  0  0
   -2.6151   28.2075    6.8294 O   0  0  0  0  0  0  0  0  0  0  0  0
   -4.2939   27.3122    5.5336 N   0  0  0  0  0  0  0  0  0  0  0  0
   -5.7418   27.1011    5.5824 C   0  0  0  0  0  0  0  0  0  0  0  0
   -6.1902   26.0333    4.6344 C   0  0  0  0  0  0  0  0  0  0  0  0
   -5.3606   25.2304    3.9481 C   0  0  0  0  0  0  0  0  0  0  0  0
   -3.8682   25.3318    4.1014 C   0  0  0  0  0  0  0  0  0  0  0  0
   -3.4886   26.1018    5.3668 C   0  0  0  0  0  0  0  0  0  0  0  0
   -5.0617   29.6162    5.5131 H   0  0  0  0  0  0  0  0  0  0  0  0
   -2.2111   31.7569   10.1370 C   0  0  0  0  0  0  0  0  0  0  0  0
   -3.1807   31.8194    8.9903 C   0  0  0  0  0  0  0  0  0  0  0  0
   -3.9238   32.9689    8.6501 C   0  0  0  0  0  0  0  0  0  0  0  0
   -4.0470   34.2899    9.1436 C   0  0  0  0  0  0  0  0  0  0  0  0
   -4.9181   35.0267    8.4496 N   0  0  0  0  0  0  0  0  0  0  0  0
   -5.3549   34.1778    7.5041 N   0  0  0  0  0  0  0  0  0  0  0  0
   -4.8007   32.9258    7.5726 C   0  0  0  0  0  0  0  0  0  0  0  0
   -4.9939   31.7833    6.7879 C   0  0  0  0  0  0  0  0  0  0  0  0
   -4.2493   30.6397    7.1102 C   0  0  0  0  0  0  0  0  0  0  0  0
   -3.3696   30.6636    8.1971 C   0  0  0  0  0  0  0  0  0  0  0  0
   -6.0364   34.5169    6.8350 H   0  0  0  0  0  0  0  0  0  0  0  0
   -5.8064   24.2382    3.0263 C   0  0  0  0  0  0  0  0  0  0  0  0
   -5.5060   24.2164    1.6774 C   0  0  0  0  0  0  0  0  0  0  0  0
   -4.7018   25.1321    0.8291 C   0  0  0  0  0  0  0  0  0  0  0  0
   -6.1254   23.1086    1.1482 N   0  0  0  0  0  0  0  0  0  0  0  0
   -6.8044   22.4149    2.1238 C   0  0  0  0  0  0  0  0  0  0  0  0
   -7.5620   21.2405    2.0345 C   0  0  0  0  0  0  0  0  0  0  0  0
   -8.1481   20.7566    3.2084 C   0  0  0  0  0  0  0  0  0  0  0  0
   -7.9826   21.4219    4.4210 C   0  0  0  0  0  0  0  0  0  0  0  0
   -7.2214   22.5941    4.4921 C   0  0  0  0  0  0  0  0  0  0  0  0
   -6.6189   23.1032    3.3224 C   0  0  0  0  0  0  0  0  0  0  0  0
   -6.0910   22.8332    0.1767 H   0  0  0  0  0  0  0  0  0  0  0  0
 11 12  1  0  0  0
 12 13  2  0  0  0
 13 14  1  0  0  0
 14 15  2  0  0  0
 15 16  1  0  0  0
 16 17  1  0  0  0
 17 18  2  0  0  0
 18 19  1  0  0  0
 19  1  1  0  0  0
  1  2  1  0  0  0
  2  3  2  0  0  0
  2  4  1  0  0  0
  4  5  1  0  0  0
  5  6  1  0  0  0
  6  7  2  0  0  0
  7 22  1  0  0  0
 22 23  2  0  0  0
 23 24  1  0  0  0
 23 25  1  0  0  0
 25 26  1  0  0  0
 26 27  2  0  0  0
 27 28  1  0  0  0
 28 29  2  0  0  0
 29 30  1  0  0  0
 30 31  2  0  0  0
  7  8  1  0  0  0
  8  9  1  0  0  0
 19 20  2  0  0  0
 20 12  1  0  0  0
 17 13  1  0  0  0
  9  4  1  0  0  0
 31 22  1  0  0  0
 31 26  1  0  0  0
 16 21  1  0  0  0
  1 10  1  0  0  0
 25 32  1  0  0  0
M  END
> <minimizedAffinity>
-10.23846

$$$$
OCNT-2309641


 30 33  0  0  0  0  0  0  0  0999 V2000
   -0.2777   26.3906    5.2953 C   0  0  0  0  0  0  0  0  0  0  0  0
   -1.7521   26.4782    5.1442 C   0  0  0  0  0  0  0  0  0  0  0  0
   -2.3357   25.9431    4.0697 N   0  0  0  0  0  0  0  0  0  0  0  0
   -3.6686   26.0524    4.3013 N   0  0  0  0  0  0  0  0  0  0  0  0
   -3.9155   26.9205    5.3571 C   0  0  0  0  0  0  0  0  0  0  0  0
   -5.2288   27.5548    5.6539 C   0  0  0  0  0  0  0  0  0  0  0  0
   -2.6944   27.1161    5.9907 C   0  0  0  0  0  0  0  0  0  0  0  0
   -4.5693   25.4067    3.4130 C   0  0  0  0  0  0  0  0  0  0  0  0
   -4.4398   25.6959    2.0401 C   0  0  0  0  0  0  0  0  0  0  0  0
   -5.3131   25.1311    1.1091 C   0  0  0  0  0  0  0  0  0  0  0  0
   -6.3034   24.2555    1.5400 C   0  0  0  0  0  0  0  0  0  0  0  0
   -7.3829   23.5579    0.3968 Cl  0  0  0  0  0  0  0  0  0  0  0  0
   -6.4113   23.9197    2.8878 C   0  0  0  0  0  0  0  0  0  0  0  0
   -5.5358   24.4800    3.8283 C   0  0  0  0  0  0  0  0  0  0  0  0
   -5.6234   23.8195    5.4242 Cl  0  0  0  0  0  0  0  0  0  0  0  0
   -2.4156   27.9129    7.2308 C   0  0  0  0  0  0  0  0  0  0  0  0
   -2.3078   29.4107    6.9959 C   0  0  0  0  0  0  0  0  0  0  0  0
   -1.3867   29.8912    6.3251 O   0  0  0  0  0  0  0  0  0  0  0  0
   -3.2750   30.2453    7.5315 N   0  0  0  0  0  0  0  0  0  0  0  0
   -3.1865   31.6881    7.2629 C   0  0  0  0  0  0  0  0  0  0  0  0
   -4.4786   32.3403    7.7680 C   0  0  0  0  0  0  0  0  0  0  0  0
   -5.0582   31.2223    8.5952 C   0  0  0  0  0  0  0  0  0  0  0  0
   -6.1768   31.2901    9.4184 C   0  0  0  0  0  0  0  0  0  0  0  0
   -6.5945   30.1353   10.0734 C   0  0  0  0  0  0  0  0  0  0  0  0
   -5.8975   28.9360    9.8950 C   0  0  0  0  0  0  0  0  0  0  0  0
   -4.7749   28.8744    9.0588 C   0  0  0  0  0  0  0  0  0  0  0  0
   -4.3584   30.0225    8.4035 C   0  0  0  0  0  0  0  0  0  0  0  0
   -4.1992   33.6326    8.5317 C   0  0  0  0  0  0  0  0  0  0  0  0
   -5.1310   34.6523    8.1788 O   0  0  0  0  0  0  0  0  0  0  0  0
   -5.0110   34.8510    7.2341 H   0  0  0  0  0  0  0  0  0  0  0  0
  1  2  1  0  0  0
  2  3  2  0  0  0
  3  4  1  0  0  0
  4  8  1  0  0  0
  8  9  1  0  0  0
  9 10  2  0  0  0
 10 11  1  0  0  0
 11 12  1  0  0  0
 11 13  2  0  0  0
 13 14  1  0  0  0
 14 15  1  0  0  0
  4  5  1  0  0  0
  5  6  1  0  0  0
  5  7  2  0  0  0
  7 16  1  0  0  0
 16 17  1  0  0  0
 17 18  2  0  0  0
 17 19  1  0  0  0
 19 20  1  0  0  0
 20 21  1  0  0  0
 21 28  1  0  0  0
 28 29  1  0  0  0
 21 22  1  0  0  0
 22 23  2  0  0  0
 23 24  1  0  0  0
 24 25  2  0  0  0
 25 26  1  0  0  0
 26 27  2  0  0  0
  7  2  1  0  0  0
 27 19  1  0  0  0
 14  8  2  0  0  0
 27 22  1  0  0  0
 29 30  1  0  0  0
M  END
> <minimizedAffinity>
-10.04308

$$$$
OCNT-2309646


 24 25  0  0  0  0  0  0  0  0999 V2000
   -2.1374   28.8490    8.3150 C   0  0  0  0  0  0  0  0  0  0  0  0
   -0.6041   28.7702    8.3877 C   0  0  0  0  0  0  0  0  0  0  0  0
   -0.1680   27.9886    7.1384 C   0  0  0  0  0  0  0  0  0  0  0  0
    0.5009   28.9178    6.1178 C   0  0  0  0  0  0  0  0  0  0  0  0
   -1.4087   27.3235    6.7003 N   0  0  0  0  0  0  0  0  0  0  0  0
   -2.4797   28.3075    6.9242 C   0  0  0  0  0  0  0  0  0  0  0  0
   -3.7807   32.7650    9.1929 C   0  0  0  0  0  0  0  0  0  0  0  0
   -2.6411   32.3080    9.8513 C   0  0  0  0  0  0  0  0  0  0  0  0
   -2.1175   31.0425    9.5586 C   0  0  0  0  0  0  0  0  0  0  0  0
   -2.7218   30.2127    8.6034 C   0  0  0  0  0  0  0  0  0  0  0  0
   -3.8679   30.6818    7.9486 C   0  0  0  0  0  0  0  0  0  0  0  0
   -4.3889   31.9449    8.2420 C   0  0  0  0  0  0  0  0  0  0  0  0
   -4.9844   34.5795    8.2410 C   0  0  0  0  0  0  0  0  0  0  0  0
   -4.3923   33.9730    9.3826 O   0  0  0  0  0  0  0  0  0  0  0  0
   -1.3788   26.8258    5.3092 C   0  0  0  0  0  0  0  0  0  0  0  0
   -2.7530   26.3037    4.8660 C   0  0  0  0  0  0  0  0  0  0  0  0
   -3.4072   25.5105    5.5363 O   0  0  0  0  0  0  0  0  0  0  0  0
   -3.2167   26.8432    3.6874 N   0  0  0  0  0  0  0  0  0  0  0  0
   -2.6377   27.5786    3.2870 H   0  0  0  0  0  0  0  0  0  0  0  0
   -4.5841   26.6325    3.2281 C   0  0  0  0  0  0  0  0  0  0  0  0
   -5.6189   27.5933    3.8178 C   0  0  0  0  0  0  0  0  0  0  0  0
   -5.0785   28.4916    4.6651 F   0  0  0  0  0  0  0  0  0  0  0  0
   -6.2456   28.2815    2.8325 F   0  0  0  0  0  0  0  0  0  0  0  0
   -6.5712   26.9090    4.4943 F   0  0  0  0  0  0  0  0  0  0  0  0
 13 14  1  0  0  0
 14  7  1  0  0  0
  7  8  1  0  0  0
  8  9  2  0  0  0
  9 10  1  0  0  0
 10  1  1  0  0  0
  1  2  1  0  0  0
  2  3  1  0  0  0
  3  4  1  0  0  0
  3  5  1  0  0  0
  5 15  1  0  0  0
 15 16  1  0  0  0
 16 17  2  0  0  0
 16 18  1  0  0  0
 18 20  1  0  0  0
 20 21  1  0  0  0
 21 22  1  0  0  0
 21 23  1  0  0  0
 21 24  1  0  0  0
  5  6  1  0  0  0
 10 11  2  0  0  0
 11 12  1  0  0  0
 12  7  2  0  0  0
  6  1  1  0  0  0
 18 19  1  0  0  0
M  END
> <minimizedAffinity>
-8.20383

$$$$
OCNT-2309655


 29 31  0  0  0  0  0  0  0  0999 V2000
   -5.4496   30.7187    6.6093 N   0  0  0  0  0  0  0  0  0  0  0  0
   -5.1369   31.0740    7.8946 C   0  0  0  0  0  0  0  0  0  0  0  0
   -5.8178   30.7115    8.8517 O   0  0  0  0  0  0  0  0  0  0  0  0
   -3.9929   31.8482    8.0315 N   0  0  0  0  0  0  0  0  0  0  0  0
   -3.6386   32.2793    9.3739 C   0  0  0  0  0  0  0  0  0  0  0  0
   -5.2081   31.3915    5.8997 H   0  0  0  0  0  0  0  0  0  0  0  0
   -6.6434   29.9495    6.3277 C   0  0  0  0  0  0  0  0  0  0  0  0
   -6.0575   27.3185    3.8729 N   0  0  0  0  0  0  0  0  0  0  0  0
   -6.2974   27.6511    5.1840 C   0  0  0  0  0  0  0  0  0  0  0  0
   -6.3762   29.0263    5.1973 C   0  0  0  0  0  0  0  0  0  0  0  0
   -6.1868   29.4945    3.9277 N   0  0  0  0  0  0  0  0  0  0  0  0
   -5.9900   28.4534    3.1302 N   0  0  0  0  0  0  0  0  0  0  0  0
   -5.5708   23.4689    2.1810 C   0  0  0  0  0  0  0  0  0  0  0  0
   -5.5627   24.5977    1.3620 C   0  0  0  0  0  0  0  0  0  0  0  0
   -5.7225   25.8767    1.9139 C   0  0  0  0  0  0  0  0  0  0  0  0
   -5.8915   26.0330    3.2961 C   0  0  0  0  0  0  0  0  0  0  0  0
   -5.8973   24.8985    4.1183 C   0  0  0  0  0  0  0  0  0  0  0  0
   -5.7376   23.6277    3.5584 C   0  0  0  0  0  0  0  0  0  0  0  0
   -5.4721   21.1683    2.7733 C   0  0  0  0  0  0  0  0  0  0  0  0
   -5.4256   22.1736    1.7687 O   0  0  0  0  0  0  0  0  0  0  0  0
   -2.9833   32.0504    6.9807 C   0  0  0  0  0  0  0  0  0  0  0  0
   -1.6262   31.3969    7.2745 C   0  0  0  0  0  0  0  0  0  0  0  0
   -1.4032   30.0230    6.6017 C   0  0  0  0  0  0  0  0  0  0  0  0
    0.1044   29.7300    6.4684 C   0  0  0  0  0  0  0  0  0  0  0  0
    0.7879   29.4970    7.8137 C   0  0  0  0  0  0  0  0  0  0  0  0
   -0.1001   28.7251    8.7860 C   0  0  0  0  0  0  0  0  0  0  0  0
   -1.2520   28.0261    8.0703 C   0  0  0  0  0  0  0  0  0  0  0  0
   -2.1241   28.9782    7.3639 N   0  0  0  0  0  0  0  0  0  0  0  0
   -3.0725   28.2457    6.5231 C   0  0  0  0  0  0  0  0  0  0  0  0
 19 20  1  0  0  0
 20 13  1  0  0  0
 13 14  1  0  0  0
 14 15  2  0  0  0
 15 16  1  0  0  0
 16  8  1  0  0  0
  8  9  1  0  0  0
  9 10  2  0  0  0
 10  7  1  0  0  0
  7  1  1  0  0  0
  1  2  1  0  0  0
  2  3  2  0  0  0
  2  4  1  0  0  0
  4  5  1  0  0  0
  4 21  1  0  0  0
 21 22  1  0  0  0
 22 23  1  0  0  0
 23 24  1  0  0  0
 24 25  1  0  0  0
 25 26  1  0  0  0
 26 27  1  0  0  0
 27 28  1  0  0  0
 28 29  1  0  0  0
 10 11  1  0  0  0
 11 12  2  0  0  0
 16 17  2  0  0  0
 17 18  1  0  0  0
 18 13  2  0  0  0
 12  8  1  0  0  0
 28 23  1  0  0  0
  1  6  1  0  0  0
M  END
> <minimizedAffinity>
-8.73358

$$$$
OCNT-2309661


 26 28  0  0  0  0  0  0  0  0999 V2000
   -1.6268   27.8131    7.6522 N   0  0  0  0  0  0  0  0  0  0  0  0
   -1.2646   27.3423    6.4090 C   0  0  0  0  0  0  0  0  0  0  0  0
   -0.1985   27.6404    5.8688 O   0  0  0  0  0  0  0  0  0  0  0  0
   -2.4919   27.4840    8.0671 H   0  0  0  0  0  0  0  0  0  0  0  0
   -0.7937   28.7070    8.4190 C   0  0  0  0  0  0  0  0  0  0  0  0
   -3.6940   31.0700    9.1682 C   0  0  0  0  0  0  0  0  0  0  0  0
   -3.0129   32.2508    9.4802 C   0  0  0  0  0  0  0  0  0  0  0  0
   -1.6169   32.2822    9.4565 C   0  0  0  0  0  0  0  0  0  0  0  0
   -0.8973   31.1348    9.1215 C   0  0  0  0  0  0  0  0  0  0  0  0
   -1.5667   29.9390    8.8145 C   0  0  0  0  0  0  0  0  0  0  0  0
   -2.9714   29.9185    8.8341 C   0  0  0  0  0  0  0  0  0  0  0  0
   -6.2915   31.0177    9.1899 N   0  0  0  0  0  0  0  0  0  0  0  0
   -5.1285   31.0415    9.1838 C   0  0  0  0  0  0  0  0  0  0  0  0
   -2.2277   26.3548    5.7636 C   0  0  0  0  0  0  0  0  0  0  0  0
   -1.8100   25.9355    4.0450 S   0  0  0  0  0  0  0  0  0  0  0  0
   -3.3933   25.9438    3.3229 C   0  0  0  0  0  0  0  0  0  0  0  0
   -4.2466   26.9343    3.4923 N   0  0  0  0  0  0  0  0  0  0  0  0
   -5.3279   26.5727    2.7275 C   0  0  0  0  0  0  0  0  0  0  0  0
   -5.0920   25.3661    2.1065 C   0  0  0  0  0  0  0  0  0  0  0  0
   -3.8494   24.9471    2.5062 O   0  0  0  0  0  0  0  0  0  0  0  0
   -5.8218   24.5001    1.1920 C   0  0  0  0  0  0  0  0  0  0  0  0
   -6.6217   25.0500    0.1773 C   0  0  0  0  0  0  0  0  0  0  0  0
   -7.3371   24.2257   -0.6979 C   0  0  0  0  0  0  0  0  0  0  0  0
   -7.2627   22.8397   -0.5713 C   0  0  0  0  0  0  0  0  0  0  0  0
   -6.4665   22.2778    0.4237 C   0  0  0  0  0  0  0  0  0  0  0  0
   -5.7493   23.1008    1.2974 C   0  0  0  0  0  0  0  0  0  0  0  0
 12 13  3  0  0  0
 13  6  1  0  0  0
  6  7  1  0  0  0
  7  8  2  0  0  0
  8  9  1  0  0  0
  9 10  2  0  0  0
 10  5  1  0  0  0
  5  1  1  0  0  0
  1  2  1  0  0  0
  2  3  2  0  0  0
  2 14  1  0  0  0
 14 15  1  0  0  0
 15 16  1  0  0  0
 16 17  2  0  0  0
 17 18  1  0  0  0
 18 19  2  0  0  0
 19 21  1  0  0  0
 21 22  2  0  0  0
 22 23  1  0  0  0
 23 24  2  0  0  0
 24 25  1  0  0  0
 25 26  2  0  0  0
 19 20  1  0  0  0
 10 11  1  0  0  0
 11  6  2  0  0  0
 20 16  1  0  0  0
 26 21  1  0  0  0
  1  4  1  0  0  0
M  END
> <minimizedAffinity>
-9.68096

$$$$
OCNT-2309665


 26 29  0  0  0  0  0  0  0  0999 V2000
   -5.2843   28.3889    5.2692 N   0  0  0  0  0  0  0  0  0  0  0  0
   -4.3604   28.6145    6.2629 C   0  0  0  0  0  0  0  0  0  0  0  0
   -3.3876   27.9087    6.4973 O   0  0  0  0  0  0  0  0  0  0  0  0
   -5.9935   29.0747    5.0698 H   0  0  0  0  0  0  0  0  0  0  0  0
   -5.8925   21.8475    1.6247 C   0  0  0  0  0  0  0  0  0  0  0  0
   -5.5035   23.2289    2.0705 C   0  0  0  0  0  0  0  0  0  0  0  0
   -4.6236   23.9914    1.2979 C   0  0  0  0  0  0  0  0  0  0  0  0
   -4.2753   25.2924    1.6784 C   0  0  0  0  0  0  0  0  0  0  0  0
   -4.8204   25.8501    2.8506 C   0  0  0  0  0  0  0  0  0  0  0  0
   -4.5677   27.1199    3.3412 N   0  0  0  0  0  0  0  0  0  0  0  0
   -5.2385   27.2997    4.4466 C   0  0  0  0  0  0  0  0  0  0  0  0
   -6.2041   25.9992    4.9803 S   0  0  0  0  0  0  0  0  0  0  0  0
   -5.7039   25.0799    3.6104 C   0  0  0  0  0  0  0  0  0  0  0  0
   -6.0658   23.7742    3.2361 C   0  0  0  0  0  0  0  0  0  0  0  0
   -4.6288   29.8355    7.0204 C   0  0  0  0  0  0  0  0  0  0  0  0
   -5.7247   30.1340    7.8264 C   0  0  0  0  0  0  0  0  0  0  0  0
   -5.5612   31.4331    8.3550 C   0  0  0  0  0  0  0  0  0  0  0  0
   -4.3705   31.9143    7.8722 C   0  0  0  0  0  0  0  0  0  0  0  0
   -3.7882   30.9379    7.0924 N   0  0  0  0  0  0  0  0  0  0  0  0
   -2.5262   31.1415    6.3797 C   0  0  0  0  0  0  0  0  0  0  0  0
   -1.3578   30.5363    7.1153 C   0  0  0  0  0  0  0  0  0  0  0  0
   -0.4147   29.7526    6.4412 C   0  0  0  0  0  0  0  0  0  0  0  0
    0.6458   29.2184    7.1582 C   0  0  0  0  0  0  0  0  0  0  0  0
    0.8318   29.4096    8.4802 N   0  0  0  0  0  0  0  0  0  0  0  0
   -0.0871   30.1690    9.1144 C   0  0  0  0  0  0  0  0  0  0  0  0
   -1.1816   30.7434    8.4865 C   0  0  0  0  0  0  0  0  0  0  0  0
  5  6  1  0  0  0
  6  7  2  0  0  0
  7  8  1  0  0  0
  8  9  2  0  0  0
  9 10  1  0  0  0
 10 11  2  0  0  0
 11  1  1  0  0  0
  1  2  1  0  0  0
  2  3  2  0  0  0
  2 15  1  0  0  0
 15 16  2  0  0  0
 16 17  1  0  0  0
 17 18  2  0  0  0
 18 19  1  0  0  0
 19 20  1  0  0  0
 20 21  1  0  0  0
 21 22  2  0  0  0
 22 23  1  0  0  0
 23 24  2  0  0  0
 24 25  1  0  0  0
 25 26  2  0  0  0
 11 12  1  0  0  0
 12 13  1  0  0  0
 13 14  2  0  0  0
 14  6  1  0  0  0
 13  9  1  0  0  0
 19 15  1  0  0  0
 26 21  1  0  0  0
  1  4  1  0  0  0
M  END
> <minimizedAffinity>
-9.03163

$$$$
OCNT-2309670


 33 37  0  0  0  0  0  0  0  0999 V2000
   -5.9413   26.0460    1.4102 O   0  0  0  0  0  0  0  0  0  0  0  0
   -5.7134   25.6720    2.5577 C   0  0  0  0  0  0  0  0  0  0  0  0
   -5.5862   26.5441    3.6316 N   0  0  0  0  0  0  0  0  0  0  0  0
   -5.8407   27.9673    3.3987 C   0  0  0  0  0  0  0  0  0  0  0  0
   -6.0781   28.7361    4.7062 C   0  0  0  0  0  0  0  0  0  0  0  0
   -4.9197   28.6146    5.6227 N   0  0  0  0  0  0  0  0  0  0  0  0
   -4.1827   27.3339    5.5494 C   0  0  0  0  0  0  0  0  0  0  0  0
   -5.0260   26.1945    4.9433 C   0  0  0  0  0  0  0  0  0  0  0  0
   -4.9744   29.2921    6.8152 C   0  0  0  0  0  0  0  0  0  0  0  0
   -6.0108   29.1984    7.6673 N   0  0  0  0  0  0  0  0  0  0  0  0
   -5.5564   30.0873    8.8603 S   0  0  0  0  0  0  0  0  0  0  0  0
   -5.3479   29.1172   10.1372 O   0  0  0  0  0  0  0  0  0  0  0  0
   -6.7178   31.0631    9.3895 O   0  0  0  0  0  0  0  0  0  0  0  0
   -4.1616   30.8117    8.5120 C   0  0  0  0  0  0  0  0  0  0  0  0
   -3.3282   31.7456    9.1404 C   0  0  0  0  0  0  0  0  0  0  0  0
   -2.1700   32.1462    8.4710 C   0  0  0  0  0  0  0  0  0  0  0  0
   -1.8625   31.6395    7.2127 C   0  0  0  0  0  0  0  0  0  0  0  0
   -2.7035   30.7094    6.5887 C   0  0  0  0  0  0  0  0  0  0  0  0
   -3.8821   30.2586    7.2386 C   0  0  0  0  0  0  0  0  0  0  0  0
   -5.5752   24.2202    2.8004 C   0  0  0  0  0  0  0  0  0  0  0  0
   -4.3432   23.5853    2.6264 C   0  0  0  0  0  0  0  0  0  0  0  0
   -4.2396   22.2201    2.8757 C   0  0  0  0  0  0  0  0  0  0  0  0
   -5.3606   21.5038    3.3086 C   0  0  0  0  0  0  0  0  0  0  0  0
   -6.6007   22.1337    3.5052 C   0  0  0  0  0  0  0  0  0  0  0  0
   -6.6900   23.5060    3.2539 C   0  0  0  0  0  0  0  0  0  0  0  0
   -7.6807   21.3735    3.9854 N   0  0  0  0  0  0  0  0  0  0  0  0
   -7.7921   20.4731    3.5333 H   0  0  0  0  0  0  0  0  0  0  0  0
   -8.5700   21.5717    5.0577 C   0  0  0  0  0  0  0  0  0  0  0  0
   -8.0542   22.0033    6.2894 C   0  0  0  0  0  0  0  0  0  0  0  0
   -8.8845   22.1771    7.4006 C   0  0  0  0  0  0  0  0  0  0  0  0
  -10.2474   21.9147    7.2978 C   0  0  0  0  0  0  0  0  0  0  0  0
  -10.7760   21.4793    6.0860 C   0  0  0  0  0  0  0  0  0  0  0  0
   -9.9413   21.3060    4.9773 C   0  0  0  0  0  0  0  0  0  0  0  0
  1  2  2  0  0  0
  2 20  1  0  0  0
 20 21  1  0  0  0
 21 22  2  0  0  0
 22 23  1  0  0  0
 23 24  2  0  0  0
 24 26  1  0  0  0
 26 28  1  0  0  0
 28 29  2  0  0  0
 29 30  1  0  0  0
 30 31  2  0  0  0
 31 32  1  0  0  0
 32 33  2  0  0  0
 24 25  1  0  0  0
  2  3  1  0  0  0
  3  4  1  0  0  0
  4  5  1  0  0  0
  5  6  1  0  0  0
  6  9  1  0  0  0
  9 10  2  0  0  0
 10 11  1  0  0  0
 11 12  2  0  0  0
 11 13  2  0  0  0
 11 14  1  0  0  0
 14 15  2  0  0  0
 15 16  1  0  0  0
 16 17  2  0  0  0
 17 18  1  0  0  0
 18 19  2  0  0  0
  6  7  1  0  0  0
  7  8  1  0  0  0
 25 20  2  0  0  0
  8  3  1  0  0  0
 33 28  1  0  0  0
 19  9  1  0  0  0
 19 14  1  0  0  0
 26 27  1  0  0  0
M  END
> <minimizedAffinity>
-11.14072

$$$$
OCNT-2309676


 27 29  0  0  0  0  0  0  0  0999 V2000
   -5.3974   28.2821    5.2139 N   0  0  0  0  0  0  0  0  0  0  0  0
   -6.2050   28.8613    6.1817 C   0  0  0  0  0  0  0  0  0  0  0  0
   -7.3020   28.4467    6.5425 O   0  0  0  0  0  0  0  0  0  0  0  0
   -4.5324   28.7637    4.9953 H   0  0  0  0  0  0  0  0  0  0  0  0
   -6.3097   23.7147    1.8447 C   0  0  0  0  0  0  0  0  0  0  0  0
   -6.1054   24.8482    2.8172 C   0  0  0  0  0  0  0  0  0  0  0  0
   -5.6271   26.0598    2.2843 C   0  0  0  0  0  0  0  0  0  0  0  0
   -5.4031   27.1746    3.0931 C   0  0  0  0  0  0  0  0  0  0  0  0
   -5.6502   27.1145    4.4625 C   0  0  0  0  0  0  0  0  0  0  0  0
   -6.1236   25.9182    5.0081 C   0  0  0  0  0  0  0  0  0  0  0  0
   -6.3585   24.7769    4.2072 C   0  0  0  0  0  0  0  0  0  0  0  0
   -6.8441   23.5956    4.8458 N   0  0  0  0  0  0  0  0  0  0  0  0
   -8.0750   22.9858    4.7323 C   0  0  0  0  0  0  0  0  0  0  0  0
   -8.1137   21.9170    5.4947 N   0  0  0  0  0  0  0  0  0  0  0  0
   -6.8903   21.8506    6.0967 N   0  0  0  0  0  0  0  0  0  0  0  0
   -6.1174   22.8552    5.7137 N   0  0  0  0  0  0  0  0  0  0  0  0
   -5.5703   30.1053    6.8031 C   0  0  0  0  0  0  0  0  0  0  0  0
   -6.5452   30.8313    7.7347 C   0  0  0  0  0  0  0  0  0  0  0  0
   -5.8502   32.0040    8.4159 C   0  0  0  0  0  0  0  0  0  0  0  0
   -4.5730   31.5528    9.1235 C   0  0  0  0  0  0  0  0  0  0  0  0
   -3.6526   30.8757    8.1934 N   0  0  0  0  0  0  0  0  0  0  0  0
   -4.2964   29.7077    7.5667 C   0  0  0  0  0  0  0  0  0  0  0  0
   -2.3982   30.5015    8.9118 C   0  0  0  0  0  0  0  0  0  0  0  0
   -1.4455   31.6232    9.3746 C   0  0  0  0  0  0  0  0  0  0  0  0
   -1.4461   32.6647    8.5108 F   0  0  0  0  0  0  0  0  0  0  0  0
   -1.7751   32.0978   10.5958 F   0  0  0  0  0  0  0  0  0  0  0  0
   -0.1740   31.1636    9.4446 F   0  0  0  0  0  0  0  0  0  0  0  0
  5  6  1  0  0  0
  6  7  1  0  0  0
  7  8  2  0  0  0
  8  9  1  0  0  0
  9  1  1  0  0  0
  1  2  1  0  0  0
  2  3  2  0  0  0
  2 17  1  0  0  0
 17 18  1  0  0  0
 18 19  1  0  0  0
 19 20  1  0  0  0
 20 21  1  0  0  0
 21 23  1  0  0  0
 23 24  1  0  0  0
 24 25  1  0  0  0
 24 26  1  0  0  0
 24 27  1  0  0  0
 21 22  1  0  0  0
  9 10  2  0  0  0
 10 11  1  0  0  0
 11 12  1  0  0  0
 12 13  1  0  0  0
 13 14  2  0  0  0
 14 15  1  0  0  0
 15 16  2  0  0  0
 11  6  2  0  0  0
 16 12  1  0  0  0
 22 17  1  0  0  0
  1  4  1  0  0  0
M  END
> <minimizedAffinity>
-9.07834

$$$$
OCNT-2309692


 36 39  0  0  0  0  0  0  0  0999 V2000
   -4.5243   25.9367    4.0209 N   0  0  0  0  0  0  0  0  0  0  0  0
   -3.4749   25.4806    3.3038 C   0  0  0  0  0  0  0  0  0  0  0  0
   -2.4669   26.1114    3.0275 O   0  0  0  0  0  0  0  0  0  0  0  0
   -3.7412   24.2117    2.8757 N   0  0  0  0  0  0  0  0  0  0  0  0
   -5.1220   23.7964    3.1424 C   0  0  0  0  0  0  0  0  0  0  0  0
   -5.5469   25.0290    3.9960 C   0  0  0  0  0  0  0  0  0  0  0  0
   -6.6222   25.1914    4.5588 O   0  0  0  0  0  0  0  0  0  0  0  0
   -3.1375   23.7880    2.1845 H   0  0  0  0  0  0  0  0  0  0  0  0
   -5.8575   23.6527    1.8083 C   0  0  0  0  0  0  0  0  0  0  0  0
   -6.1303   22.4021    1.2303 C   0  0  0  0  0  0  0  0  0  0  0  0
   -6.7964   22.3043    0.0052 C   0  0  0  0  0  0  0  0  0  0  0  0
   -7.1965   23.4526   -0.6707 C   0  0  0  0  0  0  0  0  0  0  0  0
   -6.9254   24.7029   -0.1266 C   0  0  0  0  0  0  0  0  0  0  0  0
   -6.2598   24.8028    1.0972 C   0  0  0  0  0  0  0  0  0  0  0  0
   -4.5858   27.2424    4.6457 C   0  0  0  0  0  0  0  0  0  0  0  0
   -3.1784   28.6984    6.0057 N   0  0  0  0  0  0  0  0  0  0  0  0
   -3.5078   27.3803    5.7247 C   0  0  0  0  0  0  0  0  0  0  0  0
   -2.9769   26.3848    6.2090 O   0  0  0  0  0  0  0  0  0  0  0  0
   -3.6678   29.4164    5.4688 H   0  0  0  0  0  0  0  0  0  0  0  0
   -1.7824   30.7925    8.7157 C   0  0  0  0  0  0  0  0  0  0  0  0
   -0.5109   30.2361    8.8902 C   0  0  0  0  0  0  0  0  0  0  0  0
   -0.1115   29.1578    8.1020 C   0  0  0  0  0  0  0  0  0  0  0  0
   -0.9755   28.6298    7.1377 C   0  0  0  0  0  0  0  0  0  0  0  0
   -2.2466   29.1742    6.9504 C   0  0  0  0  0  0  0  0  0  0  0  0
   -2.6443   30.2566    7.7460 C   0  0  0  0  0  0  0  0  0  0  0  0
   -2.2674   31.9442    9.5239 C   0  0  0  0  0  0  0  0  0  0  0  0
   -2.0821   32.0490   10.7261 O   0  0  0  0  0  0  0  0  0  0  0  0
   -4.1437   33.3191    9.3196 C   0  0  0  0  0  0  0  0  0  0  0  0
   -2.9298   32.8342    8.7439 O   0  0  0  0  0  0  0  0  0  0  0  0
   -5.1092   22.5098    4.0037 C   0  0  0  0  0  0  0  0  0  0  0  0
   -6.2871   22.2950    4.9286 C   0  0  0  0  0  0  0  0  0  0  0  0
   -7.5683   22.0588    4.4095 C   0  0  0  0  0  0  0  0  0  0  0  0
   -8.6564   21.8623    5.2618 C   0  0  0  0  0  0  0  0  0  0  0  0
   -8.4768   21.8949    6.6421 C   0  0  0  0  0  0  0  0  0  0  0  0
   -7.2088   22.1241    7.1705 C   0  0  0  0  0  0  0  0  0  0  0  0
   -6.1198   22.3210    6.3194 C   0  0  0  0  0  0  0  0  0  0  0  0
 28 29  1  0  0  0
 29 26  1  0  0  0
 26 27  2  0  0  0
 26 20  1  0  0  0
 20 21  1  0  0  0
 21 22  2  0  0  0
 22 23  1  0  0  0
 23 24  2  0  0  0
 24 16  1  0  0  0
 16 17  1  0  0  0
 17 18  2  0  0  0
 17 15  1  0  0  0
 15  1  1  0  0  0
  1  2  1  0  0  0
  2  3  2  0  0  0
  2  4  1  0  0  0
  4  5  1  0  0  0
  5 30  1  0  0  0
 30 31  1  0  0  0
 31 32  2  0  0  0
 32 33  1  0  0  0
 33 34  2  0  0  0
 34 35  1  0  0  0
 35 36  2  0  0  0
  5  9  1  0  0  0
  9 10  2  0  0  0
 10 11  1  0  0  0
 11 12  2  0  0  0
 12 13  1  0  0  0
 13 14  2  0  0  0
  5  6  1  0  0  0
  6  7  2  0  0  0
 24 25  1  0  0  0
 25 20  2  0  0  0
  6  1  1  0  0  0
 36 31  1  0  0  0
 14  9  1  0  0  0
 16 19  1  0  0  0
  4  8  1  0  0  0
M  END
> <minimizedAffinity>
-10.89499

$$$$
OCNT-2309697


 23 25  0  0  0  0  0  0  0  0999 V2000
   -2.1979   26.0091    5.2948 C   0  0  0  0  0  0  0  0  0  0  0  0
   -2.1038   25.7208    3.7946 C   0  0  0  0  0  0  0  0  0  0  0  0
   -3.3457   26.3636    3.1969 C   0  0  0  0  0  0  0  0  0  0  0  0
   -4.3209   26.2431    4.2864 N   0  0  0  0  0  0  0  0  0  0  0  0
   -3.5715   26.6528    5.4817 C   0  0  0  0  0  0  0  0  0  0  0  0
   -0.0607   27.1538    5.2288 O   0  0  0  0  0  0  0  0  0  0  0  0
   -1.1120   26.9321    5.8196 C   0  0  0  0  0  0  0  0  0  0  0  0
   -1.4286   27.5185    7.0256 N   0  0  0  0  0  0  0  0  0  0  0  0
   -2.1877   27.1357    7.5744 H   0  0  0  0  0  0  0  0  0  0  0  0
   -0.4697   28.3554    7.7086 C   0  0  0  0  0  0  0  0  0  0  0  0
   -1.0105   29.7490    7.8776 C   0  0  0  0  0  0  0  0  0  0  0  0
   -1.8116   30.3300    6.8846 C   0  0  0  0  0  0  0  0  0  0  0  0
   -2.2866   31.6343    7.0330 C   0  0  0  0  0  0  0  0  0  0  0  0
   -1.9599   32.3713    8.1699 C   0  0  0  0  0  0  0  0  0  0  0  0
   -1.1564   31.8071    9.1588 C   0  0  0  0  0  0  0  0  0  0  0  0
   -0.6806   30.5034    9.0127 C   0  0  0  0  0  0  0  0  0  0  0  0
   -5.5190   27.0635    4.0891 C   0  0  0  0  0  0  0  0  0  0  0  0
   -5.5977   28.1803    5.1250 C   0  0  0  0  0  0  0  0  0  0  0  0
   -6.1234   29.5565    4.6429 C   0  0  0  0  0  0  0  0  0  0  0  0
   -6.8605   29.6787    5.9947 C   0  0  0  0  0  0  0  0  0  0  0  0
   -6.1797   30.3205    6.9720 F   0  0  0  0  0  0  0  0  0  0  0  0
   -8.0922   30.2321    5.9463 F   0  0  0  0  0  0  0  0  0  0  0  0
   -6.8231   28.1344    6.0704 C   0  0  0  0  0  0  0  0  0  0  0  0
  6  7  2  0  0  0
  7  8  1  0  0  0
  8 10  1  0  0  0
 10 11  1  0  0  0
 11 12  2  0  0  0
 12 13  1  0  0  0
 13 14  2  0  0  0
 14 15  1  0  0  0
 15 16  2  0  0  0
  7  1  1  0  0  0
  1  2  1  0  0  0
  2  3  1  0  0  0
  3  4  1  0  0  0
  4 17  1  0  0  0
 17 18  1  0  0  0
 18 19  1  0  0  0
 19 20  1  0  0  0
 20 21  1  0  0  0
 20 22  1  0  0  0
 20 23  1  0  0  0
  4  5  1  0  0  0
 16 11  1  0  0  0
  5  1  1  0  0  0
 23 18  1  0  0  0
  8  9  1  0  0  0
M  END
> <minimizedAffinity>
-8.69560

$$$$
OCNT-2309699


 28 31  0  0  0  0  0  0  0  0999 V2000
   -1.8461   26.4056    3.7464 O   0  0  0  0  0  0  0  0  0  0  0  0
   -2.5618   25.8982    4.6026 C   0  0  0  0  0  0  0  0  0  0  0  0
   -3.7861   25.2966    4.3876 N   0  0  0  0  0  0  0  0  0  0  0  0
   -4.2422   24.8936    5.2003 H   0  0  0  0  0  0  0  0  0  0  0  0
   -4.4624   25.1115    3.1576 C   0  0  0  0  0  0  0  0  0  0  0  0
   -4.2231   24.0501    2.2876 C   0  0  0  0  0  0  0  0  0  0  0  0
   -4.8643   23.8702    1.1051 N   0  0  0  0  0  0  0  0  0  0  0  0
   -5.7874   24.7896    0.7664 C   0  0  0  0  0  0  0  0  0  0  0  0
   -6.1055   25.8817    1.5547 C   0  0  0  0  0  0  0  0  0  0  0  0
   -5.4418   26.0533    2.7765 C   0  0  0  0  0  0  0  0  0  0  0  0
   -5.7989   27.1910    3.6321 C   0  0  0  0  0  0  0  0  0  0  0  0
   -6.2051   26.9914    4.9579 C   0  0  0  0  0  0  0  0  0  0  0  0
   -6.6098   28.0706    5.7452 C   0  0  0  0  0  0  0  0  0  0  0  0
   -6.6081   29.3592    5.2173 C   0  0  0  0  0  0  0  0  0  0  0  0
   -6.1973   29.5736    3.9048 C   0  0  0  0  0  0  0  0  0  0  0  0
   -5.7964   28.4961    3.1162 C   0  0  0  0  0  0  0  0  0  0  0  0
   -2.1660   25.9131    6.0736 C   0  0  0  0  0  0  0  0  0  0  0  0
   -1.9319   27.3081    6.6083 C   0  0  0  0  0  0  0  0  0  0  0  0
   -0.7078   27.6544    7.1993 C   0  0  0  0  0  0  0  0  0  0  0  0
   -0.4830   28.9567    7.6564 C   0  0  0  0  0  0  0  0  0  0  0  0
    1.0555   29.3219    8.3579 Cl  0  0  0  0  0  0  0  0  0  0  0  0
   -1.4770   29.9307    7.5292 C   0  0  0  0  0  0  0  0  0  0  0  0
   -1.2096   31.2029    7.9721 O   0  0  0  0  0  0  0  0  0  0  0  0
   -2.1494   32.1540    7.4687 C   0  0  0  0  0  0  0  0  0  0  0  0
   -3.5642   31.6318    7.6191 C   0  0  0  0  0  0  0  0  0  0  0  0
   -3.7516   30.4532    6.8280 O   0  0  0  0  0  0  0  0  0  0  0  0
   -2.7093   29.5782    6.9672 C   0  0  0  0  0  0  0  0  0  0  0  0
   -2.9312   28.2832    6.4976 C   0  0  0  0  0  0  0  0  0  0  0  0
  1  2  2  0  0  0
  2 17  1  0  0  0
 17 18  1  0  0  0
 18 19  1  0  0  0
 19 20  2  0  0  0
 20 21  1  0  0  0
 20 22  1  0  0  0
 22 23  1  0  0  0
 23 24  1  0  0  0
 24 25  1  0  0  0
 25 26  1  0  0  0
 26 27  1  0  0  0
 27 28  1  0  0  0
  2  3  1  0  0  0
  3  5  1  0  0  0
  5  6  2  0  0  0
  6  7  1  0  0  0
  7  8  2  0  0  0
  8  9  1  0  0  0
  9 10  2  0  0  0
 10 11  1  0  0  0
 11 12  2  0  0  0
 12 13  1  0  0  0
 13 14  2  0  0  0
 14 15  1  0  0  0
 15 16  2  0  0  0
 28 18  2  0  0  0
 10  5  1  0  0  0
 16 11  1  0  0  0
 27 22  2  0  0  0
  3  4  1  0  0  0
M  END
> <minimizedAffinity>
-10.16161

$$$$
OCNT-2309702


 29 32  0  0  0  0  0  0  0  0999 V2000
   -3.5778   27.2420    5.2753 C   0  0  0  0  0  0  0  0  0  0  0  0
   -3.8495   26.3330    4.2613 C   0  0  0  0  0  0  0  0  0  0  0  0
   -2.7105   25.5313    3.9301 C   0  0  0  0  0  0  0  0  0  0  0  0
   -1.6068   25.8577    4.6830 C   0  0  0  0  0  0  0  0  0  0  0  0
   -1.9319   27.1243    5.7746 S   0  0  0  0  0  0  0  0  0  0  0  0
   -5.5308   28.0068    6.3759 O   0  0  0  0  0  0  0  0  0  0  0  0
   -4.4055   28.2442    5.9384 C   0  0  0  0  0  0  0  0  0  0  0  0
   -3.8767   29.5154    6.0093 N   0  0  0  0  0  0  0  0  0  0  0  0
   -3.0659   29.7400    5.4391 H   0  0  0  0  0  0  0  0  0  0  0  0
   -4.6726   30.6443    6.4549 C   0  0  0  0  0  0  0  0  0  0  0  0
   -3.7875   31.8652    6.8116 C   0  0  0  0  0  0  0  0  0  0  0  0
   -4.5037   32.7817    7.8253 C   0  0  0  0  0  0  0  0  0  0  0  0
   -4.1898   32.3877    9.2637 C   0  0  0  0  0  0  0  0  0  0  0  0
   -2.6808   32.3772    9.5203 C   0  0  0  0  0  0  0  0  0  0  0  0
   -1.8584   32.3348    8.2314 C   0  0  0  0  0  0  0  0  0  0  0  0
   -2.4456   31.4139    7.2628 N   0  0  0  0  0  0  0  0  0  0  0  0
   -2.5270   30.4933    7.6957 H   0  0  0  0  0  0  0  0  0  0  0  0
   -5.3888   26.2138    3.4604 S   0  0  0  0  0  0  0  0  0  0  0  0
   -6.2225   25.5983    4.4772 O   0  0  0  0  0  0  0  0  0  0  0  0
   -5.6340   27.5648    3.0069 O   0  0  0  0  0  0  0  0  0  0  0  0
   -5.3338   25.1681    2.1471 N   0  0  0  0  0  0  0  0  0  0  0  0
   -6.0535   25.5599    0.9036 C   0  0  0  0  0  0  0  0  0  0  0  0
   -6.2616   24.2567    0.1112 C   0  0  0  0  0  0  0  0  0  0  0  0
   -5.9878   23.2032    1.1375 C   0  0  0  0  0  0  0  0  0  0  0  0
   -6.1691   21.8348    1.0098 C   0  0  0  0  0  0  0  0  0  0  0  0
   -5.7808   21.0155    2.0706 C   0  0  0  0  0  0  0  0  0  0  0  0
   -5.2017   21.5682    3.2227 C   0  0  0  0  0  0  0  0  0  0  0  0
   -5.0149   22.9493    3.3357 C   0  0  0  0  0  0  0  0  0  0  0  0
   -5.4434   23.7559    2.2975 C   0  0  0  0  0  0  0  0  0  0  0  0
  6  7  2  0  0  0
  7  8  1  0  0  0
  8 10  1  0  0  0
 10 11  1  0  0  0
 11 12  1  0  0  0
 12 13  1  0  0  0
 13 14  1  0  0  0
 14 15  1  0  0  0
 15 16  1  0  0  0
  7  1  1  0  0  0
  1  2  2  0  0  0
  2 18  1  0  0  0
 18 19  2  0  0  0
 18 20  2  0  0  0
 18 21  1  0  0  0
 21 22  1  0  0  0
 22 23  1  0  0  0
 23 24  1  0  0  0
 24 25  2  0  0  0
 25 26  1  0  0  0
 26 27  2  0  0  0
 27 28  1  0  0  0
 28 29  2  0  0  0
  2  3  1  0  0  0
  3  4  2  0  0  0
  4  5  1  0  0  0
 16 11  1  0  0  0
  5  1  1  0  0  0
 29 21  1  0  0  0
 29 24  1  0  0  0
  8  9  1  0  0  0
 16 17  1  0  0  0
M  END
> <minimizedAffinity>
-9.67309

$$$$
OCNT-2309728


 28 31  0  0  0  0  0  0  0  0999 V2000
   -2.7387   31.7273    8.7178 S   0  0  0  0  0  0  0  0  0  0  0  0
   -2.0198   32.1836    7.5465 O   0  0  0  0  0  0  0  0  0  0  0  0
   -2.9202   32.5925    9.8633 O   0  0  0  0  0  0  0  0  0  0  0  0
   -4.3229   31.1484    8.1719 C   0  0  0  0  0  0  0  0  0  0  0  0
   -5.4741   31.4987    8.8788 C   0  0  0  0  0  0  0  0  0  0  0  0
   -6.7104   31.0391    8.4341 C   0  0  0  0  0  0  0  0  0  0  0  0
   -6.7898   30.2415    7.2876 C   0  0  0  0  0  0  0  0  0  0  0  0
   -5.6392   29.8894    6.5587 C   0  0  0  0  0  0  0  0  0  0  0  0
   -4.3990   30.3602    7.0173 C   0  0  0  0  0  0  0  0  0  0  0  0
   -5.7321   29.0547    5.3491 C   0  0  0  0  0  0  0  0  0  0  0  0
   -5.5760   27.6598    5.4169 C   0  0  0  0  0  0  0  0  0  0  0  0
   -5.6615   26.8675    4.2685 C   0  0  0  0  0  0  0  0  0  0  0  0
   -5.9060   27.4572    3.0312 C   0  0  0  0  0  0  0  0  0  0  0  0
   -6.0645   28.8375    2.9411 C   0  0  0  0  0  0  0  0  0  0  0  0
   -5.9779   29.6285    4.0901 C   0  0  0  0  0  0  0  0  0  0  0  0
   -1.9726   30.3005    9.2097 N   0  0  0  0  0  0  0  0  0  0  0  0
   -2.5361   29.8152    9.9072 H   0  0  0  0  0  0  0  0  0  0  0  0
   -0.5294   25.3199    4.1730 O   0  0  0  0  0  0  0  0  0  0  0  0
   -0.6307   26.2180    4.9916 C   0  0  0  0  0  0  0  0  0  0  0  0
   -1.8102   26.4662    5.9399 C   0  0  0  0  0  0  0  0  0  0  0  0
   -1.3588   27.6834    6.6907 C   0  0  0  0  0  0  0  0  0  0  0  0
   -1.9970   28.3961    7.6890 C   0  0  0  0  0  0  0  0  0  0  0  0
   -1.3373   29.5122    8.2126 C   0  0  0  0  0  0  0  0  0  0  0  0
   -0.0739   29.9037    7.7312 C   0  0  0  0  0  0  0  0  0  0  0  0
    0.5618   29.1737    6.7229 C   0  0  0  0  0  0  0  0  0  0  0  0
   -0.1043   28.0745    6.2263 C   0  0  0  0  0  0  0  0  0  0  0  0
    0.3157   27.2075    5.2319 N   0  0  0  0  0  0  0  0  0  0  0  0
    1.1866   27.2622    4.7257 H   0  0  0  0  0  0  0  0  0  0  0  0
 18 19  2  0  0  0
 19 20  1  0  0  0
 20 21  1  0  0  0
 21 22  1  0  0  0
 22 23  2  0  0  0
 23 16  1  0  0  0
 16  1  1  0  0  0
  1  2  2  0  0  0
  1  3  2  0  0  0
  1  4  1  0  0  0
  4  5  2  0  0  0
  5  6  1  0  0  0
  6  7  2  0  0  0
  7  8  1  0  0  0
  8 10  1  0  0  0
 10 11  2  0  0  0
 11 12  1  0  0  0
 12 13  2  0  0  0
 13 14  1  0  0  0
 14 15  2  0  0  0
  8  9  2  0  0  0
 23 24  1  0  0  0
 24 25  2  0  0  0
 25 26  1  0  0  0
 26 27  1  0  0  0
 27 19  1  0  0  0
 26 21  2  0  0  0
  9  4  1  0  0  0
 15 10  1  0  0  0
 16 17  1  0  0  0
 27 28  1  0  0  0
M  END
> <minimizedAffinity>
-10.57862

$$$$
OCNT-2309730


 32 37  0  0  0  0  0  0  0  0999 V2000
   -7.6541   30.7124    6.8015 C   0  0  0  0  0  0  0  0  0  0  0  0
   -6.6312   29.7384    6.2945 C   0  0  0  0  0  0  0  0  0  0  0  0
   -7.0095   28.7079    5.4166 C   0  0  0  0  0  0  0  0  0  0  0  0
   -6.0778   27.7695    4.9533 C   0  0  0  0  0  0  0  0  0  0  0  0
   -4.7691   27.8460    5.4005 C   0  0  0  0  0  0  0  0  0  0  0  0
   -4.3881   28.8799    6.2595 C   0  0  0  0  0  0  0  0  0  0  0  0
   -5.3025   29.8201    6.7226 C   0  0  0  0  0  0  0  0  0  0  0  0
   -2.9178   28.8337    6.5639 C   0  0  0  0  0  0  0  0  0  0  0  0
   -2.6311   28.5032    8.0321 C   0  0  0  0  0  0  0  0  0  0  0  0
   -1.2205   28.2046    8.3120 N   0  0  0  0  0  0  0  0  0  0  0  0
   -0.4762   29.3818    8.7503 C   0  0  0  0  0  0  0  0  0  0  0  0
   -0.5261   27.5145    7.2168 C   0  0  0  0  0  0  0  0  0  0  0  0
   -1.4789   26.7386    6.3112 C   0  0  0  0  0  0  0  0  0  0  0  0
   -2.4358   27.7131    5.6117 C   0  0  0  0  0  0  0  0  0  0  0  0
   -3.6482   27.0509    5.0761 N   0  0  0  0  0  0  0  0  0  0  0  0
   -3.5438   26.0166    4.1588 C   0  0  0  0  0  0  0  0  0  0  0  0
   -2.4994   25.7557    3.5607 O   0  0  0  0  0  0  0  0  0  0  0  0
   -4.6795   25.1091    3.9324 C   0  0  0  0  0  0  0  0  0  0  0  0
   -5.1219   24.8212    2.6500 C   0  0  0  0  0  0  0  0  0  0  0  0
   -6.1813   24.0205    2.3913 N   0  0  0  0  0  0  0  0  0  0  0  0
   -6.8396   23.5193    3.4674 C   0  0  0  0  0  0  0  0  0  0  0  0
   -6.5015   23.7658    4.8015 C   0  0  0  0  0  0  0  0  0  0  0  0
   -5.3919   24.5936    5.0182 C   0  0  0  0  0  0  0  0  0  0  0  0
   -7.2716   23.1959    5.9175 C   0  0  0  0  0  0  0  0  0  0  0  0
   -6.6681   22.2961    6.8303 C   0  0  0  0  0  0  0  0  0  0  0  0
   -7.3869   21.7403    7.8944 C   0  0  0  0  0  0  0  0  0  0  0  0
   -8.7072   22.1030    8.0391 C   0  0  0  0  0  0  0  0  0  0  0  0
   -9.5353   21.6350    9.0250 O   0  0  0  0  0  0  0  0  0  0  0  0
  -10.6973   22.4929    8.9282 C   0  0  0  0  0  0  0  0  0  0  0  0
  -10.7506   23.1115    7.5303 C   0  0  0  0  0  0  0  0  0  0  0  0
   -9.3237   22.9783    7.1627 C   0  0  0  0  0  0  0  0  0  0  0  0
   -8.6286   23.5288    6.0982 C   0  0  0  0  0  0  0  0  0  0  0  0
  1  2  1  0  0  0
  2  3  1  0  0  0
  3  4  2  0  0  0
  4  5  1  0  0  0
  5  6  2  0  0  0
  6  7  1  0  0  0
  6  8  1  0  0  0
  8  9  1  0  0  0
  9 10  1  0  0  0
 10 11  1  0  0  0
 10 12  1  0  0  0
 12 13  1  0  0  0
 13 14  1  0  0  0
 14 15  1  0  0  0
 15 16  1  0  0  0
 16 17  2  0  0  0
 16 18  1  0  0  0
 18 19  1  0  0  0
 19 20  2  0  0  0
 20 21  1  0  0  0
 21 22  2  0  0  0
 22 24  1  0  0  0
 24 25  1  0  0  0
 25 26  2  0  0  0
 26 27  1  0  0  0
 27 28  1  0  0  0
 28 29  1  0  0  0
 29 30  1  0  0  0
 30 31  1  0  0  0
 31 32  1  0  0  0
 22 23  1  0  0  0
  7  2  2  0  0  0
 14  8  1  0  0  0
 23 18  2  0  0  0
 15  5  1  0  0  0
 32 24  2  0  0  0
 31 27  2  0  0  0
M  END
> <minimizedAffinity>
-10.73096

$$$$
OCNT-2309752


 38 43  0  0  0  0  0  0  0  0999 V2000
   -1.2595   26.3031    3.5386 N   0  0  0  0  0  0  0  0  0  0  0  0
   -2.4839   25.7830    3.7904 C   0  0  0  0  0  0  0  0  0  0  0  0
   -3.0360   24.9496    2.9740 N   0  0  0  0  0  0  0  0  0  0  0  0
   -4.2645   24.4809    3.3123 C   0  0  0  0  0  0  0  0  0  0  0  0
   -4.9802   23.5488    2.7154 N   0  0  0  0  0  0  0  0  0  0  0  0
   -6.1391   23.4285    3.4421 C   0  0  0  0  0  0  0  0  0  0  0  0
   -7.2381   22.5837    3.2312 C   0  0  0  0  0  0  0  0  0  0  0  0
   -8.3024   22.6279    4.1386 C   0  0  0  0  0  0  0  0  0  0  0  0
   -8.2860   23.5154    5.2205 C   0  0  0  0  0  0  0  0  0  0  0  0
   -7.2126   24.3911    5.4250 C   0  0  0  0  0  0  0  0  0  0  0  0
   -6.1484   24.3085    4.5203 C   0  0  0  0  0  0  0  0  0  0  0  0
   -4.9607   24.9757    4.3920 N   0  0  0  0  0  0  0  0  0  0  0  0
   -4.3921   26.0138    5.2365 C   0  0  0  0  0  0  0  0  0  0  0  0
   -2.9818   26.2554    4.9624 N   0  0  0  0  0  0  0  0  0  0  0  0
   -9.3447   23.6566    6.0804 O   0  0  0  0  0  0  0  0  0  0  0  0
   -9.6050   22.4593    6.8138 C   0  0  0  0  0  0  0  0  0  0  0  0
  -10.4402   21.4703    6.0160 C   0  0  0  0  0  0  0  0  0  0  0  0
   -9.6374   20.8754    4.8698 C   0  0  0  0  0  0  0  0  0  0  0  0
   -9.3822   21.8362    3.8460 O   0  0  0  0  0  0  0  0  0  0  0  0
   -0.8465   25.8374    2.7336 H   0  0  0  0  0  0  0  0  0  0  0  0
   -0.6344   26.2395    4.3332 H   0  0  0  0  0  0  0  0  0  0  0  0
   -2.6876   27.2026    5.1695 H   0  0  0  0  0  0  0  0  0  0  0  0
   -5.1642   27.3190    5.1220 C   0  0  0  0  0  0  0  0  0  0  0  0
   -5.5286   27.8537    3.8765 C   0  0  0  0  0  0  0  0  0  0  0  0
   -6.2230   29.0605    3.8017 C   0  0  0  0  0  0  0  0  0  0  0  0
   -6.5605   29.7553    4.9654 C   0  0  0  0  0  0  0  0  0  0  0  0
   -6.2040   29.2457    6.2120 C   0  0  0  0  0  0  0  0  0  0  0  0
   -5.5007   28.0381    6.2822 C   0  0  0  0  0  0  0  0  0  0  0  0
   -6.4563   29.8209    7.4266 O   0  0  0  0  0  0  0  0  0  0  0  0
   -6.0184   31.1658    7.6479 C   0  0  0  0  0  0  0  0  0  0  0  0
   -4.5740   31.2386    8.0775 C   0  0  0  0  0  0  0  0  0  0  0  0
   -4.2001   31.1046    9.4239 C   0  0  0  0  0  0  0  0  0  0  0  0
   -2.8577   31.2056    9.7948 C   0  0  0  0  0  0  0  0  0  0  0  0
   -1.8916   31.4511    8.8243 C   0  0  0  0  0  0  0  0  0  0  0  0
   -0.6058   31.5484    9.1857 F   0  0  0  0  0  0  0  0  0  0  0  0
   -2.2394   31.6015    7.4901 C   0  0  0  0  0  0  0  0  0  0  0  0
   -3.5778   31.4990    7.1298 C   0  0  0  0  0  0  0  0  0  0  0  0
   -3.9108   31.6498    5.8401 F   0  0  0  0  0  0  0  0  0  0  0  0
  1  2  1  0  0  0
  2  3  2  0  0  0
  3  4  1  0  0  0
  4  5  2  0  0  0
  5  6  1  0  0  0
  6  7  2  0  0  0
  7  8  1  0  0  0
  8  9  2  0  0  0
  9 10  1  0  0  0
 10 11  2  0  0  0
 11 12  1  0  0  0
 12 13  1  0  0  0
 13 23  1  0  0  0
 23 24  2  0  0  0
 24 25  1  0  0  0
 25 26  2  0  0  0
 26 27  1  0  0  0
 27 29  1  0  0  0
 29 30  1  0  0  0
 30 31  1  0  0  0
 31 32  1  0  0  0
 32 33  2  0  0  0
 33 34  1  0  0  0
 34 35  1  0  0  0
 34 36  2  0  0  0
 36 37  1  0  0  0
 37 38  1  0  0  0
 27 28  2  0  0  0
 13 14  1  0  0  0
  9 15  1  0  0  0
 15 16  1  0  0  0
 16 17  1  0  0  0
 17 18  1  0  0  0
 18 19  1  0  0  0
 14  2  1  0  0  0
 12  4  1  0  0  0
 28 23  1  0  0  0
 11  6  1  0  0  0
 37 31  2  0  0  0
 19  8  1  0  0  0
  1 20  1  0  0  0
  1 21  1  0  0  0
 14 22  1  0  0  0
M  END
> <minimizedAffinity>
-10.84746

$$$$
OCNT-2309755


 24 27  0  0  0  0  0  0  0  0999 V2000
   -4.7354   25.1512    5.0823 N   0  0  0  0  0  0  0  0  0  0  0  0
   -4.2614   24.3181    5.4449 H   0  0  0  0  0  0  0  0  0  0  0  0
   -5.6341   24.6931    3.9949 C   0  0  0  0  0  0  0  0  0  0  0  0
   -5.1746   25.0660    2.5822 C   0  0  0  0  0  0  0  0  0  0  0  0
   -6.0971   24.4803    1.5453 C   0  0  0  0  0  0  0  0  0  0  0  0
   -6.2750   25.1027    0.3046 C   0  0  0  0  0  0  0  0  0  0  0  0
   -7.0569   24.4938   -0.6781 C   0  0  0  0  0  0  0  0  0  0  0  0
   -7.6478   23.2540   -0.4346 C   0  0  0  0  0  0  0  0  0  0  0  0
   -7.4639   22.6206    0.7950 C   0  0  0  0  0  0  0  0  0  0  0  0
   -6.6994   23.2394    1.7833 C   0  0  0  0  0  0  0  0  0  0  0  0
   -6.5165   22.5997    3.0130 N   0  0  0  0  0  0  0  0  0  0  0  0
   -5.9373   23.1865    4.1087 C   0  0  0  0  0  0  0  0  0  0  0  0
   -5.7648   22.5397    5.1425 O   0  0  0  0  0  0  0  0  0  0  0  0
   -6.8338   21.6474    3.1414 H   0  0  0  0  0  0  0  0  0  0  0  0
   -3.6937   26.0807    4.6427 C   0  0  0  0  0  0  0  0  0  0  0  0
   -4.9838   30.2822    7.1065 C   0  0  0  0  0  0  0  0  0  0  0  0
   -4.2908   29.1226    6.6025 N   0  0  0  0  0  0  0  0  0  0  0  0
   -3.1127   28.7697    7.1522 N   0  0  0  0  0  0  0  0  0  0  0  0
   -2.7938   27.6437    6.5103 C   0  0  0  0  0  0  0  0  0  0  0  0
   -3.7434   27.2792    5.5249 C   0  0  0  0  0  0  0  0  0  0  0  0
   -4.6857   28.2880    5.5951 C   0  0  0  0  0  0  0  0  0  0  0  0
   -5.9778   28.3906    4.7427 C   0  0  0  0  0  0  0  0  0  0  0  0
   -5.8636   28.4165    3.2404 C   0  0  0  0  0  0  0  0  0  0  0  0
   -6.2708   29.6552    3.9782 C   0  0  0  0  0  0  0  0  0  0  0  0
 16 17  1  0  0  0
 17 18  1  0  0  0
 18 19  2  0  0  0
 19 20  1  0  0  0
 20 15  1  0  0  0
 15  1  1  0  0  0
  1  3  1  0  0  0
  3  4  1  0  0  0
  4  5  1  0  0  0
  5  6  2  0  0  0
  6  7  1  0  0  0
  7  8  2  0  0  0
  8  9  1  0  0  0
  9 10  2  0  0  0
 10 11  1  0  0  0
 11 12  1  0  0  0
 12 13  2  0  0  0
 20 21  2  0  0  0
 21 22  1  0  0  0
 22 23  1  0  0  0
 23 24  1  0  0  0
 21 17  1  0  0  0
 24 22  1  0  0  0
 12  3  1  0  0  0
 10  5  1  0  0  0
  1  2  1  0  0  0
 11 14  1  0  0  0
M  END
> <minimizedAffinity>
-8.79630

$$$$
OCNT-2309757


 23 25  0  0  0  0  0  0  0  0999 V2000
   -3.6075   25.9618    3.1782 C   0  0  0  0  0  0  0  0  0  0  0  0
   -4.4754   26.8275    3.8135 C   0  0  0  0  0  0  0  0  0  0  0  0
   -5.8326   27.3288    3.4592 C   0  0  0  0  0  0  0  0  0  0  0  0
   -6.2083   28.5709    4.2710 C   0  0  0  0  0  0  0  0  0  0  0  0
   -5.8686   28.3785    5.7494 C   0  0  0  0  0  0  0  0  0  0  0  0
   -4.3702   28.1363    5.9361 C   0  0  0  0  0  0  0  0  0  0  0  0
   -3.8360   27.1870    4.9748 N   0  0  0  0  0  0  0  0  0  0  0  0
   -2.6110   26.5627    5.0130 C   0  0  0  0  0  0  0  0  0  0  0  0
   -2.4584   25.8083    3.9332 N   0  0  0  0  0  0  0  0  0  0  0  0
   -1.6502   26.7647    6.1399 C   0  0  0  0  0  0  0  0  0  0  0  0
   -0.4574   26.1542    5.8975 F   0  0  0  0  0  0  0  0  0  0  0  0
   -2.0997   26.2849    7.3271 F   0  0  0  0  0  0  0  0  0  0  0  0
   -1.3683   28.0824    6.3284 F   0  0  0  0  0  0  0  0  0  0  0  0
   -3.7534   25.2392    1.8647 C   0  0  0  0  0  0  0  0  0  0  0  0
   -4.4755   23.9723    1.9760 N   0  0  0  0  0  0  0  0  0  0  0  0
   -4.7471   23.8395    2.9470 H   0  0  0  0  0  0  0  0  0  0  0  0
   -5.8351   21.4362    1.8687 C   0  0  0  0  0  0  0  0  0  0  0  0
   -6.2624   22.6244    1.0561 C   0  0  0  0  0  0  0  0  0  0  0  0
   -7.3651   22.5173    0.1982 C   0  0  0  0  0  0  0  0  0  0  0  0
   -7.7555   23.6086   -0.5638 C   0  0  0  0  0  0  0  0  0  0  0  0
   -7.0250   24.7728   -0.4412 C   0  0  0  0  0  0  0  0  0  0  0  0
   -5.9617   24.9125    0.3797 N   0  0  0  0  0  0  0  0  0  0  0  0
   -5.5924   23.8554    1.1373 C   0  0  0  0  0  0  0  0  0  0  0  0
 17 18  1  0  0  0
 18 19  1  0  0  0
 19 20  2  0  0  0
 20 21  1  0  0  0
 21 22  2  0  0  0
 22 23  1  0  0  0
 23 15  1  0  0  0
 15 14  1  0  0  0
 14  1  1  0  0  0
  1  2  2  0  0  0
  2  3  1  0  0  0
  3  4  1  0  0  0
  4  5  1  0  0  0
  5  6  1  0  0  0
  6  7  1  0  0  0
  7  8  1  0  0  0
  8 10  1  0  0  0
 10 11  1  0  0  0
 10 12  1  0  0  0
 10 13  1  0  0  0
  8  9  2  0  0  0
 23 18  2  0  0  0
  9  1  1  0  0  0
  7  2  1  0  0  0
 15 16  1  0  0  0
M  END
> <minimizedAffinity>
-8.89583

$$$$
OCNT-2309758


 23 26  0  0  0  0  0  0  0  0999 V2000
   -5.9635   22.0253    5.7044 C   0  0  0  0  0  0  0  0  0  0  0  0
   -5.8699   23.2128    4.7913 C   0  0  0  0  0  0  0  0  0  0  0  0
   -5.7056   23.0312    3.4141 C   0  0  0  0  0  0  0  0  0  0  0  0
   -5.6440   24.1184    2.5354 C   0  0  0  0  0  0  0  0  0  0  0  0
   -5.7638   25.4017    3.0799 C   0  0  0  0  0  0  0  0  0  0  0  0
   -5.7406   26.6332    2.4608 N   0  0  0  0  0  0  0  0  0  0  0  0
   -5.9044   27.6208    3.3909 C   0  0  0  0  0  0  0  0  0  0  0  0
   -6.0294   27.0319    4.6318 C   0  0  0  0  0  0  0  0  0  0  0  0
   -6.2395   27.8233    5.8814 C   0  0  0  0  0  0  0  0  0  0  0  0
   -5.8953   29.3247    5.6754 C   0  0  0  0  0  0  0  0  0  0  0  0
   -6.4289   29.8554    4.3196 C   0  0  0  0  0  0  0  0  0  0  0  0
   -5.9075   29.0774    3.0977 C   0  0  0  0  0  0  0  0  0  0  0  0
   -5.9423   25.6240    4.4472 C   0  0  0  0  0  0  0  0  0  0  0  0
   -6.0027   24.5117    5.3111 C   0  0  0  0  0  0  0  0  0  0  0  0
   -5.6183   26.7714    1.4672 H   0  0  0  0  0  0  0  0  0  0  0  0
   -4.4461   29.5530    5.7372 N   0  0  0  0  0  0  0  0  0  0  0  0
   -3.9200   28.6833    5.8131 H   0  0  0  0  0  0  0  0  0  0  0  0
   -3.9133   30.5242    6.5211 C   0  0  0  0  0  0  0  0  0  0  0  0
   -4.6603   31.3158    7.2569 N   0  0  0  0  0  0  0  0  0  0  0  0
   -3.8438   32.1973    7.9527 C   0  0  0  0  0  0  0  0  0  0  0  0
   -4.4445   33.2062    8.8555 C   0  0  0  0  0  0  0  0  0  0  0  0
   -2.5196   32.1307    7.8040 N   0  0  0  0  0  0  0  0  0  0  0  0
   -2.2337   30.8804    6.7378 S   0  0  0  0  0  0  0  0  0  0  0  0
  1  2  1  0  0  0
  2  3  2  0  0  0
  3  4  1  0  0  0
  4  5  2  0  0  0
  5  6  1  0  0  0
  6  7  1  0  0  0
  7  8  2  0  0  0
  8  9  1  0  0  0
  9 10  1  0  0  0
 10 16  1  0  0  0
 16 18  1  0  0  0
 18 19  2  0  0  0
 19 20  1  0  0  0
 20 21  1  0  0  0
 20 22  2  0  0  0
 22 23  1  0  0  0
 10 11  1  0  0  0
 11 12  1  0  0  0
  8 13  1  0  0  0
 13 14  2  0  0  0
 14  2  1  0  0  0
 13  5  1  0  0  0
 12  7  1  0  0  0
 23 18  1  0  0  0
  6 15  1  0  0  0
 16 17  1  0  0  0
M  END
> <minimizedAffinity>
-8.91444

$$$$
OCNT-2309776


 26 29  0  0  0  0  0  0  0  0999 V2000
   -5.2065   26.2242    2.9567 C   0  0  0  0  0  0  0  0  0  0  0  0
   -6.0430   25.4469    2.2486 N   0  0  0  0  0  0  0  0  0  0  0  0
   -5.2384   24.6204    1.5687 N   0  0  0  0  0  0  0  0  0  0  0  0
   -3.9178   24.8229    1.8109 C   0  0  0  0  0  0  0  0  0  0  0  0
   -3.8422   25.8500    2.7324 C   0  0  0  0  0  0  0  0  0  0  0  0
   -5.6645   23.9337    0.9557 H   0  0  0  0  0  0  0  0  0  0  0  0
   -7.3940   30.5934    6.6909 Br  0  0  0  0  0  0  0  0  0  0  0  0
   -6.7290   29.2510    5.5374 C   0  0  0  0  0  0  0  0  0  0  0  0
   -6.3448   29.5834    4.2391 C   0  0  0  0  0  0  0  0  0  0  0  0
   -5.8522   28.5912    3.3864 C   0  0  0  0  0  0  0  0  0  0  0  0
   -5.7341   27.2680    3.8324 C   0  0  0  0  0  0  0  0  0  0  0  0
   -6.1389   26.9465    5.1359 C   0  0  0  0  0  0  0  0  0  0  0  0
   -6.6324   27.9364    5.9897 C   0  0  0  0  0  0  0  0  0  0  0  0
   -2.6032   26.4201    3.3513 C   0  0  0  0  0  0  0  0  0  0  0  0
   -2.0685   25.4854    4.3598 N   0  0  0  0  0  0  0  0  0  0  0  0
   -2.8092   25.5922    5.6407 C   0  0  0  0  0  0  0  0  0  0  0  0
   -2.2539   26.6086    6.6786 C   0  0  0  0  0  0  0  0  0  0  0  0
   -1.4727   27.6917    6.0637 N   0  0  0  0  0  0  0  0  0  0  0  0
   -0.3490   27.1455    5.2836 C   0  0  0  0  0  0  0  0  0  0  0  0
   -0.6447   25.7704    4.6205 C   0  0  0  0  0  0  0  0  0  0  0  0
   -1.1492   28.7833    6.9991 C   0  0  0  0  0  0  0  0  0  0  0  0
    0.2848   28.6600    7.5503 C   0  0  0  0  0  0  0  0  0  0  0  0
    0.4956   29.5297    8.7879 C   0  0  0  0  0  0  0  0  0  0  0  0
   -0.3878   30.6442    8.7796 O   0  0  0  0  0  0  0  0  0  0  0  0
   -1.7541   30.2609    8.9417 C   0  0  0  0  0  0  0  0  0  0  0  0
   -2.1264   28.9982    8.1609 C   0  0  0  0  0  0  0  0  0  0  0  0
  7  8  1  0  0  0
  8  9  1  0  0  0
  9 10  2  0  0  0
 10 11  1  0  0  0
 11  1  1  0  0  0
  1  2  2  0  0  0
  2  3  1  0  0  0
  3  4  1  0  0  0
  4  5  2  0  0  0
  5 14  1  0  0  0
 14 15  1  0  0  0
 15 16  1  0  0  0
 16 17  1  0  0  0
 17 18  1  0  0  0
 18 21  1  0  0  0
 21 22  1  0  0  0
 22 23  1  0  0  0
 23 24  1  0  0  0
 24 25  1  0  0  0
 25 26  1  0  0  0
 18 19  1  0  0  0
 19 20  1  0  0  0
 11 12  2  0  0  0
 12 13  1  0  0  0
 13  8  2  0  0  0
  5  1  1  0  0  0
 20 15  1  0  0  0
 26 21  1  0  0  0
  3  6  1  0  0  0
M  END
> <minimizedAffinity>
-8.71314

$$$$
OCNT-2309787


 23 25  0  0  0  0  0  0  0  0999 V2000
   -5.3429   30.4142    8.4940 C   0  0  0  0  0  0  0  0  0  0  0  0
   -6.3587   30.5451    9.6173 C   0  0  0  0  0  0  0  0  0  0  0  0
   -5.9275   29.1850    9.1642 C   0  0  0  0  0  0  0  0  0  0  0  0
   -3.8902   30.8260    8.8156 C   0  0  0  0  0  0  0  0  0  0  0  0
   -3.6768   32.0388    9.3701 N   0  0  0  0  0  0  0  0  0  0  0  0
   -2.4061   32.3922    9.6253 C   0  0  0  0  0  0  0  0  0  0  0  0
   -1.3272   31.5947    9.3388 C   0  0  0  0  0  0  0  0  0  0  0  0
   -1.6080   30.3755    8.7508 C   0  0  0  0  0  0  0  0  0  0  0  0
   -2.8839   29.9862    8.4893 N   0  0  0  0  0  0  0  0  0  0  0  0
   -0.4606   29.4345    8.4216 C   0  0  0  0  0  0  0  0  0  0  0  0
   -0.8174   28.1222    8.5271 F   0  0  0  0  0  0  0  0  0  0  0  0
    0.6011   29.5919    9.2673 F   0  0  0  0  0  0  0  0  0  0  0  0
    0.0455   29.5886    7.1662 F   0  0  0  0  0  0  0  0  0  0  0  0
   -5.8385   30.7604    7.1304 N   0  0  0  0  0  0  0  0  0  0  0  0
   -5.0704   30.6418    6.4681 H   0  0  0  0  0  0  0  0  0  0  0  0
   -6.9531   29.9126    6.7077 C   0  0  0  0  0  0  0  0  0  0  0  0
   -5.4961   26.7083    2.2977 F   0  0  0  0  0  0  0  0  0  0  0  0
   -5.8398   27.4698    3.3448 C   0  0  0  0  0  0  0  0  0  0  0  0
   -5.9535   28.8454    3.1818 C   0  0  0  0  0  0  0  0  0  0  0  0
   -6.3128   29.6416    4.2707 C   0  0  0  0  0  0  0  0  0  0  0  0
   -6.5528   29.0596    5.5257 C   0  0  0  0  0  0  0  0  0  0  0  0
   -6.4395   27.6662    5.6659 C   0  0  0  0  0  0  0  0  0  0  0  0
   -6.0808   26.8725    4.5758 C   0  0  0  0  0  0  0  0  0  0  0  0
 17 18  1  0  0  0
 18 19  1  0  0  0
 19 20  2  0  0  0
 20 21  1  0  0  0
 21 16  1  0  0  0
 16 14  1  0  0  0
 14  1  1  0  0  0
  1  4  1  0  0  0
  4  5  2  0  0  0
  5  6  1  0  0  0
  6  7  2  0  0  0
  7  8  1  0  0  0
  8 10  1  0  0  0
 10 11  1  0  0  0
 10 12  1  0  0  0
 10 13  1  0  0  0
  8  9  2  0  0  0
  1  2  1  0  0  0
  2  3  1  0  0  0
 21 22  2  0  0  0
 22 23  1  0  0  0
 23 18  2  0  0  0
  3  1  1  0  0  0
  9  4  1  0  0  0
 14 15  1  0  0  0
M  END
> <minimizedAffinity>
-9.26693

$$$$
OCNT-2309801


 22 24  0  0  0  0  0  0  0  0999 V2000
   -3.0932   28.6678    7.6301 C   0  0  0  0  0  0  0  0  0  0  0  0
   -2.1093   28.5038    8.3546 O   0  0  0  0  0  0  0  0  0  0  0  0
   -3.2074   27.9964    6.4069 N   0  0  0  0  0  0  0  0  0  0  0  0
   -2.0187   27.3617    5.8481 C   0  0  0  0  0  0  0  0  0  0  0  0
   -2.3300   25.9652    5.3195 C   0  0  0  0  0  0  0  0  0  0  0  0
   -3.4876   26.0011    4.3567 C   0  0  0  0  0  0  0  0  0  0  0  0
   -3.6259   25.0035    3.3815 C   0  0  0  0  0  0  0  0  0  0  0  0
   -4.7154   25.0225    2.5127 C   0  0  0  0  0  0  0  0  0  0  0  0
   -4.8780   23.7932    1.3192 Cl  0  0  0  0  0  0  0  0  0  0  0  0
   -5.6777   26.0238    2.6088 C   0  0  0  0  0  0  0  0  0  0  0  0
   -5.5512   27.0142    3.5845 C   0  0  0  0  0  0  0  0  0  0  0  0
   -4.4608   27.0107    4.4697 C   0  0  0  0  0  0  0  0  0  0  0  0
   -4.3723   28.0919    5.5286 C   0  0  0  0  0  0  0  0  0  0  0  0
   -5.3733   31.4590    8.1439 C   0  0  0  0  0  0  0  0  0  0  0  0
   -4.3527   30.8707    7.5666 N   0  0  0  0  0  0  0  0  0  0  0  0
   -4.1693   29.5800    8.0655 C   0  0  0  0  0  0  0  0  0  0  0  0
   -5.0667   29.2405    9.0647 C   0  0  0  0  0  0  0  0  0  0  0  0
   -6.1669   30.5176    9.3447 S   0  0  0  0  0  0  0  0  0  0  0  0
   -5.8141   32.7056    7.8617 N   0  0  0  0  0  0  0  0  0  0  0  0
   -6.7497   32.9298    8.1846 H   0  0  0  0  0  0  0  0  0  0  0  0
   -4.7012   34.3236    9.2919 C   0  0  0  0  0  0  0  0  0  0  0  0
   -4.8642   33.8019    7.8737 C   0  0  0  0  0  0  0  0  0  0  0  0
 21 22  1  0  0  0
 22 19  1  0  0  0
 19 14  1  0  0  0
 14 15  2  0  0  0
 15 16  1  0  0  0
 16  1  1  0  0  0
  1  2  2  0  0  0
  1  3  1  0  0  0
  3  4  1  0  0  0
  4  5  1  0  0  0
  5  6  1  0  0  0
  6  7  1  0  0  0
  7  8  2  0  0  0
  8  9  1  0  0  0
  8 10  1  0  0  0
 10 11  2  0  0  0
 11 12  1  0  0  0
 12 13  1  0  0  0
 16 17  2  0  0  0
 17 18  1  0  0  0
 18 14  1  0  0  0
 13  3  1  0  0  0
 12  6  2  0  0  0
 19 20  1  0  0  0
M  END
> <minimizedAffinity>
-7.96798

$$$$
OCNT-2309804


 25 27  0  0  0  0  0  0  0  0999 V2000
   -6.1557   31.5246    7.8714 N   0  0  0  0  0  0  0  0  0  0  0  0
   -5.7300   30.3365    7.3076 C   0  0  0  0  0  0  0  0  0  0  0  0
   -4.8437   29.6520    7.8000 O   0  0  0  0  0  0  0  0  0  0  0  0
   -6.4510   30.0631    6.1655 N   0  0  0  0  0  0  0  0  0  0  0  0
   -6.4218   32.2256    7.1986 H   0  0  0  0  0  0  0  0  0  0  0  0
   -7.2867   30.6163    6.0490 H   0  0  0  0  0  0  0  0  0  0  0  0
   -6.2696   28.9930    5.2689 C   0  0  0  0  0  0  0  0  0  0  0  0
   -6.3612   27.6972    5.7884 C   0  0  0  0  0  0  0  0  0  0  0  0
   -6.2008   26.5808    4.9601 C   0  0  0  0  0  0  0  0  0  0  0  0
   -5.9481   26.7482    3.5922 C   0  0  0  0  0  0  0  0  0  0  0  0
   -5.8618   28.0425    3.0672 C   0  0  0  0  0  0  0  0  0  0  0  0
   -6.0248   29.1552    3.9043 C   0  0  0  0  0  0  0  0  0  0  0  0
   -5.7861   25.6082    2.7640 N   0  0  0  0  0  0  0  0  0  0  0  0
   -5.6920   25.5398    1.3921 C   0  0  0  0  0  0  0  0  0  0  0  0
   -5.5476   24.2026    1.1170 C   0  0  0  0  0  0  0  0  0  0  0  0
   -5.5551   23.4957    2.2790 N   0  0  0  0  0  0  0  0  0  0  0  0
   -5.7002   24.3551    3.2785 N   0  0  0  0  0  0  0  0  0  0  0  0
   -5.4798   32.0228    9.0497 C   0  0  0  0  0  0  0  0  0  0  0  0
   -4.5110   33.1591    8.7629 C   0  0  0  0  0  0  0  0  0  0  0  0
   -4.7899   34.5604    9.2883 C   0  0  0  0  0  0  0  0  0  0  0  0
   -4.9271   34.2755    7.8199 C   0  0  0  0  0  0  0  0  0  0  0  0
   -3.0443   32.7283    8.7378 C   0  0  0  0  0  0  0  0  0  0  0  0
   -2.6540   31.7887    9.8798 C   0  0  0  0  0  0  0  0  0  0  0  0
   -0.7058   30.7533    9.0502 C   0  0  0  0  0  0  0  0  0  0  0  0
   -2.0873   30.5936    9.3432 O   0  0  0  0  0  0  0  0  0  0  0  0
 24 25  1  0  0  0
 25 23  1  0  0  0
 23 22  1  0  0  0
 22 19  1  0  0  0
 19 18  1  0  0  0
 18  1  1  0  0  0
  1  2  1  0  0  0
  2  3  2  0  0  0
  2  4  1  0  0  0
  4  7  1  0  0  0
  7  8  1  0  0  0
  8  9  2  0  0  0
  9 10  1  0  0  0
 10 13  1  0  0  0
 13 14  1  0  0  0
 14 15  2  0  0  0
 15 16  1  0  0  0
 16 17  2  0  0  0
 10 11  2  0  0  0
 11 12  1  0  0  0
 19 20  1  0  0  0
 20 21  1  0  0  0
 21 19  1  0  0  0
 12  7  2  0  0  0
 17 13  1  0  0  0
  1  5  1  0  0  0
  4  6  1  0  0  0
M  END
> <minimizedAffinity>
-8.60070

$$$$
OCNT-2309817


 21 24  0  0  0  0  0  0  0  0999 V2000
   -5.6215   26.5490    4.1010 N   0  0  0  0  0  0  0  0  0  0  0  0
   -5.8371   27.5693    3.0808 C   0  0  0  0  0  0  0  0  0  0  0  0
   -6.2967   28.8713    3.7317 C   0  0  0  0  0  0  0  0  0  0  0  0
   -5.3250   29.3347    4.8075 C   0  0  0  0  0  0  0  0  0  0  0  0
   -5.1250   28.2463    5.8722 C   0  0  0  0  0  0  0  0  0  0  0  0
   -4.0725   28.6548    6.8498 C   0  0  0  0  0  0  0  0  0  0  0  0
   -2.8060   28.1158    6.8881 C   0  0  0  0  0  0  0  0  0  0  0  0
   -2.2878   27.0318    6.0205 C   0  0  0  0  0  0  0  0  0  0  0  0
   -3.2291   26.8394    4.8144 C   0  0  0  0  0  0  0  0  0  0  0  0
   -4.7305   26.8705    5.2334 C   0  0  0  0  0  0  0  0  0  0  0  0
   -2.1716   28.7682    7.9052 N   0  0  0  0  0  0  0  0  0  0  0  0
   -0.8228   28.5548    8.3613 C   0  0  0  0  0  0  0  0  0  0  0  0
   -3.0629   29.6675    8.4252 C   0  0  0  0  0  0  0  0  0  0  0  0
   -4.2231   29.6227    7.8038 N   0  0  0  0  0  0  0  0  0  0  0  0
   -5.6733   21.2143    2.3160 C   0  0  0  0  0  0  0  0  0  0  0  0
   -5.6193   22.6231    2.7897 C   0  0  0  0  0  0  0  0  0  0  0  0
   -5.5353   23.6948    1.9348 C   0  0  0  0  0  0  0  0  0  0  0  0
   -5.5224   24.9799    2.3399 N   0  0  0  0  0  0  0  0  0  0  0  0
   -5.6098   25.2295    3.6577 C   0  0  0  0  0  0  0  0  0  0  0  0
   -5.7062   24.2397    4.5630 N   0  0  0  0  0  0  0  0  0  0  0  0
   -5.7174   22.9688    4.1152 C   0  0  0  0  0  0  0  0  0  0  0  0
 15 16  1  0  0  0
 16 17  2  0  0  0
 17 18  1  0  0  0
 18 19  2  0  0  0
 19  1  1  0  0  0
  1  2  1  0  0  0
  2  3  1  0  0  0
  3  4  1  0  0  0
  4  5  1  0  0  0
  5  6  1  0  0  0
  6  7  2  0  0  0
  7  8  1  0  0  0
  8  9  1  0  0  0
  9 10  1  0  0  0
  7 11  1  0  0  0
 11 12  1  0  0  0
 11 13  1  0  0  0
 13 14  2  0  0  0
 19 20  1  0  0  0
 20 21  2  0  0  0
 21 16  1  0  0  0
 10  1  1  0  0  0
 10  5  1  0  0  0
 14  6  1  0  0  0
M  END
> <minimizedAffinity>
-7.85319

$$$$
OCNT-2309819


 23 25  0  0  0  0  0  0  0  0999 V2000
   -5.7795   28.8090    4.6130 N   0  0  0  0  0  0  0  0  0  0  0  0
   -6.0888   29.7626    3.5511 C   0  0  0  0  0  0  0  0  0  0  0  0
   -5.5751   27.4427    4.3930 C   0  0  0  0  0  0  0  0  0  0  0  0
   -5.6840   26.6213    5.2997 O   0  0  0  0  0  0  0  0  0  0  0  0
   -5.2193   27.1329    3.0981 N   0  0  0  0  0  0  0  0  0  0  0  0
   -4.7925   27.8898    2.5871 H   0  0  0  0  0  0  0  0  0  0  0  0
   -5.0912   25.8468    2.5322 C   0  0  0  0  0  0  0  0  0  0  0  0
   -4.2208   24.8742    3.0135 C   0  0  0  0  0  0  0  0  0  0  0  0
   -4.1965   23.6400    2.3833 C   0  0  0  0  0  0  0  0  0  0  0  0
   -4.9751   23.3149    1.3294 N   0  0  0  0  0  0  0  0  0  0  0  0
   -5.8152   24.2710    0.8859 C   0  0  0  0  0  0  0  0  0  0  0  0
   -5.9116   25.5342    1.4479 C   0  0  0  0  0  0  0  0  0  0  0  0
   -7.2984   29.8101    6.2890 C   0  0  0  0  0  0  0  0  0  0  0  0
   -5.8896   29.2653    6.0223 C   0  0  0  0  0  0  0  0  0  0  0  0
   -4.7956   30.2797    6.4382 C   0  0  0  0  0  0  0  0  0  0  0  0
   -5.1861   31.1217    7.6683 C   0  0  0  0  0  0  0  0  0  0  0  0
   -3.8525   31.2627    8.2940 C   0  0  0  0  0  0  0  0  0  0  0  0
   -3.4389   32.0961    9.3175 C   0  0  0  0  0  0  0  0  0  0  0  0
   -2.1224   31.9764    9.7718 C   0  0  0  0  0  0  0  0  0  0  0  0
   -1.2542   31.0244    9.2106 C   0  0  0  0  0  0  0  0  0  0  0  0
   -1.6919   30.1834    8.1853 C   0  0  0  0  0  0  0  0  0  0  0  0
   -2.9899   30.3293    7.7429 C   0  0  0  0  0  0  0  0  0  0  0  0
   -3.5589   29.5725    6.7533 O   0  0  0  0  0  0  0  0  0  0  0  0
 13 14  1  0  0  0
 14 15  1  0  0  0
 15 16  1  0  0  0
 16 17  1  0  0  0
 17 18  2  0  0  0
 18 19  1  0  0  0
 19 20  2  0  0  0
 20 21  1  0  0  0
 21 22  2  0  0  0
 22 23  1  0  0  0
 14  1  1  0  0  0
  1  2  1  0  0  0
  1  3  1  0  0  0
  3  4  2  0  0  0
  3  5  1  0  0  0
  5  7  1  0  0  0
  7  8  2  0  0  0
  8  9  1  0  0  0
  9 10  2  0  0  0
 10 11  1  0  0  0
 11 12  2  0  0  0
 23 15  1  0  0  0
 12  7  1  0  0  0
 22 17  1  0  0  0
  5  6  1  0  0  0
M  END
> <minimizedAffinity>
-8.65941

$$$$
OCNT-2309836


 31 34  0  0  0  0  0  0  0  0999 V2000
   -2.0361   26.1570    6.9449 O   0  0  0  0  0  0  0  0  0  0  0  0
   -2.2540   27.3292    6.6650 C   0  0  0  0  0  0  0  0  0  0  0  0
   -3.0720   27.8115    5.6592 N   0  0  0  0  0  0  0  0  0  0  0  0
   -3.0365   28.8071    5.4740 H   0  0  0  0  0  0  0  0  0  0  0  0
   -3.8944   27.0615    4.7929 C   0  0  0  0  0  0  0  0  0  0  0  0
   -3.2599   26.3194    3.7904 C   0  0  0  0  0  0  0  0  0  0  0  0
   -4.0102   25.5616    2.8860 C   0  0  0  0  0  0  0  0  0  0  0  0
   -5.4021   25.5308    2.9665 C   0  0  0  0  0  0  0  0  0  0  0  0
   -6.0387   26.2675    3.9633 C   0  0  0  0  0  0  0  0  0  0  0  0
   -5.2874   27.0300    4.8700 C   0  0  0  0  0  0  0  0  0  0  0  0
   -6.0105   24.7587    2.0181 O   0  0  0  0  0  0  0  0  0  0  0  0
   -5.5723   23.4035    1.8971 C   0  0  0  0  0  0  0  0  0  0  0  0
   -6.7835   22.4565    2.0095 C   0  0  0  0  0  0  0  0  0  0  0  0
   -6.8322   21.5837    3.1989 N   0  0  0  0  0  0  0  0  0  0  0  0
   -8.0545   20.7592    3.2093 C   0  0  0  0  0  0  0  0  0  0  0  0
   -9.0083   21.0245    4.3809 C   0  0  0  0  0  0  0  0  0  0  0  0
   -9.1447   22.5156    4.6553 C   0  0  0  0  0  0  0  0  0  0  0  0
   -7.7813   23.1714    4.8830 C   0  0  0  0  0  0  0  0  0  0  0  0
   -6.6154   22.2692    4.4719 C   0  0  0  0  0  0  0  0  0  0  0  0
   -1.5524   28.3795    7.4537 C   0  0  0  0  0  0  0  0  0  0  0  0
   -0.1549   28.4220    7.4198 C   0  0  0  0  0  0  0  0  0  0  0  0
    0.5315   29.3936    8.1478 C   0  0  0  0  0  0  0  0  0  0  0  0
   -0.1740   30.3196    8.9196 C   0  0  0  0  0  0  0  0  0  0  0  0
   -1.5758   30.2808    8.9797 C   0  0  0  0  0  0  0  0  0  0  0  0
   -2.2601   29.2955    8.2461 C   0  0  0  0  0  0  0  0  0  0  0  0
   -2.3337   31.2754    9.8240 C   0  0  0  0  0  0  0  0  0  0  0  0
   -3.5292   31.7442    9.1464 N   0  0  0  0  0  0  0  0  0  0  0  0
   -4.7726   31.1763    9.1996 C   0  0  0  0  0  0  0  0  0  0  0  0
   -5.5625   31.9829    8.4111 C   0  0  0  0  0  0  0  0  0  0  0  0
   -4.8332   33.0224    7.8922 N   0  0  0  0  0  0  0  0  0  0  0  0
   -3.6143   32.8571    8.3539 C   0  0  0  0  0  0  0  0  0  0  0  0
  1  2  2  0  0  0
  2  3  1  0  0  0
  3  5  1  0  0  0
  5  6  1  0  0  0
  6  7  2  0  0  0
  7  8  1  0  0  0
  8 11  1  0  0  0
 11 12  1  0  0  0
 12 13  1  0  0  0
 13 14  1  0  0  0
 14 15  1  0  0  0
 15 16  1  0  0  0
 16 17  1  0  0  0
 17 18  1  0  0  0
 18 19  1  0  0  0
  8  9  2  0  0  0
  9 10  1  0  0  0
  2 20  1  0  0  0
 20 21  1  0  0  0
 21 22  2  0  0  0
 22 23  1  0  0  0
 23 24  2  0  0  0
 24 26  1  0  0  0
 26 27  1  0  0  0
 27 28  1  0  0  0
 28 29  2  0  0  0
 29 30  1  0  0  0
 30 31  2  0  0  0
 24 25  1  0  0  0
 10  5  2  0  0  0
 25 20  2  0  0  0
 19 14  1  0  0  0
 31 27  1  0  0  0
  3  4  1  0  0  0
M  END
> <minimizedAffinity>
-9.42878

$$$$
OCNT-2309844


 25 27  0  0  0  0  0  0  0  0999 V2000
   -5.0293   26.1293    5.2657 N   0  0  0  0  0  0  0  0  0  0  0  0
   -5.3360   27.4676    5.3902 C   0  0  0  0  0  0  0  0  0  0  0  0
   -6.3527   28.0013    4.9591 O   0  0  0  0  0  0  0  0  0  0  0  0
   -4.3697   28.2136    6.0813 N   0  0  0  0  0  0  0  0  0  0  0  0
   -3.0069   27.7386    6.3299 C   0  0  0  0  0  0  0  0  0  0  0  0
   -2.0601   28.8312    6.8213 C   0  0  0  0  0  0  0  0  0  0  0  0
   -2.6979   29.6126    7.9753 C   0  0  0  0  0  0  0  0  0  0  0  0
   -1.7322   30.6787    8.5002 C   0  0  0  0  0  0  0  0  0  0  0  0
   -4.0495   30.2422    7.5442 C   0  0  0  0  0  0  0  0  0  0  0  0
   -4.6145   29.6512    6.2356 C   0  0  0  0  0  0  0  0  0  0  0  0
   -4.3207   25.7940    5.8906 H   0  0  0  0  0  0  0  0  0  0  0  0
   -6.0163   23.8329    2.4843 C   0  0  0  0  0  0  0  0  0  0  0  0
   -7.0767   23.1412    3.0756 C   0  0  0  0  0  0  0  0  0  0  0  0
   -7.4722   23.4430    4.3752 C   0  0  0  0  0  0  0  0  0  0  0  0
   -6.8055   24.4287    5.1020 C   0  0  0  0  0  0  0  0  0  0  0  0
   -5.7305   25.1289    4.5441 C   0  0  0  0  0  0  0  0  0  0  0  0
   -5.3427   24.8457    3.2083 C   0  0  0  0  0  0  0  0  0  0  0  0
   -4.2116   25.6076    2.5564 C   0  0  0  0  0  0  0  0  0  0  0  0
   -6.1237   22.4984    0.5023 C   0  0  0  0  0  0  0  0  0  0  0  0
   -5.5687   23.6013    1.2072 O   0  0  0  0  0  0  0  0  0  0  0  0
   -5.0241   30.1913    8.6356 N   0  0  0  0  0  0  0  0  0  0  0  0
   -5.2091   29.1413    9.4943 C   0  0  0  0  0  0  0  0  0  0  0  0
   -6.2312   29.5366   10.3262 C   0  0  0  0  0  0  0  0  0  0  0  0
   -6.6747   30.7893    9.9895 N   0  0  0  0  0  0  0  0  0  0  0  0
   -5.9251   31.1634    8.9775 C   0  0  0  0  0  0  0  0  0  0  0  0
 19 20  1  0  0  0
 20 12  1  0  0  0
 12 13  1  0  0  0
 13 14  2  0  0  0
 14 15  1  0  0  0
 15 16  2  0  0  0
 16  1  1  0  0  0
  1  2  1  0  0  0
  2  3  2  0  0  0
  2  4  1  0  0  0
  4  5  1  0  0  0
  5  6  1  0  0  0
  6  7  1  0  0  0
  7  8  1  0  0  0
  7  9  1  0  0  0
  9 21  1  0  0  0
 21 22  1  0  0  0
 22 23  2  0  0  0
 23 24  1  0  0  0
 24 25  2  0  0  0
  9 10  1  0  0  0
 16 17  1  0  0  0
 17 18  1  0  0  0
 17 12  2  0  0  0
 10  4  1  0  0  0
 25 21  1  0  0  0
  1 11  1  0  0  0
M  END
> <minimizedAffinity>
-8.46273

$$$$
OCNT-2309846


 29 31  0  0  0  0  0  0  0  0999 V2000
   -1.5439   26.9780    5.8775 C   0  0  0  0  0  0  0  0  0  0  0  0
   -0.8252   26.0828    5.4416 O   0  0  0  0  0  0  0  0  0  0  0  0
   -2.8177   27.3054    5.4462 N   0  0  0  0  0  0  0  0  0  0  0  0
   -3.2915   28.0299    5.9911 H   0  0  0  0  0  0  0  0  0  0  0  0
   -3.5616   26.7168    4.4084 C   0  0  0  0  0  0  0  0  0  0  0  0
   -4.9558   26.7816    4.5083 C   0  0  0  0  0  0  0  0  0  0  0  0
   -5.7710   26.2245    3.5183 C   0  0  0  0  0  0  0  0  0  0  0  0
   -5.2039   25.5888    2.4067 C   0  0  0  0  0  0  0  0  0  0  0  0
   -3.8076   25.5325    2.3063 C   0  0  0  0  0  0  0  0  0  0  0  0
   -2.9944   26.0904    3.2997 C   0  0  0  0  0  0  0  0  0  0  0  0
   -6.0744   24.9956    1.3293 C   0  0  0  0  0  0  0  0  0  0  0  0
   -6.2864   23.5746    1.5348 N   0  0  0  0  0  0  0  0  0  0  0  0
   -7.1525   23.0001    2.4241 C   0  0  0  0  0  0  0  0  0  0  0  0
   -7.0339   21.6467    2.2093 C   0  0  0  0  0  0  0  0  0  0  0  0
   -6.1351   21.3895    1.2064 N   0  0  0  0  0  0  0  0  0  0  0  0
   -5.7016   22.5682    0.8198 C   0  0  0  0  0  0  0  0  0  0  0  0
   -1.0701   27.8738    7.0280 C   0  0  0  0  0  0  0  0  0  0  0  0
   -2.0578   30.0260    7.7170 C   0  0  0  0  0  0  0  0  0  0  0  0
   -1.0561   30.6422    7.3633 O   0  0  0  0  0  0  0  0  0  0  0  0
   -2.1623   28.6587    7.5803 N   0  0  0  0  0  0  0  0  0  0  0  0
   -3.0815   28.2349    7.5802 H   0  0  0  0  0  0  0  0  0  0  0  0
   -4.8051   34.2167    8.2980 C   0  0  0  0  0  0  0  0  0  0  0  0
   -4.5784   32.7543    8.5489 C   0  0  0  0  0  0  0  0  0  0  0  0
   -5.5375   32.0008    9.2396 C   0  0  0  0  0  0  0  0  0  0  0  0
   -5.3620   30.6263    9.4476 C   0  0  0  0  0  0  0  0  0  0  0  0
   -6.4142   29.8242   10.1552 C   0  0  0  0  0  0  0  0  0  0  0  0
   -4.2214   29.9993    8.9316 C   0  0  0  0  0  0  0  0  0  0  0  0
   -3.2535   30.7398    8.2419 C   0  0  0  0  0  0  0  0  0  0  0  0
   -3.4418   32.1131    8.0388 C   0  0  0  0  0  0  0  0  0  0  0  0
 22 23  1  0  0  0
 23 24  1  0  0  0
 24 25  2  0  0  0
 25 26  1  0  0  0
 25 27  1  0  0  0
 27 28  2  0  0  0
 28 18  1  0  0  0
 18 19  2  0  0  0
 18 20  1  0  0  0
 20 17  1  0  0  0
 17  1  1  0  0  0
  1  2  2  0  0  0
  1  3  1  0  0  0
  3  5  1  0  0  0
  5  6  1  0  0  0
  6  7  2  0  0  0
  7  8  1  0  0  0
  8 11  1  0  0  0
 11 12  1  0  0  0
 12 13  1  0  0  0
 13 14  2  0  0  0
 14 15  1  0  0  0
 15 16  2  0  0  0
  8  9  2  0  0  0
  9 10  1  0  0  0
 28 29  1  0  0  0
 29 23  2  0  0  0
 10  5  2  0  0  0
 16 12  1  0  0  0
 20 21  1  0  0  0
  3  4  1  0  0  0
M  END
> <minimizedAffinity>
-9.36713

$$$$
OCNT-2309864


 33 36  0  0  0  0  0  0  0  0999 V2000
   -5.8229   24.4986    1.1950 C   0  0  0  0  0  0  0  0  0  0  0  0
   -6.5065   25.0007    0.0749 C   0  0  0  0  0  0  0  0  0  0  0  0
   -7.2938   24.1559   -0.7029 C   0  0  0  0  0  0  0  0  0  0  0  0
   -7.4089   22.8121   -0.3598 C   0  0  0  0  0  0  0  0  0  0  0  0
   -6.7268   22.3108    0.7524 C   0  0  0  0  0  0  0  0  0  0  0  0
   -5.9102   23.1409    1.5399 C   0  0  0  0  0  0  0  0  0  0  0  0
   -5.8155   26.2331    2.8539 N   0  0  0  0  0  0  0  0  0  0  0  0
   -5.0508   25.4771    1.9899 C   0  0  0  0  0  0  0  0  0  0  0  0
   -3.8405   25.5747    1.8530 O   0  0  0  0  0  0  0  0  0  0  0  0
   -6.8077   26.2982    2.6305 H   0  0  0  0  0  0  0  0  0  0  0  0
   -5.2457   27.3409    3.6047 C   0  0  0  0  0  0  0  0  0  0  0  0
   -7.0088   29.8517    5.5692 C   0  0  0  0  0  0  0  0  0  0  0  0
   -6.1743   28.7931    6.2771 C   0  0  0  0  0  0  0  0  0  0  0  0
   -6.5034   28.7482    7.7652 C   0  0  0  0  0  0  0  0  0  0  0  0
   -4.7868   29.1042    6.1093 O   0  0  0  0  0  0  0  0  0  0  0  0
   -4.1630   27.8492    5.8371 C   0  0  0  0  0  0  0  0  0  0  0  0
   -5.2302   27.0611    5.1126 C   0  0  0  0  0  0  0  0  0  0  0  0
   -6.4561   27.5051    5.7106 O   0  0  0  0  0  0  0  0  0  0  0  0
   -5.0608   22.3274    2.8949 S   0  0  0  0  0  0  0  0  0  0  0  0
   -6.4432   21.6000    3.8385 C   0  0  0  0  0  0  0  0  0  0  0  0
   -7.0463   22.5998    4.8163 C   0  0  0  0  0  0  0  0  0  0  0  0
   -6.6326   23.7563    4.8726 O   0  0  0  0  0  0  0  0  0  0  0  0
   -8.0638   22.0511    5.5810 N   0  0  0  0  0  0  0  0  0  0  0  0
   -8.2085   21.0537    5.4744 H   0  0  0  0  0  0  0  0  0  0  0  0
   -8.8547   22.6945    6.5538 C   0  0  0  0  0  0  0  0  0  0  0  0
   -9.8062   23.6279    6.0828 C   0  0  0  0  0  0  0  0  0  0  0  0
  -10.6373   24.3258    6.9669 C   0  0  0  0  0  0  0  0  0  0  0  0
  -10.4925   24.0737    8.3107 C   0  0  0  0  0  0  0  0  0  0  0  0
  -11.2050   24.6555    9.3124 O   0  0  0  0  0  0  0  0  0  0  0  0
  -10.6055   24.0339   10.4674 C   0  0  0  0  0  0  0  0  0  0  0  0
   -9.5850   23.0706   10.1349 O   0  0  0  0  0  0  0  0  0  0  0  0
   -9.5680   23.1712    8.7782 C   0  0  0  0  0  0  0  0  0  0  0  0
   -8.7361   22.4665    7.9278 C   0  0  0  0  0  0  0  0  0  0  0  0
 12 13  1  0  0  0
 13 14  1  0  0  0
 13 15  1  0  0  0
 15 16  1  0  0  0
 16 17  1  0  0  0
 17 11  1  0  0  0
 11  7  1  0  0  0
  7  8  1  0  0  0
  8  9  2  0  0  0
  8  1  1  0  0  0
  1  2  2  0  0  0
  2  3  1  0  0  0
  3  4  2  0  0  0
  4  5  1  0  0  0
  5  6  2  0  0  0
  6 19  1  0  0  0
 19 20  1  0  0  0
 20 21  1  0  0  0
 21 22  2  0  0  0
 21 23  1  0  0  0
 23 25  1  0  0  0
 25 26  1  0  0  0
 26 27  2  0  0  0
 27 28  1  0  0  0
 28 29  1  0  0  0
 29 30  1  0  0  0
 30 31  1  0  0  0
 31 32  1  0  0  0
 32 33  1  0  0  0
 17 18  1  0  0  0
 18 13  1  0  0  0
  6  1  1  0  0  0
 33 25  2  0  0  0
 32 28  2  0  0  0
  7 10  1  0  0  0
 23 24  1  0  0  0
M  END
> <minimizedAffinity>
-9.45773

$$$$
OCNT-2309866


 30 33  0  0  0  0  0  0  0  0999 V2000
   -2.0263   26.0337    6.7584 O   0  0  0  0  0  0  0  0  0  0  0  0
   -2.3227   27.1893    6.4802 C   0  0  0  0  0  0  0  0  0  0  0  0
   -3.1782   27.6088    5.4770 N   0  0  0  0  0  0  0  0  0  0  0  0
   -3.2144   28.6016    5.2892 H   0  0  0  0  0  0  0  0  0  0  0  0
   -3.9471   26.7985    4.6153 C   0  0  0  0  0  0  0  0  0  0  0  0
   -5.2671   26.4229    4.8665 C   0  0  0  0  0  0  0  0  0  0  0  0
   -5.9641   25.6202    3.9546 C   0  0  0  0  0  0  0  0  0  0  0  0
   -5.3555   25.1950    2.7731 C   0  0  0  0  0  0  0  0  0  0  0  0
   -4.0318   25.5588    2.5225 C   0  0  0  0  0  0  0  0  0  0  0  0
   -3.3347   26.3583    3.4352 C   0  0  0  0  0  0  0  0  0  0  0  0
   -6.2699   24.1785    1.6308 S   0  0  0  0  0  0  0  0  0  0  0  0
   -5.8824   22.5141    2.2921 C   0  0  0  0  0  0  0  0  0  0  0  0
   -7.1191   21.8379    2.9036 C   0  0  0  0  0  0  0  0  0  0  0  0
   -7.0076   21.6795    4.3618 N   0  0  0  0  0  0  0  0  0  0  0  0
   -5.6952   22.1108    4.8526 C   0  0  0  0  0  0  0  0  0  0  0  0
   -5.9084   22.2193    6.3539 C   0  0  0  0  0  0  0  0  0  0  0  0
   -7.3977   22.4960    6.5230 C   0  0  0  0  0  0  0  0  0  0  0  0
   -7.9683   22.4924    5.1119 C   0  0  0  0  0  0  0  0  0  0  0  0
   -1.6768   28.2858    7.2587 C   0  0  0  0  0  0  0  0  0  0  0  0
   -0.3199   28.5983    7.1144 C   0  0  0  0  0  0  0  0  0  0  0  0
    0.2369   29.6388    7.8593 C   0  0  0  0  0  0  0  0  0  0  0  0
   -0.5571   30.3757    8.7405 C   0  0  0  0  0  0  0  0  0  0  0  0
   -1.9227   30.0884    8.8830 C   0  0  0  0  0  0  0  0  0  0  0  0
   -2.4749   29.0403    8.1305 C   0  0  0  0  0  0  0  0  0  0  0  0
   -2.7925   30.9051    9.8058 C   0  0  0  0  0  0  0  0  0  0  0  0
   -3.7343   31.7245    9.0648 N   0  0  0  0  0  0  0  0  0  0  0  0
   -3.4370   32.8204    8.3020 C   0  0  0  0  0  0  0  0  0  0  0  0
   -4.6430   33.2244    7.7783 C   0  0  0  0  0  0  0  0  0  0  0  0
   -5.6553   32.3960    8.1912 N   0  0  0  0  0  0  0  0  0  0  0  0
   -5.0779   31.5008    8.9604 C   0  0  0  0  0  0  0  0  0  0  0  0
  1  2  2  0  0  0
  2  3  1  0  0  0
  3  5  1  0  0  0
  5  6  1  0  0  0
  6  7  2  0  0  0
  7  8  1  0  0  0
  8 11  1  0  0  0
 11 12  1  0  0  0
 12 13  1  0  0  0
 13 14  1  0  0  0
 14 15  1  0  0  0
 15 16  1  0  0  0
 16 17  1  0  0  0
 17 18  1  0  0  0
  8  9  2  0  0  0
  9 10  1  0  0  0
  2 19  1  0  0  0
 19 20  1  0  0  0
 20 21  2  0  0  0
 21 22  1  0  0  0
 22 23  2  0  0  0
 23 25  1  0  0  0
 25 26  1  0  0  0
 26 27  1  0  0  0
 27 28  2  0  0  0
 28 29  1  0  0  0
 29 30  2  0  0  0
 23 24  1  0  0  0
 10  5  2  0  0  0
 24 19  2  0  0  0
 18 14  1  0  0  0
 30 26  1  0  0  0
  3  4  1  0  0  0
M  END
> <minimizedAffinity>
-8.81296

$$$$
OCNT-2309867


 28 31  0  0  0  0  0  0  0  0999 V2000
   -5.2897   29.9748    7.7102 N   0  0  0  0  0  0  0  0  0  0  0  0
   -4.9586   31.3295    7.7562 C   0  0  0  0  0  0  0  0  0  0  0  0
   -5.7288   32.1520    8.2580 O   0  0  0  0  0  0  0  0  0  0  0  0
   -6.2484   28.9044    9.7270 C   0  0  0  0  0  0  0  0  0  0  0  0
   -6.5221   29.5410    8.3730 C   0  0  0  0  0  0  0  0  0  0  0  0
   -4.5464   28.9550    6.9671 C   0  0  0  0  0  0  0  0  0  0  0  0
   -5.0671   28.7042    5.5693 C   0  0  0  0  0  0  0  0  0  0  0  0
   -5.6280   29.7168    4.7803 C   0  0  0  0  0  0  0  0  0  0  0  0
   -6.1327   29.4306    3.5124 C   0  0  0  0  0  0  0  0  0  0  0  0
   -6.0917   28.1272    3.0181 C   0  0  0  0  0  0  0  0  0  0  0  0
   -5.5482   27.0850    3.7821 C   0  0  0  0  0  0  0  0  0  0  0  0
   -5.0453   27.3930    5.0593 C   0  0  0  0  0  0  0  0  0  0  0  0
   -5.5057   25.7091    3.2636 C   0  0  0  0  0  0  0  0  0  0  0  0
   -5.4110   25.4561    1.8902 C   0  0  0  0  0  0  0  0  0  0  0  0
   -5.3766   24.1424    1.4482 C   0  0  0  0  0  0  0  0  0  0  0  0
   -5.4245   23.0732    2.2686 N   0  0  0  0  0  0  0  0  0  0  0  0
   -5.5169   23.3303    3.5895 C   0  0  0  0  0  0  0  0  0  0  0  0
   -5.5613   24.6080    4.1259 C   0  0  0  0  0  0  0  0  0  0  0  0
   -3.6460   31.7644    7.1340 C   0  0  0  0  0  0  0  0  0  0  0  0
   -2.5149   31.4489    7.9817 N   0  0  0  0  0  0  0  0  0  0  0  0
   -2.5251   31.8429    9.2729 N   0  0  0  0  0  0  0  0  0  0  0  0
   -1.4428   31.3402    9.8520 N   0  0  0  0  0  0  0  0  0  0  0  0
   -0.7580   30.6124    8.9157 C   0  0  0  0  0  0  0  0  0  0  0  0
    0.4325   29.8793    9.0192 C   0  0  0  0  0  0  0  0  0  0  0  0
    0.9100   29.2153    7.8819 C   0  0  0  0  0  0  0  0  0  0  0  0
    0.2177   29.2824    6.6700 C   0  0  0  0  0  0  0  0  0  0  0  0
   -0.9737   30.0084    6.5500 C   0  0  0  0  0  0  0  0  0  0  0  0
   -1.4310   30.6598    7.7001 C   0  0  0  0  0  0  0  0  0  0  0  0
  4  5  1  0  0  0
  5  1  1  0  0  0
  1  6  1  0  0  0
  6  7  1  0  0  0
  7  8  2  0  0  0
  8  9  1  0  0  0
  9 10  2  0  0  0
 10 11  1  0  0  0
 11 13  1  0  0  0
 13 14  2  0  0  0
 14 15  1  0  0  0
 15 16  2  0  0  0
 16 17  1  0  0  0
 17 18  2  0  0  0
 11 12  2  0  0  0
  1  2  1  0  0  0
  2  3  2  0  0  0
  2 19  1  0  0  0
 19 20  1  0  0  0
 20 21  1  0  0  0
 21 22  2  0  0  0
 22 23  1  0  0  0
 23 24  2  0  0  0
 24 25  1  0  0  0
 25 26  2  0  0  0
 26 27  1  0  0  0
 27 28  2  0  0  0
 12  7  1  0  0  0
 28 20  1  0  0  0
 18 13  1  0  0  0
 28 23  1  0  0  0
M  END
> <minimizedAffinity>
-9.94322

$$$$
OCNT-2309871


 26 28  0  0  0  0  0  0  0  0999 V2000
   -4.1298   26.8582    4.8273 C   0  0  0  0  0  0  0  0  0  0  0  0
   -3.2199   26.4873    3.8282 C   0  0  0  0  0  0  0  0  0  0  0  0
   -3.4500   25.3601    3.0353 C   0  0  0  0  0  0  0  0  0  0  0  0
   -4.5900   24.5816    3.2480 C   0  0  0  0  0  0  0  0  0  0  0  0
   -5.5124   24.9578    4.2275 C   0  0  0  0  0  0  0  0  0  0  0  0
   -6.9466   24.0362    4.5029 Cl  0  0  0  0  0  0  0  0  0  0  0  0
   -5.2790   26.0875    5.0196 C   0  0  0  0  0  0  0  0  0  0  0  0
   -3.0250   28.0935    6.7164 C   0  0  0  0  0  0  0  0  0  0  0  0
   -2.4016   27.1753    7.2401 O   0  0  0  0  0  0  0  0  0  0  0  0
   -3.8161   28.0047    5.5804 N   0  0  0  0  0  0  0  0  0  0  0  0
   -4.2592   28.8758    5.3020 H   0  0  0  0  0  0  0  0  0  0  0  0
   -0.3483   29.5474    7.0314 C   0  0  0  0  0  0  0  0  0  0  0  0
   -1.5322   29.7568    7.8641 N   0  0  0  0  0  0  0  0  0  0  0  0
   -1.3667   30.6587    8.9155 C   0  0  0  0  0  0  0  0  0  0  0  0
   -0.2604   31.0647    9.2715 O   0  0  0  0  0  0  0  0  0  0  0  0
   -2.5997   31.0521    9.6972 C   0  0  0  0  0  0  0  0  0  0  0  0
   -3.8268   31.1832    8.8208 C   0  0  0  0  0  0  0  0  0  0  0  0
   -4.0434   29.8723    8.0948 C   0  0  0  0  0  0  0  0  0  0  0  0
   -2.8426   29.5518    7.2013 C   0  0  0  0  0  0  0  0  0  0  0  0
   -4.8530   23.4888    2.4525 O   0  0  0  0  0  0  0  0  0  0  0  0
   -5.7382   23.6702    1.4138 C   0  0  0  0  0  0  0  0  0  0  0  0
   -6.5605   22.5954    1.0962 C   0  0  0  0  0  0  0  0  0  0  0  0
   -7.4414   22.7453    0.0407 C   0  0  0  0  0  0  0  0  0  0  0  0
   -7.5381   23.8699   -0.7017 N   0  0  0  0  0  0  0  0  0  0  0  0
   -6.7029   24.8837   -0.3861 C   0  0  0  0  0  0  0  0  0  0  0  0
   -5.7884   24.8337    0.6511 C   0  0  0  0  0  0  0  0  0  0  0  0
 12 13  1  0  0  0
 13 14  1  0  0  0
 14 15  2  0  0  0
 14 16  1  0  0  0
 16 17  1  0  0  0
 17 18  1  0  0  0
 18 19  1  0  0  0
 19  8  1  0  0  0
  8  9  2  0  0  0
  8 10  1  0  0  0
 10  1  1  0  0  0
  1  2  1  0  0  0
  2  3  2  0  0  0
  3  4  1  0  0  0
  4 20  1  0  0  0
 20 21  1  0  0  0
 21 22  2  0  0  0
 22 23  1  0  0  0
 23 24  2  0  0  0
 24 25  1  0  0  0
 25 26  2  0  0  0
  4  5  2  0  0  0
  5  6  1  0  0  0
  5  7  1  0  0  0
 19 13  1  0  0  0
  7  1  2  0  0  0
 26 21  1  0  0  0
 10 11  1  0  0  0
M  END
> <minimizedAffinity>
-9.00726

$$$$
OCNT-2309879


 24 27  0  0  0  0  0  0  0  0999 V2000
   -4.8668   34.1760    8.3041 C   0  0  0  0  0  0  0  0  0  0  0  0
   -4.3191   32.7549    8.2770 C   0  0  0  0  0  0  0  0  0  0  0  0
   -4.2729   32.2139    6.8498 C   0  0  0  0  0  0  0  0  0  0  0  0
   -3.7639   30.8402    6.8761 N   0  0  0  0  0  0  0  0  0  0  0  0
   -4.4413   29.8802    6.1289 C   0  0  0  0  0  0  0  0  0  0  0  0
   -5.2118   30.2219    5.2228 O   0  0  0  0  0  0  0  0  0  0  0  0
   -2.5672   30.6984    7.6363 C   0  0  0  0  0  0  0  0  0  0  0  0
   -1.6365   29.6836    7.3989 C   0  0  0  0  0  0  0  0  0  0  0  0
   -0.4558   29.5974    8.1449 C   0  0  0  0  0  0  0  0  0  0  0  0
   -0.1738   30.5463    9.1222 C   0  0  0  0  0  0  0  0  0  0  0  0
   -1.0624   31.5955    9.3380 C   0  0  0  0  0  0  0  0  0  0  0  0
   -2.2451   31.6782    8.5976 C   0  0  0  0  0  0  0  0  0  0  0  0
   -3.0128   32.7864    8.8672 O   0  0  0  0  0  0  0  0  0  0  0  0
   -4.3879   28.4154    6.5653 C   0  0  0  0  0  0  0  0  0  0  0  0
   -3.7888   27.4690    5.5659 C   0  0  0  0  0  0  0  0  0  0  0  0
   -2.5517   26.8488    5.6801 C   0  0  0  0  0  0  0  0  0  0  0  0
   -2.3651   26.0392    4.5909 N   0  0  0  0  0  0  0  0  0  0  0  0
   -3.4670   26.0828    3.7882 C   0  0  0  0  0  0  0  0  0  0  0  0
   -3.5986   25.3750    2.6512 N   0  0  0  0  0  0  0  0  0  0  0  0
   -4.7898   25.5761    2.0442 C   0  0  0  0  0  0  0  0  0  0  0  0
   -5.8028   26.4048    2.5052 C   0  0  0  0  0  0  0  0  0  0  0  0
   -5.6102   27.1123    3.6928 C   0  0  0  0  0  0  0  0  0  0  0  0
   -4.3854   26.9550    4.3654 C   0  0  0  0  0  0  0  0  0  0  0  0
   -1.5594   25.4635    4.3963 H   0  0  0  0  0  0  0  0  0  0  0  0
  1  2  1  0  0  0
  2  3  1  0  0  0
  3  4  1  0  0  0
  4  5  1  0  0  0
  5  6  2  0  0  0
  5 14  1  0  0  0
 14 15  1  0  0  0
 15 16  2  0  0  0
 16 17  1  0  0  0
 17 18  1  0  0  0
 18 19  1  0  0  0
 19 20  2  0  0  0
 20 21  1  0  0  0
 21 22  2  0  0  0
 22 23  1  0  0  0
  4  7  1  0  0  0
  7  8  2  0  0  0
  8  9  1  0  0  0
  9 10  2  0  0  0
 10 11  1  0  0  0
 11 12  2  0  0  0
 12 13  1  0  0  0
 13  2  1  0  0  0
 23 15  1  0  0  0
 12  7  1  0  0  0
 23 18  2  0  0  0
 17 24  1  0  0  0
M  END
> <minimizedAffinity>
-9.29544

$$$$
OCNT-2309880


 25 27  0  0  0  0  0  0  0  0999 V2000
   -5.1638   27.8491    5.6686 C   0  0  0  0  0  0  0  0  0  0  0  0
   -6.0796   28.0876    6.4533 O   0  0  0  0  0  0  0  0  0  0  0  0
   -3.8911   28.3726    5.7339 N   0  0  0  0  0  0  0  0  0  0  0  0
   -3.2557   28.1980    4.9603 H   0  0  0  0  0  0  0  0  0  0  0  0
   -7.2966   21.2291    2.7838 C   0  0  0  0  0  0  0  0  0  0  0  0
   -6.3991   22.3868    3.1192 C   0  0  0  0  0  0  0  0  0  0  0  0
   -5.0744   22.4126    2.6318 C   0  0  0  0  0  0  0  0  0  0  0  0
   -4.2304   23.4878    2.9080 C   0  0  0  0  0  0  0  0  0  0  0  0
   -4.7483   24.5174    3.6692 C   0  0  0  0  0  0  0  0  0  0  0  0
   -6.0635   24.5451    4.1353 C   0  0  0  0  0  0  0  0  0  0  0  0
   -6.8959   23.4679    3.8685 C   0  0  0  0  0  0  0  0  0  0  0  0
   -6.4185   25.7615    4.9474 C   0  0  0  0  0  0  0  0  0  0  0  0
   -5.4012   26.8473    4.5689 C   0  0  0  0  0  0  0  0  0  0  0  0
   -3.9011   25.9849    4.1085 S   0  0  0  0  0  0  0  0  0  0  0  0
   -3.1155   25.6786    5.2932 O   0  0  0  0  0  0  0  0  0  0  0  0
   -3.3292   26.5593    2.9119 O   0  0  0  0  0  0  0  0  0  0  0  0
   -3.4118   29.2642    6.7024 C   0  0  0  0  0  0  0  0  0  0  0  0
   -2.7765   28.8077    7.7963 N   0  0  0  0  0  0  0  0  0  0  0  0
   -2.2701   29.7285    8.6540 C   0  0  0  0  0  0  0  0  0  0  0  0
   -2.3629   31.0987    8.4625 C   0  0  0  0  0  0  0  0  0  0  0  0
   -1.6831   32.1957    9.5928 Cl  0  0  0  0  0  0  0  0  0  0  0  0
   -3.0268   31.5630    7.3360 C   0  0  0  0  0  0  0  0  0  0  0  0
   -3.5709   30.6352    6.4553 C   0  0  0  0  0  0  0  0  0  0  0  0
   -4.2624   31.1236    5.3785 O   0  0  0  0  0  0  0  0  0  0  0  0
   -5.0459   30.5620    5.2220 H   0  0  0  0  0  0  0  0  0  0  0  0
  5  6  1  0  0  0
  6  7  1  0  0  0
  7  8  2  0  0  0
  8  9  1  0  0  0
  9 10  2  0  0  0
 10 11  1  0  0  0
 10 12  1  0  0  0
 12 13  1  0  0  0
 13  1  1  0  0  0
  1  2  2  0  0  0
  1  3  1  0  0  0
  3 17  1  0  0  0
 17 18  1  0  0  0
 18 19  2  0  0  0
 19 20  1  0  0  0
 20 21  1  0  0  0
 20 22  2  0  0  0
 22 23  1  0  0  0
 23 24  1  0  0  0
 13 14  1  0  0  0
 14 15  2  0  0  0
 14 16  2  0  0  0
 11  6  2  0  0  0
 23 17  2  0  0  0
 14  9  1  0  0  0
  3  4  1  0  0  0
 24 25  1  0  0  0
M  END
> <minimizedAffinity>
-9.42868

$$$$
OCNT-2309885


 22 24  0  0  0  0  0  0  0  0999 V2000
   -5.2397   24.9582    2.5508 C   0  0  0  0  0  0  0  0  0  0  0  0
   -5.7715   24.9665    3.8520 C   0  0  0  0  0  0  0  0  0  0  0  0
   -5.1064   25.6190    4.8942 C   0  0  0  0  0  0  0  0  0  0  0  0
   -3.8860   26.2522    4.6486 C   0  0  0  0  0  0  0  0  0  0  0  0
   -3.3523   26.2735    3.3585 C   0  0  0  0  0  0  0  0  0  0  0  0
   -4.0228   25.6229    2.3194 C   0  0  0  0  0  0  0  0  0  0  0  0
   -3.1672   26.9644    5.7294 C   0  0  0  0  0  0  0  0  0  0  0  0
   -2.2580   26.3653    6.2982 O   0  0  0  0  0  0  0  0  0  0  0  0
   -3.5633   28.2641    6.0609 N   0  0  0  0  0  0  0  0  0  0  0  0
   -2.8395   28.9401    7.1407 C   0  0  0  0  0  0  0  0  0  0  0  0
   -3.6485   28.9728    8.4354 C   0  0  0  0  0  0  0  0  0  0  0  0
   -5.2335   29.8806    8.2742 S   0  0  0  0  0  0  0  0  0  0  0  0
   -5.2976   30.0659    6.4584 C   0  0  0  0  0  0  0  0  0  0  0  0
   -4.8947   28.7875    5.7201 C   0  0  0  0  0  0  0  0  0  0  0  0
   -6.0292   22.8627    1.3661 C   0  0  0  0  0  0  0  0  0  0  0  0
   -6.7066   22.2624    0.2920 C   0  0  0  0  0  0  0  0  0  0  0  0
   -7.2939   23.0449   -0.7014 C   0  0  0  0  0  0  0  0  0  0  0  0
   -7.2097   24.4312   -0.6289 C   0  0  0  0  0  0  0  0  0  0  0  0
   -6.5379   25.0359    0.4359 C   0  0  0  0  0  0  0  0  0  0  0  0
   -5.9342   24.2678    1.4507 C   0  0  0  0  0  0  0  0  0  0  0  0
   -5.0169   21.2942    3.1722 N   0  0  0  0  0  0  0  0  0  0  0  0
   -5.4535   22.0053    2.3652 C   0  0  0  0  0  0  0  0  0  0  0  0
 21 22  3  0  0  0
 22 15  1  0  0  0
 15 16  2  0  0  0
 16 17  1  0  0  0
 17 18  2  0  0  0
 18 19  1  0  0  0
 19 20  2  0  0  0
 20  1  1  0  0  0
  1  2  1  0  0  0
  2  3  2  0  0  0
  3  4  1  0  0  0
  4  7  1  0  0  0
  7  8  2  0  0  0
  7  9  1  0  0  0
  9 10  1  0  0  0
 10 11  1  0  0  0
 11 12  1  0  0  0
 12 13  1  0  0  0
 13 14  1  0  0  0
  4  5  2  0  0  0
  5  6  1  0  0  0
 20 15  1  0  0  0
  6  1  2  0  0  0
 14  9  1  0  0  0
M  END
> <minimizedAffinity>
-9.04501

$$$$
OCNT-2309893


 22 24  0  0  0  0  0  0  0  0999 V2000
   -0.6520   25.8191    4.8728 C   0  0  0  0  0  0  0  0  0  0  0  0
   -1.8983   26.4685    5.2145 N   0  0  0  0  0  0  0  0  0  0  0  0
   -3.0009   26.0560    4.5551 N   0  0  0  0  0  0  0  0  0  0  0  0
   -3.9448   26.9093    4.9424 C   0  0  0  0  0  0  0  0  0  0  0  0
   -3.4706   27.8894    5.8457 C   0  0  0  0  0  0  0  0  0  0  0  0
   -2.1281   27.5649    6.0149 C   0  0  0  0  0  0  0  0  0  0  0  0
   -1.1558   28.2124    6.7884 N   0  0  0  0  0  0  0  0  0  0  0  0
   -0.0148   28.8534    6.3362 C   0  0  0  0  0  0  0  0  0  0  0  0
    0.6647   29.4043    7.4002 C   0  0  0  0  0  0  0  0  0  0  0  0
   -0.0633   29.0898    8.5612 C   0  0  0  0  0  0  0  0  0  0  0  0
   -1.1599   28.3574    8.1640 C   0  0  0  0  0  0  0  0  0  0  0  0
   -4.2656   28.9096    6.5042 C   0  0  0  0  0  0  0  0  0  0  0  0
   -4.1473   30.1077    6.2733 O   0  0  0  0  0  0  0  0  0  0  0  0
   -5.1521   28.4234    7.4397 N   0  0  0  0  0  0  0  0  0  0  0  0
   -5.1609   27.4342    7.6533 H   0  0  0  0  0  0  0  0  0  0  0  0
   -5.9039   29.3142    8.3058 C   0  0  0  0  0  0  0  0  0  0  0  0
   -5.1544   29.6871    9.5868 C   0  0  0  0  0  0  0  0  0  0  0  0
   -4.4236   30.9378    9.4507 N   0  0  0  0  0  0  0  0  0  0  0  0
   -3.0787   31.0950    9.6632 C   0  0  0  0  0  0  0  0  0  0  0  0
   -2.7701   32.4219    9.4588 C   0  0  0  0  0  0  0  0  0  0  0  0
   -3.9685   33.0835    9.0996 C   0  0  0  0  0  0  0  0  0  0  0  0
   -4.9741   32.1413    9.0958 C   0  0  0  0  0  0  0  0  0  0  0  0
  1  2  1  0  0  0
  2  3  1  0  0  0
  3  4  2  0  0  0
  4  5  1  0  0  0
  5 12  1  0  0  0
 12 13  2  0  0  0
 12 14  1  0  0  0
 14 16  1  0  0  0
 16 17  1  0  0  0
 17 18  1  0  0  0
 18 19  1  0  0  0
 19 20  2  0  0  0
 20 21  1  0  0  0
 21 22  2  0  0  0
  5  6  2  0  0  0
  6  7  1  0  0  0
  7  8  1  0  0  0
  8  9  2  0  0  0
  9 10  1  0  0  0
 10 11  2  0  0  0
  6  2  1  0  0  0
 11  7  1  0  0  0
 22 18  1  0  0  0
 14 15  1  0  0  0
M  END
> <minimizedAffinity>
-7.51836

$$$$
OCNT-2309900


 26 29  0  0  0  0  0  0  0  0999 V2000
   -4.6999   24.6952    2.9274 C   0  0  0  0  0  0  0  0  0  0  0  0
   -5.4519   23.3632    2.9080 C   0  0  0  0  0  0  0  0  0  0  0  0
   -5.1661   22.4099    1.9167 C   0  0  0  0  0  0  0  0  0  0  0  0
   -5.8778   21.2116    1.8552 C   0  0  0  0  0  0  0  0  0  0  0  0
   -6.8873   20.9530    2.7788 C   0  0  0  0  0  0  0  0  0  0  0  0
   -7.1799   21.8868    3.7712 C   0  0  0  0  0  0  0  0  0  0  0  0
   -6.4564   23.0832    3.8478 C   0  0  0  0  0  0  0  0  0  0  0  0
   -6.7492   24.0990    4.9103 C   0  0  0  0  0  0  0  0  0  0  0  0
   -5.4513   24.7632    5.3522 C   0  0  0  0  0  0  0  0  0  0  0  0
   -4.6527   25.3457    4.2628 N   0  0  0  0  0  0  0  0  0  0  0  0
   -3.4856   26.0653    4.5704 C   0  0  0  0  0  0  0  0  0  0  0  0
   -2.5286   26.1427    3.8059 O   0  0  0  0  0  0  0  0  0  0  0  0
   -3.5328   26.6998    5.7980 N   0  0  0  0  0  0  0  0  0  0  0  0
   -4.4261   27.1312    5.9914 H   0  0  0  0  0  0  0  0  0  0  0  0
   -2.4272   27.3407    6.3425 C   0  0  0  0  0  0  0  0  0  0  0  0
   -1.1489   26.8299    6.4326 C   0  0  0  0  0  0  0  0  0  0  0  0
   -0.3994   27.8225    7.0817 C   0  0  0  0  0  0  0  0  0  0  0  0
   -1.1153   28.9136    7.3426 N   0  0  0  0  0  0  0  0  0  0  0  0
   -2.3475   28.6310    6.8497 N   0  0  0  0  0  0  0  0  0  0  0  0
   -3.3711   29.6922    6.6792 C   0  0  0  0  0  0  0  0  0  0  0  0
   -2.8001   31.1336    6.5972 C   0  0  0  0  0  0  0  0  0  0  0  0
   -3.9957   31.5691    7.4714 C   0  0  0  0  0  0  0  0  0  0  0  0
   -4.0361   30.1231    8.0103 C   0  0  0  0  0  0  0  0  0  0  0  0
   -5.9163   26.9062    2.3609 C   0  0  0  0  0  0  0  0  0  0  0  0
   -5.2525   25.6419    1.8066 C   0  0  0  0  0  0  0  0  0  0  0  0
   -6.2163   24.9548    0.8338 C   0  0  0  0  0  0  0  0  0  0  0  0
 24 25  1  0  0  0
 25 26  1  0  0  0
 25  1  1  0  0  0
  1  2  1  0  0  0
  2  3  2  0  0  0
  3  4  1  0  0  0
  4  5  2  0  0  0
  5  6  1  0  0  0
  6  7  2  0  0  0
  7  8  1  0  0  0
  8  9  1  0  0  0
  9 10  1  0  0  0
 10 11  1  0  0  0
 11 12  2  0  0  0
 11 13  1  0  0  0
 13 15  1  0  0  0
 15 16  2  0  0  0
 16 17  1  0  0  0
 17 18  2  0  0  0
 18 19  1  0  0  0
 19 20  1  0  0  0
 20 21  1  0  0  0
 21 22  1  0  0  0
 22 23  1  0  0  0
 10  1  1  0  0  0
 19 15  1  0  0  0
 23 20  1  0  0  0
  7  2  1  0  0  0
 13 14  1  0  0  0
M  END
> <minimizedAffinity>
-9.22590

$$$$
OCNT-2309901


 30 33  0  0  0  0  0  0  0  0999 V2000
   -6.7367   29.1251    6.6236 C   0  0  0  0  0  0  0  0  0  0  0  0
   -5.8629   25.0870    4.4036 C   0  0  0  0  0  0  0  0  0  0  0  0
   -5.5783   25.2565    3.0528 C   0  0  0  0  0  0  0  0  0  0  0  0
   -5.5413   26.5354    2.4914 C   0  0  0  0  0  0  0  0  0  0  0  0
   -5.8154   27.6218    3.3329 C   0  0  0  0  0  0  0  0  0  0  0  0
   -5.8542   28.9680    3.0544 N   0  0  0  0  0  0  0  0  0  0  0  0
   -6.1773   29.6757    4.1802 C   0  0  0  0  0  0  0  0  0  0  0  0
   -6.3602   28.7830    5.2181 C   0  0  0  0  0  0  0  0  0  0  0  0
   -6.1262   27.4739    4.6860 C   0  0  0  0  0  0  0  0  0  0  0  0
   -6.1596   26.1741    5.2306 C   0  0  0  0  0  0  0  0  0  0  0  0
   -5.6761   29.3700    2.1445 H   0  0  0  0  0  0  0  0  0  0  0  0
   -5.9189   23.8185    4.9184 O   0  0  0  0  0  0  0  0  0  0  0  0
   -7.2326   23.5518    5.4254 C   0  0  0  0  0  0  0  0  0  0  0  0
   -5.7060   22.0568    6.7846 C   0  0  0  0  0  0  0  0  0  0  0  0
   -7.1447   22.4306    6.4576 C   0  0  0  0  0  0  0  0  0  0  0  0
   -6.0110   30.3686    7.1368 C   0  0  0  0  0  0  0  0  0  0  0  0
   -4.5706   30.1720    7.1715 N   0  0  0  0  0  0  0  0  0  0  0  0
   -3.9800   29.4538    8.1913 C   0  0  0  0  0  0  0  0  0  0  0  0
   -4.5889   29.0283    9.1660 O   0  0  0  0  0  0  0  0  0  0  0  0
   -4.0731   30.2150    6.2909 H   0  0  0  0  0  0  0  0  0  0  0  0
   -2.5475   29.1463    8.0335 C   0  0  0  0  0  0  0  0  0  0  0  0
   -1.6146   29.9279    8.7071 C   0  0  0  0  0  0  0  0  0  0  0  0
   -0.2729   29.7350    8.6714 N   0  0  0  0  0  0  0  0  0  0  0  0
    0.2225   28.7285    7.9196 C   0  0  0  0  0  0  0  0  0  0  0  0
   -0.6529   27.9270    7.1953 C   0  0  0  0  0  0  0  0  0  0  0  0
   -2.0398   28.1119    7.2238 C   0  0  0  0  0  0  0  0  0  0  0  0
   -2.5918   27.1444    6.3300 C   0  0  0  0  0  0  0  0  0  0  0  0
   -1.5585   26.3917    5.8215 C   0  0  0  0  0  0  0  0  0  0  0  0
   -0.3916   26.8701    6.3524 N   0  0  0  0  0  0  0  0  0  0  0  0
    0.5326   26.5170    6.1402 H   0  0  0  0  0  0  0  0  0  0  0  0
 14 15  1  0  0  0
 15 13  1  0  0  0
 13 12  1  0  0  0
 12  2  1  0  0  0
  2  3  2  0  0  0
  3  4  1  0  0  0
  4  5  2  0  0  0
  5  6  1  0  0  0
  6  7  1  0  0  0
  7  8  2  0  0  0
  8  1  1  0  0  0
  1 16  1  0  0  0
 16 17  1  0  0  0
 17 18  1  0  0  0
 18 19  2  0  0  0
 18 21  1  0  0  0
 21 22  1  0  0  0
 22 23  2  0  0  0
 23 24  1  0  0  0
 24 25  2  0  0  0
 25 26  1  0  0  0
 26 27  1  0  0  0
 27 28  2  0  0  0
 28 29  1  0  0  0
  8  9  1  0  0  0
  9 10  2  0  0  0
 10  2  1  0  0  0
  9  5  1  0  0  0
 26 21  2  0  0  0
 29 25  1  0  0  0
  6 11  1  0  0  0
 17 20  1  0  0  0
 29 30  1  0  0  0
M  END
> <minimizedAffinity>
-9.53515

$$$$
OCNT-2309922


 26 29  0  0  0  0  0  0  0  0999 V2000
   -5.0074   24.9552    5.2971 O   0  0  0  0  0  0  0  0  0  0  0  0
   -4.1780   25.2753    4.4507 C   0  0  0  0  0  0  0  0  0  0  0  0
   -4.0032   24.6708    3.2163 N   0  0  0  0  0  0  0  0  0  0  0  0
   -3.2441   25.0331    2.6563 H   0  0  0  0  0  0  0  0  0  0  0  0
   -4.7207   23.5698    2.6792 C   0  0  0  0  0  0  0  0  0  0  0  0
   -4.6043   22.2739    3.1858 C   0  0  0  0  0  0  0  0  0  0  0  0
   -5.2745   21.1974    2.7114 N   0  0  0  0  0  0  0  0  0  0  0  0
   -6.1068   21.4124    1.6750 C   0  0  0  0  0  0  0  0  0  0  0  0
   -6.3168   22.6515    1.0742 C   0  0  0  0  0  0  0  0  0  0  0  0
   -7.2087   22.7820   -0.0080 C   0  0  0  0  0  0  0  0  0  0  0  0
   -7.4173   24.0189   -0.6095 C   0  0  0  0  0  0  0  0  0  0  0  0
   -6.7343   25.1227   -0.1302 C   0  0  0  0  0  0  0  0  0  0  0  0
   -6.9272   26.3177   -0.7033 F   0  0  0  0  0  0  0  0  0  0  0  0
   -5.8473   25.0154    0.9396 C   0  0  0  0  0  0  0  0  0  0  0  0
   -5.6095   23.7721    1.5806 C   0  0  0  0  0  0  0  0  0  0  0  0
   -3.2449   26.4659    4.7004 C   0  0  0  0  0  0  0  0  0  0  0  0
   -1.9005   25.9446    5.2183 C   0  0  0  0  0  0  0  0  0  0  0  0
   -1.1189   27.0863    5.8370 C   0  0  0  0  0  0  0  0  0  0  0  0
   -1.8073   27.6073    6.9771 O   0  0  0  0  0  0  0  0  0  0  0  0
   -3.0896   28.0028    6.7087 C   0  0  0  0  0  0  0  0  0  0  0  0
   -3.6464   28.9223    7.5981 C   0  0  0  0  0  0  0  0  0  0  0  0
   -4.9425   29.3957    7.3949 C   0  0  0  0  0  0  0  0  0  0  0  0
   -5.6761   28.9448    6.3009 C   0  0  0  0  0  0  0  0  0  0  0  0
   -7.2701   29.5354    6.0397 Cl  0  0  0  0  0  0  0  0  0  0  0  0
   -5.1302   28.0107    5.4190 C   0  0  0  0  0  0  0  0  0  0  0  0
   -3.8346   27.5086    5.6310 C   0  0  0  0  0  0  0  0  0  0  0  0
  1  2  2  0  0  0
  2  3  1  0  0  0
  3  5  1  0  0  0
  5  6  1  0  0  0
  6  7  2  0  0  0
  7  8  1  0  0  0
  8  9  2  0  0  0
  9 10  1  0  0  0
 10 11  2  0  0  0
 11 12  1  0  0  0
 12 13  1  0  0  0
 12 14  2  0  0  0
 14 15  1  0  0  0
  2 16  1  0  0  0
 16 17  1  0  0  0
 17 18  1  0  0  0
 18 19  1  0  0  0
 19 20  1  0  0  0
 20 21  1  0  0  0
 21 22  2  0  0  0
 22 23  1  0  0  0
 23 24  1  0  0  0
 23 25  2  0  0  0
 25 26  1  0  0  0
 15  5  2  0  0  0
 26 16  1  0  0  0
 15  9  1  0  0  0
 26 20  2  0  0  0
  3  4  1  0  0  0
M  END
> <minimizedAffinity>
-10.50800

$$$$
OCNT-2309935


 25 28  0  0  0  0  0  0  0  0999 V2000
   -3.4786   28.7134    6.7345 C   0  0  0  0  0  0  0  0  0  0  0  0
   -2.6182   29.4187    7.5642 C   0  0  0  0  0  0  0  0  0  0  0  0
   -2.7145   30.7624    8.2068 C   0  0  0  0  0  0  0  0  0  0  0  0
   -1.6844   30.9369    9.3278 C   0  0  0  0  0  0  0  0  0  0  0  0
   -0.3041   30.4437    8.8897 C   0  0  0  0  0  0  0  0  0  0  0  0
   -0.3510   28.9607    8.5244 C   0  0  0  0  0  0  0  0  0  0  0  0
   -1.5072   28.6384    7.7091 N   0  0  0  0  0  0  0  0  0  0  0  0
   -1.5819   27.4611    7.0753 N   0  0  0  0  0  0  0  0  0  0  0  0
   -2.7671   27.5079    6.4436 C   0  0  0  0  0  0  0  0  0  0  0  0
   -4.7881   29.1591    6.2811 C   0  0  0  0  0  0  0  0  0  0  0  0
   -4.9610   30.1725    5.6124 O   0  0  0  0  0  0  0  0  0  0  0  0
   -7.1042   28.9034    6.5331 C   0  0  0  0  0  0  0  0  0  0  0  0
   -5.8000   28.3526    6.7109 O   0  0  0  0  0  0  0  0  0  0  0  0
   -3.1835   26.3699    5.5583 C   0  0  0  0  0  0  0  0  0  0  0  0
   -3.4229   26.8246    4.2214 O   0  0  0  0  0  0  0  0  0  0  0  0
   -4.0344   25.9442    3.3697 C   0  0  0  0  0  0  0  0  0  0  0  0
   -3.5449   24.6729    3.0740 C   0  0  0  0  0  0  0  0  0  0  0  0
   -4.2303   23.8422    2.1762 C   0  0  0  0  0  0  0  0  0  0  0  0
   -5.4158   24.2448    1.5366 C   0  0  0  0  0  0  0  0  0  0  0  0
   -5.8827   25.5351    1.8385 C   0  0  0  0  0  0  0  0  0  0  0  0
   -5.2051   26.3730    2.7339 C   0  0  0  0  0  0  0  0  0  0  0  0
   -5.8736   27.9392    3.0414 Cl  0  0  0  0  0  0  0  0  0  0  0  0
   -6.1126   23.3009    0.5736 C   0  0  0  0  0  0  0  0  0  0  0  0
   -6.0732   21.8049    0.7718 C   0  0  0  0  0  0  0  0  0  0  0  0
   -7.3592   22.5527    0.9802 C   0  0  0  0  0  0  0  0  0  0  0  0
 12 13  1  0  0  0
 13 10  1  0  0  0
 10 11  2  0  0  0
 10  1  1  0  0  0
  1  2  2  0  0  0
  2  3  1  0  0  0
  3  4  1  0  0  0
  4  5  1  0  0  0
  5  6  1  0  0  0
  6  7  1  0  0  0
  7  8  1  0  0  0
  8  9  2  0  0  0
  9 14  1  0  0  0
 14 15  1  0  0  0
 15 16  1  0  0  0
 16 17  1  0  0  0
 17 18  2  0  0  0
 18 19  1  0  0  0
 19 23  1  0  0  0
 23 24  1  0  0  0
 24 25  1  0  0  0
 19 20  2  0  0  0
 20 21  1  0  0  0
 21 22  1  0  0  0
  9  1  1  0  0  0
 21 16  2  0  0  0
  7  2  1  0  0  0
 25 23  1  0  0  0
M  END
> <minimizedAffinity>
-8.85043

$$$$
OCNT-2309936


 23 27  0  0  0  0  0  0  0  0999 V2000
   -3.9102   24.8314    3.1517 N   0  0  0  0  0  0  0  0  0  0  0  0
   -4.2552   25.0357    4.5347 C   0  0  0  0  0  0  0  0  0  0  0  0
   -3.7709   26.4877    4.3902 C   0  0  0  0  0  0  0  0  0  0  0  0
   -3.0271   25.9699    3.1501 C   0  0  0  0  0  0  0  0  0  0  0  0
   -5.9866   21.0724    1.7733 C   0  0  0  0  0  0  0  0  0  0  0  0
   -5.1793   21.9482    2.4693 C   0  0  0  0  0  0  0  0  0  0  0  0
   -5.3512   23.2470    1.9053 C   0  0  0  0  0  0  0  0  0  0  0  0
   -4.8413   24.5414    2.1329 C   0  0  0  0  0  0  0  0  0  0  0  0
   -5.2539   25.5327    1.2972 N   0  0  0  0  0  0  0  0  0  0  0  0
   -6.1375   25.2438    0.3231 C   0  0  0  0  0  0  0  0  0  0  0  0
   -6.6983   24.0584    0.0363 N   0  0  0  0  0  0  0  0  0  0  0  0
   -6.2548   23.1022    0.8633 C   0  0  0  0  0  0  0  0  0  0  0  0
   -6.6352   21.7897    0.8016 N   0  0  0  0  0  0  0  0  0  0  0  0
   -7.2898   21.4277    0.1236 H   0  0  0  0  0  0  0  0  0  0  0  0
   -2.9564   27.1137    5.5395 C   0  0  0  0  0  0  0  0  0  0  0  0
   -3.5469   28.0714    6.2760 N   0  0  0  0  0  0  0  0  0  0  0  0
   -2.7984   28.6130    7.2620 C   0  0  0  0  0  0  0  0  0  0  0  0
   -1.4907   28.2642    7.5516 C   0  0  0  0  0  0  0  0  0  0  0  0
   -1.0034   27.2680    6.7233 C   0  0  0  0  0  0  0  0  0  0  0  0
   -1.6954   26.6846    5.7207 N   0  0  0  0  0  0  0  0  0  0  0  0
   -0.6967   28.8749    8.6721 C   0  0  0  0  0  0  0  0  0  0  0  0
    0.7203   29.3428    8.4317 C   0  0  0  0  0  0  0  0  0  0  0  0
   -0.3669   30.3499    8.6544 C   0  0  0  0  0  0  0  0  0  0  0  0
  5  6  2  0  0  0
  6  7  1  0  0  0
  7  8  2  0  0  0
  8  1  1  0  0  0
  1  2  1  0  0  0
  2  3  1  0  0  0
  3 15  1  0  0  0
 15 16  2  0  0  0
 16 17  1  0  0  0
 17 18  2  0  0  0
 18 21  1  0  0  0
 21 22  1  0  0  0
 22 23  1  0  0  0
 18 19  1  0  0  0
 19 20  2  0  0  0
  3  4  1  0  0  0
  8  9  1  0  0  0
  9 10  2  0  0  0
 10 11  1  0  0  0
 11 12  2  0  0  0
 12 13  1  0  0  0
 13  5  1  0  0  0
 12  7  1  0  0  0
  4  1  1  0  0  0
 20 15  1  0  0  0
 23 21  1  0  0  0
 13 14  1  0  0  0
M  END
> <minimizedAffinity>
-8.67623

$$$$
OCNT-2309940


 23 25  0  0  0  0  0  0  0  0999 V2000
   -4.8723   27.4696    5.1038 C   0  0  0  0  0  0  0  0  0  0  0  0
   -4.8929   28.1805    6.2889 C   0  0  0  0  0  0  0  0  0  0  0  0
   -3.6444   28.1232    6.8459 N   0  0  0  0  0  0  0  0  0  0  0  0
   -2.7974   27.3970    6.0432 C   0  0  0  0  0  0  0  0  0  0  0  0
   -3.5403   26.9650    4.9453 C   0  0  0  0  0  0  0  0  0  0  0  0
   -2.8968   26.1751    3.9703 C   0  0  0  0  0  0  0  0  0  0  0  0
   -1.5479   25.8374    4.1362 C   0  0  0  0  0  0  0  0  0  0  0  0
   -0.8325   26.2861    5.2452 C   0  0  0  0  0  0  0  0  0  0  0  0
   -1.4407   27.0965    6.2090 C   0  0  0  0  0  0  0  0  0  0  0  0
   -3.3650   28.5422    7.7222 H   0  0  0  0  0  0  0  0  0  0  0  0
   -6.0251   27.2660    4.1718 C   0  0  0  0  0  0  0  0  0  0  0  0
   -5.7793   29.5277    3.1583 N   0  0  0  0  0  0  0  0  0  0  0  0
   -5.8898   28.0923    2.8863 C   0  0  0  0  0  0  0  0  0  0  0  0
   -6.6012   29.8397    3.6741 H   0  0  0  0  0  0  0  0  0  0  0  0
   -4.9805   29.6985    3.7678 H   0  0  0  0  0  0  0  0  0  0  0  0
   -0.7838   27.5463    7.3235 O   0  0  0  0  0  0  0  0  0  0  0  0
    0.0375   28.6949    7.0669 C   0  0  0  0  0  0  0  0  0  0  0  0
   -0.5928   29.9717    7.5756 C   0  0  0  0  0  0  0  0  0  0  0  0
   -1.3490   30.7742    6.7085 C   0  0  0  0  0  0  0  0  0  0  0  0
   -1.9578   31.9420    7.1721 C   0  0  0  0  0  0  0  0  0  0  0  0
   -1.8256   32.3152    8.5081 C   0  0  0  0  0  0  0  0  0  0  0  0
   -1.0880   31.5198    9.3825 C   0  0  0  0  0  0  0  0  0  0  0  0
   -0.4793   30.3518    8.9206 C   0  0  0  0  0  0  0  0  0  0  0  0
 12 13  1  0  0  0
 13 11  1  0  0  0
 11  1  1  0  0  0
  1  2  2  0  0  0
  2  3  1  0  0  0
  3  4  1  0  0  0
  4  5  1  0  0  0
  5  6  2  0  0  0
  6  7  1  0  0  0
  7  8  2  0  0  0
  8  9  1  0  0  0
  9 16  1  0  0  0
 16 17  1  0  0  0
 17 18  1  0  0  0
 18 19  2  0  0  0
 19 20  1  0  0  0
 20 21  2  0  0  0
 21 22  1  0  0  0
 22 23  2  0  0  0
  5  1  1  0  0  0
 23 18  1  0  0  0
  9  4  2  0  0  0
 12 14  1  0  0  0
 12 15  1  0  0  0
  3 10  1  0  0  0
M  END
> <minimizedAffinity>
-8.65788

$$$$
OCNT-2309942


 26 29  0  0  0  0  0  0  0  0999 V2000
   -1.6126   28.9301    7.2905 S   0  0  0  0  0  0  0  0  0  0  0  0
   -1.6554   27.9330    8.3360 O   0  0  0  0  0  0  0  0  0  0  0  0
   -0.3514   29.3714    6.7293 O   0  0  0  0  0  0  0  0  0  0  0  0
   -4.3949   33.9004    9.3453 C   0  0  0  0  0  0  0  0  0  0  0  0
   -3.7443   32.6428    8.8269 C   0  0  0  0  0  0  0  0  0  0  0  0
   -2.3901   32.6933    8.4770 C   0  0  0  0  0  0  0  0  0  0  0  0
   -1.7518   31.5570    8.0041 C   0  0  0  0  0  0  0  0  0  0  0  0
   -2.4718   30.3628    7.8771 C   0  0  0  0  0  0  0  0  0  0  0  0
   -3.8245   30.2569    8.2006 C   0  0  0  0  0  0  0  0  0  0  0  0
   -4.5042   29.0933    8.0371 N   0  0  0  0  0  0  0  0  0  0  0  0
   -5.8056   29.0317    8.3896 C   0  0  0  0  0  0  0  0  0  0  0  0
   -6.5082   30.1048    8.8830 C   0  0  0  0  0  0  0  0  0  0  0  0
   -5.8308   31.3085    9.0272 C   0  0  0  0  0  0  0  0  0  0  0  0
   -4.4661   31.4222    8.6903 C   0  0  0  0  0  0  0  0  0  0  0  0
   -2.5619   28.3835    6.0035 N   0  0  0  0  0  0  0  0  0  0  0  0
   -2.1867   28.7858    5.1364 H   0  0  0  0  0  0  0  0  0  0  0  0
   -2.8959   26.9348    5.9548 C   0  0  0  0  0  0  0  0  0  0  0  0
   -1.6757   26.1401    5.5056 C   0  0  0  0  0  0  0  0  0  0  0  0
   -1.7288   26.1701    3.9817 C   0  0  0  0  0  0  0  0  0  0  0  0
   -3.0486   26.6887    3.5896 N   0  0  0  0  0  0  0  0  0  0  0  0
   -3.8875   26.6483    4.8154 C   0  0  0  0  0  0  0  0  0  0  0  0
   -5.0926   27.5885    4.7142 C   0  0  0  0  0  0  0  0  0  0  0  0
   -6.0763   26.8607    3.8002 C   0  0  0  0  0  0  0  0  0  0  0  0
   -5.7712   25.3710    3.9611 C   0  0  0  0  0  0  0  0  0  0  0  0
   -4.5913   25.2849    4.9292 C   0  0  0  0  0  0  0  0  0  0  0  0
   -2.9348   27.6763    3.3460 H   0  0  0  0  0  0  0  0  0  0  0  0
  4  5  1  0  0  0
  5  6  1  0  0  0
  6  7  2  0  0  0
  7  8  1  0  0  0
  8  1  1  0  0  0
  1  2  2  0  0  0
  1  3  2  0  0  0
  1 15  1  0  0  0
 15 17  1  0  0  0
 17 18  1  0  0  0
 18 19  1  0  0  0
 19 20  1  0  0  0
 20 21  1  0  0  0
 21 22  1  0  0  0
 22 23  1  0  0  0
 23 24  1  0  0  0
 24 25  1  0  0  0
  8  9  2  0  0  0
  9 10  1  0  0  0
 10 11  2  0  0  0
 11 12  1  0  0  0
 12 13  2  0  0  0
 13 14  1  0  0  0
 14  5  2  0  0  0
 21 17  1  0  0  0
 14  9  1  0  0  0
 25 21  1  0  0  0
 15 16  1  0  0  0
 20 26  1  0  0  0
M  END
> <minimizedAffinity>
-9.40585

$$$$
OCNT-2309963


 27 30  0  0  0  0  0  0  0  0999 V2000
   -4.1398   30.8160    5.6311 N   0  0  0  0  0  0  0  0  0  0  0  0
   -4.3287   31.5351    4.9350 H   0  0  0  0  0  0  0  0  0  0  0  0
    0.0431   28.1611    7.0027 O   0  0  0  0  0  0  0  0  0  0  0  0
   -0.6030   29.2516    7.5051 C   0  0  0  0  0  0  0  0  0  0  0  0
   -1.7430   29.7093    6.8642 C   0  0  0  0  0  0  0  0  0  0  0  0
   -2.4324   30.8448    7.3626 C   0  0  0  0  0  0  0  0  0  0  0  0
   -3.5911   31.4021    6.7867 C   0  0  0  0  0  0  0  0  0  0  0  0
   -4.2189   32.4541    7.3391 N   0  0  0  0  0  0  0  0  0  0  0  0
   -3.6742   32.9742    8.4434 C   0  0  0  0  0  0  0  0  0  0  0  0
   -2.5638   32.5497    9.0554 N   0  0  0  0  0  0  0  0  0  0  0  0
   -1.9573   31.4893    8.5196 C   0  0  0  0  0  0  0  0  0  0  0  0
   -0.8129   31.0089    9.1399 C   0  0  0  0  0  0  0  0  0  0  0  0
   -0.1412   29.9026    8.6375 C   0  0  0  0  0  0  0  0  0  0  0  0
    0.9630   29.4546    9.2521 F   0  0  0  0  0  0  0  0  0  0  0  0
    0.8017   27.9794    7.5893 H   0  0  0  0  0  0  0  0  0  0  0  0
   -5.3080   29.9473    5.8102 C   0  0  0  0  0  0  0  0  0  0  0  0
   -5.9886   29.5568    4.4879 C   0  0  0  0  0  0  0  0  0  0  0  0
   -5.9519   28.0700    4.2074 C   0  0  0  0  0  0  0  0  0  0  0  0
   -6.1732   27.1537    5.2438 C   0  0  0  0  0  0  0  0  0  0  0  0
   -6.1759   25.7742    5.0125 C   0  0  0  0  0  0  0  0  0  0  0  0
   -5.9488   25.3374    3.7036 C   0  0  0  0  0  0  0  0  0  0  0  0
   -5.8956   24.0616    3.1884 N   0  0  0  0  0  0  0  0  0  0  0  0
   -5.6460   24.1046    1.8422 C   0  0  0  0  0  0  0  0  0  0  0  0
   -5.5337   25.4269    1.4775 C   0  0  0  0  0  0  0  0  0  0  0  0
   -5.7227   26.2165    2.6453 C   0  0  0  0  0  0  0  0  0  0  0  0
   -5.7241   27.6018    2.9012 C   0  0  0  0  0  0  0  0  0  0  0  0
   -6.0231   23.2191    3.7316 H   0  0  0  0  0  0  0  0  0  0  0  0
  3  4  1  0  0  0
  4  5  2  0  0  0
  5  6  1  0  0  0
  6  7  2  0  0  0
  7  1  1  0  0  0
  1 16  1  0  0  0
 16 17  1  0  0  0
 17 18  1  0  0  0
 18 19  2  0  0  0
 19 20  1  0  0  0
 20 21  2  0  0  0
 21 22  1  0  0  0
 22 23  1  0  0  0
 23 24  2  0  0  0
 24 25  1  0  0  0
 25 26  2  0  0  0
  7  8  1  0  0  0
  8  9  2  0  0  0
  9 10  1  0  0  0
 10 11  2  0  0  0
 11 12  1  0  0  0
 12 13  2  0  0  0
 13 14  1  0  0  0
 13  4  1  0  0  0
 11  6  1  0  0  0
 26 18  1  0  0  0
 25 21  1  0  0  0
  3 15  1  0  0  0
  1  2  1  0  0  0
 22 27  1  0  0  0
M  END
> <minimizedAffinity>
-10.54493

$$$$
OCNT-2309973


 24 26  0  0  0  0  0  0  0  0999 V2000
   -5.1513   28.7219    6.7884 N   0  0  0  0  0  0  0  0  0  0  0  0
   -5.9765   29.3063    7.8578 C   0  0  0  0  0  0  0  0  0  0  0  0
   -6.8145   30.4987    7.3854 C   0  0  0  0  0  0  0  0  0  0  0  0
   -7.6538   30.1439    6.1623 C   0  0  0  0  0  0  0  0  0  0  0  0
   -6.8104   29.4697    5.0785 C   0  0  0  0  0  0  0  0  0  0  0  0
   -6.0106   28.2852    5.6608 C   0  0  0  0  0  0  0  0  0  0  0  0
   -5.3519   27.3555    4.5804 C   0  0  0  0  0  0  0  0  0  0  0  0
   -6.0059   27.3822    3.1813 C   0  0  0  0  0  0  0  0  0  0  0  0
   -5.4993   26.2508    2.2909 C   0  0  0  0  0  0  0  0  0  0  0  0
   -5.8188   24.8715    2.8580 C   0  0  0  0  0  0  0  0  0  0  0  0
   -6.1224   24.8920    4.3537 C   0  0  0  0  0  0  0  0  0  0  0  0
   -5.2576   25.8926    5.1199 C   0  0  0  0  0  0  0  0  0  0  0  0
   -3.9001   25.4385    5.0745 O   0  0  0  0  0  0  0  0  0  0  0  0
   -3.5271   25.6805    4.2097 H   0  0  0  0  0  0  0  0  0  0  0  0
   -3.9976   29.5704    6.4614 C   0  0  0  0  0  0  0  0  0  0  0  0
   -1.8266   29.5293    7.9323 C   0  0  0  0  0  0  0  0  0  0  0  0
   -2.7512   28.9788    7.0516 C   0  0  0  0  0  0  0  0  0  0  0  0
   -2.3370   27.7039    6.6977 N   0  0  0  0  0  0  0  0  0  0  0  0
   -1.2407   27.5218    7.3888 C   0  0  0  0  0  0  0  0  0  0  0  0
   -0.8600   28.5772    8.1486 O   0  0  0  0  0  0  0  0  0  0  0  0
   -0.2620   30.9266    9.2992 C   0  0  0  0  0  0  0  0  0  0  0  0
   -1.6475   30.8521    8.6368 C   0  0  0  0  0  0  0  0  0  0  0  0
   -1.7585   32.0331    7.6475 C   0  0  0  0  0  0  0  0  0  0  0  0
   -2.7428   31.0262    9.7043 C   0  0  0  0  0  0  0  0  0  0  0  0
 21 22  1  0  0  0
 22 23  1  0  0  0
 22 24  1  0  0  0
 22 16  1  0  0  0
 16 17  2  0  0  0
 17 15  1  0  0  0
 15  1  1  0  0  0
  1  2  1  0  0  0
  2  3  1  0  0  0
  3  4  1  0  0  0
  4  5  1  0  0  0
  5  6  1  0  0  0
  6  7  1  0  0  0
  7  8  1  0  0  0
  8  9  1  0  0  0
  9 10  1  0  0  0
 10 11  1  0  0  0
 11 12  1  0  0  0
 12 13  1  0  0  0
 17 18  1  0  0  0
 18 19  2  0  0  0
 19 20  1  0  0  0
 20 16  1  0  0  0
  6  1  1  0  0  0
 12  7  1  0  0  0
 13 14  1  0  0  0
M  END
> <minimizedAffinity>
-8.53825

$$$$
OCNT-2309977


 24 26  0  0  0  0  0  0  0  0999 V2000
   -1.7179   28.9327    7.6337 S   0  0  0  0  0  0  0  0  0  0  0  0
   -1.5202   30.2036    6.9747 O   0  0  0  0  0  0  0  0  0  0  0  0
   -0.7826   28.4243    8.6108 O   0  0  0  0  0  0  0  0  0  0  0  0
   -0.9334   26.1813    4.7606 C   0  0  0  0  0  0  0  0  0  0  0  0
   -2.2209   25.8838    4.2901 C   0  0  0  0  0  0  0  0  0  0  0  0
   -3.3393   26.5097    4.8471 C   0  0  0  0  0  0  0  0  0  0  0  0
   -4.9075   26.1377    4.2444 Cl  0  0  0  0  0  0  0  0  0  0  0  0
   -3.1990   27.4344    5.8767 C   0  0  0  0  0  0  0  0  0  0  0  0
   -1.9196   27.7253    6.3524 C   0  0  0  0  0  0  0  0  0  0  0  0
   -0.7914   27.1016    5.8089 C   0  0  0  0  0  0  0  0  0  0  0  0
    0.2791   25.5051    4.1687 C   0  0  0  0  0  0  0  0  0  0  0  0
    2.3603   25.8808    3.0927 C   0  0  0  0  0  0  0  0  0  0  0  0
    1.1170   26.4438    3.4932 O   0  0  0  0  0  0  0  0  0  0  0  0
   -3.2345   29.0063    8.3375 N   0  0  0  0  0  0  0  0  0  0  0  0
   -3.8682   28.3203    7.9259 H   0  0  0  0  0  0  0  0  0  0  0  0
   -3.8411   30.2323    8.8941 C   0  0  0  0  0  0  0  0  0  0  0  0
   -5.0586   29.8057    9.7567 C   0  0  0  0  0  0  0  0  0  0  0  0
   -6.1739   30.7840    9.4252 C   0  0  0  0  0  0  0  0  0  0  0  0
   -5.9502   31.0646    7.9519 C   0  0  0  0  0  0  0  0  0  0  0  0
   -4.4287   31.1368    7.7853 C   0  0  0  0  0  0  0  0  0  0  0  0
   -3.8484   32.5253    8.0802 C   0  0  0  0  0  0  0  0  0  0  0  0
   -3.4645   32.4964    9.4947 N   0  0  0  0  0  0  0  0  0  0  0  0
   -2.8912   31.1580    9.6759 C   0  0  0  0  0  0  0  0  0  0  0  0
   -2.7634   33.2128    9.6818 H   0  0  0  0  0  0  0  0  0  0  0  0
 12 13  1  0  0  0
 13 11  1  0  0  0
 11  4  1  0  0  0
  4  5  1  0  0  0
  5  6  2  0  0  0
  6  7  1  0  0  0
  6  8  1  0  0  0
  8  9  2  0  0  0
  9  1  1  0  0  0
  1  2  2  0  0  0
  1  3  2  0  0  0
  1 14  1  0  0  0
 16 14  1  0  0  0
 16 17  1  0  0  0
 17 18  1  0  0  0
 18 19  1  0  0  0
 19 20  1  0  0  0
 20 21  1  0  0  0
 21 22  1  0  0  0
 22 23  1  0  0  0
  9 10  1  0  0  0
 10  4  2  0  0  0
 20 16  1  0  0  0
 23 16  1  0  0  0
 14 15  1  0  0  0
 22 24  1  0  0  0
M  END
> <minimizedAffinity>
-7.91123

$$$$
OCNT-2309987


 30 33  0  0  0  0  0  0  0  0999 V2000
   -3.7219   25.4135    3.6832 C   0  0  0  0  0  0  0  0  0  0  0  0
   -3.5667   24.0558    3.3667 C   0  0  0  0  0  0  0  0  0  0  0  0
   -4.6761   23.2662    3.0548 C   0  0  0  0  0  0  0  0  0  0  0  0
   -4.5511   21.9063    2.7178 C   0  0  0  0  0  0  0  0  0  0  0  0
   -5.6804   21.1521    2.4072 C   0  0  0  0  0  0  0  0  0  0  0  0
   -6.9336   21.7528    2.4327 C   0  0  0  0  0  0  0  0  0  0  0  0
   -7.0497   23.1049    2.7703 C   0  0  0  0  0  0  0  0  0  0  0  0
   -5.9399   23.8787    3.0847 C   0  0  0  0  0  0  0  0  0  0  0  0
   -6.1062   25.1707    3.4123 N   0  0  0  0  0  0  0  0  0  0  0  0
   -5.0266   25.9273    3.7254 C   0  0  0  0  0  0  0  0  0  0  0  0
   -5.2431   27.2650    4.1334 N   0  0  0  0  0  0  0  0  0  0  0  0
   -6.0259   28.0214    3.1494 C   0  0  0  0  0  0  0  0  0  0  0  0
   -5.9545   29.5090    3.5089 C   0  0  0  0  0  0  0  0  0  0  0  0
   -6.0111   29.7624    5.0184 C   0  0  0  0  0  0  0  0  0  0  0  0
   -6.6042   28.5738    5.7642 C   0  0  0  0  0  0  0  0  0  0  0  0
   -5.8228   27.2814    5.4930 C   0  0  0  0  0  0  0  0  0  0  0  0
   -2.5193   26.2679    4.0112 C   0  0  0  0  0  0  0  0  0  0  0  0
   -2.1524   26.2061    5.4385 N   0  0  0  0  0  0  0  0  0  0  0  0
   -2.0174   25.2218    5.6762 H   0  0  0  0  0  0  0  0  0  0  0  0
   -0.9151   26.9565    5.6885 C   0  0  0  0  0  0  0  0  0  0  0  0
   -0.9534   27.5815    7.0746 C   0  0  0  0  0  0  0  0  0  0  0  0
    1.1006   28.6821    8.2948 O   0  0  0  0  0  0  0  0  0  0  0  0
    0.1635   28.9599    7.2224 S   0  0  0  0  0  0  0  0  0  0  0  0
    0.6447   29.2922    5.8940 O   0  0  0  0  0  0  0  0  0  0  0  0
   -0.8693   30.3112    7.7411 C   0  0  0  0  0  0  0  0  0  0  0  0
   -0.7527   30.8219    9.0366 C   0  0  0  0  0  0  0  0  0  0  0  0
   -1.5703   31.8812    9.4296 C   0  0  0  0  0  0  0  0  0  0  0  0
   -2.4863   32.4292    8.5297 C   0  0  0  0  0  0  0  0  0  0  0  0
   -2.5839   31.9270    7.2307 C   0  0  0  0  0  0  0  0  0  0  0  0
   -1.7710   30.8676    6.8291 C   0  0  0  0  0  0  0  0  0  0  0  0
 22 23  2  0  0  0
 23 24  2  0  0  0
 23 21  1  0  0  0
 21 20  1  0  0  0
 20 18  1  0  0  0
 18 17  1  0  0  0
 17  1  1  0  0  0
  1  2  2  0  0  0
  2  3  1  0  0  0
  3  4  2  0  0  0
  4  5  1  0  0  0
  5  6  2  0  0  0
  6  7  1  0  0  0
  7  8  2  0  0  0
  8  9  1  0  0  0
  9 10  2  0  0  0
 10 11  1  0  0  0
 11 12  1  0  0  0
 12 13  1  0  0  0
 13 14  1  0  0  0
 14 15  1  0  0  0
 15 16  1  0  0  0
 23 25  1  0  0  0
 25 26  2  0  0  0
 26 27  1  0  0  0
 27 28  2  0  0  0
 28 29  1  0  0  0
 29 30  2  0  0  0
 10  1  1  0  0  0
 16 11  1  0  0  0
 30 25  1  0  0  0
  8  3  1  0  0  0
 18 19  1  0  0  0
M  END
> <minimizedAffinity>
-9.95835

$$$$
OCNT-2309990


 30 33  0  0  0  0  0  0  0  0999 V2000
   -6.8479   28.6558    5.9961 C   0  0  0  0  0  0  0  0  0  0  0  0
   -5.4919   23.9530    4.7654 C   0  0  0  0  0  0  0  0  0  0  0  0
   -5.6642   25.3937    4.3820 C   0  0  0  0  0  0  0  0  0  0  0  0
   -6.1483   26.3226    5.3140 C   0  0  0  0  0  0  0  0  0  0  0  0
   -6.3125   27.6769    4.9743 C   0  0  0  0  0  0  0  0  0  0  0  0
   -5.9689   28.1018    3.6837 C   0  0  0  0  0  0  0  0  0  0  0  0
   -5.4927   27.1870    2.7443 C   0  0  0  0  0  0  0  0  0  0  0  0
   -5.3669   25.8376    3.0873 C   0  0  0  0  0  0  0  0  0  0  0  0
   -4.8797   24.9364    2.1688 O   0  0  0  0  0  0  0  0  0  0  0  0
   -5.7555   24.4616    1.2226 C   0  0  0  0  0  0  0  0  0  0  0  0
   -6.2892   25.2106    0.1751 C   0  0  0  0  0  0  0  0  0  0  0  0
   -7.1985   24.6152   -0.6969 C   0  0  0  0  0  0  0  0  0  0  0  0
   -7.5507   23.2915   -0.4812 C   0  0  0  0  0  0  0  0  0  0  0  0
   -7.0629   22.5401    0.5287 N   0  0  0  0  0  0  0  0  0  0  0  0
   -6.1824   23.1474    1.3610 C   0  0  0  0  0  0  0  0  0  0  0  0
   -6.3063   28.3647    7.3213 N   0  0  0  0  0  0  0  0  0  0  0  0
   -5.7743   27.4944    7.2464 H   0  0  0  0  0  0  0  0  0  0  0  0
   -5.4140   29.3888    7.8663 C   0  0  0  0  0  0  0  0  0  0  0  0
   -3.9248   29.2030    7.5372 C   0  0  0  0  0  0  0  0  0  0  0  0
   -3.1548   29.8648    8.7007 C   0  0  0  0  0  0  0  0  0  0  0  0
   -4.2236   30.5456    9.5623 C   0  0  0  0  0  0  0  0  0  0  0  0
   -5.4414   29.6485    9.3829 C   0  0  0  0  0  0  0  0  0  0  0  0
   -6.6350   30.3025    9.7762 O   0  0  0  0  0  0  0  0  0  0  0  0
   -6.5634   30.4954   10.7270 H   0  0  0  0  0  0  0  0  0  0  0  0
   -2.0663   30.8393    8.2501 C   0  0  0  0  0  0  0  0  0  0  0  0
   -0.8187   30.1767    7.9139 N   0  0  0  0  0  0  0  0  0  0  0  0
    0.1199   29.7019    8.7843 C   0  0  0  0  0  0  0  0  0  0  0  0
    1.1181   29.1613    8.0084 C   0  0  0  0  0  0  0  0  0  0  0  0
    0.6834   29.3533    6.6841 C   0  0  0  0  0  0  0  0  0  0  0  0
   -0.5003   29.9690    6.6214 N   0  0  0  0  0  0  0  0  0  0  0  0
  2  3  1  0  0  0
  3  4  1  0  0  0
  4  5  2  0  0  0
  5  1  1  0  0  0
  1 16  1  0  0  0
 16 18  1  0  0  0
 18 19  1  0  0  0
 19 20  1  0  0  0
 20 25  1  0  0  0
 25 26  1  0  0  0
 26 27  1  0  0  0
 27 28  2  0  0  0
 28 29  1  0  0  0
 29 30  2  0  0  0
 20 21  1  0  0  0
 21 22  1  0  0  0
 22 23  1  0  0  0
  5  6  1  0  0  0
  6  7  2  0  0  0
  7  8  1  0  0  0
  8  9  1  0  0  0
  9 10  1  0  0  0
 10 11  1  0  0  0
 11 12  2  0  0  0
 12 13  1  0  0  0
 13 14  2  0  0  0
 14 15  1  0  0  0
  8  3  2  0  0  0
 15 10  2  0  0  0
 22 18  1  0  0  0
 30 26  1  0  0  0
 16 17  1  0  0  0
 23 24  1  0  0  0
M  END
> <minimizedAffinity>
-10.06951

$$$$
OCNT-2310006


 35 39  0  0  0  0  0  0  0  0999 V2000
    0.2000   29.4263    5.7614 O   0  0  0  0  0  0  0  0  0  0  0  0
    0.2332   28.6262    6.6904 C   0  0  0  0  0  0  0  0  0  0  0  0
   -0.3899   27.3879    6.7339 N   0  0  0  0  0  0  0  0  0  0  0  0
   -0.2980   26.8666    7.5977 H   0  0  0  0  0  0  0  0  0  0  0  0
   -1.1631   26.7778    5.7255 C   0  0  0  0  0  0  0  0  0  0  0  0
   -0.6286   26.1188    4.6194 C   0  0  0  0  0  0  0  0  0  0  0  0
   -1.4661   25.5328    3.6593 C   0  0  0  0  0  0  0  0  0  0  0  0
   -2.8563   25.6028    3.7902 C   0  0  0  0  0  0  0  0  0  0  0  0
   -3.3969   26.2471    4.9110 C   0  0  0  0  0  0  0  0  0  0  0  0
   -2.5542   26.8333    5.8641 C   0  0  0  0  0  0  0  0  0  0  0  0
   -3.7171   24.9988    2.8277 N   0  0  0  0  0  0  0  0  0  0  0  0
   -4.1943   25.6220    1.6915 C   0  0  0  0  0  0  0  0  0  0  0  0
   -5.0378   24.8814    1.0123 N   0  0  0  0  0  0  0  0  0  0  0  0
   -5.0922   23.6992    1.6952 C   0  0  0  0  0  0  0  0  0  0  0  0
   -5.8295   22.5451    1.3849 C   0  0  0  0  0  0  0  0  0  0  0  0
   -5.6958   21.4138    2.1941 C   0  0  0  0  0  0  0  0  0  0  0  0
   -4.8311   21.4255    3.2854 C   0  0  0  0  0  0  0  0  0  0  0  0
   -4.0918   22.5693    3.6137 C   0  0  0  0  0  0  0  0  0  0  0  0
   -4.2625   23.7176    2.8195 C   0  0  0  0  0  0  0  0  0  0  0  0
    1.0042   28.9026    7.9705 C   0  0  0  0  0  0  0  0  0  0  0  0
    0.1244   29.5099    9.0569 C   0  0  0  0  0  0  0  0  0  0  0  0
   -0.8733   30.4153    8.5246 N   0  0  0  0  0  0  0  0  0  0  0  0
   -2.1784   30.0222    8.3134 C   0  0  0  0  0  0  0  0  0  0  0  0
   -2.5788   28.9079    8.6412 O   0  0  0  0  0  0  0  0  0  0  0  0
   -0.5340   31.2552    8.0743 H   0  0  0  0  0  0  0  0  0  0  0  0
   -3.0340   31.0094    7.6511 C   0  0  0  0  0  0  0  0  0  0  0  0
   -3.4363   31.0194    6.3228 C   0  0  0  0  0  0  0  0  0  0  0  0
   -4.2328   32.1141    6.1138 N   0  0  0  0  0  0  0  0  0  0  0  0
   -4.3604   32.8398    7.2726 C   0  0  0  0  0  0  0  0  0  0  0  0
   -5.0688   34.0223    7.5195 C   0  0  0  0  0  0  0  0  0  0  0  0
   -5.0234   34.5482    8.8132 C   0  0  0  0  0  0  0  0  0  0  0  0
   -4.2965   33.9156    9.8176 C   0  0  0  0  0  0  0  0  0  0  0  0
   -3.5950   32.7339    9.5517 C   0  0  0  0  0  0  0  0  0  0  0  0
   -3.6225   32.1768    8.2545 C   0  0  0  0  0  0  0  0  0  0  0  0
   -4.6644   32.3625    5.2337 H   0  0  0  0  0  0  0  0  0  0  0  0
  1  2  2  0  0  0
  2 20  1  0  0  0
 20 21  1  0  0  0
 21 22  1  0  0  0
 22 23  1  0  0  0
 23 24  2  0  0  0
 23 26  1  0  0  0
 26 27  2  0  0  0
 27 28  1  0  0  0
 28 29  1  0  0  0
 29 30  2  0  0  0
 30 31  1  0  0  0
 31 32  2  0  0  0
 32 33  1  0  0  0
 33 34  2  0  0  0
  2  3  1  0  0  0
  3  5  1  0  0  0
  5  6  1  0  0  0
  6  7  2  0  0  0
  7  8  1  0  0  0
  8 11  1  0  0  0
 11 12  1  0  0  0
 12 13  2  0  0  0
 13 14  1  0  0  0
 14 15  2  0  0  0
 15 16  1  0  0  0
 16 17  2  0  0  0
 17 18  1  0  0  0
 18 19  2  0  0  0
  8  9  2  0  0  0
  9 10  1  0  0  0
 34 26  1  0  0  0
 10  5  2  0  0  0
 34 29  1  0  0  0
 19 11  1  0  0  0
 19 14  1  0  0  0
 22 25  1  0  0  0
 28 35  1  0  0  0
  3  4  1  0  0  0
M  END
> <minimizedAffinity>
-11.14680

$$$$
OCNT-2310008


 25 29  0  0  0  0  0  0  0  0999 V2000
   -4.8286   24.6772    3.8479 C   0  0  0  0  0  0  0  0  0  0  0  0
   -3.5590   24.9396    4.0688 N   0  0  0  0  0  0  0  0  0  0  0  0
   -3.6164   25.9962    4.9477 C   0  0  0  0  0  0  0  0  0  0  0  0
   -4.8610   26.3823    5.2658 N   0  0  0  0  0  0  0  0  0  0  0  0
   -5.6667   25.5094    4.5381 O   0  0  0  0  0  0  0  0  0  0  0  0
   -5.3195   23.5362    2.8937 C   0  0  0  0  0  0  0  0  0  0  0  0
   -4.8153   23.7151    1.4228 C   0  0  0  0  0  0  0  0  0  0  0  0
   -6.2492   23.6486    0.9711 C   0  0  0  0  0  0  0  0  0  0  0  0
   -6.7482   24.6234   -0.0703 C   0  0  0  0  0  0  0  0  0  0  0  0
   -7.6563   23.4775   -0.5829 C   0  0  0  0  0  0  0  0  0  0  0  0
   -6.7067   22.4789    0.1257 C   0  0  0  0  0  0  0  0  0  0  0  0
   -6.7809   23.7620    2.3813 C   0  0  0  0  0  0  0  0  0  0  0  0
   -3.8157   21.7378    3.1869 F   0  0  0  0  0  0  0  0  0  0  0  0
   -5.0632   22.1714    3.4814 C   0  0  0  0  0  0  0  0  0  0  0  0
   -5.1969   22.1849    4.8277 F   0  0  0  0  0  0  0  0  0  0  0  0
   -5.9344   21.2530    2.9981 F   0  0  0  0  0  0  0  0  0  0  0  0
   -2.3925   26.6251    5.4726 C   0  0  0  0  0  0  0  0  0  0  0  0
   -1.1622   26.0914    5.3771 N   0  0  0  0  0  0  0  0  0  0  0  0
   -0.3719   26.9934    5.9834 N   0  0  0  0  0  0  0  0  0  0  0  0
   -1.0506   28.0775    6.4518 C   0  0  0  0  0  0  0  0  0  0  0  0
   -2.3723   27.8723    6.1449 C   0  0  0  0  0  0  0  0  0  0  0  0
    0.6232   26.8057    6.0407 H   0  0  0  0  0  0  0  0  0  0  0  0
   -0.4477   29.2803    7.2064 C   0  0  0  0  0  0  0  0  0  0  0  0
   -0.3979   29.2458    8.7105 C   0  0  0  0  0  0  0  0  0  0  0  0
    0.8683   29.1111    7.9169 C   0  0  0  0  0  0  0  0  0  0  0  0
 13 14  1  0  0  0
 14 15  1  0  0  0
 14 16  1  0  0  0
 14  6  1  0  0  0
  6  1  1  0  0  0
  1  2  2  0  0  0
  2  3  1  0  0  0
  3 17  1  0  0  0
 17 18  2  0  0  0
 18 19  1  0  0  0
 19 20  1  0  0  0
 20 23  1  0  0  0
 23 24  1  0  0  0
 24 25  1  0  0  0
 20 21  2  0  0  0
  3  4  2  0  0  0
  4  5  1  0  0  0
  6  7  1  0  0  0
  7  8  1  0  0  0
  8  9  1  0  0  0
  9 10  1  0  0  0
 10 11  1  0  0  0
  8 12  1  0  0  0
 12  6  1  0  0  0
  5  1  1  0  0  0
 11  8  1  0  0  0
 21 17  1  0  0  0
 25 23  1  0  0  0
 19 22  1  0  0  0
M  END
> <minimizedAffinity>
-9.42902

$$$$
OCNT-2310010


 30 33  0  0  0  0  0  0  0  0999 V2000
   -5.5028   26.5666    2.9615 O   0  0  0  0  0  0  0  0  0  0  0  0
   -4.8626   25.8727    3.7478 C   0  0  0  0  0  0  0  0  0  0  0  0
   -5.3492   24.6917    4.2555 N   0  0  0  0  0  0  0  0  0  0  0  0
   -4.8127   24.1323    4.9056 H   0  0  0  0  0  0  0  0  0  0  0  0
   -3.4576   26.2337    4.2501 C   0  0  0  0  0  0  0  0  0  0  0  0
   -3.4693   26.6222    5.6746 N   0  0  0  0  0  0  0  0  0  0  0  0
   -2.2744   26.1835    6.4097 C   0  0  0  0  0  0  0  0  0  0  0  0
   -1.0471   27.1018    6.3175 C   0  0  0  0  0  0  0  0  0  0  0  0
   -1.0464   28.3064    7.2369 C   0  0  0  0  0  0  0  0  0  0  0  0
    0.2096   28.7734    7.6784 C   0  0  0  0  0  0  0  0  0  0  0  0
    0.3221   29.8759    8.5259 C   0  0  0  0  0  0  0  0  0  0  0  0
   -0.8278   30.5232    8.9445 C   0  0  0  0  0  0  0  0  0  0  0  0
   -0.7769   31.5986    9.7797 O   0  0  0  0  0  0  0  0  0  0  0  0
   -2.0775   30.0937    8.5143 C   0  0  0  0  0  0  0  0  0  0  0  0
   -2.2080   28.9971    7.6389 C   0  0  0  0  0  0  0  0  0  0  0  0
   -3.6135   28.6110    7.2262 C   0  0  0  0  0  0  0  0  0  0  0  0
   -3.7487   28.0589    5.8021 C   0  0  0  0  0  0  0  0  0  0  0  0
    0.1512   31.7686   10.0065 H   0  0  0  0  0  0  0  0  0  0  0  0
   -6.6341   24.1468    3.8489 C   0  0  0  0  0  0  0  0  0  0  0  0
   -6.4647   23.2968    2.5946 C   0  0  0  0  0  0  0  0  0  0  0  0
   -5.9656   21.9885    2.7083 C   0  0  0  0  0  0  0  0  0  0  0  0
   -5.8154   21.1803    1.5799 C   0  0  0  0  0  0  0  0  0  0  0  0
   -6.1677   21.6647    0.3233 C   0  0  0  0  0  0  0  0  0  0  0  0
   -6.6804   22.9538    0.1932 C   0  0  0  0  0  0  0  0  0  0  0  0
   -6.8367   23.7625    1.3213 C   0  0  0  0  0  0  0  0  0  0  0  0
   -7.2018   23.3693    5.0259 C   0  0  0  0  0  0  0  0  0  0  0  0
   -6.4869   22.9188    6.0461 N   0  0  0  0  0  0  0  0  0  0  0  0
   -7.3104   22.2519    6.9308 C   0  0  0  0  0  0  0  0  0  0  0  0
   -8.6417   22.1975    6.5820 C   0  0  0  0  0  0  0  0  0  0  0  0
   -8.8857   23.0061    5.0928 S   0  0  0  0  0  0  0  0  0  0  0  0
  1  2  2  0  0  0
  2  5  1  0  0  0
  5  6  1  0  0  0
  6  7  1  0  0  0
  7  8  1  0  0  0
  8  9  1  0  0  0
  9 10  1  0  0  0
 10 11  2  0  0  0
 11 12  1  0  0  0
 12 13  1  0  0  0
 12 14  2  0  0  0
 14 15  1  0  0  0
 15 16  1  0  0  0
 16 17  1  0  0  0
  2  3  1  0  0  0
  3 19  1  0  0  0
 19 20  1  0  0  0
 20 21  2  0  0  0
 21 22  1  0  0  0
 22 23  2  0  0  0
 23 24  1  0  0  0
 24 25  2  0  0  0
 19 26  1  0  0  0
 26 27  2  0  0  0
 27 28  1  0  0  0
 28 29  2  0  0  0
 29 30  1  0  0  0
 17  6  1  0  0  0
 25 20  1  0  0  0
 30 26  1  0  0  0
 15  9  2  0  0  0
 13 18  1  0  0  0
  3  4  1  0  0  0
M  END
> <minimizedAffinity>
-9.74643

$$$$
OCNT-2310018


 26 29  0  0  0  0  0  0  0  0999 V2000
   -6.9427   23.0741   -0.5781 O   0  0  0  0  0  0  0  0  0  0  0  0
   -6.7252   23.5295    0.6879 C   0  0  0  0  0  0  0  0  0  0  0  0
   -7.0584   22.6963    1.7407 C   0  0  0  0  0  0  0  0  0  0  0  0
   -6.8393   23.1253    3.0482 C   0  0  0  0  0  0  0  0  0  0  0  0
   -6.2789   24.3902    3.3208 C   0  0  0  0  0  0  0  0  0  0  0  0
   -6.0722   24.7530    4.7775 C   0  0  0  0  0  0  0  0  0  0  0  0
   -4.8388   25.6122    5.0693 C   0  0  0  0  0  0  0  0  0  0  0  0
   -5.0751   27.0474    4.8507 N   0  0  0  0  0  0  0  0  0  0  0  0
   -5.8511   27.4075    3.6518 C   0  0  0  0  0  0  0  0  0  0  0  0
   -5.4029   26.6417    2.4056 C   0  0  0  0  0  0  0  0  0  0  0  0
   -5.9811   25.2499    2.2442 C   0  0  0  0  0  0  0  0  0  0  0  0
   -6.1904   24.7913    0.9262 C   0  0  0  0  0  0  0  0  0  0  0  0
   -6.6706   23.7616   -1.2074 H   0  0  0  0  0  0  0  0  0  0  0  0
   -5.1423   27.9064    5.9489 C   0  0  0  0  0  0  0  0  0  0  0  0
   -6.3238   28.3112    6.3645 N   0  0  0  0  0  0  0  0  0  0  0  0
   -6.4179   29.1405    7.4599 C   0  0  0  0  0  0  0  0  0  0  0  0
   -5.3599   29.5864    8.1473 C   0  0  0  0  0  0  0  0  0  0  0  0
   -4.0981   29.2122    7.7325 N   0  0  0  0  0  0  0  0  0  0  0  0
   -2.9008   29.5589    8.2633 N   0  0  0  0  0  0  0  0  0  0  0  0
   -1.9806   28.9974    7.4541 C   0  0  0  0  0  0  0  0  0  0  0  0
   -2.6037   28.2627    6.4126 C   0  0  0  0  0  0  0  0  0  0  0  0
   -3.9545   28.3912    6.6366 C   0  0  0  0  0  0  0  0  0  0  0  0
   -0.4998   29.1635    7.6698 C   0  0  0  0  0  0  0  0  0  0  0  0
    0.0617   29.9490    6.7077 F   0  0  0  0  0  0  0  0  0  0  0  0
    0.1688   27.9806    7.6329 F   0  0  0  0  0  0  0  0  0  0  0  0
   -0.2092   29.7515    8.8601 F   0  0  0  0  0  0  0  0  0  0  0  0
  1  2  1  0  0  0
  2  3  1  0  0  0
  3  4  2  0  0  0
  4  5  1  0  0  0
  5  6  1  0  0  0
  6  7  1  0  0  0
  7  8  1  0  0  0
  8 14  1  0  0  0
 14 15  2  0  0  0
 15 16  1  0  0  0
 16 17  2  0  0  0
 17 18  1  0  0  0
 18 19  1  0  0  0
 19 20  2  0  0  0
 20 23  1  0  0  0
 23 24  1  0  0  0
 23 25  1  0  0  0
 23 26  1  0  0  0
 20 21  1  0  0  0
 21 22  2  0  0  0
  8  9  1  0  0  0
  9 10  1  0  0  0
 10 11  1  0  0  0
 11 12  1  0  0  0
 12  2  2  0  0  0
 11  5  2  0  0  0
 22 14  1  0  0  0
 22 18  1  0  0  0
  1 13  1  0  0  0
M  END
> <minimizedAffinity>
-9.81868

$$$$
OCNT-2310019


 28 30  0  0  0  0  0  0  0  0999 V2000
   -6.2384   24.7654    2.4097 O   0  0  0  0  0  0  0  0  0  0  0  0
   -5.5731   23.5983    2.1675 C   0  0  0  0  0  0  0  0  0  0  0  0
   -5.0042   23.3537    1.1097 O   0  0  0  0  0  0  0  0  0  0  0  0
   -6.9259   21.6950    3.2393 C   0  0  0  0  0  0  0  0  0  0  0  0
   -5.6977   22.6175    3.3610 C   0  0  0  0  0  0  0  0  0  0  0  0
   -4.4376   21.7348    3.2913 C   0  0  0  0  0  0  0  0  0  0  0  0
   -5.6208   23.2441    4.6587 O   0  0  0  0  0  0  0  0  0  0  0  0
   -6.6822   23.0214    5.4900 C   0  0  0  0  0  0  0  0  0  0  0  0
   -6.5161   22.1613    6.5769 C   0  0  0  0  0  0  0  0  0  0  0  0
   -7.5704   21.9503    7.4674 C   0  0  0  0  0  0  0  0  0  0  0  0
   -8.7752   22.6275    7.2832 C   0  0  0  0  0  0  0  0  0  0  0  0
  -10.0760   22.3698    8.3784 Cl  0  0  0  0  0  0  0  0  0  0  0  0
   -8.9269   23.5241    6.2263 C   0  0  0  0  0  0  0  0  0  0  0  0
   -7.8711   23.7323    5.3356 C   0  0  0  0  0  0  0  0  0  0  0  0
   -5.4374   25.9420    2.2352 C   0  0  0  0  0  0  0  0  0  0  0  0
   -5.1936   26.6294    3.5597 C   0  0  0  0  0  0  0  0  0  0  0  0
   -6.1417   27.3094    4.2247 C   0  0  0  0  0  0  0  0  0  0  0  0
   -5.9194   27.9871    5.5101 C   0  0  0  0  0  0  0  0  0  0  0  0
   -6.8298   28.5923    6.0641 O   0  0  0  0  0  0  0  0  0  0  0  0
   -4.6486   27.9061    6.0468 O   0  0  0  0  0  0  0  0  0  0  0  0
   -3.6257   27.1968    5.3875 C   0  0  0  0  0  0  0  0  0  0  0  0
   -2.3850   27.1783    6.0283 C   0  0  0  0  0  0  0  0  0  0  0  0
   -1.3377   26.4964    5.4272 C   0  0  0  0  0  0  0  0  0  0  0  0
   -0.1015   26.4404    5.9967 O   0  0  0  0  0  0  0  0  0  0  0  0
   -1.5216   25.8460    4.2131 C   0  0  0  0  0  0  0  0  0  0  0  0
   -2.7722   25.8737    3.5841 C   0  0  0  0  0  0  0  0  0  0  0  0
   -3.8513   26.5554    4.1650 C   0  0  0  0  0  0  0  0  0  0  0  0
   -0.1199   26.9240    6.8392 H   0  0  0  0  0  0  0  0  0  0  0  0
  4  5  1  0  0  0
  5  6  1  0  0  0
  5  7  1  0  0  0
  7  8  1  0  0  0
  8  9  1  0  0  0
  9 10  2  0  0  0
 10 11  1  0  0  0
 11 12  1  0  0  0
 11 13  2  0  0  0
 13 14  1  0  0  0
  5  2  1  0  0  0
  2  3  2  0  0  0
  2  1  1  0  0  0
  1 15  1  0  0  0
 15 16  1  0  0  0
 16 17  2  0  0  0
 17 18  1  0  0  0
 18 19  2  0  0  0
 18 20  1  0  0  0
 20 21  1  0  0  0
 21 22  1  0  0  0
 22 23  2  0  0  0
 23 24  1  0  0  0
 23 25  1  0  0  0
 25 26  2  0  0  0
 26 27  1  0  0  0
 14  8  2  0  0  0
 27 16  1  0  0  0
 27 21  2  0  0  0
 24 28  1  0  0  0
M  END
> <minimizedAffinity>
-8.98586

$$$$
OCNT-2310024


 24 26  0  0  0  0  0  0  0  0999 V2000
   -5.1899   28.2821    6.9490 N   0  0  0  0  0  0  0  0  0  0  0  0
   -4.2944   28.3041    7.4525 H   0  0  0  0  0  0  0  0  0  0  0  0
   -4.8947   28.1695    5.5091 C   0  0  0  0  0  0  0  0  0  0  0  0
   -6.1366   27.7687    4.6898 C   0  0  0  0  0  0  0  0  0  0  0  0
   -5.7672   27.5739    3.2243 C   0  0  0  0  0  0  0  0  0  0  0  0
   -4.7816   26.4171    3.0859 C   0  0  0  0  0  0  0  0  0  0  0  0
   -3.6087   26.5268    4.0293 C   0  0  0  0  0  0  0  0  0  0  0  0
   -2.4516   25.7772    3.7561 C   0  0  0  0  0  0  0  0  0  0  0  0
   -1.3402   25.8466    4.5963 C   0  0  0  0  0  0  0  0  0  0  0  0
   -1.3835   26.6695    5.7132 C   0  0  0  0  0  0  0  0  0  0  0  0
   -0.3167   26.7805    6.5553 O   0  0  0  0  0  0  0  0  0  0  0  0
   -2.5226   27.4096    6.0071 C   0  0  0  0  0  0  0  0  0  0  0  0
   -3.6639   27.3291    5.1881 C   0  0  0  0  0  0  0  0  0  0  0  0
    0.3965   26.2099    6.2271 H   0  0  0  0  0  0  0  0  0  0  0  0
   -5.9161   29.4928    7.3392 C   0  0  0  0  0  0  0  0  0  0  0  0
   -5.2533   30.1870    8.5492 C   0  0  0  0  0  0  0  0  0  0  0  0
   -3.8217   29.6845    8.7498 C   0  0  0  0  0  0  0  0  0  0  0  0
   -3.1194   30.8515    9.4182 C   0  0  0  0  0  0  0  0  0  0  0  0
   -3.8489   32.0371    9.0823 O   0  0  0  0  0  0  0  0  0  0  0  0
   -4.9643   31.6642    8.2532 C   0  0  0  0  0  0  0  0  0  0  0  0
   -6.0780   30.0817    9.8722 C   0  0  0  0  0  0  0  0  0  0  0  0
   -5.7619   28.2253   11.3991 O   0  0  0  0  0  0  0  0  0  0  0  0
   -6.5147   28.6758   10.2794 C   0  0  0  0  0  0  0  0  0  0  0  0
   -6.0220   27.3008   11.5582 H   0  0  0  0  0  0  0  0  0  0  0  0
 22 23  1  0  0  0
 23 21  1  0  0  0
 21 16  1  0  0  0
 16 15  1  0  0  0
 15  1  1  0  0  0
  1  3  1  0  0  0
  3  4  1  0  0  0
  4  5  1  0  0  0
  5  6  1  0  0  0
  6  7  1  0  0  0
  7  8  1  0  0  0
  8  9  2  0  0  0
  9 10  1  0  0  0
 10 11  1  0  0  0
 10 12  2  0  0  0
 12 13  1  0  0  0
 16 17  1  0  0  0
 17 18  1  0  0  0
 18 19  1  0  0  0
 19 20  1  0  0  0
 20 16  1  0  0  0
 13  3  1  0  0  0
 13  7  2  0  0  0
 22 24  1  0  0  0
  1  2  1  0  0  0
 11 14  1  0  0  0
M  END
> <minimizedAffinity>
-8.45885

$$$$
OCNT-2310035


 22 24  0  0  0  0  0  0  0  0999 V2000
   -1.8097   27.8397    5.8636 O   0  0  0  0  0  0  0  0  0  0  0  0
   -2.8226   27.8651    6.5571 C   0  0  0  0  0  0  0  0  0  0  0  0
   -4.0354   27.3258    6.1874 N   0  0  0  0  0  0  0  0  0  0  0  0
   -2.8169   28.4167    7.8373 N   0  0  0  0  0  0  0  0  0  0  0  0
   -1.5395   28.8879    8.3658 C   0  0  0  0  0  0  0  0  0  0  0  0
   -1.3501   30.3714    8.0500 C   0  0  0  0  0  0  0  0  0  0  0  0
   -2.5667   31.1643    8.4515 C   0  0  0  0  0  0  0  0  0  0  0  0
   -2.4920   32.5423    8.6193 C   0  0  0  0  0  0  0  0  0  0  0  0
   -3.5430   33.3199    8.9587 N   0  0  0  0  0  0  0  0  0  0  0  0
   -4.7287   32.6992    9.1263 C   0  0  0  0  0  0  0  0  0  0  0  0
   -4.9153   31.3349    8.9694 C   0  0  0  0  0  0  0  0  0  0  0  0
   -3.8181   30.5448    8.6134 C   0  0  0  0  0  0  0  0  0  0  0  0
   -3.9847   29.0479    8.4551 C   0  0  0  0  0  0  0  0  0  0  0  0
   -4.6207   27.0405    6.9577 H   0  0  0  0  0  0  0  0  0  0  0  0
   -4.4003   26.8442    4.9137 C   0  0  0  0  0  0  0  0  0  0  0  0
   -5.3476   27.4657    4.0930 C   0  0  0  0  0  0  0  0  0  0  0  0
   -5.6761   26.9237    2.8437 C   0  0  0  0  0  0  0  0  0  0  0  0
   -5.0628   25.7508    2.4121 C   0  0  0  0  0  0  0  0  0  0  0  0
   -5.4728   25.0899    0.8776 Cl  0  0  0  0  0  0  0  0  0  0  0  0
   -4.1289   25.1247    3.2318 C   0  0  0  0  0  0  0  0  0  0  0  0
   -3.5275   23.9900    2.8437 F   0  0  0  0  0  0  0  0  0  0  0  0
   -3.7982   25.6600    4.4760 C   0  0  0  0  0  0  0  0  0  0  0  0
  1  2  2  0  0  0
  2  3  1  0  0  0
  3 15  1  0  0  0
 15 16  1  0  0  0
 16 17  2  0  0  0
 17 18  1  0  0  0
 18 19  1  0  0  0
 18 20  2  0  0  0
 20 21  1  0  0  0
 20 22  1  0  0  0
  2  4  1  0  0  0
  4  5  1  0  0  0
  5  6  1  0  0  0
  6  7  1  0  0  0
  7  8  2  0  0  0
  8  9  1  0  0  0
  9 10  2  0  0  0
 10 11  1  0  0  0
 11 12  2  0  0  0
 12 13  1  0  0  0
 22 15  2  0  0  0
 13  4  1  0  0  0
 12  7  1  0  0  0
  3 14  1  0  0  0
M  END
> <minimizedAffinity>
-8.82606

$$$$
OCNT-2310041


 28 31  0  0  0  0  0  0  0  0999 V2000
   -2.9285   25.7159    4.6912 N   0  0  0  0  0  0  0  0  0  0  0  0
   -4.1717   26.0539    5.4236 C   0  0  0  0  0  0  0  0  0  0  0  0
   -4.3101   27.5298    5.8547 C   0  0  0  0  0  0  0  0  0  0  0  0
   -3.1267   27.9860    6.6086 N   0  0  0  0  0  0  0  0  0  0  0  0
   -1.8339   27.6582    5.9851 C   0  0  0  0  0  0  0  0  0  0  0  0
   -1.7825   26.1847    5.5115 C   0  0  0  0  0  0  0  0  0  0  0  0
   -3.2726   29.1893    7.2549 C   0  0  0  0  0  0  0  0  0  0  0  0
   -4.3329   29.9559    7.1090 N   0  0  0  0  0  0  0  0  0  0  0  0
   -4.2418   31.0997    7.8807 C   0  0  0  0  0  0  0  0  0  0  0  0
   -5.2020   32.1298    7.9504 C   0  0  0  0  0  0  0  0  0  0  0  0
   -4.9776   33.2355    8.7772 C   0  0  0  0  0  0  0  0  0  0  0  0
   -3.8123   33.3246    9.5319 C   0  0  0  0  0  0  0  0  0  0  0  0
   -2.8461   32.3149    9.4798 C   0  0  0  0  0  0  0  0  0  0  0  0
   -3.0839   31.2100    8.6450 C   0  0  0  0  0  0  0  0  0  0  0  0
   -2.1075   29.8273    8.3686 S   0  0  0  0  0  0  0  0  0  0  0  0
   -2.9286   26.3324    3.3399 C   0  0  0  0  0  0  0  0  0  0  0  0
   -5.1680   26.9319    2.6741 O   0  0  0  0  0  0  0  0  0  0  0  0
   -4.2676   26.0995    2.6211 C   0  0  0  0  0  0  0  0  0  0  0  0
   -4.3220   24.8704    1.9936 N   0  0  0  0  0  0  0  0  0  0  0  0
   -3.4424   24.3520    2.0106 H   0  0  0  0  0  0  0  0  0  0  0  0
   -5.3853   24.2977    1.2741 C   0  0  0  0  0  0  0  0  0  0  0  0
   -6.1651   24.9905    0.3459 C   0  0  0  0  0  0  0  0  0  0  0  0
   -7.2059   24.3350   -0.3217 C   0  0  0  0  0  0  0  0  0  0  0  0
   -7.4635   22.9930   -0.0590 C   0  0  0  0  0  0  0  0  0  0  0  0
   -8.4617   22.3753   -0.7033 F   0  0  0  0  0  0  0  0  0  0  0  0
   -6.7030   22.2866    0.8597 C   0  0  0  0  0  0  0  0  0  0  0  0
   -5.6717   22.9457    1.5177 C   0  0  0  0  0  0  0  0  0  0  0  0
   -4.9328   22.2632    2.4073 F   0  0  0  0  0  0  0  0  0  0  0  0
 17 18  2  0  0  0
 18 16  1  0  0  0
 16  1  1  0  0  0
  1  2  1  0  0  0
  2  3  1  0  0  0
  3  4  1  0  0  0
  4  7  1  0  0  0
  7  8  2  0  0  0
  8  9  1  0  0  0
  9 10  2  0  0  0
 10 11  1  0  0  0
 11 12  2  0  0  0
 12 13  1  0  0  0
 13 14  2  0  0  0
 14 15  1  0  0  0
  4  5  1  0  0  0
  5  6  1  0  0  0
 18 19  1  0  0  0
 19 21  1  0  0  0
 21 22  1  0  0  0
 22 23  2  0  0  0
 23 24  1  0  0  0
 24 25  1  0  0  0
 24 26  2  0  0  0
 26 27  1  0  0  0
 27 28  1  0  0  0
  6  1  1  0  0  0
 27 21  2  0  0  0
 15  7  1  0  0  0
 14  9  1  0  0  0
 19 20  1  0  0  0
M  END
> <minimizedAffinity>
-10.12153

$$$$
OCNT-2310050


 22 23  0  0  0  0  0  0  0  0999 V2000
   -7.0953   30.1379    6.5297 C   0  0  0  0  0  0  0  0  0  0  0  0
   -6.6408   29.1197    5.5156 C   0  0  0  0  0  0  0  0  0  0  0  0
   -6.3079   29.5187    4.2153 C   0  0  0  0  0  0  0  0  0  0  0  0
   -5.8549   28.5857    3.2769 C   0  0  0  0  0  0  0  0  0  0  0  0
   -5.7195   27.2323    3.6154 C   0  0  0  0  0  0  0  0  0  0  0  0
   -6.0483   26.8404    4.9215 C   0  0  0  0  0  0  0  0  0  0  0  0
   -6.5002   27.7717    5.8630 C   0  0  0  0  0  0  0  0  0  0  0  0
   -5.2475   26.2670    2.6318 C   0  0  0  0  0  0  0  0  0  0  0  0
   -4.1075   25.5101    2.4561 C   0  0  0  0  0  0  0  0  0  0  0  0
   -4.2057   24.7497    1.3170 N   0  0  0  0  0  0  0  0  0  0  0  0
   -5.3880   25.0683    0.8441 C   0  0  0  0  0  0  0  0  0  0  0  0
   -6.0819   25.9772    1.5804 O   0  0  0  0  0  0  0  0  0  0  0  0
   -5.8414   31.1362    8.4057 C   0  0  0  0  0  0  0  0  0  0  0  0
   -6.6016   30.6663    9.2496 O   0  0  0  0  0  0  0  0  0  0  0  0
   -5.9660   30.8688    7.0559 N   0  0  0  0  0  0  0  0  0  0  0  0
   -5.4294   31.4263    6.4066 H   0  0  0  0  0  0  0  0  0  0  0  0
   -4.6752   32.0941    8.7520 C   0  0  0  0  0  0  0  0  0  0  0  0
   -3.3480   31.4220    8.6944 N   0  0  0  0  0  0  0  0  0  0  0  0
   -2.5851   31.7556    7.4945 C   0  0  0  0  0  0  0  0  0  0  0  0
   -2.5266   31.6274    9.8888 C   0  0  0  0  0  0  0  0  0  0  0  0
   -4.8183   34.6475    8.6409 C   0  0  0  0  0  0  0  0  0  0  0  0
   -4.7551   33.3459    7.8528 C   0  0  0  0  0  0  0  0  0  0  0  0
 21 22  1  0  0  0
 22 17  1  0  0  0
 17 13  1  0  0  0
 13 14  2  0  0  0
 13 15  1  0  0  0
 15  1  1  0  0  0
  1  2  1  0  0  0
  2  3  1  0  0  0
  3  4  2  0  0  0
  4  5  1  0  0  0
  5  8  1  0  0  0
  8  9  2  0  0  0
  9 10  1  0  0  0
 10 11  2  0  0  0
 11 12  1  0  0  0
  5  6  2  0  0  0
  6  7  1  0  0  0
 17 18  1  0  0  0
 18 19  1  0  0  0
 18 20  1  0  0  0
  7  2  2  0  0  0
 12  8  1  0  0  0
 15 16  1  0  0  0
M  END
> <minimizedAffinity>
-8.24748

$$$$
OCNT-2310061


 28 31  0  0  0  0  0  0  0  0999 V2000
   -5.8076   28.7147    6.6010 O   0  0  0  0  0  0  0  0  0  0  0  0
   -5.0941   29.3179    5.8120 C   0  0  0  0  0  0  0  0  0  0  0  0
   -5.1921   29.2210    4.4488 N   0  0  0  0  0  0  0  0  0  0  0  0
   -4.0900   30.1730    6.1759 N   0  0  0  0  0  0  0  0  0  0  0  0
   -4.3413   29.4105    3.9413 H   0  0  0  0  0  0  0  0  0  0  0  0
   -3.8516   30.8884    5.5063 H   0  0  0  0  0  0  0  0  0  0  0  0
   -3.8481   30.5027    7.5746 C   0  0  0  0  0  0  0  0  0  0  0  0
   -4.1824   31.9840    7.8234 C   0  0  0  0  0  0  0  0  0  0  0  0
   -3.6646   32.4423    9.1787 C   0  0  0  0  0  0  0  0  0  0  0  0
   -2.1433   32.3464    9.2155 C   0  0  0  0  0  0  0  0  0  0  0  0
   -1.6333   31.0032    8.7557 C   0  0  0  0  0  0  0  0  0  0  0  0
   -0.3244   30.6267    9.0982 C   0  0  0  0  0  0  0  0  0  0  0  0
    0.1910   29.3952    8.6978 C   0  0  0  0  0  0  0  0  0  0  0  0
   -0.5952   28.5248    7.9512 C   0  0  0  0  0  0  0  0  0  0  0  0
   -1.8921   28.8928    7.5931 C   0  0  0  0  0  0  0  0  0  0  0  0
   -2.4216   30.1429    7.9659 C   0  0  0  0  0  0  0  0  0  0  0  0
   -6.1172   28.2943    3.8370 C   0  0  0  0  0  0  0  0  0  0  0  0
   -5.3901   27.1361    3.2055 C   0  0  0  0  0  0  0  0  0  0  0  0
   -4.0283   26.9353    3.4469 C   0  0  0  0  0  0  0  0  0  0  0  0
   -3.3891   25.8756    2.8264 C   0  0  0  0  0  0  0  0  0  0  0  0
   -4.0047   25.0134    1.9884 N   0  0  0  0  0  0  0  0  0  0  0  0
   -5.3277   25.2213    1.7507 C   0  0  0  0  0  0  0  0  0  0  0  0
   -6.0490   26.2637    2.3323 C   0  0  0  0  0  0  0  0  0  0  0  0
   -5.9913   24.3330    0.8647 N   0  0  0  0  0  0  0  0  0  0  0  0
   -5.9078   22.9633    0.8590 C   0  0  0  0  0  0  0  0  0  0  0  0
   -6.6530   22.4627   -0.1008 N   0  0  0  0  0  0  0  0  0  0  0  0
   -7.1889   23.5769   -0.6737 C   0  0  0  0  0  0  0  0  0  0  0  0
   -6.8228   24.7409   -0.1327 N   0  0  0  0  0  0  0  0  0  0  0  0
  1  2  2  0  0  0
  2  3  1  0  0  0
  3 17  1  0  0  0
 17 18  1  0  0  0
 18 19  2  0  0  0
 19 20  1  0  0  0
 20 21  2  0  0  0
 21 22  1  0  0  0
 22 24  1  0  0  0
 24 25  1  0  0  0
 25 26  2  0  0  0
 26 27  1  0  0  0
 27 28  2  0  0  0
 22 23  2  0  0  0
  2  4  1  0  0  0
  4  7  1  0  0  0
  7  8  1  0  0  0
  8  9  1  0  0  0
  9 10  1  0  0  0
 10 11  1  0  0  0
 11 12  2  0  0  0
 12 13  1  0  0  0
 13 14  2  0  0  0
 14 15  1  0  0  0
 15 16  2  0  0  0
 23 18  1  0  0  0
 16  7  1  0  0  0
 28 24  1  0  0  0
 16 11  1  0  0  0
  3  5  1  0  0  0
  4  6  1  0  0  0
M  END
> <minimizedAffinity>
-10.32818

$$$$
OCNT-2310066


 27 28  0  0  0  0  0  0  0  0999 V2000
   -6.0973   29.3332    6.0692 S   0  0  0  0  0  0  0  0  0  0  0  0
   -7.4575   29.8192    6.0337 O   0  0  0  0  0  0  0  0  0  0  0  0
   -4.9711   30.2248    5.9037 O   0  0  0  0  0  0  0  0  0  0  0  0
   -5.9309   25.6449    4.4013 C   0  0  0  0  0  0  0  0  0  0  0  0
   -6.0070   26.6938    5.3285 C   0  0  0  0  0  0  0  0  0  0  0  0
   -5.9740   28.0189    4.8843 C   0  0  0  0  0  0  0  0  0  0  0  0
   -5.8865   28.3127    3.5233 C   0  0  0  0  0  0  0  0  0  0  0  0
   -5.8111   27.2691    2.5992 C   0  0  0  0  0  0  0  0  0  0  0  0
   -5.8304   25.9260    3.0243 C   0  0  0  0  0  0  0  0  0  0  0  0
   -5.7457   24.8084    2.0093 C   0  0  0  0  0  0  0  0  0  0  0  0
   -6.8142   23.9646    2.0509 F   0  0  0  0  0  0  0  0  0  0  0  0
   -4.6490   24.0264    2.1868 F   0  0  0  0  0  0  0  0  0  0  0  0
   -5.6915   25.2723    0.7329 F   0  0  0  0  0  0  0  0  0  0  0  0
   -5.9767   23.2085    5.2978 N   0  0  0  0  0  0  0  0  0  0  0  0
   -5.9554   24.2942    4.8917 C   0  0  0  0  0  0  0  0  0  0  0  0
   -5.9252   28.5299    7.5176 N   0  0  0  0  0  0  0  0  0  0  0  0
   -5.8176   27.5188    7.4429 H   0  0  0  0  0  0  0  0  0  0  0  0
   -6.3151   29.1243    8.8050 C   0  0  0  0  0  0  0  0  0  0  0  0
   -5.0996   29.5001    9.6691 C   0  0  0  0  0  0  0  0  0  0  0  0
   -4.2342   30.4403    8.9595 N   0  0  0  0  0  0  0  0  0  0  0  0
   -4.2286   31.3680    9.4023 H   0  0  0  0  0  0  0  0  0  0  0  0
   -2.9082   30.0022    8.8018 C   0  0  0  0  0  0  0  0  0  0  0  0
   -1.8556   30.8218    9.2269 C   0  0  0  0  0  0  0  0  0  0  0  0
   -0.5419   30.5084    9.0849 N   0  0  0  0  0  0  0  0  0  0  0  0
   -0.3071   29.3297    8.4754 C   0  0  0  0  0  0  0  0  0  0  0  0
   -1.3321   28.5132    8.0325 C   0  0  0  0  0  0  0  0  0  0  0  0
   -2.6405   28.8320    8.1806 N   0  0  0  0  0  0  0  0  0  0  0  0
 14 15  3  0  0  0
 15  4  1  0  0  0
  4  5  1  0  0  0
  5  6  2  0  0  0
  6  1  1  0  0  0
  1  2  2  0  0  0
  1  3  2  0  0  0
  1 16  1  0  0  0
 16 18  1  0  0  0
 18 19  1  0  0  0
 19 20  1  0  0  0
 20 22  1  0  0  0
 22 23  2  0  0  0
 23 24  1  0  0  0
 24 25  2  0  0  0
 25 26  1  0  0  0
 26 27  2  0  0  0
  6  7  1  0  0  0
  7  8  2  0  0  0
  8  9  1  0  0  0
  9 10  1  0  0  0
 10 11  1  0  0  0
 10 12  1  0  0  0
 10 13  1  0  0  0
  9  4  2  0  0  0
 27 22  1  0  0  0
 16 17  1  0  0  0
 20 21  1  0  0  0
M  END
> <minimizedAffinity>
-8.00070

$$$$
OCNT-2310067


 27 30  0  0  0  0  0  0  0  0999 V2000
   -4.4424   29.0755    8.1877 S   0  0  0  0  0  0  0  0  0  0  0  0
   -3.1993   28.4449    8.5740 O   0  0  0  0  0  0  0  0  0  0  0  0
   -5.6878   28.8084    8.8764 O   0  0  0  0  0  0  0  0  0  0  0  0
   -5.2893   27.4231    3.9639 C   0  0  0  0  0  0  0  0  0  0  0  0
   -3.8630   27.4919    4.5280 C   0  0  0  0  0  0  0  0  0  0  0  0
   -3.8224   27.5354    6.0537 C   0  0  0  0  0  0  0  0  0  0  0  0
   -4.6639   28.6752    6.5214 N   0  0  0  0  0  0  0  0  0  0  0  0
   -6.0926   28.4427    6.1701 C   0  0  0  0  0  0  0  0  0  0  0  0
   -6.2283   28.4255    4.6487 C   0  0  0  0  0  0  0  0  0  0  0  0
   -7.2642   22.7876    4.8564 C   0  0  0  0  0  0  0  0  0  0  0  0
   -6.6839   24.0254    4.2913 C   0  0  0  0  0  0  0  0  0  0  0  0
   -6.4337   24.1138    2.9801 N   0  0  0  0  0  0  0  0  0  0  0  0
   -5.9028   25.3730    2.7822 O   0  0  0  0  0  0  0  0  0  0  0  0
   -5.8387   26.0337    3.9683 C   0  0  0  0  0  0  0  0  0  0  0  0
   -6.3247   25.2159    4.9607 C   0  0  0  0  0  0  0  0  0  0  0  0
   -4.2489   30.8490    8.1729 C   0  0  0  0  0  0  0  0  0  0  0  0
   -5.4016   31.6344    8.3599 C   0  0  0  0  0  0  0  0  0  0  0  0
   -5.3226   33.0244    8.3143 C   0  0  0  0  0  0  0  0  0  0  0  0
   -4.0950   33.6372    8.0923 C   0  0  0  0  0  0  0  0  0  0  0  0
   -2.9448   32.8597    7.9341 C   0  0  0  0  0  0  0  0  0  0  0  0
   -2.9916   31.4510    7.9811 C   0  0  0  0  0  0  0  0  0  0  0  0
   -1.7240   30.7142    7.8852 C   0  0  0  0  0  0  0  0  0  0  0  0
   -1.2671   30.2251    6.6511 C   0  0  0  0  0  0  0  0  0  0  0  0
   -0.0520   29.5425    6.5580 C   0  0  0  0  0  0  0  0  0  0  0  0
    0.7255   29.3439    7.6967 C   0  0  0  0  0  0  0  0  0  0  0  0
    0.2900   29.8272    8.9283 C   0  0  0  0  0  0  0  0  0  0  0  0
   -0.9247   30.5102    9.0218 C   0  0  0  0  0  0  0  0  0  0  0  0
 10 11  1  0  0  0
 11 12  2  0  0  0
 12 13  1  0  0  0
 13 14  1  0  0  0
 14  4  1  0  0  0
  4  5  1  0  0  0
  5  6  1  0  0  0
  6  7  1  0  0  0
  7  1  1  0  0  0
  1  2  2  0  0  0
  1  3  2  0  0  0
  1 16  1  0  0  0
 16 17  2  0  0  0
 17 18  1  0  0  0
 18 19  2  0  0  0
 19 20  1  0  0  0
 20 21  2  0  0  0
 21 22  1  0  0  0
 22 23  2  0  0  0
 23 24  1  0  0  0
 24 25  2  0  0  0
 25 26  1  0  0  0
 26 27  2  0  0  0
  7  8  1  0  0  0
  8  9  1  0  0  0
 14 15  2  0  0  0
 15 11  1  0  0  0
  9  4  1  0  0  0
 21 16  1  0  0  0
 27 22  1  0  0  0
M  END
> <minimizedAffinity>
-9.42111

$$$$
OCNT-2310076


 26 28  0  0  0  0  0  0  0  0999 V2000
   -1.9589   27.7261    6.6042 N   0  0  0  0  0  0  0  0  0  0  0  0
   -1.6986   26.7947    5.6240 C   0  0  0  0  0  0  0  0  0  0  0  0
   -0.5724   26.3992    5.3417 O   0  0  0  0  0  0  0  0  0  0  0  0
   -2.9301   27.9501    6.7935 H   0  0  0  0  0  0  0  0  0  0  0  0
   -2.8947   26.3086    4.9533 C   0  0  0  0  0  0  0  0  0  0  0  0
   -2.9718   25.3525    3.9630 C   0  0  0  0  0  0  0  0  0  0  0  0
   -4.3077   25.2456    3.6639 N   0  0  0  0  0  0  0  0  0  0  0  0
   -5.0076   26.1068    4.4512 N   0  0  0  0  0  0  0  0  0  0  0  0
   -4.1587   26.7551    5.2352 N   0  0  0  0  0  0  0  0  0  0  0  0
   -4.9714   24.4202    2.7222 C   0  0  0  0  0  0  0  0  0  0  0  0
   -4.8486   23.0218    2.8269 C   0  0  0  0  0  0  0  0  0  0  0  0
   -5.4913   22.1816    1.9135 C   0  0  0  0  0  0  0  0  0  0  0  0
   -6.2617   22.7256    0.8880 C   0  0  0  0  0  0  0  0  0  0  0  0
   -6.3870   24.1100    0.7788 C   0  0  0  0  0  0  0  0  0  0  0  0
   -7.3437   24.7650   -0.4965 Cl  0  0  0  0  0  0  0  0  0  0  0  0
   -5.7464   24.9554    1.6898 C   0  0  0  0  0  0  0  0  0  0  0  0
   -5.8941   26.2804    1.5465 F   0  0  0  0  0  0  0  0  0  0  0  0
   -0.9201   28.2974    7.4373 C   0  0  0  0  0  0  0  0  0  0  0  0
   -4.6967   30.6322    7.1232 C   0  0  0  0  0  0  0  0  0  0  0  0
   -3.5096   30.0221    7.7296 N   0  0  0  0  0  0  0  0  0  0  0  0
   -3.4228   30.3472    9.1572 C   0  0  0  0  0  0  0  0  0  0  0  0
   -2.7009   31.6441    9.5436 C   0  0  0  0  0  0  0  0  0  0  0  0
   -1.2013   31.7186    9.2206 C   0  0  0  0  0  0  0  0  0  0  0  0
   -0.5567   30.3843    8.8536 C   0  0  0  0  0  0  0  0  0  0  0  0
   -0.9687   29.8354    7.4691 C   0  0  0  0  0  0  0  0  0  0  0  0
   -2.3210   30.3519    6.9357 C   0  0  0  0  0  0  0  0  0  0  0  0
 19 20  1  0  0  0
 20 21  1  0  0  0
 21 22  1  0  0  0
 22 23  1  0  0  0
 23 24  1  0  0  0
 24 25  1  0  0  0
 25 18  1  0  0  0
 18  1  1  0  0  0
  1  2  1  0  0  0
  2  3  2  0  0  0
  2  5  1  0  0  0
  5  6  2  0  0  0
  6  7  1  0  0  0
  7 10  1  0  0  0
 10 11  2  0  0  0
 11 12  1  0  0  0
 12 13  2  0  0  0
 13 14  1  0  0  0
 14 15  1  0  0  0
 14 16  2  0  0  0
 16 17  1  0  0  0
  7  8  1  0  0  0
  8  9  2  0  0  0
 25 26  1  0  0  0
 26 20  1  0  0  0
  9  5  1  0  0  0
 16 10  1  0  0  0
  1  4  1  0  0  0
M  END
> <minimizedAffinity>
-9.61054

$$$$
OCNT-2310088


 29 31  0  0  0  0  0  0  0  0999 V2000
   -2.4527   27.6066    6.4644 C   0  0  0  0  0  0  0  0  0  0  0  0
   -1.5099   26.8212    6.4836 O   0  0  0  0  0  0  0  0  0  0  0  0
   -3.5509   27.4838    5.6231 N   0  0  0  0  0  0  0  0  0  0  0  0
   -4.2171   28.2422    5.6308 H   0  0  0  0  0  0  0  0  0  0  0  0
   -3.8218   26.4568    4.6937 C   0  0  0  0  0  0  0  0  0  0  0  0
   -3.1445   26.5137    3.4690 C   0  0  0  0  0  0  0  0  0  0  0  0
   -3.3565   25.5385    2.4899 C   0  0  0  0  0  0  0  0  0  0  0  0
   -4.2432   24.4875    2.7218 C   0  0  0  0  0  0  0  0  0  0  0  0
   -4.9301   24.4301    3.9347 C   0  0  0  0  0  0  0  0  0  0  0  0
   -4.7180   25.4099    4.9147 C   0  0  0  0  0  0  0  0  0  0  0  0
   -4.3807   23.5925    1.6821 O   0  0  0  0  0  0  0  0  0  0  0  0
   -5.5683   23.5917    0.9914 C   0  0  0  0  0  0  0  0  0  0  0  0
   -5.9361   24.7681    0.3315 C   0  0  0  0  0  0  0  0  0  0  0  0
   -7.1171   24.8087   -0.4098 C   0  0  0  0  0  0  0  0  0  0  0  0
   -7.9196   23.6712   -0.5065 C   0  0  0  0  0  0  0  0  0  0  0  0
   -7.5377   22.4874    0.1299 C   0  0  0  0  0  0  0  0  0  0  0  0
   -6.3560   22.4417    0.8732 C   0  0  0  0  0  0  0  0  0  0  0  0
   -5.9032   20.9481    1.6086 Cl  0  0  0  0  0  0  0  0  0  0  0  0
   -3.1608   30.7175    8.4800 C   0  0  0  0  0  0  0  0  0  0  0  0
   -1.9024   30.5228    9.0005 C   0  0  0  0  0  0  0  0  0  0  0  0
   -1.1630   29.1252    8.3550 S   0  0  0  0  0  0  0  0  0  0  0  0
   -2.5094   28.7828    7.3378 C   0  0  0  0  0  0  0  0  0  0  0  0
   -3.5133   29.7203    7.5195 C   0  0  0  0  0  0  0  0  0  0  0  0
   -4.1881   32.0298    8.9429 S   0  0  0  0  0  0  0  0  0  0  0  0
   -3.3677   32.8636    9.7916 O   0  0  0  0  0  0  0  0  0  0  0  0
   -5.3906   31.3876    9.4174 O   0  0  0  0  0  0  0  0  0  0  0  0
   -5.1706   34.2386    7.7837 C   0  0  0  0  0  0  0  0  0  0  0  0
   -4.5956   32.9077    7.5640 N   0  0  0  0  0  0  0  0  0  0  0  0
   -5.1389   32.3182    6.9317 H   0  0  0  0  0  0  0  0  0  0  0  0
 27 28  1  0  0  0
 28 24  1  0  0  0
 24 25  2  0  0  0
 24 26  2  0  0  0
 24 19  1  0  0  0
 19 20  2  0  0  0
 20 21  1  0  0  0
 21 22  1  0  0  0
 22  1  1  0  0  0
  1  2  2  0  0  0
  1  3  1  0  0  0
  3  5  1  0  0  0
  5  6  1  0  0  0
  6  7  2  0  0  0
  7  8  1  0  0  0
  8 11  1  0  0  0
 11 12  1  0  0  0
 12 13  2  0  0  0
 13 14  1  0  0  0
 14 15  2  0  0  0
 15 16  1  0  0  0
 16 17  2  0  0  0
 17 18  1  0  0  0
  8  9  2  0  0  0
  9 10  1  0  0  0
 22 23  2  0  0  0
 23 19  1  0  0  0
 10  5  2  0  0  0
 17 12  1  0  0  0
 28 29  1  0  0  0
  3  4  1  0  0  0
M  END
> <minimizedAffinity>
-9.53369

$$$$
OCNT-2310095


 24 26  0  0  0  0  0  0  0  0999 V2000
   -5.2884   25.2200    2.4950 C   0  0  0  0  0  0  0  0  0  0  0  0
   -6.0114   25.6047    3.6339 C   0  0  0  0  0  0  0  0  0  0  0  0
   -5.4019   26.3374    4.6572 C   0  0  0  0  0  0  0  0  0  0  0  0
   -4.0531   26.7016    4.5645 C   0  0  0  0  0  0  0  0  0  0  0  0
   -3.3309   26.3310    3.4226 C   0  0  0  0  0  0  0  0  0  0  0  0
   -3.9412   25.5983    2.4010 C   0  0  0  0  0  0  0  0  0  0  0  0
   -5.9682   23.0416    1.4060 C   0  0  0  0  0  0  0  0  0  0  0  0
   -6.5935   22.3603    0.3488 C   0  0  0  0  0  0  0  0  0  0  0  0
   -7.1791   23.0671   -0.7011 C   0  0  0  0  0  0  0  0  0  0  0  0
   -7.1436   24.4578   -0.7033 C   0  0  0  0  0  0  0  0  0  0  0  0
   -6.5237   25.1425    0.3443 C   0  0  0  0  0  0  0  0  0  0  0  0
   -5.9278   24.4511    1.4163 C   0  0  0  0  0  0  0  0  0  0  0  0
   -4.9121   21.6481    3.3273 N   0  0  0  0  0  0  0  0  0  0  0  0
   -5.3711   22.2627    2.4557 C   0  0  0  0  0  0  0  0  0  0  0  0
   -3.3871   27.4929    5.6648 C   0  0  0  0  0  0  0  0  0  0  0  0
   -2.6436   26.6104    6.5592 N   0  0  0  0  0  0  0  0  0  0  0  0
   -2.9811   25.6562    6.4417 H   0  0  0  0  0  0  0  0  0  0  0  0
   -1.2146   26.6545    6.2679 C   0  0  0  0  0  0  0  0  0  0  0  0
   -0.6335   27.8397    6.9539 C   0  0  0  0  0  0  0  0  0  0  0  0
    0.2842   28.7528    6.4734 C   0  0  0  0  0  0  0  0  0  0  0  0
    0.5021   29.6489    7.4765 N   0  0  0  0  0  0  0  0  0  0  0  0
   -0.1969   29.3814    8.5914 N   0  0  0  0  0  0  0  0  0  0  0  0
   -0.8876   28.2845    8.2725 C   0  0  0  0  0  0  0  0  0  0  0  0
    1.1110   30.4603    7.4723 H   0  0  0  0  0  0  0  0  0  0  0  0
 13 14  3  0  0  0
 14  7  1  0  0  0
  7  8  2  0  0  0
  8  9  1  0  0  0
  9 10  2  0  0  0
 10 11  1  0  0  0
 11 12  2  0  0  0
 12  1  1  0  0  0
  1  2  1  0  0  0
  2  3  2  0  0  0
  3  4  1  0  0  0
  4 15  1  0  0  0
 15 16  1  0  0  0
 16 18  1  0  0  0
 18 19  1  0  0  0
 19 20  2  0  0  0
 20 21  1  0  0  0
 21 22  1  0  0  0
 22 23  2  0  0  0
  4  5  2  0  0  0
  5  6  1  0  0  0
 12  7  1  0  0  0
  6  1  2  0  0  0
 23 19  1  0  0  0
 16 17  1  0  0  0
 21 24  1  0  0  0
M  END
> <minimizedAffinity>
-8.62570

$$$$
OCNT-2310096


 30 33  0  0  0  0  0  0  0  0999 V2000
   -5.6859   22.1613    3.9980 C   0  0  0  0  0  0  0  0  0  0  0  0
   -5.4782   21.0987    2.8897 C   0  0  0  0  0  0  0  0  0  0  0  0
   -6.2097   21.4489    1.5794 C   0  0  0  0  0  0  0  0  0  0  0  0
   -5.7289   22.7874    0.9920 C   0  0  0  0  0  0  0  0  0  0  0  0
   -5.6594   23.8142    2.0688 C   0  0  0  0  0  0  0  0  0  0  0  0
   -5.6189   23.5489    3.4199 C   0  0  0  0  0  0  0  0  0  0  0  0
   -5.6104   24.6666    4.2351 N   0  0  0  0  0  0  0  0  0  0  0  0
   -5.5818   25.7693    3.5027 C   0  0  0  0  0  0  0  0  0  0  0  0
   -5.6055   25.4878    1.7941 S   0  0  0  0  0  0  0  0  0  0  0  0
   -5.5284   27.1318    4.0750 C   0  0  0  0  0  0  0  0  0  0  0  0
   -6.0640   28.2650    3.4356 C   0  0  0  0  0  0  0  0  0  0  0  0
   -5.9857   29.5299    4.0297 C   0  0  0  0  0  0  0  0  0  0  0  0
   -5.3736   29.6731    5.2674 C   0  0  0  0  0  0  0  0  0  0  0  0
   -5.3010   30.8846    5.8328 F   0  0  0  0  0  0  0  0  0  0  0  0
   -4.8379   28.5758    5.9252 C   0  0  0  0  0  0  0  0  0  0  0  0
   -4.9166   27.3128    5.3312 C   0  0  0  0  0  0  0  0  0  0  0  0
   -8.4042   22.2149    6.4060 N   0  0  0  0  0  0  0  0  0  0  0  0
   -7.0867   22.2819    6.0092 C   0  0  0  0  0  0  0  0  0  0  0  0
   -6.1150   22.4878    6.7216 O   0  0  0  0  0  0  0  0  0  0  0  0
   -6.9842   22.0544    4.6522 N   0  0  0  0  0  0  0  0  0  0  0  0
   -9.0245   21.8255    5.7121 H   0  0  0  0  0  0  0  0  0  0  0  0
   -7.7253   22.4901    4.1183 H   0  0  0  0  0  0  0  0  0  0  0  0
  -10.4277   24.2847    6.7443 C   0  0  0  0  0  0  0  0  0  0  0  0
   -9.9092   23.4535    7.8835 C   0  0  0  0  0  0  0  0  0  0  0  0
  -10.4555   23.7421    9.0943 N   0  0  0  0  0  0  0  0  0  0  0  0
  -10.0274   23.0264   10.1516 C   0  0  0  0  0  0  0  0  0  0  0  0
  -10.5631   23.3058   11.3481 F   0  0  0  0  0  0  0  0  0  0  0  0
   -9.0741   22.0331   10.0711 C   0  0  0  0  0  0  0  0  0  0  0  0
   -8.5202   21.7468    8.8250 C   0  0  0  0  0  0  0  0  0  0  0  0
   -8.9348   22.4542    7.6945 C   0  0  0  0  0  0  0  0  0  0  0  0
 23 24  1  0  0  0
 24 25  1  0  0  0
 25 26  2  0  0  0
 26 27  1  0  0  0
 26 28  1  0  0  0
 28 29  2  0  0  0
 29 30  1  0  0  0
 30 17  1  0  0  0
 17 18  1  0  0  0
 18 19  2  0  0  0
 18 20  1  0  0  0
 20  1  1  0  0  0
  1  2  1  0  0  0
  2  3  1  0  0  0
  3  4  1  0  0  0
  4  5  1  0  0  0
  5  6  2  0  0  0
  6  7  1  0  0  0
  7  8  2  0  0  0
  8 10  1  0  0  0
 10 11  1  0  0  0
 11 12  2  0  0  0
 12 13  1  0  0  0
 13 14  1  0  0  0
 13 15  2  0  0  0
 15 16  1  0  0  0
  8  9  1  0  0  0
 30 24  2  0  0  0
  6  1  1  0  0  0
 16 10  2  0  0  0
  9  5  1  0  0  0
 17 21  1  0  0  0
 20 22  1  0  0  0
M  END
> <minimizedAffinity>
-10.01578

$$$$
OCNT-2310114


 31 34  0  0  0  0  0  0  0  0999 V2000
   -2.1037   25.8916    4.1516 C   0  0  0  0  0  0  0  0  0  0  0  0
   -0.8917   25.9451    3.4959 C   0  0  0  0  0  0  0  0  0  0  0  0
    0.3172   26.5433    4.5484 S   0  0  0  0  0  0  0  0  0  0  0  0
   -0.8409   26.6662    5.8241 C   0  0  0  0  0  0  0  0  0  0  0  0
   -2.0629   26.3334    5.4665 N   0  0  0  0  0  0  0  0  0  0  0  0
   -5.7363   24.5207    2.3723 C   0  0  0  0  0  0  0  0  0  0  0  0
   -5.6227   25.8559    2.7545 C   0  0  0  0  0  0  0  0  0  0  0  0
   -4.4361   26.3178    3.3356 C   0  0  0  0  0  0  0  0  0  0  0  0
   -3.3576   25.4462    3.5487 C   0  0  0  0  0  0  0  0  0  0  0  0
   -3.4940   24.1042    3.1601 C   0  0  0  0  0  0  0  0  0  0  0  0
   -4.6802   23.6399    2.5839 C   0  0  0  0  0  0  0  0  0  0  0  0
   -6.9592   24.0360    1.8253 N   0  0  0  0  0  0  0  0  0  0  0  0
   -7.3523   23.2224    2.3031 H   0  0  0  0  0  0  0  0  0  0  0  0
   -6.1644   25.1928   -0.4659 C   0  0  0  0  0  0  0  0  0  0  0  0
   -6.9920   23.7460    0.1562 S   0  0  0  0  0  0  0  0  0  0  0  0
   -8.3873   23.8449   -0.2188 O   0  0  0  0  0  0  0  0  0  0  0  0
   -6.2105   22.5740   -0.1663 O   0  0  0  0  0  0  0  0  0  0  0  0
   -0.5904   27.1582    7.0600 N   0  0  0  0  0  0  0  0  0  0  0  0
    0.2778   26.8245    7.4647 H   0  0  0  0  0  0  0  0  0  0  0  0
   -1.0831   28.3043    7.7103 C   0  0  0  0  0  0  0  0  0  0  0  0
   -0.1579   29.2751    8.1230 C   0  0  0  0  0  0  0  0  0  0  0  0
   -0.5636   30.4247    8.8078 C   0  0  0  0  0  0  0  0  0  0  0  0
   -1.9155   30.6353    9.1017 C   0  0  0  0  0  0  0  0  0  0  0  0
   -2.8452   29.6694    8.7004 C   0  0  0  0  0  0  0  0  0  0  0  0
   -2.4301   28.5191    8.0171 C   0  0  0  0  0  0  0  0  0  0  0  0
   -2.3575   31.8745    9.8387 C   0  0  0  0  0  0  0  0  0  0  0  0
   -3.3626   32.6123    9.0963 N   0  0  0  0  0  0  0  0  0  0  0  0
   -4.2369   33.5391    9.5749 C   0  0  0  0  0  0  0  0  0  0  0  0
   -4.9532   34.0197    8.5847 N   0  0  0  0  0  0  0  0  0  0  0  0
   -4.4707   33.3423    7.5011 C   0  0  0  0  0  0  0  0  0  0  0  0
   -3.4895   32.4737    7.7606 N   0  0  0  0  0  0  0  0  0  0  0  0
 14 15  1  0  0  0
 15 16  2  0  0  0
 15 17  2  0  0  0
 15 12  1  0  0  0
 12  6  1  0  0  0
  6  7  1  0  0  0
  7  8  2  0  0  0
  8  9  1  0  0  0
  9  1  1  0  0  0
  1  2  2  0  0  0
  2  3  1  0  0  0
  3  4  1  0  0  0
  4 18  1  0  0  0
 18 20  1  0  0  0
 20 21  1  0  0  0
 21 22  2  0  0  0
 22 23  1  0  0  0
 23 26  1  0  0  0
 26 27  1  0  0  0
 27 28  1  0  0  0
 28 29  2  0  0  0
 29 30  1  0  0  0
 30 31  2  0  0  0
 23 24  2  0  0  0
 24 25  1  0  0  0
  4  5  2  0  0  0
  9 10  2  0  0  0
 10 11  1  0  0  0
 11  6  2  0  0  0
  5  1  1  0  0  0
 25 20  2  0  0  0
 31 27  1  0  0  0
 12 13  1  0  0  0
 18 19  1  0  0  0
M  END
> <minimizedAffinity>
-9.06468

$$$$
OCNT-2310120


 26 29  0  0  0  0  0  0  0  0999 V2000
   -5.7114   29.1205    6.0763 C   0  0  0  0  0  0  0  0  0  0  0  0
   -4.5808   28.6339    6.6610 N   0  0  0  0  0  0  0  0  0  0  0  0
   -4.3863   28.9375    7.9434 C   0  0  0  0  0  0  0  0  0  0  0  0
   -5.2324   29.6853    8.6634 N   0  0  0  0  0  0  0  0  0  0  0  0
   -6.3409   30.1472    8.0413 C   0  0  0  0  0  0  0  0  0  0  0  0
   -6.6450   29.8960    6.7266 C   0  0  0  0  0  0  0  0  0  0  0  0
   -8.1111   30.4788    6.0583 Cl  0  0  0  0  0  0  0  0  0  0  0  0
   -5.8338   29.7211    3.8187 O   0  0  0  0  0  0  0  0  0  0  0  0
   -5.8525   28.7961    4.6295 C   0  0  0  0  0  0  0  0  0  0  0  0
   -5.9471   27.4579    4.2407 N   0  0  0  0  0  0  0  0  0  0  0  0
   -6.3602   26.3579    5.1338 C   0  0  0  0  0  0  0  0  0  0  0  0
   -5.4420   25.1363    4.9835 C   0  0  0  0  0  0  0  0  0  0  0  0
   -5.2602   24.8528    3.5266 C   0  0  0  0  0  0  0  0  0  0  0  0
   -5.4861   25.7818    2.5273 C   0  0  0  0  0  0  0  0  0  0  0  0
   -5.2139   25.2186    1.2411 C   0  0  0  0  0  0  0  0  0  0  0  0
   -4.7998   23.9057    1.3221 C   0  0  0  0  0  0  0  0  0  0  0  0
   -4.7277   23.3518    2.9403 S   0  0  0  0  0  0  0  0  0  0  0  0
   -5.9681   27.1792    2.8003 C   0  0  0  0  0  0  0  0  0  0  0  0
   -3.2469   28.4098    8.5213 N   0  0  0  0  0  0  0  0  0  0  0  0
   -3.5474   27.8069    9.2802 H   0  0  0  0  0  0  0  0  0  0  0  0
   -2.3490   27.7560    7.5841 C   0  0  0  0  0  0  0  0  0  0  0  0
   -0.9991   28.3901    7.5454 C   0  0  0  0  0  0  0  0  0  0  0  0
   -0.1285   28.7004    6.5210 C   0  0  0  0  0  0  0  0  0  0  0  0
    0.9980   29.3078    7.1252 C   0  0  0  0  0  0  0  0  0  0  0  0
    0.7413   29.3344    8.4762 C   0  0  0  0  0  0  0  0  0  0  0  0
   -0.4707   28.7829    8.7413 O   0  0  0  0  0  0  0  0  0  0  0  0
  8  9  2  0  0  0
  9  1  1  0  0  0
  1  2  2  0  0  0
  2  3  1  0  0  0
  3 19  1  0  0  0
 19 21  1  0  0  0
 21 22  1  0  0  0
 22 23  2  0  0  0
 23 24  1  0  0  0
 24 25  2  0  0  0
 25 26  1  0  0  0
  3  4  2  0  0  0
  4  5  1  0  0  0
  5  6  2  0  0  0
  6  7  1  0  0  0
  9 10  1  0  0  0
 10 11  1  0  0  0
 11 12  1  0  0  0
 12 13  1  0  0  0
 13 14  2  0  0  0
 14 15  1  0  0  0
 15 16  2  0  0  0
 16 17  1  0  0  0
 14 18  1  0  0  0
  6  1  1  0  0  0
 18 10  1  0  0  0
 26 22  1  0  0  0
 17 13  1  0  0  0
 19 20  1  0  0  0
M  END
> <minimizedAffinity>
-9.01307

$$$$
OCNT-2310123


 30 33  0  0  0  0  0  0  0  0999 V2000
   -5.1005   25.2525    3.0511 C   0  0  0  0  0  0  0  0  0  0  0  0
   -4.5302   25.2636    1.9675 O   0  0  0  0  0  0  0  0  0  0  0  0
   -6.1180   24.3812    3.3687 N   0  0  0  0  0  0  0  0  0  0  0  0
   -6.5830   24.5233    4.2531 H   0  0  0  0  0  0  0  0  0  0  0  0
   -3.7855   27.5364    5.6710 N   0  0  0  0  0  0  0  0  0  0  0  0
   -5.1372   27.8884    5.6166 C   0  0  0  0  0  0  0  0  0  0  0  0
   -5.7885   28.9264    6.4681 C   0  0  0  0  0  0  0  0  0  0  0  0
   -5.7593   27.0910    4.6810 C   0  0  0  0  0  0  0  0  0  0  0  0
   -4.7959   26.2422    4.0892 C   0  0  0  0  0  0  0  0  0  0  0  0
   -3.5630   26.6137    4.6302 C   0  0  0  0  0  0  0  0  0  0  0  0
   -2.1998   26.2124    4.1725 C   0  0  0  0  0  0  0  0  0  0  0  0
   -0.5041   30.1418    8.5294 C   0  0  0  0  0  0  0  0  0  0  0  0
   -1.3978   29.2062    7.8251 C   0  0  0  0  0  0  0  0  0  0  0  0
   -2.3014   29.3286    6.7965 C   0  0  0  0  0  0  0  0  0  0  0  0
   -2.8098   28.0229    6.6188 C   0  0  0  0  0  0  0  0  0  0  0  0
   -2.2341   27.1661    7.4705 N   0  0  0  0  0  0  0  0  0  0  0  0
   -1.3575   27.9121    8.2325 O   0  0  0  0  0  0  0  0  0  0  0  0
   -6.5508   23.2528    2.5312 C   0  0  0  0  0  0  0  0  0  0  0  0
   -5.4395   22.2493    2.2260 C   0  0  0  0  0  0  0  0  0  0  0  0
   -5.8539   21.6460    0.9006 C   0  0  0  0  0  0  0  0  0  0  0  0
   -6.6167   22.6411    0.2054 O   0  0  0  0  0  0  0  0  0  0  0  0
   -6.8155   23.7497    1.0930 C   0  0  0  0  0  0  0  0  0  0  0  0
   -7.8694   22.6056    3.0578 C   0  0  0  0  0  0  0  0  0  0  0  0
   -8.0875   22.5601    4.5531 C   0  0  0  0  0  0  0  0  0  0  0  0
   -7.0917   22.0553    5.4026 C   0  0  0  0  0  0  0  0  0  0  0  0
   -7.2923   22.0069    6.7842 C   0  0  0  0  0  0  0  0  0  0  0  0
   -8.4931   22.4580    7.3253 C   0  0  0  0  0  0  0  0  0  0  0  0
   -8.7420   22.3955    9.0269 Cl  0  0  0  0  0  0  0  0  0  0  0  0
   -9.4968   22.9511    6.4964 C   0  0  0  0  0  0  0  0  0  0  0  0
   -9.2959   22.9970    5.1148 C   0  0  0  0  0  0  0  0  0  0  0  0
 12 13  1  0  0  0
 13 14  2  0  0  0
 14 15  1  0  0  0
 15  5  1  0  0  0
  5  6  1  0  0  0
  6  7  1  0  0  0
  6  8  2  0  0  0
  8  9  1  0  0  0
  9  1  1  0  0  0
  1  2  2  0  0  0
  1  3  1  0  0  0
  3 18  1  0  0  0
 18 23  1  0  0  0
 23 24  1  0  0  0
 24 25  1  0  0  0
 25 26  2  0  0  0
 26 27  1  0  0  0
 27 28  1  0  0  0
 27 29  2  0  0  0
 29 30  1  0  0  0
 18 19  1  0  0  0
 19 20  1  0  0  0
 20 21  1  0  0  0
 21 22  1  0  0  0
  9 10  2  0  0  0
 10 11  1  0  0  0
 15 16  2  0  0  0
 16 17  1  0  0  0
 17 13  1  0  0  0
 10  5  1  0  0  0
 22 18  1  0  0  0
 30 24  2  0  0  0
  3  4  1  0  0  0
M  END
> <minimizedAffinity>
-9.81638

$$$$
OCNT-2310136


 28 30  0  0  0  0  0  0  0  0999 V2000
   -5.0111   29.2385    7.4048 N   0  0  0  0  0  0  0  0  0  0  0  0
   -6.2041   29.2583    6.7078 C   0  0  0  0  0  0  0  0  0  0  0  0
   -7.2681   29.6538    7.1644 O   0  0  0  0  0  0  0  0  0  0  0  0
   -4.1694   29.2421    6.8423 H   0  0  0  0  0  0  0  0  0  0  0  0
   -6.1194   28.7971    5.3048 C   0  0  0  0  0  0  0  0  0  0  0  0
   -6.1164   29.7398    4.2686 C   0  0  0  0  0  0  0  0  0  0  0  0
   -6.0091   29.3367    2.9401 C   0  0  0  0  0  0  0  0  0  0  0  0
   -5.9134   27.9786    2.6125 C   0  0  0  0  0  0  0  0  0  0  0  0
   -5.9458   27.0064    3.6361 C   0  0  0  0  0  0  0  0  0  0  0  0
   -6.0541   27.4345    4.9633 C   0  0  0  0  0  0  0  0  0  0  0  0
   -6.1173   26.3025    5.7496 N   0  0  0  0  0  0  0  0  0  0  0  0
   -5.9985   25.1793    4.9758 C   0  0  0  0  0  0  0  0  0  0  0  0
   -5.8950   25.5827    3.6616 C   0  0  0  0  0  0  0  0  0  0  0  0
   -6.2456   26.3147    6.7548 H   0  0  0  0  0  0  0  0  0  0  0  0
   -5.7717   24.7038    2.5405 C   0  0  0  0  0  0  0  0  0  0  0  0
   -5.6760   23.9914    1.6292 N   0  0  0  0  0  0  0  0  0  0  0  0
   -5.3683   28.8995    9.7968 C   0  0  0  0  0  0  0  0  0  0  0  0
   -4.9052   29.8731    8.7117 C   0  0  0  0  0  0  0  0  0  0  0  0
   -3.4895   30.3945    8.9085 C   0  0  0  0  0  0  0  0  0  0  0  0
   -3.2032   31.5449    9.6579 C   0  0  0  0  0  0  0  0  0  0  0  0
   -1.8851   31.9671    9.8422 C   0  0  0  0  0  0  0  0  0  0  0  0
   -0.8313   31.2411    9.2894 C   0  0  0  0  0  0  0  0  0  0  0  0
   -1.0834   30.0828    8.5429 C   0  0  0  0  0  0  0  0  0  0  0  0
   -2.4136   29.6655    8.3690 C   0  0  0  0  0  0  0  0  0  0  0  0
    0.0512   29.2691    7.9702 C   0  0  0  0  0  0  0  0  0  0  0  0
    1.1613   29.2664    8.7617 F   0  0  0  0  0  0  0  0  0  0  0  0
    0.4683   29.7167    6.7533 F   0  0  0  0  0  0  0  0  0  0  0  0
   -0.2841   27.9610    7.7963 F   0  0  0  0  0  0  0  0  0  0  0  0
 17 18  1  0  0  0
 18  1  1  0  0  0
  1  2  1  0  0  0
  2  3  2  0  0  0
  2  5  1  0  0  0
  5  6  1  0  0  0
  6  7  2  0  0  0
  7  8  1  0  0  0
  8  9  2  0  0  0
  9 10  1  0  0  0
 10 11  1  0  0  0
 11 12  1  0  0  0
 12 13  2  0  0  0
 13 15  1  0  0  0
 15 16  3  0  0  0
 18 19  1  0  0  0
 19 20  2  0  0  0
 20 21  1  0  0  0
 21 22  2  0  0  0
 22 23  1  0  0  0
 23 25  1  0  0  0
 25 26  1  0  0  0
 25 27  1  0  0  0
 25 28  1  0  0  0
 23 24  2  0  0  0
 10  5  2  0  0  0
 24 19  1  0  0  0
 13  9  1  0  0  0
  1  4  1  0  0  0
 11 14  1  0  0  0
M  END
> <minimizedAffinity>
-10.46619

$$$$
OCNT-2310153


 26 28  0  0  0  0  0  0  0  0999 V2000
   -5.9951   29.3967    4.8522 C   0  0  0  0  0  0  0  0  0  0  0  0
   -6.7326   28.3866    5.7265 C   0  0  0  0  0  0  0  0  0  0  0  0
   -6.0610   27.0533    5.3855 C   0  0  0  0  0  0  0  0  0  0  0  0
   -5.5239   27.2411    4.0328 N   0  0  0  0  0  0  0  0  0  0  0  0
   -5.7996   28.5986    3.5519 C   0  0  0  0  0  0  0  0  0  0  0  0
   -5.1695   26.1916    3.2138 C   0  0  0  0  0  0  0  0  0  0  0  0
   -4.1064   25.3325    3.5223 C   0  0  0  0  0  0  0  0  0  0  0  0
   -3.7590   24.2592    2.6945 C   0  0  0  0  0  0  0  0  0  0  0  0
   -4.4762   24.0072    1.5280 C   0  0  0  0  0  0  0  0  0  0  0  0
   -5.5463   24.8285    1.1918 C   0  0  0  0  0  0  0  0  0  0  0  0
   -5.8783   25.9018    2.0352 C   0  0  0  0  0  0  0  0  0  0  0  0
   -6.3486   24.7071    0.0925 O   0  0  0  0  0  0  0  0  0  0  0  0
   -7.3535   23.7087    0.1141 C   0  0  0  0  0  0  0  0  0  0  0  0
   -7.5564   23.2461    1.3665 F   0  0  0  0  0  0  0  0  0  0  0  0
   -8.5119   24.2508   -0.3239 F   0  0  0  0  0  0  0  0  0  0  0  0
   -7.0387   22.6796   -0.7022 F   0  0  0  0  0  0  0  0  0  0  0  0
   -4.6341   30.4662    6.6299 C   0  0  0  0  0  0  0  0  0  0  0  0
   -5.6389   30.8927    7.1910 O   0  0  0  0  0  0  0  0  0  0  0  0
   -4.7120   29.7683    5.4473 N   0  0  0  0  0  0  0  0  0  0  0  0
   -3.9006   29.2741    5.0988 H   0  0  0  0  0  0  0  0  0  0  0  0
   -2.7621   28.2113    7.6433 C   0  0  0  0  0  0  0  0  0  0  0  0
   -2.4942   29.6267    7.6008 N   0  0  0  0  0  0  0  0  0  0  0  0
   -1.3089   30.0934    8.0336 N   0  0  0  0  0  0  0  0  0  0  0  0
   -1.3234   31.4093    7.8971 N   0  0  0  0  0  0  0  0  0  0  0  0
   -2.5308   31.7617    7.3683 C   0  0  0  0  0  0  0  0  0  0  0  0
   -3.3086   30.6396    7.1560 C   0  0  0  0  0  0  0  0  0  0  0  0
 21 22  1  0  0  0
 22 23  1  0  0  0
 23 24  2  0  0  0
 24 25  1  0  0  0
 25 26  2  0  0  0
 26 17  1  0  0  0
 17 18  2  0  0  0
 17 19  1  0  0  0
 19  1  1  0  0  0
  1  2  1  0  0  0
  2  3  1  0  0  0
  3  4  1  0  0  0
  4  6  1  0  0  0
  6  7  2  0  0  0
  7  8  1  0  0  0
  8  9  2  0  0  0
  9 10  1  0  0  0
 10 12  1  0  0  0
 12 13  1  0  0  0
 13 14  1  0  0  0
 13 15  1  0  0  0
 13 16  1  0  0  0
 10 11  2  0  0  0
  4  5  1  0  0  0
 26 22  1  0  0  0
  5  1  1  0  0  0
 11  6  1  0  0  0
 19 20  1  0  0  0
M  END
> <minimizedAffinity>
-8.71170

$$$$
OCNT-2310161


 27 30  0  0  0  0  0  0  0  0999 V2000
   -4.8845   30.2988    5.3390 N   0  0  0  0  0  0  0  0  0  0  0  0
   -4.2255   29.7995    4.7418 H   0  0  0  0  0  0  0  0  0  0  0  0
   -4.4208   30.1175    6.7313 C   0  0  0  0  0  0  0  0  0  0  0  0
   -0.3976   28.4937    6.9561 C   0  0  0  0  0  0  0  0  0  0  0  0
   -1.5043   27.6494    6.9545 C   0  0  0  0  0  0  0  0  0  0  0  0
   -2.7911   28.1850    6.8739 C   0  0  0  0  0  0  0  0  0  0  0  0
   -2.9909   29.5748    6.7887 C   0  0  0  0  0  0  0  0  0  0  0  0
   -1.8617   30.4122    6.8052 C   0  0  0  0  0  0  0  0  0  0  0  0
   -0.5752   29.8733    6.8832 C   0  0  0  0  0  0  0  0  0  0  0  0
   -4.5559   31.3823    7.5411 C   0  0  0  0  0  0  0  0  0  0  0  0
   -4.5789   31.4806    8.8590 N   0  0  0  0  0  0  0  0  0  0  0  0
   -4.7181   32.8176    9.1275 C   0  0  0  0  0  0  0  0  0  0  0  0
   -4.7918   33.5450    7.9637 C   0  0  0  0  0  0  0  0  0  0  0  0
   -4.7044   32.6209    6.9613 N   0  0  0  0  0  0  0  0  0  0  0  0
   -4.7478   32.7939    5.9655 H   0  0  0  0  0  0  0  0  0  0  0  0
   -6.2048   29.6914    5.1341 C   0  0  0  0  0  0  0  0  0  0  0  0
   -6.0595   28.2958    4.5708 C   0  0  0  0  0  0  0  0  0  0  0  0
   -6.1866   27.1774    5.4036 C   0  0  0  0  0  0  0  0  0  0  0  0
   -6.0538   25.8814    4.8906 C   0  0  0  0  0  0  0  0  0  0  0  0
   -5.7979   25.6809    3.5266 C   0  0  0  0  0  0  0  0  0  0  0  0
   -5.6790   26.8007    2.6895 C   0  0  0  0  0  0  0  0  0  0  0  0
   -5.8097   28.0938    3.2093 C   0  0  0  0  0  0  0  0  0  0  0  0
   -5.6547   24.3641    2.9980 N   0  0  0  0  0  0  0  0  0  0  0  0
   -5.4225   23.1981    3.6993 C   0  0  0  0  0  0  0  0  0  0  0  0
   -5.3736   22.1889    2.7670 C   0  0  0  0  0  0  0  0  0  0  0  0
   -5.5576   22.6828    1.5090 N   0  0  0  0  0  0  0  0  0  0  0  0
   -5.7202   23.9786    1.6741 C   0  0  0  0  0  0  0  0  0  0  0  0
  4  5  2  0  0  0
  5  6  1  0  0  0
  6  7  2  0  0  0
  7  3  1  0  0  0
  3  1  1  0  0  0
  1 16  1  0  0  0
 16 17  1  0  0  0
 17 18  1  0  0  0
 18 19  2  0  0  0
 19 20  1  0  0  0
 20 23  1  0  0  0
 23 24  1  0  0  0
 24 25  2  0  0  0
 25 26  1  0  0  0
 26 27  2  0  0  0
 20 21  2  0  0  0
 21 22  1  0  0  0
  3 10  1  0  0  0
 10 11  2  0  0  0
 11 12  1  0  0  0
 12 13  2  0  0  0
 13 14  1  0  0  0
  7  8  1  0  0  0
  8  9  2  0  0  0
  9  4  1  0  0  0
 22 17  2  0  0  0
 14 10  1  0  0  0
 27 23  1  0  0  0
  1  2  1  0  0  0
 14 15  1  0  0  0
M  END
> <minimizedAffinity>
-9.06303

$$$$
OCNT-2310167


 33 34  0  0  0  0  0  0  0  0999 V2000
   -4.7370   26.8721    4.5068 N   0  0  0  0  0  0  0  0  0  0  0  0
   -5.3579   28.0347    4.9084 C   0  0  0  0  0  0  0  0  0  0  0  0
   -6.5065   28.3721    4.6605 O   0  0  0  0  0  0  0  0  0  0  0  0
   -4.5004   28.7951    5.6832 N   0  0  0  0  0  0  0  0  0  0  0  0
   -3.9373   26.6116    5.0644 H   0  0  0  0  0  0  0  0  0  0  0  0
   -3.5335   28.7377    5.3981 H   0  0  0  0  0  0  0  0  0  0  0  0
   -6.2541   24.0595    1.7074 C   0  0  0  0  0  0  0  0  0  0  0  0
   -5.8608   25.3593    1.3379 C   0  0  0  0  0  0  0  0  0  0  0  0
   -5.3686   26.2677    2.2784 C   0  0  0  0  0  0  0  0  0  0  0  0
   -5.2407   25.9027    3.6185 C   0  0  0  0  0  0  0  0  0  0  0  0
   -5.6422   24.6257    4.0103 C   0  0  0  0  0  0  0  0  0  0  0  0
   -6.1487   23.7076    3.0692 C   0  0  0  0  0  0  0  0  0  0  0  0
   -6.6731   22.1194    3.6974 S   0  0  0  0  0  0  0  0  0  0  0  0
   -6.4852   22.3137    5.3577 N   0  0  0  0  0  0  0  0  0  0  0  0
   -8.0879   21.9575    3.4599 O   0  0  0  0  0  0  0  0  0  0  0  0
   -5.7176   21.1192    3.2814 O   0  0  0  0  0  0  0  0  0  0  0  0
   -5.7272   21.7220    5.6951 H   0  0  0  0  0  0  0  0  0  0  0  0
   -6.4131   23.2872    5.6471 H   0  0  0  0  0  0  0  0  0  0  0  0
   -7.7853   23.8313   -0.2823 C   0  0  0  0  0  0  0  0  0  0  0  0
   -6.7429   23.1535    0.5994 C   0  0  0  0  0  0  0  0  0  0  0  0
   -4.9296   30.0915    6.1797 C   0  0  0  0  0  0  0  0  0  0  0  0
   -5.3551   30.0292    7.6472 C   0  0  0  0  0  0  0  0  0  0  0  0
   -4.4063   29.1848    8.5022 C   0  0  0  0  0  0  0  0  0  0  0  0
   -3.0541   29.8207    8.7183 C   0  0  0  0  0  0  0  0  0  0  0  0
   -2.9367   31.0067    9.4533 C   0  0  0  0  0  0  0  0  0  0  0  0
   -1.6887   31.5973    9.6504 C   0  0  0  0  0  0  0  0  0  0  0  0
   -0.5436   31.0094    9.1137 C   0  0  0  0  0  0  0  0  0  0  0  0
   -0.6356   29.8249    8.3690 C   0  0  0  0  0  0  0  0  0  0  0  0
   -1.8969   29.2343    8.1849 C   0  0  0  0  0  0  0  0  0  0  0  0
    0.6007   29.1704    7.8045 C   0  0  0  0  0  0  0  0  0  0  0  0
    1.6801   29.2528    8.6327 F   0  0  0  0  0  0  0  0  0  0  0  0
    1.0003   29.7211    6.6232 F   0  0  0  0  0  0  0  0  0  0  0  0
    0.4202   27.8440    7.5563 F   0  0  0  0  0  0  0  0  0  0  0  0
 19 20  1  0  0  0
 20  7  1  0  0  0
  7  8  1  0  0  0
  8  9  2  0  0  0
  9 10  1  0  0  0
 10  1  1  0  0  0
  1  2  1  0  0  0
  2  3  2  0  0  0
  2  4  1  0  0  0
  4 21  1  0  0  0
 21 22  1  0  0  0
 22 23  1  0  0  0
 23 24  1  0  0  0
 24 25  2  0  0  0
 25 26  1  0  0  0
 26 27  2  0  0  0
 27 28  1  0  0  0
 28 30  1  0  0  0
 30 31  1  0  0  0
 30 32  1  0  0  0
 30 33  1  0  0  0
 28 29  2  0  0  0
 10 11  2  0  0  0
 11 12  1  0  0  0
 12 13  1  0  0  0
 13 14  1  0  0  0
 13 15  2  0  0  0
 13 16  2  0  0  0
 12  7  2  0  0  0
 29 24  1  0  0  0
  1  5  1  0  0  0
  4  6  1  0  0  0
 14 17  1  0  0  0
 14 18  1  0  0  0
M  END
> <minimizedAffinity>
-10.07757

$$$$
OCNT-2310174


 26 30  0  0  0  0  0  0  0  0999 V2000
   -5.1962   31.7066    9.4450 Cl  0  0  0  0  0  0  0  0  0  0  0  0
   -3.5478   31.3079    9.2229 C   0  0  0  0  0  0  0  0  0  0  0  0
   -2.5307   32.0045    9.8735 C   0  0  0  0  0  0  0  0  0  0  0  0
   -1.2048   31.6430    9.6577 C   0  0  0  0  0  0  0  0  0  0  0  0
   -0.8759   30.5884    8.7972 C   0  0  0  0  0  0  0  0  0  0  0  0
   -1.9202   29.8972    8.1578 C   0  0  0  0  0  0  0  0  0  0  0  0
   -3.2657   30.2398    8.3496 C   0  0  0  0  0  0  0  0  0  0  0  0
   -4.0388   29.3511    7.5448 C   0  0  0  0  0  0  0  0  0  0  0  0
   -3.1729   28.5007    6.8888 C   0  0  0  0  0  0  0  0  0  0  0  0
   -3.4308   27.3757    5.9419 C   0  0  0  0  0  0  0  0  0  0  0  0
   -2.2325   27.0359    5.1534 N   0  0  0  0  0  0  0  0  0  0  0  0
   -1.0724   26.8617    6.0509 C   0  0  0  0  0  0  0  0  0  0  0  0
   -0.7194   28.1793    6.7525 C   0  0  0  0  0  0  0  0  0  0  0  0
   -1.9010   28.8394    7.2789 N   0  0  0  0  0  0  0  0  0  0  0  0
   -2.4951   25.8190    4.3564 C   0  0  0  0  0  0  0  0  0  0  0  0
   -3.6812   25.9430    3.4600 C   0  0  0  0  0  0  0  0  0  0  0  0
   -4.4636   26.9809    3.2472 N   0  0  0  0  0  0  0  0  0  0  0  0
   -5.4194   26.5628    2.3437 N   0  0  0  0  0  0  0  0  0  0  0  0
   -5.1513   25.3017    2.0643 C   0  0  0  0  0  0  0  0  0  0  0  0
   -4.0484   24.8396    2.7360 O   0  0  0  0  0  0  0  0  0  0  0  0
   -5.8352   24.3713    1.1752 C   0  0  0  0  0  0  0  0  0  0  0  0
   -5.5796   22.9953    1.2807 C   0  0  0  0  0  0  0  0  0  0  0  0
   -6.2222   22.0809    0.4412 C   0  0  0  0  0  0  0  0  0  0  0  0
   -7.1301   22.5313   -0.5147 C   0  0  0  0  0  0  0  0  0  0  0  0
   -7.3951   23.8941   -0.6333 C   0  0  0  0  0  0  0  0  0  0  0  0
   -6.7515   24.8085    0.2056 C   0  0  0  0  0  0  0  0  0  0  0  0
  1  2  1  0  0  0
  2  3  1  0  0  0
  3  4  2  0  0  0
  4  5  1  0  0  0
  5  6  2  0  0  0
  6  7  1  0  0  0
  7  8  1  0  0  0
  8  9  2  0  0  0
  9 10  1  0  0  0
 10 11  1  0  0  0
 11 15  1  0  0  0
 15 16  1  0  0  0
 16 17  2  0  0  0
 17 18  1  0  0  0
 18 19  2  0  0  0
 19 21  1  0  0  0
 21 22  2  0  0  0
 22 23  1  0  0  0
 23 24  2  0  0  0
 24 25  1  0  0  0
 25 26  2  0  0  0
 19 20  1  0  0  0
 11 12  1  0  0  0
 12 13  1  0  0  0
 13 14  1  0  0  0
  7  2  2  0  0  0
 14  9  1  0  0  0
 14  6  1  0  0  0
 20 16  1  0  0  0
 26 21  1  0  0  0
M  END
> <minimizedAffinity>
-10.96714

$$$$
OCNT-2310178


 27 29  0  0  0  0  0  0  0  0999 V2000
   -4.0499   31.6463    6.3259 O   0  0  0  0  0  0  0  0  0  0  0  0
   -4.0951   31.3265    7.5085 C   0  0  0  0  0  0  0  0  0  0  0  0
   -5.2593   30.8895    8.1025 N   0  0  0  0  0  0  0  0  0  0  0  0
   -5.1963   30.4001    8.9863 H   0  0  0  0  0  0  0  0  0  0  0  0
   -2.9343   31.3671    8.3903 C   0  0  0  0  0  0  0  0  0  0  0  0
   -2.6603   32.3255    9.3530 C   0  0  0  0  0  0  0  0  0  0  0  0
   -1.4563   32.0004    9.8930 N   0  0  0  0  0  0  0  0  0  0  0  0
   -0.9131   30.9028    9.3629 N   0  0  0  0  0  0  0  0  0  0  0  0
   -1.8039   30.4825    8.4457 C   0  0  0  0  0  0  0  0  0  0  0  0
   -0.9402   32.4865   10.6197 H   0  0  0  0  0  0  0  0  0  0  0  0
   -1.5243   29.2660    7.6865 C   0  0  0  0  0  0  0  0  0  0  0  0
   -0.3922   29.1820    6.8785 C   0  0  0  0  0  0  0  0  0  0  0  0
   -0.0455   28.0917    6.1460 N   0  0  0  0  0  0  0  0  0  0  0  0
   -0.8675   27.0255    6.2334 C   0  0  0  0  0  0  0  0  0  0  0  0
   -2.0078   26.9958    7.0194 C   0  0  0  0  0  0  0  0  0  0  0  0
   -2.3347   28.1316    7.7599 C   0  0  0  0  0  0  0  0  0  0  0  0
   -6.4511   30.6098    7.3168 C   0  0  0  0  0  0  0  0  0  0  0  0
   -6.6564   29.0962    7.1423 C   0  0  0  0  0  0  0  0  0  0  0  0
   -5.7947   28.3961    8.0526 O   0  0  0  0  0  0  0  0  0  0  0  0
   -5.7087   27.4861    7.7161 H   0  0  0  0  0  0  0  0  0  0  0  0
   -6.3955   28.6357    5.7254 C   0  0  0  0  0  0  0  0  0  0  0  0
   -6.3031   29.5713    4.6838 C   0  0  0  0  0  0  0  0  0  0  0  0
   -6.0531   29.1554    3.3738 C   0  0  0  0  0  0  0  0  0  0  0  0
   -5.8903   27.8002    3.0892 C   0  0  0  0  0  0  0  0  0  0  0  0
   -5.9763   26.8644    4.1167 C   0  0  0  0  0  0  0  0  0  0  0  0
   -5.7755   25.1916    3.7685 Cl  0  0  0  0  0  0  0  0  0  0  0  0
   -6.2251   27.2733    5.4270 C   0  0  0  0  0  0  0  0  0  0  0  0
  1  2  2  0  0  0
  2  3  1  0  0  0
  3 17  1  0  0  0
 17 18  1  0  0  0
 18 19  1  0  0  0
 18 21  1  0  0  0
 21 22  2  0  0  0
 22 23  1  0  0  0
 23 24  2  0  0  0
 24 25  1  0  0  0
 25 26  1  0  0  0
 25 27  2  0  0  0
  2  5  1  0  0  0
  5  6  2  0  0  0
  6  7  1  0  0  0
  7  8  1  0  0  0
  8  9  2  0  0  0
  9 11  1  0  0  0
 11 12  2  0  0  0
 12 13  1  0  0  0
 13 14  2  0  0  0
 14 15  1  0  0  0
 15 16  2  0  0  0
 27 21  1  0  0  0
  9  5  1  0  0  0
 16 11  1  0  0  0
  3  4  1  0  0  0
 19 20  1  0  0  0
  7 10  1  0  0  0
M  END
> <minimizedAffinity>
-9.25149

$$$$
OCNT-2310180


 24 26  0  0  0  0  0  0  0  0999 V2000
   -4.5448   24.8089    3.4720 C   0  0  0  0  0  0  0  0  0  0  0  0
   -3.2619   25.3081    3.5459 C   0  0  0  0  0  0  0  0  0  0  0  0
   -3.1846   26.4897    4.3430 C   0  0  0  0  0  0  0  0  0  0  0  0
   -4.4130   26.8671    4.8587 C   0  0  0  0  0  0  0  0  0  0  0  0
   -5.6405   25.7677    4.3673 S   0  0  0  0  0  0  0  0  0  0  0  0
   -5.6036   24.9954    0.6780 C   0  0  0  0  0  0  0  0  0  0  0  0
   -5.5175   23.7069    1.4399 C   0  0  0  0  0  0  0  0  0  0  0  0
   -5.9210   22.5178    0.8376 C   0  0  0  0  0  0  0  0  0  0  0  0
   -5.8829   21.3052    1.4330 N   0  0  0  0  0  0  0  0  0  0  0  0
   -5.4203   21.2660    2.6976 C   0  0  0  0  0  0  0  0  0  0  0  0
   -4.9858   22.3817    3.3901 C   0  0  0  0  0  0  0  0  0  0  0  0
   -5.0293   23.6278    2.7546 C   0  0  0  0  0  0  0  0  0  0  0  0
   -4.7856   27.9941    5.7073 C   0  0  0  0  0  0  0  0  0  0  0  0
   -5.9321   28.2270    6.0854 O   0  0  0  0  0  0  0  0  0  0  0  0
   -3.7466   28.8336    6.0709 N   0  0  0  0  0  0  0  0  0  0  0  0
   -2.8226   28.6707    5.6948 H   0  0  0  0  0  0  0  0  0  0  0  0
   -3.9568   30.0357    6.8654 C   0  0  0  0  0  0  0  0  0  0  0  0
   -2.8418   30.3133    7.8926 C   0  0  0  0  0  0  0  0  0  0  0  0
   -1.9930   31.5493    7.5677 C   0  0  0  0  0  0  0  0  0  0  0  0
   -1.3671   31.9598    8.9001 C   0  0  0  0  0  0  0  0  0  0  0  0
   -2.3082   31.4410    9.9863 C   0  0  0  0  0  0  0  0  0  0  0  0
   -3.4300   30.6979    9.2598 C   0  0  0  0  0  0  0  0  0  0  0  0
   -1.9952   29.1055    8.0200 C   0  0  0  0  0  0  0  0  0  0  0  0
   -1.3466   28.1457    8.0899 N   0  0  0  0  0  0  0  0  0  0  0  0
  6  7  1  0  0  0
  7  8  2  0  0  0
  8  9  1  0  0  0
  9 10  2  0  0  0
 10 11  1  0  0  0
 11 12  2  0  0  0
 12  1  1  0  0  0
  1  2  2  0  0  0
  2  3  1  0  0  0
  3  4  2  0  0  0
  4 13  1  0  0  0
 13 14  2  0  0  0
 13 15  1  0  0  0
 15 17  1  0  0  0
 17 18  1  0  0  0
 18 23  1  0  0  0
 23 24  3  0  0  0
 18 19  1  0  0  0
 19 20  1  0  0  0
 20 21  1  0  0  0
 21 22  1  0  0  0
  4  5  1  0  0  0
 12  7  1  0  0  0
  5  1  1  0  0  0
 22 18  1  0  0  0
 15 16  1  0  0  0
M  END
> <minimizedAffinity>
-8.67156

$$$$
OCNT-2310188


 24 26  0  0  0  0  0  0  0  0999 V2000
   -6.7537   30.2173    6.0731 N   0  0  0  0  0  0  0  0  0  0  0  0
   -7.7535   30.3581    6.2098 H   0  0  0  0  0  0  0  0  0  0  0  0
   -6.4775   29.1571    5.2083 C   0  0  0  0  0  0  0  0  0  0  0  0
   -6.3651   27.8271    5.6232 C   0  0  0  0  0  0  0  0  0  0  0  0
   -6.0131   26.8107    4.7228 C   0  0  0  0  0  0  0  0  0  0  0  0
   -5.7361   27.1027    3.3833 C   0  0  0  0  0  0  0  0  0  0  0  0
   -5.8026   28.4368    2.9713 C   0  0  0  0  0  0  0  0  0  0  0  0
   -6.1543   29.4467    3.8767 C   0  0  0  0  0  0  0  0  0  0  0  0
   -5.3677   26.0416    2.4611 C   0  0  0  0  0  0  0  0  0  0  0  0
   -4.1930   25.3192    2.5009 C   0  0  0  0  0  0  0  0  0  0  0  0
   -4.2425   24.4420    1.4561 N   0  0  0  0  0  0  0  0  0  0  0  0
   -5.3659   24.5388    0.7286 N   0  0  0  0  0  0  0  0  0  0  0  0
   -6.0490   25.5108    1.3396 C   0  0  0  0  0  0  0  0  0  0  0  0
   -3.5479   23.7561    1.1791 H   0  0  0  0  0  0  0  0  0  0  0  0
   -6.0221   30.3351    7.3439 C   0  0  0  0  0  0  0  0  0  0  0  0
   -2.4908   30.2687    7.4509 N   0  0  0  0  0  0  0  0  0  0  0  0
   -2.6424   31.3071    6.6030 N   0  0  0  0  0  0  0  0  0  0  0  0
   -3.9517   31.4600    6.4713 N   0  0  0  0  0  0  0  0  0  0  0  0
   -4.5343   30.4862    7.2391 C   0  0  0  0  0  0  0  0  0  0  0  0
   -3.6451   29.7117    7.8814 N   0  0  0  0  0  0  0  0  0  0  0  0
   -1.2831   28.2558    8.2157 C   0  0  0  0  0  0  0  0  0  0  0  0
   -1.1676   29.7336    7.7926 C   0  0  0  0  0  0  0  0  0  0  0  0
   -0.2009   29.8081    6.5921 C   0  0  0  0  0  0  0  0  0  0  0  0
   -0.5807   30.5548    8.9533 C   0  0  0  0  0  0  0  0  0  0  0  0
 21 22  1  0  0  0
 22 23  1  0  0  0
 22 24  1  0  0  0
 22 16  1  0  0  0
 16 17  1  0  0  0
 17 18  2  0  0  0
 18 19  1  0  0  0
 19 15  1  0  0  0
 15  1  1  0  0  0
  1  3  1  0  0  0
  3  4  1  0  0  0
  4  5  2  0  0  0
  5  6  1  0  0  0
  6  9  1  0  0  0
  9 10  2  0  0  0
 10 11  1  0  0  0
 11 12  1  0  0  0
 12 13  2  0  0  0
  6  7  2  0  0  0
  7  8  1  0  0  0
 19 20  2  0  0  0
 20 16  1  0  0  0
  8  3  2  0  0  0
 13  9  1  0  0  0
  1  2  1  0  0  0
 11 14  1  0  0  0
M  END
> <minimizedAffinity>
-8.71105

$$$$
OCNT-2310193


 26 29  0  0  0  0  0  0  0  0999 V2000
   -4.8752   30.2521    5.9428 O   0  0  0  0  0  0  0  0  0  0  0  0
   -4.8576   29.0592    6.2266 C   0  0  0  0  0  0  0  0  0  0  0  0
   -4.7371   28.5617    7.5083 N   0  0  0  0  0  0  0  0  0  0  0  0
   -4.6464   27.5667    7.6655 H   0  0  0  0  0  0  0  0  0  0  0  0
   -4.9312   28.0520    5.1462 C   0  0  0  0  0  0  0  0  0  0  0  0
   -5.8404   28.1175    4.0963 C   0  0  0  0  0  0  0  0  0  0  0  0
   -5.8234   27.1160    3.1218 C   0  0  0  0  0  0  0  0  0  0  0  0
   -4.9002   26.0692    3.1974 C   0  0  0  0  0  0  0  0  0  0  0  0
   -4.0240   26.0063    4.2234 N   0  0  0  0  0  0  0  0  0  0  0  0
   -4.0402   26.9927    5.1567 C   0  0  0  0  0  0  0  0  0  0  0  0
   -4.9025   25.0547    2.2452 N   0  0  0  0  0  0  0  0  0  0  0  0
   -6.1691   24.8653    1.5161 C   0  0  0  0  0  0  0  0  0  0  0  0
   -5.9964   23.7348    0.4887 C   0  0  0  0  0  0  0  0  0  0  0  0
   -5.6402   22.4652    1.0643 O   0  0  0  0  0  0  0  0  0  0  0  0
   -5.0801   22.5792    2.3797 C   0  0  0  0  0  0  0  0  0  0  0  0
   -4.1734   23.8106    2.5560 C   0  0  0  0  0  0  0  0  0  0  0  0
   -4.7822   29.3964    8.6789 C   0  0  0  0  0  0  0  0  0  0  0  0
   -5.5526   28.9276    9.9035 C   0  0  0  0  0  0  0  0  0  0  0  0
   -6.1174   30.0209    9.0590 C   0  0  0  0  0  0  0  0  0  0  0  0
   -3.5122   30.2225    8.8733 C   0  0  0  0  0  0  0  0  0  0  0  0
   -3.6027   31.5529    9.3323 C   0  0  0  0  0  0  0  0  0  0  0  0
   -2.4694   32.3454    9.5336 C   0  0  0  0  0  0  0  0  0  0  0  0
   -1.2042   31.8226    9.2899 C   0  0  0  0  0  0  0  0  0  0  0  0
   -1.0751   30.5052    8.8583 C   0  0  0  0  0  0  0  0  0  0  0  0
   -2.2139   29.7140    8.6614 C   0  0  0  0  0  0  0  0  0  0  0  0
   -1.9634   28.0677    8.1834 Cl  0  0  0  0  0  0  0  0  0  0  0  0
  1  2  2  0  0  0
  2  3  1  0  0  0
  3 17  1  0  0  0
 17 20  1  0  0  0
 20 21  2  0  0  0
 21 22  1  0  0  0
 22 23  2  0  0  0
 23 24  1  0  0  0
 24 25  2  0  0  0
 25 26  1  0  0  0
 17 18  1  0  0  0
 18 19  1  0  0  0
  2  5  1  0  0  0
  5  6  2  0  0  0
  6  7  1  0  0  0
  7  8  2  0  0  0
  8 11  1  0  0  0
 11 12  1  0  0  0
 12 13  1  0  0  0
 13 14  1  0  0  0
 14 15  1  0  0  0
 15 16  1  0  0  0
  8  9  1  0  0  0
  9 10  2  0  0  0
 19 17  1  0  0  0
 10  5  1  0  0  0
 25 20  1  0  0  0
 16 11  1  0  0  0
  3  4  1  0  0  0
M  END
> <minimizedAffinity>
-9.62136

$$$$
OCNT-2310197


 23 26  0  0  0  0  0  0  0  0999 V2000
   -5.1744   28.2521    6.4647 N   0  0  0  0  0  0  0  0  0  0  0  0
   -4.4066   28.3406    5.7996 H   0  0  0  0  0  0  0  0  0  0  0  0
   -6.3577   27.9178    5.6669 C   0  0  0  0  0  0  0  0  0  0  0  0
   -6.5903   29.0375    4.6275 C   0  0  0  0  0  0  0  0  0  0  0  0
   -5.7499   28.6649    3.3947 C   0  0  0  0  0  0  0  0  0  0  0  0
   -5.8028   27.1709    3.4598 C   0  0  0  0  0  0  0  0  0  0  0  0
   -5.5384   26.2619    2.4484 C   0  0  0  0  0  0  0  0  0  0  0  0
   -5.6637   24.9026    2.7389 C   0  0  0  0  0  0  0  0  0  0  0  0
   -5.3503   23.7403    1.5078 Cl  0  0  0  0  0  0  0  0  0  0  0  0
   -6.0454   24.4672    4.0170 C   0  0  0  0  0  0  0  0  0  0  0  0
   -6.2984   25.3931    5.0330 C   0  0  0  0  0  0  0  0  0  0  0  0
   -6.1568   26.7442    4.7471 C   0  0  0  0  0  0  0  0  0  0  0  0
   -2.9537   31.9040    8.4809 C   0  0  0  0  0  0  0  0  0  0  0  0
   -3.3903   32.9095    9.2169 N   0  0  0  0  0  0  0  0  0  0  0  0
   -4.7494   32.7616    9.3840 N   0  0  0  0  0  0  0  0  0  0  0  0
   -5.1131   31.6714    8.7462 C   0  0  0  0  0  0  0  0  0  0  0  0
   -6.3539   31.0289    8.5824 C   0  0  0  0  0  0  0  0  0  0  0  0
   -6.4088   29.9115    7.8486 C   0  0  0  0  0  0  0  0  0  0  0  0
   -5.1502   29.4014    7.2202 C   0  0  0  0  0  0  0  0  0  0  0  0
   -3.9787   29.9569    7.3849 N   0  0  0  0  0  0  0  0  0  0  0  0
   -4.0138   31.0909    8.1510 N   0  0  0  0  0  0  0  0  0  0  0  0
   -0.7734   30.8082    9.0432 C   0  0  0  0  0  0  0  0  0  0  0  0
   -1.5627   31.6274    8.0342 C   0  0  0  0  0  0  0  0  0  0  0  0
 22 23  1  0  0  0
 23 13  1  0  0  0
 13 14  2  0  0  0
 14 15  1  0  0  0
 15 16  2  0  0  0
 16 17  1  0  0  0
 17 18  2  0  0  0
 18 19  1  0  0  0
 19  1  1  0  0  0
  1  3  1  0  0  0
  3  4  1  0  0  0
  4  5  1  0  0  0
  5  6  1  0  0  0
  6  7  1  0  0  0
  7  8  2  0  0  0
  8  9  1  0  0  0
  8 10  1  0  0  0
 10 11  2  0  0  0
 11 12  1  0  0  0
 19 20  2  0  0  0
 20 21  1  0  0  0
 21 13  1  0  0  0
 21 16  1  0  0  0
 12  3  1  0  0  0
 12  6  2  0  0  0
  1  2  1  0  0  0
M  END
> <minimizedAffinity>
-9.30367

$$$$
OCNT-2310201


 26 28  0  0  0  0  0  0  0  0999 V2000
   -6.1062   29.0269    6.4059 C   0  0  0  0  0  0  0  0  0  0  0  0
    1.3809   29.2698    8.9078 C   0  0  0  0  0  0  0  0  0  0  0  0
    0.0088   29.1323    8.3232 C   0  0  0  0  0  0  0  0  0  0  0  0
   -1.0653   29.7755    8.8080 C   0  0  0  0  0  0  0  0  0  0  0  0
   -2.3306   29.6309    8.2486 N   0  0  0  0  0  0  0  0  0  0  0  0
   -3.3966   30.3270    8.7955 C   0  0  0  0  0  0  0  0  0  0  0  0
   -3.3370   31.0965    9.7539 O   0  0  0  0  0  0  0  0  0  0  0  0
   -4.6998   30.1105    8.1481 C   0  0  0  0  0  0  0  0  0  0  0  0
   -4.7764   29.2890    7.0949 C   0  0  0  0  0  0  0  0  0  0  0  0
   -3.6890   28.6226    6.5763 N   0  0  0  0  0  0  0  0  0  0  0  0
   -2.5397   28.8061    7.1517 C   0  0  0  0  0  0  0  0  0  0  0  0
   -1.3506   28.0924    6.6108 C   0  0  0  0  0  0  0  0  0  0  0  0
   -0.1516   28.2609    7.1808 C   0  0  0  0  0  0  0  0  0  0  0  0
   -6.2887   27.5813    6.3253 N   0  0  0  0  0  0  0  0  0  0  0  0
   -5.7121   27.1205    7.0300 H   0  0  0  0  0  0  0  0  0  0  0  0
   -6.1832   26.9479    5.0824 C   0  0  0  0  0  0  0  0  0  0  0  0
   -6.1457   25.5596    4.9198 C   0  0  0  0  0  0  0  0  0  0  0  0
   -5.9639   24.9805    3.6571 C   0  0  0  0  0  0  0  0  0  0  0  0
   -5.7813   25.7795    2.5249 C   0  0  0  0  0  0  0  0  0  0  0  0
   -5.7748   27.1679    2.6834 C   0  0  0  0  0  0  0  0  0  0  0  0
   -5.9578   27.7384    3.9477 C   0  0  0  0  0  0  0  0  0  0  0  0
   -5.5768   25.1577    1.1661 C   0  0  0  0  0  0  0  0  0  0  0  0
   -5.3703   23.6369    1.2005 C   0  0  0  0  0  0  0  0  0  0  0  0
   -6.5313   22.7991    0.6277 C   0  0  0  0  0  0  0  0  0  0  0  0
   -7.4602   23.6990   -0.1926 C   0  0  0  0  0  0  0  0  0  0  0  0
   -7.3349   22.0933    1.7209 C   0  0  0  0  0  0  0  0  0  0  0  0
  2  3  1  0  0  0
  3  4  2  0  0  0
  4  5  1  0  0  0
  5  6  1  0  0  0
  6  7  2  0  0  0
  6  8  1  0  0  0
  8  9  2  0  0  0
  9  1  1  0  0  0
  1 14  1  0  0  0
 14 16  1  0  0  0
 16 17  1  0  0  0
 17 18  2  0  0  0
 18 19  1  0  0  0
 19 22  1  0  0  0
 22 23  1  0  0  0
 23 24  1  0  0  0
 24 25  1  0  0  0
 24 26  1  0  0  0
 19 20  2  0  0  0
 20 21  1  0  0  0
  9 10  1  0  0  0
 10 11  2  0  0  0
 11 12  1  0  0  0
 12 13  2  0  0  0
 13  3  1  0  0  0
 11  5  1  0  0  0
 21 16  2  0  0  0
 14 15  1  0  0  0
M  END
> <minimizedAffinity>
-9.77420

$$$$
OCNT-2310214


 29 31  0  0  0  0  0  0  0  0999 V2000
   -2.8858   30.8271    6.0785 N   0  0  0  0  0  0  0  0  0  0  0  0
   -3.0968   29.9767    5.5493 H   0  0  0  0  0  0  0  0  0  0  0  0
   -1.5361   29.1076    7.1777 C   0  0  0  0  0  0  0  0  0  0  0  0
   -0.6174   28.7334    8.1612 C   0  0  0  0  0  0  0  0  0  0  0  0
   -0.1192   29.6870    9.0526 C   0  0  0  0  0  0  0  0  0  0  0  0
   -0.5308   31.0152    8.9627 C   0  0  0  0  0  0  0  0  0  0  0  0
   -1.4457   31.3971    7.9813 C   0  0  0  0  0  0  0  0  0  0  0  0
   -1.9616   30.4526    7.0865 C   0  0  0  0  0  0  0  0  0  0  0  0
   -2.1021   28.2594    6.2552 O   0  0  0  0  0  0  0  0  0  0  0  0
   -1.8219   26.8655    6.3909 C   0  0  0  0  0  0  0  0  0  0  0  0
   -1.6886   26.2882    4.9906 C   0  0  0  0  0  0  0  0  0  0  0  0
    0.5300   27.2294    4.9309 N   0  0  0  0  0  0  0  0  0  0  0  0
   -0.2451   26.1621    4.5815 C   0  0  0  0  0  0  0  0  0  0  0  0
    0.2296   25.2058    3.9820 O   0  0  0  0  0  0  0  0  0  0  0  0
    1.5182   27.1807    4.7201 H   0  0  0  0  0  0  0  0  0  0  0  0
    0.1954   27.9778    5.5221 H   0  0  0  0  0  0  0  0  0  0  0  0
   -4.1330   31.4177    6.5727 C   0  0  0  0  0  0  0  0  0  0  0  0
   -5.0760   30.5198    7.3085 C   0  0  0  0  0  0  0  0  0  0  0  0
   -5.4377   30.6416    8.6380 C   0  0  0  0  0  0  0  0  0  0  0  0
   -6.2922   29.6196    8.9030 N   0  0  0  0  0  0  0  0  0  0  0  0
   -6.5427   28.8455    7.8414 N   0  0  0  0  0  0  0  0  0  0  0  0
   -5.7877   29.3688    6.8620 C   0  0  0  0  0  0  0  0  0  0  0  0
   -6.7452   29.3921    9.7824 H   0  0  0  0  0  0  0  0  0  0  0  0
   -5.7840   28.6792    5.4392 C   0  0  0  0  0  0  0  0  0  0  0  0
   -6.0476   29.3784    4.2744 C   0  0  0  0  0  0  0  0  0  0  0  0
   -6.0102   28.5453    3.1162 C   0  0  0  0  0  0  0  0  0  0  0  0
   -5.7187   27.2500    3.4566 C   0  0  0  0  0  0  0  0  0  0  0  0
   -5.5984   25.8277    2.1871 Br  0  0  0  0  0  0  0  0  0  0  0  0
   -5.4791   27.0316    5.1175 S   0  0  0  0  0  0  0  0  0  0  0  0
 12 13  1  0  0  0
 13 14  2  0  0  0
 13 11  1  0  0  0
 11 10  1  0  0  0
 10  9  1  0  0  0
  9  3  1  0  0  0
  3  4  2  0  0  0
  4  5  1  0  0  0
  5  6  2  0  0  0
  6  7  1  0  0  0
  7  8  2  0  0  0
  8  1  1  0  0  0
  1 17  1  0  0  0
 17 18  1  0  0  0
 18 19  2  0  0  0
 19 20  1  0  0  0
 20 21  1  0  0  0
 21 22  2  0  0  0
 22 24  1  0  0  0
 24 25  2  0  0  0
 25 26  1  0  0  0
 26 27  2  0  0  0
 27 28  1  0  0  0
 27 29  1  0  0  0
  8  3  1  0  0  0
 22 18  1  0  0  0
 29 24  1  0  0  0
 12 15  1  0  0  0
 12 16  1  0  0  0
  1  2  1  0  0  0
 20 23  1  0  0  0
M  END
> <minimizedAffinity>
-8.38682

$$$$
OCNT-2310222


 26 28  0  0  0  0  0  0  0  0999 V2000
   -4.6294   29.8817    7.5055 O   0  0  0  0  0  0  0  0  0  0  0  0
   -4.3573   30.4022    6.4318 C   0  0  0  0  0  0  0  0  0  0  0  0
   -5.1284   30.2854    5.3001 N   0  0  0  0  0  0  0  0  0  0  0  0
   -3.2887   31.2294    6.2171 N   0  0  0  0  0  0  0  0  0  0  0  0
   -5.1841   31.1502    4.7857 H   0  0  0  0  0  0  0  0  0  0  0  0
   -2.9310   31.2653    5.2709 H   0  0  0  0  0  0  0  0  0  0  0  0
   -6.3769   29.5665    5.3991 C   0  0  0  0  0  0  0  0  0  0  0  0
   -6.1813   28.2210    4.8143 C   0  0  0  0  0  0  0  0  0  0  0  0
   -5.9515   27.8431    3.5053 C   0  0  0  0  0  0  0  0  0  0  0  0
   -5.8428   26.4300    3.4666 C   0  0  0  0  0  0  0  0  0  0  0  0
   -5.6240   25.4965    2.4363 C   0  0  0  0  0  0  0  0  0  0  0  0
   -5.5776   24.1336    2.7486 C   0  0  0  0  0  0  0  0  0  0  0  0
   -5.7417   23.7000    4.0642 C   0  0  0  0  0  0  0  0  0  0  0  0
   -5.9634   24.6105    5.1026 C   0  0  0  0  0  0  0  0  0  0  0  0
   -6.0103   25.9697    4.7735 C   0  0  0  0  0  0  0  0  0  0  0  0
   -6.2108   27.0740    5.5716 N   0  0  0  0  0  0  0  0  0  0  0  0
   -6.3572   27.0400    6.5714 H   0  0  0  0  0  0  0  0  0  0  0  0
   -2.4013   31.6160    7.2893 C   0  0  0  0  0  0  0  0  0  0  0  0
   -1.1832   30.7410    7.3888 C   0  0  0  0  0  0  0  0  0  0  0  0
   -0.6772   30.0859    6.2557 C   0  0  0  0  0  0  0  0  0  0  0  0
    0.4204   29.2274    6.3603 C   0  0  0  0  0  0  0  0  0  0  0  0
    1.0342   29.0226    7.5990 C   0  0  0  0  0  0  0  0  0  0  0  0
    0.5448   29.6831    8.7215 C   0  0  0  0  0  0  0  0  0  0  0  0
    1.1307   29.4765    9.9079 F   0  0  0  0  0  0  0  0  0  0  0  0
   -0.5467   30.5373    8.6162 C   0  0  0  0  0  0  0  0  0  0  0  0
   -1.0180   31.1452    9.7173 F   0  0  0  0  0  0  0  0  0  0  0  0
  1  2  2  0  0  0
  2  3  1  0  0  0
  3  7  1  0  0  0
  7  8  1  0  0  0
  8  9  2  0  0  0
  9 10  1  0  0  0
 10 11  2  0  0  0
 11 12  1  0  0  0
 12 13  2  0  0  0
 13 14  1  0  0  0
 14 15  2  0  0  0
 15 16  1  0  0  0
  2  4  1  0  0  0
  4 18  1  0  0  0
 18 19  1  0  0  0
 19 20  2  0  0  0
 20 21  1  0  0  0
 21 22  2  0  0  0
 22 23  1  0  0  0
 23 24  1  0  0  0
 23 25  2  0  0  0
 25 26  1  0  0  0
 16  8  1  0  0  0
 25 19  1  0  0  0
 15 10  1  0  0  0
  3  5  1  0  0  0
 16 17  1  0  0  0
  4  6  1  0  0  0
M  END
> <minimizedAffinity>
-9.91662

$$$$
OCNT-2310250


 29 32  0  0  0  0  0  0  0  0999 V2000
   -4.7094   26.2755    4.0745 C   0  0  0  0  0  0  0  0  0  0  0  0
   -4.5625   25.3792    3.0217 C   0  0  0  0  0  0  0  0  0  0  0  0
   -3.2300   25.0445    2.9558 N   0  0  0  0  0  0  0  0  0  0  0  0
   -2.5117   25.6827    3.9366 C   0  0  0  0  0  0  0  0  0  0  0  0
   -1.1451   25.6260    4.2346 C   0  0  0  0  0  0  0  0  0  0  0  0
   -0.6844   26.3920    5.3090 C   0  0  0  0  0  0  0  0  0  0  0  0
   -1.5576   27.1823    6.0515 C   0  0  0  0  0  0  0  0  0  0  0  0
   -2.9210   27.2273    5.7369 C   0  0  0  0  0  0  0  0  0  0  0  0
   -3.4118   26.4646    4.6564 C   0  0  0  0  0  0  0  0  0  0  0  0
   -2.8301   24.4196    2.2707 H   0  0  0  0  0  0  0  0  0  0  0  0
   -5.5367   24.8182    2.0918 C   0  0  0  0  0  0  0  0  0  0  0  0
   -5.7048   25.3842    0.8198 C   0  0  0  0  0  0  0  0  0  0  0  0
   -6.6353   24.8471   -0.0718 C   0  0  0  0  0  0  0  0  0  0  0  0
   -7.3963   23.7489    0.3109 C   0  0  0  0  0  0  0  0  0  0  0  0
   -8.2892   23.2355   -0.5450 F   0  0  0  0  0  0  0  0  0  0  0  0
   -7.2449   23.1767    1.5678 C   0  0  0  0  0  0  0  0  0  0  0  0
   -6.3137   23.7119    2.4599 C   0  0  0  0  0  0  0  0  0  0  0  0
   -5.9841   26.9072    4.5514 C   0  0  0  0  0  0  0  0  0  0  0  0
   -6.1030   28.3569    4.0902 C   0  0  0  0  0  0  0  0  0  0  0  0
   -4.9126   29.6951    5.6694 N   0  0  0  0  0  0  0  0  0  0  0  0
   -6.1701   29.3206    5.2608 C   0  0  0  0  0  0  0  0  0  0  0  0
   -7.2347   29.6921    5.7363 O   0  0  0  0  0  0  0  0  0  0  0  0
   -4.1066   29.3382    5.1728 H   0  0  0  0  0  0  0  0  0  0  0  0
   -5.3922   29.4722    8.9752 C   0  0  0  0  0  0  0  0  0  0  0  0
   -4.7396   30.4801    8.1114 C   0  0  0  0  0  0  0  0  0  0  0  0
   -4.1402   31.6362    8.5606 C   0  0  0  0  0  0  0  0  0  0  0  0
   -3.6356   32.3320    7.5215 O   0  0  0  0  0  0  0  0  0  0  0  0
   -3.8888   31.6493    6.3552 N   0  0  0  0  0  0  0  0  0  0  0  0
   -4.5543   30.5376    6.6997 C   0  0  0  0  0  0  0  0  0  0  0  0
 24 25  1  0  0  0
 25 26  2  0  0  0
 26 27  1  0  0  0
 27 28  1  0  0  0
 28 29  2  0  0  0
 29 20  1  0  0  0
 20 21  1  0  0  0
 21 22  2  0  0  0
 21 19  1  0  0  0
 19 18  1  0  0  0
 18  1  1  0  0  0
  1  2  2  0  0  0
  2 11  1  0  0  0
 11 12  1  0  0  0
 12 13  2  0  0  0
 13 14  1  0  0  0
 14 15  1  0  0  0
 14 16  2  0  0  0
 16 17  1  0  0  0
  2  3  1  0  0  0
  3  4  1  0  0  0
  4  5  2  0  0  0
  5  6  1  0  0  0
  6  7  2  0  0  0
  7  8  1  0  0  0
  8  9  2  0  0  0
 29 25  1  0  0  0
  9  1  1  0  0  0
 17 11  2  0  0  0
  9  4  1  0  0  0
 20 23  1  0  0  0
  3 10  1  0  0  0
M  END
> <minimizedAffinity>
-10.04539

$$$$
OCNT-2310252


 33 36  0  0  0  0  0  0  0  0999 V2000
   -4.0175   25.9202    3.8594 C   0  0  0  0  0  0  0  0  0  0  0  0
   -4.0812   24.9086    2.9151 C   0  0  0  0  0  0  0  0  0  0  0  0
   -5.3387   24.9327    2.3594 N   0  0  0  0  0  0  0  0  0  0  0  0
   -6.0992   25.8968    2.9250 N   0  0  0  0  0  0  0  0  0  0  0  0
   -5.3046   26.5333    3.7971 C   0  0  0  0  0  0  0  0  0  0  0  0
   -5.8641   24.0934    1.3350 C   0  0  0  0  0  0  0  0  0  0  0  0
   -5.6012   22.7143    1.3113 C   0  0  0  0  0  0  0  0  0  0  0  0
   -6.1343   21.9198    0.2928 C   0  0  0  0  0  0  0  0  0  0  0  0
   -6.9266   22.4899   -0.7035 C   0  0  0  0  0  0  0  0  0  0  0  0
   -7.1899   23.8573   -0.6883 C   0  0  0  0  0  0  0  0  0  0  0  0
   -6.6621   24.6583    0.3262 C   0  0  0  0  0  0  0  0  0  0  0  0
   -5.8437   27.6549    4.5568 C   0  0  0  0  0  0  0  0  0  0  0  0
   -5.8330   28.9627    4.0713 C   0  0  0  0  0  0  0  0  0  0  0  0
   -6.3649   29.9924    4.8467 C   0  0  0  0  0  0  0  0  0  0  0  0
   -6.9001   29.6768    6.0851 C   0  0  0  0  0  0  0  0  0  0  0  0
   -6.9491   28.4232    6.5829 N   0  0  0  0  0  0  0  0  0  0  0  0
   -6.4263   27.4431    5.8034 C   0  0  0  0  0  0  0  0  0  0  0  0
   -3.1619   26.2986    6.0526 N   0  0  0  0  0  0  0  0  0  0  0  0
   -2.8761   26.2440    4.7033 C   0  0  0  0  0  0  0  0  0  0  0  0
   -1.7521   26.4497    4.2641 O   0  0  0  0  0  0  0  0  0  0  0  0
   -4.1335   26.3309    6.3345 H   0  0  0  0  0  0  0  0  0  0  0  0
   -2.1855   26.7843    7.0226 C   0  0  0  0  0  0  0  0  0  0  0  0
   -1.5899   29.0325    6.4016 O   0  0  0  0  0  0  0  0  0  0  0  0
   -2.2383   28.3108    7.1535 C   0  0  0  0  0  0  0  0  0  0  0  0
   -2.9851   28.7230    8.2474 N   0  0  0  0  0  0  0  0  0  0  0  0
   -3.3255   27.9723    8.8386 H   0  0  0  0  0  0  0  0  0  0  0  0
   -3.2480   30.0390    8.6681 C   0  0  0  0  0  0  0  0  0  0  0  0
   -2.3292   30.8374    9.3547 C   0  0  0  0  0  0  0  0  0  0  0  0
   -2.6692   32.1400    9.7355 C   0  0  0  0  0  0  0  0  0  0  0  0
   -3.9285   32.6408    9.4315 C   0  0  0  0  0  0  0  0  0  0  0  0
   -4.2523   33.8861    9.7991 F   0  0  0  0  0  0  0  0  0  0  0  0
   -4.8542   31.8657    8.7464 C   0  0  0  0  0  0  0  0  0  0  0  0
   -4.5126   30.5659    8.3617 C   0  0  0  0  0  0  0  0  0  0  0  0
 23 24  2  0  0  0
 24 22  1  0  0  0
 22 18  1  0  0  0
 18 19  1  0  0  0
 19 20  2  0  0  0
 19  1  1  0  0  0
  1  2  2  0  0  0
  2  3  1  0  0  0
  3  6  1  0  0  0
  6  7  2  0  0  0
  7  8  1  0  0  0
  8  9  2  0  0  0
  9 10  1  0  0  0
 10 11  2  0  0  0
  3  4  1  0  0  0
  4  5  2  0  0  0
  5 12  1  0  0  0
 12 13  1  0  0  0
 13 14  2  0  0  0
 14 15  1  0  0  0
 15 16  2  0  0  0
 16 17  1  0  0  0
 24 25  1  0  0  0
 25 27  1  0  0  0
 27 28  1  0  0  0
 28 29  2  0  0  0
 29 30  1  0  0  0
 30 31  1  0  0  0
 30 32  2  0  0  0
 32 33  1  0  0  0
  5  1  1  0  0  0
 17 12  2  0  0  0
 33 27  2  0  0  0
 11  6  1  0  0  0
 18 21  1  0  0  0
 25 26  1  0  0  0
M  END
> <minimizedAffinity>
-10.77085

$$$$
OCNT-2310258


 29 32  0  0  0  0  0  0  0  0999 V2000
   -4.5541   25.3858    4.8000 C   0  0  0  0  0  0  0  0  0  0  0  0
   -4.7416   24.5138    3.7450 C   0  0  0  0  0  0  0  0  0  0  0  0
   -5.6998   25.0648    2.9191 N   0  0  0  0  0  0  0  0  0  0  0  0
   -6.1608   26.2346    3.4226 N   0  0  0  0  0  0  0  0  0  0  0  0
   -5.4667   26.4445    4.5448 C   0  0  0  0  0  0  0  0  0  0  0  0
   -5.7053   27.6294    5.3533 C   0  0  0  0  0  0  0  0  0  0  0  0
   -4.7704   28.6762    5.3491 C   0  0  0  0  0  0  0  0  0  0  0  0
   -5.0079   29.8254    6.1058 C   0  0  0  0  0  0  0  0  0  0  0  0
   -6.1712   29.9174    6.8660 C   0  0  0  0  0  0  0  0  0  0  0  0
   -6.3971   31.0216    7.5909 F   0  0  0  0  0  0  0  0  0  0  0  0
   -7.1038   28.8834    6.8834 C   0  0  0  0  0  0  0  0  0  0  0  0
   -6.8727   27.7350    6.1228 C   0  0  0  0  0  0  0  0  0  0  0  0
   -6.2015   24.5507    1.6890 C   0  0  0  0  0  0  0  0  0  0  0  0
   -6.7094   23.2418    1.6503 C   0  0  0  0  0  0  0  0  0  0  0  0
   -7.2157   22.7165    0.4590 C   0  0  0  0  0  0  0  0  0  0  0  0
   -7.2188   23.4905   -0.7009 C   0  0  0  0  0  0  0  0  0  0  0  0
   -6.7149   24.7907   -0.6722 C   0  0  0  0  0  0  0  0  0  0  0  0
   -6.2067   25.3240    0.5174 C   0  0  0  0  0  0  0  0  0  0  0  0
   -3.6184   25.2479    5.9513 C   0  0  0  0  0  0  0  0  0  0  0  0
   -1.9825   26.6953    4.9517 O   0  0  0  0  0  0  0  0  0  0  0  0
   -2.5912   26.3726    5.9670 C   0  0  0  0  0  0  0  0  0  0  0  0
   -2.4419   26.9458    7.2210 N   0  0  0  0  0  0  0  0  0  0  0  0
   -3.0007   26.5596    7.9715 H   0  0  0  0  0  0  0  0  0  0  0  0
   -1.5437   27.9699    7.5825 C   0  0  0  0  0  0  0  0  0  0  0  0
   -2.0554   29.0486    8.3097 C   0  0  0  0  0  0  0  0  0  0  0  0
   -1.2134   30.0822    8.7113 C   0  0  0  0  0  0  0  0  0  0  0  0
    0.1249   30.0072    8.3674 C   0  0  0  0  0  0  0  0  0  0  0  0
    0.6585   28.9891    7.6615 N   0  0  0  0  0  0  0  0  0  0  0  0
   -0.1842   27.9933    7.2839 C   0  0  0  0  0  0  0  0  0  0  0  0
 20 21  2  0  0  0
 21 19  1  0  0  0
 19  1  1  0  0  0
  1  2  2  0  0  0
  2  3  1  0  0  0
  3 13  1  0  0  0
 13 14  2  0  0  0
 14 15  1  0  0  0
 15 16  2  0  0  0
 16 17  1  0  0  0
 17 18  2  0  0  0
  3  4  1  0  0  0
  4  5  2  0  0  0
  5  6  1  0  0  0
  6  7  1  0  0  0
  7  8  2  0  0  0
  8  9  1  0  0  0
  9 10  1  0  0  0
  9 11  2  0  0  0
 11 12  1  0  0  0
 21 22  1  0  0  0
 22 24  1  0  0  0
 24 25  1  0  0  0
 25 26  2  0  0  0
 26 27  1  0  0  0
 27 28  2  0  0  0
 28 29  1  0  0  0
  5  1  1  0  0  0
 12  6  2  0  0  0
 29 24  2  0  0  0
 18 13  1  0  0  0
 22 23  1  0  0  0
M  END
> <minimizedAffinity>
-9.31644

$$$$
OCNT-2310262


 22 24  0  0  0  0  0  0  0  0999 V2000
   -2.3155   27.5963    7.0448 O   0  0  0  0  0  0  0  0  0  0  0  0
   -3.2479   28.1405    6.4580 C   0  0  0  0  0  0  0  0  0  0  0  0
   -3.8192   27.6417    5.2853 N   0  0  0  0  0  0  0  0  0  0  0  0
   -5.2382   27.8692    4.9468 C   0  0  0  0  0  0  0  0  0  0  0  0
   -5.5449   27.5952    3.4607 C   0  0  0  0  0  0  0  0  0  0  0  0
   -5.0246   26.2866    3.0072 N   0  0  0  0  0  0  0  0  0  0  0  0
   -3.5831   26.1315    3.3031 C   0  0  0  0  0  0  0  0  0  0  0  0
   -3.2796   26.3677    4.7937 C   0  0  0  0  0  0  0  0  0  0  0  0
   -3.7625   29.4078    7.0200 C   0  0  0  0  0  0  0  0  0  0  0  0
   -3.3098   30.6185    6.4852 C   0  0  0  0  0  0  0  0  0  0  0  0
   -3.8055   31.8237    6.9833 C   0  0  0  0  0  0  0  0  0  0  0  0
   -4.7613   31.8162    8.0014 C   0  0  0  0  0  0  0  0  0  0  0  0
   -5.2260   30.6024    8.5109 C   0  0  0  0  0  0  0  0  0  0  0  0
   -6.5317   30.5989    9.8780 Br  0  0  0  0  0  0  0  0  0  0  0  0
   -4.7393   29.3930    8.0209 C   0  0  0  0  0  0  0  0  0  0  0  0
   -5.8281   25.1862    3.3345 C   0  0  0  0  0  0  0  0  0  0  0  0
   -6.1561   24.2435    2.3551 C   0  0  0  0  0  0  0  0  0  0  0  0
   -6.9696   23.1521    2.6688 C   0  0  0  0  0  0  0  0  0  0  0  0
   -7.4535   23.0258    3.9591 C   0  0  0  0  0  0  0  0  0  0  0  0
   -8.4569   21.7072    4.3988 Cl  0  0  0  0  0  0  0  0  0  0  0  0
   -7.1089   24.0006    4.8759 C   0  0  0  0  0  0  0  0  0  0  0  0
   -6.3202   25.0672    4.5882 N   0  0  0  0  0  0  0  0  0  0  0  0
  1  2  2  0  0  0
  2  9  1  0  0  0
  9 10  2  0  0  0
 10 11  1  0  0  0
 11 12  2  0  0  0
 12 13  1  0  0  0
 13 14  1  0  0  0
 13 15  2  0  0  0
  2  3  1  0  0  0
  3  4  1  0  0  0
  4  5  1  0  0  0
  5  6  1  0  0  0
  6 16  1  0  0  0
 16 17  2  0  0  0
 17 18  1  0  0  0
 18 19  2  0  0  0
 19 20  1  0  0  0
 19 21  1  0  0  0
 21 22  2  0  0  0
  6  7  1  0  0  0
  7  8  1  0  0  0
 15  9  1  0  0  0
  8  3  1  0  0  0
 22 16  1  0  0  0
M  END
> <minimizedAffinity>
-7.94545

$$$$
OCNT-2310292


 26 28  0  0  0  0  0  0  0  0999 V2000
   -5.1050   27.2098    5.0544 O   0  0  0  0  0  0  0  0  0  0  0  0
   -4.0528   26.5788    5.0169 C   0  0  0  0  0  0  0  0  0  0  0  0
   -3.8690   25.4061    4.3177 N   0  0  0  0  0  0  0  0  0  0  0  0
   -2.9262   26.9904    5.7356 N   0  0  0  0  0  0  0  0  0  0  0  0
   -1.5572   26.7604    5.2545 C   0  0  0  0  0  0  0  0  0  0  0  0
   -0.5312   26.9581    6.3730 C   0  0  0  0  0  0  0  0  0  0  0  0
   -0.6687   28.2458    6.9828 O   0  0  0  0  0  0  0  0  0  0  0  0
   -1.9756   28.3928    7.5797 C   0  0  0  0  0  0  0  0  0  0  0  0
   -3.0718   28.2365    6.5034 C   0  0  0  0  0  0  0  0  0  0  0  0
   -3.1602   24.7967    4.6944 H   0  0  0  0  0  0  0  0  0  0  0  0
   -4.7503   24.8280    3.3807 C   0  0  0  0  0  0  0  0  0  0  0  0
   -5.6818   23.8372    3.7017 C   0  0  0  0  0  0  0  0  0  0  0  0
   -6.5387   23.3180    2.7224 C   0  0  0  0  0  0  0  0  0  0  0  0
   -6.4815   23.7894    1.4050 C   0  0  0  0  0  0  0  0  0  0  0  0
   -5.5586   24.7843    1.1002 C   0  0  0  0  0  0  0  0  0  0  0  0
   -5.4809   25.2638   -0.1485 F   0  0  0  0  0  0  0  0  0  0  0  0
   -4.7020   25.3064    2.0687 C   0  0  0  0  0  0  0  0  0  0  0  0
   -7.3789   23.2630    0.3266 C   0  0  0  0  0  0  0  0  0  0  0  0
   -6.6954   22.6839   -0.7026 F   0  0  0  0  0  0  0  0  0  0  0  0
   -8.2399   22.3078    0.7738 F   0  0  0  0  0  0  0  0  0  0  0  0
   -8.1463   24.2311   -0.2454 F   0  0  0  0  0  0  0  0  0  0  0  0
   -2.0884   29.7176    8.2928 C   0  0  0  0  0  0  0  0  0  0  0  0
   -3.2738   30.3780    8.5665 C   0  0  0  0  0  0  0  0  0  0  0  0
   -3.0410   31.8509    9.4013 S   0  0  0  0  0  0  0  0  0  0  0  0
   -1.3466   31.6382    9.4116 C   0  0  0  0  0  0  0  0  0  0  0  0
   -0.9693   30.4679    8.7913 C   0  0  0  0  0  0  0  0  0  0  0  0
  1  2  2  0  0  0
  2  3  1  0  0  0
  3 11  1  0  0  0
 11 12  1  0  0  0
 12 13  2  0  0  0
 13 14  1  0  0  0
 14 18  1  0  0  0
 18 19  1  0  0  0
 18 20  1  0  0  0
 18 21  1  0  0  0
 14 15  2  0  0  0
 15 16  1  0  0  0
 15 17  1  0  0  0
  2  4  1  0  0  0
  4  5  1  0  0  0
  5  6  1  0  0  0
  6  7  1  0  0  0
  7  8  1  0  0  0
  8 22  1  0  0  0
 22 23  2  0  0  0
 23 24  1  0  0  0
 24 25  1  0  0  0
 25 26  2  0  0  0
  8  9  1  0  0  0
 17 11  2  0  0  0
  9  4  1  0  0  0
 26 22  1  0  0  0
  3 10  1  0  0  0
M  END
> <minimizedAffinity>
-9.65708

$$$$
OCNT-2310303


 29 31  0  0  0  0  0  0  0  0999 V2000
   -5.6818   26.8934    3.6558 C   0  0  0  0  0  0  0  0  0  0  0  0
   -6.1183   27.0670    4.9529 C   0  0  0  0  0  0  0  0  0  0  0  0
   -6.3718   28.4046    5.0526 N   0  0  0  0  0  0  0  0  0  0  0  0
   -6.1759   29.0189    3.8681 N   0  0  0  0  0  0  0  0  0  0  0  0
   -5.7231   28.1120    3.0154 N   0  0  0  0  0  0  0  0  0  0  0  0
   -5.7783   25.6202    1.5099 C   0  0  0  0  0  0  0  0  0  0  0  0
   -5.1773   25.6671    2.9332 C   0  0  0  0  0  0  0  0  0  0  0  0
   -5.5739   24.3485    3.6258 C   0  0  0  0  0  0  0  0  0  0  0  0
   -3.7206   25.8203    2.7941 N   0  0  0  0  0  0  0  0  0  0  0  0
   -2.8670   25.9139    3.8526 C   0  0  0  0  0  0  0  0  0  0  0  0
   -1.6137   26.2814    3.4772 N   0  0  0  0  0  0  0  0  0  0  0  0
   -3.1178   25.6635    5.0212 O   0  0  0  0  0  0  0  0  0  0  0  0
   -3.4480   26.3873    2.0055 H   0  0  0  0  0  0  0  0  0  0  0  0
   -1.0085   26.4555    4.2699 H   0  0  0  0  0  0  0  0  0  0  0  0
   -1.5207   26.9496    2.7286 H   0  0  0  0  0  0  0  0  0  0  0  0
   -6.9308   29.1565    6.1635 C   0  0  0  0  0  0  0  0  0  0  0  0
   -5.9731   29.2706    7.3036 C   0  0  0  0  0  0  0  0  0  0  0  0
   -4.6761   29.4567    7.1756 N   0  0  0  0  0  0  0  0  0  0  0  0
   -4.0646   29.4999    8.4179 C   0  0  0  0  0  0  0  0  0  0  0  0
   -4.9304   29.3782    9.4875 C   0  0  0  0  0  0  0  0  0  0  0  0
   -6.5401   29.1961    8.9281 S   0  0  0  0  0  0  0  0  0  0  0  0
   -2.6248   29.6636    8.5442 C   0  0  0  0  0  0  0  0  0  0  0  0
   -1.7540   28.6331    8.1738 C   0  0  0  0  0  0  0  0  0  0  0  0
   -2.2205   27.4907    7.6460 F   0  0  0  0  0  0  0  0  0  0  0  0
   -0.3703   28.7647    8.3089 C   0  0  0  0  0  0  0  0  0  0  0  0
    0.1716   29.9412    8.8212 C   0  0  0  0  0  0  0  0  0  0  0  0
   -0.6775   30.9812    9.1934 C   0  0  0  0  0  0  0  0  0  0  0  0
   -2.0585   30.8371    9.0532 C   0  0  0  0  0  0  0  0  0  0  0  0
   -2.8338   31.8671    9.4298 F   0  0  0  0  0  0  0  0  0  0  0  0
  6  7  1  0  0  0
  7  8  1  0  0  0
  7  9  1  0  0  0
  9 10  1  0  0  0
 10 11  1  0  0  0
 10 12  2  0  0  0
  7  1  1  0  0  0
  1  2  2  0  0  0
  2  3  1  0  0  0
  3 16  1  0  0  0
 16 17  1  0  0  0
 17 18  2  0  0  0
 18 19  1  0  0  0
 19 22  1  0  0  0
 22 23  2  0  0  0
 23 24  1  0  0  0
 23 25  1  0  0  0
 25 26  2  0  0  0
 26 27  1  0  0  0
 27 28  2  0  0  0
 28 29  1  0  0  0
 19 20  2  0  0  0
 20 21  1  0  0  0
  3  4  1  0  0  0
  4  5  2  0  0  0
  5  1  1  0  0  0
 21 17  1  0  0  0
 28 22  1  0  0  0
  9 13  1  0  0  0
 11 14  1  0  0  0
 11 15  1  0  0  0
M  END
> <minimizedAffinity>
-8.87395

$$$$
OCNT-2310304


 27 30  0  0  0  0  0  0  0  0999 V2000
   -6.5061   28.8972    5.6941 O   0  0  0  0  0  0  0  0  0  0  0  0
   -6.3360   29.3804   10.5264 C   0  0  0  0  0  0  0  0  0  0  0  0
   -5.6991   29.2360    9.1789 C   0  0  0  0  0  0  0  0  0  0  0  0
   -6.4769   29.1094    8.0503 C   0  0  0  0  0  0  0  0  0  0  0  0
   -5.7878   28.9752    6.8682 C   0  0  0  0  0  0  0  0  0  0  0  0
   -4.4486   28.9878    6.7590 N   0  0  0  0  0  0  0  0  0  0  0  0
   -3.7702   29.1174    7.9105 C   0  0  0  0  0  0  0  0  0  0  0  0
   -4.3512   29.2332    9.1244 N   0  0  0  0  0  0  0  0  0  0  0  0
   -2.3029   29.1410    7.8480 C   0  0  0  0  0  0  0  0  0  0  0  0
   -1.5226   29.9356    8.7032 C   0  0  0  0  0  0  0  0  0  0  0  0
   -0.1307   29.9361    8.6075 C   0  0  0  0  0  0  0  0  0  0  0  0
    0.4601   29.1342    7.6482 C   0  0  0  0  0  0  0  0  0  0  0  0
   -0.2371   28.3518    6.8013 N   0  0  0  0  0  0  0  0  0  0  0  0
   -1.5914   28.3736    6.9238 C   0  0  0  0  0  0  0  0  0  0  0  0
   -6.1380   27.9142    4.8078 C   0  0  0  0  0  0  0  0  0  0  0  0
   -6.2178   26.6051    5.2767 C   0  0  0  0  0  0  0  0  0  0  0  0
   -5.8576   25.5508    4.4401 C   0  0  0  0  0  0  0  0  0  0  0  0
   -5.4436   25.8461    3.1464 C   0  0  0  0  0  0  0  0  0  0  0  0
   -5.3494   27.1024    2.6622 N   0  0  0  0  0  0  0  0  0  0  0  0
   -5.7142   28.1069    3.4968 C   0  0  0  0  0  0  0  0  0  0  0  0
   -5.0242   24.8466    2.2938 O   0  0  0  0  0  0  0  0  0  0  0  0
   -5.9425   24.4244    1.3591 C   0  0  0  0  0  0  0  0  0  0  0  0
   -6.2837   25.1907    0.2420 C   0  0  0  0  0  0  0  0  0  0  0  0
   -7.1982   24.6910   -0.6862 C   0  0  0  0  0  0  0  0  0  0  0  0
   -7.7579   23.4254   -0.5049 C   0  0  0  0  0  0  0  0  0  0  0  0
   -7.4008   22.6542    0.6010 C   0  0  0  0  0  0  0  0  0  0  0  0
   -6.4849   23.1488    1.5298 C   0  0  0  0  0  0  0  0  0  0  0  0
  2  3  1  0  0  0
  3  4  1  0  0  0
  4  5  2  0  0  0
  5  1  1  0  0  0
  1 15  1  0  0  0
 15 16  2  0  0  0
 16 17  1  0  0  0
 17 18  2  0  0  0
 18 21  1  0  0  0
 21 22  1  0  0  0
 22 23  2  0  0  0
 23 24  1  0  0  0
 24 25  2  0  0  0
 25 26  1  0  0  0
 26 27  2  0  0  0
 18 19  1  0  0  0
 19 20  2  0  0  0
  5  6  1  0  0  0
  6  7  2  0  0  0
  7  9  1  0  0  0
  9 10  1  0  0  0
 10 11  2  0  0  0
 11 12  1  0  0  0
 12 13  2  0  0  0
 13 14  1  0  0  0
  7  8  1  0  0  0
  8  3  2  0  0  0
 20 15  1  0  0  0
 14  9  2  0  0  0
 27 22  1  0  0  0
M  END
> <minimizedAffinity>
-10.40370

$$$$
OCNT-2310310


 23 25  0  0  0  0  0  0  0  0999 V2000
   -2.8050   27.7854    7.6117 N   0  0  0  0  0  0  0  0  0  0  0  0
   -3.7144   28.0314    8.0037 H   0  0  0  0  0  0  0  0  0  0  0  0
   -1.8630   28.7378    8.0728 C   0  0  0  0  0  0  0  0  0  0  0  0
   -0.5511   28.4184    8.0642 N   0  0  0  0  0  0  0  0  0  0  0  0
    0.2869   29.3138    8.5917 C   0  0  0  0  0  0  0  0  0  0  0  0
   -0.0543   30.4924    9.1224 N   0  0  0  0  0  0  0  0  0  0  0  0
   -1.3640   30.7829    9.1201 C   0  0  0  0  0  0  0  0  0  0  0  0
   -1.7874   31.9910    9.6547 C   0  0  0  0  0  0  0  0  0  0  0  0
   -3.1353   32.3423    9.6702 C   0  0  0  0  0  0  0  0  0  0  0  0
   -4.0414   31.4528    9.1322 C   0  0  0  0  0  0  0  0  0  0  0  0
   -3.6845   30.2690    8.5967 N   0  0  0  0  0  0  0  0  0  0  0  0
   -2.3570   29.9394    8.6041 C   0  0  0  0  0  0  0  0  0  0  0  0
   -2.8313   27.5000    6.1842 C   0  0  0  0  0  0  0  0  0  0  0  0
   -2.2473   26.1153    5.8971 C   0  0  0  0  0  0  0  0  0  0  0  0
   -1.6531   25.9887    4.4900 C   0  0  0  0  0  0  0  0  0  0  0  0
   -2.7460   26.1093    3.4179 C   0  0  0  0  0  0  0  0  0  0  0  0
   -4.7048   22.9223    3.0473 C   0  0  0  0  0  0  0  0  0  0  0  0
   -3.9260   24.1542    2.5634 C   0  0  0  0  0  0  0  0  0  0  0  0
   -4.4759   24.6807    1.2245 C   0  0  0  0  0  0  0  0  0  0  0  0
   -5.8064   25.4112    1.3781 C   0  0  0  0  0  0  0  0  0  0  0  0
   -5.7238   26.4659    2.4749 C   0  0  0  0  0  0  0  0  0  0  0  0
   -5.1749   25.8741    3.7737 C   0  0  0  0  0  0  0  0  0  0  0  0
   -3.8807   25.1880    3.6227 N   0  0  0  0  0  0  0  0  0  0  0  0
 17 18  1  0  0  0
 18 19  1  0  0  0
 19 20  1  0  0  0
 20 21  1  0  0  0
 21 22  1  0  0  0
 22 23  1  0  0  0
 23 16  1  0  0  0
 16 15  1  0  0  0
 15 14  1  0  0  0
 14 13  1  0  0  0
 13  1  1  0  0  0
  1  3  1  0  0  0
  3  4  1  0  0  0
  4  5  2  0  0  0
  5  6  1  0  0  0
  6  7  2  0  0  0
  7  8  1  0  0  0
  8  9  2  0  0  0
  9 10  1  0  0  0
 10 11  2  0  0  0
 11 12  1  0  0  0
 23 18  1  0  0  0
 12  3  2  0  0  0
 12  7  1  0  0  0
  1  2  1  0  0  0
M  END
> <minimizedAffinity>
-8.36214

$$$$
OCNT-2310311


 27 30  0  0  0  0  0  0  0  0999 V2000
   -4.1520   27.9957    4.9628 N   0  0  0  0  0  0  0  0  0  0  0  0
   -4.9189   28.6696    4.9146 H   0  0  0  0  0  0  0  0  0  0  0  0
   -7.5435   22.1776    0.8736 O   0  0  0  0  0  0  0  0  0  0  0  0
   -6.9276   23.3019    1.3397 C   0  0  0  0  0  0  0  0  0  0  0  0
   -6.3668   24.2307    0.4710 C   0  0  0  0  0  0  0  0  0  0  0  0
   -5.7369   25.3619    0.9933 C   0  0  0  0  0  0  0  0  0  0  0  0
   -5.6656   25.5664    2.3817 C   0  0  0  0  0  0  0  0  0  0  0  0
   -5.0013   26.8178    2.9091 C   0  0  0  0  0  0  0  0  0  0  0  0
   -4.5947   26.7082    4.3935 C   0  0  0  0  0  0  0  0  0  0  0  0
   -5.8065   26.2060    5.1948 C   0  0  0  0  0  0  0  0  0  0  0  0
   -6.1924   24.7950    4.7470 C   0  0  0  0  0  0  0  0  0  0  0  0
   -6.2593   24.6321    3.2501 C   0  0  0  0  0  0  0  0  0  0  0  0
   -6.8766   23.4913    2.7162 C   0  0  0  0  0  0  0  0  0  0  0  0
   -7.5583   22.2161   -0.0977 H   0  0  0  0  0  0  0  0  0  0  0  0
   -3.6957   27.9221    6.3551 C   0  0  0  0  0  0  0  0  0  0  0  0
   -2.2252   27.6748    6.4201 C   0  0  0  0  0  0  0  0  0  0  0  0
   -1.5430   26.5426    6.0194 C   0  0  0  0  0  0  0  0  0  0  0  0
   -0.2236   26.7866    6.2549 N   0  0  0  0  0  0  0  0  0  0  0  0
    0.0146   28.0015    6.7605 N   0  0  0  0  0  0  0  0  0  0  0  0
   -1.2013   28.5509    6.9005 C   0  0  0  0  0  0  0  0  0  0  0  0
    0.5675   26.1755    6.0820 H   0  0  0  0  0  0  0  0  0  0  0  0
   -1.3588   29.8859    7.4621 C   0  0  0  0  0  0  0  0  0  0  0  0
   -0.9735   30.1456    8.7825 C   0  0  0  0  0  0  0  0  0  0  0  0
   -1.1606   31.4165    9.3292 C   0  0  0  0  0  0  0  0  0  0  0  0
   -1.7378   32.4305    8.5617 C   0  0  0  0  0  0  0  0  0  0  0  0
   -2.1196   32.1792    7.2461 C   0  0  0  0  0  0  0  0  0  0  0  0
   -1.9236   30.9118    6.6926 C   0  0  0  0  0  0  0  0  0  0  0  0
  3  4  1  0  0  0
  4  5  1  0  0  0
  5  6  2  0  0  0
  6  7  1  0  0  0
  7  8  1  0  0  0
  8  9  1  0  0  0
  9  1  1  0  0  0
  1 15  1  0  0  0
 15 16  1  0  0  0
 16 17  2  0  0  0
 17 18  1  0  0  0
 18 19  1  0  0  0
 19 20  2  0  0  0
 20 22  1  0  0  0
 22 23  2  0  0  0
 23 24  1  0  0  0
 24 25  2  0  0  0
 25 26  1  0  0  0
 26 27  2  0  0  0
  9 10  1  0  0  0
 10 11  1  0  0  0
 11 12  1  0  0  0
 12 13  1  0  0  0
 13  4  2  0  0  0
 12  7  2  0  0  0
 20 16  1  0  0  0
 27 22  1  0  0  0
  3 14  1  0  0  0
  1  2  1  0  0  0
 18 21  1  0  0  0
M  END
> <minimizedAffinity>
-10.16786

$$$$
OCNT-2310312


 35 40  0  0  0  0  0  0  0  0999 V2000
   -4.0664   25.3798    3.9399 C   0  0  0  0  0  0  0  0  0  0  0  0
   -2.9672   25.2181    3.0648 C   0  0  0  0  0  0  0  0  0  0  0  0
   -1.7128   25.7349    3.4041 C   0  0  0  0  0  0  0  0  0  0  0  0
   -1.6074   26.3857    4.6196 C   0  0  0  0  0  0  0  0  0  0  0  0
   -0.4544   27.0247    5.2526 C   0  0  0  0  0  0  0  0  0  0  0  0
    0.6520   27.0883    4.7522 O   0  0  0  0  0  0  0  0  0  0  0  0
   -0.8921   27.5072    6.4541 N   0  0  0  0  0  0  0  0  0  0  0  0
   -2.2210   27.2573    6.6546 C   0  0  0  0  0  0  0  0  0  0  0  0
   -2.9298   27.5648    7.5934 O   0  0  0  0  0  0  0  0  0  0  0  0
   -2.6867   26.5268    5.4774 C   0  0  0  0  0  0  0  0  0  0  0  0
   -3.9373   26.0292    5.1728 C   0  0  0  0  0  0  0  0  0  0  0  0
   -7.3561   22.4240    3.0978 C   0  0  0  0  0  0  0  0  0  0  0  0
   -7.3933   23.5456    4.1424 C   0  0  0  0  0  0  0  0  0  0  0  0
   -8.1161   23.0755    5.3624 C   0  0  0  0  0  0  0  0  0  0  0  0
   -7.5434   22.5784    6.5105 C   0  0  0  0  0  0  0  0  0  0  0  0
   -6.0695   22.5193    6.6181 C   0  0  0  0  0  0  0  0  0  0  0  0
   -5.4786   23.7274    5.8683 C   0  0  0  0  0  0  0  0  0  0  0  0
   -6.0169   23.9739    4.5026 N   0  0  0  0  0  0  0  0  0  0  0  0
   -5.3727   24.8000    3.5800 C   0  0  0  0  0  0  0  0  0  0  0  0
   -5.8167   25.0866    2.4720 O   0  0  0  0  0  0  0  0  0  0  0  0
   -8.5838   22.2250    7.4057 C   0  0  0  0  0  0  0  0  0  0  0  0
   -8.6295   21.6775    8.7020 C   0  0  0  0  0  0  0  0  0  0  0  0
   -9.8709   21.4543    9.3089 C   0  0  0  0  0  0  0  0  0  0  0  0
  -11.0543   21.7690    8.6444 C   0  0  0  0  0  0  0  0  0  0  0  0
  -11.0355   22.3151    7.3576 C   0  0  0  0  0  0  0  0  0  0  0  0
   -9.7870   22.5327    6.7627 C   0  0  0  0  0  0  0  0  0  0  0  0
   -9.4740   23.0519    5.5229 N   0  0  0  0  0  0  0  0  0  0  0  0
  -10.1553   23.3569    4.8412 H   0  0  0  0  0  0  0  0  0  0  0  0
   -0.0668   28.2621    7.3693 C   0  0  0  0  0  0  0  0  0  0  0  0
   -0.6387   29.6354    7.6180 C   0  0  0  0  0  0  0  0  0  0  0  0
   -0.6455   30.1850    8.9035 C   0  0  0  0  0  0  0  0  0  0  0  0
   -1.2123   31.4361    9.0874 C   0  0  0  0  0  0  0  0  0  0  0  0
   -1.7693   32.1616    8.0944 N   0  0  0  0  0  0  0  0  0  0  0  0
   -1.7629   31.6093    6.8626 C   0  0  0  0  0  0  0  0  0  0  0  0
   -1.2211   30.3661    6.5779 C   0  0  0  0  0  0  0  0  0  0  0  0
 12 13  1  0  0  0
 13 14  1  0  0  0
 14 15  2  0  0  0
 15 16  1  0  0  0
 16 17  1  0  0  0
 17 18  1  0  0  0
 18 19  1  0  0  0
 19 20  2  0  0  0
 19  1  1  0  0  0
  1  2  1  0  0  0
  2  3  2  0  0  0
  3  4  1  0  0  0
  4  5  1  0  0  0
  5  6  2  0  0  0
  5  7  1  0  0  0
  7 29  1  0  0  0
 29 30  1  0  0  0
 30 31  2  0  0  0
 31 32  1  0  0  0
 32 33  2  0  0  0
 33 34  1  0  0  0
 34 35  2  0  0  0
  7  8  1  0  0  0
  8  9  2  0  0  0
  8 10  1  0  0  0
 10 11  1  0  0  0
 15 21  1  0  0  0
 21 22  2  0  0  0
 22 23  1  0  0  0
 23 24  2  0  0  0
 24 25  1  0  0  0
 25 26  2  0  0  0
 26 27  1  0  0  0
 18 13  1  0  0  0
 11  1  2  0  0  0
 26 21  1  0  0  0
 27 14  1  0  0  0
 10  4  2  0  0  0
 35 30  1  0  0  0
 27 28  1  0  0  0
M  END
> <minimizedAffinity>
-11.17040

$$$$
OCNT-2310324


 24 27  0  0  0  0  0  0  0  0999 V2000
   -5.4193   29.8631    7.0031 O   0  0  0  0  0  0  0  0  0  0  0  0
   -4.5858   28.9797    6.8244 C   0  0  0  0  0  0  0  0  0  0  0  0
   -4.8759   27.8037    6.1789 N   0  0  0  0  0  0  0  0  0  0  0  0
   -4.1274   27.1677    5.9517 H   0  0  0  0  0  0  0  0  0  0  0  0
   -3.2140   29.1165    7.2785 C   0  0  0  0  0  0  0  0  0  0  0  0
   -2.6848   29.5344    8.4996 C   0  0  0  0  0  0  0  0  0  0  0  0
   -1.2953   29.4505    8.3217 C   0  0  0  0  0  0  0  0  0  0  0  0
   -0.9833   29.0175    7.0861 C   0  0  0  0  0  0  0  0  0  0  0  0
    0.4186   28.9530    6.9622 C   0  0  0  0  0  0  0  0  0  0  0  0
    0.8515   29.3755    8.2001 C   0  0  0  0  0  0  0  0  0  0  0  0
   -0.1733   29.6854    9.0481 O   0  0  0  0  0  0  0  0  0  0  0  0
   -2.1592   28.8073    6.4245 N   0  0  0  0  0  0  0  0  0  0  0  0
   -2.2421   28.4803    5.4691 H   0  0  0  0  0  0  0  0  0  0  0  0
   -6.1633   27.5562    5.5736 C   0  0  0  0  0  0  0  0  0  0  0  0
   -6.0554   26.5540    4.4608 C   0  0  0  0  0  0  0  0  0  0  0  0
   -6.2467   25.1903    4.6987 C   0  0  0  0  0  0  0  0  0  0  0  0
   -6.1621   24.2673    3.6479 C   0  0  0  0  0  0  0  0  0  0  0  0
   -5.8912   24.6651    2.3252 C   0  0  0  0  0  0  0  0  0  0  0  0
   -5.7135   26.0421    2.1088 C   0  0  0  0  0  0  0  0  0  0  0  0
   -5.7982   26.9614    3.1545 C   0  0  0  0  0  0  0  0  0  0  0  0
   -5.6324   28.2641    2.8819 F   0  0  0  0  0  0  0  0  0  0  0  0
   -5.7914   23.6987    1.1589 C   0  0  0  0  0  0  0  0  0  0  0  0
   -6.3950   22.3170    1.2303 C   0  0  0  0  0  0  0  0  0  0  0  0
   -7.0023   23.3519    0.3267 C   0  0  0  0  0  0  0  0  0  0  0  0
  1  2  2  0  0  0
  2  3  1  0  0  0
  3 14  1  0  0  0
 14 15  1  0  0  0
 15 16  1  0  0  0
 16 17  2  0  0  0
 17 18  1  0  0  0
 18 22  1  0  0  0
 22 23  1  0  0  0
 23 24  1  0  0  0
 18 19  2  0  0  0
 19 20  1  0  0  0
 20 21  1  0  0  0
  2  5  1  0  0  0
  5  6  2  0  0  0
  6  7  1  0  0  0
  7  8  2  0  0  0
  8  9  1  0  0  0
  9 10  2  0  0  0
 10 11  1  0  0  0
  8 12  1  0  0  0
 20 15  2  0  0  0
 12  5  1  0  0  0
 24 22  1  0  0  0
 11  7  1  0  0  0
  3  4  1  0  0  0
 12 13  1  0  0  0
M  END
> <minimizedAffinity>
-9.19766

$$$$
OCNT-2310336


 30 33  0  0  0  0  0  0  0  0999 V2000
   -6.5221   29.4432    3.9820 O   0  0  0  0  0  0  0  0  0  0  0  0
   -5.7159   28.8269    4.6834 C   0  0  0  0  0  0  0  0  0  0  0  0
   -5.1942   27.6059    4.2653 N   0  0  0  0  0  0  0  0  0  0  0  0
   -4.0832   26.8919    4.8998 C   0  0  0  0  0  0  0  0  0  0  0  0
   -3.2174   26.1669    3.8748 C   0  0  0  0  0  0  0  0  0  0  0  0
   -4.0162   25.1454    3.0623 C   0  0  0  0  0  0  0  0  0  0  0  0
   -5.5004   25.5322    2.9091 C   0  0  0  0  0  0  0  0  0  0  0  0
   -5.6956   27.0556    2.9984 C   0  0  0  0  0  0  0  0  0  0  0  0
   -6.1203   24.9287    1.6652 C   0  0  0  0  0  0  0  0  0  0  0  0
   -6.1118   25.6416    0.4548 C   0  0  0  0  0  0  0  0  0  0  0  0
   -6.6786   25.0955   -0.7031 C   0  0  0  0  0  0  0  0  0  0  0  0
   -7.2639   23.8300   -0.6715 C   0  0  0  0  0  0  0  0  0  0  0  0
   -7.2781   23.1201    0.5197 C   0  0  0  0  0  0  0  0  0  0  0  0
   -7.8570   21.8826    0.5365 O   0  0  0  0  0  0  0  0  0  0  0  0
   -6.7145   23.6618    1.6740 C   0  0  0  0  0  0  0  0  0  0  0  0
   -6.7622   22.9430    2.8065 F   0  0  0  0  0  0  0  0  0  0  0  0
   -7.7534   21.5357    1.4425 H   0  0  0  0  0  0  0  0  0  0  0  0
   -5.2810   29.3842    6.0421 C   0  0  0  0  0  0  0  0  0  0  0  0
   -6.0034   28.6535    7.1869 C   0  0  0  0  0  0  0  0  0  0  0  0
   -5.5209   29.1417    8.5484 C   0  0  0  0  0  0  0  0  0  0  0  0
   -4.0758   28.9875    8.6829 N   0  0  0  0  0  0  0  0  0  0  0  0
   -3.3468   29.7204    7.6413 C   0  0  0  0  0  0  0  0  0  0  0  0
   -3.7659   29.2469    6.2398 C   0  0  0  0  0  0  0  0  0  0  0  0
   -3.7742   29.3241    9.5968 H   0  0  0  0  0  0  0  0  0  0  0  0
   -1.8454   29.5799    7.8285 C   0  0  0  0  0  0  0  0  0  0  0  0
   -1.0883   28.8226    6.9209 C   0  0  0  0  0  0  0  0  0  0  0  0
    0.2903   28.6764    7.0918 C   0  0  0  0  0  0  0  0  0  0  0  0
    0.9291   29.2830    8.1715 C   0  0  0  0  0  0  0  0  0  0  0  0
    0.1913   30.0359    9.0820 C   0  0  0  0  0  0  0  0  0  0  0  0
   -1.1864   30.1824    8.9128 C   0  0  0  0  0  0  0  0  0  0  0  0
  1  2  2  0  0  0
  2 18  1  0  0  0
 18 19  1  0  0  0
 19 20  1  0  0  0
 20 21  1  0  0  0
 21 22  1  0  0  0
 22 25  1  0  0  0
 25 26  2  0  0  0
 26 27  1  0  0  0
 27 28  2  0  0  0
 28 29  1  0  0  0
 29 30  2  0  0  0
 22 23  1  0  0  0
  2  3  1  0  0  0
  3  4  1  0  0  0
  4  5  1  0  0  0
  5  6  1  0  0  0
  6  7  1  0  0  0
  7  9  1  0  0  0
  9 10  2  0  0  0
 10 11  1  0  0  0
 11 12  2  0  0  0
 12 13  1  0  0  0
 13 14  1  0  0  0
 13 15  2  0  0  0
 15 16  1  0  0  0
  7  8  1  0  0  0
 23 18  1  0  0  0
  8  3  1  0  0  0
 30 25  1  0  0  0
 15  9  1  0  0  0
 21 24  1  0  0  0
 14 17  1  0  0  0
M  END
> <minimizedAffinity>
-11.10197

$$$$
OCNT-2310337


 30 33  0  0  0  0  0  0  0  0999 V2000
   -6.6537   28.7730    6.6418 C   0  0  0  0  0  0  0  0  0  0  0  0
   -7.3729   29.7537    6.4860 O   0  0  0  0  0  0  0  0  0  0  0  0
   -5.9928   28.5168    7.8296 N   0  0  0  0  0  0  0  0  0  0  0  0
   -5.1461   27.9716    7.7526 H   0  0  0  0  0  0  0  0  0  0  0  0
   -5.5618   25.0858    1.9259 C   0  0  0  0  0  0  0  0  0  0  0  0
   -5.7430   24.1075    2.9043 C   0  0  0  0  0  0  0  0  0  0  0  0
   -6.0386   24.4508    4.2311 C   0  0  0  0  0  0  0  0  0  0  0  0
   -6.1377   25.8110    4.5423 C   0  0  0  0  0  0  0  0  0  0  0  0
   -6.4197   26.4346    5.7355 N   0  0  0  0  0  0  0  0  0  0  0  0
   -6.4006   27.8054    5.5955 C   0  0  0  0  0  0  0  0  0  0  0  0
   -6.1398   28.0538    4.2575 C   0  0  0  0  0  0  0  0  0  0  0  0
   -5.9587   26.8124    3.5917 C   0  0  0  0  0  0  0  0  0  0  0  0
   -5.6651   26.4425    2.2659 C   0  0  0  0  0  0  0  0  0  0  0  0
   -6.6459   25.9480    6.5905 H   0  0  0  0  0  0  0  0  0  0  0  0
   -6.2530   25.2564   -0.3446 C   0  0  0  0  0  0  0  0  0  0  0  0
   -5.2748   24.8565    0.6067 O   0  0  0  0  0  0  0  0  0  0  0  0
   -6.0189   29.5067    8.8981 C   0  0  0  0  0  0  0  0  0  0  0  0
   -4.7259   30.3336    8.9750 C   0  0  0  0  0  0  0  0  0  0  0  0
   -4.9906   31.7974    9.3408 C   0  0  0  0  0  0  0  0  0  0  0  0
   -3.7580   32.4939    8.7832 C   0  0  0  0  0  0  0  0  0  0  0  0
   -3.5917   31.7815    7.4329 C   0  0  0  0  0  0  0  0  0  0  0  0
   -4.0683   30.3947    7.6447 N   0  0  0  0  0  0  0  0  0  0  0  0
   -2.9934   29.4910    7.5154 C   0  0  0  0  0  0  0  0  0  0  0  0
   -1.9755   29.5676    8.4500 C   0  0  0  0  0  0  0  0  0  0  0  0
   -0.9490   28.6622    8.3191 C   0  0  0  0  0  0  0  0  0  0  0  0
   -0.9054   27.7300    7.3516 N   0  0  0  0  0  0  0  0  0  0  0  0
   -1.9449   27.7303    6.5052 C   0  0  0  0  0  0  0  0  0  0  0  0
   -2.9917   28.5700    6.5335 N   0  0  0  0  0  0  0  0  0  0  0  0
   -3.9523   33.8903    8.5950 O   0  0  0  0  0  0  0  0  0  0  0  0
   -5.1263   34.1941    7.8529 C   0  0  0  0  0  0  0  0  0  0  0  0
 15 16  1  0  0  0
 16  5  1  0  0  0
  5  6  2  0  0  0
  6  7  1  0  0  0
  7  8  2  0  0  0
  8  9  1  0  0  0
  9 10  1  0  0  0
 10  1  1  0  0  0
  1  2  2  0  0  0
  1  3  1  0  0  0
  3 17  1  0  0  0
 17 18  1  0  0  0
 18 19  1  0  0  0
 19 20  1  0  0  0
 20 29  1  0  0  0
 29 30  1  0  0  0
 20 21  1  0  0  0
 21 22  1  0  0  0
 22 23  1  0  0  0
 23 24  1  0  0  0
 24 25  2  0  0  0
 25 26  1  0  0  0
 26 27  2  0  0  0
 27 28  1  0  0  0
 10 11  2  0  0  0
 11 12  1  0  0  0
 12 13  2  0  0  0
 13  5  1  0  0  0
 12  8  1  0  0  0
 22 18  1  0  0  0
 28 23  2  0  0  0
  9 14  1  0  0  0
  3  4  1  0  0  0
M  END
> <minimizedAffinity>
-9.59384

$$$$
OCNT-2310340


 25 27  0  0  0  0  0  0  0  0999 V2000
   -3.7712   29.8030    7.2466 C   0  0  0  0  0  0  0  0  0  0  0  0
   -6.7609   30.3581    7.2457 C   0  0  0  0  0  0  0  0  0  0  0  0
   -5.9678   30.2857    8.4669 N   0  0  0  0  0  0  0  0  0  0  0  0
   -6.6573   30.7056    9.6783 C   0  0  0  0  0  0  0  0  0  0  0  0
   -4.5769   30.1674    8.5224 C   0  0  0  0  0  0  0  0  0  0  0  0
   -3.9667   30.3607    9.5803 O   0  0  0  0  0  0  0  0  0  0  0  0
   -3.3063   28.3988    7.3379 N   0  0  0  0  0  0  0  0  0  0  0  0
   -3.6802   27.9168    8.1521 H   0  0  0  0  0  0  0  0  0  0  0  0
   -3.3040   27.6484    6.2062 C   0  0  0  0  0  0  0  0  0  0  0  0
   -2.3183   26.8963    5.7647 N   0  0  0  0  0  0  0  0  0  0  0  0
   -2.6221   26.2541    4.5819 N   0  0  0  0  0  0  0  0  0  0  0  0
   -3.8369   26.5440    4.1644 C   0  0  0  0  0  0  0  0  0  0  0  0
   -4.6922   27.6201    5.1867 S   0  0  0  0  0  0  0  0  0  0  0  0
   -4.4259   25.9432    2.8429 C   0  0  0  0  0  0  0  0  0  0  0  0
   -3.6986   25.2434    1.9617 N   0  0  0  0  0  0  0  0  0  0  0  0
   -4.5776   24.8958    0.9480 O   0  0  0  0  0  0  0  0  0  0  0  0
   -5.8092   25.3866    1.2324 C   0  0  0  0  0  0  0  0  0  0  0  0
   -5.7700   26.0608    2.4238 C   0  0  0  0  0  0  0  0  0  0  0  0
   -2.6285   30.8130    7.0200 C   0  0  0  0  0  0  0  0  0  0  0  0
   -1.2782   30.2336    7.3827 C   0  0  0  0  0  0  0  0  0  0  0  0
   -0.8673   30.1601    8.7204 C   0  0  0  0  0  0  0  0  0  0  0  0
    0.3882   29.6443    9.0451 C   0  0  0  0  0  0  0  0  0  0  0  0
    1.2441   29.2016    8.0381 C   0  0  0  0  0  0  0  0  0  0  0  0
    0.8471   29.2772    6.7045 C   0  0  0  0  0  0  0  0  0  0  0  0
   -0.4073   29.7932    6.3767 C   0  0  0  0  0  0  0  0  0  0  0  0
  2  3  1  0  0  0
  3  4  1  0  0  0
  3  5  1  0  0  0
  5  6  2  0  0  0
  5  1  1  0  0  0
  1 19  1  0  0  0
 19 20  1  0  0  0
 20 21  2  0  0  0
 21 22  1  0  0  0
 22 23  2  0  0  0
 23 24  1  0  0  0
 24 25  2  0  0  0
  1  7  1  0  0  0
  7  9  1  0  0  0
  9 10  2  0  0  0
 10 11  1  0  0  0
 11 12  2  0  0  0
 12 14  1  0  0  0
 14 15  2  0  0  0
 15 16  1  0  0  0
 16 17  1  0  0  0
 17 18  2  0  0  0
 12 13  1  0  0  0
 25 20  1  0  0  0
 13  9  1  0  0  0
 18 14  1  0  0  0
  7  8  1  0  0  0
M  END
> <minimizedAffinity>
-8.27212

$$$$
OCNT-2310342


 34 37  0  0  0  0  0  0  0  0999 V2000
   -5.7268   29.1471    4.9542 C   0  0  0  0  0  0  0  0  0  0  0  0
   -6.2670   29.5653    3.9326 O   0  0  0  0  0  0  0  0  0  0  0  0
   -5.1034   27.9143    5.0621 N   0  0  0  0  0  0  0  0  0  0  0  0
   -4.7621   27.5829    5.9556 H   0  0  0  0  0  0  0  0  0  0  0  0
   -4.4916   31.2278    7.8642 C   0  0  0  0  0  0  0  0  0  0  0  0
   -5.6944   31.5240    8.5206 C   0  0  0  0  0  0  0  0  0  0  0  0
   -6.9095   31.0476    8.0270 C   0  0  0  0  0  0  0  0  0  0  0  0
   -6.9405   30.2736    6.8662 C   0  0  0  0  0  0  0  0  0  0  0  0
   -5.7501   29.9776    6.1911 C   0  0  0  0  0  0  0  0  0  0  0  0
   -4.5302   30.4418    6.7015 C   0  0  0  0  0  0  0  0  0  0  0  0
   -3.1699   31.7101    8.4195 C   0  0  0  0  0  0  0  0  0  0  0  0
   -2.5489   30.7145    9.2855 N   0  0  0  0  0  0  0  0  0  0  0  0
   -2.0848   31.1529   10.0818 H   0  0  0  0  0  0  0  0  0  0  0  0
   -1.6027   26.8156    6.7568 C   0  0  0  0  0  0  0  0  0  0  0  0
   -1.1077   28.0249    7.4850 C   0  0  0  0  0  0  0  0  0  0  0  0
    0.2218   28.2256    7.5217 N   0  0  0  0  0  0  0  0  0  0  0  0
    0.6304   29.3327    8.1619 C   0  0  0  0  0  0  0  0  0  0  0  0
   -0.2268   30.2144    8.7751 C   0  0  0  0  0  0  0  0  0  0  0  0
   -1.5686   29.9077    8.7126 C   0  0  0  0  0  0  0  0  0  0  0  0
   -2.0225   28.8321    8.0538 N   0  0  0  0  0  0  0  0  0  0  0  0
   -4.9914   27.0647    3.9794 C   0  0  0  0  0  0  0  0  0  0  0  0
   -5.9349   26.2658    3.3834 C   0  0  0  0  0  0  0  0  0  0  0  0
   -5.2654   25.5980    2.3157 C   0  0  0  0  0  0  0  0  0  0  0  0
   -3.9726   25.9722    2.2718 N   0  0  0  0  0  0  0  0  0  0  0  0
   -3.8412   26.8592    3.2713 N   0  0  0  0  0  0  0  0  0  0  0  0
   -2.9432   27.3059    3.4380 H   0  0  0  0  0  0  0  0  0  0  0  0
   -5.8016   24.6214    1.3605 C   0  0  0  0  0  0  0  0  0  0  0  0
   -6.5887   25.0562    0.2760 C   0  0  0  0  0  0  0  0  0  0  0  0
   -7.1069   24.1498   -0.6564 C   0  0  0  0  0  0  0  0  0  0  0  0
   -6.8501   22.7898   -0.5166 C   0  0  0  0  0  0  0  0  0  0  0  0
   -6.0794   22.3509    0.5532 C   0  0  0  0  0  0  0  0  0  0  0  0
   -5.8466   21.0376    0.6926 F   0  0  0  0  0  0  0  0  0  0  0  0
   -5.5599   23.2491    1.4836 C   0  0  0  0  0  0  0  0  0  0  0  0
   -4.8323   22.7588    2.5000 F   0  0  0  0  0  0  0  0  0  0  0  0
 14 15  1  0  0  0
 15 16  2  0  0  0
 16 17  1  0  0  0
 17 18  2  0  0  0
 18 19  1  0  0  0
 19 12  1  0  0  0
 12 11  1  0  0  0
 11  5  1  0  0  0
  5  6  2  0  0  0
  6  7  1  0  0  0
  7  8  2  0  0  0
  8  9  1  0  0  0
  9  1  1  0  0  0
  1  2  2  0  0  0
  1  3  1  0  0  0
  3 21  1  0  0  0
 21 22  2  0  0  0
 22 23  1  0  0  0
 23 27  1  0  0  0
 27 28  2  0  0  0
 28 29  1  0  0  0
 29 30  2  0  0  0
 30 31  1  0  0  0
 31 32  1  0  0  0
 31 33  2  0  0  0
 33 34  1  0  0  0
 23 24  2  0  0  0
 24 25  1  0  0  0
  9 10  2  0  0  0
 19 20  2  0  0  0
 20 15  1  0  0  0
 10  5  1  0  0  0
 25 21  1  0  0  0
 33 27  1  0  0  0
 12 13  1  0  0  0
  3  4  1  0  0  0
 25 26  1  0  0  0
M  END
> <minimizedAffinity>
-11.43010

$$$$
OCNT-2310344


 23 25  0  0  0  0  0  0  0  0999 V2000
   -4.9073   25.2299    2.9106 C   0  0  0  0  0  0  0  0  0  0  0  0
   -5.1197   26.5844    3.0372 C   0  0  0  0  0  0  0  0  0  0  0  0
   -3.9891   27.1373    3.5826 N   0  0  0  0  0  0  0  0  0  0  0  0
   -3.0499   26.1604    3.8382 C   0  0  0  0  0  0  0  0  0  0  0  0
   -3.6037   24.9666    3.3991 C   0  0  0  0  0  0  0  0  0  0  0  0
   -3.8485   28.1259    3.7397 H   0  0  0  0  0  0  0  0  0  0  0  0
   -7.7040   23.1611   -0.5610 C   0  0  0  0  0  0  0  0  0  0  0  0
   -7.0505   23.3416    0.7632 C   0  0  0  0  0  0  0  0  0  0  0  0
   -6.2486   24.3392    1.0662 N   0  0  0  0  0  0  0  0  0  0  0  0
   -5.8137   24.2133    2.3737 C   0  0  0  0  0  0  0  0  0  0  0  0
   -6.2948   23.1100    3.0477 C   0  0  0  0  0  0  0  0  0  0  0  0
   -7.3238   22.2015    2.0207 S   0  0  0  0  0  0  0  0  0  0  0  0
   -1.7350   26.3682    4.4077 C   0  0  0  0  0  0  0  0  0  0  0  0
   -0.6990   26.0225    3.8492 O   0  0  0  0  0  0  0  0  0  0  0  0
   -1.7378   26.9678    5.6501 N   0  0  0  0  0  0  0  0  0  0  0  0
   -2.5885   26.9323    6.1893 H   0  0  0  0  0  0  0  0  0  0  0  0
   -0.5125   27.1058    6.4054 C   0  0  0  0  0  0  0  0  0  0  0  0
   -0.6507   28.2817    7.3194 C   0  0  0  0  0  0  0  0  0  0  0  0
    0.3539   29.0313    7.9057 C   0  0  0  0  0  0  0  0  0  0  0  0
   -0.1581   30.0790    8.7275 C   0  0  0  0  0  0  0  0  0  0  0  0
   -1.5293   30.0795    8.7305 C   0  0  0  0  0  0  0  0  0  0  0  0
   -2.5819   31.3330    9.7167 Br  0  0  0  0  0  0  0  0  0  0  0  0
   -2.2034   28.8548    7.7746 S   0  0  0  0  0  0  0  0  0  0  0  0
  7  8  1  0  0  0
  8  9  2  0  0  0
  9 10  1  0  0  0
 10  1  1  0  0  0
  1  2  2  0  0  0
  2  3  1  0  0  0
  3  4  1  0  0  0
  4 13  1  0  0  0
 13 14  2  0  0  0
 13 15  1  0  0  0
 15 17  1  0  0  0
 17 18  1  0  0  0
 18 19  2  0  0  0
 19 20  1  0  0  0
 20 21  2  0  0  0
 21 22  1  0  0  0
 21 23  1  0  0  0
  4  5  2  0  0  0
 10 11  2  0  0  0
 11 12  1  0  0  0
 12  8  1  0  0  0
  5  1  1  0  0  0
 23 18  1  0  0  0
  3  6  1  0  0  0
 15 16  1  0  0  0
M  END
> <minimizedAffinity>
-8.49893

$$$$
OCNT-2310353


 29 32  0  0  0  0  0  0  0  0999 V2000
   -3.4703   26.5249    5.1677 N   0  0  0  0  0  0  0  0  0  0  0  0
   -2.7734   26.0662    4.0643 C   0  0  0  0  0  0  0  0  0  0  0  0
   -1.6141   26.3215    3.7635 O   0  0  0  0  0  0  0  0  0  0  0  0
   -4.3730   26.1048    5.3439 H   0  0  0  0  0  0  0  0  0  0  0  0
   -2.8238   31.4085    8.3811 C   0  0  0  0  0  0  0  0  0  0  0  0
   -2.0076   30.4720    8.8227 N   0  0  0  0  0  0  0  0  0  0  0  0
   -2.2285   29.3820    8.0165 C   0  0  0  0  0  0  0  0  0  0  0  0
   -1.6387   28.1129    8.0395 C   0  0  0  0  0  0  0  0  0  0  0  0
   -2.0480   27.1564    7.0948 C   0  0  0  0  0  0  0  0  0  0  0  0
   -3.0288   27.4481    6.1410 C   0  0  0  0  0  0  0  0  0  0  0  0
   -3.6222   28.7235    6.1090 C   0  0  0  0  0  0  0  0  0  0  0  0
   -3.1965   29.6572    7.0594 C   0  0  0  0  0  0  0  0  0  0  0  0
   -3.5564   30.9541    7.3107 N   0  0  0  0  0  0  0  0  0  0  0  0
   -4.2650   31.4973    6.8383 H   0  0  0  0  0  0  0  0  0  0  0  0
   -2.9818   32.8014    8.9057 C   0  0  0  0  0  0  0  0  0  0  0  0
   -4.9576   33.9481    8.0982 C   0  0  0  0  0  0  0  0  0  0  0  0
   -4.3943   33.1409    9.1896 N   0  0  0  0  0  0  0  0  0  0  0  0
   -5.1749   31.9078    9.3309 C   0  0  0  0  0  0  0  0  0  0  0  0
   -3.5347   25.1268    3.1930 C   0  0  0  0  0  0  0  0  0  0  0  0
   -3.5932   23.7559    3.4598 C   0  0  0  0  0  0  0  0  0  0  0  0
   -4.3208   22.9111    2.6139 C   0  0  0  0  0  0  0  0  0  0  0  0
   -5.0045   23.4053    1.4896 C   0  0  0  0  0  0  0  0  0  0  0  0
   -4.9546   24.7908    1.2593 C   0  0  0  0  0  0  0  0  0  0  0  0
   -4.2324   25.6445    2.0990 C   0  0  0  0  0  0  0  0  0  0  0  0
   -5.8010   22.4951    0.5879 C   0  0  0  0  0  0  0  0  0  0  0  0
   -6.6966   21.4290    1.2018 C   0  0  0  0  0  0  0  0  0  0  0  0
   -7.2862   22.5907    0.5035 C   0  0  0  0  0  0  0  0  0  0  0  0
   -7.9928   23.5361    1.2102 F   0  0  0  0  0  0  0  0  0  0  0  0
   -7.9245   22.4191   -0.7030 F   0  0  0  0  0  0  0  0  0  0  0  0
 16 17  1  0  0  0
 17 18  1  0  0  0
 17 15  1  0  0  0
 15  5  1  0  0  0
  5  6  2  0  0  0
  6  7  1  0  0  0
  7  8  2  0  0  0
  8  9  1  0  0  0
  9 10  2  0  0  0
 10  1  1  0  0  0
  1  2  1  0  0  0
  2  3  2  0  0  0
  2 19  1  0  0  0
 19 20  1  0  0  0
 20 21  2  0  0  0
 21 22  1  0  0  0
 22 25  1  0  0  0
 25 26  1  0  0  0
 26 27  1  0  0  0
 27 28  1  0  0  0
 27 29  1  0  0  0
 22 23  2  0  0  0
 23 24  1  0  0  0
 10 11  1  0  0  0
 11 12  2  0  0  0
 12 13  1  0  0  0
 13  5  1  0  0  0
 12  7  1  0  0  0
 24 19  2  0  0  0
 27 25  1  0  0  0
  1  4  1  0  0  0
 13 14  1  0  0  0
M  END
> <minimizedAffinity>
-9.08622

$$$$
OCNT-2310355


 23 25  0  0  0  0  0  0  0  0999 V2000
   -5.1414   22.3547    2.3479 C   0  0  0  0  0  0  0  0  0  0  0  0
   -5.8287   23.1488    1.2635 C   0  0  0  0  0  0  0  0  0  0  0  0
   -6.5993   22.4285    0.3275 C   0  0  0  0  0  0  0  0  0  0  0  0
   -7.3179   23.0834   -0.6653 C   0  0  0  0  0  0  0  0  0  0  0  0
   -7.2645   24.4591   -0.6990 C   0  0  0  0  0  0  0  0  0  0  0  0
   -6.5500   25.1966    0.1743 N   0  0  0  0  0  0  0  0  0  0  0  0
   -5.8320   24.5482    1.1467 C   0  0  0  0  0  0  0  0  0  0  0  0
   -5.0907   25.4102    2.0147 N   0  0  0  0  0  0  0  0  0  0  0  0
   -5.6181   26.4615    2.7352 C   0  0  0  0  0  0  0  0  0  0  0  0
   -4.6817   27.0781    3.4196 N   0  0  0  0  0  0  0  0  0  0  0  0
   -3.5668   26.3768    3.0820 C   0  0  0  0  0  0  0  0  0  0  0  0
   -3.7503   25.3752    2.2227 N   0  0  0  0  0  0  0  0  0  0  0  0
   -5.8552   21.1010    2.5827 N   0  0  0  0  0  0  0  0  0  0  0  0
   -5.2247   20.3118    2.4601 H   0  0  0  0  0  0  0  0  0  0  0  0
   -7.9205   23.2970    5.4035 C   0  0  0  0  0  0  0  0  0  0  0  0
   -6.6898   22.5382    5.9366 C   0  0  0  0  0  0  0  0  0  0  0  0
   -5.7910   22.0822    4.7931 C   0  0  0  0  0  0  0  0  0  0  0  0
   -6.5027   21.0476    3.8972 C   0  0  0  0  0  0  0  0  0  0  0  0
   -8.0245   21.2935    3.8339 C   0  0  0  0  0  0  0  0  0  0  0  0
   -8.3889   22.7622    4.0364 C   0  0  0  0  0  0  0  0  0  0  0  0
  -10.2276   23.6040    5.8452 F   0  0  0  0  0  0  0  0  0  0  0  0
   -9.0498   23.2765    6.4311 C   0  0  0  0  0  0  0  0  0  0  0  0
   -9.1939   22.0249    6.9329 F   0  0  0  0  0  0  0  0  0  0  0  0
 21 22  1  0  0  0
 22 23  1  0  0  0
 22 15  1  0  0  0
 15 16  1  0  0  0
 16 17  1  0  0  0
 17 18  1  0  0  0
 18 13  1  0  0  0
 13  1  1  0  0  0
  1  2  1  0  0  0
  2  3  1  0  0  0
  3  4  2  0  0  0
  4  5  1  0  0  0
  5  6  2  0  0  0
  6  7  1  0  0  0
  7  8  1  0  0  0
  8  9  1  0  0  0
  9 10  2  0  0  0
 10 11  1  0  0  0
 11 12  2  0  0  0
 18 19  1  0  0  0
 19 20  1  0  0  0
 20 15  1  0  0  0
  7  2  2  0  0  0
 12  8  1  0  0  0
 13 14  1  0  0  0
M  END
> <minimizedAffinity>
-8.17614

$$$$
OCNT-2310374


 24 27  0  0  0  0  0  0  0  0999 V2000
   -4.1141   27.2558    5.0675 N   0  0  0  0  0  0  0  0  0  0  0  0
   -5.5323   27.2239    4.7001 C   0  0  0  0  0  0  0  0  0  0  0  0
   -5.8929   25.9212    4.0005 C   0  0  0  0  0  0  0  0  0  0  0  0
   -5.0681   25.7131    2.7261 C   0  0  0  0  0  0  0  0  0  0  0  0
   -3.6457   26.2697    2.8701 C   0  0  0  0  0  0  0  0  0  0  0  0
   -3.2197   26.3529    4.3312 C   0  0  0  0  0  0  0  0  0  0  0  0
   -2.1271   31.9671   10.3992 C   0  0  0  0  0  0  0  0  0  0  0  0
   -2.0802   30.9046    9.3373 C   0  0  0  0  0  0  0  0  0  0  0  0
   -0.9311   30.2804    9.0325 C   0  0  0  0  0  0  0  0  0  0  0  0
   -0.9213   29.2379    7.9801 C   0  0  0  0  0  0  0  0  0  0  0  0
    0.1319   28.6720    7.7019 O   0  0  0  0  0  0  0  0  0  0  0  0
   -2.1562   29.0197    7.4122 N   0  0  0  0  0  0  0  0  0  0  0  0
   -2.3458   28.0917    6.4203 N   0  0  0  0  0  0  0  0  0  0  0  0
   -3.5930   28.0743    6.0523 C   0  0  0  0  0  0  0  0  0  0  0  0
   -4.6350   29.2165    6.9032 S   0  0  0  0  0  0  0  0  0  0  0  0
   -3.2551   29.7245    7.8107 C   0  0  0  0  0  0  0  0  0  0  0  0
   -3.2843   30.6370    8.7236 N   0  0  0  0  0  0  0  0  0  0  0  0
   -4.9478   24.3068    2.4538 O   0  0  0  0  0  0  0  0  0  0  0  0
   -5.7214   23.8404    1.4125 C   0  0  0  0  0  0  0  0  0  0  0  0
   -6.2461   24.7813    0.5361 C   0  0  0  0  0  0  0  0  0  0  0  0
   -7.0151   24.4435   -0.5288 N   0  0  0  0  0  0  0  0  0  0  0  0
   -7.2338   23.1181   -0.6765 C   0  0  0  0  0  0  0  0  0  0  0  0
   -6.7086   22.1781    0.1964 C   0  0  0  0  0  0  0  0  0  0  0  0
   -5.9400   22.5153    1.2590 N   0  0  0  0  0  0  0  0  0  0  0  0
  7  8  1  0  0  0
  8  9  2  0  0  0
  9 10  1  0  0  0
 10 11  2  0  0  0
 10 12  1  0  0  0
 12 13  1  0  0  0
 13 14  2  0  0  0
 14  1  1  0  0  0
  1  2  1  0  0  0
  2  3  1  0  0  0
  3  4  1  0  0  0
  4 18  1  0  0  0
 18 19  1  0  0  0
 19 20  2  0  0  0
 20 21  1  0  0  0
 21 22  2  0  0  0
 22 23  1  0  0  0
 23 24  2  0  0  0
  4  5  1  0  0  0
  5  6  1  0  0  0
 14 15  1  0  0  0
 15 16  1  0  0  0
 16 17  2  0  0  0
 17  8  1  0  0  0
 16 12  1  0  0  0
  6  1  1  0  0  0
 24 19  1  0  0  0
M  END
> <minimizedAffinity>
-8.95307

$$$$
OCNT-2310378


 29 32  0  0  0  0  0  0  0  0999 V2000
   -5.3785   30.0051    7.5237 O   0  0  0  0  0  0  0  0  0  0  0  0
   -4.6124   30.2912    6.6150 C   0  0  0  0  0  0  0  0  0  0  0  0
   -3.3285   30.7342    6.7926 N   0  0  0  0  0  0  0  0  0  0  0  0
   -4.9303   30.2150    5.2845 N   0  0  0  0  0  0  0  0  0  0  0  0
   -2.9500   31.2984    6.0452 H   0  0  0  0  0  0  0  0  0  0  0  0
   -4.1465   29.9940    4.6885 H   0  0  0  0  0  0  0  0  0  0  0  0
   -2.7934   30.9572    8.1273 C   0  0  0  0  0  0  0  0  0  0  0  0
   -2.0234   29.7483    8.6636 C   0  0  0  0  0  0  0  0  0  0  0  0
   -1.6706   28.8038    7.5578 C   0  0  0  0  0  0  0  0  0  0  0  0
   -2.5013   27.9111    7.0521 N   0  0  0  0  0  0  0  0  0  0  0  0
   -1.8662   27.2098    6.0506 C   0  0  0  0  0  0  0  0  0  0  0  0
   -0.5605   27.5814    5.8062 C   0  0  0  0  0  0  0  0  0  0  0  0
    0.3240   26.9870    4.7637 C   0  0  0  0  0  0  0  0  0  0  0  0
   -0.2624   25.6491    4.2756 C   0  0  0  0  0  0  0  0  0  0  0  0
   -1.7808   25.7362    4.0328 C   0  0  0  0  0  0  0  0  0  0  0  0
   -2.5493   26.1066    5.3147 C   0  0  0  0  0  0  0  0  0  0  0  0
   -0.1004   28.8472    6.8435 S   0  0  0  0  0  0  0  0  0  0  0  0
   -6.2071   29.6583    4.9007 C   0  0  0  0  0  0  0  0  0  0  0  0
   -6.0542   28.2370    4.4500 C   0  0  0  0  0  0  0  0  0  0  0  0
   -5.7720   27.9107    3.1217 C   0  0  0  0  0  0  0  0  0  0  0  0
   -5.6676   26.5717    2.7396 C   0  0  0  0  0  0  0  0  0  0  0  0
   -5.8560   25.5849    3.7044 C   0  0  0  0  0  0  0  0  0  0  0  0
   -6.1392   25.8801    4.9997 N   0  0  0  0  0  0  0  0  0  0  0  0
   -6.2356   27.1858    5.3399 C   0  0  0  0  0  0  0  0  0  0  0  0
   -5.7645   24.2088    3.3576 N   0  0  0  0  0  0  0  0  0  0  0  0
   -5.5235   23.1210    4.1703 C   0  0  0  0  0  0  0  0  0  0  0  0
   -5.5301   22.0240    3.3395 C   0  0  0  0  0  0  0  0  0  0  0  0
   -5.7676   22.3931    2.0450 N   0  0  0  0  0  0  0  0  0  0  0  0
   -5.9060   23.7013    2.0845 C   0  0  0  0  0  0  0  0  0  0  0  0
  1  2  2  0  0  0
  2  3  1  0  0  0
  3  7  1  0  0  0
  7  8  1  0  0  0
  8  9  1  0  0  0
  9 10  2  0  0  0
 10 11  1  0  0  0
 11 12  2  0  0  0
 12 13  1  0  0  0
 13 14  1  0  0  0
 14 15  1  0  0  0
 15 16  1  0  0  0
 12 17  1  0  0  0
  2  4  1  0  0  0
  4 18  1  0  0  0
 18 19  1  0  0  0
 19 20  2  0  0  0
 20 21  1  0  0  0
 21 22  2  0  0  0
 22 25  1  0  0  0
 25 26  1  0  0  0
 26 27  2  0  0  0
 27 28  1  0  0  0
 28 29  2  0  0  0
 22 23  1  0  0  0
 23 24  2  0  0  0
 17  9  1  0  0  0
 24 19  1  0  0  0
 16 11  1  0  0  0
 29 25  1  0  0  0
  3  5  1  0  0  0
  4  6  1  0  0  0
M  END
> <minimizedAffinity>
-8.89892

$$$$
OCNT-2310397


 24 25  0  0  0  0  0  0  0  0999 V2000
   -4.5581   31.0313    6.4361 N   0  0  0  0  0  0  0  0  0  0  0  0
   -5.6097   30.1424    6.5103 C   0  0  0  0  0  0  0  0  0  0  0  0
   -6.4232   30.1161    7.4252 O   0  0  0  0  0  0  0  0  0  0  0  0
   -4.0526   31.1321    5.5675 H   0  0  0  0  0  0  0  0  0  0  0  0
   -5.7571   29.1933    5.3733 C   0  0  0  0  0  0  0  0  0  0  0  0
   -5.8650   29.6337    4.0466 C   0  0  0  0  0  0  0  0  0  0  0  0
   -5.9910   28.7030    3.0126 C   0  0  0  0  0  0  0  0  0  0  0  0
   -6.0010   27.3404    3.3039 C   0  0  0  0  0  0  0  0  0  0  0  0
   -6.1245   26.4702    2.2918 F   0  0  0  0  0  0  0  0  0  0  0  0
   -5.8792   26.8877    4.6158 C   0  0  0  0  0  0  0  0  0  0  0  0
   -5.7522   27.8177    5.6536 C   0  0  0  0  0  0  0  0  0  0  0  0
   -5.8859   25.4857    4.8967 C   0  0  0  0  0  0  0  0  0  0  0  0
   -5.8853   24.3525    5.1473 N   0  0  0  0  0  0  0  0  0  0  0  0
   -4.3618   32.0584    7.4457 C   0  0  0  0  0  0  0  0  0  0  0  0
   -2.9541   32.0110    8.0325 C   0  0  0  0  0  0  0  0  0  0  0  0
   -2.0595   30.9262    7.4177 C   0  0  0  0  0  0  0  0  0  0  0  0
    0.7586   29.4956    6.3573 C   0  0  0  0  0  0  0  0  0  0  0  0
    0.2969   28.6750    7.5584 C   0  0  0  0  0  0  0  0  0  0  0  0
   -0.4771   29.4811    8.6294 C   0  0  0  0  0  0  0  0  0  0  0  0
   -1.8882   29.7901    8.3241 N   0  0  0  0  0  0  0  0  0  0  0  0
   -2.5464   28.5529    7.8578 C   0  0  0  0  0  0  0  0  0  0  0  0
   -1.7823   27.8184    6.7345 C   0  0  0  0  0  0  0  0  0  0  0  0
   -2.4634   26.4974    6.3959 C   0  0  0  0  0  0  0  0  0  0  0  0
   -0.4369   27.5158    7.1316 O   0  0  0  0  0  0  0  0  0  0  0  0
 17 18  1  0  0  0
 18 19  1  0  0  0
 19 20  1  0  0  0
 20 16  1  0  0  0
 16 15  1  0  0  0
 15 14  1  0  0  0
 14  1  1  0  0  0
  1  2  1  0  0  0
  2  3  2  0  0  0
  2  5  1  0  0  0
  5  6  1  0  0  0
  6  7  2  0  0  0
  7  8  1  0  0  0
  8  9  1  0  0  0
  8 10  2  0  0  0
 10 12  1  0  0  0
 12 13  3  0  0  0
 10 11  1  0  0  0
 20 21  1  0  0  0
 21 22  1  0  0  0
 22 23  1  0  0  0
 22 24  1  0  0  0
 24 18  1  0  0  0
 11  5  2  0  0  0
  1  4  1  0  0  0
M  END
> <minimizedAffinity>
-8.19861

$$$$
OCNT-2310398


 23 25  0  0  0  0  0  0  0  0999 V2000
   -6.7587   21.3709    3.8105 N   0  0  0  0  0  0  0  0  0  0  0  0
   -6.6668   22.3701    4.9183 C   0  0  0  0  0  0  0  0  0  0  0  0
   -7.7079   23.4725    4.7780 C   0  0  0  0  0  0  0  0  0  0  0  0
   -9.1411   22.9150    4.7756 C   0  0  0  0  0  0  0  0  0  0  0  0
   -9.1911   21.4760    4.2388 C   0  0  0  0  0  0  0  0  0  0  0  0
   -8.1077   21.2587    3.1914 C   0  0  0  0  0  0  0  0  0  0  0  0
   -9.8094   23.0328    6.1144 C   0  0  0  0  0  0  0  0  0  0  0  0
  -10.1651   24.1691    6.8149 C   0  0  0  0  0  0  0  0  0  0  0  0
  -10.7432   23.7435    7.9754 N   0  0  0  0  0  0  0  0  0  0  0  0
  -11.2770   24.5644    9.0345 C   0  0  0  0  0  0  0  0  0  0  0  0
  -10.7912   22.4056    8.0869 N   0  0  0  0  0  0  0  0  0  0  0  0
  -10.2266   21.9747    6.9576 C   0  0  0  0  0  0  0  0  0  0  0  0
   -5.4411   21.4176    2.7143 S   0  0  0  0  0  0  0  0  0  0  0  0
   -4.2748   20.9353    3.4174 O   0  0  0  0  0  0  0  0  0  0  0  0
   -5.8711   20.7571    1.4968 O   0  0  0  0  0  0  0  0  0  0  0  0
   -3.0808   25.9643    3.6614 C   0  0  0  0  0  0  0  0  0  0  0  0
   -4.1447   25.2354    2.8949 C   0  0  0  0  0  0  0  0  0  0  0  0
   -4.9336   25.9048    1.9603 C   0  0  0  0  0  0  0  0  0  0  0  0
   -5.9031   25.2112    1.2322 C   0  0  0  0  0  0  0  0  0  0  0  0
   -6.0999   23.8332    1.4139 C   0  0  0  0  0  0  0  0  0  0  0  0
   -7.4296   23.0625    0.3023 Br  0  0  0  0  0  0  0  0  0  0  0  0
   -5.3030   23.1508    2.3356 C   0  0  0  0  0  0  0  0  0  0  0  0
   -4.3280   23.8587    3.0689 C   0  0  0  0  0  0  0  0  0  0  0  0
 16 17  1  0  0  0
 17 18  1  0  0  0
 18 19  2  0  0  0
 19 20  1  0  0  0
 20 21  1  0  0  0
 20 22  2  0  0  0
 22 13  1  0  0  0
 13 14  2  0  0  0
 13 15  2  0  0  0
 13  1  1  0  0  0
  1  2  1  0  0  0
  2  3  1  0  0  0
  3  4  1  0  0  0
  4  7  1  0  0  0
  7  8  2  0  0  0
  8  9  1  0  0  0
  9 10  1  0  0  0
  9 11  1  0  0  0
 11 12  2  0  0  0
  4  5  1  0  0  0
  5  6  1  0  0  0
 22 23  1  0  0  0
 23 17  2  0  0  0
  6  1  1  0  0  0
 12  7  1  0  0  0
M  END
> <minimizedAffinity>
-8.67527

$$$$
OCNT-2310401


 27 30  0  0  0  0  0  0  0  0999 V2000
   -4.8449   27.0228    4.4854 N   0  0  0  0  0  0  0  0  0  0  0  0
   -4.1458   26.6623    3.2333 C   0  0  0  0  0  0  0  0  0  0  0  0
   -3.5327   25.2438    3.2606 C   0  0  0  0  0  0  0  0  0  0  0  0
   -4.5030   24.1678    3.5304 N   0  0  0  0  0  0  0  0  0  0  0  0
   -5.7735   24.6819    4.0628 C   0  0  0  0  0  0  0  0  0  0  0  0
   -5.5645   25.8538    5.0482 C   0  0  0  0  0  0  0  0  0  0  0  0
   -4.7053   23.1924    2.4590 C   0  0  0  0  0  0  0  0  0  0  0  0
   -5.2700   21.8105    2.8701 C   0  0  0  0  0  0  0  0  0  0  0  0
   -5.9336   21.2309    1.6112 C   0  0  0  0  0  0  0  0  0  0  0  0
   -6.3921   22.4773    0.9184 C   0  0  0  0  0  0  0  0  0  0  0  0
   -7.3260   22.5888   -0.1000 C   0  0  0  0  0  0  0  0  0  0  0  0
   -7.5675   23.8547   -0.6375 C   0  0  0  0  0  0  0  0  0  0  0  0
   -6.8661   24.9685   -0.1616 C   0  0  0  0  0  0  0  0  0  0  0  0
   -7.1094   26.1709   -0.7004 F   0  0  0  0  0  0  0  0  0  0  0  0
   -5.9185   24.8546    0.8510 C   0  0  0  0  0  0  0  0  0  0  0  0
   -5.6964   23.5990    1.3955 C   0  0  0  0  0  0  0  0  0  0  0  0
   -5.7505   28.1718    4.2435 C   0  0  0  0  0  0  0  0  0  0  0  0
   -4.3435   29.4630    5.7382 N   0  0  0  0  0  0  0  0  0  0  0  0
   -5.6421   29.2236    5.3567 C   0  0  0  0  0  0  0  0  0  0  0  0
   -6.6394   29.7960    5.7899 O   0  0  0  0  0  0  0  0  0  0  0  0
   -3.6212   28.8840    5.3220 H   0  0  0  0  0  0  0  0  0  0  0  0
   -2.7671   31.8610    9.8315 C   0  0  0  0  0  0  0  0  0  0  0  0
   -3.2340   31.3602    8.5281 C   0  0  0  0  0  0  0  0  0  0  0  0
   -3.5566   30.1209    8.0349 C   0  0  0  0  0  0  0  0  0  0  0  0
   -3.9303   30.3573    6.6939 C   0  0  0  0  0  0  0  0  0  0  0  0
   -3.8411   31.6588    6.3965 N   0  0  0  0  0  0  0  0  0  0  0  0
   -3.4025   32.2857    7.5479 O   0  0  0  0  0  0  0  0  0  0  0  0
 22 23  1  0  0  0
 23 24  2  0  0  0
 24 25  1  0  0  0
 25 18  1  0  0  0
 18 19  1  0  0  0
 19 20  2  0  0  0
 19 17  1  0  0  0
 17  1  1  0  0  0
  1  2  1  0  0  0
  2  3  1  0  0  0
  3  4  1  0  0  0
  4  7  1  0  0  0
  7  8  1  0  0  0
  8  9  1  0  0  0
  9 10  1  0  0  0
 10 11  1  0  0  0
 11 12  2  0  0  0
 12 13  1  0  0  0
 13 14  1  0  0  0
 13 15  2  0  0  0
 15 16  1  0  0  0
  4  5  1  0  0  0
  5  6  1  0  0  0
 25 26  2  0  0  0
 26 27  1  0  0  0
 27 23  1  0  0  0
  6  1  1  0  0  0
 16  7  1  0  0  0
 16 10  2  0  0  0
 18 21  1  0  0  0
M  END
> <minimizedAffinity>
-10.41601

$$$$
OCNT-2310404


 29 31  0  0  0  0  0  0  0  0999 V2000
   -6.0138   31.1038    7.5469 C   0  0  0  0  0  0  0  0  0  0  0  0
   -7.1569   31.1765    7.9902 O   0  0  0  0  0  0  0  0  0  0  0  0
   -5.6947   30.4217    6.3871 N   0  0  0  0  0  0  0  0  0  0  0  0
   -4.7087   30.3146    6.1725 H   0  0  0  0  0  0  0  0  0  0  0  0
   -6.7046   29.6480    5.6354 C   0  0  0  0  0  0  0  0  0  0  0  0
   -6.7246   28.1429    5.9790 C   0  0  0  0  0  0  0  0  0  0  0  0
   -5.7226   27.9107    4.8117 C   0  0  0  0  0  0  0  0  0  0  0  0
   -6.2642   29.2406    4.2123 C   0  0  0  0  0  0  0  0  0  0  0  0
   -5.8357   26.5791    3.9570 C   0  0  0  0  0  0  0  0  0  0  0  0
   -6.1008   25.3298    4.5548 C   0  0  0  0  0  0  0  0  0  0  0  0
   -6.1913   24.1507    3.8057 C   0  0  0  0  0  0  0  0  0  0  0  0
   -6.0077   24.1931    2.4288 C   0  0  0  0  0  0  0  0  0  0  0  0
   -6.1115   22.7478    1.5042 Cl  0  0  0  0  0  0  0  0  0  0  0  0
   -5.7366   25.4024    1.7997 C   0  0  0  0  0  0  0  0  0  0  0  0
   -5.6495   26.5754    2.5591 C   0  0  0  0  0  0  0  0  0  0  0  0
   -4.8417   31.8105    8.2089 C   0  0  0  0  0  0  0  0  0  0  0  0
   -1.0533   29.8933    7.4825 C   0  0  0  0  0  0  0  0  0  0  0  0
   -1.4786   30.9244    6.6405 C   0  0  0  0  0  0  0  0  0  0  0  0
   -2.7043   31.5474    6.8785 C   0  0  0  0  0  0  0  0  0  0  0  0
   -3.5078   31.1435    7.9559 C   0  0  0  0  0  0  0  0  0  0  0  0
   -3.0562   30.1184    8.8033 C   0  0  0  0  0  0  0  0  0  0  0  0
   -1.8328   29.4899    8.5674 C   0  0  0  0  0  0  0  0  0  0  0  0
    0.5011   29.1047    7.1593 S   0  0  0  0  0  0  0  0  0  0  0  0
    1.3354   29.2238    8.3357 O   0  0  0  0  0  0  0  0  0  0  0  0
    0.9435   29.5229    5.8490 O   0  0  0  0  0  0  0  0  0  0  0  0
    0.0357   27.4679    7.1099 N   0  0  0  0  0  0  0  0  0  0  0  0
    0.9024   26.9251    7.1372 H   0  0  0  0  0  0  0  0  0  0  0  0
   -2.0687   26.4191    6.3934 C   0  0  0  0  0  0  0  0  0  0  0  0
   -0.7790   27.0730    5.9362 C   0  0  0  0  0  0  0  0  0  0  0  0
 28 29  1  0  0  0
 29 26  1  0  0  0
 26 23  1  0  0  0
 23 24  2  0  0  0
 23 25  2  0  0  0
 23 17  1  0  0  0
 17 18  1  0  0  0
 18 19  2  0  0  0
 19 20  1  0  0  0
 20 16  1  0  0  0
 16  1  1  0  0  0
  1  2  2  0  0  0
  1  3  1  0  0  0
  3  5  1  0  0  0
  5  6  1  0  0  0
  6  7  1  0  0  0
  7  9  1  0  0  0
  9 10  1  0  0  0
 10 11  2  0  0  0
 11 12  1  0  0  0
 12 13  1  0  0  0
 12 14  2  0  0  0
 14 15  1  0  0  0
  7  8  1  0  0  0
 20 21  2  0  0  0
 21 22  1  0  0  0
 22 17  2  0  0  0
  8  5  1  0  0  0
 15  9  2  0  0  0
 26 27  1  0  0  0
  3  4  1  0  0  0
M  END
> <minimizedAffinity>
-10.10795

$$$$
OCNT-2310417


 29 32  0  0  0  0  0  0  0  0999 V2000
   -3.3301   25.9064    4.8819 C   0  0  0  0  0  0  0  0  0  0  0  0
   -2.5815   26.3621    4.0260 O   0  0  0  0  0  0  0  0  0  0  0  0
   -3.1903   26.1652    6.2280 N   0  0  0  0  0  0  0  0  0  0  0  0
   -3.8650   25.8141    6.8917 H   0  0  0  0  0  0  0  0  0  0  0  0
   -7.0138   22.6722    5.9917 C   0  0  0  0  0  0  0  0  0  0  0  0
   -6.2410   23.4801    4.9871 C   0  0  0  0  0  0  0  0  0  0  0  0
   -5.1897   24.2855    5.4260 C   0  0  0  0  0  0  0  0  0  0  0  0
   -4.4638   25.0381    4.4928 C   0  0  0  0  0  0  0  0  0  0  0  0
   -4.8197   24.9180    3.1414 C   0  0  0  0  0  0  0  0  0  0  0  0
   -4.4001   25.4254    1.8924 C   0  0  0  0  0  0  0  0  0  0  0  0
   -5.1356   24.9723    0.8714 N   0  0  0  0  0  0  0  0  0  0  0  0
   -6.0330   24.1514    1.4699 N   0  0  0  0  0  0  0  0  0  0  0  0
   -5.8868   24.0884    2.8330 C   0  0  0  0  0  0  0  0  0  0  0  0
   -6.6268   23.3638    3.6963 N   0  0  0  0  0  0  0  0  0  0  0  0
   -7.0191   23.4321    0.6725 C   0  0  0  0  0  0  0  0  0  0  0  0
   -7.5821   24.3068   -0.4471 C   0  0  0  0  0  0  0  0  0  0  0  0
   -6.4433   22.1270    0.1242 C   0  0  0  0  0  0  0  0  0  0  0  0
   -2.0768   26.9329    6.7421 C   0  0  0  0  0  0  0  0  0  0  0  0
   -2.5228   28.3022    7.1639 C   0  0  0  0  0  0  0  0  0  0  0  0
   -1.9464   28.9480    8.2599 C   0  0  0  0  0  0  0  0  0  0  0  0
   -2.3952   30.2114    8.6457 C   0  0  0  0  0  0  0  0  0  0  0  0
   -3.4253   30.8020    7.9197 C   0  0  0  0  0  0  0  0  0  0  0  0
   -4.0046   30.1904    6.8523 N   0  0  0  0  0  0  0  0  0  0  0  0
   -3.5439   28.9684    6.5018 C   0  0  0  0  0  0  0  0  0  0  0  0
   -3.9204   32.0868    8.2790 N   0  0  0  0  0  0  0  0  0  0  0  0
   -4.6814   32.9088    7.4736 C   0  0  0  0  0  0  0  0  0  0  0  0
   -4.9388   34.0355    8.2154 C   0  0  0  0  0  0  0  0  0  0  0  0
   -4.3648   33.9414    9.4527 N   0  0  0  0  0  0  0  0  0  0  0  0
   -3.7622   32.7712    9.4624 C   0  0  0  0  0  0  0  0  0  0  0  0
  5  6  1  0  0  0
  6  7  1  0  0  0
  7  8  2  0  0  0
  8  1  1  0  0  0
  1  2  2  0  0  0
  1  3  1  0  0  0
  3 18  1  0  0  0
 18 19  1  0  0  0
 19 20  2  0  0  0
 20 21  1  0  0  0
 21 22  2  0  0  0
 22 25  1  0  0  0
 25 26  1  0  0  0
 26 27  2  0  0  0
 27 28  1  0  0  0
 28 29  2  0  0  0
 22 23  1  0  0  0
 23 24  2  0  0  0
  8  9  1  0  0  0
  9 10  1  0  0  0
 10 11  2  0  0  0
 11 12  1  0  0  0
 12 15  1  0  0  0
 15 16  1  0  0  0
 15 17  1  0  0  0
 12 13  1  0  0  0
 13 14  1  0  0  0
 14  6  2  0  0  0
 24 19  1  0  0  0
 13  9  2  0  0  0
 29 25  1  0  0  0
  3  4  1  0  0  0
M  END
> <minimizedAffinity>
-9.34290

$$$$
OCNT-2310418


 32 35  0  0  0  0  0  0  0  0999 V2000
   -1.6107   29.0252    7.8969 O   0  0  0  0  0  0  0  0  0  0  0  0
   -2.3522   29.2012    6.9375 C   0  0  0  0  0  0  0  0  0  0  0  0
   -2.7923   30.4410    6.5177 N   0  0  0  0  0  0  0  0  0  0  0  0
   -3.5116   30.4893    5.8101 H   0  0  0  0  0  0  0  0  0  0  0  0
   -2.8597   28.0382    6.1641 C   0  0  0  0  0  0  0  0  0  0  0  0
   -1.9575   27.0408    5.7862 C   0  0  0  0  0  0  0  0  0  0  0  0
   -2.3971   25.9283    5.0583 C   0  0  0  0  0  0  0  0  0  0  0  0
   -3.7382   25.8079    4.6890 C   0  0  0  0  0  0  0  0  0  0  0  0
   -4.6366   26.8180    5.0619 C   0  0  0  0  0  0  0  0  0  0  0  0
   -4.2030   27.9301    5.7926 C   0  0  0  0  0  0  0  0  0  0  0  0
   -4.2614   24.7202    3.9593 N   0  0  0  0  0  0  0  0  0  0  0  0
   -4.6903   24.7208    2.6437 C   0  0  0  0  0  0  0  0  0  0  0  0
   -4.7525   25.6835    1.8897 O   0  0  0  0  0  0  0  0  0  0  0  0
   -4.4026   23.8665    4.4828 H   0  0  0  0  0  0  0  0  0  0  0  0
   -5.1575   23.3982    2.1402 C   0  0  0  0  0  0  0  0  0  0  0  0
   -5.0749   22.2912    2.9935 C   0  0  0  0  0  0  0  0  0  0  0  0
   -5.5005   21.0366    2.5553 C   0  0  0  0  0  0  0  0  0  0  0  0
   -6.0196   20.8865    1.2694 C   0  0  0  0  0  0  0  0  0  0  0  0
   -6.1230   21.9903    0.4222 C   0  0  0  0  0  0  0  0  0  0  0  0
   -5.6971   23.2479    0.8555 C   0  0  0  0  0  0  0  0  0  0  0  0
   -2.5075   31.6460    7.2800 C   0  0  0  0  0  0  0  0  0  0  0  0
   -3.7445   32.1930    8.0495 C   0  0  0  0  0  0  0  0  0  0  0  0
   -4.3440   33.4006    7.2840 C   0  0  0  0  0  0  0  0  0  0  0  0
   -5.0325   34.2707    8.3376 C   0  0  0  0  0  0  0  0  0  0  0  0
   -4.4211   33.8741    9.6785 C   0  0  0  0  0  0  0  0  0  0  0  0
   -3.2864   32.9104    9.3432 C   0  0  0  0  0  0  0  0  0  0  0  0
   -4.7363   31.0673    8.3925 C   0  0  0  0  0  0  0  0  0  0  0  0
   -5.8524   30.7538    7.6068 C   0  0  0  0  0  0  0  0  0  0  0  0
   -6.6897   29.7124    7.9908 C   0  0  0  0  0  0  0  0  0  0  0  0
   -6.5011   28.9565    9.0892 N   0  0  0  0  0  0  0  0  0  0  0  0
   -5.4191   29.2532    9.8349 C   0  0  0  0  0  0  0  0  0  0  0  0
   -4.5335   30.2800    9.5379 C   0  0  0  0  0  0  0  0  0  0  0  0
  1  2  2  0  0  0
  2  3  1  0  0  0
  3 21  1  0  0  0
 21 22  1  0  0  0
 22 27  1  0  0  0
 27 28  2  0  0  0
 28 29  1  0  0  0
 29 30  2  0  0  0
 30 31  1  0  0  0
 31 32  2  0  0  0
 22 23  1  0  0  0
 23 24  1  0  0  0
 24 25  1  0  0  0
 25 26  1  0  0  0
  2  5  1  0  0  0
  5  6  1  0  0  0
  6  7  2  0  0  0
  7  8  1  0  0  0
  8 11  1  0  0  0
 11 12  1  0  0  0
 12 13  2  0  0  0
 12 15  1  0  0  0
 15 16  2  0  0  0
 16 17  1  0  0  0
 17 18  2  0  0  0
 18 19  1  0  0  0
 19 20  2  0  0  0
  8  9  2  0  0  0
  9 10  1  0  0  0
 26 22  1  0  0  0
 10  5  2  0  0  0
 32 27  1  0  0  0
 20 15  1  0  0  0
  3  4  1  0  0  0
 11 14  1  0  0  0
M  END
> <minimizedAffinity>
-10.08169

$$$$
OCNT-2310433


 25 28  0  0  0  0  0  0  0  0999 V2000
   -3.0765   26.2095    3.9407 C   0  0  0  0  0  0  0  0  0  0  0  0
   -4.1140   25.2423    3.3728 C   0  0  0  0  0  0  0  0  0  0  0  0
   -4.4468   25.5271    1.8989 C   0  0  0  0  0  0  0  0  0  0  0  0
   -5.7168   24.9953    1.4861 O   0  0  0  0  0  0  0  0  0  0  0  0
   -5.7672   23.6311    1.5931 C   0  0  0  0  0  0  0  0  0  0  0  0
   -5.8196   22.9178    0.3932 C   0  0  0  0  0  0  0  0  0  0  0  0
   -5.9028   21.5276    0.4097 C   0  0  0  0  0  0  0  0  0  0  0  0
   -5.9535   20.8521    1.6259 C   0  0  0  0  0  0  0  0  0  0  0  0
   -5.9274   21.5680    2.8252 C   0  0  0  0  0  0  0  0  0  0  0  0
   -5.8330   22.9719    2.8308 C   0  0  0  0  0  0  0  0  0  0  0  0
   -5.8698   23.6801    4.1730 C   0  0  0  0  0  0  0  0  0  0  0  0
   -5.3326   25.0421    4.1857 N   0  0  0  0  0  0  0  0  0  0  0  0
   -6.0883   25.9892    4.8675 C   0  0  0  0  0  0  0  0  0  0  0  0
   -6.9596   25.7064    5.6878 O   0  0  0  0  0  0  0  0  0  0  0  0
   -5.8786   27.4217    4.6245 C   0  0  0  0  0  0  0  0  0  0  0  0
   -6.1719   27.9613    3.3775 C   0  0  0  0  0  0  0  0  0  0  0  0
   -6.0004   29.3199    3.2229 C   0  0  0  0  0  0  0  0  0  0  0  0
   -5.5799   30.1370    4.2139 N   0  0  0  0  0  0  0  0  0  0  0  0
   -5.3480   29.5934    5.4397 C   0  0  0  0  0  0  0  0  0  0  0  0
   -5.4949   28.2373    5.6897 C   0  0  0  0  0  0  0  0  0  0  0  0
   -4.9380   30.4764    6.4756 N   0  0  0  0  0  0  0  0  0  0  0  0
   -5.5273   30.7137    7.6983 C   0  0  0  0  0  0  0  0  0  0  0  0
   -4.7298   31.6441    8.3241 C   0  0  0  0  0  0  0  0  0  0  0  0
   -3.6700   31.9888    7.5341 N   0  0  0  0  0  0  0  0  0  0  0  0
   -3.8212   31.2816    6.4350 C   0  0  0  0  0  0  0  0  0  0  0  0
  1  2  1  0  0  0
  2  3  1  0  0  0
  3  4  1  0  0  0
  4  5  1  0  0  0
  5  6  2  0  0  0
  6  7  1  0  0  0
  7  8  2  0  0  0
  8  9  1  0  0  0
  9 10  2  0  0  0
 10 11  1  0  0  0
 11 12  1  0  0  0
 12 13  1  0  0  0
 13 14  2  0  0  0
 13 15  1  0  0  0
 15 16  2  0  0  0
 16 17  1  0  0  0
 17 18  2  0  0  0
 18 19  1  0  0  0
 19 21  1  0  0  0
 21 22  1  0  0  0
 22 23  2  0  0  0
 23 24  1  0  0  0
 24 25  2  0  0  0
 19 20  2  0  0  0
 12  2  1  0  0  0
 20 15  1  0  0  0
 10  5  1  0  0  0
 25 21  1  0  0  0
M  END
> <minimizedAffinity>
-8.84563

$$$$
OCNT-2310436


 22 23  0  0  0  0  0  0  0  0999 V2000
   -3.6131   33.0247    8.3612 N   0  0  0  0  0  0  0  0  0  0  0  0
   -3.3052   33.9920    8.4388 H   0  0  0  0  0  0  0  0  0  0  0  0
   -2.5365   32.1474    8.2070 C   0  0  0  0  0  0  0  0  0  0  0  0
   -2.3159   31.5799    6.9439 C   0  0  0  0  0  0  0  0  0  0  0  0
   -1.2990   30.6428    6.7297 C   0  0  0  0  0  0  0  0  0  0  0  0
   -0.4908   30.2184    7.7900 C   0  0  0  0  0  0  0  0  0  0  0  0
   -0.7240   30.7557    9.0618 C   0  0  0  0  0  0  0  0  0  0  0  0
   -1.7450   31.6931    9.2670 C   0  0  0  0  0  0  0  0  0  0  0  0
    0.6210   29.2250    7.5645 C   0  0  0  0  0  0  0  0  0  0  0  0
    1.6179   29.3183    8.4889 F   0  0  0  0  0  0  0  0  0  0  0  0
    1.2203   29.3860    6.3524 F   0  0  0  0  0  0  0  0  0  0  0  0
    0.1999   27.9296    7.6038 F   0  0  0  0  0  0  0  0  0  0  0  0
   -4.6828   32.7032    9.2945 C   0  0  0  0  0  0  0  0  0  0  0  0
   -6.4646   29.9329    7.3756 C   0  0  0  0  0  0  0  0  0  0  0  0
   -6.3334   28.9205    8.3169 C   0  0  0  0  0  0  0  0  0  0  0  0
   -5.7133   29.0689    9.5131 N   0  0  0  0  0  0  0  0  0  0  0  0
   -5.1990   30.2895    9.7837 C   0  0  0  0  0  0  0  0  0  0  0  0
   -5.2851   31.3777    8.9227 C   0  0  0  0  0  0  0  0  0  0  0  0
   -5.9252   31.1780    7.6946 C   0  0  0  0  0  0  0  0  0  0  0  0
   -7.0692   29.8516    6.1550 O   0  0  0  0  0  0  0  0  0  0  0  0
   -6.1738   29.6791    3.9532 C   0  0  0  0  0  0  0  0  0  0  0  0
   -6.5139   28.9223    5.2245 C   0  0  0  0  0  0  0  0  0  0  0  0
 21 22  1  0  0  0
 22 20  1  0  0  0
 20 14  1  0  0  0
 14 15  1  0  0  0
 15 16  2  0  0  0
 16 17  1  0  0  0
 17 18  2  0  0  0
 18 13  1  0  0  0
 13  1  1  0  0  0
  1  3  1  0  0  0
  3  4  1  0  0  0
  4  5  2  0  0  0
  5  6  1  0  0  0
  6  9  1  0  0  0
  9 10  1  0  0  0
  9 11  1  0  0  0
  9 12  1  0  0  0
  6  7  2  0  0  0
  7  8  1  0  0  0
 18 19  1  0  0  0
 19 14  2  0  0  0
  8  3  2  0  0  0
  1  2  1  0  0  0
M  END
> <minimizedAffinity>
-8.32237

$$$$
OCNT-2310437


 25 27  0  0  0  0  0  0  0  0999 V2000
   -5.7940   28.3557    5.0407 C   0  0  0  0  0  0  0  0  0  0  0  0
   -5.8783   27.0370    4.3183 C   0  0  0  0  0  0  0  0  0  0  0  0
   -6.1568   25.8584    5.0191 C   0  0  0  0  0  0  0  0  0  0  0  0
   -6.2117   24.6248    4.3579 C   0  0  0  0  0  0  0  0  0  0  0  0
   -5.9804   24.5418    2.9751 C   0  0  0  0  0  0  0  0  0  0  0  0
   -5.6906   25.7245    2.2847 C   0  0  0  0  0  0  0  0  0  0  0  0
   -5.4511   25.7399    0.9673 F   0  0  0  0  0  0  0  0  0  0  0  0
   -5.6356   26.9547    2.9441 C   0  0  0  0  0  0  0  0  0  0  0  0
   -6.0391   23.2812    2.3112 N   0  0  0  0  0  0  0  0  0  0  0  0
   -5.5292   22.0792    2.7661 C   0  0  0  0  0  0  0  0  0  0  0  0
   -5.8183   21.1427    1.8031 C   0  0  0  0  0  0  0  0  0  0  0  0
   -6.4886   21.7121    0.7643 N   0  0  0  0  0  0  0  0  0  0  0  0
   -6.6074   22.9820    1.0896 C   0  0  0  0  0  0  0  0  0  0  0  0
   -4.3870   30.4290    6.3825 O   0  0  0  0  0  0  0  0  0  0  0  0
   -4.4122   29.2976    6.8603 C   0  0  0  0  0  0  0  0  0  0  0  0
   -5.0327   28.2267    6.2571 N   0  0  0  0  0  0  0  0  0  0  0  0
   -5.1181   27.3655    6.7960 H   0  0  0  0  0  0  0  0  0  0  0  0
   -3.7775   28.9700    8.2159 C   0  0  0  0  0  0  0  0  0  0  0  0
   -2.3674   29.3529    8.2884 N   0  0  0  0  0  0  0  0  0  0  0  0
   -1.3688   28.3208    8.0225 C   0  0  0  0  0  0  0  0  0  0  0  0
    0.0099   28.9206    7.7625 C   0  0  0  0  0  0  0  0  0  0  0  0
    0.4047   29.6986    8.8932 O   0  0  0  0  0  0  0  0  0  0  0  0
   -0.4996   30.7767    9.0976 C   0  0  0  0  0  0  0  0  0  0  0  0
   -2.0067   30.4591    9.0517 C   0  0  0  0  0  0  0  0  0  0  0  0
   -2.8393   31.1647    9.6227 O   0  0  0  0  0  0  0  0  0  0  0  0
 14 15  2  0  0  0
 15 18  1  0  0  0
 18 19  1  0  0  0
 19 20  1  0  0  0
 20 21  1  0  0  0
 21 22  1  0  0  0
 22 23  1  0  0  0
 23 24  1  0  0  0
 24 25  2  0  0  0
 15 16  1  0  0  0
 16  1  1  0  0  0
  1  2  1  0  0  0
  2  3  1  0  0  0
  3  4  2  0  0  0
  4  5  1  0  0  0
  5  9  1  0  0  0
  9 10  1  0  0  0
 10 11  2  0  0  0
 11 12  1  0  0  0
 12 13  2  0  0  0
  5  6  2  0  0  0
  6  7  1  0  0  0
  6  8  1  0  0  0
 24 19  1  0  0  0
  8  2  2  0  0  0
 13  9  1  0  0  0
 16 17  1  0  0  0
M  END
> <minimizedAffinity>
-8.73355

$$$$
OCNT-2310440


 33 36  0  0  0  0  0  0  0  0999 V2000
   -4.9708   24.4016    3.8325 C   0  0  0  0  0  0  0  0  0  0  0  0
   -4.5853   24.5742    2.4984 C   0  0  0  0  0  0  0  0  0  0  0  0
   -3.6929   25.5904    2.1663 C   0  0  0  0  0  0  0  0  0  0  0  0
   -3.1885   26.4286    3.1641 C   0  0  0  0  0  0  0  0  0  0  0  0
   -3.5686   26.2630    4.5038 C   0  0  0  0  0  0  0  0  0  0  0  0
   -4.4534   25.2350    4.8340 C   0  0  0  0  0  0  0  0  0  0  0  0
   -5.4618   22.2271    4.5850 O   0  0  0  0  0  0  0  0  0  0  0  0
   -5.8999   23.3111    4.2218 C   0  0  0  0  0  0  0  0  0  0  0  0
   -7.2402   23.6161    4.1474 N   0  0  0  0  0  0  0  0  0  0  0  0
   -7.5354   24.5399    3.8677 H   0  0  0  0  0  0  0  0  0  0  0  0
   -8.2630   22.6311    4.4114 C   0  0  0  0  0  0  0  0  0  0  0  0
   -8.8017   22.7951    5.8092 C   0  0  0  0  0  0  0  0  0  0  0  0
   -9.9168   23.5997    6.0643 C   0  0  0  0  0  0  0  0  0  0  0  0
  -10.4210   23.7291    7.3639 C   0  0  0  0  0  0  0  0  0  0  0  0
   -9.8199   23.0482    8.4330 C   0  0  0  0  0  0  0  0  0  0  0  0
   -8.7064   22.2361    8.1766 C   0  0  0  0  0  0  0  0  0  0  0  0
   -8.2062   22.1116    6.8761 C   0  0  0  0  0  0  0  0  0  0  0  0
  -10.3350   23.1782    9.7562 N   0  0  0  0  0  0  0  0  0  0  0  0
  -10.5367   22.1740   10.6813 C   0  0  0  0  0  0  0  0  0  0  0  0
  -11.0412   22.7811   11.8067 C   0  0  0  0  0  0  0  0  0  0  0  0
  -11.1615   24.1256   11.6182 N   0  0  0  0  0  0  0  0  0  0  0  0
  -10.7377   24.3358   10.3907 C   0  0  0  0  0  0  0  0  0  0  0  0
   -3.0042   27.1501    5.4451 N   0  0  0  0  0  0  0  0  0  0  0  0
   -1.7131   27.1280    5.9412 C   0  0  0  0  0  0  0  0  0  0  0  0
   -0.8611   26.2744    5.7305 O   0  0  0  0  0  0  0  0  0  0  0  0
   -3.6428   27.8153    5.8607 H   0  0  0  0  0  0  0  0  0  0  0  0
   -1.3786   28.2442    6.8712 C   0  0  0  0  0  0  0  0  0  0  0  0
   -0.0789   28.3113    7.3949 C   0  0  0  0  0  0  0  0  0  0  0  0
    0.2722   29.3431    8.2673 C   0  0  0  0  0  0  0  0  0  0  0  0
   -0.6719   30.3072    8.6022 C   0  0  0  0  0  0  0  0  0  0  0  0
   -0.3356   31.2975    9.4381 F   0  0  0  0  0  0  0  0  0  0  0  0
   -1.9594   30.2648    8.0759 C   0  0  0  0  0  0  0  0  0  0  0  0
   -2.3167   29.2340    7.2032 C   0  0  0  0  0  0  0  0  0  0  0  0
  7  8  2  0  0  0
  8  9  1  0  0  0
  9 11  1  0  0  0
 11 12  1  0  0  0
 12 13  1  0  0  0
 13 14  2  0  0  0
 14 15  1  0  0  0
 15 18  1  0  0  0
 18 19  1  0  0  0
 19 20  2  0  0  0
 20 21  1  0  0  0
 21 22  2  0  0  0
 15 16  2  0  0  0
 16 17  1  0  0  0
  8  1  1  0  0  0
  1  2  1  0  0  0
  2  3  2  0  0  0
  3  4  1  0  0  0
  4  5  2  0  0  0
  5 23  1  0  0  0
 23 24  1  0  0  0
 24 25  2  0  0  0
 24 27  1  0  0  0
 27 28  1  0  0  0
 28 29  2  0  0  0
 29 30  1  0  0  0
 30 31  1  0  0  0
 30 32  2  0  0  0
 32 33  1  0  0  0
  5  6  1  0  0  0
 17 12  2  0  0  0
  6  1  2  0  0  0
 22 18  1  0  0  0
 33 27  2  0  0  0
  9 10  1  0  0  0
 23 26  1  0  0  0
M  END
> <minimizedAffinity>
-9.68236

$$$$
OCNT-2310442


 28 31  0  0  0  0  0  0  0  0999 V2000
   -3.4921   31.0590    7.4978 C   0  0  0  0  0  0  0  0  0  0  0  0
   -5.4561   31.4693    9.0897 C   0  0  0  0  0  0  0  0  0  0  0  0
   -6.4338   31.0160    9.9849 C   0  0  0  0  0  0  0  0  0  0  0  0
   -6.4912   29.6693   10.3415 C   0  0  0  0  0  0  0  0  0  0  0  0
   -5.5813   28.7700    9.7961 C   0  0  0  0  0  0  0  0  0  0  0  0
   -4.6225   29.2150    8.8822 C   0  0  0  0  0  0  0  0  0  0  0  0
   -4.5470   30.5684    8.5000 C   0  0  0  0  0  0  0  0  0  0  0  0
   -4.5086   33.5692    9.4927 C   0  0  0  0  0  0  0  0  0  0  0  0
   -5.4054   32.7874    8.7059 O   0  0  0  0  0  0  0  0  0  0  0  0
   -2.2201   30.3102    7.6665 N   0  0  0  0  0  0  0  0  0  0  0  0
   -1.6600   30.4398    9.0186 C   0  0  0  0  0  0  0  0  0  0  0  0
   -0.1291   30.4741    9.0773 C   0  0  0  0  0  0  0  0  0  0  0  0
    0.4971   29.4278    8.1656 C   0  0  0  0  0  0  0  0  0  0  0  0
   -0.1051   29.4598    6.7603 C   0  0  0  0  0  0  0  0  0  0  0  0
   -1.2337   30.4849    6.6057 C   0  0  0  0  0  0  0  0  0  0  0  0
   -4.0745   31.1578    6.0392 C   0  0  0  0  0  0  0  0  0  0  0  0
   -4.4948   29.8607    5.4800 N   0  0  0  0  0  0  0  0  0  0  0  0
   -3.8109   29.5559    4.7851 H   0  0  0  0  0  0  0  0  0  0  0  0
   -5.8349   29.8992    4.8694 C   0  0  0  0  0  0  0  0  0  0  0  0
   -6.8316   29.2272    5.8565 C   0  0  0  0  0  0  0  0  0  0  0  0
   -6.5674   27.7220    6.0850 C   0  0  0  0  0  0  0  0  0  0  0  0
   -6.2545   27.0460    4.8001 C   0  0  0  0  0  0  0  0  0  0  0  0
   -5.9367   27.7243    3.6464 C   0  0  0  0  0  0  0  0  0  0  0  0
   -5.8832   29.2011    3.4734 C   0  0  0  0  0  0  0  0  0  0  0  0
   -5.6947   26.7837    2.6939 N   0  0  0  0  0  0  0  0  0  0  0  0
   -5.8225   25.5275    3.1610 N   0  0  0  0  0  0  0  0  0  0  0  0
   -6.1659   25.6903    4.4435 C   0  0  0  0  0  0  0  0  0  0  0  0
   -5.4337   26.9141    1.7217 H   0  0  0  0  0  0  0  0  0  0  0  0
  8  9  1  0  0  0
  9  2  1  0  0  0
  2  3  2  0  0  0
  3  4  1  0  0  0
  4  5  2  0  0  0
  5  6  1  0  0  0
  6  7  2  0  0  0
  7  1  1  0  0  0
  1 16  1  0  0  0
 16 17  1  0  0  0
 17 19  1  0  0  0
 19 20  1  0  0  0
 20 21  1  0  0  0
 21 22  1  0  0  0
 22 23  2  0  0  0
 23 24  1  0  0  0
 23 25  1  0  0  0
 25 26  1  0  0  0
 26 27  2  0  0  0
  1 10  1  0  0  0
 10 11  1  0  0  0
 11 12  1  0  0  0
 12 13  1  0  0  0
 13 14  1  0  0  0
 14 15  1  0  0  0
  7  2  1  0  0  0
 24 19  1  0  0  0
 15 10  1  0  0  0
 27 22  1  0  0  0
 17 18  1  0  0  0
 25 28  1  0  0  0
M  END
> <minimizedAffinity>
-9.32448

$$$$
OCNT-2310447


 22 24  0  0  0  0  0  0  0  0999 V2000
   -6.8879   30.0243    6.3001 C   0  0  0  0  0  0  0  0  0  0  0  0
   -6.4960   28.9490    5.3299 C   0  0  0  0  0  0  0  0  0  0  0  0
   -6.1967   29.2340    3.9964 C   0  0  0  0  0  0  0  0  0  0  0  0
   -5.8182   28.2063    3.1309 C   0  0  0  0  0  0  0  0  0  0  0  0
   -5.7423   26.9083    3.6282 C   0  0  0  0  0  0  0  0  0  0  0  0
   -6.0197   26.6095    4.9231 N   0  0  0  0  0  0  0  0  0  0  0  0
   -6.3805   27.6265    5.7395 C   0  0  0  0  0  0  0  0  0  0  0  0
   -5.3620   25.8319    2.7807 N   0  0  0  0  0  0  0  0  0  0  0  0
   -5.7889   25.5383    1.5036 C   0  0  0  0  0  0  0  0  0  0  0  0
   -5.1158   24.3956    1.1368 C   0  0  0  0  0  0  0  0  0  0  0  0
   -4.2898   23.9726    2.1388 N   0  0  0  0  0  0  0  0  0  0  0  0
   -4.4556   24.8473    3.1079 C   0  0  0  0  0  0  0  0  0  0  0  0
   -5.7486   30.9222    8.2996 C   0  0  0  0  0  0  0  0  0  0  0  0
   -6.7735   30.8820    8.9758 O   0  0  0  0  0  0  0  0  0  0  0  0
   -5.7347   30.5709    6.9668 N   0  0  0  0  0  0  0  0  0  0  0  0
   -4.8280   30.5363    6.5158 H   0  0  0  0  0  0  0  0  0  0  0  0
   -4.5930   33.8882    8.9351 C   0  0  0  0  0  0  0  0  0  0  0  0
   -3.9209   32.5748    9.0977 C   0  0  0  0  0  0  0  0  0  0  0  0
   -4.4522   31.3241    8.8125 C   0  0  0  0  0  0  0  0  0  0  0  0
   -3.5244   30.3532    9.0984 O   0  0  0  0  0  0  0  0  0  0  0  0
   -2.4140   30.9797    9.5593 C   0  0  0  0  0  0  0  0  0  0  0  0
   -2.6023   32.3398    9.5792 C   0  0  0  0  0  0  0  0  0  0  0  0
 17 18  1  0  0  0
 18 19  2  0  0  0
 19 13  1  0  0  0
 13 14  2  0  0  0
 13 15  1  0  0  0
 15  1  1  0  0  0
  1  2  1  0  0  0
  2  3  2  0  0  0
  3  4  1  0  0  0
  4  5  2  0  0  0
  5  8  1  0  0  0
  8  9  1  0  0  0
  9 10  2  0  0  0
 10 11  1  0  0  0
 11 12  2  0  0  0
  5  6  1  0  0  0
  6  7  2  0  0  0
 19 20  1  0  0  0
 20 21  1  0  0  0
 21 22  2  0  0  0
 22 18  1  0  0  0
  7  2  1  0  0  0
 12  8  1  0  0  0
 15 16  1  0  0  0
M  END
> <minimizedAffinity>
-8.38512

$$$$
OCNT-2310448


 29 32  0  0  0  0  0  0  0  0999 V2000
   -1.6387   26.5043    5.9131 C   0  0  0  0  0  0  0  0  0  0  0  0
   -2.2607   26.0591    6.8768 O   0  0  0  0  0  0  0  0  0  0  0  0
   -0.9293   27.6972    5.9024 N   0  0  0  0  0  0  0  0  0  0  0  0
   -0.5512   27.9931    5.0034 H   0  0  0  0  0  0  0  0  0  0  0  0
   -0.7870   28.6287    6.9533 C   0  0  0  0  0  0  0  0  0  0  0  0
    0.3469   28.7319    7.7588 C   0  0  0  0  0  0  0  0  0  0  0  0
    0.3995   29.6752    8.7878 C   0  0  0  0  0  0  0  0  0  0  0  0
   -0.6771   30.5317    9.0116 C   0  0  0  0  0  0  0  0  0  0  0  0
   -1.8147   30.4647    8.2006 C   0  0  0  0  0  0  0  0  0  0  0  0
   -1.8644   29.4993    7.1822 C   0  0  0  0  0  0  0  0  0  0  0  0
   -2.9275   31.3731    8.4562 C   0  0  0  0  0  0  0  0  0  0  0  0
   -2.9608   32.6636    8.1739 N   0  0  0  0  0  0  0  0  0  0  0  0
   -4.1870   33.1266    8.5794 N   0  0  0  0  0  0  0  0  0  0  0  0
   -4.9207   32.1460    9.0810 N   0  0  0  0  0  0  0  0  0  0  0  0
   -4.1519   31.0494    8.9859 N   0  0  0  0  0  0  0  0  0  0  0  0
   -4.6855   29.7675    9.3527 C   0  0  0  0  0  0  0  0  0  0  0  0
   -0.3206   26.0907    3.8164 C   0  0  0  0  0  0  0  0  0  0  0  0
   -1.5353   25.6712    4.6399 C   0  0  0  0  0  0  0  0  0  0  0  0
   -2.7630   25.7254    3.8692 N   0  0  0  0  0  0  0  0  0  0  0  0
   -3.5117   26.8446    3.8065 N   0  0  0  0  0  0  0  0  0  0  0  0
   -4.5070   26.5357    2.9902 N   0  0  0  0  0  0  0  0  0  0  0  0
   -4.2991   25.2385    2.5713 C   0  0  0  0  0  0  0  0  0  0  0  0
   -3.1849   24.7038    3.1045 N   0  0  0  0  0  0  0  0  0  0  0  0
   -5.1942   24.5495    1.6510 C   0  0  0  0  0  0  0  0  0  0  0  0
   -5.2901   23.1499    1.6661 C   0  0  0  0  0  0  0  0  0  0  0  0
   -6.1473   22.4858    0.7842 C   0  0  0  0  0  0  0  0  0  0  0  0
   -6.9171   23.2131   -0.1214 C   0  0  0  0  0  0  0  0  0  0  0  0
   -6.8318   24.6036   -0.1476 C   0  0  0  0  0  0  0  0  0  0  0  0
   -5.9751   25.2685    0.7336 C   0  0  0  0  0  0  0  0  0  0  0  0
 17 18  1  0  0  0
 18  1  1  0  0  0
  1  2  2  0  0  0
  1  3  1  0  0  0
  3  5  1  0  0  0
  5  6  2  0  0  0
  6  7  1  0  0  0
  7  8  2  0  0  0
  8  9  1  0  0  0
  9 11  1  0  0  0
 11 12  2  0  0  0
 12 13  1  0  0  0
 13 14  2  0  0  0
 14 15  1  0  0  0
 15 16  1  0  0  0
  9 10  2  0  0  0
 18 19  1  0  0  0
 19 20  1  0  0  0
 20 21  2  0  0  0
 21 22  1  0  0  0
 22 24  1  0  0  0
 24 25  2  0  0  0
 25 26  1  0  0  0
 26 27  2  0  0  0
 27 28  1  0  0  0
 28 29  2  0  0  0
 22 23  2  0  0  0
 10  5  1  0  0  0
 23 19  1  0  0  0
 15 11  1  0  0  0
 29 24  1  0  0  0
  3  4  1  0  0  0
M  END
> <minimizedAffinity>
-10.43042

$$$$
OCNT-2310450


 28 32  0  0  0  0  0  0  0  0999 V2000
   -3.3714   24.4109    1.2403 O   0  0  0  0  0  0  0  0  0  0  0  0
   -4.4441   24.7859    1.7043 C   0  0  0  0  0  0  0  0  0  0  0  0
   -4.5638   25.7154    2.7360 N   0  0  0  0  0  0  0  0  0  0  0  0
   -3.3391   26.3852    3.1767 C   0  0  0  0  0  0  0  0  0  0  0  0
   -3.4199   26.8974    4.6246 C   0  0  0  0  0  0  0  0  0  0  0  0
   -4.6467   27.6888    4.8478 N   0  0  0  0  0  0  0  0  0  0  0  0
   -5.8800   26.9780    4.4495 C   0  0  0  0  0  0  0  0  0  0  0  0
   -5.7952   26.4723    3.0006 C   0  0  0  0  0  0  0  0  0  0  0  0
   -5.6799   24.1986    1.1475 C   0  0  0  0  0  0  0  0  0  0  0  0
   -6.2338   24.8176    0.0175 C   0  0  0  0  0  0  0  0  0  0  0  0
   -7.3928   24.3022   -0.5524 C   0  0  0  0  0  0  0  0  0  0  0  0
   -7.9975   23.1765    0.0074 C   0  0  0  0  0  0  0  0  0  0  0  0
   -7.4548   22.5573    1.1503 C   0  0  0  0  0  0  0  0  0  0  0  0
   -8.0426   21.4317    1.7330 C   0  0  0  0  0  0  0  0  0  0  0  0
   -7.5702   20.7948    2.8285 N   0  0  0  0  0  0  0  0  0  0  0  0
   -6.4573   21.3069    3.3879 C   0  0  0  0  0  0  0  0  0  0  0  0
   -5.7887   22.4158    2.8955 C   0  0  0  0  0  0  0  0  0  0  0  0
   -6.2833   23.0675    1.7474 C   0  0  0  0  0  0  0  0  0  0  0  0
   -4.7496   28.4443    5.9887 C   0  0  0  0  0  0  0  0  0  0  0  0
   -3.7273   29.0745    6.5307 N   0  0  0  0  0  0  0  0  0  0  0  0
   -4.0981   29.7391    7.6849 C   0  0  0  0  0  0  0  0  0  0  0  0
   -5.4214   29.6077    8.0353 C   0  0  0  0  0  0  0  0  0  0  0  0
   -6.2216   28.6210    6.8933 S   0  0  0  0  0  0  0  0  0  0  0  0
   -3.0494   30.5709    8.5050 C   0  0  0  0  0  0  0  0  0  0  0  0
   -3.3715   31.2502    9.6605 C   0  0  0  0  0  0  0  0  0  0  0  0
   -2.2469   31.9277   10.2168 C   0  0  0  0  0  0  0  0  0  0  0  0
   -1.1093   31.7388    9.4631 C   0  0  0  0  0  0  0  0  0  0  0  0
   -1.4031   30.7508    8.0966 S   0  0  0  0  0  0  0  0  0  0  0  0
  1  2  2  0  0  0
  2  9  1  0  0  0
  9 10  2  0  0  0
 10 11  1  0  0  0
 11 12  2  0  0  0
 12 13  1  0  0  0
 13 14  2  0  0  0
 14 15  1  0  0  0
 15 16  2  0  0  0
 16 17  1  0  0  0
 17 18  2  0  0  0
  2  3  1  0  0  0
  3  4  1  0  0  0
  4  5  1  0  0  0
  5  6  1  0  0  0
  6 19  1  0  0  0
 19 20  2  0  0  0
 20 21  1  0  0  0
 21 24  1  0  0  0
 24 25  2  0  0  0
 25 26  1  0  0  0
 26 27  2  0  0  0
 27 28  1  0  0  0
 21 22  2  0  0  0
 22 23  1  0  0  0
  6  7  1  0  0  0
  7  8  1  0  0  0
 18  9  1  0  0  0
  8  3  1  0  0  0
 18 13  1  0  0  0
 23 19  1  0  0  0
 28 24  1  0  0  0
M  END
> <minimizedAffinity>
-9.87198

$$$$
OCNT-2310453


 25 27  0  0  0  0  0  0  0  0999 V2000
   -5.6508   23.5083    2.1972 C   0  0  0  0  0  0  0  0  0  0  0  0
   -5.6377   22.3637    1.1302 C   0  0  0  0  0  0  0  0  0  0  0  0
   -6.9301   22.2998    0.3183 C   0  0  0  0  0  0  0  0  0  0  0  0
   -7.1176   23.5701   -0.5140 C   0  0  0  0  0  0  0  0  0  0  0  0
   -6.4712   24.8027    0.1205 C   0  0  0  0  0  0  0  0  0  0  0  0
   -6.4909   24.7103    1.6436 C   0  0  0  0  0  0  0  0  0  0  0  0
   -6.2623   23.1328    3.5693 C   0  0  0  0  0  0  0  0  0  0  0  0
   -7.6475   23.1147    3.8104 C   0  0  0  0  0  0  0  0  0  0  0  0
   -8.1630   22.7704    5.0662 C   0  0  0  0  0  0  0  0  0  0  0  0
   -7.3021   22.4411    6.1069 C   0  0  0  0  0  0  0  0  0  0  0  0
   -7.9402   22.0198    7.6473 Cl  0  0  0  0  0  0  0  0  0  0  0  0
   -5.9281   22.4573    5.9052 C   0  0  0  0  0  0  0  0  0  0  0  0
   -5.4149   22.8031    4.6512 C   0  0  0  0  0  0  0  0  0  0  0  0
   -4.2483   23.9824    2.3479 N   0  0  0  0  0  0  0  0  0  0  0  0
   -3.6740   23.5505    1.6227 H   0  0  0  0  0  0  0  0  0  0  0  0
   -4.0672   25.4348    2.2530 C   0  0  0  0  0  0  0  0  0  0  0  0
   -3.9126   26.7579    4.4585 N   0  0  0  0  0  0  0  0  0  0  0  0
   -2.9463   26.9990    5.3726 N   0  0  0  0  0  0  0  0  0  0  0  0
   -1.8886   26.3125    4.9791 N   0  0  0  0  0  0  0  0  0  0  0  0
   -2.1451   25.6507    3.8145 N   0  0  0  0  0  0  0  0  0  0  0  0
   -3.3901   25.9402    3.4797 C   0  0  0  0  0  0  0  0  0  0  0  0
   -5.1560   28.5025    5.6727 C   0  0  0  0  0  0  0  0  0  0  0  0
   -5.2302   27.3890    4.6120 C   0  0  0  0  0  0  0  0  0  0  0  0
   -6.2938   26.3655    5.0930 C   0  0  0  0  0  0  0  0  0  0  0  0
   -5.7491   27.9575    3.2785 C   0  0  0  0  0  0  0  0  0  0  0  0
 22 23  1  0  0  0
 23 24  1  0  0  0
 23 25  1  0  0  0
 23 17  1  0  0  0
 17 18  1  0  0  0
 18 19  2  0  0  0
 19 20  1  0  0  0
 20 21  2  0  0  0
 21 16  1  0  0  0
 16 14  1  0  0  0
 14  1  1  0  0  0
  1  7  1  0  0  0
  7  8  1  0  0  0
  8  9  2  0  0  0
  9 10  1  0  0  0
 10 11  1  0  0  0
 10 12  2  0  0  0
 12 13  1  0  0  0
  1  2  1  0  0  0
  2  3  1  0  0  0
  3  4  1  0  0  0
  4  5  1  0  0  0
  5  6  1  0  0  0
 21 17  1  0  0  0
  6  1  1  0  0  0
 13  7  2  0  0  0
 14 15  1  0  0  0
M  END
> <minimizedAffinity>
-8.75383

$$$$
OCNT-2310458


 26 28  0  0  0  0  0  0  0  0999 V2000
   -0.2247   27.4602    7.0334 N   0  0  0  0  0  0  0  0  0  0  0  0
   -0.5947   27.2247    7.9544 H   0  0  0  0  0  0  0  0  0  0  0  0
   -3.2587   26.6954    5.0187 C   0  0  0  0  0  0  0  0  0  0  0  0
   -2.3884   27.1891    6.0103 C   0  0  0  0  0  0  0  0  0  0  0  0
   -1.0045   27.0110    5.9211 C   0  0  0  0  0  0  0  0  0  0  0  0
   -0.4959   26.2721    4.8557 C   0  0  0  0  0  0  0  0  0  0  0  0
   -1.3474   25.7787    3.8586 C   0  0  0  0  0  0  0  0  0  0  0  0
   -2.7269   25.9861    3.9294 C   0  0  0  0  0  0  0  0  0  0  0  0
   -3.6272   25.5538    2.9941 O   0  0  0  0  0  0  0  0  0  0  0  0
   -3.8618   24.1549    2.9020 C   0  0  0  0  0  0  0  0  0  0  0  0
   -4.7477   26.9157    5.1641 C   0  0  0  0  0  0  0  0  0  0  0  0
   -5.9212   28.1307    3.4865 C   0  0  0  0  0  0  0  0  0  0  0  0
   -5.1543   28.1954    4.6790 O   0  0  0  0  0  0  0  0  0  0  0  0
    0.4710   28.9936    7.0923 S   0  0  0  0  0  0  0  0  0  0  0  0
    1.4414   29.0422    8.1625 O   0  0  0  0  0  0  0  0  0  0  0  0
    0.8197   29.3164    5.7254 O   0  0  0  0  0  0  0  0  0  0  0  0
   -0.8140   30.1456    7.5115 C   0  0  0  0  0  0  0  0  0  0  0  0
   -1.7897   30.7618    6.7563 C   0  0  0  0  0  0  0  0  0  0  0  0
   -2.6276   31.6351    7.5251 C   0  0  0  0  0  0  0  0  0  0  0  0
   -3.7305   32.4318    7.1335 C   0  0  0  0  0  0  0  0  0  0  0  0
   -4.3990   33.2130    8.0793 C   0  0  0  0  0  0  0  0  0  0  0  0
   -5.7391   34.1751    7.5881 Cl  0  0  0  0  0  0  0  0  0  0  0  0
   -3.9963   33.2220    9.4071 C   0  0  0  0  0  0  0  0  0  0  0  0
   -2.9103   32.4455    9.8197 C   0  0  0  0  0  0  0  0  0  0  0  0
   -2.2360   31.6570    8.8666 C   0  0  0  0  0  0  0  0  0  0  0  0
   -0.8813   30.6310    9.1428 S   0  0  0  0  0  0  0  0  0  0  0  0
 12 13  1  0  0  0
 13 11  1  0  0  0
 11  3  1  0  0  0
  3  4  1  0  0  0
  4  5  2  0  0  0
  5  1  1  0  0  0
  1 14  1  0  0  0
 14 15  2  0  0  0
 14 16  2  0  0  0
 14 17  1  0  0  0
 17 18  2  0  0  0
 18 19  1  0  0  0
 19 20  2  0  0  0
 20 21  1  0  0  0
 21 22  1  0  0  0
 21 23  2  0  0  0
 23 24  1  0  0  0
 24 25  2  0  0  0
 25 26  1  0  0  0
  5  6  1  0  0  0
  6  7  2  0  0  0
  7  8  1  0  0  0
  8  9  1  0  0  0
  9 10  1  0  0  0
  8  3  2  0  0  0
 26 17  1  0  0  0
 25 19  1  0  0  0
  1  2  1  0  0  0
M  END
> <minimizedAffinity>
-8.97519

$$$$
OCNT-2310465


 26 28  0  0  0  0  0  0  0  0999 V2000
   -4.9361   27.5820    5.3546 C   0  0  0  0  0  0  0  0  0  0  0  0
   -5.9463   27.8651    5.9882 O   0  0  0  0  0  0  0  0  0  0  0  0
   -3.6639   28.0781    5.5818 N   0  0  0  0  0  0  0  0  0  0  0  0
   -2.9381   27.8378    4.9180 H   0  0  0  0  0  0  0  0  0  0  0  0
   -5.2183   24.7478    2.2258 C   0  0  0  0  0  0  0  0  0  0  0  0
   -5.7404   26.0092    1.9842 C   0  0  0  0  0  0  0  0  0  0  0  0
   -5.6590   26.9749    2.9880 C   0  0  0  0  0  0  0  0  0  0  0  0
   -5.0723   26.6404    4.2108 C   0  0  0  0  0  0  0  0  0  0  0  0
   -4.5671   25.3502    4.3499 C   0  0  0  0  0  0  0  0  0  0  0  0
   -4.6326   24.3962    3.3863 N   0  0  0  0  0  0  0  0  0  0  0  0
   -5.3364   23.8370    1.1975 O   0  0  0  0  0  0  0  0  0  0  0  0
   -6.1064   21.5944    1.2402 C   0  0  0  0  0  0  0  0  0  0  0  0
   -6.5409   23.0582    1.2018 C   0  0  0  0  0  0  0  0  0  0  0  0
   -7.3409   23.3354   -0.0676 C   0  0  0  0  0  0  0  0  0  0  0  0
   -3.2554   28.9471    6.6183 C   0  0  0  0  0  0  0  0  0  0  0  0
   -2.2113   28.5133    7.4425 C   0  0  0  0  0  0  0  0  0  0  0  0
   -1.7628   29.3103    8.4961 C   0  0  0  0  0  0  0  0  0  0  0  0
   -2.3516   30.5533    8.7284 C   0  0  0  0  0  0  0  0  0  0  0  0
   -3.3928   31.0161    7.9131 C   0  0  0  0  0  0  0  0  0  0  0  0
   -3.8396   30.1942    6.8643 C   0  0  0  0  0  0  0  0  0  0  0  0
   -3.9848   32.3291    8.1791 C   0  0  0  0  0  0  0  0  0  0  0  0
   -3.8735   33.0392    9.2889 N   0  0  0  0  0  0  0  0  0  0  0  0
   -4.5777   34.2121    9.1345 N   0  0  0  0  0  0  0  0  0  0  0  0
   -5.1024   34.2004    7.9346 C   0  0  0  0  0  0  0  0  0  0  0  0
   -4.7550   33.0504    7.2973 N   0  0  0  0  0  0  0  0  0  0  0  0
   -5.0026   32.7843    6.3547 H   0  0  0  0  0  0  0  0  0  0  0  0
 12 13  1  0  0  0
 13 14  1  0  0  0
 13 11  1  0  0  0
 11  5  1  0  0  0
  5  6  2  0  0  0
  6  7  1  0  0  0
  7  8  2  0  0  0
  8  1  1  0  0  0
  1  2  2  0  0  0
  1  3  1  0  0  0
  3 15  1  0  0  0
 15 16  2  0  0  0
 16 17  1  0  0  0
 17 18  2  0  0  0
 18 19  1  0  0  0
 19 21  1  0  0  0
 21 22  2  0  0  0
 22 23  1  0  0  0
 23 24  2  0  0  0
 24 25  1  0  0  0
 19 20  2  0  0  0
  8  9  1  0  0  0
  9 10  2  0  0  0
 10  5  1  0  0  0
 20 15  1  0  0  0
 25 21  1  0  0  0
  3  4  1  0  0  0
 25 26  1  0  0  0
M  END
> <minimizedAffinity>
-8.94590

$$$$
OCNT-2310469


 27 29  0  0  0  0  0  0  0  0999 V2000
   -3.7437   26.6062    4.0938 N   0  0  0  0  0  0  0  0  0  0  0  0
   -4.1970   27.2799    5.2069 C   0  0  0  0  0  0  0  0  0  0  0  0
   -5.3352   27.2814    5.6540 O   0  0  0  0  0  0  0  0  0  0  0  0
   -3.1710   28.0025    5.7863 N   0  0  0  0  0  0  0  0  0  0  0  0
   -2.8358   26.8938    3.7609 H   0  0  0  0  0  0  0  0  0  0  0  0
   -2.2545   27.5877    5.6995 H   0  0  0  0  0  0  0  0  0  0  0  0
   -5.8472   23.8220    1.7435 C   0  0  0  0  0  0  0  0  0  0  0  0
   -6.0310   25.1824    1.4946 C   0  0  0  0  0  0  0  0  0  0  0  0
   -5.3448   26.1258    2.2667 C   0  0  0  0  0  0  0  0  0  0  0  0
   -4.4641   25.7169    3.2726 C   0  0  0  0  0  0  0  0  0  0  0  0
   -4.2806   24.3451    3.4998 C   0  0  0  0  0  0  0  0  0  0  0  0
   -4.9652   23.3953    2.7361 C   0  0  0  0  0  0  0  0  0  0  0  0
   -7.5847   23.6294   -0.4224 C   0  0  0  0  0  0  0  0  0  0  0  0
   -6.7179   22.6280    0.7573 S   0  0  0  0  0  0  0  0  0  0  0  0
   -5.7266   21.8433    0.0472 O   0  0  0  0  0  0  0  0  0  0  0  0
   -7.7034   21.9889    1.6089 O   0  0  0  0  0  0  0  0  0  0  0  0
   -3.4128   28.7558    7.0086 C   0  0  0  0  0  0  0  0  0  0  0  0
   -2.1505   28.9333    7.8516 C   0  0  0  0  0  0  0  0  0  0  0  0
   -2.4898   30.1381    8.7203 C   0  0  0  0  0  0  0  0  0  0  0  0
   -3.2560   30.9867    7.8230 N   0  0  0  0  0  0  0  0  0  0  0  0
   -3.8876   30.2027    6.7602 C   0  0  0  0  0  0  0  0  0  0  0  0
   -3.8253   32.1838    8.1898 C   0  0  0  0  0  0  0  0  0  0  0  0
   -3.7264   32.6832    9.4884 C   0  0  0  0  0  0  0  0  0  0  0  0
   -4.3022   33.9117    9.8170 C   0  0  0  0  0  0  0  0  0  0  0  0
   -4.9656   34.6318    8.8383 C   0  0  0  0  0  0  0  0  0  0  0  0
   -5.0179   34.0872    7.5714 C   0  0  0  0  0  0  0  0  0  0  0  0
   -4.4657   32.8991    7.2367 N   0  0  0  0  0  0  0  0  0  0  0  0
 13 14  1  0  0  0
 14 15  2  0  0  0
 14 16  2  0  0  0
 14  7  1  0  0  0
  7  8  1  0  0  0
  8  9  2  0  0  0
  9 10  1  0  0  0
 10  1  1  0  0  0
  1  2  1  0  0  0
  2  3  2  0  0  0
  2  4  1  0  0  0
  4 17  1  0  0  0
 17 18  1  0  0  0
 18 19  1  0  0  0
 19 20  1  0  0  0
 20 22  1  0  0  0
 22 23  2  0  0  0
 23 24  1  0  0  0
 24 25  2  0  0  0
 25 26  1  0  0  0
 26 27  2  0  0  0
 20 21  1  0  0  0
 10 11  2  0  0  0
 11 12  1  0  0  0
 12  7  2  0  0  0
 21 17  1  0  0  0
 27 22  1  0  0  0
  1  5  1  0  0  0
  4  6  1  0  0  0
M  END
> <minimizedAffinity>
-9.03857

$$$$
OCNT-2310470


 29 32  0  0  0  0  0  0  0  0999 V2000
   -5.4781   32.2607    8.3011 C   0  0  0  0  0  0  0  0  0  0  0  0
   -6.1649   32.9576    7.5436 O   0  0  0  0  0  0  0  0  0  0  0  0
   -5.7922   30.9242    8.5130 N   0  0  0  0  0  0  0  0  0  0  0  0
   -4.8486   29.8744    8.8784 C   0  0  0  0  0  0  0  0  0  0  0  0
   -4.3611   29.1538    7.6213 C   0  0  0  0  0  0  0  0  0  0  0  0
   -5.5499   28.6495    6.7758 C   0  0  0  0  0  0  0  0  0  0  0  0
   -6.6406   29.7176    6.5525 C   0  0  0  0  0  0  0  0  0  0  0  0
   -6.9989   30.4072    7.8677 C   0  0  0  0  0  0  0  0  0  0  0  0
   -5.1098   27.9486    5.4907 C   0  0  0  0  0  0  0  0  0  0  0  0
   -6.0377   27.9617    4.4263 C   0  0  0  0  0  0  0  0  0  0  0  0
   -5.7587   27.3484    3.2098 C   0  0  0  0  0  0  0  0  0  0  0  0
   -4.5428   26.7043    3.0276 C   0  0  0  0  0  0  0  0  0  0  0  0
   -3.5933   26.6695    4.0590 C   0  0  0  0  0  0  0  0  0  0  0  0
   -2.3692   26.0197    3.8734 C   0  0  0  0  0  0  0  0  0  0  0  0
   -1.3912   25.9309    4.7996 N   0  0  0  0  0  0  0  0  0  0  0  0
   -1.6420   26.5258    5.9775 C   0  0  0  0  0  0  0  0  0  0  0  0
   -2.8234   27.1947    6.2709 C   0  0  0  0  0  0  0  0  0  0  0  0
   -3.8521   27.2886    5.3068 C   0  0  0  0  0  0  0  0  0  0  0  0
   -4.2743   32.9195    8.9836 C   0  0  0  0  0  0  0  0  0  0  0  0
   -4.6643   34.1393    9.8158 C   0  0  0  0  0  0  0  0  0  0  0  0
   -3.0779   33.1859    8.0584 C   0  0  0  0  0  0  0  0  0  0  0  0
   -0.2873   29.8865    7.8152 C   0  0  0  0  0  0  0  0  0  0  0  0
   -0.9295   30.3501    6.6673 C   0  0  0  0  0  0  0  0  0  0  0  0
   -1.8343   31.4150    6.7475 C   0  0  0  0  0  0  0  0  0  0  0  0
   -2.1093   32.0292    7.9758 C   0  0  0  0  0  0  0  0  0  0  0  0
   -1.4593   31.5622    9.1237 C   0  0  0  0  0  0  0  0  0  0  0  0
   -0.5587   30.4979    9.0408 C   0  0  0  0  0  0  0  0  0  0  0  0
    1.6458   28.9677    8.8468 C   0  0  0  0  0  0  0  0  0  0  0  0
    0.6123   28.8578    7.8761 O   0  0  0  0  0  0  0  0  0  0  0  0
 28 29  1  0  0  0
 29 22  1  0  0  0
 22 23  1  0  0  0
 23 24  2  0  0  0
 24 25  1  0  0  0
 25 21  1  0  0  0
 21 19  1  0  0  0
 19 20  1  0  0  0
 19  1  1  0  0  0
  1  2  2  0  0  0
  1  3  1  0  0  0
  3  4  1  0  0  0
  4  5  1  0  0  0
  5  6  1  0  0  0
  6  9  1  0  0  0
  9 10  2  0  0  0
 10 11  1  0  0  0
 11 12  2  0  0  0
 12 13  1  0  0  0
 13 14  2  0  0  0
 14 15  1  0  0  0
 15 16  2  0  0  0
 16 17  1  0  0  0
 17 18  2  0  0  0
  6  7  1  0  0  0
  7  8  1  0  0  0
 25 26  2  0  0  0
 26 27  1  0  0  0
 27 22  2  0  0  0
  8  3  1  0  0  0
 18  9  1  0  0  0
 18 13  1  0  0  0
M  END
> <minimizedAffinity>
-9.95955

$$$$
OCNT-2310478


 26 28  0  0  0  0  0  0  0  0999 V2000
   -4.2607   25.8456    4.9224 N   0  0  0  0  0  0  0  0  0  0  0  0
   -3.1025   25.8728    5.8433 C   0  0  0  0  0  0  0  0  0  0  0  0
   -2.3872   27.2399    5.9423 C   0  0  0  0  0  0  0  0  0  0  0  0
   -3.2605   28.3708    6.3203 N   0  0  0  0  0  0  0  0  0  0  0  0
   -4.6567   28.1189    5.9053 C   0  0  0  0  0  0  0  0  0  0  0  0
   -4.7656   27.2068    4.6635 C   0  0  0  0  0  0  0  0  0  0  0  0
   -4.0022   25.0693    3.6804 C   0  0  0  0  0  0  0  0  0  0  0  0
   -3.5157   25.9585    2.5201 C   0  0  0  0  0  0  0  0  0  0  0  0
   -7.2943   23.1348    0.4763 C   0  0  0  0  0  0  0  0  0  0  0  0
   -6.7558   23.4323    1.8271 C   0  0  0  0  0  0  0  0  0  0  0  0
   -7.3039   23.0576    3.0377 C   0  0  0  0  0  0  0  0  0  0  0  0
   -6.3293   23.6192    4.3279 S   0  0  0  0  0  0  0  0  0  0  0  0
   -5.2444   24.3269    3.1876 C   0  0  0  0  0  0  0  0  0  0  0  0
   -5.5776   24.1516    1.9229 N   0  0  0  0  0  0  0  0  0  0  0  0
   -3.1633   28.6702    7.7638 C   0  0  0  0  0  0  0  0  0  0  0  0
   -4.4671   29.2010    8.4278 C   0  0  0  0  0  0  0  0  0  0  0  0
   -4.6821   28.5862    9.7010 O   0  0  0  0  0  0  0  0  0  0  0  0
   -4.6536   27.6241    9.5701 H   0  0  0  0  0  0  0  0  0  0  0  0
   -4.5203   30.7099    8.5905 C   0  0  0  0  0  0  0  0  0  0  0  0
   -3.4316   31.3430    9.2288 C   0  0  0  0  0  0  0  0  0  0  0  0
   -3.4113   32.7245    9.4235 C   0  0  0  0  0  0  0  0  0  0  0  0
   -4.4786   33.4898    8.9810 C   0  0  0  0  0  0  0  0  0  0  0  0
   -4.4611   34.8160    9.1676 F   0  0  0  0  0  0  0  0  0  0  0  0
   -5.5639   32.9023    8.3482 C   0  0  0  0  0  0  0  0  0  0  0  0
   -5.5882   31.5174    8.1515 C   0  0  0  0  0  0  0  0  0  0  0  0
   -6.9819   30.8832    7.3465 Cl  0  0  0  0  0  0  0  0  0  0  0  0
  9 10  1  0  0  0
 10 11  2  0  0  0
 11 12  1  0  0  0
 12 13  1  0  0  0
 13  7  1  0  0  0
  7  8  1  0  0  0
  7  1  1  0  0  0
  1  2  1  0  0  0
  2  3  1  0  0  0
  3  4  1  0  0  0
  4 15  1  0  0  0
 15 16  1  0  0  0
 16 17  1  0  0  0
 16 19  1  0  0  0
 19 20  1  0  0  0
 20 21  2  0  0  0
 21 22  1  0  0  0
 22 23  1  0  0  0
 22 24  2  0  0  0
 24 25  1  0  0  0
 25 26  1  0  0  0
  4  5  1  0  0  0
  5  6  1  0  0  0
 13 14  2  0  0  0
 14 10  1  0  0  0
  6  1  1  0  0  0
 25 19  2  0  0  0
 17 18  1  0  0  0
M  END
> <minimizedAffinity>
-8.40929

$$$$
OCNT-2310481


 28 30  0  0  0  0  0  0  0  0999 V2000
   -4.8226   29.0518    8.0867 N   0  0  0  0  0  0  0  0  0  0  0  0
   -3.8003   28.4292    7.4252 C   0  0  0  0  0  0  0  0  0  0  0  0
   -2.6438   28.3936    7.8210 O   0  0  0  0  0  0  0  0  0  0  0  0
   -4.2402   27.8522    6.2628 N   0  0  0  0  0  0  0  0  0  0  0  0
   -5.7545   28.7317    7.8766 H   0  0  0  0  0  0  0  0  0  0  0  0
   -5.0474   28.2909    5.8464 H   0  0  0  0  0  0  0  0  0  0  0  0
   -4.6111   29.6915    9.3714 C   0  0  0  0  0  0  0  0  0  0  0  0
   -5.7981   29.5067   10.3150 C   0  0  0  0  0  0  0  0  0  0  0  0
   -1.6650   31.2475    9.4507 C   0  0  0  0  0  0  0  0  0  0  0  0
   -3.0094   31.7972    9.1428 C   0  0  0  0  0  0  0  0  0  0  0  0
   -3.1276   33.0985    8.8502 N   0  0  0  0  0  0  0  0  0  0  0  0
   -4.4386   33.2699    8.6266 N   0  0  0  0  0  0  0  0  0  0  0  0
   -4.9345   34.5785    8.2775 C   0  0  0  0  0  0  0  0  0  0  0  0
   -5.1639   32.1282    8.7693 C   0  0  0  0  0  0  0  0  0  0  0  0
   -4.2700   31.1272    9.1050 C   0  0  0  0  0  0  0  0  0  0  0  0
   -3.3109   27.2215    5.3524 C   0  0  0  0  0  0  0  0  0  0  0  0
   -4.0361   26.4970    4.2472 C   0  0  0  0  0  0  0  0  0  0  0  0
   -5.1236   27.0927    3.5992 C   0  0  0  0  0  0  0  0  0  0  0  0
   -5.8192   26.4155    2.5891 C   0  0  0  0  0  0  0  0  0  0  0  0
   -5.4434   25.1174    2.2061 C   0  0  0  0  0  0  0  0  0  0  0  0
   -4.3592   24.5263    2.8657 C   0  0  0  0  0  0  0  0  0  0  0  0
   -3.9326   23.2902    2.5755 F   0  0  0  0  0  0  0  0  0  0  0  0
   -3.6662   25.2022    3.8734 C   0  0  0  0  0  0  0  0  0  0  0  0
   -6.1589   24.4362    1.1776 N   0  0  0  0  0  0  0  0  0  0  0  0
   -6.4746   24.8847   -0.0881 C   0  0  0  0  0  0  0  0  0  0  0  0
   -7.1676   23.8695   -0.7029 C   0  0  0  0  0  0  0  0  0  0  0  0
   -7.2983   22.8009    0.1309 N   0  0  0  0  0  0  0  0  0  0  0  0
   -6.6923   23.1623    1.2406 C   0  0  0  0  0  0  0  0  0  0  0  0
  9 10  1  0  0  0
 10 11  2  0  0  0
 11 12  1  0  0  0
 12 13  1  0  0  0
 12 14  1  0  0  0
 14 15  2  0  0  0
 15  7  1  0  0  0
  7  8  1  0  0  0
  7  1  1  0  0  0
  1  2  1  0  0  0
  2  3  2  0  0  0
  2  4  1  0  0  0
  4 16  1  0  0  0
 16 17  1  0  0  0
 17 18  1  0  0  0
 18 19  2  0  0  0
 19 20  1  0  0  0
 20 24  1  0  0  0
 24 25  1  0  0  0
 25 26  2  0  0  0
 26 27  1  0  0  0
 27 28  2  0  0  0
 20 21  2  0  0  0
 21 22  1  0  0  0
 21 23  1  0  0  0
 15 10  1  0  0  0
 23 17  2  0  0  0
 28 24  1  0  0  0
  1  5  1  0  0  0
  4  6  1  0  0  0
M  END
> <minimizedAffinity>
-9.11797

$$$$
OCNT-2310486


 26 29  0  0  0  0  0  0  0  0999 V2000
   -5.4760   30.6452    6.7190 C   0  0  0  0  0  0  0  0  0  0  0  0
   -6.5111   30.3056    7.2833 O   0  0  0  0  0  0  0  0  0  0  0  0
   -5.2467   30.3695    5.3876 N   0  0  0  0  0  0  0  0  0  0  0  0
   -4.2776   30.3511    5.1032 H   0  0  0  0  0  0  0  0  0  0  0  0
   -4.2419   32.6012    7.9193 C   0  0  0  0  0  0  0  0  0  0  0  0
   -4.3945   31.3072    7.3993 C   0  0  0  0  0  0  0  0  0  0  0  0
   -3.2135   30.6884    7.7340 N   0  0  0  0  0  0  0  0  0  0  0  0
   -2.6476   29.4385    7.5879 C   0  0  0  0  0  0  0  0  0  0  0  0
   -1.4048   29.3846    8.1030 C   0  0  0  0  0  0  0  0  0  0  0  0
   -0.4957   28.2068    8.1319 C   0  0  0  0  0  0  0  0  0  0  0  0
   -0.8904   30.9400    8.8002 S   0  0  0  0  0  0  0  0  0  0  0  0
   -2.4282   31.6089    8.3549 C   0  0  0  0  0  0  0  0  0  0  0  0
   -2.9889   32.7746    8.4905 N   0  0  0  0  0  0  0  0  0  0  0  0
   -4.7658   34.8167    8.9678 C   0  0  0  0  0  0  0  0  0  0  0  0
   -5.2071   33.7399    7.9888 C   0  0  0  0  0  0  0  0  0  0  0  0
   -6.1812   29.5683    4.6214 C   0  0  0  0  0  0  0  0  0  0  0  0
   -5.6933   28.1372    4.3610 C   0  0  0  0  0  0  0  0  0  0  0  0
   -5.8869   27.7009    2.8806 C   0  0  0  0  0  0  0  0  0  0  0  0
   -5.2509   26.3234    2.5890 C   0  0  0  0  0  0  0  0  0  0  0  0
   -5.5777   25.3619    3.6697 C   0  0  0  0  0  0  0  0  0  0  0  0
   -6.0470   25.7470    4.9044 C   0  0  0  0  0  0  0  0  0  0  0  0
   -6.3417   27.1306    5.3507 C   0  0  0  0  0  0  0  0  0  0  0  0
   -6.2176   24.6066    5.6285 N   0  0  0  0  0  0  0  0  0  0  0  0
   -5.8853   23.4983    4.9397 N   0  0  0  0  0  0  0  0  0  0  0  0
   -5.4930   23.9618    3.7477 C   0  0  0  0  0  0  0  0  0  0  0  0
   -6.5536   24.5011    6.5804 H   0  0  0  0  0  0  0  0  0  0  0  0
 14 15  1  0  0  0
 15  5  1  0  0  0
  5  6  2  0  0  0
  6  1  1  0  0  0
  1  2  2  0  0  0
  1  3  1  0  0  0
  3 16  1  0  0  0
 16 17  1  0  0  0
 17 18  1  0  0  0
 18 19  1  0  0  0
 19 20  1  0  0  0
 20 21  2  0  0  0
 21 22  1  0  0  0
 21 23  1  0  0  0
 23 24  1  0  0  0
 24 25  2  0  0  0
  6  7  1  0  0  0
  7  8  1  0  0  0
  8  9  2  0  0  0
  9 10  1  0  0  0
  9 11  1  0  0  0
 11 12  1  0  0  0
 12 13  2  0  0  0
 13  5  1  0  0  0
 22 17  1  0  0  0
 12  7  1  0  0  0
 25 20  1  0  0  0
  3  4  1  0  0  0
 23 26  1  0  0  0
M  END
> <minimizedAffinity>
-9.21048

$$$$
OCNT-2310492


 31 34  0  0  0  0  0  0  0  0999 V2000
   -1.6850   25.9958    4.9765 C   0  0  0  0  0  0  0  0  0  0  0  0
   -0.6919   26.0894    3.8097 C   0  0  0  0  0  0  0  0  0  0  0  0
   -1.3619   27.0027    6.0719 C   0  0  0  0  0  0  0  0  0  0  0  0
   -2.2544   27.1727    7.1394 C   0  0  0  0  0  0  0  0  0  0  0  0
   -1.9917   28.1009    8.1497 C   0  0  0  0  0  0  0  0  0  0  0  0
   -0.8360   28.8820    8.1164 C   0  0  0  0  0  0  0  0  0  0  0  0
    0.0559   28.7289    7.0562 C   0  0  0  0  0  0  0  0  0  0  0  0
   -0.2074   27.8002    6.0412 C   0  0  0  0  0  0  0  0  0  0  0  0
   -0.7041   29.7496    9.1648 O   0  0  0  0  0  0  0  0  0  0  0  0
   -0.5855   31.1367    8.8508 C   0  0  0  0  0  0  0  0  0  0  0  0
   -1.9530   31.6973    8.5700 C   0  0  0  0  0  0  0  0  0  0  0  0
   -2.7673   32.1993    9.5902 C   0  0  0  0  0  0  0  0  0  0  0  0
   -4.0400   32.6753    9.2897 C   0  0  0  0  0  0  0  0  0  0  0  0
   -4.4641   32.6253    7.9726 C   0  0  0  0  0  0  0  0  0  0  0  0
   -3.7143   32.1382    6.9609 N   0  0  0  0  0  0  0  0  0  0  0  0
   -2.4801   31.6872    7.2824 C   0  0  0  0  0  0  0  0  0  0  0  0
   -3.0405   26.1757    4.4329 N   0  0  0  0  0  0  0  0  0  0  0  0
   -3.6503   25.4806    4.8577 H   0  0  0  0  0  0  0  0  0  0  0  0
   -3.1137   26.0295    2.9748 C   0  0  0  0  0  0  0  0  0  0  0  0
   -6.5846   26.0342   -0.6905 C   0  0  0  0  0  0  0  0  0  0  0  0
   -6.6489   24.6605   -0.1024 C   0  0  0  0  0  0  0  0  0  0  0  0
   -7.4911   23.7110   -0.5396 C   0  0  0  0  0  0  0  0  0  0  0  0
   -7.5180   22.4066    0.0617 C   0  0  0  0  0  0  0  0  0  0  0  0
   -6.6937   22.1232    1.0752 C   0  0  0  0  0  0  0  0  0  0  0  0
   -5.7973   23.0593    1.5749 N   0  0  0  0  0  0  0  0  0  0  0  0
   -4.9649   22.6955    2.6222 C   0  0  0  0  0  0  0  0  0  0  0  0
   -4.9351   21.5914    3.1652 O   0  0  0  0  0  0  0  0  0  0  0  0
   -4.0448   23.7372    3.0966 C   0  0  0  0  0  0  0  0  0  0  0  0
   -4.0665   24.9405    2.5134 C   0  0  0  0  0  0  0  0  0  0  0  0
   -4.8950   25.2544    1.4638 N   0  0  0  0  0  0  0  0  0  0  0  0
   -5.7174   24.3423    1.0379 C   0  0  0  0  0  0  0  0  0  0  0  0
 20 21  1  0  0  0
 21 22  2  0  0  0
 22 23  1  0  0  0
 23 24  2  0  0  0
 24 25  1  0  0  0
 25 26  1  0  0  0
 26 27  2  0  0  0
 26 28  1  0  0  0
 28 29  2  0  0  0
 29 19  1  0  0  0
 19 17  1  0  0  0
 17  1  1  0  0  0
  1  2  1  0  0  0
  1  3  1  0  0  0
  3  4  1  0  0  0
  4  5  2  0  0  0
  5  6  1  0  0  0
  6  9  1  0  0  0
  9 10  1  0  0  0
 10 11  1  0  0  0
 11 12  1  0  0  0
 12 13  2  0  0  0
 13 14  1  0  0  0
 14 15  2  0  0  0
 15 16  1  0  0  0
  6  7  2  0  0  0
  7  8  1  0  0  0
 29 30  1  0  0  0
 30 31  2  0  0  0
 31 21  1  0  0  0
 31 25  1  0  0  0
  8  3  2  0  0  0
 16 11  2  0  0  0
 17 18  1  0  0  0
M  END
> <minimizedAffinity>
-10.10637

$$$$
OCNT-2310494


 24 27  0  0  0  0  0  0  0  0999 V2000
   -1.6235   26.7747    5.7063 N   0  0  0  0  0  0  0  0  0  0  0  0
   -2.9082   26.5246    5.3242 C   0  0  0  0  0  0  0  0  0  0  0  0
   -2.7724   25.8386    4.1365 C   0  0  0  0  0  0  0  0  0  0  0  0
   -1.4343   25.7136    3.8488 N   0  0  0  0  0  0  0  0  0  0  0  0
   -0.7406   26.2935    4.8188 N   0  0  0  0  0  0  0  0  0  0  0  0
   -3.8304   25.3179    3.2864 C   0  0  0  0  0  0  0  0  0  0  0  0
   -4.6815   26.2117    2.6217 C   0  0  0  0  0  0  0  0  0  0  0  0
   -5.7097   25.7457    1.7978 C   0  0  0  0  0  0  0  0  0  0  0  0
   -5.9069   24.3677    1.6212 C   0  0  0  0  0  0  0  0  0  0  0  0
   -6.9172   23.8435    0.8107 C   0  0  0  0  0  0  0  0  0  0  0  0
   -7.1371   22.5223    0.6164 N   0  0  0  0  0  0  0  0  0  0  0  0
   -6.3091   21.6745    1.2592 C   0  0  0  0  0  0  0  0  0  0  0  0
   -5.2745   22.0824    2.0869 C   0  0  0  0  0  0  0  0  0  0  0  0
   -5.0619   23.4536    2.2781 C   0  0  0  0  0  0  0  0  0  0  0  0
   -4.0308   23.9401    3.1051 C   0  0  0  0  0  0  0  0  0  0  0  0
   -1.1674   27.4879    6.8797 C   0  0  0  0  0  0  0  0  0  0  0  0
    0.0184   28.3990    6.5758 C   0  0  0  0  0  0  0  0  0  0  0  0
    1.0143   29.3703    9.1993 O   0  0  0  0  0  0  0  0  0  0  0  0
    0.1140   29.9193    8.5914 C   0  0  0  0  0  0  0  0  0  0  0  0
   -0.7976   30.7964    9.1422 N   0  0  0  0  0  0  0  0  0  0  0  0
   -1.6864   31.3472    8.1667 C   0  0  0  0  0  0  0  0  0  0  0  0
   -1.6265   30.3323    7.0390 C   0  0  0  0  0  0  0  0  0  0  0  0
   -0.1843   29.8147    7.1076 C   0  0  0  0  0  0  0  0  0  0  0  0
   -0.7116   31.0915   10.1078 H   0  0  0  0  0  0  0  0  0  0  0  0
 18 19  2  0  0  0
 19 20  1  0  0  0
 20 21  1  0  0  0
 21 22  1  0  0  0
 22 23  1  0  0  0
 23 17  1  0  0  0
 17 16  1  0  0  0
 16  1  1  0  0  0
  1  2  1  0  0  0
  2  3  2  0  0  0
  3  6  1  0  0  0
  6  7  1  0  0  0
  7  8  2  0  0  0
  8  9  1  0  0  0
  9 10  2  0  0  0
 10 11  1  0  0  0
 11 12  2  0  0  0
 12 13  1  0  0  0
 13 14  2  0  0  0
 14 15  1  0  0  0
  3  4  1  0  0  0
  4  5  2  0  0  0
 23 19  1  0  0  0
  5  1  1  0  0  0
 15  6  2  0  0  0
 14  9  1  0  0  0
 20 24  1  0  0  0
M  END
> <minimizedAffinity>
-8.98736

$$$$
OCNT-2310498


 21 24  0  0  0  0  0  0  0  0999 V2000
   -6.0953   28.4771    4.7503 C   0  0  0  0  0  0  0  0  0  0  0  0
   -6.0733   25.8726    4.6493 C   0  0  0  0  0  0  0  0  0  0  0  0
   -5.9220   24.8865    3.7625 N   0  0  0  0  0  0  0  0  0  0  0  0
   -5.7145   25.5357    2.6023 N   0  0  0  0  0  0  0  0  0  0  0  0
   -5.7426   26.8928    2.7293 C   0  0  0  0  0  0  0  0  0  0  0  0
   -5.9683   27.1571    4.0666 C   0  0  0  0  0  0  0  0  0  0  0  0
   -5.4905   24.7827    1.3783 C   0  0  0  0  0  0  0  0  0  0  0  0
   -6.7128   23.9818    0.9674 C   0  0  0  0  0  0  0  0  0  0  0  0
   -6.4788   22.5669    0.3700 C   0  0  0  0  0  0  0  0  0  0  0  0
   -7.6497   22.8593   -0.5901 C   0  0  0  0  0  0  0  0  0  0  0  0
   -7.3317   24.3571   -0.4057 C   0  0  0  0  0  0  0  0  0  0  0  0
   -5.8945   28.3047    6.1967 N   0  0  0  0  0  0  0  0  0  0  0  0
   -4.5272   28.7153    6.5834 C   0  0  0  0  0  0  0  0  0  0  0  0
   -5.0662   30.1097    6.9849 C   0  0  0  0  0  0  0  0  0  0  0  0
   -6.4597   29.4377    6.9645 C   0  0  0  0  0  0  0  0  0  0  0  0
   -4.5770   30.8327    8.2444 C   0  0  0  0  0  0  0  0  0  0  0  0
   -3.1620   30.4366    8.6817 C   0  0  0  0  0  0  0  0  0  0  0  0
   -2.6989   31.2960    9.8537 C   0  0  0  0  0  0  0  0  0  0  0  0
   -2.7648   32.6818    9.5215 O   0  0  0  0  0  0  0  0  0  0  0  0
   -4.0967   33.1011    9.2318 C   0  0  0  0  0  0  0  0  0  0  0  0
   -4.6453   32.3512    8.0249 C   0  0  0  0  0  0  0  0  0  0  0  0
  2  3  2  0  0  0
  3  4  1  0  0  0
  4  7  1  0  0  0
  7  8  1  0  0  0
  8  9  1  0  0  0
  9 10  1  0  0  0
 10 11  1  0  0  0
  4  5  1  0  0  0
  5  6  2  0  0  0
  6  1  1  0  0  0
  1 12  1  0  0  0
 12 13  1  0  0  0
 13 14  1  0  0  0
 14 16  1  0  0  0
 16 17  1  0  0  0
 17 18  1  0  0  0
 18 19  1  0  0  0
 19 20  1  0  0  0
 20 21  1  0  0  0
 14 15  1  0  0  0
  6  2  1  0  0  0
 15 12  1  0  0  0
 11  8  1  0  0  0
 21 16  1  0  0  0
M  END
> <minimizedAffinity>
-8.11990

$$$$
OCNT-2310500


 23 25  0  0  0  0  0  0  0  0999 V2000
   -2.2098   25.8156    4.1636 C   0  0  0  0  0  0  0  0  0  0  0  0
   -2.1224   26.5406    5.5063 C   0  0  0  0  0  0  0  0  0  0  0  0
   -0.7435   27.1594    5.7559 C   0  0  0  0  0  0  0  0  0  0  0  0
   -2.6816   30.0530    6.7876 C   0  0  0  0  0  0  0  0  0  0  0  0
   -2.2063   29.3858    8.0846 C   0  0  0  0  0  0  0  0  0  0  0  0
   -3.3219   29.4118    8.9899 O   0  0  0  0  0  0  0  0  0  0  0  0
   -1.0449   30.1625    8.7346 C   0  0  0  0  0  0  0  0  0  0  0  0
    0.3222   29.5139    8.5068 C   0  0  0  0  0  0  0  0  0  0  0  0
    0.3903   28.7665    7.1793 C   0  0  0  0  0  0  0  0  0  0  0  0
   -0.5624   27.6530    7.1246 N   0  0  0  0  0  0  0  0  0  0  0  0
   -1.8163   27.9057    7.8539 C   0  0  0  0  0  0  0  0  0  0  0  0
   -3.5442   30.3431    9.1622 H   0  0  0  0  0  0  0  0  0  0  0  0
   -3.3058   26.3183    3.3943 O   0  0  0  0  0  0  0  0  0  0  0  0
   -4.0761   25.4296    2.6965 C   0  0  0  0  0  0  0  0  0  0  0  0
   -3.8580   24.0923    3.0283 C   0  0  0  0  0  0  0  0  0  0  0  0
   -4.5693   23.0735    2.3908 C   0  0  0  0  0  0  0  0  0  0  0  0
   -5.5135   23.3766    1.4005 C   0  0  0  0  0  0  0  0  0  0  0  0
   -6.2392   22.3677    0.7467 C   0  0  0  0  0  0  0  0  0  0  0  0
   -7.1737   22.6868   -0.2399 C   0  0  0  0  0  0  0  0  0  0  0  0
   -7.3931   24.0171   -0.5852 C   0  0  0  0  0  0  0  0  0  0  0  0
   -6.6802   25.0314    0.0570 C   0  0  0  0  0  0  0  0  0  0  0  0
   -5.7374   24.7283    1.0537 C   0  0  0  0  0  0  0  0  0  0  0  0
   -5.0131   25.7414    1.7099 C   0  0  0  0  0  0  0  0  0  0  0  0
  4  5  1  0  0  0
  5  6  1  0  0  0
  5  7  1  0  0  0
  7  8  1  0  0  0
  8  9  1  0  0  0
  9 10  1  0  0  0
 10  3  1  0  0  0
  3  2  1  0  0  0
  2  1  1  0  0  0
  1 13  1  0  0  0
 13 14  1  0  0  0
 14 15  1  0  0  0
 15 16  2  0  0  0
 16 17  1  0  0  0
 17 18  2  0  0  0
 18 19  1  0  0  0
 19 20  2  0  0  0
 20 21  1  0  0  0
 21 22  2  0  0  0
 22 23  1  0  0  0
 10 11  1  0  0  0
 11  5  1  0  0  0
 23 14  2  0  0  0
 22 17  1  0  0  0
  6 12  1  0  0  0
M  END
> <minimizedAffinity>
-9.34520

$$$$
OCNT-2310513


 30 33  0  0  0  0  0  0  0  0999 V2000
   -3.2263   25.9370    3.9543 C   0  0  0  0  0  0  0  0  0  0  0  0
   -2.9852   26.3953    2.8405 O   0  0  0  0  0  0  0  0  0  0  0  0
   -4.5048   25.8015    4.4441 N   0  0  0  0  0  0  0  0  0  0  0  0
   -4.6686   25.3426    5.3311 H   0  0  0  0  0  0  0  0  0  0  0  0
   -1.1605   27.2377    6.0126 N   0  0  0  0  0  0  0  0  0  0  0  0
   -2.1053   26.1539    6.1801 C   0  0  0  0  0  0  0  0  0  0  0  0
   -2.1000   25.4361    4.8478 C   0  0  0  0  0  0  0  0  0  0  0  0
   -0.7148   25.6918    4.2827 C   0  0  0  0  0  0  0  0  0  0  0  0
   -0.2871   26.9802    4.9458 C   0  0  0  0  0  0  0  0  0  0  0  0
    0.6638   27.6358    4.5510 O   0  0  0  0  0  0  0  0  0  0  0  0
   -1.0384   30.6470    8.5754 C   0  0  0  0  0  0  0  0  0  0  0  0
   -0.0194   29.6923    8.6121 C   0  0  0  0  0  0  0  0  0  0  0  0
   -0.0651   28.5628    7.7828 C   0  0  0  0  0  0  0  0  0  0  0  0
   -1.1226   28.3589    6.8894 C   0  0  0  0  0  0  0  0  0  0  0  0
   -2.1413   29.3245    6.8631 C   0  0  0  0  0  0  0  0  0  0  0  0
   -2.1011   30.4531    7.6919 C   0  0  0  0  0  0  0  0  0  0  0  0
   -2.2379   32.0311   10.2855 C   0  0  0  0  0  0  0  0  0  0  0  0
   -0.9764   31.8711    9.4513 C   0  0  0  0  0  0  0  0  0  0  0  0
   -5.6712   26.0828    3.6245 C   0  0  0  0  0  0  0  0  0  0  0  0
   -6.0129   24.9681    2.6633 C   0  0  0  0  0  0  0  0  0  0  0  0
   -5.8109   25.1684    1.2802 C   0  0  0  0  0  0  0  0  0  0  0  0
   -6.2136   24.2212    0.3458 C   0  0  0  0  0  0  0  0  0  0  0  0
   -6.8150   23.0750    0.8116 C   0  0  0  0  0  0  0  0  0  0  0  0
   -6.9873   22.8132    2.1213 N   0  0  0  0  0  0  0  0  0  0  0  0
   -6.5500   23.7258    3.0409 C   0  0  0  0  0  0  0  0  0  0  0  0
   -6.6433   23.2712    4.3942 N   0  0  0  0  0  0  0  0  0  0  0  0
   -5.7733   22.5133    5.1479 C   0  0  0  0  0  0  0  0  0  0  0  0
   -6.3867   22.3255    6.3655 C   0  0  0  0  0  0  0  0  0  0  0  0
   -7.6179   22.9124    6.3884 N   0  0  0  0  0  0  0  0  0  0  0  0
   -7.7569   23.4454    5.1946 C   0  0  0  0  0  0  0  0  0  0  0  0
 17 18  1  0  0  0
 18 11  1  0  0  0
 11 12  1  0  0  0
 12 13  2  0  0  0
 13 14  1  0  0  0
 14  5  1  0  0  0
  5  6  1  0  0  0
  6  7  1  0  0  0
  7  1  1  0  0  0
  1  2  2  0  0  0
  1  3  1  0  0  0
  3 19  1  0  0  0
 19 20  1  0  0  0
 20 21  1  0  0  0
 21 22  2  0  0  0
 22 23  1  0  0  0
 23 24  2  0  0  0
 24 25  1  0  0  0
 25 26  1  0  0  0
 26 27  1  0  0  0
 27 28  2  0  0  0
 28 29  1  0  0  0
 29 30  2  0  0  0
  7  8  1  0  0  0
  8  9  1  0  0  0
  9 10  2  0  0  0
 14 15  2  0  0  0
 15 16  1  0  0  0
 16 11  2  0  0  0
  9  5  1  0  0  0
 25 20  2  0  0  0
 30 26  1  0  0  0
  3  4  1  0  0  0
M  END
> <minimizedAffinity>
-9.48769

$$$$
OCNT-2310514


 31 33  0  0  0  0  0  0  0  0999 V2000
   -1.9646   25.6345    4.7444 O   0  0  0  0  0  0  0  0  0  0  0  0
   -2.7480   26.0770    5.5736 C   0  0  0  0  0  0  0  0  0  0  0  0
   -2.3985   26.8893    6.6192 N   0  0  0  0  0  0  0  0  0  0  0  0
   -4.0976   25.8262    5.5776 N   0  0  0  0  0  0  0  0  0  0  0  0
   -3.1428   27.4762    6.9634 H   0  0  0  0  0  0  0  0  0  0  0  0
   -4.4959   25.7539    6.5092 H   0  0  0  0  0  0  0  0  0  0  0  0
   -1.0509   27.3894    6.7577 C   0  0  0  0  0  0  0  0  0  0  0  0
   -1.0118   28.6207    7.6293 C   0  0  0  0  0  0  0  0  0  0  0  0
    0.1785   28.9927    8.2646 C   0  0  0  0  0  0  0  0  0  0  0  0
    0.2269   30.1392    9.0533 C   0  0  0  0  0  0  0  0  0  0  0  0
   -0.9113   30.9330    9.2140 C   0  0  0  0  0  0  0  0  0  0  0  0
   -2.1133   30.5857    8.5802 C   0  0  0  0  0  0  0  0  0  0  0  0
   -2.1527   29.4274    7.7857 C   0  0  0  0  0  0  0  0  0  0  0  0
   -3.2764   31.3962    8.7374 N   0  0  0  0  0  0  0  0  0  0  0  0
   -4.5791   31.0673    8.4215 C   0  0  0  0  0  0  0  0  0  0  0  0
   -5.3441   32.1622    8.7471 C   0  0  0  0  0  0  0  0  0  0  0  0
   -4.5676   33.1612    9.2537 N   0  0  0  0  0  0  0  0  0  0  0  0
   -3.3432   32.6806    9.2382 C   0  0  0  0  0  0  0  0  0  0  0  0
   -4.6703   24.8810    4.6380 C   0  0  0  0  0  0  0  0  0  0  0  0
   -5.4855   25.5881    3.5372 C   0  0  0  0  0  0  0  0  0  0  0  0
   -5.5987   27.0959    3.8196 C   0  0  0  0  0  0  0  0  0  0  0  0
   -4.6430   27.8324    3.0559 O   0  0  0  0  0  0  0  0  0  0  0  0
   -4.6833   28.7507    3.3798 H   0  0  0  0  0  0  0  0  0  0  0  0
   -4.8335   25.3181    2.1659 C   0  0  0  0  0  0  0  0  0  0  0  0
   -5.7138   24.5378    1.2132 C   0  0  0  0  0  0  0  0  0  0  0  0
   -6.3996   25.2479    0.2102 C   0  0  0  0  0  0  0  0  0  0  0  0
   -7.2246   24.5885   -0.7024 C   0  0  0  0  0  0  0  0  0  0  0  0
   -7.3790   23.2077   -0.6298 C   0  0  0  0  0  0  0  0  0  0  0  0
   -6.7061   22.4865    0.3554 C   0  0  0  0  0  0  0  0  0  0  0  0
   -5.8778   23.1441    1.2716 C   0  0  0  0  0  0  0  0  0  0  0  0
   -5.0675   22.1703    2.4468 Cl  0  0  0  0  0  0  0  0  0  0  0  0
  1  2  2  0  0  0
  2  3  1  0  0  0
  3  7  1  0  0  0
  7  8  1  0  0  0
  8  9  2  0  0  0
  9 10  1  0  0  0
 10 11  2  0  0  0
 11 12  1  0  0  0
 12 14  1  0  0  0
 14 15  1  0  0  0
 15 16  2  0  0  0
 16 17  1  0  0  0
 17 18  2  0  0  0
 12 13  2  0  0  0
  2  4  1  0  0  0
  4 19  1  0  0  0
 19 20  1  0  0  0
 20 21  1  0  0  0
 21 22  1  0  0  0
 20 24  1  0  0  0
 24 25  1  0  0  0
 25 26  2  0  0  0
 26 27  1  0  0  0
 27 28  2  0  0  0
 28 29  1  0  0  0
 29 30  2  0  0  0
 30 31  1  0  0  0
 13  8  1  0  0  0
 30 25  1  0  0  0
 18 14  1  0  0  0
  3  5  1  0  0  0
  4  6  1  0  0  0
 22 23  1  0  0  0
M  END
> <minimizedAffinity>
-10.01798

$$$$
OCNT-2310518


 31 33  0  0  0  0  0  0  0  0999 V2000
   -5.8151   26.7351    3.2780 C   0  0  0  0  0  0  0  0  0  0  0  0
   -5.8472   28.1000    2.9576 C   0  0  0  0  0  0  0  0  0  0  0  0
   -5.9159   29.0549    3.9755 C   0  0  0  0  0  0  0  0  0  0  0  0
   -5.9670   28.6398    5.3104 C   0  0  0  0  0  0  0  0  0  0  0  0
   -5.9337   27.2817    5.6395 C   0  0  0  0  0  0  0  0  0  0  0  0
   -5.8698   26.3305    4.6194 C   0  0  0  0  0  0  0  0  0  0  0  0
   -5.2529   24.4591    2.6202 N   0  0  0  0  0  0  0  0  0  0  0  0
   -5.7506   25.6836    2.2275 C   0  0  0  0  0  0  0  0  0  0  0  0
   -6.1559   25.9234    1.0964 O   0  0  0  0  0  0  0  0  0  0  0  0
   -5.0676   24.2865    3.5987 H   0  0  0  0  0  0  0  0  0  0  0  0
   -5.1760   23.3303    1.7062 C   0  0  0  0  0  0  0  0  0  0  0  0
   -5.8502   20.8597    1.5441 C   0  0  0  0  0  0  0  0  0  0  0  0
   -6.3385   22.2968    1.8376 C   0  0  0  0  0  0  0  0  0  0  0  0
   -7.4216   22.6238    0.7806 C   0  0  0  0  0  0  0  0  0  0  0  0
   -6.8734   22.3664    3.2839 C   0  0  0  0  0  0  0  0  0  0  0  0
   -6.1362   21.9327    4.3940 C   0  0  0  0  0  0  0  0  0  0  0  0
   -6.6965   22.0195    5.6631 C   0  0  0  0  0  0  0  0  0  0  0  0
   -7.9309   22.4982    5.9126 N   0  0  0  0  0  0  0  0  0  0  0  0
   -8.6369   22.9120    4.8429 C   0  0  0  0  0  0  0  0  0  0  0  0
   -8.1626   22.8651    3.5390 C   0  0  0  0  0  0  0  0  0  0  0  0
   -6.0353   29.8581    6.6019 S   0  0  0  0  0  0  0  0  0  0  0  0
   -7.3697   30.4137    6.6517 O   0  0  0  0  0  0  0  0  0  0  0  0
   -5.4341   29.2649    7.7790 O   0  0  0  0  0  0  0  0  0  0  0  0
   -4.9442   31.0313    6.0628 N   0  0  0  0  0  0  0  0  0  0  0  0
   -4.6412   30.8285    5.1107 H   0  0  0  0  0  0  0  0  0  0  0  0
   -3.9512   31.4832    6.9741 C   0  0  0  0  0  0  0  0  0  0  0  0
   -2.6320   31.0507    6.8432 C   0  0  0  0  0  0  0  0  0  0  0  0
   -1.6709   31.4715    7.7633 C   0  0  0  0  0  0  0  0  0  0  0  0
   -2.0313   32.3183    8.8119 C   0  0  0  0  0  0  0  0  0  0  0  0
   -3.3532   32.7438    8.9437 C   0  0  0  0  0  0  0  0  0  0  0  0
   -4.3159   32.3236    8.0251 C   0  0  0  0  0  0  0  0  0  0  0  0
 12 13  1  0  0  0
 13 14  1  0  0  0
 13 11  1  0  0  0
 11  7  1  0  0  0
  7  8  1  0  0  0
  8  9  2  0  0  0
  8  1  1  0  0  0
  1  2  1  0  0  0
  2  3  2  0  0  0
  3  4  1  0  0  0
  4 21  1  0  0  0
 21 22  2  0  0  0
 21 23  2  0  0  0
 21 24  1  0  0  0
 24 26  1  0  0  0
 26 27  2  0  0  0
 27 28  1  0  0  0
 28 29  2  0  0  0
 29 30  1  0  0  0
 30 31  2  0  0  0
  4  5  2  0  0  0
  5  6  1  0  0  0
 13 15  1  0  0  0
 15 16  2  0  0  0
 16 17  1  0  0  0
 17 18  2  0  0  0
 18 19  1  0  0  0
 19 20  2  0  0  0
  6  1  2  0  0  0
 20 15  1  0  0  0
 31 26  1  0  0  0
  7 10  1  0  0  0
 24 25  1  0  0  0
M  END
> <minimizedAffinity>
-9.81186

$$$$
OCNT-2310539


 24 26  0  0  0  0  0  0  0  0999 V2000
   -5.0143   25.0639    1.0116 C   0  0  0  0  0  0  0  0  0  0  0  0
   -4.7423   25.8024    2.2921 C   0  0  0  0  0  0  0  0  0  0  0  0
   -5.7542   26.6162    2.8629 C   0  0  0  0  0  0  0  0  0  0  0  0
   -5.5478   27.2925    4.0707 C   0  0  0  0  0  0  0  0  0  0  0  0
   -4.3205   27.1286    4.6810 C   0  0  0  0  0  0  0  0  0  0  0  0
   -3.8074   27.6617    5.9398 C   0  0  0  0  0  0  0  0  0  0  0  0
   -4.4527   28.3250    6.7284 O   0  0  0  0  0  0  0  0  0  0  0  0
   -2.5325   27.1931    6.0755 N   0  0  0  0  0  0  0  0  0  0  0  0
   -2.1911   26.3528    5.0528 C   0  0  0  0  0  0  0  0  0  0  0  0
   -1.1688   25.7175    4.8847 O   0  0  0  0  0  0  0  0  0  0  0  0
   -3.3337   26.3251    4.1403 C   0  0  0  0  0  0  0  0  0  0  0  0
   -3.5121   25.6447    2.9508 C   0  0  0  0  0  0  0  0  0  0  0  0
   -1.6762   27.4691    7.2140 C   0  0  0  0  0  0  0  0  0  0  0  0
   -1.3858   28.9654    7.3725 C   0  0  0  0  0  0  0  0  0  0  0  0
   -0.6382   29.5551    6.5960 O   0  0  0  0  0  0  0  0  0  0  0  0
   -2.1306   29.6019    8.3502 N   0  0  0  0  0  0  0  0  0  0  0  0
   -3.0008   29.1289    8.5823 H   0  0  0  0  0  0  0  0  0  0  0  0
   -2.1198   31.0616    8.5959 C   0  0  0  0  0  0  0  0  0  0  0  0
   -0.7709   31.4882    9.2083 C   0  0  0  0  0  0  0  0  0  0  0  0
   -2.3817   31.8647    7.2919 C   0  0  0  0  0  0  0  0  0  0  0  0
   -3.8199   31.8418    6.8464 C   0  0  0  0  0  0  0  0  0  0  0  0
   -4.8330   31.5050    7.6559 C   0  0  0  0  0  0  0  0  0  0  0  0
   -4.6499   31.1391    9.0982 C   0  0  0  0  0  0  0  0  0  0  0  0
   -3.2320   31.3966    9.6246 C   0  0  0  0  0  0  0  0  0  0  0  0
  1  2  1  0  0  0
  2  3  1  0  0  0
  3  4  2  0  0  0
  4  5  1  0  0  0
  5  6  1  0  0  0
  6  7  2  0  0  0
  6  8  1  0  0  0
  8 13  1  0  0  0
 13 14  1  0  0  0
 14 15  2  0  0  0
 14 16  1  0  0  0
 16 18  1  0  0  0
 18 19  1  0  0  0
 18 20  1  0  0  0
 20 21  1  0  0  0
 21 22  2  0  0  0
 22 23  1  0  0  0
 23 24  1  0  0  0
  8  9  1  0  0  0
  9 10  2  0  0  0
  9 11  1  0  0  0
 11 12  1  0  0  0
 12  2  2  0  0  0
 11  5  2  0  0  0
 24 18  1  0  0  0
 16 17  1  0  0  0
M  END
> <minimizedAffinity>
-9.08671

$$$$
OCNT-2310555


 29 32  0  0  0  0  0  0  0  0999 V2000
   -5.8605   28.6326    6.1007 C   0  0  0  0  0  0  0  0  0  0  0  0
   -6.9732   28.1115    6.1946 O   0  0  0  0  0  0  0  0  0  0  0  0
   -5.2638   28.8670    4.8938 N   0  0  0  0  0  0  0  0  0  0  0  0
   -4.3267   29.2654    4.8992 H   0  0  0  0  0  0  0  0  0  0  0  0
   -5.0993   29.0169    7.3519 C   0  0  0  0  0  0  0  0  0  0  0  0
   -1.0079   26.7724    6.1086 C   0  0  0  0  0  0  0  0  0  0  0  0
   -1.6054   27.8809    6.8325 N   0  0  0  0  0  0  0  0  0  0  0  0
   -2.9728   27.9630    6.7886 N   0  0  0  0  0  0  0  0  0  0  0  0
   -3.5835   28.9218    7.4184 C   0  0  0  0  0  0  0  0  0  0  0  0
   -2.8539   29.9470    8.2054 C   0  0  0  0  0  0  0  0  0  0  0  0
   -3.4924   31.0073    8.8631 C   0  0  0  0  0  0  0  0  0  0  0  0
   -2.7436   31.9273    9.6029 C   0  0  0  0  0  0  0  0  0  0  0  0
   -1.3600   31.7959    9.6897 C   0  0  0  0  0  0  0  0  0  0  0  0
   -0.7207   30.7471    9.0306 C   0  0  0  0  0  0  0  0  0  0  0  0
   -1.4698   29.8256    8.2868 C   0  0  0  0  0  0  0  0  0  0  0  0
   -0.7910   28.7300    7.5730 C   0  0  0  0  0  0  0  0  0  0  0  0
    0.4294   28.6214    7.6501 O   0  0  0  0  0  0  0  0  0  0  0  0
   -5.8334   28.4464    3.6392 C   0  0  0  0  0  0  0  0  0  0  0  0
   -5.2111   27.1559    3.1767 C   0  0  0  0  0  0  0  0  0  0  0  0
   -3.9180   26.8139    3.5784 C   0  0  0  0  0  0  0  0  0  0  0  0
   -3.3705   25.6292    3.1177 C   0  0  0  0  0  0  0  0  0  0  0  0
   -4.0133   24.7808    2.2881 N   0  0  0  0  0  0  0  0  0  0  0  0
   -5.2659   25.1242    1.8848 C   0  0  0  0  0  0  0  0  0  0  0  0
   -5.8936   26.2982    2.3028 C   0  0  0  0  0  0  0  0  0  0  0  0
   -5.9299   24.2268    1.0026 N   0  0  0  0  0  0  0  0  0  0  0  0
   -6.8008   24.5047   -0.0292 C   0  0  0  0  0  0  0  0  0  0  0  0
   -7.1568   23.2838   -0.5575 C   0  0  0  0  0  0  0  0  0  0  0  0
   -6.5367   22.2638    0.1061 N   0  0  0  0  0  0  0  0  0  0  0  0
   -5.8100   22.8539    1.0313 C   0  0  0  0  0  0  0  0  0  0  0  0
  6  7  1  0  0  0
  7  8  1  0  0  0
  8  9  2  0  0  0
  9  5  1  0  0  0
  5  1  1  0  0  0
  1  2  2  0  0  0
  1  3  1  0  0  0
  3 18  1  0  0  0
 18 19  1  0  0  0
 19 20  2  0  0  0
 20 21  1  0  0  0
 21 22  2  0  0  0
 22 23  1  0  0  0
 23 25  1  0  0  0
 25 26  1  0  0  0
 26 27  2  0  0  0
 27 28  1  0  0  0
 28 29  2  0  0  0
 23 24  2  0  0  0
  9 10  1  0  0  0
 10 11  2  0  0  0
 11 12  1  0  0  0
 12 13  2  0  0  0
 13 14  1  0  0  0
 14 15  2  0  0  0
 15 16  1  0  0  0
 16 17  2  0  0  0
 16  7  1  0  0  0
 24 19  1  0  0  0
 15 10  1  0  0  0
 29 25  1  0  0  0
  3  4  1  0  0  0
M  END
> <minimizedAffinity>
-10.27208

$$$$
OCNT-2310560


 25 27  0  0  0  0  0  0  0  0999 V2000
   -6.2133   30.4256    7.0750 C   0  0  0  0  0  0  0  0  0  0  0  0
   -7.4124   30.0802    6.4935 C   0  0  0  0  0  0  0  0  0  0  0  0
   -7.1804   29.1025    5.5761 O   0  0  0  0  0  0  0  0  0  0  0  0
   -5.8264   28.9002    5.6340 C   0  0  0  0  0  0  0  0  0  0  0  0
   -5.2029   29.6807    6.4944 N   0  0  0  0  0  0  0  0  0  0  0  0
   -5.2712   27.8755    4.7550 C   0  0  0  0  0  0  0  0  0  0  0  0
   -5.9550   27.5346    3.5727 C   0  0  0  0  0  0  0  0  0  0  0  0
   -5.4516   26.5592    2.7066 C   0  0  0  0  0  0  0  0  0  0  0  0
   -4.2592   25.9193    3.0198 C   0  0  0  0  0  0  0  0  0  0  0  0
   -3.7766   24.9841    2.1905 F   0  0  0  0  0  0  0  0  0  0  0  0
   -3.5732   26.2461    4.1828 C   0  0  0  0  0  0  0  0  0  0  0  0
   -2.4231   25.6265    4.4820 F   0  0  0  0  0  0  0  0  0  0  0  0
   -4.0685   27.2168    5.0501 C   0  0  0  0  0  0  0  0  0  0  0  0
   -5.9403   31.4566    8.1234 C   0  0  0  0  0  0  0  0  0  0  0  0
   -3.5419   30.9472    9.7944 C   0  0  0  0  0  0  0  0  0  0  0  0
   -3.6610   32.1938    8.8972 C   0  0  0  0  0  0  0  0  0  0  0  0
   -4.0943   33.3796    9.7926 C   0  0  0  0  0  0  0  0  0  0  0  0
   -4.8484   34.3365    8.8801 C   0  0  0  0  0  0  0  0  0  0  0  0
   -4.9804   33.6073    7.5552 C   0  0  0  0  0  0  0  0  0  0  0  0
   -4.6966   32.1892    7.8306 N   0  0  0  0  0  0  0  0  0  0  0  0
   -2.2627   32.5191    8.2693 C   0  0  0  0  0  0  0  0  0  0  0  0
   -1.3155   31.3401    7.9802 C   0  0  0  0  0  0  0  0  0  0  0  0
   -1.5003   30.6354    6.6459 C   0  0  0  0  0  0  0  0  0  0  0  0
   -2.6142   31.1697    5.9416 O   0  0  0  0  0  0  0  0  0  0  0  0
   -3.3999   31.0227    6.4950 H   0  0  0  0  0  0  0  0  0  0  0  0
 15 16  1  0  0  0
 16 21  1  0  0  0
 21 22  1  0  0  0
 22 23  1  0  0  0
 23 24  1  0  0  0
 16 17  1  0  0  0
 17 18  1  0  0  0
 18 19  1  0  0  0
 19 20  1  0  0  0
 20 14  1  0  0  0
 14  1  1  0  0  0
  1  2  2  0  0  0
  2  3  1  0  0  0
  3  4  1  0  0  0
  4  6  1  0  0  0
  6  7  1  0  0  0
  7  8  2  0  0  0
  8  9  1  0  0  0
  9 10  1  0  0  0
  9 11  2  0  0  0
 11 12  1  0  0  0
 11 13  1  0  0  0
  4  5  2  0  0  0
 20 16  1  0  0  0
  5  1  1  0  0  0
 13  6  2  0  0  0
 24 25  1  0  0  0
M  END
> <minimizedAffinity>
-8.12002

$$$$
OCNT-2310562


 30 33  0  0  0  0  0  0  0  0999 V2000
   -5.9674   30.1899    9.0349 C   0  0  0  0  0  0  0  0  0  0  0  0
   -5.4975   31.6612    9.0490 C   0  0  0  0  0  0  0  0  0  0  0  0
   -4.4217   31.9412    8.0013 C   0  0  0  0  0  0  0  0  0  0  0  0
   -3.2891   31.0340    8.1279 N   0  0  0  0  0  0  0  0  0  0  0  0
   -2.0768   31.4873    7.5869 C   0  0  0  0  0  0  0  0  0  0  0  0
   -1.9483   32.5763    7.0309 O   0  0  0  0  0  0  0  0  0  0  0  0
   -3.6308   29.6101    8.1371 C   0  0  0  0  0  0  0  0  0  0  0  0
   -4.7014   29.2960    9.1809 C   0  0  0  0  0  0  0  0  0  0  0  0
   -0.8723   30.6352    7.7155 C   0  0  0  0  0  0  0  0  0  0  0  0
   -0.3528   29.9624    6.6033 C   0  0  0  0  0  0  0  0  0  0  0  0
    0.7651   29.1409    6.7522 C   0  0  0  0  0  0  0  0  0  0  0  0
    1.3505   28.9809    8.0096 C   0  0  0  0  0  0  0  0  0  0  0  0
    0.8158   29.6326    9.1227 C   0  0  0  0  0  0  0  0  0  0  0  0
   -0.3021   30.4549    8.9793 C   0  0  0  0  0  0  0  0  0  0  0  0
   -6.6883   29.8077    7.7201 C   0  0  0  0  0  0  0  0  0  0  0  0
   -7.3279   30.6287    7.0651 O   0  0  0  0  0  0  0  0  0  0  0  0
   -6.5341   28.5074    7.3015 N   0  0  0  0  0  0  0  0  0  0  0  0
   -5.8528   27.9152    7.7520 H   0  0  0  0  0  0  0  0  0  0  0  0
   -7.0309   28.0547    6.0200 C   0  0  0  0  0  0  0  0  0  0  0  0
   -5.9005   27.5116    5.1803 C   0  0  0  0  0  0  0  0  0  0  0  0
   -6.0814   27.3310    3.7979 C   0  0  0  0  0  0  0  0  0  0  0  0
   -5.0501   26.8621    2.9764 C   0  0  0  0  0  0  0  0  0  0  0  0
   -3.8364   26.5903    3.5998 C   0  0  0  0  0  0  0  0  0  0  0  0
   -2.7138   26.1306    2.9805 O   0  0  0  0  0  0  0  0  0  0  0  0
   -1.7594   25.9995    3.9384 C   0  0  0  0  0  0  0  0  0  0  0  0
   -2.2523   26.3709    5.1684 C   0  0  0  0  0  0  0  0  0  0  0  0
   -3.6028   26.7568    4.9595 C   0  0  0  0  0  0  0  0  0  0  0  0
   -4.6513   27.2297    5.7699 C   0  0  0  0  0  0  0  0  0  0  0  0
   -6.3189   28.9982   11.3530 C   0  0  0  0  0  0  0  0  0  0  0  0
   -6.8955   29.8653   10.2408 C   0  0  0  0  0  0  0  0  0  0  0  0
 29 30  1  0  0  0
 30  1  1  0  0  0
  1 15  1  0  0  0
 15 16  2  0  0  0
 15 17  1  0  0  0
 17 19  1  0  0  0
 19 20  1  0  0  0
 20 21  2  0  0  0
 21 22  1  0  0  0
 22 23  2  0  0  0
 23 24  1  0  0  0
 24 25  1  0  0  0
 25 26  2  0  0  0
 26 27  1  0  0  0
 27 28  2  0  0  0
  1  2  1  0  0  0
  2  3  1  0  0  0
  3  4  1  0  0  0
  4  5  1  0  0  0
  5  6  2  0  0  0
  5  9  1  0  0  0
  9 10  2  0  0  0
 10 11  1  0  0  0
 11 12  2  0  0  0
 12 13  1  0  0  0
 13 14  2  0  0  0
  4  7  1  0  0  0
  7  8  1  0  0  0
  8  1  1  0  0  0
 28 20  1  0  0  0
 14  9  1  0  0  0
 27 23  1  0  0  0
 17 18  1  0  0  0
M  END
> <minimizedAffinity>
-9.92556

$$$$
OCNT-2310580


 29 32  0  0  0  0  0  0  0  0999 V2000
   -4.2600   28.3247    6.0402 C   0  0  0  0  0  0  0  0  0  0  0  0
   -5.5290   25.5941    2.8754 C   0  0  0  0  0  0  0  0  0  0  0  0
   -4.7247   25.1667    3.9430 C   0  0  0  0  0  0  0  0  0  0  0  0
   -4.3213   26.0362    4.9661 C   0  0  0  0  0  0  0  0  0  0  0  0
   -4.7072   27.3782    4.9532 C   0  0  0  0  0  0  0  0  0  0  0  0
   -5.5015   27.8279    3.8958 C   0  0  0  0  0  0  0  0  0  0  0  0
   -5.9006   26.9487    2.8802 C   0  0  0  0  0  0  0  0  0  0  0  0
   -8.2261   22.4948   -0.6141 O   0  0  0  0  0  0  0  0  0  0  0  0
   -6.9459   23.0580   -0.3238 C   0  0  0  0  0  0  0  0  0  0  0  0
   -7.0552   24.5794   -0.3295 C   0  0  0  0  0  0  0  0  0  0  0  0
   -5.9264   25.2209    0.4678 C   0  0  0  0  0  0  0  0  0  0  0  0
   -5.9273   24.7384    1.8538 N   0  0  0  0  0  0  0  0  0  0  0  0
   -6.6385   23.4890    2.1483 C   0  0  0  0  0  0  0  0  0  0  0  0
   -6.4447   22.4966    1.0049 C   0  0  0  0  0  0  0  0  0  0  0  0
   -8.5100   22.8380   -1.4791 H   0  0  0  0  0  0  0  0  0  0  0  0
   -2.8090   28.3834    6.2026 N   0  0  0  0  0  0  0  0  0  0  0  0
   -2.3620   27.8401    5.4674 H   0  0  0  0  0  0  0  0  0  0  0  0
   -2.3707   27.8792    7.4993 C   0  0  0  0  0  0  0  0  0  0  0  0
   -1.5709   28.9477    8.1600 C   0  0  0  0  0  0  0  0  0  0  0  0
   -0.1998   28.9272    8.3454 C   0  0  0  0  0  0  0  0  0  0  0  0
    0.1205   30.0753    8.9965 N   0  0  0  0  0  0  0  0  0  0  0  0
   -0.9347   30.8501    9.2651 N   0  0  0  0  0  0  0  0  0  0  0  0
   -1.9802   30.1838    8.7459 C   0  0  0  0  0  0  0  0  0  0  0  0
    1.0367   30.3936    9.2939 H   0  0  0  0  0  0  0  0  0  0  0  0
   -3.4290   30.8152    8.8478 C   0  0  0  0  0  0  0  0  0  0  0  0
   -3.7074   32.1022    8.4275 C   0  0  0  0  0  0  0  0  0  0  0  0
   -5.0758   32.4555    8.6129 C   0  0  0  0  0  0  0  0  0  0  0  0
   -5.7979   31.4235    9.1677 C   0  0  0  0  0  0  0  0  0  0  0  0
   -4.8243   30.0484    9.4579 S   0  0  0  0  0  0  0  0  0  0  0  0
  8  9  1  0  0  0
  9 10  1  0  0  0
 10 11  1  0  0  0
 11 12  1  0  0  0
 12  2  1  0  0  0
  2  3  1  0  0  0
  3  4  2  0  0  0
  4  5  1  0  0  0
  5  1  1  0  0  0
  1 16  1  0  0  0
 16 18  1  0  0  0
 18 19  1  0  0  0
 19 20  2  0  0  0
 20 21  1  0  0  0
 21 22  1  0  0  0
 22 23  2  0  0  0
 23 25  1  0  0  0
 25 26  2  0  0  0
 26 27  1  0  0  0
 27 28  2  0  0  0
 28 29  1  0  0  0
  5  6  2  0  0  0
  6  7  1  0  0  0
 12 13  1  0  0  0
 13 14  1  0  0  0
 14  9  1  0  0  0
  7  2  2  0  0  0
 23 19  1  0  0  0
 29 25  1  0  0  0
  8 15  1  0  0  0
 16 17  1  0  0  0
 21 24  1  0  0  0
M  END
> <minimizedAffinity>
-9.39350

$$$$
OCNT-2310581


 24 26  0  0  0  0  0  0  0  0999 V2000
   -6.8852   30.0740    6.4427 C   0  0  0  0  0  0  0  0  0  0  0  0
   -6.4969   29.0508    5.4075 C   0  0  0  0  0  0  0  0  0  0  0  0
   -6.1885   29.4310    4.0976 C   0  0  0  0  0  0  0  0  0  0  0  0
   -5.8038   28.4765    3.1461 C   0  0  0  0  0  0  0  0  0  0  0  0
   -5.7118   27.1162    3.4880 C   0  0  0  0  0  0  0  0  0  0  0  0
   -6.0128   26.7474    4.8045 C   0  0  0  0  0  0  0  0  0  0  0  0
   -5.9475   25.4769    5.2236 F   0  0  0  0  0  0  0  0  0  0  0  0
   -6.3967   27.6987    5.7517 C   0  0  0  0  0  0  0  0  0  0  0  0
   -5.3188   26.1541    2.5109 N   0  0  0  0  0  0  0  0  0  0  0  0
   -4.1068   25.5088    2.3816 C   0  0  0  0  0  0  0  0  0  0  0  0
   -4.2173   24.6801    1.2907 C   0  0  0  0  0  0  0  0  0  0  0  0
   -5.4547   24.7817    0.7311 N   0  0  0  0  0  0  0  0  0  0  0  0
   -6.0892   25.6621    1.4736 C   0  0  0  0  0  0  0  0  0  0  0  0
   -5.3390   30.4620    8.3321 C   0  0  0  0  0  0  0  0  0  0  0  0
   -6.0315   29.8217    9.1192 O   0  0  0  0  0  0  0  0  0  0  0  0
   -5.7174   30.6811    7.0253 N   0  0  0  0  0  0  0  0  0  0  0  0
   -5.0351   31.1311    6.4267 H   0  0  0  0  0  0  0  0  0  0  0  0
   -0.5502   30.3745    8.9515 C   0  0  0  0  0  0  0  0  0  0  0  0
   -1.8716   31.0316    8.9641 C   0  0  0  0  0  0  0  0  0  0  0  0
   -2.2950   32.3027    9.2783 C   0  0  0  0  0  0  0  0  0  0  0  0
   -3.7061   32.3227    9.0937 C   0  0  0  0  0  0  0  0  0  0  0  0
   -4.6196   33.4724    9.3086 C   0  0  0  0  0  0  0  0  0  0  0  0
   -4.0552   31.0469    8.6727 C   0  0  0  0  0  0  0  0  0  0  0  0
   -2.9313   30.2627    8.5959 O   0  0  0  0  0  0  0  0  0  0  0  0
 18 19  1  0  0  0
 19 20  2  0  0  0
 20 21  1  0  0  0
 21 22  1  0  0  0
 21 23  2  0  0  0
 23 14  1  0  0  0
 14 15  2  0  0  0
 14 16  1  0  0  0
 16  1  1  0  0  0
  1  2  1  0  0  0
  2  3  1  0  0  0
  3  4  2  0  0  0
  4  5  1  0  0  0
  5  9  1  0  0  0
  9 10  1  0  0  0
 10 11  2  0  0  0
 11 12  1  0  0  0
 12 13  2  0  0  0
  5  6  2  0  0  0
  6  7  1  0  0  0
  6  8  1  0  0  0
 23 24  1  0  0  0
 24 19  1  0  0  0
  8  2  2  0  0  0
 13  9  1  0  0  0
 16 17  1  0  0  0
M  END
> <minimizedAffinity>
-9.22149

$$$$
OCNT-2310583


 24 25  0  0  0  0  0  0  0  0999 V2000
   -4.1534   31.0461    8.4560 C   0  0  0  0  0  0  0  0  0  0  0  0
   -5.4267   31.8466    8.8080 C   0  0  0  0  0  0  0  0  0  0  0  0
   -6.2620   31.2210    9.7905 O   0  0  0  0  0  0  0  0  0  0  0  0
   -6.2765   29.7920    9.7193 C   0  0  0  0  0  0  0  0  0  0  0  0
   -5.8569   29.2259    8.3604 C   0  0  0  0  0  0  0  0  0  0  0  0
   -4.5193   29.6924    7.9753 N   0  0  0  0  0  0  0  0  0  0  0  0
   -3.7128   29.1122    7.0040 C   0  0  0  0  0  0  0  0  0  0  0  0
   -2.6918   29.6583    6.5953 O   0  0  0  0  0  0  0  0  0  0  0  0
   -4.1358   27.8866    6.5509 N   0  0  0  0  0  0  0  0  0  0  0  0
   -4.5473   27.2827    7.2444 H   0  0  0  0  0  0  0  0  0  0  0  0
   -3.5990   27.2430    5.4454 C   0  0  0  0  0  0  0  0  0  0  0  0
   -2.3451   26.6743    5.4847 C   0  0  0  0  0  0  0  0  0  0  0  0
   -2.1212   26.1575    4.2473 N   0  0  0  0  0  0  0  0  0  0  0  0
   -0.9277   25.4901    3.7856 C   0  0  0  0  0  0  0  0  0  0  0  0
   -3.1577   26.2985    3.4122 N   0  0  0  0  0  0  0  0  0  0  0  0
   -4.0988   26.9534    4.1349 C   0  0  0  0  0  0  0  0  0  0  0  0
   -5.4704   27.2080    3.5557 C   0  0  0  0  0  0  0  0  0  0  0  0
   -6.4616   26.7732    4.3925 F   0  0  0  0  0  0  0  0  0  0  0  0
   -5.7295   28.5331    3.3686 F   0  0  0  0  0  0  0  0  0  0  0  0
   -5.6825   26.5706    2.3743 F   0  0  0  0  0  0  0  0  0  0  0  0
   -3.1729   30.9361    9.6483 C   0  0  0  0  0  0  0  0  0  0  0  0
   -0.6932   30.6384    9.0885 C   0  0  0  0  0  0  0  0  0  0  0  0
   -1.8139   31.6267    9.4087 C   0  0  0  0  0  0  0  0  0  0  0  0
   -1.9435   32.6433    8.2708 C   0  0  0  0  0  0  0  0  0  0  0  0
 22 23  1  0  0  0
 23 24  1  0  0  0
 23 21  1  0  0  0
 21  1  1  0  0  0
  1  2  1  0  0  0
  2  3  1  0  0  0
  3  4  1  0  0  0
  4  5  1  0  0  0
  5  6  1  0  0  0
  6  7  1  0  0  0
  7  8  2  0  0  0
  7  9  1  0  0  0
  9 11  1  0  0  0
 11 12  2  0  0  0
 12 13  1  0  0  0
 13 14  1  0  0  0
 13 15  1  0  0  0
 15 16  2  0  0  0
 16 17  1  0  0  0
 17 18  1  0  0  0
 17 19  1  0  0  0
 17 20  1  0  0  0
  6  1  1  0  0  0
 16 11  1  0  0  0
  9 10  1  0  0  0
M  END
> <minimizedAffinity>
-8.57191

$$$$
OCNT-2310598


 23 26  0  0  0  0  0  0  0  0999 V2000
   -1.5446   27.2684    5.6781 N   0  0  0  0  0  0  0  0  0  0  0  0
   -1.2088   26.0263    4.9585 C   0  0  0  0  0  0  0  0  0  0  0  0
   -2.1724   25.7543    3.7820 C   0  0  0  0  0  0  0  0  0  0  0  0
   -3.5823   25.7490    4.2296 N   0  0  0  0  0  0  0  0  0  0  0  0
   -3.9453   26.9420    5.0197 C   0  0  0  0  0  0  0  0  0  0  0  0
   -2.9332   27.1886    6.1638 C   0  0  0  0  0  0  0  0  0  0  0  0
   -4.4852   25.2396    3.3289 C   0  0  0  0  0  0  0  0  0  0  0  0
   -4.6924   25.7755    2.1402 N   0  0  0  0  0  0  0  0  0  0  0  0
   -5.6319   25.0533    1.4322 C   0  0  0  0  0  0  0  0  0  0  0  0
   -6.1223   25.3121    0.1413 C   0  0  0  0  0  0  0  0  0  0  0  0
   -7.0782   24.4418   -0.3823 C   0  0  0  0  0  0  0  0  0  0  0  0
   -7.4991   23.3671    0.3888 C   0  0  0  0  0  0  0  0  0  0  0  0
   -7.0618   23.0713    1.6331 N   0  0  0  0  0  0  0  0  0  0  0  0
   -6.1381   23.9430    2.0927 C   0  0  0  0  0  0  0  0  0  0  0  0
   -5.4205   23.8021    3.6228 S   0  0  0  0  0  0  0  0  0  0  0  0
   -0.5772   27.6091    6.7324 C   0  0  0  0  0  0  0  0  0  0  0  0
    0.1543   28.9592    6.6174 C   0  0  0  0  0  0  0  0  0  0  0  0
   -1.9446   32.1168    8.6769 C   0  0  0  0  0  0  0  0  0  0  0  0
   -1.0492   31.3058    9.3718 C   0  0  0  0  0  0  0  0  0  0  0  0
   -0.3736   30.2809    8.7077 C   0  0  0  0  0  0  0  0  0  0  0  0
   -0.5917   30.0559    7.3418 C   0  0  0  0  0  0  0  0  0  0  0  0
   -1.4899   30.8805    6.6510 C   0  0  0  0  0  0  0  0  0  0  0  0
   -2.1644   31.9048    7.3172 C   0  0  0  0  0  0  0  0  0  0  0  0
 18 19  2  0  0  0
 19 20  1  0  0  0
 20 21  2  0  0  0
 21 17  1  0  0  0
 17 16  1  0  0  0
 16  1  1  0  0  0
  1  2  1  0  0  0
  2  3  1  0  0  0
  3  4  1  0  0  0
  4  7  1  0  0  0
  7  8  2  0  0  0
  8  9  1  0  0  0
  9 10  1  0  0  0
 10 11  2  0  0  0
 11 12  1  0  0  0
 12 13  2  0  0  0
 13 14  1  0  0  0
 14 15  1  0  0  0
  4  5  1  0  0  0
  5  6  1  0  0  0
 21 22  1  0  0  0
 22 23  2  0  0  0
 23 18  1  0  0  0
  6  1  1  0  0  0
 15  7  1  0  0  0
 14  9  2  0  0  0
M  END
> <minimizedAffinity>
-9.35871

$$$$
OCNT-2310605


 25 27  0  0  0  0  0  0  0  0999 V2000
   -5.0562   29.8991    7.8569 C   0  0  0  0  0  0  0  0  0  0  0  0
   -5.5341   28.9543    8.4785 O   0  0  0  0  0  0  0  0  0  0  0  0
   -5.5419   30.2927    6.6329 N   0  0  0  0  0  0  0  0  0  0  0  0
   -5.1790   31.1534    6.2374 H   0  0  0  0  0  0  0  0  0  0  0  0
   -3.9471   32.0164    8.8294 C   0  0  0  0  0  0  0  0  0  0  0  0
   -2.7857   32.6214    9.3370 C   0  0  0  0  0  0  0  0  0  0  0  0
   -1.5999   31.8942    9.4595 C   0  0  0  0  0  0  0  0  0  0  0  0
   -1.5679   30.5632    9.0735 C   0  0  0  0  0  0  0  0  0  0  0  0
   -0.4289   29.8699    9.1936 F   0  0  0  0  0  0  0  0  0  0  0  0
   -2.6976   29.9440    8.5603 C   0  0  0  0  0  0  0  0  0  0  0  0
   -3.8976   30.6630    8.4235 C   0  0  0  0  0  0  0  0  0  0  0  0
   -5.1184   33.9312    8.0017 C   0  0  0  0  0  0  0  0  0  0  0  0
   -5.1386   32.6855    8.6929 O   0  0  0  0  0  0  0  0  0  0  0  0
   -6.7311   29.7166    6.0542 C   0  0  0  0  0  0  0  0  0  0  0  0
   -6.3881   28.5768    5.1404 C   0  0  0  0  0  0  0  0  0  0  0  0
   -6.0561   28.7802    3.7999 C   0  0  0  0  0  0  0  0  0  0  0  0
   -5.7613   27.6895    2.9798 C   0  0  0  0  0  0  0  0  0  0  0  0
   -5.8135   26.4096    3.5261 C   0  0  0  0  0  0  0  0  0  0  0  0
   -6.1434   26.1885    4.8246 N   0  0  0  0  0  0  0  0  0  0  0  0
   -6.4252   27.2649    5.5950 C   0  0  0  0  0  0  0  0  0  0  0  0
   -5.5227   25.2682    2.7278 N   0  0  0  0  0  0  0  0  0  0  0  0
   -6.1625   24.0483    2.8051 C   0  0  0  0  0  0  0  0  0  0  0  0
   -5.5704   23.2477    1.8595 C   0  0  0  0  0  0  0  0  0  0  0  0
   -4.5852   23.9273    1.1978 N   0  0  0  0  0  0  0  0  0  0  0  0
   -4.5777   25.1280    1.7370 C   0  0  0  0  0  0  0  0  0  0  0  0
 12 13  1  0  0  0
 13  5  1  0  0  0
  5  6  1  0  0  0
  6  7  2  0  0  0
  7  8  1  0  0  0
  8  9  1  0  0  0
  8 10  2  0  0  0
 10 11  1  0  0  0
 11  1  1  0  0  0
  1  2  2  0  0  0
  1  3  1  0  0  0
  3 14  1  0  0  0
 14 15  1  0  0  0
 15 16  2  0  0  0
 16 17  1  0  0  0
 17 18  2  0  0  0
 18 21  1  0  0  0
 21 22  1  0  0  0
 22 23  2  0  0  0
 23 24  1  0  0  0
 24 25  2  0  0  0
 18 19  1  0  0  0
 19 20  2  0  0  0
 11  5  2  0  0  0
 20 15  1  0  0  0
 25 21  1  0  0  0
  3  4  1  0  0  0
M  END
> <minimizedAffinity>
-8.87209

$$$$
OCNT-2310606


 25 27  0  0  0  0  0  0  0  0999 V2000
   -6.4586   24.3500   -0.5989 C   0  0  0  0  0  0  0  0  0  0  0  0
   -5.4866   25.3384    1.4293 C   0  0  0  0  0  0  0  0  0  0  0  0
   -4.3975   24.8110    1.2353 O   0  0  0  0  0  0  0  0  0  0  0  0
   -6.5575   25.2213    0.5635 N   0  0  0  0  0  0  0  0  0  0  0  0
   -7.4807   25.4000    0.9360 H   0  0  0  0  0  0  0  0  0  0  0  0
   -6.4221   28.2172    6.3876 C   0  0  0  0  0  0  0  0  0  0  0  0
   -6.1764   27.5049    5.0871 C   0  0  0  0  0  0  0  0  0  0  0  0
   -6.0662   26.1060    5.0780 C   0  0  0  0  0  0  0  0  0  0  0  0
   -5.8385   25.4179    3.8837 C   0  0  0  0  0  0  0  0  0  0  0  0
   -5.7255   26.1157    2.6768 C   0  0  0  0  0  0  0  0  0  0  0  0
   -5.8150   27.5113    2.6757 C   0  0  0  0  0  0  0  0  0  0  0  0
   -6.0439   28.1970    3.8731 C   0  0  0  0  0  0  0  0  0  0  0  0
   -6.1540   29.9210    3.8029 Cl  0  0  0  0  0  0  0  0  0  0  0  0
   -7.1966   23.0292   -0.3937 C   0  0  0  0  0  0  0  0  0  0  0  0
   -6.8444   22.3847    0.9036 C   0  0  0  0  0  0  0  0  0  0  0  0
   -7.4812   22.7330    2.0248 N   0  0  0  0  0  0  0  0  0  0  0  0
   -6.9424   21.9556    3.0017 N   0  0  0  0  0  0  0  0  0  0  0  0
   -5.9556   21.1389    2.4903 C   0  0  0  0  0  0  0  0  0  0  0  0
   -5.8727   21.3941    1.1429 C   0  0  0  0  0  0  0  0  0  0  0  0
   -7.4059   22.0397    4.3450 C   0  0  0  0  0  0  0  0  0  0  0  0
   -6.4738   22.1215    5.3921 C   0  0  0  0  0  0  0  0  0  0  0  0
   -6.9069   22.2142    6.7166 C   0  0  0  0  0  0  0  0  0  0  0  0
   -8.2693   22.2250    7.0062 C   0  0  0  0  0  0  0  0  0  0  0  0
   -9.2012   22.1410    5.9730 C   0  0  0  0  0  0  0  0  0  0  0  0
   -8.7756   22.0488    4.6437 C   0  0  0  0  0  0  0  0  0  0  0  0
  6  7  1  0  0  0
  7  8  1  0  0  0
  8  9  2  0  0  0
  9 10  1  0  0  0
 10  2  1  0  0  0
  2  3  2  0  0  0
  2  4  1  0  0  0
  4  1  1  0  0  0
  1 14  1  0  0  0
 14 15  1  0  0  0
 15 16  2  0  0  0
 16 17  1  0  0  0
 17 20  1  0  0  0
 20 21  2  0  0  0
 21 22  1  0  0  0
 22 23  2  0  0  0
 23 24  1  0  0  0
 24 25  2  0  0  0
 17 18  1  0  0  0
 18 19  2  0  0  0
 10 11  2  0  0  0
 11 12  1  0  0  0
 12 13  1  0  0  0
 12  7  2  0  0  0
 19 15  1  0  0  0
 25 20  1  0  0  0
  4  5  1  0  0  0
M  END
> <minimizedAffinity>
-9.48667

$$$$
OCNT-2310611


 29 31  0  0  0  0  0  0  0  0999 V2000
   -4.9680   26.5417    4.7468 C   0  0  0  0  0  0  0  0  0  0  0  0
   -4.0034   25.9148    5.1778 O   0  0  0  0  0  0  0  0  0  0  0  0
   -5.9114   26.0069    3.8953 N   0  0  0  0  0  0  0  0  0  0  0  0
   -6.5109   26.6666    3.4014 H   0  0  0  0  0  0  0  0  0  0  0  0
   -5.8169   24.6376    3.4082 C   0  0  0  0  0  0  0  0  0  0  0  0
   -6.6306   23.7106    4.3137 C   0  0  0  0  0  0  0  0  0  0  0  0
   -6.7839   22.3192    3.6928 C   0  0  0  0  0  0  0  0  0  0  0  0
   -7.7050   21.4765    4.5883 C   0  0  0  0  0  0  0  0  0  0  0  0
   -5.4486   21.5747    3.5394 C   0  0  0  0  0  0  0  0  0  0  0  0
   -7.4398   22.3915    2.4166 O   0  0  0  0  0  0  0  0  0  0  0  0
   -7.0487   23.4015    1.5798 C   0  0  0  0  0  0  0  0  0  0  0  0
   -7.4844   23.2763    0.2583 C   0  0  0  0  0  0  0  0  0  0  0  0
   -7.1256   24.2270   -0.6952 C   0  0  0  0  0  0  0  0  0  0  0  0
   -6.3215   25.3020   -0.3291 C   0  0  0  0  0  0  0  0  0  0  0  0
   -5.8929   25.4340    0.9936 C   0  0  0  0  0  0  0  0  0  0  0  0
   -6.2769   24.5012    1.9750 C   0  0  0  0  0  0  0  0  0  0  0  0
   -5.1653   28.0301    5.0281 C   0  0  0  0  0  0  0  0  0  0  0  0
   -4.2526   28.9808    7.0988 C   0  0  0  0  0  0  0  0  0  0  0  0
   -5.3536   28.9496    7.6419 O   0  0  0  0  0  0  0  0  0  0  0  0
   -4.0484   28.5215    5.8145 N   0  0  0  0  0  0  0  0  0  0  0  0
   -3.2429   28.8519    5.2982 H   0  0  0  0  0  0  0  0  0  0  0  0
   -0.6895   29.9004    8.0882 C   0  0  0  0  0  0  0  0  0  0  0  0
   -0.9388   30.7948    9.1313 C   0  0  0  0  0  0  0  0  0  0  0  0
   -2.2530   31.0796    9.5125 C   0  0  0  0  0  0  0  0  0  0  0  0
   -3.3221   30.4790    8.8462 C   0  0  0  0  0  0  0  0  0  0  0  0
   -3.0827   29.5935    7.7885 C   0  0  0  0  0  0  0  0  0  0  0  0
   -1.7634   29.2981    7.4230 C   0  0  0  0  0  0  0  0  0  0  0  0
    0.6604   29.2920    6.2275 C   0  0  0  0  0  0  0  0  0  0  0  0
    0.5427   29.5299    7.6244 O   0  0  0  0  0  0  0  0  0  0  0  0
 28 29  1  0  0  0
 29 22  1  0  0  0
 22 23  1  0  0  0
 23 24  2  0  0  0
 24 25  1  0  0  0
 25 26  2  0  0  0
 26 18  1  0  0  0
 18 19  2  0  0  0
 18 20  1  0  0  0
 20 17  1  0  0  0
 17  1  1  0  0  0
  1  2  2  0  0  0
  1  3  1  0  0  0
  3  5  1  0  0  0
  5  6  1  0  0  0
  6  7  1  0  0  0
  7  8  1  0  0  0
  7  9  1  0  0  0
  7 10  1  0  0  0
 10 11  1  0  0  0
 11 12  2  0  0  0
 12 13  1  0  0  0
 13 14  2  0  0  0
 14 15  1  0  0  0
 15 16  2  0  0  0
 26 27  1  0  0  0
 27 22  2  0  0  0
 16  5  1  0  0  0
 16 11  1  0  0  0
 20 21  1  0  0  0
  3  4  1  0  0  0
M  END
> <minimizedAffinity>
-10.08980

$$$$
OCNT-2310613


 24 26  0  0  0  0  0  0  0  0999 V2000
   -5.4673   29.3678    6.3245 O   0  0  0  0  0  0  0  0  0  0  0  0
   -4.4250   28.7212    6.2886 C   0  0  0  0  0  0  0  0  0  0  0  0
   -4.3063   27.5296    5.6064 N   0  0  0  0  0  0  0  0  0  0  0  0
   -3.3850   27.1188    5.4956 H   0  0  0  0  0  0  0  0  0  0  0  0
   -3.2227   29.2306    7.0061 C   0  0  0  0  0  0  0  0  0  0  0  0
   -2.4128   28.3022    7.6862 C   0  0  0  0  0  0  0  0  0  0  0  0
   -1.2720   28.7236    8.3753 C   0  0  0  0  0  0  0  0  0  0  0  0
   -0.9397   30.0734    8.3865 C   0  0  0  0  0  0  0  0  0  0  0  0
    0.1541   30.4745    9.0475 F   0  0  0  0  0  0  0  0  0  0  0  0
   -1.7322   30.9989    7.7208 C   0  0  0  0  0  0  0  0  0  0  0  0
   -1.4042   32.2987    7.7393 F   0  0  0  0  0  0  0  0  0  0  0  0
   -2.8681   30.5818    7.0344 C   0  0  0  0  0  0  0  0  0  0  0  0
   -3.6142   31.5061    6.4077 F   0  0  0  0  0  0  0  0  0  0  0  0
   -5.3787   27.0185    4.7566 C   0  0  0  0  0  0  0  0  0  0  0  0
   -5.6074   25.5217    4.9982 C   0  0  0  0  0  0  0  0  0  0  0  0
   -4.8793   24.6679    3.9633 C   0  0  0  0  0  0  0  0  0  0  0  0
   -5.2701   24.9626    2.5795 N   0  0  0  0  0  0  0  0  0  0  0  0
   -5.7715   26.3230    2.3649 C   0  0  0  0  0  0  0  0  0  0  0  0
   -5.0851   27.3299    3.2839 C   0  0  0  0  0  0  0  0  0  0  0  0
   -6.0465   23.8912    1.9513 C   0  0  0  0  0  0  0  0  0  0  0  0
   -6.6156   24.1718    0.5551 C   0  0  0  0  0  0  0  0  0  0  0  0
   -7.0296   22.7973    0.0268 C   0  0  0  0  0  0  0  0  0  0  0  0
   -6.2832   21.7658    0.8742 C   0  0  0  0  0  0  0  0  0  0  0  0
   -5.3093   22.5654    1.7329 C   0  0  0  0  0  0  0  0  0  0  0  0
  1  2  2  0  0  0
  2  3  1  0  0  0
  3 14  1  0  0  0
 14 15  1  0  0  0
 15 16  1  0  0  0
 16 17  1  0  0  0
 17 20  1  0  0  0
 20 21  1  0  0  0
 21 22  1  0  0  0
 22 23  1  0  0  0
 23 24  1  0  0  0
 17 18  1  0  0  0
 18 19  1  0  0  0
  2  5  1  0  0  0
  5  6  1  0  0  0
  6  7  2  0  0  0
  7  8  1  0  0  0
  8  9  1  0  0  0
  8 10  2  0  0  0
 10 11  1  0  0  0
 10 12  1  0  0  0
 12 13  1  0  0  0
 19 14  1  0  0  0
 12  5  2  0  0  0
 24 20  1  0  0  0
  3  4  1  0  0  0
M  END
> <minimizedAffinity>
-9.36949

$$$$
OCNT-2310624


 33 37  0  0  0  0  0  0  0  0999 V2000
   -5.6955   26.7414    3.9232 C   0  0  0  0  0  0  0  0  0  0  0  0
   -5.5947   27.7754    2.9847 C   0  0  0  0  0  0  0  0  0  0  0  0
   -6.0401   29.0555    3.3150 C   0  0  0  0  0  0  0  0  0  0  0  0
   -6.5839   29.3050    4.5782 C   0  0  0  0  0  0  0  0  0  0  0  0
   -6.6943   28.2752    5.5268 C   0  0  0  0  0  0  0  0  0  0  0  0
   -6.2499   26.9883    5.1857 C   0  0  0  0  0  0  0  0  0  0  0  0
   -4.8757   24.6157    4.4981 O   0  0  0  0  0  0  0  0  0  0  0  0
   -5.2460   25.3634    3.6026 C   0  0  0  0  0  0  0  0  0  0  0  0
   -5.2541   25.0265    2.2695 N   0  0  0  0  0  0  0  0  0  0  0  0
   -5.3499   25.7575    1.5771 H   0  0  0  0  0  0  0  0  0  0  0  0
   -4.6881   23.7723    1.8382 C   0  0  0  0  0  0  0  0  0  0  0  0
   -5.6971   22.7022    2.0798 C   0  0  0  0  0  0  0  0  0  0  0  0
   -5.4548   21.4347    2.5802 C   0  0  0  0  0  0  0  0  0  0  0  0
   -6.6450   20.7576    2.6497 N   0  0  0  0  0  0  0  0  0  0  0  0
   -7.6526   21.5625    2.1891 C   0  0  0  0  0  0  0  0  0  0  0  0
   -7.0986   22.7721    1.8302 C   0  0  0  0  0  0  0  0  0  0  0  0
   -6.7599   19.8108    2.9917 H   0  0  0  0  0  0  0  0  0  0  0  0
   -7.2449   28.5487    6.9046 C   0  0  0  0  0  0  0  0  0  0  0  0
   -6.1935   28.9647    7.8136 N   0  0  0  0  0  0  0  0  0  0  0  0
   -4.9891   29.5288    7.5046 C   0  0  0  0  0  0  0  0  0  0  0  0
   -4.3893   29.7176    8.7309 C   0  0  0  0  0  0  0  0  0  0  0  0
   -5.2438   29.3032    9.7178 N   0  0  0  0  0  0  0  0  0  0  0  0
   -6.3495   28.8439    9.1444 N   0  0  0  0  0  0  0  0  0  0  0  0
   -3.0679   30.2793    8.9619 C   0  0  0  0  0  0  0  0  0  0  0  0
   -2.9795   31.4975    9.6633 C   0  0  0  0  0  0  0  0  0  0  0  0
   -1.7428   32.0828    9.9260 C   0  0  0  0  0  0  0  0  0  0  0  0
   -0.5778   31.4600    9.4904 C   0  0  0  0  0  0  0  0  0  0  0  0
   -0.6348   30.2443    8.7872 C   0  0  0  0  0  0  0  0  0  0  0  0
    0.5313   29.6118    8.3426 C   0  0  0  0  0  0  0  0  0  0  0  0
    0.5662   28.4488    7.6543 N   0  0  0  0  0  0  0  0  0  0  0  0
   -0.6245   27.8771    7.3940 C   0  0  0  0  0  0  0  0  0  0  0  0
   -1.8431   28.4159    7.7851 C   0  0  0  0  0  0  0  0  0  0  0  0
   -1.8795   29.6304    8.5090 C   0  0  0  0  0  0  0  0  0  0  0  0
  7  8  2  0  0  0
  8  9  1  0  0  0
  9 11  1  0  0  0
 11 12  1  0  0  0
 12 13  2  0  0  0
 13 14  1  0  0  0
 14 15  1  0  0  0
 15 16  2  0  0  0
  8  1  1  0  0  0
  1  2  1  0  0  0
  2  3  2  0  0  0
  3  4  1  0  0  0
  4  5  2  0  0  0
  5 18  1  0  0  0
 18 19  1  0  0  0
 19 20  1  0  0  0
 20 21  2  0  0  0
 21 24  1  0  0  0
 24 25  2  0  0  0
 25 26  1  0  0  0
 26 27  2  0  0  0
 27 28  1  0  0  0
 28 29  2  0  0  0
 29 30  1  0  0  0
 30 31  2  0  0  0
 31 32  1  0  0  0
 32 33  2  0  0  0
 21 22  1  0  0  0
 22 23  2  0  0  0
  5  6  1  0  0  0
 16 12  1  0  0  0
  6  1  2  0  0  0
 23 19  1  0  0  0
 33 24  1  0  0  0
 33 28  1  0  0  0
  9 10  1  0  0  0
 14 17  1  0  0  0
M  END
> <minimizedAffinity>
-11.28009

$$$$
OCNT-2310627


 29 31  0  0  0  0  0  0  0  0999 V2000
   -5.3815   30.9792    7.9664 C   0  0  0  0  0  0  0  0  0  0  0  0
   -5.9398   30.4576    8.9252 O   0  0  0  0  0  0  0  0  0  0  0  0
   -5.7421   30.7309    6.6603 N   0  0  0  0  0  0  0  0  0  0  0  0
   -5.4004   31.3493    5.9372 H   0  0  0  0  0  0  0  0  0  0  0  0
   -1.6286   30.6130    8.0576 N   0  0  0  0  0  0  0  0  0  0  0  0
   -2.4527   30.6866    6.8211 C   0  0  0  0  0  0  0  0  0  0  0  0
   -3.3137   31.9468    6.8732 C   0  0  0  0  0  0  0  0  0  0  0  0
   -4.2210   31.9632    8.1097 C   0  0  0  0  0  0  0  0  0  0  0  0
   -3.4031   31.6977    9.3805 C   0  0  0  0  0  0  0  0  0  0  0  0
   -2.5003   30.4692    9.2611 C   0  0  0  0  0  0  0  0  0  0  0  0
   -1.2614   28.1433    8.4310 N   0  0  0  0  0  0  0  0  0  0  0  0
   -0.3705   29.4777    8.0103 S   0  0  0  0  0  0  0  0  0  0  0  0
    0.5463   29.7548    9.0852 O   0  0  0  0  0  0  0  0  0  0  0  0
    0.0367   29.2805    6.6433 O   0  0  0  0  0  0  0  0  0  0  0  0
   -1.9583   27.9200    7.7268 H   0  0  0  0  0  0  0  0  0  0  0  0
   -1.5505   28.1281    9.4014 H   0  0  0  0  0  0  0  0  0  0  0  0
   -6.8837   29.9040    6.3362 C   0  0  0  0  0  0  0  0  0  0  0  0
   -6.5086   28.8418    5.3363 C   0  0  0  0  0  0  0  0  0  0  0  0
   -6.1672   29.1890    4.0246 C   0  0  0  0  0  0  0  0  0  0  0  0
   -5.7927   28.2100    3.0950 C   0  0  0  0  0  0  0  0  0  0  0  0
   -5.7452   26.8545    3.4608 C   0  0  0  0  0  0  0  0  0  0  0  0
   -6.0799   26.5178    4.7778 C   0  0  0  0  0  0  0  0  0  0  0  0
   -6.0545   25.2546    5.2223 F   0  0  0  0  0  0  0  0  0  0  0  0
   -6.4535   27.4947    5.7045 C   0  0  0  0  0  0  0  0  0  0  0  0
   -5.3621   25.8655    2.5072 N   0  0  0  0  0  0  0  0  0  0  0  0
   -4.2459   25.0552    2.5147 C   0  0  0  0  0  0  0  0  0  0  0  0
   -4.3202   24.2742    1.3861 C   0  0  0  0  0  0  0  0  0  0  0  0
   -5.4423   24.5653    0.6716 N   0  0  0  0  0  0  0  0  0  0  0  0
   -6.0446   25.5111    1.3584 C   0  0  0  0  0  0  0  0  0  0  0  0
 11 12  1  0  0  0
 12 13  2  0  0  0
 12 14  2  0  0  0
 12  5  1  0  0  0
  5  6  1  0  0  0
  6  7  1  0  0  0
  7  8  1  0  0  0
  8  1  1  0  0  0
  1  2  2  0  0  0
  1  3  1  0  0  0
  3 17  1  0  0  0
 17 18  1  0  0  0
 18 19  1  0  0  0
 19 20  2  0  0  0
 20 21  1  0  0  0
 21 25  1  0  0  0
 25 26  1  0  0  0
 26 27  2  0  0  0
 27 28  1  0  0  0
 28 29  2  0  0  0
 21 22  2  0  0  0
 22 23  1  0  0  0
 22 24  1  0  0  0
  8  9  1  0  0  0
  9 10  1  0  0  0
 10  5  1  0  0  0
 24 18  2  0  0  0
 29 25  1  0  0  0
 11 15  1  0  0  0
 11 16  1  0  0  0
  3  4  1  0  0  0
M  END
> <minimizedAffinity>
-9.56633

$$$$
OCNT-2310632


 26 30  0  0  0  0  0  0  0  0999 V2000
   -5.8906   26.6378    3.6559 C   0  0  0  0  0  0  0  0  0  0  0  0
   -5.9108   27.5932    2.7139 N   0  0  0  0  0  0  0  0  0  0  0  0
   -5.9489   28.7775    3.4465 O   0  0  0  0  0  0  0  0  0  0  0  0
   -5.9491   28.4299    4.7708 C   0  0  0  0  0  0  0  0  0  0  0  0
   -5.9152   27.1230    4.9447 N   0  0  0  0  0  0  0  0  0  0  0  0
   -5.6910   24.2875    4.5726 C   0  0  0  0  0  0  0  0  0  0  0  0
   -5.6504   22.9582    4.3748 C   0  0  0  0  0  0  0  0  0  0  0  0
   -5.7574   22.4654    3.0813 N   0  0  0  0  0  0  0  0  0  0  0  0
   -5.7446   21.1746    2.6177 C   0  0  0  0  0  0  0  0  0  0  0  0
   -5.8726   21.1172    1.3089 N   0  0  0  0  0  0  0  0  0  0  0  0
   -5.9731   22.4247    0.8990 C   0  0  0  0  0  0  0  0  0  0  0  0
   -5.9054   23.2808    1.9738 C   0  0  0  0  0  0  0  0  0  0  0  0
   -5.9494   24.6883    2.1787 C   0  0  0  0  0  0  0  0  0  0  0  0
   -5.8480   25.2112    3.4291 C   0  0  0  0  0  0  0  0  0  0  0  0
   -5.9861   29.3854    5.8355 C   0  0  0  0  0  0  0  0  0  0  0  0
   -7.0574   29.7408    6.6395 C   0  0  0  0  0  0  0  0  0  0  0  0
   -6.5958   30.7243    7.5467 C   0  0  0  0  0  0  0  0  0  0  0  0
   -5.2620   30.9178    7.2587 C   0  0  0  0  0  0  0  0  0  0  0  0
   -4.8925   30.1197    6.2163 O   0  0  0  0  0  0  0  0  0  0  0  0
   -4.2079   31.8068    7.8326 C   0  0  0  0  0  0  0  0  0  0  0  0
   -3.7237   31.3423    9.1432 N   0  0  0  0  0  0  0  0  0  0  0  0
   -3.2202   29.9627    9.0788 C   0  0  0  0  0  0  0  0  0  0  0  0
   -1.8694   29.8287    8.3711 C   0  0  0  0  0  0  0  0  0  0  0  0
   -0.8269   30.7528    8.9914 C   0  0  0  0  0  0  0  0  0  0  0  0
   -1.3501   32.1824    9.0853 C   0  0  0  0  0  0  0  0  0  0  0  0
   -2.7247   32.2283    9.7579 C   0  0  0  0  0  0  0  0  0  0  0  0
  6  7  2  0  0  0
  7  8  1  0  0  0
  8  9  1  0  0  0
  9 10  2  0  0  0
 10 11  1  0  0  0
 11 12  2  0  0  0
 12 13  1  0  0  0
 13 14  2  0  0  0
 14  1  1  0  0  0
  1  2  2  0  0  0
  2  3  1  0  0  0
  3  4  1  0  0  0
  4 15  1  0  0  0
 15 16  2  0  0  0
 16 17  1  0  0  0
 17 18  2  0  0  0
 18 20  1  0  0  0
 20 21  1  0  0  0
 21 22  1  0  0  0
 22 23  1  0  0  0
 23 24  1  0  0  0
 24 25  1  0  0  0
 25 26  1  0  0  0
 18 19  1  0  0  0
  4  5  2  0  0  0
 14  6  1  0  0  0
  5  1  1  0  0  0
 12  8  1  0  0  0
 19 15  1  0  0  0
 26 21  1  0  0  0
M  END
> <minimizedAffinity>
-9.56612

$$$$
OCNT-2310634


 28 31  0  0  0  0  0  0  0  0999 V2000
   -4.4016   30.3335    9.4448 C   0  0  0  0  0  0  0  0  0  0  0  0
   -3.9381   30.4755    7.9892 C   0  0  0  0  0  0  0  0  0  0  0  0
   -5.0952   30.6873    6.9799 C   0  0  0  0  0  0  0  0  0  0  0  0
   -5.0613   29.2429    6.7594 N   0  0  0  0  0  0  0  0  0  0  0  0
   -5.6364   28.5919    5.6864 C   0  0  0  0  0  0  0  0  0  0  0  0
   -6.4527   29.1548    4.9646 O   0  0  0  0  0  0  0  0  0  0  0  0
   -5.1982   27.2909    5.5612 N   0  0  0  0  0  0  0  0  0  0  0  0
   -3.7232   29.0928    7.3193 C   0  0  0  0  0  0  0  0  0  0  0  0
   -4.6647   26.9495    6.3450 H   0  0  0  0  0  0  0  0  0  0  0  0
   -5.5275   26.3564    4.5614 C   0  0  0  0  0  0  0  0  0  0  0  0
   -5.3160   26.5642    3.2023 C   0  0  0  0  0  0  0  0  0  0  0  0
   -5.6618   25.5740    2.2795 C   0  0  0  0  0  0  0  0  0  0  0  0
   -6.2107   24.3594    2.6998 C   0  0  0  0  0  0  0  0  0  0  0  0
   -6.4945   23.4889    1.6799 O   0  0  0  0  0  0  0  0  0  0  0  0
   -6.3038   22.1134    2.0124 C   0  0  0  0  0  0  0  0  0  0  0  0
   -7.5602   21.5190    2.6563 C   0  0  0  0  0  0  0  0  0  0  0  0
   -8.1396   22.3036    3.7532 N   0  0  0  0  0  0  0  0  0  0  0  0
   -7.1103   22.8838    4.6149 C   0  0  0  0  0  0  0  0  0  0  0  0
   -6.4699   24.1383    4.0601 C   0  0  0  0  0  0  0  0  0  0  0  0
   -6.0973   25.1444    4.9781 C   0  0  0  0  0  0  0  0  0  0  0  0
   -8.6725   23.0759    3.3477 H   0  0  0  0  0  0  0  0  0  0  0  0
   -2.7160   31.3882    7.8148 C   0  0  0  0  0  0  0  0  0  0  0  0
   -1.4181   30.6167    7.7893 C   0  0  0  0  0  0  0  0  0  0  0  0
   -0.8699   30.1898    6.5719 C   0  0  0  0  0  0  0  0  0  0  0  0
    0.3228   29.4655    6.5446 C   0  0  0  0  0  0  0  0  0  0  0  0
    0.9833   29.1642    7.7329 C   0  0  0  0  0  0  0  0  0  0  0  0
    0.4530   29.5891    8.9485 C   0  0  0  0  0  0  0  0  0  0  0  0
   -0.7402   30.3127    8.9773 C   0  0  0  0  0  0  0  0  0  0  0  0
  1  2  1  0  0  0
  2 22  1  0  0  0
 22 23  1  0  0  0
 23 24  2  0  0  0
 24 25  1  0  0  0
 25 26  2  0  0  0
 26 27  1  0  0  0
 27 28  2  0  0  0
  2  3  1  0  0  0
  3  4  1  0  0  0
  4  5  1  0  0  0
  5  6  2  0  0  0
  5  7  1  0  0  0
  7 10  1  0  0  0
 10 11  1  0  0  0
 11 12  2  0  0  0
 12 13  1  0  0  0
 13 14  1  0  0  0
 14 15  1  0  0  0
 15 16  1  0  0  0
 16 17  1  0  0  0
 17 18  1  0  0  0
 18 19  1  0  0  0
 19 20  1  0  0  0
  4  8  1  0  0  0
  8  2  1  0  0  0
 28 23  1  0  0  0
 20 10  2  0  0  0
 19 13  2  0  0  0
  7  9  1  0  0  0
 17 21  1  0  0  0
M  END
> <minimizedAffinity>
-10.46416

$$$$
OCNT-2310635


 25 27  0  0  0  0  0  0  0  0999 V2000
   -4.0750   26.2121    3.0755 C   0  0  0  0  0  0  0  0  0  0  0  0
   -2.9927   25.8784    3.5746 O   0  0  0  0  0  0  0  0  0  0  0  0
   -4.6093   25.5553    1.9698 N   0  0  0  0  0  0  0  0  0  0  0  0
   -5.9319   25.8521    1.4139 C   0  0  0  0  0  0  0  0  0  0  0  0
   -6.2921   25.0879    0.1284 C   0  0  0  0  0  0  0  0  0  0  0  0
   -6.6361   23.6678    0.3162 N   0  0  0  0  0  0  0  0  0  0  0  0
   -7.6057   23.1169   -0.6275 C   0  0  0  0  0  0  0  0  0  0  0  0
   -6.1501   22.8780    1.3517 C   0  0  0  0  0  0  0  0  0  0  0  0
   -6.8866   21.7661    1.8129 C   0  0  0  0  0  0  0  0  0  0  0  0
   -6.4564   20.9612    2.8739 C   0  0  0  0  0  0  0  0  0  0  0  0
   -5.2631   21.2448    3.5169 C   0  0  0  0  0  0  0  0  0  0  0  0
   -4.5036   22.3263    3.0878 C   0  0  0  0  0  0  0  0  0  0  0  0
   -4.9256   23.1331    2.0083 C   0  0  0  0  0  0  0  0  0  0  0  0
   -4.0246   24.2734    1.6001 C   0  0  0  0  0  0  0  0  0  0  0  0
   -4.8540   27.3932    3.6920 C   0  0  0  0  0  0  0  0  0  0  0  0
   -4.2533   27.8209    4.9719 N   0  0  0  0  0  0  0  0  0  0  0  0
   -4.1240   26.9837    5.5570 H   0  0  0  0  0  0  0  0  0  0  0  0
   -4.5137   29.5818    6.6608 C   0  0  0  0  0  0  0  0  0  0  0  0
   -5.3367   30.4236    7.4119 C   0  0  0  0  0  0  0  0  0  0  0  0
   -6.7209   30.3971    7.2280 C   0  0  0  0  0  0  0  0  0  0  0  0
   -7.2886   29.5396    6.2887 C   0  0  0  0  0  0  0  0  0  0  0  0
   -6.4739   28.6987    5.5317 C   0  0  0  0  0  0  0  0  0  0  0  0
   -5.0864   28.6959    5.7210 C   0  0  0  0  0  0  0  0  0  0  0  0
   -2.4507   30.7682    6.7146 C   0  0  0  0  0  0  0  0  0  0  0  0
   -3.1435   29.5301    6.7473 O   0  0  0  0  0  0  0  0  0  0  0  0
 24 25  1  0  0  0
 25 18  1  0  0  0
 18 19  2  0  0  0
 19 20  1  0  0  0
 20 21  2  0  0  0
 21 22  1  0  0  0
 22 23  2  0  0  0
 23 16  1  0  0  0
 16 15  1  0  0  0
 15  1  1  0  0  0
  1  2  2  0  0  0
  1  3  1  0  0  0
  3  4  1  0  0  0
  4  5  1  0  0  0
  5  6  1  0  0  0
  6  7  1  0  0  0
  6  8  1  0  0  0
  8  9  2  0  0  0
  9 10  1  0  0  0
 10 11  2  0  0  0
 11 12  1  0  0  0
 12 13  2  0  0  0
 13 14  1  0  0  0
 23 18  1  0  0  0
 14  3  1  0  0  0
 13  8  1  0  0  0
 16 17  1  0  0  0
M  END
> <minimizedAffinity>
-8.69611

$$$$
OCNT-2310639


 28 31  0  0  0  0  0  0  0  0999 V2000
   -6.5026   28.9672    7.7747 O   0  0  0  0  0  0  0  0  0  0  0  0
   -6.1379   29.5457    6.7586 C   0  0  0  0  0  0  0  0  0  0  0  0
   -5.7239   30.8634    6.7296 N   0  0  0  0  0  0  0  0  0  0  0  0
   -5.1333   31.1530    5.9614 H   0  0  0  0  0  0  0  0  0  0  0  0
   -6.0885   28.8128    5.4671 C   0  0  0  0  0  0  0  0  0  0  0  0
   -6.0805   29.5577    4.2900 C   0  0  0  0  0  0  0  0  0  0  0  0
   -6.0312   28.8724    3.0957 C   0  0  0  0  0  0  0  0  0  0  0  0
   -5.9833   27.5269    3.0144 N   0  0  0  0  0  0  0  0  0  0  0  0
   -5.9631   26.8050    4.1678 C   0  0  0  0  0  0  0  0  0  0  0  0
   -6.0148   27.4160    5.4177 C   0  0  0  0  0  0  0  0  0  0  0  0
   -5.8841   25.3815    4.0637 N   0  0  0  0  0  0  0  0  0  0  0  0
   -5.8326   24.4417    5.0676 C   0  0  0  0  0  0  0  0  0  0  0  0
   -5.7797   23.2283    4.5670 N   0  0  0  0  0  0  0  0  0  0  0  0
   -5.7939   23.4602    3.2257 C   0  0  0  0  0  0  0  0  0  0  0  0
   -5.8562   24.7408    2.8654 N   0  0  0  0  0  0  0  0  0  0  0  0
   -5.5989   31.6089    7.9694 C   0  0  0  0  0  0  0  0  0  0  0  0
   -4.2203   32.2668    8.1105 C   0  0  0  0  0  0  0  0  0  0  0  0
   -3.7109   32.2426    9.5638 C   0  0  0  0  0  0  0  0  0  0  0  0
   -2.5613   31.2549    9.7597 C   0  0  0  0  0  0  0  0  0  0  0  0
   -1.4195   31.5997    8.9101 N   0  0  0  0  0  0  0  0  0  0  0  0
   -1.7771   31.9202    7.5222 C   0  0  0  0  0  0  0  0  0  0  0  0
   -3.2242   31.5894    7.1584 C   0  0  0  0  0  0  0  0  0  0  0  0
   -0.3516   30.5951    9.0236 C   0  0  0  0  0  0  0  0  0  0  0  0
   -0.5664   29.4209    8.1041 C   0  0  0  0  0  0  0  0  0  0  0  0
   -1.4776   28.3885    8.2271 C   0  0  0  0  0  0  0  0  0  0  0  0
   -1.3754   27.4423    7.1661 C   0  0  0  0  0  0  0  0  0  0  0  0
   -0.3829   27.7751    6.2718 C   0  0  0  0  0  0  0  0  0  0  0  0
    0.4145   29.2231    6.7086 S   0  0  0  0  0  0  0  0  0  0  0  0
  1  2  2  0  0  0
  2  3  1  0  0  0
  3 16  1  0  0  0
 16 17  1  0  0  0
 17 18  1  0  0  0
 18 19  1  0  0  0
 19 20  1  0  0  0
 20 23  1  0  0  0
 23 24  1  0  0  0
 24 25  2  0  0  0
 25 26  1  0  0  0
 26 27  2  0  0  0
 27 28  1  0  0  0
 20 21  1  0  0  0
 21 22  1  0  0  0
  2  5  1  0  0  0
  5  6  2  0  0  0
  6  7  1  0  0  0
  7  8  2  0  0  0
  8  9  1  0  0  0
  9 11  1  0  0  0
 11 12  1  0  0  0
 12 13  2  0  0  0
 13 14  1  0  0  0
 14 15  2  0  0  0
  9 10  2  0  0  0
 22 17  1  0  0  0
 10  5  1  0  0  0
 28 24  1  0  0  0
 15 11  1  0  0  0
  3  4  1  0  0  0
M  END
> <minimizedAffinity>
-9.16923

$$$$
OCNT-2310648


 30 33  0  0  0  0  0  0  0  0999 V2000
   -5.8206   24.1278    3.4025 C   0  0  0  0  0  0  0  0  0  0  0  0
   -4.6701   24.3192    4.0214 N   0  0  0  0  0  0  0  0  0  0  0  0
   -3.7897   25.0508    3.2331 C   0  0  0  0  0  0  0  0  0  0  0  0
   -4.2842   25.3758    1.9851 C   0  0  0  0  0  0  0  0  0  0  0  0
   -5.8825   24.7963    1.8136 S   0  0  0  0  0  0  0  0  0  0  0  0
   -9.1406   22.0735    5.2334 C   0  0  0  0  0  0  0  0  0  0  0  0
   -8.4823   23.1153    5.8910 C   0  0  0  0  0  0  0  0  0  0  0  0
   -7.4093   23.7696    5.2754 C   0  0  0  0  0  0  0  0  0  0  0  0
   -6.9585   23.3945    3.9972 C   0  0  0  0  0  0  0  0  0  0  0  0
   -7.6237   22.3361    3.3551 C   0  0  0  0  0  0  0  0  0  0  0  0
   -8.7017   21.6786    3.9660 C   0  0  0  0  0  0  0  0  0  0  0  0
  -11.2300   20.8151    5.1407 N   0  0  0  0  0  0  0  0  0  0  0  0
  -10.2761   21.4056    5.9232 C   0  0  0  0  0  0  0  0  0  0  0  0
  -10.3810   21.4090    7.1428 O   0  0  0  0  0  0  0  0  0  0  0  0
  -12.0541   20.4907    5.6314 H   0  0  0  0  0  0  0  0  0  0  0  0
  -11.3390   21.0494    4.1648 H   0  0  0  0  0  0  0  0  0  0  0  0
   -2.4236   25.3765    3.7688 C   0  0  0  0  0  0  0  0  0  0  0  0
   -2.3806   26.5230    4.6871 N   0  0  0  0  0  0  0  0  0  0  0  0
   -3.6624   26.8149    5.3503 C   0  0  0  0  0  0  0  0  0  0  0  0
   -3.5956   28.0977    6.2165 C   0  0  0  0  0  0  0  0  0  0  0  0
   -2.5001   27.9984    7.2053 N   0  0  0  0  0  0  0  0  0  0  0  0
   -1.1999   27.7006    6.5595 C   0  0  0  0  0  0  0  0  0  0  0  0
   -1.3058   26.4209    5.6969 C   0  0  0  0  0  0  0  0  0  0  0  0
   -2.4398   29.1078    8.0704 C   0  0  0  0  0  0  0  0  0  0  0  0
   -1.2068   29.7295    8.3047 C   0  0  0  0  0  0  0  0  0  0  0  0
   -1.1283   30.8408    9.1448 C   0  0  0  0  0  0  0  0  0  0  0  0
   -2.2883   31.3137    9.7265 C   0  0  0  0  0  0  0  0  0  0  0  0
   -2.2572   32.3778   10.5374 F   0  0  0  0  0  0  0  0  0  0  0  0
   -3.4759   30.6705    9.4461 C   0  0  0  0  0  0  0  0  0  0  0  0
   -3.5725   29.5904    8.6328 N   0  0  0  0  0  0  0  0  0  0  0  0
 12 13  1  0  0  0
 13 14  2  0  0  0
 13  6  1  0  0  0
  6  7  1  0  0  0
  7  8  2  0  0  0
  8  9  1  0  0  0
  9  1  1  0  0  0
  1  2  2  0  0  0
  2  3  1  0  0  0
  3 17  1  0  0  0
 17 18  1  0  0  0
 18 19  1  0  0  0
 19 20  1  0  0  0
 20 21  1  0  0  0
 21 24  1  0  0  0
 24 25  2  0  0  0
 25 26  1  0  0  0
 26 27  2  0  0  0
 27 28  1  0  0  0
 27 29  1  0  0  0
 29 30  2  0  0  0
 21 22  1  0  0  0
 22 23  1  0  0  0
  3  4  2  0  0  0
  4  5  1  0  0  0
  9 10  2  0  0  0
 10 11  1  0  0  0
 11  6  2  0  0  0
  5  1  1  0  0  0
 23 18  1  0  0  0
 30 24  1  0  0  0
 12 15  1  0  0  0
 12 16  1  0  0  0
M  END
> <minimizedAffinity>
-9.51915

$$$$
OCNT-2310650


 24 27  0  0  0  0  0  0  0  0999 V2000
   -2.9615   28.8614    6.6694 C   0  0  0  0  0  0  0  0  0  0  0  0
   -2.4923   27.6134    6.3070 C   0  0  0  0  0  0  0  0  0  0  0  0
   -3.5024   27.0376    5.4985 C   0  0  0  0  0  0  0  0  0  0  0  0
   -4.5351   27.8736    5.3466 N   0  0  0  0  0  0  0  0  0  0  0  0
   -4.1822   28.9601    6.0511 N   0  0  0  0  0  0  0  0  0  0  0  0
   -4.8186   29.7487    6.0580 H   0  0  0  0  0  0  0  0  0  0  0  0
   -0.7486   30.7231    9.0531 C   0  0  0  0  0  0  0  0  0  0  0  0
   -1.2655   29.6762    8.3051 C   0  0  0  0  0  0  0  0  0  0  0  0
   -2.3698   29.9200    7.4847 C   0  0  0  0  0  0  0  0  0  0  0  0
   -2.8972   31.2128    7.4517 C   0  0  0  0  0  0  0  0  0  0  0  0
   -2.3129   32.1919    8.2393 C   0  0  0  0  0  0  0  0  0  0  0  0
   -1.2509   31.9744    9.0416 N   0  0  0  0  0  0  0  0  0  0  0  0
   -3.5239   25.6854    4.8392 C   0  0  0  0  0  0  0  0  0  0  0  0
   -4.9490   25.1109    4.8080 C   0  0  0  0  0  0  0  0  0  0  0  0
   -5.0786   23.9832    3.7900 C   0  0  0  0  0  0  0  0  0  0  0  0
   -4.7054   24.4399    2.4486 N   0  0  0  0  0  0  0  0  0  0  0  0
   -3.9056   25.6611    2.3294 C   0  0  0  0  0  0  0  0  0  0  0  0
   -2.8682   25.7047    3.4473 C   0  0  0  0  0  0  0  0  0  0  0  0
   -5.5663   24.1738    1.3849 C   0  0  0  0  0  0  0  0  0  0  0  0
   -5.9975   22.8754    1.0757 C   0  0  0  0  0  0  0  0  0  0  0  0
   -6.8304   22.5590    0.0479 N   0  0  0  0  0  0  0  0  0  0  0  0
   -7.2205   23.6061   -0.7024 C   0  0  0  0  0  0  0  0  0  0  0  0
   -6.7985   24.8940   -0.4363 C   0  0  0  0  0  0  0  0  0  0  0  0
   -5.9741   25.1964    0.5951 N   0  0  0  0  0  0  0  0  0  0  0  0
  7  8  1  0  0  0
  8  9  2  0  0  0
  9  1  1  0  0  0
  1  2  2  0  0  0
  2  3  1  0  0  0
  3 13  1  0  0  0
 13 14  1  0  0  0
 14 15  1  0  0  0
 15 16  1  0  0  0
 16 19  1  0  0  0
 19 20  2  0  0  0
 20 21  1  0  0  0
 21 22  2  0  0  0
 22 23  1  0  0  0
 23 24  2  0  0  0
 16 17  1  0  0  0
 17 18  1  0  0  0
  3  4  2  0  0  0
  4  5  1  0  0  0
  9 10  1  0  0  0
 10 11  2  0  0  0
 11 12  1  0  0  0
 12  7  2  0  0  0
  5  1  1  0  0  0
 18 13  1  0  0  0
 24 19  1  0  0  0
  5  6  1  0  0  0
M  END
> <minimizedAffinity>
-8.59581

$$$$
OCNT-2310655


 27 29  0  0  0  0  0  0  0  0999 V2000
   -5.8655   29.4192    4.3064 C   0  0  0  0  0  0  0  0  0  0  0  0
   -5.5773   23.3055    2.3927 N   0  0  0  0  0  0  0  0  0  0  0  0
   -5.2780   23.8903    3.6025 N   0  0  0  0  0  0  0  0  0  0  0  0
   -5.3631   25.1816    3.6905 C   0  0  0  0  0  0  0  0  0  0  0  0
   -5.1189   25.7943    5.0533 C   0  0  0  0  0  0  0  0  0  0  0  0
   -4.8975   27.2982    5.0070 C   0  0  0  0  0  0  0  0  0  0  0  0
   -5.9445   27.9356    4.1859 N   0  0  0  0  0  0  0  0  0  0  0  0
   -5.7380   27.5541    2.7792 C   0  0  0  0  0  0  0  0  0  0  0  0
   -5.7354   26.0748    2.5710 C   0  0  0  0  0  0  0  0  0  0  0  0
   -6.0479   25.4771    1.4171 C   0  0  0  0  0  0  0  0  0  0  0  0
   -5.9664   24.0112    1.2642 C   0  0  0  0  0  0  0  0  0  0  0  0
   -6.2283   23.5157    0.1714 O   0  0  0  0  0  0  0  0  0  0  0  0
   -4.8035   21.3018    3.5969 C   0  0  0  0  0  0  0  0  0  0  0  0
   -5.4260   21.8573    2.3268 C   0  0  0  0  0  0  0  0  0  0  0  0
   -5.6665   29.8390    5.7696 C   0  0  0  0  0  0  0  0  0  0  0  0
   -6.4342   29.4564    6.6459 O   0  0  0  0  0  0  0  0  0  0  0  0
   -4.5753   30.6817    5.9097 N   0  0  0  0  0  0  0  0  0  0  0  0
   -4.3369   31.1543    5.0414 H   0  0  0  0  0  0  0  0  0  0  0  0
   -4.0405   31.1951    7.1083 C   0  0  0  0  0  0  0  0  0  0  0  0
   -4.5164   32.4510    7.5109 C   0  0  0  0  0  0  0  0  0  0  0  0
   -4.0563   33.0348    8.6912 C   0  0  0  0  0  0  0  0  0  0  0  0
   -4.6738   34.5641    9.1831 Cl  0  0  0  0  0  0  0  0  0  0  0  0
   -3.0981   32.3953    9.4704 C   0  0  0  0  0  0  0  0  0  0  0  0
   -2.5843   31.1662    9.0568 C   0  0  0  0  0  0  0  0  0  0  0  0
   -3.0530   30.5604    7.8821 C   0  0  0  0  0  0  0  0  0  0  0  0
   -2.4204   29.4447    7.3972 O   0  0  0  0  0  0  0  0  0  0  0  0
   -1.4276   28.9409    8.2904 C   0  0  0  0  0  0  0  0  0  0  0  0
 13 14  1  0  0  0
 14  2  1  0  0  0
  2  3  1  0  0  0
  3  4  2  0  0  0
  4  5  1  0  0  0
  5  6  1  0  0  0
  6  7  1  0  0  0
  7  1  1  0  0  0
  1 15  1  0  0  0
 15 16  2  0  0  0
 15 17  1  0  0  0
 17 19  1  0  0  0
 19 20  1  0  0  0
 20 21  2  0  0  0
 21 22  1  0  0  0
 21 23  1  0  0  0
 23 24  2  0  0  0
 24 25  1  0  0  0
 25 26  1  0  0  0
 26 27  1  0  0  0
  7  8  1  0  0  0
  8  9  1  0  0  0
  9 10  2  0  0  0
 10 11  1  0  0  0
 11 12  2  0  0  0
 11  2  1  0  0  0
  9  4  1  0  0  0
 25 19  2  0  0  0
 17 18  1  0  0  0
M  END
> <minimizedAffinity>
-8.98694

$$$$
OCNT-2310665


 27 29  0  0  0  0  0  0  0  0999 V2000
   -4.9815   28.6982    5.3278 O   0  0  0  0  0  0  0  0  0  0  0  0
   -5.8472   27.8350    5.4099 C   0  0  0  0  0  0  0  0  0  0  0  0
   -6.8164   27.8142    6.3910 N   0  0  0  0  0  0  0  0  0  0  0  0
   -7.5274   27.0964    6.3842 H   0  0  0  0  0  0  0  0  0  0  0  0
   -6.8250   28.7844    7.4799 C   0  0  0  0  0  0  0  0  0  0  0  0
   -7.1714   30.1836    6.9632 C   0  0  0  0  0  0  0  0  0  0  0  0
   -7.0323   31.2294    8.0717 C   0  0  0  0  0  0  0  0  0  0  0  0
   -5.7090   31.2339    8.7284 N   0  0  0  0  0  0  0  0  0  0  0  0
   -5.4507   29.8894    9.2710 C   0  0  0  0  0  0  0  0  0  0  0  0
   -5.4811   28.7892    8.2111 C   0  0  0  0  0  0  0  0  0  0  0  0
   -4.6298   31.7714    7.8664 C   0  0  0  0  0  0  0  0  0  0  0  0
   -3.2174   31.6743    8.4778 C   0  0  0  0  0  0  0  0  0  0  0  0
   -3.1699   32.7761    9.5321 C   0  0  0  0  0  0  0  0  0  0  0  0
   -4.1351   33.8506    9.0333 C   0  0  0  0  0  0  0  0  0  0  0  0
   -4.7121   33.3053    7.7279 C   0  0  0  0  0  0  0  0  0  0  0  0
   -5.9064   26.7464    4.3968 C   0  0  0  0  0  0  0  0  0  0  0  0
   -6.2471   25.4568    4.8295 C   0  0  0  0  0  0  0  0  0  0  0  0
   -6.3185   24.4016    3.9174 C   0  0  0  0  0  0  0  0  0  0  0  0
   -6.0699   24.6478    2.5646 C   0  0  0  0  0  0  0  0  0  0  0  0
   -5.7314   25.9299    2.1195 C   0  0  0  0  0  0  0  0  0  0  0  0
   -5.6585   26.9820    3.0371 C   0  0  0  0  0  0  0  0  0  0  0  0
   -6.1353   23.2998    1.4019 S   0  0  0  0  0  0  0  0  0  0  0  0
   -6.5538   22.1207    2.1431 O   0  0  0  0  0  0  0  0  0  0  0  0
   -4.8625   23.2857    0.6974 O   0  0  0  0  0  0  0  0  0  0  0  0
   -7.4421   23.8029    0.2713 C   0  0  0  0  0  0  0  0  0  0  0  0
   -7.0201   24.7244   -0.6412 F   0  0  0  0  0  0  0  0  0  0  0  0
   -7.9395   22.7567   -0.4495 F   0  0  0  0  0  0  0  0  0  0  0  0
  1  2  2  0  0  0
  2  3  1  0  0  0
  3  5  1  0  0  0
  5  6  1  0  0  0
  6  7  1  0  0  0
  7  8  1  0  0  0
  8 11  1  0  0  0
 11 12  1  0  0  0
 12 13  1  0  0  0
 13 14  1  0  0  0
 14 15  1  0  0  0
  8  9  1  0  0  0
  9 10  1  0  0  0
  2 16  1  0  0  0
 16 17  1  0  0  0
 17 18  2  0  0  0
 18 19  1  0  0  0
 19 22  1  0  0  0
 22 23  2  0  0  0
 22 24  2  0  0  0
 22 25  1  0  0  0
 25 26  1  0  0  0
 25 27  1  0  0  0
 19 20  2  0  0  0
 20 21  1  0  0  0
 10  5  1  0  0  0
 21 16  2  0  0  0
 15 11  1  0  0  0
  3  4  1  0  0  0
M  END
> <minimizedAffinity>
-9.32929

$$$$
OCNT-2310680


 27 30  0  0  0  0  0  0  0  0999 V2000
   -1.6622   32.0175    7.0725 C   0  0  0  0  0  0  0  0  0  0  0  0
   -1.8177   30.7922    7.9941 C   0  0  0  0  0  0  0  0  0  0  0  0
   -2.8993   29.8446    7.3874 C   0  0  0  0  0  0  0  0  0  0  0  0
   -4.2633   30.3728    7.5242 N   0  0  0  0  0  0  0  0  0  0  0  0
   -5.3363   30.1155    6.6931 C   0  0  0  0  0  0  0  0  0  0  0  0
   -6.4823   30.4567    6.9764 O   0  0  0  0  0  0  0  0  0  0  0  0
   -5.0410   29.4307    5.5455 N   0  0  0  0  0  0  0  0  0  0  0  0
   -4.5384   31.0570    8.7880 C   0  0  0  0  0  0  0  0  0  0  0  0
   -3.4150   30.8617    9.8039 C   0  0  0  0  0  0  0  0  0  0  0  0
   -2.1610   31.3162    9.2948 O   0  0  0  0  0  0  0  0  0  0  0  0
   -4.1446   29.6357    5.1395 H   0  0  0  0  0  0  0  0  0  0  0  0
   -0.4509   30.1433    8.1560 C   0  0  0  0  0  0  0  0  0  0  0  0
    0.2679   29.3943    7.0562 C   0  0  0  0  0  0  0  0  0  0  0  0
   -0.2686   28.6449    8.2478 C   0  0  0  0  0  0  0  0  0  0  0  0
   -6.0740   29.1341    4.5741 C   0  0  0  0  0  0  0  0  0  0  0  0
   -5.9739   27.7051    4.1012 C   0  0  0  0  0  0  0  0  0  0  0  0
   -5.7590   27.4099    2.7497 C   0  0  0  0  0  0  0  0  0  0  0  0
   -5.7013   26.0818    2.3142 C   0  0  0  0  0  0  0  0  0  0  0  0
   -5.8642   25.0161    3.2138 C   0  0  0  0  0  0  0  0  0  0  0  0
   -6.0844   25.3218    4.5655 C   0  0  0  0  0  0  0  0  0  0  0  0
   -6.1403   26.6482    5.0042 C   0  0  0  0  0  0  0  0  0  0  0  0
   -5.8112   23.6211    2.7531 C   0  0  0  0  0  0  0  0  0  0  0  0
   -6.2871   23.2571    1.4888 C   0  0  0  0  0  0  0  0  0  0  0  0
   -6.2164   21.9282    1.1008 C   0  0  0  0  0  0  0  0  0  0  0  0
   -5.7116   20.9452    1.8749 N   0  0  0  0  0  0  0  0  0  0  0  0
   -5.2569   21.3100    3.0910 C   0  0  0  0  0  0  0  0  0  0  0  0
   -5.2842   22.6120    3.5664 C   0  0  0  0  0  0  0  0  0  0  0  0
  1  2  1  0  0  0
  2 12  1  0  0  0
 12 13  1  0  0  0
 13 14  1  0  0  0
  2  3  1  0  0  0
  3  4  1  0  0  0
  4  5  1  0  0  0
  5  6  2  0  0  0
  5  7  1  0  0  0
  7 15  1  0  0  0
 15 16  1  0  0  0
 16 17  1  0  0  0
 17 18  2  0  0  0
 18 19  1  0  0  0
 19 22  1  0  0  0
 22 23  2  0  0  0
 23 24  1  0  0  0
 24 25  2  0  0  0
 25 26  1  0  0  0
 26 27  2  0  0  0
 19 20  2  0  0  0
 20 21  1  0  0  0
  4  8  1  0  0  0
  8  9  1  0  0  0
  9 10  1  0  0  0
 10  2  1  0  0  0
 14 12  1  0  0  0
 21 16  2  0  0  0
 27 22  1  0  0  0
  7 11  1  0  0  0
M  END
> <minimizedAffinity>
-10.17771

$$$$
OCNT-2310706


 23 25  0  0  0  0  0  0  0  0999 V2000
   -1.8558   29.8423    8.8933 N   0  0  0  0  0  0  0  0  0  0  0  0
   -0.6699   30.6872    9.0195 C   0  0  0  0  0  0  0  0  0  0  0  0
    0.5981   29.8375    9.0053 C   0  0  0  0  0  0  0  0  0  0  0  0
    0.7081   29.0184    7.7150 C   0  0  0  0  0  0  0  0  0  0  0  0
   -0.6470   28.4670    7.2163 C   0  0  0  0  0  0  0  0  0  0  0  0
   -1.6825   28.4862    8.3686 C   0  0  0  0  0  0  0  0  0  0  0  0
   -5.0904   30.5689    7.5895 C   0  0  0  0  0  0  0  0  0  0  0  0
   -5.3506   31.8385    8.0334 C   0  0  0  0  0  0  0  0  0  0  0  0
   -4.3609   32.4069    8.7952 C   0  0  0  0  0  0  0  0  0  0  0  0
   -4.5226   33.7936    9.3385 C   0  0  0  0  0  0  0  0  0  0  0  0
   -3.2148   31.7572    9.0851 N   0  0  0  0  0  0  0  0  0  0  0  0
   -3.0390   30.5115    8.6136 C   0  0  0  0  0  0  0  0  0  0  0  0
   -3.9625   29.8933    7.8629 N   0  0  0  0  0  0  0  0  0  0  0  0
   -5.7888   28.6289    6.4795 C   0  0  0  0  0  0  0  0  0  0  0  0
   -6.0781   29.9809    6.8208 O   0  0  0  0  0  0  0  0  0  0  0  0
   -0.4679   27.0967    6.7090 N   0  0  0  0  0  0  0  0  0  0  0  0
   -0.2709   26.4168    7.4406 H   0  0  0  0  0  0  0  0  0  0  0  0
   -1.3151   26.5523    5.7403 C   0  0  0  0  0  0  0  0  0  0  0  0
   -0.7371   26.0641    4.5574 C   0  0  0  0  0  0  0  0  0  0  0  0
   -1.5184   25.5614    3.5124 C   0  0  0  0  0  0  0  0  0  0  0  0
   -2.9041   25.5605    3.6212 C   0  0  0  0  0  0  0  0  0  0  0  0
   -3.5010   26.0734    4.7682 C   0  0  0  0  0  0  0  0  0  0  0  0
   -2.7117   26.5762    5.8100 C   0  0  0  0  0  0  0  0  0  0  0  0
 14 15  1  0  0  0
 15  7  1  0  0  0
  7  8  2  0  0  0
  8  9  1  0  0  0
  9 10  1  0  0  0
  9 11  2  0  0  0
 11 12  1  0  0  0
 12  1  1  0  0  0
  1  2  1  0  0  0
  2  3  1  0  0  0
  3  4  1  0  0  0
  4  5  1  0  0  0
  5 16  1  0  0  0
 16 18  1  0  0  0
 18 19  2  0  0  0
 19 20  1  0  0  0
 20 21  2  0  0  0
 21 22  1  0  0  0
 22 23  2  0  0  0
  5  6  1  0  0  0
 12 13  2  0  0  0
 13  7  1  0  0  0
  6  1  1  0  0  0
 23 18  1  0  0  0
 16 17  1  0  0  0
M  END
> <minimizedAffinity>
-8.65012

$$$$
OCNT-2310736


 31 34  0  0  0  0  0  0  0  0999 V2000
   -2.5634   26.0635    3.7678 N   0  0  0  0  0  0  0  0  0  0  0  0
   -2.4857   26.2931    5.1245 C   0  0  0  0  0  0  0  0  0  0  0  0
   -3.3682   26.1030    5.9502 O   0  0  0  0  0  0  0  0  0  0  0  0
   -1.2345   26.7654    5.4674 N   0  0  0  0  0  0  0  0  0  0  0  0
   -1.6827   26.0772    3.2759 H   0  0  0  0  0  0  0  0  0  0  0  0
   -0.7451   27.2818    4.7534 H   0  0  0  0  0  0  0  0  0  0  0  0
   -8.0441   22.4576   -0.1327 O   0  0  0  0  0  0  0  0  0  0  0  0
   -7.0631   22.8784    0.4760 C   0  0  0  0  0  0  0  0  0  0  0  0
   -5.8653   22.0002    0.8366 C   0  0  0  0  0  0  0  0  0  0  0  0
   -4.8795   22.4493    1.7536 O   0  0  0  0  0  0  0  0  0  0  0  0
   -4.8643   23.7972    1.9783 C   0  0  0  0  0  0  0  0  0  0  0  0
   -3.7851   24.2855    2.7184 C   0  0  0  0  0  0  0  0  0  0  0  0
   -3.6887   25.6484    3.0278 C   0  0  0  0  0  0  0  0  0  0  0  0
   -4.6902   26.5145    2.5822 C   0  0  0  0  0  0  0  0  0  0  0  0
   -5.7783   26.0276    1.8487 C   0  0  0  0  0  0  0  0  0  0  0  0
   -5.8616   24.6704    1.5481 C   0  0  0  0  0  0  0  0  0  0  0  0
   -6.9568   24.1920    0.8329 N   0  0  0  0  0  0  0  0  0  0  0  0
   -7.7162   24.8036    0.5653 H   0  0  0  0  0  0  0  0  0  0  0  0
   -0.9349   27.1364    6.8335 C   0  0  0  0  0  0  0  0  0  0  0  0
   -1.6233   28.4232    7.2107 C   0  0  0  0  0  0  0  0  0  0  0  0
   -2.6696   28.4254    8.1398 C   0  0  0  0  0  0  0  0  0  0  0  0
   -3.3306   29.6137    8.4767 C   0  0  0  0  0  0  0  0  0  0  0  0
   -2.9610   30.8322    7.8846 C   0  0  0  0  0  0  0  0  0  0  0  0
   -1.9190   30.8191    6.9504 C   0  0  0  0  0  0  0  0  0  0  0  0
   -1.5043   31.9306    6.3292 F   0  0  0  0  0  0  0  0  0  0  0  0
   -1.2599   29.6339    6.6140 C   0  0  0  0  0  0  0  0  0  0  0  0
   -3.6402   32.0362    8.2341 N   0  0  0  0  0  0  0  0  0  0  0  0
   -4.5664   32.7192    7.4680 C   0  0  0  0  0  0  0  0  0  0  0  0
   -4.9488   33.8156    8.2025 C   0  0  0  0  0  0  0  0  0  0  0  0
   -4.2984   33.8441    9.3980 N   0  0  0  0  0  0  0  0  0  0  0  0
   -3.5285   32.7767    9.3936 C   0  0  0  0  0  0  0  0  0  0  0  0
  7  8  2  0  0  0
  8  9  1  0  0  0
  9 10  1  0  0  0
 10 11  1  0  0  0
 11 12  1  0  0  0
 12 13  2  0  0  0
 13  1  1  0  0  0
  1  2  1  0  0  0
  2  3  2  0  0  0
  2  4  1  0  0  0
  4 19  1  0  0  0
 19 20  1  0  0  0
 20 21  1  0  0  0
 21 22  2  0  0  0
 22 23  1  0  0  0
 23 27  1  0  0  0
 27 28  1  0  0  0
 28 29  2  0  0  0
 29 30  1  0  0  0
 30 31  2  0  0  0
 23 24  2  0  0  0
 24 25  1  0  0  0
 24 26  1  0  0  0
 13 14  1  0  0  0
 14 15  2  0  0  0
 15 16  1  0  0  0
 16 17  1  0  0  0
 17  8  1  0  0  0
 16 11  2  0  0  0
 26 20  2  0  0  0
 31 27  1  0  0  0
  1  5  1  0  0  0
  4  6  1  0  0  0
 17 18  1  0  0  0
M  END
> <minimizedAffinity>
-9.36268

$$$$
OCNT-2310740


 30 32  0  0  0  0  0  0  0  0999 V2000
   -3.1530   27.3128    6.2455 N   0  0  0  0  0  0  0  0  0  0  0  0
   -4.2160   27.3216    5.3660 C   0  0  0  0  0  0  0  0  0  0  0  0
   -4.9332   28.3036    5.2032 O   0  0  0  0  0  0  0  0  0  0  0  0
   -2.4499   26.5950    6.1014 H   0  0  0  0  0  0  0  0  0  0  0  0
   -4.4586   25.9919    4.6847 C   0  0  0  0  0  0  0  0  0  0  0  0
   -3.2414   25.4476    3.9453 C   0  0  0  0  0  0  0  0  0  0  0  0
   -3.8422   24.4570    2.9501 C   0  0  0  0  0  0  0  0  0  0  0  0
   -5.1788   24.9815    2.6839 N   0  0  0  0  0  0  0  0  0  0  0  0
   -5.4993   26.1013    3.5692 C   0  0  0  0  0  0  0  0  0  0  0  0
   -5.9695   24.5560    1.6370 C   0  0  0  0  0  0  0  0  0  0  0  0
   -6.0769   25.3075    0.4529 C   0  0  0  0  0  0  0  0  0  0  0  0
   -6.8760   24.8977   -0.6246 C   0  0  0  0  0  0  0  0  0  0  0  0
   -7.6013   23.7148   -0.5491 C   0  0  0  0  0  0  0  0  0  0  0  0
   -7.5257   22.9467    0.6054 C   0  0  0  0  0  0  0  0  0  0  0  0
   -6.7256   23.3652    1.6725 C   0  0  0  0  0  0  0  0  0  0  0  0
   -6.7153   22.5802    2.7632 F   0  0  0  0  0  0  0  0  0  0  0  0
   -2.6298   28.5686    6.7926 C   0  0  0  0  0  0  0  0  0  0  0  0
   -0.6011   27.1591    6.7677 N   0  0  0  0  0  0  0  0  0  0  0  0
   -1.0964   28.4287    6.7915 C   0  0  0  0  0  0  0  0  0  0  0  0
   -0.3373   29.3969    6.7648 O   0  0  0  0  0  0  0  0  0  0  0  0
   -1.1868   26.3402    6.8734 H   0  0  0  0  0  0  0  0  0  0  0  0
    0.4028   27.0407    6.8097 H   0  0  0  0  0  0  0  0  0  0  0  0
   -3.1547   28.7930    8.2169 C   0  0  0  0  0  0  0  0  0  0  0  0
   -3.5414   30.2269    8.5007 C   0  0  0  0  0  0  0  0  0  0  0  0
   -2.6767   31.0705    9.2121 C   0  0  0  0  0  0  0  0  0  0  0  0
   -3.0301   32.3989    9.4594 C   0  0  0  0  0  0  0  0  0  0  0  0
   -4.2500   32.8889    8.9987 C   0  0  0  0  0  0  0  0  0  0  0  0
   -4.6826   34.5261    9.3008 Cl  0  0  0  0  0  0  0  0  0  0  0  0
   -5.1204   32.0614    8.2932 C   0  0  0  0  0  0  0  0  0  0  0  0
   -4.7678   30.7331    8.0454 C   0  0  0  0  0  0  0  0  0  0  0  0
 18 19  1  0  0  0
 19 20  2  0  0  0
 19 17  1  0  0  0
 17 23  1  0  0  0
 23 24  1  0  0  0
 24 25  1  0  0  0
 25 26  2  0  0  0
 26 27  1  0  0  0
 27 28  1  0  0  0
 27 29  2  0  0  0
 29 30  1  0  0  0
 17  1  1  0  0  0
  1  2  1  0  0  0
  2  3  2  0  0  0
  2  5  1  0  0  0
  5  6  1  0  0  0
  6  7  1  0  0  0
  7  8  1  0  0  0
  8 10  1  0  0  0
 10 11  2  0  0  0
 11 12  1  0  0  0
 12 13  2  0  0  0
 13 14  1  0  0  0
 14 15  2  0  0  0
 15 16  1  0  0  0
  8  9  1  0  0  0
 30 24  2  0  0  0
  9  5  1  0  0  0
 15 10  1  0  0  0
 18 21  1  0  0  0
 18 22  1  0  0  0
  1  4  1  0  0  0
M  END
> <minimizedAffinity>
-9.94787

$$$$
OCNT-2310757


 25 28  0  0  0  0  0  0  0  0999 V2000
   -3.1877   25.6629    3.7449 C   0  0  0  0  0  0  0  0  0  0  0  0
   -4.2806   25.7937    4.8035 C   0  0  0  0  0  0  0  0  0  0  0  0
   -4.1379   27.1162    5.5546 C   0  0  0  0  0  0  0  0  0  0  0  0
   -2.7246   27.4694    5.7712 N   0  0  0  0  0  0  0  0  0  0  0  0
   -1.7898   26.3426    5.7771 C   0  0  0  0  0  0  0  0  0  0  0  0
   -1.8027   25.6559    4.4112 C   0  0  0  0  0  0  0  0  0  0  0  0
   -2.5647   28.3383    6.8689 C   0  0  0  0  0  0  0  0  0  0  0  0
   -3.6582   28.7844    7.5468 N   0  0  0  0  0  0  0  0  0  0  0  0
   -3.5148   29.6341    8.5887 C   0  0  0  0  0  0  0  0  0  0  0  0
   -4.7721   30.0561    9.2860 C   0  0  0  0  0  0  0  0  0  0  0  0
   -2.3582   30.1082    9.0851 N   0  0  0  0  0  0  0  0  0  0  0  0
   -1.2988   29.6348    8.4177 C   0  0  0  0  0  0  0  0  0  0  0  0
   -1.3049   28.7707    7.3347 C   0  0  0  0  0  0  0  0  0  0  0  0
    0.0630   28.5370    7.0033 C   0  0  0  0  0  0  0  0  0  0  0  0
    0.8436   29.2761    7.8677 C   0  0  0  0  0  0  0  0  0  0  0  0
   -0.0001   29.9397    8.7202 N   0  0  0  0  0  0  0  0  0  0  0  0
    0.2688   30.5528    9.4758 H   0  0  0  0  0  0  0  0  0  0  0  0
   -3.3198   24.4291    3.0313 O   0  0  0  0  0  0  0  0  0  0  0  0
   -7.7845   23.9054   -0.2556 C   0  0  0  0  0  0  0  0  0  0  0  0
   -6.6047   24.0731    0.6371 C   0  0  0  0  0  0  0  0  0  0  0  0
   -6.1321   23.0569    1.4403 C   0  0  0  0  0  0  0  0  0  0  0  0
   -5.0489   23.1685    2.2313 N   0  0  0  0  0  0  0  0  0  0  0  0
   -4.4114   24.3467    2.1961 C   0  0  0  0  0  0  0  0  0  0  0  0
   -4.7728   25.4034    1.4500 N   0  0  0  0  0  0  0  0  0  0  0  0
   -5.8630   25.2349    0.6776 C   0  0  0  0  0  0  0  0  0  0  0  0
 19 20  1  0  0  0
 20 21  2  0  0  0
 21 22  1  0  0  0
 22 23  2  0  0  0
 23 18  1  0  0  0
 18  1  1  0  0  0
  1  2  1  0  0  0
  2  3  1  0  0  0
  3  4  1  0  0  0
  4  7  1  0  0  0
  7  8  1  0  0  0
  8  9  2  0  0  0
  9 10  1  0  0  0
  9 11  1  0  0  0
 11 12  2  0  0  0
 12 13  1  0  0  0
 13 14  1  0  0  0
 14 15  2  0  0  0
 15 16  1  0  0  0
  4  5  1  0  0  0
  5  6  1  0  0  0
 23 24  1  0  0  0
 24 25  2  0  0  0
 25 20  1  0  0  0
  6  1  1  0  0  0
 13  7  2  0  0  0
 16 12  1  0  0  0
 16 17  1  0  0  0
M  END
> <minimizedAffinity>
-9.21182

$$$$
OCNT-2310758


 22 24  0  0  0  0  0  0  0  0999 V2000
   -2.9143   26.6550    5.2038 N   0  0  0  0  0  0  0  0  0  0  0  0
   -3.7655   25.5550    5.7037 C   0  0  0  0  0  0  0  0  0  0  0  0
   -4.8000   25.0897    4.6548 C   0  0  0  0  0  0  0  0  0  0  0  0
   -4.1337   24.7531    3.3775 N   0  0  0  0  0  0  0  0  0  0  0  0
   -3.4185   25.9370    2.8486 C   0  0  0  0  0  0  0  0  0  0  0  0
   -2.3501   26.4032    3.8561 C   0  0  0  0  0  0  0  0  0  0  0  0
   -2.4821   30.6269    8.3085 C   0  0  0  0  0  0  0  0  0  0  0  0
   -1.9759   29.4905    7.5630 N   0  0  0  0  0  0  0  0  0  0  0  0
   -0.6520   29.1438    7.6724 C   0  0  0  0  0  0  0  0  0  0  0  0
   -0.1736   28.0676    7.0441 C   0  0  0  0  0  0  0  0  0  0  0  0
   -0.9005   27.2385    6.2385 N   0  0  0  0  0  0  0  0  0  0  0  0
   -2.1801   27.4852    6.0680 C   0  0  0  0  0  0  0  0  0  0  0  0
   -2.8553   28.6921    6.8324 C   0  0  0  0  0  0  0  0  0  0  0  0
   -4.0659   28.8751    6.7914 O   0  0  0  0  0  0  0  0  0  0  0  0
   -5.0246   24.2328    2.4135 C   0  0  0  0  0  0  0  0  0  0  0  0
   -5.6407   25.0964    1.5671 N   0  0  0  0  0  0  0  0  0  0  0  0
   -6.4881   24.5898    0.6377 C   0  0  0  0  0  0  0  0  0  0  0  0
   -6.7673   23.2417    0.5016 C   0  0  0  0  0  0  0  0  0  0  0  0
   -7.8531   22.6828   -0.7031 Cl  0  0  0  0  0  0  0  0  0  0  0  0
   -6.1520   22.3517    1.3673 C   0  0  0  0  0  0  0  0  0  0  0  0
   -5.2751   22.8459    2.3350 C   0  0  0  0  0  0  0  0  0  0  0  0
   -4.5685   21.7082    3.4315 Cl  0  0  0  0  0  0  0  0  0  0  0  0
  7  8  1  0  0  0
  8  9  1  0  0  0
  9 10  2  0  0  0
 10 11  1  0  0  0
 11 12  2  0  0  0
 12  1  1  0  0  0
  1  2  1  0  0  0
  2  3  1  0  0  0
  3  4  1  0  0  0
  4 15  1  0  0  0
 15 16  1  0  0  0
 16 17  2  0  0  0
 17 18  1  0  0  0
 18 19  1  0  0  0
 18 20  2  0  0  0
 20 21  1  0  0  0
 21 22  1  0  0  0
  4  5  1  0  0  0
  5  6  1  0  0  0
 12 13  1  0  0  0
 13 14  2  0  0  0
 13  8  1  0  0  0
  6  1  1  0  0  0
 21 15  2  0  0  0
M  END
> <minimizedAffinity>
-7.97264

$$$$
OCNT-2310760


 28 30  0  0  0  0  0  0  0  0999 V2000
   -4.8536   25.9035    3.5059 C   0  0  0  0  0  0  0  0  0  0  0  0
   -5.0417   27.0346    3.0656 O   0  0  0  0  0  0  0  0  0  0  0  0
   -3.8128   25.5967    4.3567 N   0  0  0  0  0  0  0  0  0  0  0  0
   -3.8012   24.6919    4.8087 H   0  0  0  0  0  0  0  0  0  0  0  0
   -2.8907   26.6211    4.8325 C   0  0  0  0  0  0  0  0  0  0  0  0
   -1.5361   26.0093    5.1882 C   0  0  0  0  0  0  0  0  0  0  0  0
   -0.5562   27.0988    5.6170 C   0  0  0  0  0  0  0  0  0  0  0  0
   -1.1786   28.1416    6.4274 N   0  0  0  0  0  0  0  0  0  0  0  0
   -0.3676   29.2101    6.8091 C   0  0  0  0  0  0  0  0  0  0  0  0
    0.8338   29.2662    6.5575 O   0  0  0  0  0  0  0  0  0  0  0  0
   -2.4481   27.7946    7.0596 C   0  0  0  0  0  0  0  0  0  0  0  0
   -3.4910   27.4008    6.0174 C   0  0  0  0  0  0  0  0  0  0  0  0
   -0.9693   30.3494    7.5305 C   0  0  0  0  0  0  0  0  0  0  0  0
   -1.8321   31.1994    6.8442 C   0  0  0  0  0  0  0  0  0  0  0  0
   -2.3998   32.2398    7.5535 C   0  0  0  0  0  0  0  0  0  0  0  0
   -2.1702   32.4652    8.8665 N   0  0  0  0  0  0  0  0  0  0  0  0
   -1.3558   31.5996    9.5094 C   0  0  0  0  0  0  0  0  0  0  0  0
   -0.7381   30.5281    8.8934 C   0  0  0  0  0  0  0  0  0  0  0  0
   -5.7915   24.7500    3.1715 C   0  0  0  0  0  0  0  0  0  0  0  0
   -5.9078   24.5568    1.6588 C   0  0  0  0  0  0  0  0  0  0  0  0
   -5.3242   23.4841    3.9059 C   0  0  0  0  0  0  0  0  0  0  0  0
   -8.8088   21.9506    8.3173 C   0  0  0  0  0  0  0  0  0  0  0  0
   -7.9172   22.3230    7.1703 C   0  0  0  0  0  0  0  0  0  0  0  0
   -8.4022   23.1156    6.1246 C   0  0  0  0  0  0  0  0  0  0  0  0
   -7.5646   23.4895    5.0712 C   0  0  0  0  0  0  0  0  0  0  0  0
   -6.2238   23.0856    5.0504 C   0  0  0  0  0  0  0  0  0  0  0  0
   -5.7355   22.3049    6.1052 C   0  0  0  0  0  0  0  0  0  0  0  0
   -6.5740   21.9316    7.1585 C   0  0  0  0  0  0  0  0  0  0  0  0
 22 23  1  0  0  0
 23 24  1  0  0  0
 24 25  2  0  0  0
 25 26  1  0  0  0
 26 21  1  0  0  0
 21 19  1  0  0  0
 19 20  1  0  0  0
 19  1  1  0  0  0
  1  2  2  0  0  0
  1  3  1  0  0  0
  3  5  1  0  0  0
  5  6  1  0  0  0
  6  7  1  0  0  0
  7  8  1  0  0  0
  8  9  1  0  0  0
  9 10  2  0  0  0
  9 13  1  0  0  0
 13 14  2  0  0  0
 14 15  1  0  0  0
 15 16  2  0  0  0
 16 17  1  0  0  0
 17 18  2  0  0  0
  8 11  1  0  0  0
 11 12  1  0  0  0
 26 27  2  0  0  0
 27 28  1  0  0  0
 28 23  2  0  0  0
 12  5  1  0  0  0
 18 13  1  0  0  0
  3  4  1  0  0  0
M  END
> <minimizedAffinity>
-9.87629

$$$$
OCNT-2310785


 25 28  0  0  0  0  0  0  0  0999 V2000
   -5.4687   26.4084    5.0835 O   0  0  0  0  0  0  0  0  0  0  0  0
   -4.3063   26.2507    4.7385 C   0  0  0  0  0  0  0  0  0  0  0  0
   -3.8645   25.5212    3.6399 N   0  0  0  0  0  0  0  0  0  0  0  0
   -2.8651   25.5171    3.4783 H   0  0  0  0  0  0  0  0  0  0  0  0
   -4.6447   24.8291    2.6858 C   0  0  0  0  0  0  0  0  0  0  0  0
   -5.3283   25.4879    1.6375 C   0  0  0  0  0  0  0  0  0  0  0  0
   -6.0568   24.6304    0.7907 C   0  0  0  0  0  0  0  0  0  0  0  0
   -6.8121   24.9107   -0.2892 N   0  0  0  0  0  0  0  0  0  0  0  0
   -7.2796   23.7172   -0.7026 N   0  0  0  0  0  0  0  0  0  0  0  0
   -6.8638   22.6559    0.0505 C   0  0  0  0  0  0  0  0  0  0  0  0
   -6.0713   23.2083    1.0182 C   0  0  0  0  0  0  0  0  0  0  0  0
   -5.4191   22.5118    2.0259 C   0  0  0  0  0  0  0  0  0  0  0  0
   -4.6951   23.3977    2.8555 C   0  0  0  0  0  0  0  0  0  0  0  0
   -7.8872   23.7063   -1.5149 H   0  0  0  0  0  0  0  0  0  0  0  0
   -3.2016   26.8568    5.5034 C   0  0  0  0  0  0  0  0  0  0  0  0
   -1.8836   26.4116    5.4971 C   0  0  0  0  0  0  0  0  0  0  0  0
   -0.9115   27.3937    6.5098 S   0  0  0  0  0  0  0  0  0  0  0  0
   -2.3028   28.3220    6.9422 C   0  0  0  0  0  0  0  0  0  0  0  0
   -3.4242   27.9335    6.3578 N   0  0  0  0  0  0  0  0  0  0  0  0
   -2.2055   29.4301    7.9074 C   0  0  0  0  0  0  0  0  0  0  0  0
   -0.9696   30.0105    8.1840 C   0  0  0  0  0  0  0  0  0  0  0  0
   -0.9037   31.0346    9.1251 C   0  0  0  0  0  0  0  0  0  0  0  0
   -2.0643   31.4394    9.7731 C   0  0  0  0  0  0  0  0  0  0  0  0
   -3.2527   30.8032    9.4501 C   0  0  0  0  0  0  0  0  0  0  0  0
   -3.3501   29.8148    8.5340 N   0  0  0  0  0  0  0  0  0  0  0  0
  1  2  2  0  0  0
  2  3  1  0  0  0
  3  5  1  0  0  0
  5  6  2  0  0  0
  6  7  1  0  0  0
  7  8  2  0  0  0
  8  9  1  0  0  0
  9 10  1  0  0  0
 10 11  2  0  0  0
 11 12  1  0  0  0
 12 13  2  0  0  0
  2 15  1  0  0  0
 15 16  2  0  0  0
 16 17  1  0  0  0
 17 18  1  0  0  0
 18 20  1  0  0  0
 20 21  2  0  0  0
 21 22  1  0  0  0
 22 23  2  0  0  0
 23 24  1  0  0  0
 24 25  2  0  0  0
 18 19  2  0  0  0
 13  5  1  0  0  0
 19 15  1  0  0  0
 11  7  1  0  0  0
 25 20  1  0  0  0
  3  4  1  0  0  0
  9 14  1  0  0  0
M  END
> <minimizedAffinity>
-9.32488

$$$$
OCNT-2310796


 23 25  0  0  0  0  0  0  0  0999 V2000
   -5.6878   28.4182    6.6283 O   0  0  0  0  0  0  0  0  0  0  0  0
   -4.7166   28.2560    5.8943 C   0  0  0  0  0  0  0  0  0  0  0  0
   -3.5211   28.9378    6.0395 N   0  0  0  0  0  0  0  0  0  0  0  0
   -2.7885   28.6892    5.3759 H   0  0  0  0  0  0  0  0  0  0  0  0
   -4.7569   27.3061    4.7825 C   0  0  0  0  0  0  0  0  0  0  0  0
   -4.0044   26.1527    4.6595 C   0  0  0  0  0  0  0  0  0  0  0  0
   -4.2698   25.4257    3.4544 C   0  0  0  0  0  0  0  0  0  0  0  0
   -5.2314   26.0650    2.6942 C   0  0  0  0  0  0  0  0  0  0  0  0
   -5.7865   25.6309    1.3710 C   0  0  0  0  0  0  0  0  0  0  0  0
   -6.3787   24.2216    1.4266 C   0  0  0  0  0  0  0  0  0  0  0  0
   -5.3357   23.1016    1.4931 C   0  0  0  0  0  0  0  0  0  0  0  0
   -4.5745   22.9975    2.8182 C   0  0  0  0  0  0  0  0  0  0  0  0
   -3.5942   24.1436    3.0706 C   0  0  0  0  0  0  0  0  0  0  0  0
   -5.7865   27.5022    3.4316 S   0  0  0  0  0  0  0  0  0  0  0  0
   -3.1718   29.8952    7.0190 C   0  0  0  0  0  0  0  0  0  0  0  0
   -3.7177   31.1768    7.0876 C   0  0  0  0  0  0  0  0  0  0  0  0
   -3.3989   32.0987    8.0327 N   0  0  0  0  0  0  0  0  0  0  0  0
   -2.4872   31.7374    8.9524 C   0  0  0  0  0  0  0  0  0  0  0  0
   -1.8781   30.4949    8.9762 C   0  0  0  0  0  0  0  0  0  0  0  0
   -2.2232   29.5454    8.0017 C   0  0  0  0  0  0  0  0  0  0  0  0
   -1.5071   28.2192    8.0095 C   0  0  0  0  0  0  0  0  0  0  0  0
   -2.4115   27.1586    8.2965 O   0  0  0  0  0  0  0  0  0  0  0  0
   -2.8461   27.3839    9.1396 H   0  0  0  0  0  0  0  0  0  0  0  0
  1  2  2  0  0  0
  2  3  1  0  0  0
  3 15  1  0  0  0
 15 16  2  0  0  0
 16 17  1  0  0  0
 17 18  2  0  0  0
 18 19  1  0  0  0
 19 20  2  0  0  0
 20 21  1  0  0  0
 21 22  1  0  0  0
  2  5  1  0  0  0
  5  6  2  0  0  0
  6  7  1  0  0  0
  7  8  2  0  0  0
  8  9  1  0  0  0
  9 10  1  0  0  0
 10 11  1  0  0  0
 11 12  1  0  0  0
 12 13  1  0  0  0
  8 14  1  0  0  0
 20 15  1  0  0  0
 14  5  1  0  0  0
 13  7  1  0  0  0
  3  4  1  0  0  0
 22 23  1  0  0  0
M  END
> <minimizedAffinity>
-8.47725

$$$$
OCNT-2310804


 28 31  0  0  0  0  0  0  0  0999 V2000
   -4.6444   30.5458    5.8210 O   0  0  0  0  0  0  0  0  0  0  0  0
   -4.6363   29.6704    6.6886 C   0  0  0  0  0  0  0  0  0  0  0  0
   -4.7912   28.3082    6.4601 N   0  0  0  0  0  0  0  0  0  0  0  0
   -4.6851   27.6765    7.2457 H   0  0  0  0  0  0  0  0  0  0  0  0
   -4.4538   30.0257    8.2109 C   0  0  0  0  0  0  0  0  0  0  0  0
   -5.1501   28.9074    9.0292 C   0  0  0  0  0  0  0  0  0  0  0  0
   -6.1169   29.6401    9.9441 C   0  0  0  0  0  0  0  0  0  0  0  0
   -6.5024   30.8437    9.1155 C   0  0  0  0  0  0  0  0  0  0  0  0
   -5.2333   31.2589    8.5282 N   0  0  0  0  0  0  0  0  0  0  0  0
   -5.4009   31.7650    7.6536 H   0  0  0  0  0  0  0  0  0  0  0  0
   -2.9833   30.2946    8.5615 C   0  0  0  0  0  0  0  0  0  0  0  0
   -2.5497   31.5331    9.0669 C   0  0  0  0  0  0  0  0  0  0  0  0
   -1.2049   31.7595    9.3763 C   0  0  0  0  0  0  0  0  0  0  0  0
   -0.2602   30.7603    9.1660 C   0  0  0  0  0  0  0  0  0  0  0  0
   -0.6559   29.5405    8.6283 C   0  0  0  0  0  0  0  0  0  0  0  0
   -1.9995   29.3146    8.3178 C   0  0  0  0  0  0  0  0  0  0  0  0
   -4.9790   27.7224    5.2229 C   0  0  0  0  0  0  0  0  0  0  0  0
   -4.1717   26.8315    4.5605 C   0  0  0  0  0  0  0  0  0  0  0  0
   -4.8017   26.5392    3.3830 N   0  0  0  0  0  0  0  0  0  0  0  0
   -5.9603   27.2148    3.2168 N   0  0  0  0  0  0  0  0  0  0  0  0
   -6.0698   27.9202    4.3461 C   0  0  0  0  0  0  0  0  0  0  0  0
   -4.3200   25.6416    2.3425 C   0  0  0  0  0  0  0  0  0  0  0  0
   -5.4542   24.9031    1.6812 C   0  0  0  0  0  0  0  0  0  0  0  0
   -5.8622   25.2209    0.3821 C   0  0  0  0  0  0  0  0  0  0  0  0
   -6.9082   24.5044   -0.1798 C   0  0  0  0  0  0  0  0  0  0  0  0
   -7.5637   23.5093    0.4536 N   0  0  0  0  0  0  0  0  0  0  0  0
   -7.1493   23.2095    1.7028 C   0  0  0  0  0  0  0  0  0  0  0  0
   -6.1156   23.8673    2.3500 C   0  0  0  0  0  0  0  0  0  0  0  0
  1  2  2  0  0  0
  2  3  1  0  0  0
  3 17  1  0  0  0
 17 18  2  0  0  0
 18 19  1  0  0  0
 19 22  1  0  0  0
 22 23  1  0  0  0
 23 24  2  0  0  0
 24 25  1  0  0  0
 25 26  2  0  0  0
 26 27  1  0  0  0
 27 28  2  0  0  0
 19 20  1  0  0  0
 20 21  2  0  0  0
  2  5  1  0  0  0
  5 11  1  0  0  0
 11 12  2  0  0  0
 12 13  1  0  0  0
 13 14  2  0  0  0
 14 15  1  0  0  0
 15 16  2  0  0  0
  5  6  1  0  0  0
  6  7  1  0  0  0
  7  8  1  0  0  0
  8  9  1  0  0  0
 21 17  1  0  0  0
  9  5  1  0  0  0
 28 23  1  0  0  0
 16 11  1  0  0  0
  3  4  1  0  0  0
  9 10  1  0  0  0
M  END
> <minimizedAffinity>
-9.53171

$$$$
OCNT-2310816


 22 24  0  0  0  0  0  0  0  0999 V2000
   -6.0331   28.7705    5.6776 C   0  0  0  0  0  0  0  0  0  0  0  0
   -7.2271   29.6408    6.0721 C   0  0  0  0  0  0  0  0  0  0  0  0
   -6.7646   30.3005    7.3685 C   0  0  0  0  0  0  0  0  0  0  0  0
   -5.3371   30.4748    7.1722 N   0  0  0  0  0  0  0  0  0  0  0  0
   -4.8301   29.6580    6.0721 C   0  0  0  0  0  0  0  0  0  0  0  0
   -4.4776   31.0809    8.0526 C   0  0  0  0  0  0  0  0  0  0  0  0
   -3.4823   30.3160    8.5702 N   0  0  0  0  0  0  0  0  0  0  0  0
   -2.6030   30.8794    9.4313 C   0  0  0  0  0  0  0  0  0  0  0  0
   -2.6502   32.2020    9.8287 C   0  0  0  0  0  0  0  0  0  0  0  0
   -3.6623   32.9933    9.3089 C   0  0  0  0  0  0  0  0  0  0  0  0
   -4.5749   32.4312    8.4196 C   0  0  0  0  0  0  0  0  0  0  0  0
   -5.5469   33.2230    7.9382 F   0  0  0  0  0  0  0  0  0  0  0  0
   -6.0212   28.4419    4.2484 N   0  0  0  0  0  0  0  0  0  0  0  0
   -6.8664   28.7725    3.7801 H   0  0  0  0  0  0  0  0  0  0  0  0
   -6.0595   23.6689    5.4622 C   0  0  0  0  0  0  0  0  0  0  0  0
   -5.9709   24.7941    4.4766 C   0  0  0  0  0  0  0  0  0  0  0  0
   -6.0514   26.1033    4.9055 C   0  0  0  0  0  0  0  0  0  0  0  0
   -5.9595   27.0830    3.9398 C   0  0  0  0  0  0  0  0  0  0  0  0
   -5.7763   26.7957    2.6449 N   0  0  0  0  0  0  0  0  0  0  0  0
   -5.6978   25.4943    2.3132 C   0  0  0  0  0  0  0  0  0  0  0  0
   -5.5262   25.1589    0.8651 C   0  0  0  0  0  0  0  0  0  0  0  0
   -5.8059   24.4718    3.1800 N   0  0  0  0  0  0  0  0  0  0  0  0
 15 16  1  0  0  0
 16 17  1  0  0  0
 17 18  2  0  0  0
 18 13  1  0  0  0
 13  1  1  0  0  0
  1  2  1  0  0  0
  2  3  1  0  0  0
  3  4  1  0  0  0
  4  6  1  0  0  0
  6  7  1  0  0  0
  7  8  2  0  0  0
  8  9  1  0  0  0
  9 10  2  0  0  0
 10 11  1  0  0  0
 11 12  1  0  0  0
  4  5  1  0  0  0
 18 19  1  0  0  0
 19 20  2  0  0  0
 20 21  1  0  0  0
 20 22  1  0  0  0
 22 16  2  0  0  0
  5  1  1  0  0  0
 11  6  2  0  0  0
 13 14  1  0  0  0
M  END
> <minimizedAffinity>
-8.38713

$$$$
OCNT-2310826


 25 28  0  0  0  0  0  0  0  0999 V2000
    0.1279   28.7449    6.3199 O   0  0  0  0  0  0  0  0  0  0  0  0
   -1.0901   28.6803    6.4921 C   0  0  0  0  0  0  0  0  0  0  0  0
   -1.8267   27.6191    5.9744 N   0  0  0  0  0  0  0  0  0  0  0  0
   -1.1170   26.3882    5.6200 C   0  0  0  0  0  0  0  0  0  0  0  0
   -1.6683   25.7305    4.3415 C   0  0  0  0  0  0  0  0  0  0  0  0
   -3.1256   25.5126    4.4284 N   0  0  0  0  0  0  0  0  0  0  0  0
   -3.7955   26.8076    4.6585 C   0  0  0  0  0  0  0  0  0  0  0  0
   -3.2876   27.5203    5.9300 C   0  0  0  0  0  0  0  0  0  0  0  0
   -1.7590   29.7420    7.2199 C   0  0  0  0  0  0  0  0  0  0  0  0
   -1.5964   30.2699    8.4902 C   0  0  0  0  0  0  0  0  0  0  0  0
   -2.5212   31.3375    8.6609 C   0  0  0  0  0  0  0  0  0  0  0  0
   -2.8334   32.2139    9.7148 C   0  0  0  0  0  0  0  0  0  0  0  0
   -2.1931   32.1211   10.8893 F   0  0  0  0  0  0  0  0  0  0  0  0
   -3.8181   33.1885    9.5491 C   0  0  0  0  0  0  0  0  0  0  0  0
   -4.4939   33.3021    8.3356 C   0  0  0  0  0  0  0  0  0  0  0  0
   -4.2016   32.4482    7.2646 C   0  0  0  0  0  0  0  0  0  0  0  0
   -3.2118   31.4759    7.4588 C   0  0  0  0  0  0  0  0  0  0  0  0
   -2.7101   30.5283    6.6002 N   0  0  0  0  0  0  0  0  0  0  0  0
   -2.9877   30.4064    5.6348 H   0  0  0  0  0  0  0  0  0  0  0  0
   -3.7147   24.7625    3.2989 C   0  0  0  0  0  0  0  0  0  0  0  0
   -4.8537   23.7903    3.6570 C   0  0  0  0  0  0  0  0  0  0  0  0
   -5.5574   23.3426    2.3836 C   0  0  0  0  0  0  0  0  0  0  0  0
   -6.1616   24.4163    1.6634 O   0  0  0  0  0  0  0  0  0  0  0  0
   -5.6242   25.7108    1.9296 C   0  0  0  0  0  0  0  0  0  0  0  0
   -4.1173   25.6868    2.1300 C   0  0  0  0  0  0  0  0  0  0  0  0
  1  2  2  0  0  0
  2  9  1  0  0  0
  9 10  2  0  0  0
 10 11  1  0  0  0
 11 12  2  0  0  0
 12 13  1  0  0  0
 12 14  1  0  0  0
 14 15  2  0  0  0
 15 16  1  0  0  0
 16 17  2  0  0  0
 17 18  1  0  0  0
  2  3  1  0  0  0
  3  4  1  0  0  0
  4  5  1  0  0  0
  5  6  1  0  0  0
  6 20  1  0  0  0
 20 21  1  0  0  0
 21 22  1  0  0  0
 22 23  1  0  0  0
 23 24  1  0  0  0
 24 25  1  0  0  0
  6  7  1  0  0  0
  7  8  1  0  0  0
 18  9  1  0  0  0
  8  3  1  0  0  0
 17 11  1  0  0  0
 25 20  1  0  0  0
 18 19  1  0  0  0
M  END
> <minimizedAffinity>
-9.42691

$$$$
OCNT-2310827


 26 29  0  0  0  0  0  0  0  0999 V2000
   -6.4218   29.8411    4.3945 O   0  0  0  0  0  0  0  0  0  0  0  0
   -5.7295   28.9379    4.8513 C   0  0  0  0  0  0  0  0  0  0  0  0
   -4.8486   29.1065    5.8992 N   0  0  0  0  0  0  0  0  0  0  0  0
   -4.4083   28.2715    6.2772 H   0  0  0  0  0  0  0  0  0  0  0  0
   -4.7502   30.3532    6.6364 C   0  0  0  0  0  0  0  0  0  0  0  0
   -5.9231   30.4805    7.6080 C   0  0  0  0  0  0  0  0  0  0  0  0
   -5.6509   31.6366    8.5493 C   0  0  0  0  0  0  0  0  0  0  0  0
   -4.5042   31.3884    9.3664 O   0  0  0  0  0  0  0  0  0  0  0  0
   -3.3946   30.9764    8.6777 C   0  0  0  0  0  0  0  0  0  0  0  0
   -2.1840   31.0695    9.3704 C   0  0  0  0  0  0  0  0  0  0  0  0
   -0.9942   30.6890    8.7527 C   0  0  0  0  0  0  0  0  0  0  0  0
   -1.0262   30.2179    7.4469 C   0  0  0  0  0  0  0  0  0  0  0  0
    0.1170   29.8637    6.8455 F   0  0  0  0  0  0  0  0  0  0  0  0
   -2.2273   30.1072    6.7531 C   0  0  0  0  0  0  0  0  0  0  0  0
   -3.4366   30.4648    7.3727 C   0  0  0  0  0  0  0  0  0  0  0  0
   -5.8006   27.5567    4.2977 C   0  0  0  0  0  0  0  0  0  0  0  0
   -5.5413   27.3024    2.9668 C   0  0  0  0  0  0  0  0  0  0  0  0
   -5.6312   25.9834    2.5208 C   0  0  0  0  0  0  0  0  0  0  0  0
   -5.9677   24.9596    3.4030 C   0  0  0  0  0  0  0  0  0  0  0  0
   -6.2263   25.2769    4.6951 N   0  0  0  0  0  0  0  0  0  0  0  0
   -6.1391   26.5736    5.1574 N   0  0  0  0  0  0  0  0  0  0  0  0
   -6.0812   23.6518    2.9868 N   0  0  0  0  0  0  0  0  0  0  0  0
   -6.7642   23.2574    1.7595 C   0  0  0  0  0  0  0  0  0  0  0  0
   -6.0404   21.9846    1.3164 C   0  0  0  0  0  0  0  0  0  0  0  0
   -5.4559   21.4345    2.6077 C   0  0  0  0  0  0  0  0  0  0  0  0
   -5.0342   22.7008    3.3459 C   0  0  0  0  0  0  0  0  0  0  0  0
  1  2  2  0  0  0
  2  3  1  0  0  0
  3  5  1  0  0  0
  5  6  1  0  0  0
  6  7  1  0  0  0
  7  8  1  0  0  0
  8  9  1  0  0  0
  9 10  1  0  0  0
 10 11  2  0  0  0
 11 12  1  0  0  0
 12 13  1  0  0  0
 12 14  2  0  0  0
 14 15  1  0  0  0
  2 16  1  0  0  0
 16 17  2  0  0  0
 17 18  1  0  0  0
 18 19  2  0  0  0
 19 22  1  0  0  0
 22 23  1  0  0  0
 23 24  1  0  0  0
 24 25  1  0  0  0
 25 26  1  0  0  0
 19 20  1  0  0  0
 20 21  2  0  0  0
 15  5  1  0  0  0
 21 16  1  0  0  0
 15  9  2  0  0  0
 26 22  1  0  0  0
  3  4  1  0  0  0
M  END
> <minimizedAffinity>
-9.98696

$$$$
OCNT-2310829


 24 26  0  0  0  0  0  0  0  0999 V2000
   -2.3121   25.9441    6.9367 O   0  0  0  0  0  0  0  0  0  0  0  0
   -2.2855   27.0940    6.5192 C   0  0  0  0  0  0  0  0  0  0  0  0
   -2.9085   27.5115    5.3595 N   0  0  0  0  0  0  0  0  0  0  0  0
   -3.0178   28.5075    5.2134 H   0  0  0  0  0  0  0  0  0  0  0  0
   -1.5708   28.1644    7.2652 C   0  0  0  0  0  0  0  0  0  0  0  0
   -0.1722   28.2189    7.1406 C   0  0  0  0  0  0  0  0  0  0  0  0
    0.5527   29.1958    7.8151 C   0  0  0  0  0  0  0  0  0  0  0  0
   -0.1143   30.1198    8.6164 C   0  0  0  0  0  0  0  0  0  0  0  0
   -1.5137   30.0755    8.7560 C   0  0  0  0  0  0  0  0  0  0  0  0
   -2.1978   30.9965    9.5542 C   0  0  0  0  0  0  0  0  0  0  0  0
   -3.5375   31.0206    9.7309 N   0  0  0  0  0  0  0  0  0  0  0  0
   -4.2421   30.0738    9.0838 C   0  0  0  0  0  0  0  0  0  0  0  0
   -3.6701   29.1125    8.2651 C   0  0  0  0  0  0  0  0  0  0  0  0
   -2.2705   29.0907    8.0835 C   0  0  0  0  0  0  0  0  0  0  0  0
   -3.7756   26.6183    4.6001 C   0  0  0  0  0  0  0  0  0  0  0  0
   -3.0087   25.9891    3.4361 C   0  0  0  0  0  0  0  0  0  0  0  0
   -3.9341   25.1323    2.5725 C   0  0  0  0  0  0  0  0  0  0  0  0
   -5.0569   25.9396    2.0795 N   0  0  0  0  0  0  0  0  0  0  0  0
   -5.8621   26.4511    3.1970 C   0  0  0  0  0  0  0  0  0  0  0  0
   -5.0144   27.3587    4.0879 C   0  0  0  0  0  0  0  0  0  0  0  0
   -5.8790   25.2115    1.0822 C   0  0  0  0  0  0  0  0  0  0  0  0
   -6.4184   23.8019    1.3903 C   0  0  0  0  0  0  0  0  0  0  0  0
   -7.6761   23.6455    0.9090 F   0  0  0  0  0  0  0  0  0  0  0  0
   -5.6476   22.8463    0.8168 F   0  0  0  0  0  0  0  0  0  0  0  0
  1  2  2  0  0  0
  2  3  1  0  0  0
  3 15  1  0  0  0
 15 16  1  0  0  0
 16 17  1  0  0  0
 17 18  1  0  0  0
 18 21  1  0  0  0
 21 22  1  0  0  0
 22 23  1  0  0  0
 22 24  1  0  0  0
 18 19  1  0  0  0
 19 20  1  0  0  0
  2  5  1  0  0  0
  5  6  2  0  0  0
  6  7  1  0  0  0
  7  8  2  0  0  0
  8  9  1  0  0  0
  9 10  2  0  0  0
 10 11  1  0  0  0
 11 12  2  0  0  0
 12 13  1  0  0  0
 13 14  2  0  0  0
 20 15  1  0  0  0
 14  5  1  0  0  0
 14  9  1  0  0  0
  3  4  1  0  0  0
M  END
> <minimizedAffinity>
-8.89035

$$$$
OCNT-2310830


 27 29  0  0  0  0  0  0  0  0999 V2000
   -4.7271   25.3212    3.4973 C   0  0  0  0  0  0  0  0  0  0  0  0
   -3.7804   25.8523    2.9227 O   0  0  0  0  0  0  0  0  0  0  0  0
   -5.3930   25.9372    4.5472 N   0  0  0  0  0  0  0  0  0  0  0  0
   -6.2792   25.4927    4.7815 H   0  0  0  0  0  0  0  0  0  0  0  0
   -5.1900   27.3403    4.8798 C   0  0  0  0  0  0  0  0  0  0  0  0
   -6.4659   27.9501    5.4659 C   0  0  0  0  0  0  0  0  0  0  0  0
   -6.2927   29.4323    5.8061 C   0  0  0  0  0  0  0  0  0  0  0  0
   -4.8328   29.8829    5.9220 C   0  0  0  0  0  0  0  0  0  0  0  0
   -4.0421   28.8257    6.5341 N   0  0  0  0  0  0  0  0  0  0  0  0
   -4.0060   27.5264    5.8555 C   0  0  0  0  0  0  0  0  0  0  0  0
   -2.8376   29.1995    7.1212 C   0  0  0  0  0  0  0  0  0  0  0  0
   -2.4661   30.4911    7.0968 N   0  0  0  0  0  0  0  0  0  0  0  0
   -1.3071   30.8262    7.6946 C   0  0  0  0  0  0  0  0  0  0  0  0
   -0.4913   29.9242    8.3245 C   0  0  0  0  0  0  0  0  0  0  0  0
   -0.9418   28.6311    8.3069 C   0  0  0  0  0  0  0  0  0  0  0  0
   -2.0933   28.2518    7.7212 N   0  0  0  0  0  0  0  0  0  0  0  0
   -5.2649   23.8830    3.1961 C   0  0  0  0  0  0  0  0  0  0  0  0
   -5.8963   23.7052    1.8198 C   0  0  0  0  0  0  0  0  0  0  0  0
   -6.0430   22.4119    1.2864 C   0  0  0  0  0  0  0  0  0  0  0  0
   -6.6334   22.2116    0.0367 C   0  0  0  0  0  0  0  0  0  0  0  0
   -7.0867   23.3007   -0.7024 C   0  0  0  0  0  0  0  0  0  0  0  0
   -6.9490   24.5892   -0.1933 C   0  0  0  0  0  0  0  0  0  0  0  0
   -6.3604   24.7902    1.0577 C   0  0  0  0  0  0  0  0  0  0  0  0
   -6.0874   23.4102    4.3558 N   0  0  0  0  0  0  0  0  0  0  0  0
   -5.5385   22.2251    5.0012 C   0  0  0  0  0  0  0  0  0  0  0  0
   -8.2337   22.0081    4.2940 C   0  0  0  0  0  0  0  0  0  0  0  0
   -7.5386   23.3585    4.1331 C   0  0  0  0  0  0  0  0  0  0  0  0
 26 27  1  0  0  0
 27 24  1  0  0  0
 24 25  1  0  0  0
 24 17  1  0  0  0
 17  1  1  0  0  0
  1  2  2  0  0  0
  1  3  1  0  0  0
  3  5  1  0  0  0
  5  6  1  0  0  0
  6  7  1  0  0  0
  7  8  1  0  0  0
  8  9  1  0  0  0
  9 11  1  0  0  0
 11 12  2  0  0  0
 12 13  1  0  0  0
 13 14  2  0  0  0
 14 15  1  0  0  0
 15 16  2  0  0  0
  9 10  1  0  0  0
 17 18  1  0  0  0
 18 19  2  0  0  0
 19 20  1  0  0  0
 20 21  2  0  0  0
 21 22  1  0  0  0
 22 23  2  0  0  0
 10  5  1  0  0  0
 23 18  1  0  0  0
 16 11  1  0  0  0
  3  4  1  0  0  0
M  END
> <minimizedAffinity>
-8.46109

$$$$
OCNT-2310833


 30 33  0  0  0  0  0  0  0  0999 V2000
   -4.7915   26.4941    5.7027 N   0  0  0  0  0  0  0  0  0  0  0  0
   -4.1750   27.7151    5.7168 C   0  0  0  0  0  0  0  0  0  0  0  0
   -4.5900   28.7086    5.1368 O   0  0  0  0  0  0  0  0  0  0  0  0
   -3.0346   27.6812    6.4763 N   0  0  0  0  0  0  0  0  0  0  0  0
   -4.6202   25.9284    6.5201 H   0  0  0  0  0  0  0  0  0  0  0  0
   -2.5182   26.8187    6.3615 H   0  0  0  0  0  0  0  0  0  0  0  0
   -2.1721   28.8427    6.4684 C   0  0  0  0  0  0  0  0  0  0  0  0
   -2.2871   29.6730    7.7180 C   0  0  0  0  0  0  0  0  0  0  0  0
   -3.4336   30.0505    8.4007 C   0  0  0  0  0  0  0  0  0  0  0  0
   -3.3007   30.8759    9.5191 C   0  0  0  0  0  0  0  0  0  0  0  0
   -2.0356   31.3233    9.9310 C   0  0  0  0  0  0  0  0  0  0  0  0
   -0.8857   30.9523    9.2305 C   0  0  0  0  0  0  0  0  0  0  0  0
   -1.0256   30.1230    8.1300 C   0  0  0  0  0  0  0  0  0  0  0  0
    0.0527   29.6263    7.2111 C   0  0  0  0  0  0  0  0  0  0  0  0
   -0.6609   28.4652    6.4920 C   0  0  0  0  0  0  0  0  0  0  0  0
   -0.4583   27.2436    7.2363 O   0  0  0  0  0  0  0  0  0  0  0  0
    0.4890   27.0310    7.1782 H   0  0  0  0  0  0  0  0  0  0  0  0
   -6.0867   26.3530    5.0779 C   0  0  0  0  0  0  0  0  0  0  0  0
   -6.2166   24.1003    3.8504 C   0  0  0  0  0  0  0  0  0  0  0  0
   -6.1192   23.3757    2.6507 C   0  0  0  0  0  0  0  0  0  0  0  0
   -5.7855   24.0131    1.4554 C   0  0  0  0  0  0  0  0  0  0  0  0
   -5.5459   25.3827    1.4443 C   0  0  0  0  0  0  0  0  0  0  0  0
   -5.6468   26.1154    2.6269 C   0  0  0  0  0  0  0  0  0  0  0  0
   -5.9933   25.4923    3.8420 C   0  0  0  0  0  0  0  0  0  0  0  0
   -8.7466   22.1804    7.6554 C   0  0  0  0  0  0  0  0  0  0  0  0
   -7.6963   22.5488    6.7377 N   0  0  0  0  0  0  0  0  0  0  0  0
   -7.8160   23.3252    5.6209 C   0  0  0  0  0  0  0  0  0  0  0  0
   -6.5609   23.3699    5.0530 C   0  0  0  0  0  0  0  0  0  0  0  0
   -5.7505   22.6200    5.9328 C   0  0  0  0  0  0  0  0  0  0  0  0
   -6.4411   22.1167    6.9598 N   0  0  0  0  0  0  0  0  0  0  0  0
 25 26  1  0  0  0
 26 27  1  0  0  0
 27 28  2  0  0  0
 28 19  1  0  0  0
 19 20  2  0  0  0
 20 21  1  0  0  0
 21 22  2  0  0  0
 22 23  1  0  0  0
 23 24  2  0  0  0
 24 18  1  0  0  0
 18  1  1  0  0  0
  1  2  1  0  0  0
  2  3  2  0  0  0
  2  4  1  0  0  0
  4  7  1  0  0  0
  7  8  1  0  0  0
  8  9  2  0  0  0
  9 10  1  0  0  0
 10 11  2  0  0  0
 11 12  1  0  0  0
 12 13  2  0  0  0
 13 14  1  0  0  0
 14 15  1  0  0  0
 15 16  1  0  0  0
 28 29  1  0  0  0
 29 30  2  0  0  0
 30 26  1  0  0  0
 24 19  1  0  0  0
 15  7  1  0  0  0
 13  8  1  0  0  0
  1  5  1  0  0  0
  4  6  1  0  0  0
 16 17  1  0  0  0
M  END
> <minimizedAffinity>
-10.19063

$$$$
OCNT-2310843


 27 29  0  0  0  0  0  0  0  0999 V2000
   -2.4208   29.9628    7.3422 C   0  0  0  0  0  0  0  0  0  0  0  0
   -2.8106   28.5144    6.9783 C   0  0  0  0  0  0  0  0  0  0  0  0
   -4.1274   29.0285    6.6024 N   0  0  0  0  0  0  0  0  0  0  0  0
   -5.0098   28.5116    5.6878 C   0  0  0  0  0  0  0  0  0  0  0  0
   -5.7753   29.2075    5.0291 O   0  0  0  0  0  0  0  0  0  0  0  0
   -4.9480   27.1415    5.5796 N   0  0  0  0  0  0  0  0  0  0  0  0
   -3.7089   30.4293    6.6292 C   0  0  0  0  0  0  0  0  0  0  0  0
   -4.7058   26.6828    6.4458 H   0  0  0  0  0  0  0  0  0  0  0  0
   -2.5060   30.3244    8.8546 C   0  0  0  0  0  0  0  0  0  0  0  0
   -3.4692   31.4977    9.1565 C   0  0  0  0  0  0  0  0  0  0  0  0
   -2.4819   31.9105   10.2707 C   0  0  0  0  0  0  0  0  0  0  0  0
   -1.3785   31.1971    9.4558 C   0  0  0  0  0  0  0  0  0  0  0  0
   -1.1226   30.4943    6.7283 C   0  0  0  0  0  0  0  0  0  0  0  0
    0.7734   29.2202    7.3790 C   0  0  0  0  0  0  0  0  0  0  0  0
   -0.2505   29.4139    6.4059 O   0  0  0  0  0  0  0  0  0  0  0  0
   -5.8505   26.4369    4.6852 C   0  0  0  0  0  0  0  0  0  0  0  0
   -5.3174   26.3752    3.2489 C   0  0  0  0  0  0  0  0  0  0  0  0
   -5.5141   25.0145    2.6236 C   0  0  0  0  0  0  0  0  0  0  0  0
   -6.1896   24.8745    1.4034 C   0  0  0  0  0  0  0  0  0  0  0  0
   -6.3826   23.6124    0.8203 C   0  0  0  0  0  0  0  0  0  0  0  0
   -7.1318   23.5160   -0.4780 C   0  0  0  0  0  0  0  0  0  0  0  0
   -5.8908   22.4832    1.4914 C   0  0  0  0  0  0  0  0  0  0  0  0
   -6.0606   21.2181    0.9962 O   0  0  0  0  0  0  0  0  0  0  0  0
   -5.2063   22.6000    2.7093 C   0  0  0  0  0  0  0  0  0  0  0  0
   -4.6896   21.3838    3.4245 C   0  0  0  0  0  0  0  0  0  0  0  0
   -5.0181   23.8727    3.2642 C   0  0  0  0  0  0  0  0  0  0  0  0
   -6.5265   21.2608    0.1487 H   0  0  0  0  0  0  0  0  0  0  0  0
 14 15  1  0  0  0
 15 13  1  0  0  0
 13  1  1  0  0  0
  1  9  1  0  0  0
  9 10  1  0  0  0
 10 11  1  0  0  0
 11 12  1  0  0  0
  1  2  1  0  0  0
  2  3  1  0  0  0
  3  4  1  0  0  0
  4  5  2  0  0  0
  4  6  1  0  0  0
  6 16  1  0  0  0
 16 17  1  0  0  0
 17 18  1  0  0  0
 18 19  1  0  0  0
 19 20  2  0  0  0
 20 21  1  0  0  0
 20 22  1  0  0  0
 22 23  1  0  0  0
 22 24  2  0  0  0
 24 25  1  0  0  0
 24 26  1  0  0  0
  3  7  1  0  0  0
  7  1  1  0  0  0
 12  9  1  0  0  0
 26 18  2  0  0  0
  6  8  1  0  0  0
 23 27  1  0  0  0
M  END
> <minimizedAffinity>
-9.42104

$$$$
OCNT-2310853


 25 27  0  0  0  0  0  0  0  0999 V2000
   -6.7555   24.4745    4.9199 C   0  0  0  0  0  0  0  0  0  0  0  0
   -5.4238   25.0592    4.5402 C   0  0  0  0  0  0  0  0  0  0  0  0
   -4.8871   26.1164    5.2976 C   0  0  0  0  0  0  0  0  0  0  0  0
   -3.6660   26.7092    4.9447 C   0  0  0  0  0  0  0  0  0  0  0  0
   -2.9664   26.2299    3.8248 C   0  0  0  0  0  0  0  0  0  0  0  0
   -3.4586   25.1475    3.0959 C   0  0  0  0  0  0  0  0  0  0  0  0
   -4.6705   24.5504    3.4708 C   0  0  0  0  0  0  0  0  0  0  0  0
   -3.0820   27.7871    5.6375 N   0  0  0  0  0  0  0  0  0  0  0  0
   -2.1815   27.7363    6.6952 C   0  0  0  0  0  0  0  0  0  0  0  0
   -1.6825   26.7177    7.1690 O   0  0  0  0  0  0  0  0  0  0  0  0
   -3.4266   28.7125    5.3786 H   0  0  0  0  0  0  0  0  0  0  0  0
   -1.7185   29.1077    7.1502 C   0  0  0  0  0  0  0  0  0  0  0  0
   -0.4536   29.0517    8.0207 C   0  0  0  0  0  0  0  0  0  0  0  0
   -0.5459   30.3275    8.8371 C   0  0  0  0  0  0  0  0  0  0  0  0
   -1.9659   30.4570    9.0585 N   0  0  0  0  0  0  0  0  0  0  0  0
   -2.5154   31.4547    9.9453 C   0  0  0  0  0  0  0  0  0  0  0  0
   -2.6933   29.8566    8.0419 C   0  0  0  0  0  0  0  0  0  0  0  0
   -3.8984   29.9466    7.8543 O   0  0  0  0  0  0  0  0  0  0  0  0
   -5.1542   23.4989    2.7256 O   0  0  0  0  0  0  0  0  0  0  0  0
   -5.8922   23.8526    1.6123 C   0  0  0  0  0  0  0  0  0  0  0  0
   -5.6626   25.0365    0.9133 C   0  0  0  0  0  0  0  0  0  0  0  0
   -6.4103   25.2715   -0.2281 C   0  0  0  0  0  0  0  0  0  0  0  0
   -7.3463   24.4159   -0.7034 N   0  0  0  0  0  0  0  0  0  0  0  0
   -7.5360   23.2728   -0.0028 C   0  0  0  0  0  0  0  0  0  0  0  0
   -6.8406   22.9454    1.1520 C   0  0  0  0  0  0  0  0  0  0  0  0
  1  2  1  0  0  0
  2  3  1  0  0  0
  3  4  2  0  0  0
  4  8  1  0  0  0
  8  9  1  0  0  0
  9 10  2  0  0  0
  9 12  1  0  0  0
 12 13  1  0  0  0
 13 14  1  0  0  0
 14 15  1  0  0  0
 15 16  1  0  0  0
 15 17  1  0  0  0
 17 18  2  0  0  0
  4  5  1  0  0  0
  5  6  2  0  0  0
  6  7  1  0  0  0
  7 19  1  0  0  0
 19 20  1  0  0  0
 20 21  2  0  0  0
 21 22  1  0  0  0
 22 23  2  0  0  0
 23 24  1  0  0  0
 24 25  2  0  0  0
  7  2  2  0  0  0
 25 20  1  0  0  0
 17 12  1  0  0  0
  8 11  1  0  0  0
M  END
> <minimizedAffinity>
-8.88280

$$$$
OCNT-2310859


 25 28  0  0  0  0  0  0  0  0999 V2000
   -3.4400   27.1299    5.1782 N   0  0  0  0  0  0  0  0  0  0  0  0
   -4.9131   27.1620    5.2721 C   0  0  0  0  0  0  0  0  0  0  0  0
   -5.5497   25.9084    4.6278 C   0  0  0  0  0  0  0  0  0  0  0  0
   -5.1912   25.7665    3.1910 N   0  0  0  0  0  0  0  0  0  0  0  0
   -3.8419   26.2987    2.8659 C   0  0  0  0  0  0  0  0  0  0  0  0
   -2.8812   26.3194    4.0755 C   0  0  0  0  0  0  0  0  0  0  0  0
   -5.3281   24.4068    2.8168 C   0  0  0  0  0  0  0  0  0  0  0  0
   -4.8439   23.4591    3.6419 N   0  0  0  0  0  0  0  0  0  0  0  0
   -5.0306   22.1865    3.2733 C   0  0  0  0  0  0  0  0  0  0  0  0
   -5.6509   21.7666    2.1662 N   0  0  0  0  0  0  0  0  0  0  0  0
   -6.1238   22.7296    1.3499 C   0  0  0  0  0  0  0  0  0  0  0  0
   -5.9756   24.0857    1.6228 C   0  0  0  0  0  0  0  0  0  0  0  0
   -6.5177   25.1407    0.6966 C   0  0  0  0  0  0  0  0  0  0  0  0
   -6.8392   24.6165   -0.7031 C   0  0  0  0  0  0  0  0  0  0  0  0
   -7.6158   23.3098   -0.6145 C   0  0  0  0  0  0  0  0  0  0  0  0
   -6.7698   22.2456    0.0774 C   0  0  0  0  0  0  0  0  0  0  0  0
   -2.3428   29.2066    8.0741 C   0  0  0  0  0  0  0  0  0  0  0  0
   -3.1413   28.6340    7.0741 C   0  0  0  0  0  0  0  0  0  0  0  0
   -2.6371   27.6831    6.1619 C   0  0  0  0  0  0  0  0  0  0  0  0
   -1.2818   27.3360    6.2909 C   0  0  0  0  0  0  0  0  0  0  0  0
   -0.4711   27.8944    7.2820 C   0  0  0  0  0  0  0  0  0  0  0  0
   -1.0066   28.8210    8.1637 C   0  0  0  0  0  0  0  0  0  0  0  0
   -0.2106   29.3449    9.1084 F   0  0  0  0  0  0  0  0  0  0  0  0
   -4.1518   30.2411    9.2307 C   0  0  0  0  0  0  0  0  0  0  0  0
   -2.7553   30.1347    8.9928 O   0  0  0  0  0  0  0  0  0  0  0  0
 24 25  1  0  0  0
 25 17  1  0  0  0
 17 18  1  0  0  0
 18 19  2  0  0  0
 19  1  1  0  0  0
  1  2  1  0  0  0
  2  3  1  0  0  0
  3  4  1  0  0  0
  4  7  1  0  0  0
  7  8  1  0  0  0
  8  9  2  0  0  0
  9 10  1  0  0  0
 10 11  2  0  0  0
 11 12  1  0  0  0
 12 13  1  0  0  0
 13 14  1  0  0  0
 14 15  1  0  0  0
 15 16  1  0  0  0
  4  5  1  0  0  0
  5  6  1  0  0  0
 19 20  1  0  0  0
 20 21  2  0  0  0
 21 22  1  0  0  0
 22 23  1  0  0  0
 22 17  2  0  0  0
  6  1  1  0  0  0
 12  7  2  0  0  0
 16 11  1  0  0  0
M  END
> <minimizedAffinity>
-9.76599

$$$$
OCNT-2310864


 28 30  0  0  0  0  0  0  0  0999 V2000
   -5.9884   29.2452    7.1497 O   0  0  0  0  0  0  0  0  0  0  0  0
   -4.8788   29.1915    6.6291 C   0  0  0  0  0  0  0  0  0  0  0  0
   -4.6870   28.8822    5.3107 N   0  0  0  0  0  0  0  0  0  0  0  0
   -3.7260   29.4145    7.3401 N   0  0  0  0  0  0  0  0  0  0  0  0
   -3.7880   29.8003    8.7409 C   0  0  0  0  0  0  0  0  0  0  0  0
   -2.3460   30.1039    9.1280 C   0  0  0  0  0  0  0  0  0  0  0  0
   -1.5368   29.2026    8.1890 C   0  0  0  0  0  0  0  0  0  0  0  0
   -1.5563   27.8560    8.7160 O   0  0  0  0  0  0  0  0  0  0  0  0
   -2.3445   29.2525    6.8895 C   0  0  0  0  0  0  0  0  0  0  0  0
   -3.8495   29.2436    4.8855 H   0  0  0  0  0  0  0  0  0  0  0  0
   -2.4616   27.5052    8.6212 H   0  0  0  0  0  0  0  0  0  0  0  0
   -0.1127   29.7104    7.9596 C   0  0  0  0  0  0  0  0  0  0  0  0
    0.7978   28.7365    8.2011 F   0  0  0  0  0  0  0  0  0  0  0  0
    0.1823   30.7395    8.7869 F   0  0  0  0  0  0  0  0  0  0  0  0
    0.0765   30.1291    6.6894 F   0  0  0  0  0  0  0  0  0  0  0  0
   -5.8111   28.6858    4.4221 C   0  0  0  0  0  0  0  0  0  0  0  0
   -5.9180   27.2441    3.9941 C   0  0  0  0  0  0  0  0  0  0  0  0
   -6.2217   26.2387    4.9178 C   0  0  0  0  0  0  0  0  0  0  0  0
   -6.2973   24.8976    4.5179 C   0  0  0  0  0  0  0  0  0  0  0  0
   -6.0626   24.5313    3.1817 C   0  0  0  0  0  0  0  0  0  0  0  0
   -5.7509   25.5434    2.2671 C   0  0  0  0  0  0  0  0  0  0  0  0
   -5.5060   25.2857    0.9761 F   0  0  0  0  0  0  0  0  0  0  0  0
   -5.6771   26.8795    2.6652 C   0  0  0  0  0  0  0  0  0  0  0  0
   -6.1414   23.1630    2.7868 N   0  0  0  0  0  0  0  0  0  0  0  0
   -7.2775   22.4744    2.4036 C   0  0  0  0  0  0  0  0  0  0  0  0
   -6.8784   21.1915    2.1155 C   0  0  0  0  0  0  0  0  0  0  0  0
   -5.5376   21.0517    2.3036 N   0  0  0  0  0  0  0  0  0  0  0  0
   -5.1225   22.2359    2.7007 C   0  0  0  0  0  0  0  0  0  0  0  0
  1  2  2  0  0  0
  2  3  1  0  0  0
  3 16  1  0  0  0
 16 17  1  0  0  0
 17 18  1  0  0  0
 18 19  2  0  0  0
 19 20  1  0  0  0
 20 24  1  0  0  0
 24 25  1  0  0  0
 25 26  2  0  0  0
 26 27  1  0  0  0
 27 28  2  0  0  0
 20 21  2  0  0  0
 21 22  1  0  0  0
 21 23  1  0  0  0
  2  4  1  0  0  0
  4  5  1  0  0  0
  5  6  1  0  0  0
  6  7  1  0  0  0
  7  8  1  0  0  0
  7 12  1  0  0  0
 12 13  1  0  0  0
 12 14  1  0  0  0
 12 15  1  0  0  0
  7  9  1  0  0  0
 23 17  2  0  0  0
  9  4  1  0  0  0
 28 24  1  0  0  0
  3 10  1  0  0  0
  8 11  1  0  0  0
M  END
> <minimizedAffinity>
-9.83127

$$$$
OCNT-2310873


 25 27  0  0  0  0  0  0  0  0999 V2000
   -1.0444   27.2853    7.1057 N   0  0  0  0  0  0  0  0  0  0  0  0
   -2.0250   26.2680    6.7861 C   0  0  0  0  0  0  0  0  0  0  0  0
   -1.8890   26.6787    5.3113 C   0  0  0  0  0  0  0  0  0  0  0  0
   -0.5453   27.2775    5.7485 C   0  0  0  0  0  0  0  0  0  0  0  0
   -2.1607   30.8004    9.1125 C   0  0  0  0  0  0  0  0  0  0  0  0
   -3.0738   29.8898    8.6017 C   0  0  0  0  0  0  0  0  0  0  0  0
   -2.7277   28.7526    7.9462 N   0  0  0  0  0  0  0  0  0  0  0  0
   -1.4085   28.4735    7.7938 C   0  0  0  0  0  0  0  0  0  0  0  0
   -0.4246   29.3495    8.2895 C   0  0  0  0  0  0  0  0  0  0  0  0
    1.2700   29.0667    8.0839 Cl  0  0  0  0  0  0  0  0  0  0  0  0
   -0.8064   30.5167    8.9580 C   0  0  0  0  0  0  0  0  0  0  0  0
   -3.5762   32.7878    9.1441 N   0  0  0  0  0  0  0  0  0  0  0  0
   -2.6724   32.0030    9.8043 C   0  0  0  0  0  0  0  0  0  0  0  0
   -2.3184   32.2779   10.9433 O   0  0  0  0  0  0  0  0  0  0  0  0
   -4.0838   32.4859    8.3253 H   0  0  0  0  0  0  0  0  0  0  0  0
   -3.9835   33.5431    9.6832 H   0  0  0  0  0  0  0  0  0  0  0  0
   -1.8031   25.5750    4.2705 C   0  0  0  0  0  0  0  0  0  0  0  0
   -3.0891   25.5057    3.4833 C   0  0  0  0  0  0  0  0  0  0  0  0
   -3.4145   24.3502    2.7531 C   0  0  0  0  0  0  0  0  0  0  0  0
   -4.5955   24.2901    2.0086 C   0  0  0  0  0  0  0  0  0  0  0  0
   -5.4520   25.3849    1.9899 C   0  0  0  0  0  0  0  0  0  0  0  0
   -6.5828   25.3231    1.2734 F   0  0  0  0  0  0  0  0  0  0  0  0
   -5.1380   26.5332    2.7051 C   0  0  0  0  0  0  0  0  0  0  0  0
   -5.9633   27.5890    2.6834 F   0  0  0  0  0  0  0  0  0  0  0  0
   -3.9633   26.6022    3.4496 C   0  0  0  0  0  0  0  0  0  0  0  0
 12 13  1  0  0  0
 13 14  2  0  0  0
 13  5  1  0  0  0
  5  6  1  0  0  0
  6  7  2  0  0  0
  7  8  1  0  0  0
  8  1  1  0  0  0
  1  2  1  0  0  0
  2  3  1  0  0  0
  3 17  1  0  0  0
 17 18  1  0  0  0
 18 19  1  0  0  0
 19 20  2  0  0  0
 20 21  1  0  0  0
 21 22  1  0  0  0
 21 23  2  0  0  0
 23 24  1  0  0  0
 23 25  1  0  0  0
  3  4  1  0  0  0
  8  9  2  0  0  0
  9 10  1  0  0  0
  9 11  1  0  0  0
 11  5  2  0  0  0
  4  1  1  0  0  0
 25 18  2  0  0  0
 12 15  1  0  0  0
 12 16  1  0  0  0
M  END
> <minimizedAffinity>
-8.90252

$$$$
OCNT-2310875


 29 32  0  0  0  0  0  0  0  0999 V2000
   -5.7358   28.7871    7.0352 O   0  0  0  0  0  0  0  0  0  0  0  0
   -5.2266   28.6301    5.9287 C   0  0  0  0  0  0  0  0  0  0  0  0
   -3.8616   28.5626    5.7181 N   0  0  0  0  0  0  0  0  0  0  0  0
   -3.5397   28.7232    4.7687 H   0  0  0  0  0  0  0  0  0  0  0  0
   -2.9331   28.8296    6.8058 C   0  0  0  0  0  0  0  0  0  0  0  0
   -2.0039   30.0070    6.4693 C   0  0  0  0  0  0  0  0  0  0  0  0
   -0.6950   29.6928    7.1965 C   0  0  0  0  0  0  0  0  0  0  0  0
   -0.5683   28.1813    6.9647 C   0  0  0  0  0  0  0  0  0  0  0  0
   -1.9905   27.6375    7.1031 C   0  0  0  0  0  0  0  0  0  0  0  0
   -2.1921   27.1788    8.4389 O   0  0  0  0  0  0  0  0  0  0  0  0
   -1.6337   26.3894    8.5664 H   0  0  0  0  0  0  0  0  0  0  0  0
   -0.7604   30.1057    8.6789 C   0  0  0  0  0  0  0  0  0  0  0  0
   -1.7589   31.1236    8.9442 N   0  0  0  0  0  0  0  0  0  0  0  0
   -2.8474   31.0007    9.7614 C   0  0  0  0  0  0  0  0  0  0  0  0
   -3.5014   32.2061    9.6606 C   0  0  0  0  0  0  0  0  0  0  0  0
   -2.8275   33.0577    8.8206 N   0  0  0  0  0  0  0  0  0  0  0  0
   -1.7735   32.3841    8.4177 C   0  0  0  0  0  0  0  0  0  0  0  0
   -6.0525   28.5224    4.6578 C   0  0  0  0  0  0  0  0  0  0  0  0
   -5.9653   27.1450    4.0421 C   0  0  0  0  0  0  0  0  0  0  0  0
   -6.1941   26.0082    4.8270 C   0  0  0  0  0  0  0  0  0  0  0  0
   -6.1575   24.7286    4.2624 C   0  0  0  0  0  0  0  0  0  0  0  0
   -5.8878   24.5628    2.8967 C   0  0  0  0  0  0  0  0  0  0  0  0
   -5.6424   25.7010    2.1122 C   0  0  0  0  0  0  0  0  0  0  0  0
   -5.6797   26.9799    2.6826 C   0  0  0  0  0  0  0  0  0  0  0  0
   -5.8737   23.2606    2.3158 N   0  0  0  0  0  0  0  0  0  0  0  0
   -5.6935   22.0560    2.9613 C   0  0  0  0  0  0  0  0  0  0  0  0
   -5.7851   21.0833    1.9947 C   0  0  0  0  0  0  0  0  0  0  0  0
   -6.0084   21.6370    0.7699 N   0  0  0  0  0  0  0  0  0  0  0  0
   -6.0504   22.9325    0.9863 C   0  0  0  0  0  0  0  0  0  0  0  0
  1  2  2  0  0  0
  2 18  1  0  0  0
 18 19  1  0  0  0
 19 20  1  0  0  0
 20 21  2  0  0  0
 21 22  1  0  0  0
 22 25  1  0  0  0
 25 26  1  0  0  0
 26 27  2  0  0  0
 27 28  1  0  0  0
 28 29  2  0  0  0
 22 23  2  0  0  0
 23 24  1  0  0  0
  2  3  1  0  0  0
  3  5  1  0  0  0
  5  6  1  0  0  0
  6  7  1  0  0  0
  7 12  1  0  0  0
 12 13  1  0  0  0
 13 14  1  0  0  0
 14 15  2  0  0  0
 15 16  1  0  0  0
 16 17  2  0  0  0
  7  8  1  0  0  0
  8  9  1  0  0  0
  9 10  1  0  0  0
 24 19  2  0  0  0
  9  5  1  0  0  0
 29 25  1  0  0  0
 17 13  1  0  0  0
  3  4  1  0  0  0
 10 11  1  0  0  0
M  END
> <minimizedAffinity>
-9.50814

$$$$
OCNT-2310884


 23 25  0  0  0  0  0  0  0  0999 V2000
   -4.9424   25.8374    3.7207 C   0  0  0  0  0  0  0  0  0  0  0  0
   -5.3460   26.8358    4.4803 N   0  0  0  0  0  0  0  0  0  0  0  0
   -4.2740   27.1759    5.2788 N   0  0  0  0  0  0  0  0  0  0  0  0
   -3.2870   26.3675    4.9529 C   0  0  0  0  0  0  0  0  0  0  0  0
   -3.6410   25.4867    3.9656 O   0  0  0  0  0  0  0  0  0  0  0  0
   -7.7442   22.9119   -0.4073 C   0  0  0  0  0  0  0  0  0  0  0  0
   -7.0427   23.6802    0.6736 C   0  0  0  0  0  0  0  0  0  0  0  0
   -6.3397   24.8501    0.3697 C   0  0  0  0  0  0  0  0  0  0  0  0
   -5.6602   25.5488    1.3725 C   0  0  0  0  0  0  0  0  0  0  0  0
   -5.6596   25.0884    2.6970 C   0  0  0  0  0  0  0  0  0  0  0  0
   -6.3545   23.9067    2.9920 C   0  0  0  0  0  0  0  0  0  0  0  0
   -7.0346   23.2067    1.9896 C   0  0  0  0  0  0  0  0  0  0  0  0
   -1.7004   26.3776    5.6593 S   0  0  0  0  0  0  0  0  0  0  0  0
   -2.0325   27.1093    7.2951 C   0  0  0  0  0  0  0  0  0  0  0  0
   -0.9484   28.1224    7.7001 C   0  0  0  0  0  0  0  0  0  0  0  0
   -1.4641   29.2108    8.5642 N   0  0  0  0  0  0  0  0  0  0  0  0
   -0.6426   30.4289    8.4576 C   0  0  0  0  0  0  0  0  0  0  0  0
   -1.1538   31.5136    9.3973 C   0  0  0  0  0  0  0  0  0  0  0  0
   -2.6120   31.7969    9.1199 C   0  0  0  0  0  0  0  0  0  0  0  0
   -3.0843   32.6877   10.0282 F   0  0  0  0  0  0  0  0  0  0  0  0
   -2.7291   32.3973    7.9050 F   0  0  0  0  0  0  0  0  0  0  0  0
   -3.4604   30.5471    9.1438 C   0  0  0  0  0  0  0  0  0  0  0  0
   -2.8674   29.4987    8.2131 C   0  0  0  0  0  0  0  0  0  0  0  0
  6  7  1  0  0  0
  7  8  1  0  0  0
  8  9  2  0  0  0
  9 10  1  0  0  0
 10  1  1  0  0  0
  1  2  2  0  0  0
  2  3  1  0  0  0
  3  4  2  0  0  0
  4 13  1  0  0  0
 13 14  1  0  0  0
 14 15  1  0  0  0
 15 16  1  0  0  0
 16 17  1  0  0  0
 17 18  1  0  0  0
 18 19  1  0  0  0
 19 20  1  0  0  0
 19 21  1  0  0  0
 19 22  1  0  0  0
 22 23  1  0  0  0
  4  5  1  0  0  0
 10 11  2  0  0  0
 11 12  1  0  0  0
 12  7  2  0  0  0
  5  1  1  0  0  0
 23 16  1  0  0  0
M  END
> <minimizedAffinity>
-9.04226

$$$$
OCNT-2310886


 22 23  0  0  0  0  0  0  0  0999 V2000
   -5.3212   27.0151    5.3715 C   0  0  0  0  0  0  0  0  0  0  0  0
   -5.9477   28.2282    6.1056 C   0  0  0  0  0  0  0  0  0  0  0  0
   -6.7514   29.1626    5.2075 C   0  0  0  0  0  0  0  0  0  0  0  0
   -6.0349   29.3908    3.8909 C   0  0  0  0  0  0  0  0  0  0  0  0
   -5.8174   28.0899    3.1167 C   0  0  0  0  0  0  0  0  0  0  0  0
   -5.9577   26.7947    3.9634 C   0  0  0  0  0  0  0  0  0  0  0  0
   -5.4207   25.6233    3.2272 N   0  0  0  0  0  0  0  0  0  0  0  0
   -5.7883   24.3039    3.7991 C   0  0  0  0  0  0  0  0  0  0  0  0
   -6.8877   23.5692    3.0130 C   0  0  0  0  0  0  0  0  0  0  0  0
   -6.5439   23.3189    1.6439 O   0  0  0  0  0  0  0  0  0  0  0  0
   -5.5936   24.2591    1.1303 C   0  0  0  0  0  0  0  0  0  0  0  0
   -5.7321   25.6451    1.7782 C   0  0  0  0  0  0  0  0  0  0  0  0
   -3.7820   27.1218    5.3015 C   0  0  0  0  0  0  0  0  0  0  0  0
   -1.9905   28.3276    6.5237 C   0  0  0  0  0  0  0  0  0  0  0  0
   -1.2109   27.3833    6.4430 O   0  0  0  0  0  0  0  0  0  0  0  0
   -3.2684   28.2964    5.9883 N   0  0  0  0  0  0  0  0  0  0  0  0
   -3.8914   29.0788    6.1352 H   0  0  0  0  0  0  0  0  0  0  0  0
   -1.6613   29.6597    7.2136 C   0  0  0  0  0  0  0  0  0  0  0  0
   -1.3738   29.5244    8.5964 O   0  0  0  0  0  0  0  0  0  0  0  0
   -0.5423   30.5749    9.0788 C   0  0  0  0  0  0  0  0  0  0  0  0
   -2.2640   31.9841   10.2859 C   0  0  0  0  0  0  0  0  0  0  0  0
   -1.3312   31.8797    9.0876 C   0  0  0  0  0  0  0  0  0  0  0  0
 21 22  1  0  0  0
 22 20  1  0  0  0
 20 19  1  0  0  0
 19 18  1  0  0  0
 18 14  1  0  0  0
 14 15  2  0  0  0
 14 16  1  0  0  0
 16 13  1  0  0  0
 13  1  1  0  0  0
  1  2  1  0  0  0
  2  3  1  0  0  0
  3  4  1  0  0  0
  4  5  1  0  0  0
  5  6  1  0  0  0
  6  7  1  0  0  0
  7  8  1  0  0  0
  8  9  1  0  0  0
  9 10  1  0  0  0
 10 11  1  0  0  0
 11 12  1  0  0  0
  6  1  1  0  0  0
 12  7  1  0  0  0
 16 17  1  0  0  0
M  END
> <minimizedAffinity>
-7.19922

$$$$
OCNT-2310890


 26 28  0  0  0  0  0  0  0  0999 V2000
   -5.0681   29.5172    7.0656 O   0  0  0  0  0  0  0  0  0  0  0  0
   -4.5430   30.0953    6.1243 C   0  0  0  0  0  0  0  0  0  0  0  0
   -5.1260   30.1669    4.8755 N   0  0  0  0  0  0  0  0  0  0  0  0
   -3.3395   30.7667    6.1409 N   0  0  0  0  0  0  0  0  0  0  0  0
   -4.4942   30.2626    4.0953 H   0  0  0  0  0  0  0  0  0  0  0  0
   -3.1676   31.3627    5.3449 H   0  0  0  0  0  0  0  0  0  0  0  0
   -2.4199   30.8511    7.2070 C   0  0  0  0  0  0  0  0  0  0  0  0
   -1.2501   30.0856    7.1074 C   0  0  0  0  0  0  0  0  0  0  0  0
   -0.2979   30.1134    8.1301 C   0  0  0  0  0  0  0  0  0  0  0  0
    1.1329   29.1682    7.9855 Cl  0  0  0  0  0  0  0  0  0  0  0  0
   -0.4963   30.8943    9.2610 C   0  0  0  0  0  0  0  0  0  0  0  0
   -1.6591   31.6451    9.3566 C   0  0  0  0  0  0  0  0  0  0  0  0
   -1.8633   32.3968   10.4464 F   0  0  0  0  0  0  0  0  0  0  0  0
   -2.6197   31.6310    8.3469 C   0  0  0  0  0  0  0  0  0  0  0  0
   -6.3763   29.4878    4.6031 C   0  0  0  0  0  0  0  0  0  0  0  0
   -6.1514   28.0559    4.2108 C   0  0  0  0  0  0  0  0  0  0  0  0
   -5.7890   27.7030    2.9093 C   0  0  0  0  0  0  0  0  0  0  0  0
   -5.6070   26.3614    2.5706 C   0  0  0  0  0  0  0  0  0  0  0  0
   -5.7985   25.3947    3.5533 C   0  0  0  0  0  0  0  0  0  0  0  0
   -6.1557   25.7145    4.8257 N   0  0  0  0  0  0  0  0  0  0  0  0
   -6.3204   27.0231    5.1225 C   0  0  0  0  0  0  0  0  0  0  0  0
   -5.6265   24.0140    3.2548 N   0  0  0  0  0  0  0  0  0  0  0  0
   -5.4608   23.0061    4.1822 C   0  0  0  0  0  0  0  0  0  0  0  0
   -5.3347   21.8438    3.4620 C   0  0  0  0  0  0  0  0  0  0  0  0
   -5.4167   22.0947    2.1203 N   0  0  0  0  0  0  0  0  0  0  0  0
   -5.5893   23.3962    2.0256 C   0  0  0  0  0  0  0  0  0  0  0  0
  1  2  2  0  0  0
  2  3  1  0  0  0
  3 15  1  0  0  0
 15 16  1  0  0  0
 16 17  2  0  0  0
 17 18  1  0  0  0
 18 19  2  0  0  0
 19 22  1  0  0  0
 22 23  1  0  0  0
 23 24  2  0  0  0
 24 25  1  0  0  0
 25 26  2  0  0  0
 19 20  1  0  0  0
 20 21  2  0  0  0
  2  4  1  0  0  0
  4  7  1  0  0  0
  7  8  1  0  0  0
  8  9  2  0  0  0
  9 10  1  0  0  0
  9 11  1  0  0  0
 11 12  2  0  0  0
 12 13  1  0  0  0
 12 14  1  0  0  0
 21 16  1  0  0  0
 14  7  2  0  0  0
 26 22  1  0  0  0
  3  5  1  0  0  0
  4  6  1  0  0  0
M  END
> <minimizedAffinity>
-9.91368

$$$$
OCNT-2310909


 24 25  0  0  0  0  0  0  0  0999 V2000
   -4.9827   28.4317    6.7575 N   0  0  0  0  0  0  0  0  0  0  0  0
   -6.1667   28.1662    6.0943 C   0  0  0  0  0  0  0  0  0  0  0  0
   -7.2783   28.6061    6.3672 O   0  0  0  0  0  0  0  0  0  0  0  0
   -4.1045   28.1214    6.3365 H   0  0  0  0  0  0  0  0  0  0  0  0
   -6.0309   27.2763    4.9078 C   0  0  0  0  0  0  0  0  0  0  0  0
   -6.0680   25.8821    5.0254 C   0  0  0  0  0  0  0  0  0  0  0  0
   -5.9343   25.0808    3.8881 C   0  0  0  0  0  0  0  0  0  0  0  0
   -5.7711   25.6608    2.6201 C   0  0  0  0  0  0  0  0  0  0  0  0
   -5.7527   27.0598    2.5100 C   0  0  0  0  0  0  0  0  0  0  0  0
   -5.8882   27.8623    3.6452 C   0  0  0  0  0  0  0  0  0  0  0  0
   -5.6408   24.7911    1.3872 C   0  0  0  0  0  0  0  0  0  0  0  0
   -6.1417   23.3794    1.6484 C   0  0  0  0  0  0  0  0  0  0  0  0
   -4.3480   24.6997    0.9552 F   0  0  0  0  0  0  0  0  0  0  0  0
   -6.3384   25.2921    0.3259 F   0  0  0  0  0  0  0  0  0  0  0  0
   -4.2831   30.5040    7.8136 N   0  0  0  0  0  0  0  0  0  0  0  0
   -4.3449   31.1723    8.9875 N   0  0  0  0  0  0  0  0  0  0  0  0
   -5.0000   30.3352    9.7929 C   0  0  0  0  0  0  0  0  0  0  0  0
   -5.3610   29.1414    9.1473 C   0  0  0  0  0  0  0  0  0  0  0  0
   -4.9007   29.2718    7.8553 C   0  0  0  0  0  0  0  0  0  0  0  0
   -3.5347   31.1035    6.7212 C   0  0  0  0  0  0  0  0  0  0  0  0
   -2.0555   31.3656    7.0457 C   0  0  0  0  0  0  0  0  0  0  0  0
   -0.7383   30.5843    8.9425 C   0  0  0  0  0  0  0  0  0  0  0  0
   -1.3687   30.2024    7.6698 N   0  0  0  0  0  0  0  0  0  0  0  0
   -0.3301   29.6975    6.7576 C   0  0  0  0  0  0  0  0  0  0  0  0
 22 23  1  0  0  0
 23 24  1  0  0  0
 23 21  1  0  0  0
 21 20  1  0  0  0
 20 15  1  0  0  0
 15 16  1  0  0  0
 16 17  2  0  0  0
 17 18  1  0  0  0
 18 19  2  0  0  0
 19  1  1  0  0  0
  1  2  1  0  0  0
  2  3  2  0  0  0
  2  5  1  0  0  0
  5  6  1  0  0  0
  6  7  2  0  0  0
  7  8  1  0  0  0
  8 11  1  0  0  0
 11 12  1  0  0  0
 11 13  1  0  0  0
 11 14  1  0  0  0
  8  9  2  0  0  0
  9 10  1  0  0  0
 19 15  1  0  0  0
 10  5  2  0  0  0
  1  4  1  0  0  0
M  END
> <minimizedAffinity>
-8.28079

$$$$
OCNT-2310913


 28 31  0  0  0  0  0  0  0  0999 V2000
   -1.7891   26.4906    6.2220 O   0  0  0  0  0  0  0  0  0  0  0  0
   -2.7873   27.1984    6.2726 C   0  0  0  0  0  0  0  0  0  0  0  0
   -3.9833   26.9941    5.6165 N   0  0  0  0  0  0  0  0  0  0  0  0
   -4.6957   27.7071    5.6362 H   0  0  0  0  0  0  0  0  0  0  0  0
   -2.7250   28.4507    7.0799 C   0  0  0  0  0  0  0  0  0  0  0  0
   -1.6430   29.3349    6.9956 C   0  0  0  0  0  0  0  0  0  0  0  0
   -1.6237   30.4938    7.7776 C   0  0  0  0  0  0  0  0  0  0  0  0
   -2.6886   30.7928    8.6427 C   0  0  0  0  0  0  0  0  0  0  0  0
   -3.7786   29.9122    8.7043 C   0  0  0  0  0  0  0  0  0  0  0  0
   -3.7984   28.7525    7.9255 C   0  0  0  0  0  0  0  0  0  0  0  0
   -2.6707   32.0436    9.4877 C   0  0  0  0  0  0  0  0  0  0  0  0
   -3.6354   33.0235    9.0237 N   0  0  0  0  0  0  0  0  0  0  0  0
   -4.1296   33.1418    7.7535 C   0  0  0  0  0  0  0  0  0  0  0  0
   -5.0379   34.1720    7.8230 C   0  0  0  0  0  0  0  0  0  0  0  0
   -5.1144   34.6689    9.0985 N   0  0  0  0  0  0  0  0  0  0  0  0
   -4.2629   33.9556    9.8000 C   0  0  0  0  0  0  0  0  0  0  0  0
   -4.2553   25.8868    4.8484 C   0  0  0  0  0  0  0  0  0  0  0  0
   -3.8001   25.6979    3.5657 C   0  0  0  0  0  0  0  0  0  0  0  0
   -4.3366   24.4944    3.2059 N   0  0  0  0  0  0  0  0  0  0  0  0
   -5.0572   23.9620    4.2084 N   0  0  0  0  0  0  0  0  0  0  0  0
   -5.0166   24.8181    5.2227 N   0  0  0  0  0  0  0  0  0  0  0  0
   -4.1670   23.7680    1.9608 C   0  0  0  0  0  0  0  0  0  0  0  0
   -5.4126   23.8060    1.1101 C   0  0  0  0  0  0  0  0  0  0  0  0
   -5.7778   24.9805    0.4340 C   0  0  0  0  0  0  0  0  0  0  0  0
   -6.9285   25.0141   -0.3544 C   0  0  0  0  0  0  0  0  0  0  0  0
   -7.7264   23.8781   -0.4743 C   0  0  0  0  0  0  0  0  0  0  0  0
   -7.3752   22.7066    0.1940 C   0  0  0  0  0  0  0  0  0  0  0  0
   -6.2251   22.6691    0.9835 C   0  0  0  0  0  0  0  0  0  0  0  0
  1  2  2  0  0  0
  2  3  1  0  0  0
  3 17  1  0  0  0
 17 18  2  0  0  0
 18 19  1  0  0  0
 19 22  1  0  0  0
 22 23  1  0  0  0
 23 24  2  0  0  0
 24 25  1  0  0  0
 25 26  2  0  0  0
 26 27  1  0  0  0
 27 28  2  0  0  0
 19 20  1  0  0  0
 20 21  2  0  0  0
  2  5  1  0  0  0
  5  6  1  0  0  0
  6  7  2  0  0  0
  7  8  1  0  0  0
  8 11  1  0  0  0
 11 12  1  0  0  0
 12 13  1  0  0  0
 13 14  2  0  0  0
 14 15  1  0  0  0
 15 16  2  0  0  0
  8  9  2  0  0  0
  9 10  1  0  0  0
 21 17  1  0  0  0
 10  5  2  0  0  0
 28 23  1  0  0  0
 16 12  1  0  0  0
  3  4  1  0  0  0
M  END
> <minimizedAffinity>
-9.05446

$$$$
OCNT-2310916


 29 32  0  0  0  0  0  0  0  0999 V2000
   -6.0271   28.9863    7.3215 C   0  0  0  0  0  0  0  0  0  0  0  0
   -7.1944   29.3597    7.2219 O   0  0  0  0  0  0  0  0  0  0  0  0
   -5.2757   28.5470    6.2511 N   0  0  0  0  0  0  0  0  0  0  0  0
   -4.2738   28.4306    6.3975 H   0  0  0  0  0  0  0  0  0  0  0  0
   -5.2661   29.0364    8.6456 C   0  0  0  0  0  0  0  0  0  0  0  0
   -4.4359   33.8238    9.5472 C   0  0  0  0  0  0  0  0  0  0  0  0
   -3.8817   32.5946    8.8348 C   0  0  0  0  0  0  0  0  0  0  0  0
   -2.6163   32.3032    9.4134 O   0  0  0  0  0  0  0  0  0  0  0  0
   -2.1271   31.0920    9.0003 C   0  0  0  0  0  0  0  0  0  0  0  0
   -0.7377   30.9558    9.0217 C   0  0  0  0  0  0  0  0  0  0  0  0
   -0.1519   29.7520    8.6402 C   0  0  0  0  0  0  0  0  0  0  0  0
   -0.9581   28.6851    8.2467 C   0  0  0  0  0  0  0  0  0  0  0  0
   -2.3511   28.8142    8.2510 C   0  0  0  0  0  0  0  0  0  0  0  0
   -2.9542   30.0182    8.6383 C   0  0  0  0  0  0  0  0  0  0  0  0
   -4.3640   30.1820    8.7055 N   0  0  0  0  0  0  0  0  0  0  0  0
   -4.9080   31.4527    8.8552 C   0  0  0  0  0  0  0  0  0  0  0  0
   -6.1260   31.6483    8.8740 O   0  0  0  0  0  0  0  0  0  0  0  0
   -5.7670   28.6144    4.8963 C   0  0  0  0  0  0  0  0  0  0  0  0
   -5.7508   27.2598    4.2508 C   0  0  0  0  0  0  0  0  0  0  0  0
   -5.5683   27.1018    2.8753 C   0  0  0  0  0  0  0  0  0  0  0  0
   -5.5955   25.8262    2.3082 C   0  0  0  0  0  0  0  0  0  0  0  0
   -5.8098   24.7308    3.1407 C   0  0  0  0  0  0  0  0  0  0  0  0
   -5.9936   24.8624    4.4806 N   0  0  0  0  0  0  0  0  0  0  0  0
   -5.9711   26.1111    4.9998 C   0  0  0  0  0  0  0  0  0  0  0  0
   -5.8570   23.4126    2.6071 N   0  0  0  0  0  0  0  0  0  0  0  0
   -6.4586   23.0489    1.4199 C   0  0  0  0  0  0  0  0  0  0  0  0
   -6.2550   21.6967    1.2891 C   0  0  0  0  0  0  0  0  0  0  0  0
   -5.5492   21.2080    2.3546 N   0  0  0  0  0  0  0  0  0  0  0  0
   -5.3284   22.2516    3.1264 C   0  0  0  0  0  0  0  0  0  0  0  0
  6  7  1  0  0  0
  7  8  1  0  0  0
  8  9  1  0  0  0
  9 10  2  0  0  0
 10 11  1  0  0  0
 11 12  2  0  0  0
 12 13  1  0  0  0
 13 14  2  0  0  0
 14 15  1  0  0  0
 15  5  1  0  0  0
  5  1  1  0  0  0
  1  2  2  0  0  0
  1  3  1  0  0  0
  3 18  1  0  0  0
 18 19  1  0  0  0
 19 20  2  0  0  0
 20 21  1  0  0  0
 21 22  2  0  0  0
 22 25  1  0  0  0
 25 26  1  0  0  0
 26 27  2  0  0  0
 27 28  1  0  0  0
 28 29  2  0  0  0
 22 23  1  0  0  0
 23 24  2  0  0  0
 15 16  1  0  0  0
 16 17  2  0  0  0
 16  7  1  0  0  0
 14  9  1  0  0  0
 24 19  1  0  0  0
 29 25  1  0  0  0
  3  4  1  0  0  0
M  END
> <minimizedAffinity>
-10.02293

$$$$
OCNT-2310919


 23 25  0  0  0  0  0  0  0  0999 V2000
   -5.3386   28.2903    4.6416 C   0  0  0  0  0  0  0  0  0  0  0  0
   -5.0932   27.0873    3.8091 C   0  0  0  0  0  0  0  0  0  0  0  0
   -5.9534   26.5384    2.8816 C   0  0  0  0  0  0  0  0  0  0  0  0
   -5.3543   25.4081    2.3596 N   0  0  0  0  0  0  0  0  0  0  0  0
   -4.1421   25.2239    2.9148 N   0  0  0  0  0  0  0  0  0  0  0  0
   -3.9582   26.2248    3.7887 C   0  0  0  0  0  0  0  0  0  0  0  0
   -5.9067   24.5024    1.4006 C   0  0  0  0  0  0  0  0  0  0  0  0
   -6.5464   25.0377    0.2607 C   0  0  0  0  0  0  0  0  0  0  0  0
   -7.1291   24.2081   -0.7021 C   0  0  0  0  0  0  0  0  0  0  0  0
   -7.0850   22.8297   -0.5497 C   0  0  0  0  0  0  0  0  0  0  0  0
   -6.4523   22.2821    0.5638 C   0  0  0  0  0  0  0  0  0  0  0  0
   -5.8594   23.1016    1.5406 C   0  0  0  0  0  0  0  0  0  0  0  0
   -5.0472   22.2354    2.8009 Cl  0  0  0  0  0  0  0  0  0  0  0  0
   -2.7087   26.3173    4.5702 C   0  0  0  0  0  0  0  0  0  0  0  0
   -1.5878   26.3294    4.0664 O   0  0  0  0  0  0  0  0  0  0  0  0
   -2.8892   26.4143    5.9314 N   0  0  0  0  0  0  0  0  0  0  0  0
   -3.8046   26.6475    6.2968 H   0  0  0  0  0  0  0  0  0  0  0  0
   -1.7668   26.6627    6.8065 C   0  0  0  0  0  0  0  0  0  0  0  0
   -1.9989   27.9530    7.5358 C   0  0  0  0  0  0  0  0  0  0  0  0
   -3.1798   28.5269    7.6919 N   0  0  0  0  0  0  0  0  0  0  0  0
   -3.0317   29.7031    8.4007 C   0  0  0  0  0  0  0  0  0  0  0  0
   -1.7434   30.0150    8.7759 C   0  0  0  0  0  0  0  0  0  0  0  0
   -0.6690   28.7995    8.2255 S   0  0  0  0  0  0  0  0  0  0  0  0
  1  2  1  0  0  0
  2  3  2  0  0  0
  3  4  1  0  0  0
  4  7  1  0  0  0
  7  8  2  0  0  0
  8  9  1  0  0  0
  9 10  2  0  0  0
 10 11  1  0  0  0
 11 12  2  0  0  0
 12 13  1  0  0  0
  4  5  1  0  0  0
  5  6  2  0  0  0
  6 14  1  0  0  0
 14 15  2  0  0  0
 14 16  1  0  0  0
 16 18  1  0  0  0
 18 19  1  0  0  0
 19 20  2  0  0  0
 20 21  1  0  0  0
 21 22  2  0  0  0
 22 23  1  0  0  0
  6  2  1  0  0  0
 23 19  1  0  0  0
 12  7  1  0  0  0
 16 17  1  0  0  0
M  END
> <minimizedAffinity>
-8.57664

$$$$
OCNT-2310920


 23 24  0  0  0  0  0  0  0  0999 V2000
   -1.4500   29.3350    7.4459 C   0  0  0  0  0  0  0  0  0  0  0  0
   -1.4484   28.3558    8.6519 C   0  0  0  0  0  0  0  0  0  0  0  0
   -2.2607   30.6211    7.7217 C   0  0  0  0  0  0  0  0  0  0  0  0
   -2.1069   31.3244    8.9351 C   0  0  0  0  0  0  0  0  0  0  0  0
   -2.8396   32.4836    9.2089 C   0  0  0  0  0  0  0  0  0  0  0  0
   -3.7463   32.9623    8.2714 C   0  0  0  0  0  0  0  0  0  0  0  0
   -4.7409   34.5271    8.6361 Br  0  0  0  0  0  0  0  0  0  0  0  0
   -3.9255   32.2922    7.0667 C   0  0  0  0  0  0  0  0  0  0  0  0
   -3.1897   31.1325    6.7963 C   0  0  0  0  0  0  0  0  0  0  0  0
   -2.2872   27.2347    6.2678 C   0  0  0  0  0  0  0  0  0  0  0  0
   -2.1344   26.4902    7.2297 O   0  0  0  0  0  0  0  0  0  0  0  0
   -2.0223   28.5899    6.2993 N   0  0  0  0  0  0  0  0  0  0  0  0
   -2.0909   29.0637    5.4073 H   0  0  0  0  0  0  0  0  0  0  0  0
   -5.4624   26.5208    2.6906 C   0  0  0  0  0  0  0  0  0  0  0  0
   -4.1498   26.4366    3.3598 C   0  0  0  0  0  0  0  0  0  0  0  0
   -3.0338   25.8930    2.9240 N   0  0  0  0  0  0  0  0  0  0  0  0
   -2.1373   26.1010    3.9497 C   0  0  0  0  0  0  0  0  0  0  0  0
   -0.7396   25.6290    3.8541 C   0  0  0  0  0  0  0  0  0  0  0  0
   -2.7583   26.7749    4.9830 C   0  0  0  0  0  0  0  0  0  0  0  0
   -4.0633   26.9955    4.6048 O   0  0  0  0  0  0  0  0  0  0  0  0
    0.0541   29.6885    7.0838 C   0  0  0  0  0  0  0  0  0  0  0  0
    1.0825   29.2669    8.1491 C   0  0  0  0  0  0  0  0  0  0  0  0
    0.5340   29.1566    5.7240 C   0  0  0  0  0  0  0  0  0  0  0  0
 14 15  1  0  0  0
 15 16  2  0  0  0
 16 17  1  0  0  0
 17 18  1  0  0  0
 17 19  2  0  0  0
 19 10  1  0  0  0
 10 11  2  0  0  0
 10 12  1  0  0  0
 12  1  1  0  0  0
  1  2  1  0  0  0
  1  3  1  0  0  0
  3  4  1  0  0  0
  4  5  2  0  0  0
  5  6  1  0  0  0
  6  7  1  0  0  0
  6  8  2  0  0  0
  8  9  1  0  0  0
  1 21  1  0  0  0
 21 22  1  0  0  0
 21 23  1  0  0  0
 19 20  1  0  0  0
 20 15  1  0  0  0
  9  3  2  0  0  0
 12 13  1  0  0  0
M  END
> <minimizedAffinity>
-8.76692

$$$$
OCNT-2310942


 22 25  0  0  0  0  0  0  0  0999 V2000
   -3.7061   31.6344    9.0212 C   0  0  0  0  0  0  0  0  0  0  0  0
   -2.6612   32.4058    9.5324 C   0  0  0  0  0  0  0  0  0  0  0  0
   -1.3506   31.9161    9.5275 C   0  0  0  0  0  0  0  0  0  0  0  0
   -1.0328   30.6644    9.0184 C   0  0  0  0  0  0  0  0  0  0  0  0
    0.2412   30.2625    9.0579 N   0  0  0  0  0  0  0  0  0  0  0  0
    0.5020   29.0464    8.5672 C   0  0  0  0  0  0  0  0  0  0  0  0
   -0.3834   28.2024    8.0311 N   0  0  0  0  0  0  0  0  0  0  0  0
   -1.6617   28.6235    7.9833 C   0  0  0  0  0  0  0  0  0  0  0  0
   -2.0617   29.8775    8.4886 C   0  0  0  0  0  0  0  0  0  0  0  0
   -3.3945   30.3701    8.5039 C   0  0  0  0  0  0  0  0  0  0  0  0
   -2.6363   27.7624    7.3910 N   0  0  0  0  0  0  0  0  0  0  0  0
   -2.2907   26.4597    6.8464 C   0  0  0  0  0  0  0  0  0  0  0  0
   -2.4708   27.0463    5.4506 C   0  0  0  0  0  0  0  0  0  0  0  0
   -3.2703   28.1484    6.1387 C   0  0  0  0  0  0  0  0  0  0  0  0
   -3.2572   26.2153    4.5258 N   0  0  0  0  0  0  0  0  0  0  0  0
   -4.3378   25.4338    4.8442 C   0  0  0  0  0  0  0  0  0  0  0  0
   -4.7522   24.8519    3.6692 C   0  0  0  0  0  0  0  0  0  0  0  0
   -3.8663   25.3466    2.6971 C   0  0  0  0  0  0  0  0  0  0  0  0
   -2.9596   26.1793    3.2117 N   0  0  0  0  0  0  0  0  0  0  0  0
   -5.2966   33.4057    8.1938 C   0  0  0  0  0  0  0  0  0  0  0  0
   -5.1420   32.1252    9.0181 C   0  0  0  0  0  0  0  0  0  0  0  0
   -6.1053   31.0414    8.5279 C   0  0  0  0  0  0  0  0  0  0  0  0
 20 21  1  0  0  0
 21 22  1  0  0  0
 21  1  1  0  0  0
  1  2  1  0  0  0
  2  3  2  0  0  0
  3  4  1  0  0  0
  4  5  2  0  0  0
  5  6  1  0  0  0
  6  7  2  0  0  0
  7  8  1  0  0  0
  8 11  1  0  0  0
 11 12  1  0  0  0
 12 13  1  0  0  0
 13 15  1  0  0  0
 15 16  1  0  0  0
 16 17  2  0  0  0
 17 18  1  0  0  0
 18 19  2  0  0  0
 13 14  1  0  0  0
  8  9  2  0  0  0
  9 10  1  0  0  0
 10  1  2  0  0  0
  9  4  1  0  0  0
 14 11  1  0  0  0
 19 15  1  0  0  0
M  END
> <minimizedAffinity>
-8.77662

$$$$
OCNT-2310944


 22 25  0  0  0  0  0  0  0  0999 V2000
   -4.9353   32.5588    8.6213 N   0  0  0  0  0  0  0  0  0  0  0  0
   -4.4492   32.1859    7.2663 C   0  0  0  0  0  0  0  0  0  0  0  0
   -3.0227   31.5793    7.1774 C   0  0  0  0  0  0  0  0  0  0  0  0
   -2.7428   30.7389    8.3533 N   0  0  0  0  0  0  0  0  0  0  0  0
   -2.8637   31.4560    9.6415 C   0  0  0  0  0  0  0  0  0  0  0  0
   -3.7730   32.7067    9.5229 C   0  0  0  0  0  0  0  0  0  0  0  0
   -1.5535   29.9975    8.2548 C   0  0  0  0  0  0  0  0  0  0  0  0
   -0.4431   30.4070    8.9281 N   0  0  0  0  0  0  0  0  0  0  0  0
    0.6904   29.6842    8.8378 C   0  0  0  0  0  0  0  0  0  0  0  0
    0.9033   28.5595    8.1385 N   0  0  0  0  0  0  0  0  0  0  0  0
   -0.1961   28.1969    7.4648 C   0  0  0  0  0  0  0  0  0  0  0  0
   -1.4273   28.8364    7.4584 C   0  0  0  0  0  0  0  0  0  0  0  0
   -2.2555   28.0928    6.5650 C   0  0  0  0  0  0  0  0  0  0  0  0
   -1.5206   27.0278    6.0869 C   0  0  0  0  0  0  0  0  0  0  0  0
   -0.2715   27.1037    6.6460 N   0  0  0  0  0  0  0  0  0  0  0  0
    0.4998   26.4733    6.4819 H   0  0  0  0  0  0  0  0  0  0  0  0
   -5.8961   31.5456    9.1015 C   0  0  0  0  0  0  0  0  0  0  0  0
   -7.5714   29.8260    6.1585 C   0  0  0  0  0  0  0  0  0  0  0  0
   -6.8486   28.7156    6.5316 C   0  0  0  0  0  0  0  0  0  0  0  0
   -5.8787   29.0118    7.9077 S   0  0  0  0  0  0  0  0  0  0  0  0
   -6.4061   30.6417    8.0087 C   0  0  0  0  0  0  0  0  0  0  0  0
   -7.3202   30.9369    7.0142 C   0  0  0  0  0  0  0  0  0  0  0  0
 18 19  2  0  0  0
 19 20  1  0  0  0
 20 21  1  0  0  0
 21 17  1  0  0  0
 17  1  1  0  0  0
  1  2  1  0  0  0
  2  3  1  0  0  0
  3  4  1  0  0  0
  4  7  1  0  0  0
  7  8  1  0  0  0
  8  9  2  0  0  0
  9 10  1  0  0  0
 10 11  2  0  0  0
 11 12  1  0  0  0
 12 13  1  0  0  0
 13 14  2  0  0  0
 14 15  1  0  0  0
  4  5  1  0  0  0
  5  6  1  0  0  0
 21 22  2  0  0  0
 22 18  1  0  0  0
  6  1  1  0  0  0
 12  7  2  0  0  0
 15 11  1  0  0  0
 15 16  1  0  0  0
M  END
> <minimizedAffinity>
-7.68486

$$$$
OCNT-2310945


 23 25  0  0  0  0  0  0  0  0999 V2000
   -3.6311   27.1866    5.2954 N   0  0  0  0  0  0  0  0  0  0  0  0
   -3.7928   25.7147    5.3097 C   0  0  0  0  0  0  0  0  0  0  0  0
   -5.1008   25.2777    4.5934 C   0  0  0  0  0  0  0  0  0  0  0  0
   -5.5722   26.1634    3.5062 N   0  0  0  0  0  0  0  0  0  0  0  0
   -5.7540   27.5352    4.0577 C   0  0  0  0  0  0  0  0  0  0  0  0
   -4.9217   27.8968    5.3201 C   0  0  0  0  0  0  0  0  0  0  0  0
   -2.2567   29.0066    8.0685 C   0  0  0  0  0  0  0  0  0  0  0  0
   -0.9460   28.7245    8.0812 N   0  0  0  0  0  0  0  0  0  0  0  0
   -0.5304   27.8736    7.1234 C   0  0  0  0  0  0  0  0  0  0  0  0
   -1.3598   27.3219    6.1696 C   0  0  0  0  0  0  0  0  0  0  0  0
   -0.7108   26.2010    5.0337 Cl  0  0  0  0  0  0  0  0  0  0  0  0
   -2.7052   27.6885    6.2284 C   0  0  0  0  0  0  0  0  0  0  0  0
   -3.1492   28.5261    7.1902 N   0  0  0  0  0  0  0  0  0  0  0  0
   -1.9144   30.9306    9.3475 C   0  0  0  0  0  0  0  0  0  0  0  0
   -2.7864   29.8606    9.0107 O   0  0  0  0  0  0  0  0  0  0  0  0
   -4.6363   26.2029    2.3603 C   0  0  0  0  0  0  0  0  0  0  0  0
   -4.3484   24.8224    1.7443 C   0  0  0  0  0  0  0  0  0  0  0  0
   -5.5365   24.2975    0.9722 C   0  0  0  0  0  0  0  0  0  0  0  0
   -6.0037   22.9940    1.1860 C   0  0  0  0  0  0  0  0  0  0  0  0
   -7.1117   22.5165    0.4843 C   0  0  0  0  0  0  0  0  0  0  0  0
   -7.7644   23.3379   -0.4332 C   0  0  0  0  0  0  0  0  0  0  0  0
   -7.3111   24.6379   -0.6490 C   0  0  0  0  0  0  0  0  0  0  0  0
   -6.2033   25.1174    0.0514 C   0  0  0  0  0  0  0  0  0  0  0  0
 14 15  1  0  0  0
 15  7  1  0  0  0
  7  8  2  0  0  0
  8  9  1  0  0  0
  9 10  2  0  0  0
 10 11  1  0  0  0
 10 12  1  0  0  0
 12  1  1  0  0  0
  1  2  1  0  0  0
  2  3  1  0  0  0
  3  4  1  0  0  0
  4 16  1  0  0  0
 16 17  1  0  0  0
 17 18  1  0  0  0
 18 19  2  0  0  0
 19 20  1  0  0  0
 20 21  2  0  0  0
 21 22  1  0  0  0
 22 23  2  0  0  0
  4  5  1  0  0  0
  5  6  1  0  0  0
 12 13  2  0  0  0
 13  7  1  0  0  0
  6  1  1  0  0  0
 23 18  1  0  0  0
M  END
> <minimizedAffinity>
-8.77451

$$$$
OCNT-2310949


 22 25  0  0  0  0  0  0  0  0999 V2000
   -3.7849   28.3669    6.1368 O   0  0  0  0  0  0  0  0  0  0  0  0
   -4.7573   29.0700    6.4273 C   0  0  0  0  0  0  0  0  0  0  0  0
   -4.7175   30.1070    7.3477 N   0  0  0  0  0  0  0  0  0  0  0  0
   -5.8115   31.0570    7.6312 C   0  0  0  0  0  0  0  0  0  0  0  0
   -5.3555   31.9513    8.7897 C   0  0  0  0  0  0  0  0  0  0  0  0
   -3.9049   31.6048    8.8944 C   0  0  0  0  0  0  0  0  0  0  0  0
   -2.9578   32.2026    9.7147 C   0  0  0  0  0  0  0  0  0  0  0  0
   -1.6587   31.6966    9.6950 C   0  0  0  0  0  0  0  0  0  0  0  0
   -1.3421   30.6117    8.8707 C   0  0  0  0  0  0  0  0  0  0  0  0
   -0.0873   30.1409    8.8720 F   0  0  0  0  0  0  0  0  0  0  0  0
   -2.2956   30.0100    8.0525 C   0  0  0  0  0  0  0  0  0  0  0  0
   -3.5813   30.5212    8.0712 C   0  0  0  0  0  0  0  0  0  0  0  0
   -6.0983   28.7830    5.7711 C   0  0  0  0  0  0  0  0  0  0  0  0
   -6.0235   27.6383    4.8287 C   0  0  0  0  0  0  0  0  0  0  0  0
   -5.7988   27.6442    3.4672 C   0  0  0  0  0  0  0  0  0  0  0  0
   -5.8210   26.3334    3.0998 N   0  0  0  0  0  0  0  0  0  0  0  0
   -5.6862   25.8035    1.7588 C   0  0  0  0  0  0  0  0  0  0  0  0
   -5.3867   24.3044    1.7554 C   0  0  0  0  0  0  0  0  0  0  0  0
   -6.2897   23.5670    2.7465 C   0  0  0  0  0  0  0  0  0  0  0  0
   -6.0809   24.0864    4.1713 C   0  0  0  0  0  0  0  0  0  0  0  0
   -6.0464   25.5756    4.2202 C   0  0  0  0  0  0  0  0  0  0  0  0
   -6.1732   26.3433    5.2824 N   0  0  0  0  0  0  0  0  0  0  0  0
  1  2  2  0  0  0
  2 13  1  0  0  0
 13 14  1  0  0  0
 14 15  2  0  0  0
 15 16  1  0  0  0
 16 17  1  0  0  0
 17 18  1  0  0  0
 18 19  1  0  0  0
 19 20  1  0  0  0
 20 21  1  0  0  0
 21 22  2  0  0  0
  2  3  1  0  0  0
  3  4  1  0  0  0
  4  5  1  0  0  0
  5  6  1  0  0  0
  6  7  1  0  0  0
  7  8  2  0  0  0
  8  9  1  0  0  0
  9 10  1  0  0  0
  9 11  2  0  0  0
 11 12  1  0  0  0
 22 14  1  0  0  0
 12  3  1  0  0  0
 21 16  1  0  0  0
 12  6  2  0  0  0
M  END
> <minimizedAffinity>
-9.06763

$$$$
OCNT-2310958


 27 29  0  0  0  0  0  0  0  0999 V2000
   -5.5628   26.4779    5.3858 N   0  0  0  0  0  0  0  0  0  0  0  0
   -4.3680   27.1356    5.5604 C   0  0  0  0  0  0  0  0  0  0  0  0
   -3.3296   26.9659    4.9379 O   0  0  0  0  0  0  0  0  0  0  0  0
   -4.4656   28.0639    6.5804 N   0  0  0  0  0  0  0  0  0  0  0  0
   -6.2272   26.5795    6.1389 H   0  0  0  0  0  0  0  0  0  0  0  0
   -5.3792   28.4838    6.6878 H   0  0  0  0  0  0  0  0  0  0  0  0
   -3.3081   28.8769    6.9546 C   0  0  0  0  0  0  0  0  0  0  0  0
   -2.3450   28.0459    7.8185 C   0  0  0  0  0  0  0  0  0  0  0  0
   -1.0762   28.8363    8.1403 C   0  0  0  0  0  0  0  0  0  0  0  0
   -1.3994   30.2073    8.6040 C   0  0  0  0  0  0  0  0  0  0  0  0
   -0.6394   31.0389    9.2779 N   0  0  0  0  0  0  0  0  0  0  0  0
   -1.3500   32.2044    9.4586 N   0  0  0  0  0  0  0  0  0  0  0  0
   -2.5299   32.0637    8.8887 C   0  0  0  0  0  0  0  0  0  0  0  0
   -3.6168   33.0647    8.8376 C   0  0  0  0  0  0  0  0  0  0  0  0
   -2.5977   30.8130    8.3433 N   0  0  0  0  0  0  0  0  0  0  0  0
   -3.7128   30.1806    7.6754 C   0  0  0  0  0  0  0  0  0  0  0  0
   -6.6307   23.5458    2.5211 C   0  0  0  0  0  0  0  0  0  0  0  0
   -5.9204   24.6777    2.1182 C   0  0  0  0  0  0  0  0  0  0  0  0
   -5.5464   25.6574    3.0508 C   0  0  0  0  0  0  0  0  0  0  0  0
   -5.8815   25.5245    4.3985 C   0  0  0  0  0  0  0  0  0  0  0  0
   -6.5913   24.3922    4.8060 C   0  0  0  0  0  0  0  0  0  0  0  0
   -6.9354   23.4011    3.8812 C   0  0  0  0  0  0  0  0  0  0  0  0
   -7.6498   22.3325    4.3670 O   0  0  0  0  0  0  0  0  0  0  0  0
   -8.9941   22.7161    4.6604 C   0  0  0  0  0  0  0  0  0  0  0  0
   -7.0632   22.5534    1.6849 O   0  0  0  0  0  0  0  0  0  0  0  0
   -7.8399   22.9296   -0.5325 C   0  0  0  0  0  0  0  0  0  0  0  0
   -6.6321   22.5996    0.3268 C   0  0  0  0  0  0  0  0  0  0  0  0
 26 27  1  0  0  0
 27 25  1  0  0  0
 25 17  1  0  0  0
 17 18  1  0  0  0
 18 19  2  0  0  0
 19 20  1  0  0  0
 20  1  1  0  0  0
  1  2  1  0  0  0
  2  3  2  0  0  0
  2  4  1  0  0  0
  4  7  1  0  0  0
  7  8  1  0  0  0
  8  9  1  0  0  0
  9 10  1  0  0  0
 10 11  2  0  0  0
 11 12  1  0  0  0
 12 13  2  0  0  0
 13 14  1  0  0  0
 13 15  1  0  0  0
 15 16  1  0  0  0
 20 21  2  0  0  0
 21 22  1  0  0  0
 22 23  1  0  0  0
 23 24  1  0  0  0
 22 17  2  0  0  0
 16  7  1  0  0  0
 15 10  1  0  0  0
  1  5  1  0  0  0
  4  6  1  0  0  0
M  END
> <minimizedAffinity>
-8.81905

$$$$
OCNT-2310977


 26 28  0  0  0  0  0  0  0  0999 V2000
   -3.5652   29.2976    7.5016 C   0  0  0  0  0  0  0  0  0  0  0  0
   -3.0654   29.7592    8.5185 O   0  0  0  0  0  0  0  0  0  0  0  0
   -3.1616   28.1184    6.9329 N   0  0  0  0  0  0  0  0  0  0  0  0
   -2.1133   27.2985    7.5053 C   0  0  0  0  0  0  0  0  0  0  0  0
   -1.7543   26.3090    6.3969 C   0  0  0  0  0  0  0  0  0  0  0  0
   -0.6716   26.8736    5.4715 C   0  0  0  0  0  0  0  0  0  0  0  0
   -0.5869   26.0500    4.1958 C   0  0  0  0  0  0  0  0  0  0  0  0
   -1.9306   26.0336    3.4796 C   0  0  0  0  0  0  0  0  0  0  0  0
   -3.0109   25.5326    4.3369 N   0  0  0  0  0  0  0  0  0  0  0  0
   -4.2223   25.0635    3.8032 C   0  0  0  0  0  0  0  0  0  0  0  0
   -5.2800   25.1824    4.4157 O   0  0  0  0  0  0  0  0  0  0  0  0
   -4.0939   24.4510    2.5771 N   0  0  0  0  0  0  0  0  0  0  0  0
   -3.1039   26.1086    5.6831 C   0  0  0  0  0  0  0  0  0  0  0  0
   -3.7605   27.4992    5.7597 C   0  0  0  0  0  0  0  0  0  0  0  0
   -3.1882   24.0456    2.4003 H   0  0  0  0  0  0  0  0  0  0  0  0
   -5.1364   24.0348    1.7214 C   0  0  0  0  0  0  0  0  0  0  0  0
   -5.8402   24.8973    0.8868 C   0  0  0  0  0  0  0  0  0  0  0  0
   -6.8327   24.3679    0.0769 C   0  0  0  0  0  0  0  0  0  0  0  0
   -7.1568   23.0581    0.0389 N   0  0  0  0  0  0  0  0  0  0  0  0
   -6.4556   22.2413    0.8498 C   0  0  0  0  0  0  0  0  0  0  0  0
   -5.4470   22.6748    1.6956 C   0  0  0  0  0  0  0  0  0  0  0  0
   -4.5677   29.8729    6.7922 O   0  0  0  0  0  0  0  0  0  0  0  0
   -6.0834   31.4396    7.9392 C   0  0  0  0  0  0  0  0  0  0  0  0
   -5.8908   30.0325    7.3630 C   0  0  0  0  0  0  0  0  0  0  0  0
   -6.8496   29.8538    6.1757 C   0  0  0  0  0  0  0  0  0  0  0  0
   -6.1872   28.9423    8.3987 C   0  0  0  0  0  0  0  0  0  0  0  0
 23 24  1  0  0  0
 24 25  1  0  0  0
 24 26  1  0  0  0
 24 22  1  0  0  0
 22  1  1  0  0  0
  1  2  2  0  0  0
  1  3  1  0  0  0
  3  4  1  0  0  0
  4  5  1  0  0  0
  5  6  1  0  0  0
  6  7  1  0  0  0
  7  8  1  0  0  0
  8  9  1  0  0  0
  9 10  1  0  0  0
 10 11  2  0  0  0
 10 12  1  0  0  0
 12 16  1  0  0  0
 16 17  2  0  0  0
 17 18  1  0  0  0
 18 19  2  0  0  0
 19 20  1  0  0  0
 20 21  2  0  0  0
  9 13  1  0  0  0
 13 14  1  0  0  0
 14  3  1  0  0  0
 13  5  1  0  0  0
 21 16  1  0  0  0
 12 15  1  0  0  0
M  END
> <minimizedAffinity>
-8.92786

$$$$
OCNT-2310978


 22 24  0  0  0  0  0  0  0  0999 V2000
   -3.7993   25.6573    2.0239 N   0  0  0  0  0  0  0  0  0  0  0  0
   -3.4029   26.3332    1.3742 H   0  0  0  0  0  0  0  0  0  0  0  0
   -3.7751   26.2493    3.2949 C   0  0  0  0  0  0  0  0  0  0  0  0
   -4.9203   26.8417    3.7178 N   0  0  0  0  0  0  0  0  0  0  0  0
   -4.9524   27.4466    4.9281 C   0  0  0  0  0  0  0  0  0  0  0  0
   -6.2633   28.0395    5.3476 C   0  0  0  0  0  0  0  0  0  0  0  0
   -3.9376   27.5344    5.8089 N   0  0  0  0  0  0  0  0  0  0  0  0
   -2.8135   26.9662    5.3424 C   0  0  0  0  0  0  0  0  0  0  0  0
   -2.6545   26.3264    4.1275 C   0  0  0  0  0  0  0  0  0  0  0  0
   -1.2973   25.9415    4.1097 C   0  0  0  0  0  0  0  0  0  0  0  0
   -0.6445   26.2792    5.2286 N   0  0  0  0  0  0  0  0  0  0  0  0
   -1.5947   26.9045    5.9619 N   0  0  0  0  0  0  0  0  0  0  0  0
   -1.2541   27.4331    7.2584 C   0  0  0  0  0  0  0  0  0  0  0  0
   -6.0167   22.7914    1.1693 C   0  0  0  0  0  0  0  0  0  0  0  0
   -5.0082   23.5865    1.7479 C   0  0  0  0  0  0  0  0  0  0  0  0
   -4.8494   24.9383    1.4175 C   0  0  0  0  0  0  0  0  0  0  0  0
   -5.6984   25.4872    0.4562 C   0  0  0  0  0  0  0  0  0  0  0  0
   -6.7012   24.7134   -0.1345 C   0  0  0  0  0  0  0  0  0  0  0  0
   -6.8712   23.3638    0.2084 C   0  0  0  0  0  0  0  0  0  0  0  0
   -7.9725   22.5790   -0.4498 C   0  0  0  0  0  0  0  0  0  0  0  0
   -5.4417   21.0898    2.9284 C   0  0  0  0  0  0  0  0  0  0  0  0
   -6.1179   21.3423    1.5889 C   0  0  0  0  0  0  0  0  0  0  0  0
 21 22  1  0  0  0
 22 14  1  0  0  0
 14 15  1  0  0  0
 15 16  2  0  0  0
 16  1  1  0  0  0
  1  3  1  0  0  0
  3  4  1  0  0  0
  4  5  2  0  0  0
  5  6  1  0  0  0
  5  7  1  0  0  0
  7  8  2  0  0  0
  8  9  1  0  0  0
  9 10  1  0  0  0
 10 11  2  0  0  0
 11 12  1  0  0  0
 12 13  1  0  0  0
 16 17  1  0  0  0
 17 18  2  0  0  0
 18 19  1  0  0  0
 19 20  1  0  0  0
 19 14  2  0  0  0
  9  3  2  0  0  0
 12  8  1  0  0  0
  1  2  1  0  0  0
M  END
> <minimizedAffinity>
-8.94958

$$$$
OCNT-2310979


 27 30  0  0  0  0  0  0  0  0999 V2000
   -5.3897   27.8770    5.4015 C   0  0  0  0  0  0  0  0  0  0  0  0
   -6.3543   27.1746    5.6824 O   0  0  0  0  0  0  0  0  0  0  0  0
   -4.4502   27.6107    4.4234 N   0  0  0  0  0  0  0  0  0  0  0  0
   -3.7534   28.3066    4.1959 H   0  0  0  0  0  0  0  0  0  0  0  0
   -2.4216   31.6295    6.8954 C   0  0  0  0  0  0  0  0  0  0  0  0
   -3.8055   31.0289    6.8946 C   0  0  0  0  0  0  0  0  0  0  0  0
   -3.9648   29.8106    6.1948 C   0  0  0  0  0  0  0  0  0  0  0  0
   -5.2024   29.1613    6.1330 C   0  0  0  0  0  0  0  0  0  0  0  0
   -6.2948   29.7108    6.8005 C   0  0  0  0  0  0  0  0  0  0  0  0
   -6.1620   30.9154    7.4976 C   0  0  0  0  0  0  0  0  0  0  0  0
   -4.9276   31.5954    7.5520 C   0  0  0  0  0  0  0  0  0  0  0  0
   -4.8617   32.8295    8.2755 N   0  0  0  0  0  0  0  0  0  0  0  0
   -5.0358   34.1141    7.8024 C   0  0  0  0  0  0  0  0  0  0  0  0
   -4.8879   34.9951    8.7653 N   0  0  0  0  0  0  0  0  0  0  0  0
   -4.6206   34.2111    9.8403 C   0  0  0  0  0  0  0  0  0  0  0  0
   -4.5913   32.9016    9.6015 N   0  0  0  0  0  0  0  0  0  0  0  0
   -4.4485   26.4617    3.6544 C   0  0  0  0  0  0  0  0  0  0  0  0
   -5.4525   26.1226    2.7797 C   0  0  0  0  0  0  0  0  0  0  0  0
   -5.0994   24.9202    2.1980 N   0  0  0  0  0  0  0  0  0  0  0  0
   -3.9034   24.4807    2.6681 N   0  0  0  0  0  0  0  0  0  0  0  0
   -3.5199   25.4122    3.5437 C   0  0  0  0  0  0  0  0  0  0  0  0
   -5.8236   24.1689    1.2283 C   0  0  0  0  0  0  0  0  0  0  0  0
   -6.5997   24.8450    0.2735 C   0  0  0  0  0  0  0  0  0  0  0  0
   -7.3183   24.1298   -0.6868 C   0  0  0  0  0  0  0  0  0  0  0  0
   -7.2684   22.7378   -0.7021 C   0  0  0  0  0  0  0  0  0  0  0  0
   -6.5004   22.0584    0.2420 C   0  0  0  0  0  0  0  0  0  0  0  0
   -5.7779   22.7677    1.2069 C   0  0  0  0  0  0  0  0  0  0  0  0
  5  6  1  0  0  0
  6  7  1  0  0  0
  7  8  2  0  0  0
  8  1  1  0  0  0
  1  2  2  0  0  0
  1  3  1  0  0  0
  3 17  1  0  0  0
 17 18  2  0  0  0
 18 19  1  0  0  0
 19 22  1  0  0  0
 22 23  2  0  0  0
 23 24  1  0  0  0
 24 25  2  0  0  0
 25 26  1  0  0  0
 26 27  2  0  0  0
 19 20  1  0  0  0
 20 21  2  0  0  0
  8  9  1  0  0  0
  9 10  2  0  0  0
 10 11  1  0  0  0
 11 12  1  0  0  0
 12 13  1  0  0  0
 13 14  2  0  0  0
 14 15  1  0  0  0
 15 16  2  0  0  0
 11  6  2  0  0  0
 16 12  1  0  0  0
 21 17  1  0  0  0
 27 22  1  0  0  0
  3  4  1  0  0  0
M  END
> <minimizedAffinity>
-9.55736

$$$$
OCNT-2310981


 24 27  0  0  0  0  0  0  0  0999 V2000
   -3.6977   25.7120    3.2816 C   0  0  0  0  0  0  0  0  0  0  0  0
   -4.7963   26.1029    4.2817 C   0  0  0  0  0  0  0  0  0  0  0  0
   -4.4784   27.4288    4.9715 C   0  0  0  0  0  0  0  0  0  0  0  0
   -3.2040   27.3623    5.6920 N   0  0  0  0  0  0  0  0  0  0  0  0
   -2.2753   26.2928    5.3192 C   0  0  0  0  0  0  0  0  0  0  0  0
   -2.2985   26.0788    3.8067 C   0  0  0  0  0  0  0  0  0  0  0  0
   -2.8986   28.2466    6.7308 C   0  0  0  0  0  0  0  0  0  0  0  0
   -3.8964   28.7694    7.4266 N   0  0  0  0  0  0  0  0  0  0  0  0
   -3.6408   29.6554    8.4565 C   0  0  0  0  0  0  0  0  0  0  0  0
   -2.4109   30.0409    8.8291 C   0  0  0  0  0  0  0  0  0  0  0  0
   -1.3466   29.5121    8.1364 N   0  0  0  0  0  0  0  0  0  0  0  0
    0.0036   29.6603    8.2379 C   0  0  0  0  0  0  0  0  0  0  0  0
    0.6008   28.9108    7.3350 N   0  0  0  0  0  0  0  0  0  0  0  0
   -0.3813   28.2514    6.6195 N   0  0  0  0  0  0  0  0  0  0  0  0
   -1.5421   28.6336    7.1083 C   0  0  0  0  0  0  0  0  0  0  0  0
   -3.8191   24.2542    2.7843 C   0  0  0  0  0  0  0  0  0  0  0  0
   -8.1143   23.0895   -0.7035 F   0  0  0  0  0  0  0  0  0  0  0  0
   -7.0961   23.3688    0.1218 C   0  0  0  0  0  0  0  0  0  0  0  0
   -6.5813   22.3653    0.9339 C   0  0  0  0  0  0  0  0  0  0  0  0
   -5.5179   22.6505    1.7953 C   0  0  0  0  0  0  0  0  0  0  0  0
   -4.9696   23.9426    1.8543 C   0  0  0  0  0  0  0  0  0  0  0  0
   -5.4962   24.9381    1.0165 C   0  0  0  0  0  0  0  0  0  0  0  0
   -6.5555   24.6463    0.1608 C   0  0  0  0  0  0  0  0  0  0  0  0
   -7.0468   25.6122   -0.6276 F   0  0  0  0  0  0  0  0  0  0  0  0
 17 18  1  0  0  0
 18 19  1  0  0  0
 19 20  2  0  0  0
 20 21  1  0  0  0
 21 16  1  0  0  0
 16  1  1  0  0  0
  1  2  1  0  0  0
  2  3  1  0  0  0
  3  4  1  0  0  0
  4  7  1  0  0  0
  7  8  2  0  0  0
  8  9  1  0  0  0
  9 10  2  0  0  0
 10 11  1  0  0  0
 11 12  1  0  0  0
 12 13  2  0  0  0
 13 14  1  0  0  0
 14 15  2  0  0  0
  4  5  1  0  0  0
  5  6  1  0  0  0
 21 22  2  0  0  0
 22 23  1  0  0  0
 23 24  1  0  0  0
 23 18  2  0  0  0
  6  1  1  0  0  0
 15  7  1  0  0  0
 15 11  1  0  0  0
M  END
> <minimizedAffinity>
-9.84160

$$$$
OCNT-2310988


 28 31  0  0  0  0  0  0  0  0999 V2000
   -4.8846   29.9223    8.4165 O   0  0  0  0  0  0  0  0  0  0  0  0
   -4.9509   30.7896    7.5498 C   0  0  0  0  0  0  0  0  0  0  0  0
   -5.9892   30.8877    6.6471 N   0  0  0  0  0  0  0  0  0  0  0  0
   -5.8759   31.5234    5.8672 H   0  0  0  0  0  0  0  0  0  0  0  0
   -3.8796   31.8552    7.3790 C   0  0  0  0  0  0  0  0  0  0  0  0
   -2.6878   31.5656    8.2356 C   0  0  0  0  0  0  0  0  0  0  0  0
   -2.3969   32.1256    9.4695 C   0  0  0  0  0  0  0  0  0  0  0  0
   -1.1991   31.6142    9.9021 N   0  0  0  0  0  0  0  0  0  0  0  0
   -0.7090   30.7337    8.9796 C   0  0  0  0  0  0  0  0  0  0  0  0
    0.4542   30.0706    9.1065 N   0  0  0  0  0  0  0  0  0  0  0  0
    0.7094   29.2538    8.0595 C   0  0  0  0  0  0  0  0  0  0  0  0
   -0.1033   29.0872    6.9457 C   0  0  0  0  0  0  0  0  0  0  0  0
   -1.2973   29.8063    6.8643 C   0  0  0  0  0  0  0  0  0  0  0  0
   -1.6157   30.6667    7.9284 C   0  0  0  0  0  0  0  0  0  0  0  0
   -0.7273   31.8296   10.7683 H   0  0  0  0  0  0  0  0  0  0  0  0
   -6.9698   29.8361    6.4999 C   0  0  0  0  0  0  0  0  0  0  0  0
   -6.5252   28.8461    5.4526 C   0  0  0  0  0  0  0  0  0  0  0  0
   -6.2218   29.2690    4.1531 C   0  0  0  0  0  0  0  0  0  0  0  0
   -5.8390   28.3520    3.1657 C   0  0  0  0  0  0  0  0  0  0  0  0
   -5.7332   26.9841    3.4626 C   0  0  0  0  0  0  0  0  0  0  0  0
   -6.0266   26.5707    4.7677 C   0  0  0  0  0  0  0  0  0  0  0  0
   -5.9658   25.2857    5.1421 F   0  0  0  0  0  0  0  0  0  0  0  0
   -6.4188   27.4852    5.7490 C   0  0  0  0  0  0  0  0  0  0  0  0
   -5.3335   26.0579    2.4549 N   0  0  0  0  0  0  0  0  0  0  0  0
   -4.1451   25.3649    2.3525 C   0  0  0  0  0  0  0  0  0  0  0  0
   -4.2273   24.6119    1.2044 C   0  0  0  0  0  0  0  0  0  0  0  0
   -5.4261   24.8036    0.5866 N   0  0  0  0  0  0  0  0  0  0  0  0
   -6.0684   25.6587    1.3531 C   0  0  0  0  0  0  0  0  0  0  0  0
  1  2  2  0  0  0
  2  5  1  0  0  0
  5  6  1  0  0  0
  6  7  2  0  0  0
  7  8  1  0  0  0
  8  9  1  0  0  0
  9 10  1  0  0  0
 10 11  2  0  0  0
 11 12  1  0  0  0
 12 13  2  0  0  0
 13 14  1  0  0  0
  2  3  1  0  0  0
  3 16  1  0  0  0
 16 17  1  0  0  0
 17 18  1  0  0  0
 18 19  2  0  0  0
 19 20  1  0  0  0
 20 24  1  0  0  0
 24 25  1  0  0  0
 25 26  2  0  0  0
 26 27  1  0  0  0
 27 28  2  0  0  0
 20 21  2  0  0  0
 21 22  1  0  0  0
 21 23  1  0  0  0
 14  6  1  0  0  0
 23 17  2  0  0  0
 14  9  2  0  0  0
 28 24  1  0  0  0
  8 15  1  0  0  0
  3  4  1  0  0  0
M  END
> <minimizedAffinity>
-9.78191

$$$$
OCNT-2310997


 30 33  0  0  0  0  0  0  0  0999 V2000
   -6.3755   30.3706    6.6768 N   0  0  0  0  0  0  0  0  0  0  0  0
   -5.3556   29.8867    7.4506 C   0  0  0  0  0  0  0  0  0  0  0  0
   -5.2743   28.7048    7.7738 O   0  0  0  0  0  0  0  0  0  0  0  0
   -4.4436   30.8277    7.8603 N   0  0  0  0  0  0  0  0  0  0  0  0
   -4.4487   32.2586    7.6033 C   0  0  0  0  0  0  0  0  0  0  0  0
   -3.1050   32.7435    8.1269 C   0  0  0  0  0  0  0  0  0  0  0  0
   -2.8245   31.7888    9.2911 C   0  0  0  0  0  0  0  0  0  0  0  0
   -3.3573   30.4579    8.7554 C   0  0  0  0  0  0  0  0  0  0  0  0
   -6.1960   31.2231    6.1750 H   0  0  0  0  0  0  0  0  0  0  0  0
   -7.3679   29.4879    6.1044 C   0  0  0  0  0  0  0  0  0  0  0  0
   -5.6297   26.5471    3.5195 C   0  0  0  0  0  0  0  0  0  0  0  0
   -5.6771   27.8807    3.1068 C   0  0  0  0  0  0  0  0  0  0  0  0
   -6.2326   28.8523    3.9389 C   0  0  0  0  0  0  0  0  0  0  0  0
   -6.7404   28.4849    5.1817 C   0  0  0  0  0  0  0  0  0  0  0  0
   -6.6677   27.1404    5.5131 C   0  0  0  0  0  0  0  0  0  0  0  0
   -6.1364   26.1823    4.7175 N   0  0  0  0  0  0  0  0  0  0  0  0
   -5.8253   22.0076    0.6395 C   0  0  0  0  0  0  0  0  0  0  0  0
   -5.9959   22.8348    1.8304 N   0  0  0  0  0  0  0  0  0  0  0  0
   -6.7224   24.0934    1.5276 C   0  0  0  0  0  0  0  0  0  0  0  0
   -5.8195   25.3409    1.4165 C   0  0  0  0  0  0  0  0  0  0  0  0
   -5.0644   25.5790    2.6662 N   0  0  0  0  0  0  0  0  0  0  0  0
   -4.7063   24.3402    3.4014 C   0  0  0  0  0  0  0  0  0  0  0  0
   -4.6853   23.1126    2.4618 C   0  0  0  0  0  0  0  0  0  0  0  0
   -1.3470   31.7582    9.6810 C   0  0  0  0  0  0  0  0  0  0  0  0
   -0.5405   30.8123    8.8262 C   0  0  0  0  0  0  0  0  0  0  0  0
    0.4891   30.0482    9.3921 C   0  0  0  0  0  0  0  0  0  0  0  0
    1.2257   29.1606    8.6064 C   0  0  0  0  0  0  0  0  0  0  0  0
    0.9389   29.0265    7.2496 C   0  0  0  0  0  0  0  0  0  0  0  0
   -0.0844   29.7795    6.6773 C   0  0  0  0  0  0  0  0  0  0  0  0
   -0.8215   30.6685    7.4611 C   0  0  0  0  0  0  0  0  0  0  0  0
 17 18  1  0  0  0
 18 19  1  0  0  0
 19 20  1  0  0  0
 20 21  1  0  0  0
 21 11  1  0  0  0
 11 12  2  0  0  0
 12 13  1  0  0  0
 13 14  2  0  0  0
 14 10  1  0  0  0
 10  1  1  0  0  0
  1  2  1  0  0  0
  2  3  2  0  0  0
  2  4  1  0  0  0
  4  5  1  0  0  0
  5  6  1  0  0  0
  6  7  1  0  0  0
  7 24  1  0  0  0
 24 25  1  0  0  0
 25 26  2  0  0  0
 26 27  1  0  0  0
 27 28  2  0  0  0
 28 29  1  0  0  0
 29 30  2  0  0  0
  7  8  1  0  0  0
 14 15  1  0  0  0
 15 16  2  0  0  0
 21 22  1  0  0  0
 22 23  1  0  0  0
 23 18  1  0  0  0
 16 11  1  0  0  0
  8  4  1  0  0  0
 30 25  1  0  0  0
  1  9  1  0  0  0
M  END
> <minimizedAffinity>
-10.14997

$$$$
OCNT-2311020


 28 30  0  0  0  0  0  0  0  0999 V2000
   -5.2918   27.3996    5.3148 N   0  0  0  0  0  0  0  0  0  0  0  0
   -6.1341   28.5685    5.0553 C   0  0  0  0  0  0  0  0  0  0  0  0
   -6.1836   29.4566    6.2990 C   0  0  0  0  0  0  0  0  0  0  0  0
   -4.8137   29.6267    6.9727 C   0  0  0  0  0  0  0  0  0  0  0  0
   -3.6770   29.1209    6.0899 C   0  0  0  0  0  0  0  0  0  0  0  0
   -3.9002   27.6595    5.7058 C   0  0  0  0  0  0  0  0  0  0  0  0
   -5.7578   24.2955    2.5427 C   0  0  0  0  0  0  0  0  0  0  0  0
   -5.7420   24.0014    3.9023 C   0  0  0  0  0  0  0  0  0  0  0  0
   -5.5826   25.0415    4.8226 C   0  0  0  0  0  0  0  0  0  0  0  0
   -5.4426   26.3610    4.3821 C   0  0  0  0  0  0  0  0  0  0  0  0
   -5.4808   26.6481    3.0631 N   0  0  0  0  0  0  0  0  0  0  0  0
   -5.6413   25.6279    2.1800 C   0  0  0  0  0  0  0  0  0  0  0  0
   -6.6547   23.6502    0.3678 N   0  0  0  0  0  0  0  0  0  0  0  0
   -5.9217   23.2779    1.4774 C   0  0  0  0  0  0  0  0  0  0  0  0
   -5.4391   22.1605    1.6217 O   0  0  0  0  0  0  0  0  0  0  0  0
   -7.1909   24.5058    0.3861 H   0  0  0  0  0  0  0  0  0  0  0  0
   -8.4041   22.2983   -0.7030 C   0  0  0  0  0  0  0  0  0  0  0  0
   -6.9420   22.7077   -0.6948 C   0  0  0  0  0  0  0  0  0  0  0  0
   -4.5796   31.0173    7.3525 N   0  0  0  0  0  0  0  0  0  0  0  0
   -5.2190   31.5852    8.4448 C   0  0  0  0  0  0  0  0  0  0  0  0
   -5.9189   30.9054    9.1922 O   0  0  0  0  0  0  0  0  0  0  0  0
   -4.2267   31.6432    6.6433 H   0  0  0  0  0  0  0  0  0  0  0  0
   -5.0015   33.0195    8.6015 C   0  0  0  0  0  0  0  0  0  0  0  0
   -4.7625   33.9982    7.6518 C   0  0  0  0  0  0  0  0  0  0  0  0
   -4.6077   35.2951    8.2257 C   0  0  0  0  0  0  0  0  0  0  0  0
   -4.7241   35.2744    9.5983 C   0  0  0  0  0  0  0  0  0  0  0  0
   -4.6235   36.4105   10.5572 C   0  0  0  0  0  0  0  0  0  0  0  0
   -5.0126   33.6938   10.1803 S   0  0  0  0  0  0  0  0  0  0  0  0
 17 18  1  0  0  0
 18 13  1  0  0  0
 13 14  1  0  0  0
 14 15  2  0  0  0
 14  7  1  0  0  0
  7  8  2  0  0  0
  8  9  1  0  0  0
  9 10  2  0  0  0
 10  1  1  0  0  0
  1  2  1  0  0  0
  2  3  1  0  0  0
  3  4  1  0  0  0
  4 19  1  0  0  0
 19 20  1  0  0  0
 20 21  2  0  0  0
 20 23  1  0  0  0
 23 24  2  0  0  0
 24 25  1  0  0  0
 25 26  2  0  0  0
 26 27  1  0  0  0
 26 28  1  0  0  0
  4  5  1  0  0  0
  5  6  1  0  0  0
 10 11  1  0  0  0
 11 12  2  0  0  0
 12  7  1  0  0  0
  6  1  1  0  0  0
 28 23  1  0  0  0
 13 16  1  0  0  0
 19 22  1  0  0  0
M  END
> <minimizedAffinity>
-5.53580

$$$$
OCNT-2311052


 24 26  0  0  0  0  0  0  0  0999 V2000
   -2.8067   27.3469    6.0271 C   0  0  0  0  0  0  0  0  0  0  0  0
   -2.2951   26.2936    6.3963 O   0  0  0  0  0  0  0  0  0  0  0  0
   -3.7579   27.5025    5.0411 N   0  0  0  0  0  0  0  0  0  0  0  0
   -4.0950   28.4252    4.8090 H   0  0  0  0  0  0  0  0  0  0  0  0
   -4.3829   26.5196    4.3219 C   0  0  0  0  0  0  0  0  0  0  0  0
   -4.0162   26.2658    3.0836 N   0  0  0  0  0  0  0  0  0  0  0  0
   -4.8109   25.2605    2.5741 C   0  0  0  0  0  0  0  0  0  0  0  0
   -5.7699   24.7750    3.4386 C   0  0  0  0  0  0  0  0  0  0  0  0
   -6.7442   23.6925    3.1265 C   0  0  0  0  0  0  0  0  0  0  0  0
   -6.8235   23.4841    1.6033 C   0  0  0  0  0  0  0  0  0  0  0  0
   -5.4317   23.4656    0.9438 C   0  0  0  0  0  0  0  0  0  0  0  0
   -4.6641   24.7815    1.1696 C   0  0  0  0  0  0  0  0  0  0  0  0
   -5.6710   25.5802    4.9333 S   0  0  0  0  0  0  0  0  0  0  0  0
   -2.4118   28.6909    6.6650 C   0  0  0  0  0  0  0  0  0  0  0  0
   -3.2424   31.5161    9.0321 C   0  0  0  0  0  0  0  0  0  0  0  0
   -2.3142   31.9395   10.1882 C   0  0  0  0  0  0  0  0  0  0  0  0
   -2.4743   31.6665    7.6981 C   0  0  0  0  0  0  0  0  0  0  0  0
   -3.2180   31.0272    6.5219 C   0  0  0  0  0  0  0  0  0  0  0  0
   -3.5603   29.6159    6.7376 N   0  0  0  0  0  0  0  0  0  0  0  0
   -4.3217   29.4385    7.9797 C   0  0  0  0  0  0  0  0  0  0  0  0
   -3.6376   30.0327    9.2171 C   0  0  0  0  0  0  0  0  0  0  0  0
   -4.5092   32.4106    9.0573 C   0  0  0  0  0  0  0  0  0  0  0  0
   -4.8940   34.6089    8.2918 C   0  0  0  0  0  0  0  0  0  0  0  0
   -4.1376   33.7859    9.1687 O   0  0  0  0  0  0  0  0  0  0  0  0
 23 24  1  0  0  0
 24 22  1  0  0  0
 22 15  1  0  0  0
 15 16  1  0  0  0
 15 17  1  0  0  0
 17 18  1  0  0  0
 18 19  1  0  0  0
 19 14  1  0  0  0
 14  1  1  0  0  0
  1  2  2  0  0  0
  1  3  1  0  0  0
  3  5  1  0  0  0
  5  6  2  0  0  0
  6  7  1  0  0  0
  7  8  2  0  0  0
  8  9  1  0  0  0
  9 10  1  0  0  0
 10 11  1  0  0  0
 11 12  1  0  0  0
  8 13  1  0  0  0
 19 20  1  0  0  0
 20 21  1  0  0  0
 21 15  1  0  0  0
 13  5  1  0  0  0
 12  7  1  0  0  0
  3  4  1  0  0  0
M  END
> <minimizedAffinity>
-8.31976

$$$$
OCNT-2311059


 29 33  0  0  0  0  0  0  0  0999 V2000
   -6.5395   30.1264    4.4842 O   0  0  0  0  0  0  0  0  0  0  0  0
   -5.7684   29.1803    4.4365 C   0  0  0  0  0  0  0  0  0  0  0  0
   -5.5748   28.4859    3.2583 N   0  0  0  0  0  0  0  0  0  0  0  0
   -4.8615   27.2558    3.4555 C   0  0  0  0  0  0  0  0  0  0  0  0
   -4.6029   27.3316    4.9662 C   0  0  0  0  0  0  0  0  0  0  0  0
   -4.0342   26.4453    5.5957 O   0  0  0  0  0  0  0  0  0  0  0  0
   -5.0914   28.5272    5.4395 N   0  0  0  0  0  0  0  0  0  0  0  0
   -6.0402   28.7916    2.4144 H   0  0  0  0  0  0  0  0  0  0  0  0
   -5.0429   28.9581    6.7928 C   0  0  0  0  0  0  0  0  0  0  0  0
   -6.1771   28.7888    7.6097 C   0  0  0  0  0  0  0  0  0  0  0  0
   -6.1862   29.2458    8.9233 C   0  0  0  0  0  0  0  0  0  0  0  0
   -5.0555   29.8629    9.4411 C   0  0  0  0  0  0  0  0  0  0  0  0
   -3.8998   29.9991    8.6579 C   0  0  0  0  0  0  0  0  0  0  0  0
   -2.7454   30.5824    9.1986 C   0  0  0  0  0  0  0  0  0  0  0  0
   -1.5903   30.6744    8.4363 C   0  0  0  0  0  0  0  0  0  0  0  0
   -1.6252   30.1620    7.1580 C   0  0  0  0  0  0  0  0  0  0  0  0
   -2.7174   29.5884    6.6100 N   0  0  0  0  0  0  0  0  0  0  0  0
   -3.8679   29.5339    7.3209 C   0  0  0  0  0  0  0  0  0  0  0  0
   -5.6917   26.0214    3.1038 C   0  0  0  0  0  0  0  0  0  0  0  0
   -4.9544   24.9178    2.3029 C   0  0  0  0  0  0  0  0  0  0  0  0
   -4.1925   23.9280    3.2063 C   0  0  0  0  0  0  0  0  0  0  0  0
   -4.9816   22.6654    3.5270 C   0  0  0  0  0  0  0  0  0  0  0  0
   -5.3763   21.9424    2.2474 C   0  0  0  0  0  0  0  0  0  0  0  0
   -6.0542   22.8537    1.2577 C   0  0  0  0  0  0  0  0  0  0  0  0
   -6.8716   22.2801    0.2698 C   0  0  0  0  0  0  0  0  0  0  0  0
   -7.4825   23.0726   -0.6994 C   0  0  0  0  0  0  0  0  0  0  0  0
   -7.2695   24.4456   -0.7032 C   0  0  0  0  0  0  0  0  0  0  0  0
   -6.4485   25.0257    0.2641 C   0  0  0  0  0  0  0  0  0  0  0  0
   -5.8364   24.2447    1.2612 C   0  0  0  0  0  0  0  0  0  0  0  0
  1  2  2  0  0  0
  2  3  1  0  0  0
  3  4  1  0  0  0
  4 19  1  0  0  0
 19 20  1  0  0  0
 20 21  1  0  0  0
 21 22  1  0  0  0
 22 23  1  0  0  0
 23 24  1  0  0  0
 24 25  2  0  0  0
 25 26  1  0  0  0
 26 27  2  0  0  0
 27 28  1  0  0  0
 28 29  2  0  0  0
  4  5  1  0  0  0
  5  6  2  0  0  0
  5  7  1  0  0  0
  7  9  1  0  0  0
  9 10  1  0  0  0
 10 11  2  0  0  0
 11 12  1  0  0  0
 12 13  2  0  0  0
 13 14  1  0  0  0
 14 15  2  0  0  0
 15 16  1  0  0  0
 16 17  2  0  0  0
 17 18  1  0  0  0
  7  2  1  0  0  0
 18  9  2  0  0  0
 29 20  1  0  0  0
 18 13  1  0  0  0
 29 24  1  0  0  0
  3  8  1  0  0  0
M  END
> <minimizedAffinity>
-11.45445

$$$$
OCNT-2311083


 29 31  0  0  0  0  0  0  0  0999 V2000
   -2.6502   27.2571    6.4519 N   0  0  0  0  0  0  0  0  0  0  0  0
   -1.3378   27.4775    6.8139 C   0  0  0  0  0  0  0  0  0  0  0  0
   -0.4075   26.7559    6.4740 O   0  0  0  0  0  0  0  0  0  0  0  0
   -3.3170   27.9757    6.7229 H   0  0  0  0  0  0  0  0  0  0  0  0
   -1.1268   28.6968    7.6595 C   0  0  0  0  0  0  0  0  0  0  0  0
    0.0946   28.9006    8.2829 C   0  0  0  0  0  0  0  0  0  0  0  0
    0.2460   30.0463    9.0515 C   0  0  0  0  0  0  0  0  0  0  0  0
   -0.8193   30.9399    9.1665 C   0  0  0  0  0  0  0  0  0  0  0  0
   -2.0176   30.6661    8.5064 C   0  0  0  0  0  0  0  0  0  0  0  0
   -2.1854   29.5505    7.7531 N   0  0  0  0  0  0  0  0  0  0  0  0
   -3.2100   31.5339    8.5560 C   0  0  0  0  0  0  0  0  0  0  0  0
   -3.3332   32.7810    9.1525 C   0  0  0  0  0  0  0  0  0  0  0  0
   -4.6341   33.3459    9.0170 C   0  0  0  0  0  0  0  0  0  0  0  0
   -5.4801   32.5158    8.3208 C   0  0  0  0  0  0  0  0  0  0  0  0
   -4.7059   31.0725    7.8401 S   0  0  0  0  0  0  0  0  0  0  0  0
   -3.0364   26.1975    5.5481 C   0  0  0  0  0  0  0  0  0  0  0  0
   -2.5321   26.4261    4.1221 C   0  0  0  0  0  0  0  0  0  0  0  0
   -3.5894   24.2123    2.7760 O   0  0  0  0  0  0  0  0  0  0  0  0
   -4.0936   25.3129    2.6109 C   0  0  0  0  0  0  0  0  0  0  0  0
   -3.6245   26.4793    3.1650 N   0  0  0  0  0  0  0  0  0  0  0  0
   -5.2059   25.5566    1.8428 N   0  0  0  0  0  0  0  0  0  0  0  0
   -4.3673   27.1249    3.3936 H   0  0  0  0  0  0  0  0  0  0  0  0
   -5.2250   26.4781    1.4310 H   0  0  0  0  0  0  0  0  0  0  0  0
   -5.8285   24.4861    1.0758 C   0  0  0  0  0  0  0  0  0  0  0  0
   -6.5999   25.0440   -0.1345 C   0  0  0  0  0  0  0  0  0  0  0  0
   -7.7647   24.1566   -0.5809 C   0  0  0  0  0  0  0  0  0  0  0  0
   -7.5121   22.6882   -0.2702 C   0  0  0  0  0  0  0  0  0  0  0  0
   -7.3285   22.4483    1.2293 C   0  0  0  0  0  0  0  0  0  0  0  0
   -6.7391   23.6482    1.9739 C   0  0  0  0  0  0  0  0  0  0  0  0
 18 19  2  0  0  0
 19 20  1  0  0  0
 20 17  1  0  0  0
 17 16  1  0  0  0
 16  1  1  0  0  0
  1  2  1  0  0  0
  2  3  2  0  0  0
  2  5  1  0  0  0
  5  6  1  0  0  0
  6  7  2  0  0  0
  7  8  1  0  0  0
  8  9  2  0  0  0
  9 11  1  0  0  0
 11 12  2  0  0  0
 12 13  1  0  0  0
 13 14  2  0  0  0
 14 15  1  0  0  0
  9 10  1  0  0  0
 19 21  1  0  0  0
 21 24  1  0  0  0
 24 25  1  0  0  0
 25 26  1  0  0  0
 26 27  1  0  0  0
 27 28  1  0  0  0
 28 29  1  0  0  0
 10  5  2  0  0  0
 29 24  1  0  0  0
 15 11  1  0  0  0
 20 22  1  0  0  0
  1  4  1  0  0  0
 21 23  1  0  0  0
M  END
> <minimizedAffinity>
-9.80771

$$$$
OCNT-2311090


 26 30  0  0  0  0  0  0  0  0999 V2000
   -5.6646   24.5655    3.0739 N   0  0  0  0  0  0  0  0  0  0  0  0
   -6.3568   24.2448    4.2090 N   0  0  0  0  0  0  0  0  0  0  0  0
   -5.6896   24.6808    5.2706 N   0  0  0  0  0  0  0  0  0  0  0  0
   -4.5473   25.2554    4.8235 C   0  0  0  0  0  0  0  0  0  0  0  0
   -4.4808   25.1646    3.4511 C   0  0  0  0  0  0  0  0  0  0  0  0
   -3.3197   25.6531    2.6737 C   0  0  0  0  0  0  0  0  0  0  0  0
   -2.1373   25.9528    3.6433 C   0  0  0  0  0  0  0  0  0  0  0  0
   -2.5655   26.6742    4.8701 N   0  0  0  0  0  0  0  0  0  0  0  0
   -3.4850   25.8294    5.6911 C   0  0  0  0  0  0  0  0  0  0  0  0
   -7.3070   23.5763   -0.7022 C   0  0  0  0  0  0  0  0  0  0  0  0
   -6.7486   24.8366   -0.5029 C   0  0  0  0  0  0  0  0  0  0  0  0
   -6.2028   25.1819    0.7390 C   0  0  0  0  0  0  0  0  0  0  0  0
   -6.2082   24.2617    1.7935 C   0  0  0  0  0  0  0  0  0  0  0  0
   -6.7852   22.9961    1.5835 C   0  0  0  0  0  0  0  0  0  0  0  0
   -7.3278   22.6566    0.3417 C   0  0  0  0  0  0  0  0  0  0  0  0
   -1.4193   27.0866    5.7032 C   0  0  0  0  0  0  0  0  0  0  0  0
   -1.7048   26.9948    7.2118 C   0  0  0  0  0  0  0  0  0  0  0  0
   -1.6257   28.3524    7.8734 C   0  0  0  0  0  0  0  0  0  0  0  0
   -0.3685   28.9430    8.1295 C   0  0  0  0  0  0  0  0  0  0  0  0
   -0.2746   30.1843    8.7641 C   0  0  0  0  0  0  0  0  0  0  0  0
   -1.4462   30.8143    9.1247 C   0  0  0  0  0  0  0  0  0  0  0  0
   -1.5078   32.0273    9.7601 O   0  0  0  0  0  0  0  0  0  0  0  0
   -2.9069   32.3865    9.6685 C   0  0  0  0  0  0  0  0  0  0  0  0
   -3.7381   31.1209    9.4523 C   0  0  0  0  0  0  0  0  0  0  0  0
   -2.6872   30.2465    8.8871 C   0  0  0  0  0  0  0  0  0  0  0  0
   -2.8000   29.0132    8.2697 C   0  0  0  0  0  0  0  0  0  0  0  0
 10 11  2  0  0  0
 11 12  1  0  0  0
 12 13  2  0  0  0
 13  1  1  0  0  0
  1  2  1  0  0  0
  2  3  2  0  0  0
  3  4  1  0  0  0
  4  5  2  0  0  0
  5  6  1  0  0  0
  6  7  1  0  0  0
  7  8  1  0  0  0
  8 16  1  0  0  0
 16 17  1  0  0  0
 17 18  1  0  0  0
 18 19  1  0  0  0
 19 20  2  0  0  0
 20 21  1  0  0  0
 21 22  1  0  0  0
 22 23  1  0  0  0
 23 24  1  0  0  0
 24 25  1  0  0  0
 25 26  1  0  0  0
  8  9  1  0  0  0
 13 14  1  0  0  0
 14 15  2  0  0  0
 15 10  1  0  0  0
  5  1  1  0  0  0
 26 18  2  0  0  0
  9  4  1  0  0  0
 25 21  2  0  0  0
M  END
> <minimizedAffinity>
-10.23653

$$$$
OCNT-2311091


 24 26  0  0  0  0  0  0  0  0999 V2000
   -4.0292   26.2834    4.0137 C   0  0  0  0  0  0  0  0  0  0  0  0
   -5.0579   25.4440    3.6435 C   0  0  0  0  0  0  0  0  0  0  0  0
   -6.4278   24.7733    4.7408 Br  0  0  0  0  0  0  0  0  0  0  0  0
   -4.8930   25.1779    2.2574 C   0  0  0  0  0  0  0  0  0  0  0  0
   -3.8358   25.8610    1.7827 N   0  0  0  0  0  0  0  0  0  0  0  0
   -3.3588   26.5195    2.8466 N   0  0  0  0  0  0  0  0  0  0  0  0
   -2.5722   27.1434    2.7035 H   0  0  0  0  0  0  0  0  0  0  0  0
   -5.6821   24.3309    1.3655 C   0  0  0  0  0  0  0  0  0  0  0  0
   -5.6105   22.9338    1.4417 C   0  0  0  0  0  0  0  0  0  0  0  0
   -6.3718   22.1388    0.5808 C   0  0  0  0  0  0  0  0  0  0  0  0
   -7.2030   22.7330   -0.3675 C   0  0  0  0  0  0  0  0  0  0  0  0
   -7.2702   24.1218   -0.4620 C   0  0  0  0  0  0  0  0  0  0  0  0
   -6.5101   24.9176    0.3980 C   0  0  0  0  0  0  0  0  0  0  0  0
   -4.2811   27.8571    5.7416 O   0  0  0  0  0  0  0  0  0  0  0  0
   -3.7045   26.8788    5.2807 C   0  0  0  0  0  0  0  0  0  0  0  0
   -2.6826   26.2451    5.9614 N   0  0  0  0  0  0  0  0  0  0  0  0
   -2.4644   25.2914    5.7113 H   0  0  0  0  0  0  0  0  0  0  0  0
   -2.3395   26.6440    7.3107 C   0  0  0  0  0  0  0  0  0  0  0  0
   -1.2442   27.6690    7.3104 C   0  0  0  0  0  0  0  0  0  0  0  0
   -1.0439   28.5306    8.3934 C   0  0  0  0  0  0  0  0  0  0  0  0
   -0.0270   29.4799    8.3411 C   0  0  0  0  0  0  0  0  0  0  0  0
    0.7557   29.5412    7.2006 C   0  0  0  0  0  0  0  0  0  0  0  0
    0.5873   28.7338    6.1330 N   0  0  0  0  0  0  0  0  0  0  0  0
   -0.4073   27.8200    6.2083 C   0  0  0  0  0  0  0  0  0  0  0  0
 14 15  2  0  0  0
 15 16  1  0  0  0
 16 18  1  0  0  0
 18 19  1  0  0  0
 19 20  1  0  0  0
 20 21  2  0  0  0
 21 22  1  0  0  0
 22 23  2  0  0  0
 23 24  1  0  0  0
 15  1  1  0  0  0
  1  2  2  0  0  0
  2  3  1  0  0  0
  2  4  1  0  0  0
  4  8  1  0  0  0
  8  9  2  0  0  0
  9 10  1  0  0  0
 10 11  2  0  0  0
 11 12  1  0  0  0
 12 13  2  0  0  0
  4  5  2  0  0  0
  5  6  1  0  0  0
 24 19  2  0  0  0
  6  1  1  0  0  0
 13  8  1  0  0  0
 16 17  1  0  0  0
  6  7  1  0  0  0
M  END
> <minimizedAffinity>
-8.87398

$$$$
OCNT-2311092


 24 26  0  0  0  0  0  0  0  0999 V2000
   -3.8904   25.1769    3.0877 N   0  0  0  0  0  0  0  0  0  0  0  0
   -4.1409   25.6550    4.3614 C   0  0  0  0  0  0  0  0  0  0  0  0
   -5.2091   25.5814    4.9558 O   0  0  0  0  0  0  0  0  0  0  0  0
   -2.9583   25.3106    2.7272 H   0  0  0  0  0  0  0  0  0  0  0  0
   -6.0638   22.5880    1.4419 C   0  0  0  0  0  0  0  0  0  0  0  0
   -5.1599   23.1749    2.3455 C   0  0  0  0  0  0  0  0  0  0  0  0
   -4.7876   24.5179    2.2202 C   0  0  0  0  0  0  0  0  0  0  0  0
   -5.3276   25.2759    1.1712 C   0  0  0  0  0  0  0  0  0  0  0  0
   -6.2198   24.7010    0.2644 C   0  0  0  0  0  0  0  0  0  0  0  0
   -6.5778   23.3664    0.4043 C   0  0  0  0  0  0  0  0  0  0  0  0
   -7.4299   22.8292   -0.4800 F   0  0  0  0  0  0  0  0  0  0  0  0
   -7.3330   20.8935    2.7845 C   0  0  0  0  0  0  0  0  0  0  0  0
   -6.4452   21.1371    1.5737 C   0  0  0  0  0  0  0  0  0  0  0  0
   -2.9961   26.2928    5.0039 C   0  0  0  0  0  0  0  0  0  0  0  0
   -2.9384   27.2470    6.0047 C   0  0  0  0  0  0  0  0  0  0  0  0
   -1.6034   27.5128    6.2517 N   0  0  0  0  0  0  0  0  0  0  0  0
   -0.8022   26.7702    5.4524 N   0  0  0  0  0  0  0  0  0  0  0  0
   -1.6388   26.0453    4.7111 C   0  0  0  0  0  0  0  0  0  0  0  0
   -1.0534   28.4192    7.1904 C   0  0  0  0  0  0  0  0  0  0  0  0
    0.3224   28.5241    7.4143 C   0  0  0  0  0  0  0  0  0  0  0  0
    0.7918   29.4403    8.3555 C   0  0  0  0  0  0  0  0  0  0  0  0
   -0.1281   30.2182    9.0392 C   0  0  0  0  0  0  0  0  0  0  0  0
   -1.4608   30.1412    8.8466 N   0  0  0  0  0  0  0  0  0  0  0  0
   -1.8976   29.2444    7.9272 C   0  0  0  0  0  0  0  0  0  0  0  0
 12 13  1  0  0  0
 13  5  1  0  0  0
  5  6  1  0  0  0
  6  7  2  0  0  0
  7  1  1  0  0  0
  1  2  1  0  0  0
  2  3  2  0  0  0
  2 14  1  0  0  0
 14 15  2  0  0  0
 15 16  1  0  0  0
 16 19  1  0  0  0
 19 20  1  0  0  0
 20 21  2  0  0  0
 21 22  1  0  0  0
 22 23  2  0  0  0
 23 24  1  0  0  0
 16 17  1  0  0  0
 17 18  2  0  0  0
  7  8  1  0  0  0
  8  9  2  0  0  0
  9 10  1  0  0  0
 10 11  1  0  0  0
 10  5  2  0  0  0
 18 14  1  0  0  0
 24 19  2  0  0  0
  1  4  1  0  0  0
M  END
> <minimizedAffinity>
-9.05419

$$$$
OCNT-2311094


 24 26  0  0  0  0  0  0  0  0999 V2000
   -2.9295   27.8107    7.1342 N   0  0  0  0  0  0  0  0  0  0  0  0
   -3.6401   27.2974    7.6473 H   0  0  0  0  0  0  0  0  0  0  0  0
    0.1791   25.7290    4.1296 C   0  0  0  0  0  0  0  0  0  0  0  0
   -1.2191   26.1555    4.4485 C   0  0  0  0  0  0  0  0  0  0  0  0
   -1.4331   26.7532    5.6319 N   0  0  0  0  0  0  0  0  0  0  0  0
   -2.6843   27.1566    5.9114 C   0  0  0  0  0  0  0  0  0  0  0  0
   -3.7317   26.9845    5.0088 C   0  0  0  0  0  0  0  0  0  0  0  0
   -5.1180   27.5088    5.2758 C   0  0  0  0  0  0  0  0  0  0  0  0
   -6.1774   26.9721    4.3128 C   0  0  0  0  0  0  0  0  0  0  0  0
   -5.6714   27.0170    2.8780 C   0  0  0  0  0  0  0  0  0  0  0  0
   -4.4388   26.1304    2.7348 C   0  0  0  0  0  0  0  0  0  0  0  0
   -3.4031   26.3826    3.7996 C   0  0  0  0  0  0  0  0  0  0  0  0
   -2.1584   25.9516    3.5146 N   0  0  0  0  0  0  0  0  0  0  0  0
   -1.7403   28.0347    7.9550 C   0  0  0  0  0  0  0  0  0  0  0  0
   -1.7320   29.4530    8.4759 C   0  0  0  0  0  0  0  0  0  0  0  0
   -2.9356   30.1841    8.5002 C   0  0  0  0  0  0  0  0  0  0  0  0
   -2.9421   31.4957    8.9492 C   0  0  0  0  0  0  0  0  0  0  0  0
   -4.5398   32.4910    9.0049 Br  0  0  0  0  0  0  0  0  0  0  0  0
   -1.7432   32.0475    9.3511 C   0  0  0  0  0  0  0  0  0  0  0  0
   -0.5665   31.3799    9.3250 N   0  0  0  0  0  0  0  0  0  0  0  0
   -0.5630   30.1063    8.8858 C   0  0  0  0  0  0  0  0  0  0  0  0
    0.6860   29.4872    8.8678 N   0  0  0  0  0  0  0  0  0  0  0  0
    0.9362   29.2058    7.9257 H   0  0  0  0  0  0  0  0  0  0  0  0
    0.6967   28.6731    9.4726 H   0  0  0  0  0  0  0  0  0  0  0  0
  3  4  1  0  0  0
  4  5  2  0  0  0
  5  6  1  0  0  0
  6  1  1  0  0  0
  1 14  1  0  0  0
 14 15  1  0  0  0
 15 16  1  0  0  0
 16 17  2  0  0  0
 17 18  1  0  0  0
 17 19  1  0  0  0
 19 20  2  0  0  0
 20 21  1  0  0  0
 21 22  1  0  0  0
  6  7  2  0  0  0
  7  8  1  0  0  0
  8  9  1  0  0  0
  9 10  1  0  0  0
 10 11  1  0  0  0
 11 12  1  0  0  0
 12 13  2  0  0  0
 13  4  1  0  0  0
 21 15  2  0  0  0
 12  7  1  0  0  0
  1  2  1  0  0  0
 22 23  1  0  0  0
 22 24  1  0  0  0
M  END
> <minimizedAffinity>
-8.89617

$$$$
OCNT-2311101


 26 28  0  0  0  0  0  0  0  0999 V2000
   -5.8403   24.0912    3.4152 C   0  0  0  0  0  0  0  0  0  0  0  0
   -6.5729   23.3178    4.5036 C   0  0  0  0  0  0  0  0  0  0  0  0
   -5.8811   22.9227    5.6609 C   0  0  0  0  0  0  0  0  0  0  0  0
   -6.5320   22.2270    6.6822 C   0  0  0  0  0  0  0  0  0  0  0  0
   -7.8871   21.9238    6.5658 C   0  0  0  0  0  0  0  0  0  0  0  0
   -8.5870   22.3239    5.4306 C   0  0  0  0  0  0  0  0  0  0  0  0
  -10.2635   21.9612    5.2891 Cl  0  0  0  0  0  0  0  0  0  0  0  0
   -7.9426   23.0197    4.4068 C   0  0  0  0  0  0  0  0  0  0  0  0
   -6.5287   24.0360    2.0220 C   0  0  0  0  0  0  0  0  0  0  0  0
   -6.1798   22.7550    1.2464 C   0  0  0  0  0  0  0  0  0  0  0  0
   -6.9577   22.6506   -0.0693 C   0  0  0  0  0  0  0  0  0  0  0  0
   -7.3186   24.0047   -0.6781 C   0  0  0  0  0  0  0  0  0  0  0  0
   -6.2828   25.0638   -0.3369 C   0  0  0  0  0  0  0  0  0  0  0  0
   -6.1545   25.2766    1.1739 C   0  0  0  0  0  0  0  0  0  0  0  0
   -4.4627   25.9782    4.2352 C   0  0  0  0  0  0  0  0  0  0  0  0
   -3.3778   25.4432    4.0682 O   0  0  0  0  0  0  0  0  0  0  0  0
   -5.6829   25.4650    3.8605 N   0  0  0  0  0  0  0  0  0  0  0  0
   -6.4924   25.9696    4.2099 H   0  0  0  0  0  0  0  0  0  0  0  0
   -4.8458   30.8894    6.6932 O   0  0  0  0  0  0  0  0  0  0  0  0
   -4.7763   29.7999    6.1374 C   0  0  0  0  0  0  0  0  0  0  0  0
   -5.8444   29.3476    5.2241 C   0  0  0  0  0  0  0  0  0  0  0  0
   -5.7586   28.1577    4.6247 C   0  0  0  0  0  0  0  0  0  0  0  0
   -4.5612   27.3435    4.9232 C   0  0  0  0  0  0  0  0  0  0  0  0
   -3.5959   27.7022    5.7209 N   0  0  0  0  0  0  0  0  0  0  0  0
   -3.7277   28.9307    6.3129 N   0  0  0  0  0  0  0  0  0  0  0  0
   -2.9812   29.2246    6.9352 H   0  0  0  0  0  0  0  0  0  0  0  0
 19 20  2  0  0  0
 20 21  1  0  0  0
 21 22  2  0  0  0
 22 23  1  0  0  0
 23 15  1  0  0  0
 15 16  2  0  0  0
 15 17  1  0  0  0
 17  1  1  0  0  0
  1  2  1  0  0  0
  2  3  2  0  0  0
  3  4  1  0  0  0
  4  5  2  0  0  0
  5  6  1  0  0  0
  6  7  1  0  0  0
  6  8  2  0  0  0
  1  9  1  0  0  0
  9 10  1  0  0  0
 10 11  1  0  0  0
 11 12  1  0  0  0
 12 13  1  0  0  0
 13 14  1  0  0  0
 23 24  2  0  0  0
 24 25  1  0  0  0
 25 20  1  0  0  0
  8  2  1  0  0  0
 14  9  1  0  0  0
 17 18  1  0  0  0
 25 26  1  0  0  0
M  END
> <minimizedAffinity>
-9.20268

$$$$
OCNT-2311106


 25 28  0  0  0  0  0  0  0  0999 V2000
   -7.0796   23.0174    2.4296 C   0  0  0  0  0  0  0  0  0  0  0  0
   -6.0574   23.6306    3.2858 N   0  0  0  0  0  0  0  0  0  0  0  0
   -5.1956   24.5420    2.5007 C   0  0  0  0  0  0  0  0  0  0  0  0
   -5.6493   26.0099    2.4786 C   0  0  0  0  0  0  0  0  0  0  0  0
   -5.7496   26.5708    3.8233 N   0  0  0  0  0  0  0  0  0  0  0  0
   -5.8272   27.9510    3.9517 C   0  0  0  0  0  0  0  0  0  0  0  0
   -5.8809   28.7173    2.9934 O   0  0  0  0  0  0  0  0  0  0  0  0
   -5.9545   25.6029    4.9152 C   0  0  0  0  0  0  0  0  0  0  0  0
   -6.7082   24.3281    4.4408 C   0  0  0  0  0  0  0  0  0  0  0  0
   -5.8590   28.5398    5.3001 C   0  0  0  0  0  0  0  0  0  0  0  0
   -7.0263   29.1985    5.7288 C   0  0  0  0  0  0  0  0  0  0  0  0
   -7.0865   29.7772    6.9978 C   0  0  0  0  0  0  0  0  0  0  0  0
   -5.9851   29.7238    7.8527 C   0  0  0  0  0  0  0  0  0  0  0  0
   -6.0500   30.2826    9.0674 F   0  0  0  0  0  0  0  0  0  0  0  0
   -4.8313   29.0894    7.3955 C   0  0  0  0  0  0  0  0  0  0  0  0
   -4.7263   28.4977    6.1388 C   0  0  0  0  0  0  0  0  0  0  0  0
   -3.3956   27.9989    6.0626 C   0  0  0  0  0  0  0  0  0  0  0  0
   -2.7958   28.2975    7.2640 C   0  0  0  0  0  0  0  0  0  0  0  0
   -3.6594   28.9562    8.0789 O   0  0  0  0  0  0  0  0  0  0  0  0
   -6.8639   23.3951    5.6111 C   0  0  0  0  0  0  0  0  0  0  0  0
   -5.9356   22.6228    6.1416 N   0  0  0  0  0  0  0  0  0  0  0  0
   -6.5541   21.9495    7.1640 C   0  0  0  0  0  0  0  0  0  0  0  0
   -7.8758   22.3126    7.2584 C   0  0  0  0  0  0  0  0  0  0  0  0
   -8.0608   23.2306    6.2659 N   0  0  0  0  0  0  0  0  0  0  0  0
   -8.9052   23.7393    6.0366 H   0  0  0  0  0  0  0  0  0  0  0  0
  1  2  1  0  0  0
  2  3  1  0  0  0
  3  4  1  0  0  0
  4  5  1  0  0  0
  5  6  1  0  0  0
  6  7  2  0  0  0
  6 10  1  0  0  0
 10 11  1  0  0  0
 11 12  2  0  0  0
 12 13  1  0  0  0
 13 14  1  0  0  0
 13 15  2  0  0  0
 15 16  1  0  0  0
 16 17  1  0  0  0
 17 18  2  0  0  0
 18 19  1  0  0  0
  5  8  1  0  0  0
  8  9  1  0  0  0
  9 20  1  0  0  0
 20 21  2  0  0  0
 21 22  1  0  0  0
 22 23  2  0  0  0
 23 24  1  0  0  0
  9  2  1  0  0  0
 24 20  1  0  0  0
 16 10  2  0  0  0
 19 15  1  0  0  0
 24 25  1  0  0  0
M  END
> <minimizedAffinity>
-8.45756

$$$$
OCNT-2311111


 23 26  0  0  0  0  0  0  0  0999 V2000
   -2.5425   27.8323    6.3535 C   0  0  0  0  0  0  0  0  0  0  0  0
   -2.0334   26.6878    5.7102 C   0  0  0  0  0  0  0  0  0  0  0  0
   -2.8092   25.9171    4.8339 C   0  0  0  0  0  0  0  0  0  0  0  0
   -4.1399   26.2550    4.5664 C   0  0  0  0  0  0  0  0  0  0  0  0
   -4.6748   27.3749    5.2101 C   0  0  0  0  0  0  0  0  0  0  0  0
   -3.8920   28.1384    6.0844 C   0  0  0  0  0  0  0  0  0  0  0  0
   -4.9607   25.4444    3.6549 C   0  0  0  0  0  0  0  0  0  0  0  0
   -5.0806   25.8500    2.3112 C   0  0  0  0  0  0  0  0  0  0  0  0
   -5.8590   25.0979    1.4466 C   0  0  0  0  0  0  0  0  0  0  0  0
   -6.5264   23.9533    1.8737 C   0  0  0  0  0  0  0  0  0  0  0  0
   -6.4021   23.5085    3.1740 C   0  0  0  0  0  0  0  0  0  0  0  0
   -5.6280   24.2622    4.0672 C   0  0  0  0  0  0  0  0  0  0  0  0
   -5.5011   23.6700    5.6917 Cl  0  0  0  0  0  0  0  0  0  0  0  0
   -7.2019   23.2847    0.8254 N   0  0  0  0  0  0  0  0  0  0  0  0
   -7.2715   24.3138   -0.2279 C   0  0  0  0  0  0  0  0  0  0  0  0
   -6.1001   25.2900   -0.0113 C   0  0  0  0  0  0  0  0  0  0  0  0
   -8.1014   22.9203    1.1291 H   0  0  0  0  0  0  0  0  0  0  0  0
   -2.3705   28.8588    8.6436 O   0  0  0  0  0  0  0  0  0  0  0  0
   -1.6775   28.7302    7.3763 C   0  0  0  0  0  0  0  0  0  0  0  0
   -0.1499   28.3957    7.5481 C   0  0  0  0  0  0  0  0  0  0  0  0
    0.1544   29.4310    6.4549 C   0  0  0  0  0  0  0  0  0  0  0  0
   -1.1735   30.1134    6.8165 C   0  0  0  0  0  0  0  0  0  0  0  0
   -2.5836   27.9440    8.8948 H   0  0  0  0  0  0  0  0  0  0  0  0
 18 19  1  0  0  0
 19  1  1  0  0  0
  1  2  1  0  0  0
  2  3  2  0  0  0
  3  4  1  0  0  0
  4  7  1  0  0  0
  7  8  2  0  0  0
  8  9  1  0  0  0
  9 10  2  0  0  0
 10 11  1  0  0  0
 11 12  2  0  0  0
 12 13  1  0  0  0
 10 14  1  0  0  0
 14 15  1  0  0  0
 15 16  1  0  0  0
  4  5  2  0  0  0
  5  6  1  0  0  0
 19 20  1  0  0  0
 20 21  1  0  0  0
 21 22  1  0  0  0
 22 19  1  0  0  0
  6  1  2  0  0  0
 12  7  1  0  0  0
 16  9  1  0  0  0
 18 23  1  0  0  0
 14 17  1  0  0  0
M  END
> <minimizedAffinity>
-8.94579

$$$$
OCNT-2311113


 26 28  0  0  0  0  0  0  0  0999 V2000
   -6.3805   28.8550    6.8941 C   0  0  0  0  0  0  0  0  0  0  0  0
   -7.3556   29.8184    6.2302 C   0  0  0  0  0  0  0  0  0  0  0  0
   -5.7565   27.9327    5.8906 C   0  0  0  0  0  0  0  0  0  0  0  0
   -4.4558   27.9727    5.5714 N   0  0  0  0  0  0  0  0  0  0  0  0
   -4.3446   27.0039    4.5709 O   0  0  0  0  0  0  0  0  0  0  0  0
   -5.5918   26.4679    4.3980 C   0  0  0  0  0  0  0  0  0  0  0  0
   -6.4942   26.9998    5.1927 N   0  0  0  0  0  0  0  0  0  0  0  0
   -5.7357   25.4133    3.4008 C   0  0  0  0  0  0  0  0  0  0  0  0
   -5.4922   25.7035    2.0467 C   0  0  0  0  0  0  0  0  0  0  0  0
   -5.6228   24.7146    1.0693 C   0  0  0  0  0  0  0  0  0  0  0  0
   -5.9896   23.4226    1.4337 C   0  0  0  0  0  0  0  0  0  0  0  0
   -6.1445   22.2033    0.2283 Cl  0  0  0  0  0  0  0  0  0  0  0  0
   -6.2322   23.1123    2.7727 C   0  0  0  0  0  0  0  0  0  0  0  0
   -6.1067   24.1040    3.7503 C   0  0  0  0  0  0  0  0  0  0  0  0
   -5.0912   29.5207    8.9203 C   0  0  0  0  0  0  0  0  0  0  0  0
   -5.7513   28.8281    9.6897 O   0  0  0  0  0  0  0  0  0  0  0  0
   -5.3091   29.5710    7.5650 N   0  0  0  0  0  0  0  0  0  0  0  0
   -4.8007   30.2943    7.0551 H   0  0  0  0  0  0  0  0  0  0  0  0
   -0.1414   30.0432    8.3618 C   0  0  0  0  0  0  0  0  0  0  0  0
   -1.3732   30.5972    9.0727 C   0  0  0  0  0  0  0  0  0  0  0  0
   -1.6237   32.0571    8.6840 C   0  0  0  0  0  0  0  0  0  0  0  0
   -2.9043   32.5856    9.3260 C   0  0  0  0  0  0  0  0  0  0  0  0
   -4.0665   31.7727    8.9625 N   0  0  0  0  0  0  0  0  0  0  0  0
   -3.8784   30.3568    9.3803 C   0  0  0  0  0  0  0  0  0  0  0  0
   -2.6131   29.7567    8.7547 C   0  0  0  0  0  0  0  0  0  0  0  0
   -4.8856   32.1403    9.4503 H   0  0  0  0  0  0  0  0  0  0  0  0
 19 20  1  0  0  0
 20 21  1  0  0  0
 21 22  1  0  0  0
 22 23  1  0  0  0
 23 24  1  0  0  0
 24 15  1  0  0  0
 15 16  2  0  0  0
 15 17  1  0  0  0
 17  1  1  0  0  0
  1  2  1  0  0  0
  1  3  1  0  0  0
  3  4  2  0  0  0
  4  5  1  0  0  0
  5  6  1  0  0  0
  6  8  1  0  0  0
  8  9  1  0  0  0
  9 10  2  0  0  0
 10 11  1  0  0  0
 11 12  1  0  0  0
 11 13  2  0  0  0
 13 14  1  0  0  0
  6  7  2  0  0  0
 24 25  1  0  0  0
 25 20  1  0  0  0
  7  3  1  0  0  0
 14  8  2  0  0  0
 23 26  1  0  0  0
 17 18  1  0  0  0
M  END
> <minimizedAffinity>
-9.29999

$$$$
OCNT-2311121


 27 29  0  0  0  0  0  0  0  0999 V2000
   -4.5821   28.7527    7.3909 N   0  0  0  0  0  0  0  0  0  0  0  0
   -5.8408   28.6687    6.8546 C   0  0  0  0  0  0  0  0  0  0  0  0
   -6.8673   28.9583    7.4572 O   0  0  0  0  0  0  0  0  0  0  0  0
   -3.8218   28.3676    6.8284 H   0  0  0  0  0  0  0  0  0  0  0  0
   -5.8601   28.1666    5.4416 C   0  0  0  0  0  0  0  0  0  0  0  0
   -5.9027   29.0565    4.3814 C   0  0  0  0  0  0  0  0  0  0  0  0
   -5.9489   28.5288    3.0981 C   0  0  0  0  0  0  0  0  0  0  0  0
   -5.9319   27.1441    2.9246 C   0  0  0  0  0  0  0  0  0  0  0  0
   -5.8753   26.3070    4.0399 C   0  0  0  0  0  0  0  0  0  0  0  0
   -5.8461   26.8129    5.2974 N   0  0  0  0  0  0  0  0  0  0  0  0
   -5.8312   24.8322    3.9522 C   0  0  0  0  0  0  0  0  0  0  0  0
   -5.8187   24.1455    2.7285 C   0  0  0  0  0  0  0  0  0  0  0  0
   -5.7788   22.7579    2.7254 C   0  0  0  0  0  0  0  0  0  0  0  0
   -5.7566   22.0035    3.8432 N   0  0  0  0  0  0  0  0  0  0  0  0
   -5.7786   22.6678    5.0167 C   0  0  0  0  0  0  0  0  0  0  0  0
   -5.8135   24.0497    5.1180 C   0  0  0  0  0  0  0  0  0  0  0  0
   -4.3410   29.0654    8.7712 C   0  0  0  0  0  0  0  0  0  0  0  0
   -1.8496   29.7258    8.6617 C   0  0  0  0  0  0  0  0  0  0  0  0
   -0.8687   30.7159    8.8758 C   0  0  0  0  0  0  0  0  0  0  0  0
   -1.2096   31.9969    9.3076 C   0  0  0  0  0  0  0  0  0  0  0  0
   -2.5384   32.3125    9.5470 C   0  0  0  0  0  0  0  0  0  0  0  0
   -3.5237   31.3496    9.3453 C   0  0  0  0  0  0  0  0  0  0  0  0
   -3.2019   30.0515    8.8980 C   0  0  0  0  0  0  0  0  0  0  0  0
   -1.3750   28.3628    8.1940 C   0  0  0  0  0  0  0  0  0  0  0  0
   -1.7147   26.7664    6.3979 C   0  0  0  0  0  0  0  0  0  0  0  0
   -1.4891   28.1601    6.7456 N   0  0  0  0  0  0  0  0  0  0  0  0
   -2.2819   28.7056    6.4072 H   0  0  0  0  0  0  0  0  0  0  0  0
 25 26  1  0  0  0
 26 24  1  0  0  0
 24 18  1  0  0  0
 18 19  2  0  0  0
 19 20  1  0  0  0
 20 21  2  0  0  0
 21 22  1  0  0  0
 22 23  2  0  0  0
 23 17  1  0  0  0
 17  1  1  0  0  0
  1  2  1  0  0  0
  2  3  2  0  0  0
  2  5  1  0  0  0
  5  6  1  0  0  0
  6  7  2  0  0  0
  7  8  1  0  0  0
  8  9  2  0  0  0
  9 11  1  0  0  0
 11 12  2  0  0  0
 12 13  1  0  0  0
 13 14  2  0  0  0
 14 15  1  0  0  0
 15 16  2  0  0  0
  9 10  1  0  0  0
 23 18  1  0  0  0
 10  5  2  0  0  0
 16 11  1  0  0  0
 26 27  1  0  0  0
  1  4  1  0  0  0
M  END
> <minimizedAffinity>
-9.16066

$$$$
OCNT-2311123


 24 27  0  0  0  0  0  0  0  0999 V2000
   -1.7416   27.2605    6.1800 N   0  0  0  0  0  0  0  0  0  0  0  0
   -2.6781   28.2279    6.4159 C   0  0  0  0  0  0  0  0  0  0  0  0
   -2.0502   29.0998    7.2778 C   0  0  0  0  0  0  0  0  0  0  0  0
   -0.7758   28.6456    7.5164 N   0  0  0  0  0  0  0  0  0  0  0  0
   -0.5964   27.5212    6.8372 N   0  0  0  0  0  0  0  0  0  0  0  0
   -2.5948   30.3161    7.8618 C   0  0  0  0  0  0  0  0  0  0  0  0
   -2.2216   30.7500    9.1442 C   0  0  0  0  0  0  0  0  0  0  0  0
   -2.7488   31.9247    9.7066 C   0  0  0  0  0  0  0  0  0  0  0  0
   -3.6696   32.6769    8.9611 C   0  0  0  0  0  0  0  0  0  0  0  0
   -4.4062   33.8675    9.1469 C   0  0  0  0  0  0  0  0  0  0  0  0
   -5.1725   34.1704    8.0955 N   0  0  0  0  0  0  0  0  0  0  0  0
   -4.9244   33.1694    7.2310 N   0  0  0  0  0  0  0  0  0  0  0  0
   -4.0303   32.2400    7.6936 C   0  0  0  0  0  0  0  0  0  0  0  0
   -3.5168   31.0730    7.1149 C   0  0  0  0  0  0  0  0  0  0  0  0
   -5.3996   33.1770    6.3357 H   0  0  0  0  0  0  0  0  0  0  0  0
   -0.6468   26.0131    4.3652 C   0  0  0  0  0  0  0  0  0  0  0  0
   -1.8402   26.0795    5.3228 C   0  0  0  0  0  0  0  0  0  0  0  0
   -3.2175   26.0028    4.6749 C   0  0  0  0  0  0  0  0  0  0  0  0
   -3.3623   26.4108    3.3334 C   0  0  0  0  0  0  0  0  0  0  0  0
   -4.6006   26.3480    2.6878 C   0  0  0  0  0  0  0  0  0  0  0  0
   -5.7161   25.8741    3.3714 C   0  0  0  0  0  0  0  0  0  0  0  0
   -5.5823   25.4662    4.6916 C   0  0  0  0  0  0  0  0  0  0  0  0
   -6.6532   25.0046    5.3506 F   0  0  0  0  0  0  0  0  0  0  0  0
   -4.3532   25.5237    5.3457 C   0  0  0  0  0  0  0  0  0  0  0  0
 16 17  1  0  0  0
 17 18  1  0  0  0
 18 19  2  0  0  0
 19 20  1  0  0  0
 20 21  2  0  0  0
 21 22  1  0  0  0
 22 23  1  0  0  0
 22 24  2  0  0  0
 17  1  1  0  0  0
  1  2  1  0  0  0
  2  3  2  0  0  0
  3  6  1  0  0  0
  6  7  2  0  0  0
  7  8  1  0  0  0
  8  9  2  0  0  0
  9 10  1  0  0  0
 10 11  2  0  0  0
 11 12  1  0  0  0
 12 13  1  0  0  0
 13 14  2  0  0  0
  3  4  1  0  0  0
  4  5  2  0  0  0
 24 18  1  0  0  0
  5  1  1  0  0  0
 14  6  1  0  0  0
 13  9  1  0  0  0
 12 15  1  0  0  0
M  END
> <minimizedAffinity>
-9.32261

$$$$
OCNT-2311132


 24 27  0  0  0  0  0  0  0  0999 V2000
   -4.9839   26.8999    3.3496 C   0  0  0  0  0  0  0  0  0  0  0  0
   -3.5846   26.7146    3.9641 C   0  0  0  0  0  0  0  0  0  0  0  0
   -3.6379   26.5841    5.4846 C   0  0  0  0  0  0  0  0  0  0  0  0
   -4.3490   27.7193    6.0562 N   0  0  0  0  0  0  0  0  0  0  0  0
   -3.6014   28.7838    6.5566 C   0  0  0  0  0  0  0  0  0  0  0  0
   -2.3773   28.8534    6.4557 O   0  0  0  0  0  0  0  0  0  0  0  0
   -5.7409   27.8272    5.6222 C   0  0  0  0  0  0  0  0  0  0  0  0
   -5.7970   27.9757    4.0983 C   0  0  0  0  0  0  0  0  0  0  0  0
   -4.2790   29.9067    7.2204 C   0  0  0  0  0  0  0  0  0  0  0  0
   -4.1010   31.2111    6.7406 C   0  0  0  0  0  0  0  0  0  0  0  0
   -4.7109   32.2823    7.3829 C   0  0  0  0  0  0  0  0  0  0  0  0
   -4.5387   33.5178    6.8944 F   0  0  0  0  0  0  0  0  0  0  0  0
   -5.4990   32.1122    8.5251 C   0  0  0  0  0  0  0  0  0  0  0  0
   -5.6620   30.8131    9.0377 C   0  0  0  0  0  0  0  0  0  0  0  0
   -5.0455   29.7502    8.3783 C   0  0  0  0  0  0  0  0  0  0  0  0
   -5.3106   28.5841    9.0358 O   0  0  0  0  0  0  0  0  0  0  0  0
   -6.0949   28.8903   10.1002 C   0  0  0  0  0  0  0  0  0  0  0  0
   -6.3421   30.2422   10.1463 C   0  0  0  0  0  0  0  0  0  0  0  0
   -5.4696   25.1443    0.7876 C   0  0  0  0  0  0  0  0  0  0  0  0
   -5.9051   24.8669    2.1276 N   0  0  0  0  0  0  0  0  0  0  0  0
   -6.6117   23.7605    2.3991 N   0  0  0  0  0  0  0  0  0  0  0  0
   -6.8465   23.8097    3.7014 N   0  0  0  0  0  0  0  0  0  0  0  0
   -6.3007   24.9396    4.2562 N   0  0  0  0  0  0  0  0  0  0  0  0
   -5.7198   25.5973    3.2723 C   0  0  0  0  0  0  0  0  0  0  0  0
 19 20  1  0  0  0
 20 21  1  0  0  0
 21 22  2  0  0  0
 22 23  1  0  0  0
 23 24  2  0  0  0
 24  1  1  0  0  0
  1  2  1  0  0  0
  2  3  1  0  0  0
  3  4  1  0  0  0
  4  5  1  0  0  0
  5  6  2  0  0  0
  5  9  1  0  0  0
  9 10  1  0  0  0
 10 11  2  0  0  0
 11 12  1  0  0  0
 11 13  1  0  0  0
 13 14  2  0  0  0
 14 15  1  0  0  0
 15 16  1  0  0  0
 16 17  1  0  0  0
 17 18  2  0  0  0
  4  7  1  0  0  0
  7  8  1  0  0  0
 24 20  1  0  0  0
  8  1  1  0  0  0
 15  9  2  0  0  0
 18 14  1  0  0  0
M  END
> <minimizedAffinity>
-8.48924

$$$$
OCNT-2311133


 22 24  0  0  0  0  0  0  0  0999 V2000
   -3.0492   26.3051    4.4657 C   0  0  0  0  0  0  0  0  0  0  0  0
   -1.7545   25.9902    4.0308 C   0  0  0  0  0  0  0  0  0  0  0  0
   -0.6292   26.1834    4.7627 N   0  0  0  0  0  0  0  0  0  0  0  0
   -0.8418   26.6941    5.9910 C   0  0  0  0  0  0  0  0  0  0  0  0
   -2.1115   26.9493    6.4743 C   0  0  0  0  0  0  0  0  0  0  0  0
   -3.2243   26.7670    5.7250 N   0  0  0  0  0  0  0  0  0  0  0  0
   -6.2146   23.0739    1.7665 C   0  0  0  0  0  0  0  0  0  0  0  0
   -6.2196   24.4470    2.2575 N   0  0  0  0  0  0  0  0  0  0  0  0
   -6.0167   24.4726    3.7220 C   0  0  0  0  0  0  0  0  0  0  0  0
   -5.4447   25.8040    4.2682 C   0  0  0  0  0  0  0  0  0  0  0  0
   -4.1560   26.1472    3.6293 N   0  0  0  0  0  0  0  0  0  0  0  0
   -3.8904   25.4670    2.3504 C   0  0  0  0  0  0  0  0  0  0  0  0
   -5.2100   25.2788    1.5698 C   0  0  0  0  0  0  0  0  0  0  0  0
   -2.2172   27.5175    7.7217 O   0  0  0  0  0  0  0  0  0  0  0  0
   -1.1145   28.3599    8.0508 C   0  0  0  0  0  0  0  0  0  0  0  0
   -1.6804   29.6627    8.5646 C   0  0  0  0  0  0  0  0  0  0  0  0
   -0.8175   30.6892    8.9805 C   0  0  0  0  0  0  0  0  0  0  0  0
   -1.3307   31.8898    9.4747 C   0  0  0  0  0  0  0  0  0  0  0  0
   -2.7093   32.0752    9.5634 C   0  0  0  0  0  0  0  0  0  0  0  0
   -3.5734   31.0548    9.1616 C   0  0  0  0  0  0  0  0  0  0  0  0
   -5.2768   31.2850    9.2669 Cl  0  0  0  0  0  0  0  0  0  0  0  0
   -3.0687   29.8499    8.6701 C   0  0  0  0  0  0  0  0  0  0  0  0
  7  8  1  0  0  0
  8  9  1  0  0  0
  9 10  1  0  0  0
 10 11  1  0  0  0
 11  1  1  0  0  0
  1  2  2  0  0  0
  2  3  1  0  0  0
  3  4  2  0  0  0
  4  5  1  0  0  0
  5 14  1  0  0  0
 14 15  1  0  0  0
 15 16  1  0  0  0
 16 17  2  0  0  0
 17 18  1  0  0  0
 18 19  2  0  0  0
 19 20  1  0  0  0
 20 21  1  0  0  0
 20 22  2  0  0  0
  5  6  2  0  0  0
 11 12  1  0  0  0
 12 13  1  0  0  0
 13  8  1  0  0  0
  6  1  1  0  0  0
 22 16  1  0  0  0
M  END
> <minimizedAffinity>
-8.44156

$$$$
OCNT-2311138


 27 30  0  0  0  0  0  0  0  0999 V2000
   -2.9351   27.6179    7.1443 C   0  0  0  0  0  0  0  0  0  0  0  0
   -2.0881   27.2652    7.9612 O   0  0  0  0  0  0  0  0  0  0  0  0
   -3.9105   28.5328    7.4554 N   0  0  0  0  0  0  0  0  0  0  0  0
   -4.7327   28.5627    6.8689 H   0  0  0  0  0  0  0  0  0  0  0  0
   -4.0190   29.1186    8.7866 C   0  0  0  0  0  0  0  0  0  0  0  0
   -3.1223   30.3404    8.8460 C   0  0  0  0  0  0  0  0  0  0  0  0
   -1.7275   30.1626    8.8775 C   0  0  0  0  0  0  0  0  0  0  0  0
   -0.8687   31.2603    8.8973 C   0  0  0  0  0  0  0  0  0  0  0  0
   -1.3915   32.5494    8.8840 C   0  0  0  0  0  0  0  0  0  0  0  0
   -2.7724   32.7414    8.8495 C   0  0  0  0  0  0  0  0  0  0  0  0
   -3.6491   31.6456    8.8199 C   0  0  0  0  0  0  0  0  0  0  0  0
   -5.1355   31.9068    8.8310 C   0  0  0  0  0  0  0  0  0  0  0  0
   -5.9740   30.6943    8.4457 C   0  0  0  0  0  0  0  0  0  0  0  0
   -5.4879   29.4472    9.1780 C   0  0  0  0  0  0  0  0  0  0  0  0
   -6.4002   28.3840    8.8942 O   0  0  0  0  0  0  0  0  0  0  0  0
   -5.9232   27.5361    9.0140 H   0  0  0  0  0  0  0  0  0  0  0  0
   -4.4210   26.1436    2.6148 C   0  0  0  0  0  0  0  0  0  0  0  0
   -5.6577   26.6887    2.6099 C   0  0  0  0  0  0  0  0  0  0  0  0
   -6.1059   27.4845    3.7367 C   0  0  0  0  0  0  0  0  0  0  0  0
   -5.3336   27.6795    4.8185 C   0  0  0  0  0  0  0  0  0  0  0  0
   -4.0384   27.0851    4.8811 C   0  0  0  0  0  0  0  0  0  0  0  0
   -3.0134   27.0522    5.8128 C   0  0  0  0  0  0  0  0  0  0  0  0
   -1.9840   26.3496    5.1577 C   0  0  0  0  0  0  0  0  0  0  0  0
   -2.3242   25.9152    3.9477 N   0  0  0  0  0  0  0  0  0  0  0  0
   -3.6017   26.3560    3.7579 N   0  0  0  0  0  0  0  0  0  0  0  0
   -4.5590   24.2090    1.1881 C   0  0  0  0  0  0  0  0  0  0  0  0
   -3.8757   25.3860    1.5934 O   0  0  0  0  0  0  0  0  0  0  0  0
 26 27  1  0  0  0
 27 17  1  0  0  0
 17 18  2  0  0  0
 18 19  1  0  0  0
 19 20  2  0  0  0
 20 21  1  0  0  0
 21 22  2  0  0  0
 22  1  1  0  0  0
  1  2  2  0  0  0
  1  3  1  0  0  0
  3  5  1  0  0  0
  5  6  1  0  0  0
  6  7  2  0  0  0
  7  8  1  0  0  0
  8  9  2  0  0  0
  9 10  1  0  0  0
 10 11  2  0  0  0
 11 12  1  0  0  0
 12 13  1  0  0  0
 13 14  1  0  0  0
 14 15  1  0  0  0
 22 23  1  0  0  0
 23 24  2  0  0  0
 24 25  1  0  0  0
 25 17  1  0  0  0
 25 21  1  0  0  0
 14  5  1  0  0  0
 11  6  1  0  0  0
  3  4  1  0  0  0
 15 16  1  0  0  0
M  END
> <minimizedAffinity>
-9.97994

$$$$
OCNT-2311148


 26 29  0  0  0  0  0  0  0  0999 V2000
   -3.6818   30.5632    7.2680 C   0  0  0  0  0  0  0  0  0  0  0  0
   -3.5924   29.0438    7.4644 C   0  0  0  0  0  0  0  0  0  0  0  0
   -3.8775   28.2854    6.1694 C   0  0  0  0  0  0  0  0  0  0  0  0
   -5.1780   28.6067    5.5751 N   0  0  0  0  0  0  0  0  0  0  0  0
   -5.7271   29.9094    5.9421 C   0  0  0  0  0  0  0  0  0  0  0  0
   -4.6139   30.9376    6.1055 C   0  0  0  0  0  0  0  0  0  0  0  0
   -2.3967   31.1156    6.9545 O   0  0  0  0  0  0  0  0  0  0  0  0
   -1.6736   31.5832    9.5979 C   0  0  0  0  0  0  0  0  0  0  0  0
   -0.8735   30.7043    8.6848 C   0  0  0  0  0  0  0  0  0  0  0  0
    0.2725   30.0658    9.1467 C   0  0  0  0  0  0  0  0  0  0  0  0
    1.0389   29.2434    8.3987 N   0  0  0  0  0  0  0  0  0  0  0  0
    0.6416   29.0458    7.1266 C   0  0  0  0  0  0  0  0  0  0  0  0
   -0.4852   29.6263    6.5661 C   0  0  0  0  0  0  0  0  0  0  0  0
   -1.2620   30.4659    7.3594 C   0  0  0  0  0  0  0  0  0  0  0  0
   -6.1480   27.5053    5.5864 C   0  0  0  0  0  0  0  0  0  0  0  0
   -6.0201   26.5801    4.4228 C   0  0  0  0  0  0  0  0  0  0  0  0
   -6.1176   25.2053    4.3809 C   0  0  0  0  0  0  0  0  0  0  0  0
   -5.9225   24.8720    3.0605 N   0  0  0  0  0  0  0  0  0  0  0  0
   -5.7187   26.0031    2.3402 N   0  0  0  0  0  0  0  0  0  0  0  0
   -5.7961   27.0445    3.1560 N   0  0  0  0  0  0  0  0  0  0  0  0
   -5.9160   23.5878    2.4582 C   0  0  0  0  0  0  0  0  0  0  0  0
   -6.2581   23.4578    1.1029 C   0  0  0  0  0  0  0  0  0  0  0  0
   -6.2569   22.2001    0.4952 C   0  0  0  0  0  0  0  0  0  0  0  0
   -5.9176   21.0678    1.2325 C   0  0  0  0  0  0  0  0  0  0  0  0
   -5.5779   21.1896    2.5790 C   0  0  0  0  0  0  0  0  0  0  0  0
   -5.5739   22.4449    3.1949 C   0  0  0  0  0  0  0  0  0  0  0  0
  8  9  1  0  0  0
  9 10  2  0  0  0
 10 11  1  0  0  0
 11 12  2  0  0  0
 12 13  1  0  0  0
 13 14  2  0  0  0
 14  7  1  0  0  0
  7  1  1  0  0  0
  1  2  1  0  0  0
  2  3  1  0  0  0
  3  4  1  0  0  0
  4 15  1  0  0  0
 15 16  1  0  0  0
 16 17  2  0  0  0
 17 18  1  0  0  0
 18 21  1  0  0  0
 21 22  2  0  0  0
 22 23  1  0  0  0
 23 24  2  0  0  0
 24 25  1  0  0  0
 25 26  2  0  0  0
 18 19  1  0  0  0
 19 20  2  0  0  0
  4  5  1  0  0  0
  5  6  1  0  0  0
 14  9  1  0  0  0
  6  1  1  0  0  0
 20 16  1  0  0  0
 26 21  1  0  0  0
M  END
> <minimizedAffinity>
-9.54777

$$$$
OCNT-2311155


 26 28  0  0  0  0  0  0  0  0999 V2000
   -4.6740   28.3779    5.6605 C   0  0  0  0  0  0  0  0  0  0  0  0
   -3.5136   27.7158    6.0050 C   0  0  0  0  0  0  0  0  0  0  0  0
   -3.3994   26.2449    5.1430 S   0  0  0  0  0  0  0  0  0  0  0  0
   -4.8958   26.5802    4.3513 C   0  0  0  0  0  0  0  0  0  0  0  0
   -5.4554   27.7207    4.7154 N   0  0  0  0  0  0  0  0  0  0  0  0
   -5.4913   25.6536    3.3643 C   0  0  0  0  0  0  0  0  0  0  0  0
   -5.4560   26.0027    2.0028 C   0  0  0  0  0  0  0  0  0  0  0  0
   -6.0005   25.1684    1.0201 C   0  0  0  0  0  0  0  0  0  0  0  0
   -6.5921   23.9492    1.3719 C   0  0  0  0  0  0  0  0  0  0  0  0
   -6.6392   23.5935    2.7262 C   0  0  0  0  0  0  0  0  0  0  0  0
   -6.0929   24.4320    3.7072 C   0  0  0  0  0  0  0  0  0  0  0  0
   -7.2001   23.0564    0.3179 C   0  0  0  0  0  0  0  0  0  0  0  0
   -6.2741   22.3228   -0.3605 F   0  0  0  0  0  0  0  0  0  0  0  0
   -8.0859   22.1551    0.8271 F   0  0  0  0  0  0  0  0  0  0  0  0
   -7.8837   23.7609   -0.6252 F   0  0  0  0  0  0  0  0  0  0  0  0
   -5.1389   29.7041    6.1824 C   0  0  0  0  0  0  0  0  0  0  0  0
   -4.3423   30.7446    5.5220 N   0  0  0  0  0  0  0  0  0  0  0  0
   -4.9997   31.3075    4.9771 H   0  0  0  0  0  0  0  0  0  0  0  0
   -3.6775   31.6141    6.4868 C   0  0  0  0  0  0  0  0  0  0  0  0
    0.7078   29.3471    7.8029 C   0  0  0  0  0  0  0  0  0  0  0  0
   -0.6475   29.9450    7.7700 C   0  0  0  0  0  0  0  0  0  0  0  0
   -1.3989   29.9699    8.8752 N   0  0  0  0  0  0  0  0  0  0  0  0
   -2.5431   30.5673    8.4869 N   0  0  0  0  0  0  0  0  0  0  0  0
   -3.5888   30.7757    9.4616 C   0  0  0  0  0  0  0  0  0  0  0  0
   -2.5418   30.9368    7.1651 C   0  0  0  0  0  0  0  0  0  0  0  0
   -1.3152   30.5352    6.6755 C   0  0  0  0  0  0  0  0  0  0  0  0
 20 21  1  0  0  0
 21 22  2  0  0  0
 22 23  1  0  0  0
 23 24  1  0  0  0
 23 25  1  0  0  0
 25 19  1  0  0  0
 19 17  1  0  0  0
 17 16  1  0  0  0
 16  1  1  0  0  0
  1  2  2  0  0  0
  2  3  1  0  0  0
  3  4  1  0  0  0
  4  6  1  0  0  0
  6  7  1  0  0  0
  7  8  2  0  0  0
  8  9  1  0  0  0
  9 12  1  0  0  0
 12 13  1  0  0  0
 12 14  1  0  0  0
 12 15  1  0  0  0
  9 10  2  0  0  0
 10 11  1  0  0  0
  4  5  2  0  0  0
 25 26  2  0  0  0
 26 21  1  0  0  0
  5  1  1  0  0  0
 11  6  2  0  0  0
 17 18  1  0  0  0
M  END
> <minimizedAffinity>
-9.28925

$$$$
OCNT-2311160


 27 30  0  0  0  0  0  0  0  0999 V2000
   -2.5228   27.9682    7.6767 C   0  0  0  0  0  0  0  0  0  0  0  0
   -1.6663   28.1147    8.5429 O   0  0  0  0  0  0  0  0  0  0  0  0
   -3.8011   28.4459    7.8189 N   0  0  0  0  0  0  0  0  0  0  0  0
   -4.4311   28.4267    7.0298 H   0  0  0  0  0  0  0  0  0  0  0  0
   -4.2229   29.1815    9.0088 C   0  0  0  0  0  0  0  0  0  0  0  0
   -4.1344   30.6827    8.7664 C   0  0  0  0  0  0  0  0  0  0  0  0
   -2.9525   31.2314    8.2310 C   0  0  0  0  0  0  0  0  0  0  0  0
   -2.8336   32.6027    8.0060 C   0  0  0  0  0  0  0  0  0  0  0  0
   -3.8886   33.4506    8.3235 C   0  0  0  0  0  0  0  0  0  0  0  0
   -5.0545   32.9295    8.8816 C   0  0  0  0  0  0  0  0  0  0  0  0
   -5.1805   31.5527    9.1275 C   0  0  0  0  0  0  0  0  0  0  0  0
   -6.4596   31.0404    9.7411 C   0  0  0  0  0  0  0  0  0  0  0  0
   -6.2783   29.6856   10.4199 C   0  0  0  0  0  0  0  0  0  0  0  0
   -5.6251   28.6926    9.4689 C   0  0  0  0  0  0  0  0  0  0  0  0
   -6.5034   28.4905    8.3494 O   0  0  0  0  0  0  0  0  0  0  0  0
   -6.0263   27.8926    7.7469 H   0  0  0  0  0  0  0  0  0  0  0  0
    0.0724   25.6686    4.1395 C   0  0  0  0  0  0  0  0  0  0  0  0
   -1.0503   26.2734    4.8225 N   0  0  0  0  0  0  0  0  0  0  0  0
   -0.9984   26.8080    6.0770 C   0  0  0  0  0  0  0  0  0  0  0  0
   -2.2479   27.3069    6.4049 C   0  0  0  0  0  0  0  0  0  0  0  0
   -3.1098   27.0062    5.2921 C   0  0  0  0  0  0  0  0  0  0  0  0
   -4.4862   27.1835    5.0234 C   0  0  0  0  0  0  0  0  0  0  0  0
   -5.0053   26.7657    3.7978 C   0  0  0  0  0  0  0  0  0  0  0  0
   -6.3101   26.9432    3.5496 F   0  0  0  0  0  0  0  0  0  0  0  0
   -4.2088   26.1692    2.8344 C   0  0  0  0  0  0  0  0  0  0  0  0
   -2.8511   25.9592    3.0768 C   0  0  0  0  0  0  0  0  0  0  0  0
   -2.3261   26.3780    4.3124 C   0  0  0  0  0  0  0  0  0  0  0  0
 17 18  1  0  0  0
 18 19  1  0  0  0
 19 20  2  0  0  0
 20  1  1  0  0  0
  1  2  2  0  0  0
  1  3  1  0  0  0
  3  5  1  0  0  0
  5  6  1  0  0  0
  6  7  2  0  0  0
  7  8  1  0  0  0
  8  9  2  0  0  0
  9 10  1  0  0  0
 10 11  2  0  0  0
 11 12  1  0  0  0
 12 13  1  0  0  0
 13 14  1  0  0  0
 14 15  1  0  0  0
 20 21  1  0  0  0
 21 22  2  0  0  0
 22 23  1  0  0  0
 23 24  1  0  0  0
 23 25  2  0  0  0
 25 26  1  0  0  0
 26 27  2  0  0  0
 27 18  1  0  0  0
 14  5  1  0  0  0
 27 21  1  0  0  0
 11  6  1  0  0  0
  3  4  1  0  0  0
 15 16  1  0  0  0
M  END
> <minimizedAffinity>
-10.32074

$$$$
OCNT-2311187


 26 28  0  0  0  0  0  0  0  0999 V2000
   -0.7968   27.0877    6.3217 C   0  0  0  0  0  0  0  0  0  0  0  0
   -2.2839   26.8856    6.6715 C   0  0  0  0  0  0  0  0  0  0  0  0
   -2.4219   25.6558    7.4085 O   0  0  0  0  0  0  0  0  0  0  0  0
   -3.3789   25.5287    7.5382 H   0  0  0  0  0  0  0  0  0  0  0  0
   -3.1532   26.8693    5.4240 C   0  0  0  0  0  0  0  0  0  0  0  0
   -2.7989   26.0137    4.3615 C   0  0  0  0  0  0  0  0  0  0  0  0
   -3.5566   25.9633    3.1975 C   0  0  0  0  0  0  0  0  0  0  0  0
   -4.6770   26.7762    3.0675 C   0  0  0  0  0  0  0  0  0  0  0  0
   -5.0490   27.6591    4.0904 C   0  0  0  0  0  0  0  0  0  0  0  0
   -6.1756   28.4812    3.9227 C   0  0  0  0  0  0  0  0  0  0  0  0
   -6.5629   29.3809    4.9127 C   0  0  0  0  0  0  0  0  0  0  0  0
   -5.8251   29.4715    6.0838 C   0  0  0  0  0  0  0  0  0  0  0  0
   -4.7037   28.6578    6.2676 C   0  0  0  0  0  0  0  0  0  0  0  0
   -4.2860   27.7263    5.2859 C   0  0  0  0  0  0  0  0  0  0  0  0
   -0.1081   27.6810    7.4825 N   0  0  0  0  0  0  0  0  0  0  0  0
    0.3913   27.0244    8.0850 H   0  0  0  0  0  0  0  0  0  0  0  0
    0.5967   29.1897    7.3416 S   0  0  0  0  0  0  0  0  0  0  0  0
    1.5462   29.3348    8.4233 O   0  0  0  0  0  0  0  0  0  0  0  0
    0.9899   29.3387    5.9582 O   0  0  0  0  0  0  0  0  0  0  0  0
   -2.4064   32.0100   10.6062 C   0  0  0  0  0  0  0  0  0  0  0  0
   -2.1195   31.5447    9.2089 C   0  0  0  0  0  0  0  0  0  0  0  0
   -2.8962   32.0016    8.1351 C   0  0  0  0  0  0  0  0  0  0  0  0
   -2.6233   31.5863    6.8292 C   0  0  0  0  0  0  0  0  0  0  0  0
   -1.5597   30.7216    6.5784 C   0  0  0  0  0  0  0  0  0  0  0  0
   -0.7651   30.2881    7.6424 C   0  0  0  0  0  0  0  0  0  0  0  0
   -1.0417   30.6883    8.9545 C   0  0  0  0  0  0  0  0  0  0  0  0
 20 21  1  0  0  0
 21 22  1  0  0  0
 22 23  2  0  0  0
 23 24  1  0  0  0
 24 25  2  0  0  0
 25 17  1  0  0  0
 17 18  2  0  0  0
 17 19  2  0  0  0
 17 15  1  0  0  0
 15  1  1  0  0  0
  1  2  1  0  0  0
  2  3  1  0  0  0
  2  5  1  0  0  0
  5  6  2  0  0  0
  6  7  1  0  0  0
  7  8  2  0  0  0
  8  9  1  0  0  0
  9 10  2  0  0  0
 10 11  1  0  0  0
 11 12  2  0  0  0
 12 13  1  0  0  0
 13 14  2  0  0  0
 25 26  1  0  0  0
 26 21  2  0  0  0
 14  5  1  0  0  0
 14  9  1  0  0  0
 15 16  1  0  0  0
  3  4  1  0  0  0
M  END
> <minimizedAffinity>
-9.55376

$$$$
OCNT-2311194


 24 26  0  0  0  0  0  0  0  0999 V2000
   -6.0851   23.7145    3.4037 C   0  0  0  0  0  0  0  0  0  0  0  0
   -6.5154   23.5856    1.9673 C   0  0  0  0  0  0  0  0  0  0  0  0
   -7.0804   22.4828    1.3449 C   0  0  0  0  0  0  0  0  0  0  0  0
   -7.4452   22.5928    0.0018 C   0  0  0  0  0  0  0  0  0  0  0  0
   -7.2526   23.7963   -0.6940 C   0  0  0  0  0  0  0  0  0  0  0  0
   -6.6920   24.9054   -0.0569 C   0  0  0  0  0  0  0  0  0  0  0  0
   -6.3222   24.7821    1.2718 C   0  0  0  0  0  0  0  0  0  0  0  0
   -5.7334   25.8297    2.1647 C   0  0  0  0  0  0  0  0  0  0  0  0
   -5.1506   24.9788    3.3403 C   0  0  0  0  0  0  0  0  0  0  0  0
   -5.1201   25.8070    4.6397 C   0  0  0  0  0  0  0  0  0  0  0  0
   -4.1724   27.0094    4.5414 C   0  0  0  0  0  0  0  0  0  0  0  0
   -2.9382   26.7580    3.7949 N   0  0  0  0  0  0  0  0  0  0  0  0
   -2.6151   25.3377    3.7434 C   0  0  0  0  0  0  0  0  0  0  0  0
   -3.6874   24.5356    2.9981 C   0  0  0  0  0  0  0  0  0  0  0  0
   -3.0344   27.1135    2.8442 H   0  0  0  0  0  0  0  0  0  0  0  0
   -7.4205   23.2302    5.4161 C   0  0  0  0  0  0  0  0  0  0  0  0
   -6.6286   22.4347    5.8940 O   0  0  0  0  0  0  0  0  0  0  0  0
   -7.2550   23.8789    4.2344 N   0  0  0  0  0  0  0  0  0  0  0  0
   -7.9837   24.5236    3.9634 H   0  0  0  0  0  0  0  0  0  0  0  0
   -8.5910   23.6242    5.9652 O   0  0  0  0  0  0  0  0  0  0  0  0
   -9.8200   21.6281    5.2048 C   0  0  0  0  0  0  0  0  0  0  0  0
   -9.6037   22.6502    6.3263 C   0  0  0  0  0  0  0  0  0  0  0  0
   -9.2743   21.9750    7.6624 C   0  0  0  0  0  0  0  0  0  0  0  0
  -10.8910   23.4715    6.4963 C   0  0  0  0  0  0  0  0  0  0  0  0
 21 22  1  0  0  0
 22 23  1  0  0  0
 22 24  1  0  0  0
 22 20  1  0  0  0
 20 16  1  0  0  0
 16 17  2  0  0  0
 16 18  1  0  0  0
 18  1  1  0  0  0
  1  2  1  0  0  0
  2  3  2  0  0  0
  3  4  1  0  0  0
  4  5  2  0  0  0
  5  6  1  0  0  0
  6  7  2  0  0  0
  7  8  1  0  0  0
  8  9  1  0  0  0
  9 10  1  0  0  0
 10 11  1  0  0  0
 11 12  1  0  0  0
 12 13  1  0  0  0
 13 14  1  0  0  0
  9  1  1  0  0  0
  7  2  1  0  0  0
 14  9  1  0  0  0
 18 19  1  0  0  0
 12 15  1  0  0  0
M  END
> <minimizedAffinity>
-8.52483

$$$$
OCNT-2311202


 32 34  0  0  0  0  0  0  0  0999 V2000
   -3.7810   25.5034    4.4957 C   0  0  0  0  0  0  0  0  0  0  0  0
   -2.6125   25.0758    3.8559 C   0  0  0  0  0  0  0  0  0  0  0  0
   -1.3960   25.6845    4.1631 C   0  0  0  0  0  0  0  0  0  0  0  0
   -1.3502   26.7235    5.0964 C   0  0  0  0  0  0  0  0  0  0  0  0
   -2.5291   27.1655    5.7159 C   0  0  0  0  0  0  0  0  0  0  0  0
   -3.7504   26.5510    5.4191 C   0  0  0  0  0  0  0  0  0  0  0  0
   -2.5136   28.2565    6.7278 C   0  0  0  0  0  0  0  0  0  0  0  0
   -2.2334   27.9631    7.8845 O   0  0  0  0  0  0  0  0  0  0  0  0
   -2.8505   29.5039    6.2385 N   0  0  0  0  0  0  0  0  0  0  0  0
   -3.1646   29.5882    5.2809 H   0  0  0  0  0  0  0  0  0  0  0  0
   -2.8747   30.6719    6.9766 C   0  0  0  0  0  0  0  0  0  0  0  0
   -1.8289   31.3014    7.6059 C   0  0  0  0  0  0  0  0  0  0  0  0
   -2.3082   32.4349    8.2068 N   0  0  0  0  0  0  0  0  0  0  0  0
   -3.6651   32.5464    7.9984 C   0  0  0  0  0  0  0  0  0  0  0  0
   -4.0263   31.4632    7.2114 C   0  0  0  0  0  0  0  0  0  0  0  0
   -1.7406   33.1098    8.7010 H   0  0  0  0  0  0  0  0  0  0  0  0
   -4.5114   33.6108    8.4774 C   0  0  0  0  0  0  0  0  0  0  0  0
   -5.2742   34.2330    7.5291 N   0  0  0  0  0  0  0  0  0  0  0  0
   -4.5555   33.9937    9.6410 O   0  0  0  0  0  0  0  0  0  0  0  0
   -4.9696   34.2476    6.5676 H   0  0  0  0  0  0  0  0  0  0  0  0
   -5.7330   35.0715    7.8632 H   0  0  0  0  0  0  0  0  0  0  0  0
   -5.3255   24.7201    4.0832 S   0  0  0  0  0  0  0  0  0  0  0  0
   -6.2138   25.7758    3.6416 O   0  0  0  0  0  0  0  0  0  0  0  0
   -5.6891   23.8508    5.1845 O   0  0  0  0  0  0  0  0  0  0  0  0
   -4.7053   22.3036    3.0420 C   0  0  0  0  0  0  0  0  0  0  0  0
   -4.8848   23.7452    2.7406 N   0  0  0  0  0  0  0  0  0  0  0  0
   -5.6705   23.9925    1.5574 C   0  0  0  0  0  0  0  0  0  0  0  0
   -5.4545   25.1027    0.7358 C   0  0  0  0  0  0  0  0  0  0  0  0
   -6.2890   25.3320   -0.3597 C   0  0  0  0  0  0  0  0  0  0  0  0
   -7.3497   24.4653   -0.6236 C   0  0  0  0  0  0  0  0  0  0  0  0
   -7.5816   23.3716    0.2099 C   0  0  0  0  0  0  0  0  0  0  0  0
   -6.7477   23.1407    1.3051 C   0  0  0  0  0  0  0  0  0  0  0  0
 25 26  1  0  0  0
 26 27  1  0  0  0
 27 28  2  0  0  0
 28 29  1  0  0  0
 29 30  2  0  0  0
 30 31  1  0  0  0
 31 32  2  0  0  0
 26 22  1  0  0  0
 22 23  2  0  0  0
 22 24  2  0  0  0
 22  1  1  0  0  0
  1  2  2  0  0  0
  2  3  1  0  0  0
  3  4  2  0  0  0
  4  5  1  0  0  0
  5  7  1  0  0  0
  7  8  2  0  0  0
  7  9  1  0  0  0
  9 11  1  0  0  0
 11 12  2  0  0  0
 12 13  1  0  0  0
 13 14  1  0  0  0
 14 17  1  0  0  0
 17 18  1  0  0  0
 17 19  2  0  0  0
 14 15  2  0  0  0
  5  6  2  0  0  0
 32 27  1  0  0  0
  6  1  1  0  0  0
 15 11  1  0  0  0
  9 10  1  0  0  0
 13 16  1  0  0  0
 18 20  1  0  0  0
 18 21  1  0  0  0
M  END
> <minimizedAffinity>
-9.72891

$$$$
OCNT-2311203


 31 34  0  0  0  0  0  0  0  0999 V2000
   -6.4535   29.1660    5.1461 C   0  0  0  0  0  0  0  0  0  0  0  0
   -6.5719   30.1328    4.4048 O   0  0  0  0  0  0  0  0  0  0  0  0
   -6.6010   29.2284    6.5186 N   0  0  0  0  0  0  0  0  0  0  0  0
   -6.1933   28.4817    7.0654 H   0  0  0  0  0  0  0  0  0  0  0  0
   -5.2316   22.9508    3.7276 N   0  0  0  0  0  0  0  0  0  0  0  0
   -5.6292   23.0291    5.0525 C   0  0  0  0  0  0  0  0  0  0  0  0
   -5.7153   22.0636    5.8098 O   0  0  0  0  0  0  0  0  0  0  0  0
   -5.9349   24.2719    5.5314 N   0  0  0  0  0  0  0  0  0  0  0  0
   -5.8493   25.4391    4.7782 C   0  0  0  0  0  0  0  0  0  0  0  0
   -6.1888   26.6657    5.3526 C   0  0  0  0  0  0  0  0  0  0  0  0
   -6.0954   27.8356    4.5853 C   0  0  0  0  0  0  0  0  0  0  0  0
   -5.6853   27.7647    3.2467 C   0  0  0  0  0  0  0  0  0  0  0  0
   -5.3420   26.5343    2.6823 C   0  0  0  0  0  0  0  0  0  0  0  0
   -5.4233   25.3722    3.4557 C   0  0  0  0  0  0  0  0  0  0  0  0
   -5.0656   24.0549    2.8934 C   0  0  0  0  0  0  0  0  0  0  0  0
   -4.6381   23.9933    1.7432 O   0  0  0  0  0  0  0  0  0  0  0  0
   -6.2366   24.2931    6.4974 H   0  0  0  0  0  0  0  0  0  0  0  0
   -5.9709   21.0813    2.2982 C   0  0  0  0  0  0  0  0  0  0  0  0
   -4.8773   21.6390    3.1980 C   0  0  0  0  0  0  0  0  0  0  0  0
   -6.8070   30.5127    7.1672 C   0  0  0  0  0  0  0  0  0  0  0  0
   -5.7528   30.7852    8.2470 C   0  0  0  0  0  0  0  0  0  0  0  0
   -6.3414   30.7956    9.6477 C   0  0  0  0  0  0  0  0  0  0  0  0
   -6.3486   29.3315   10.0239 C   0  0  0  0  0  0  0  0  0  0  0  0
   -5.2450   28.7238    9.3466 O   0  0  0  0  0  0  0  0  0  0  0  0
   -4.7560   29.6198    8.3283 C   0  0  0  0  0  0  0  0  0  0  0  0
   -3.3442   30.0887    8.6405 C   0  0  0  0  0  0  0  0  0  0  0  0
   -2.2560   29.2741    8.2842 C   0  0  0  0  0  0  0  0  0  0  0  0
   -0.9448   29.6782    8.5434 C   0  0  0  0  0  0  0  0  0  0  0  0
   -0.7018   30.9013    9.1623 C   0  0  0  0  0  0  0  0  0  0  0  0
   -1.7691   31.7176    9.5281 C   0  0  0  0  0  0  0  0  0  0  0  0
   -3.0812   31.3140    9.2703 C   0  0  0  0  0  0  0  0  0  0  0  0
 18 19  1  0  0  0
 19  5  1  0  0  0
  5  6  1  0  0  0
  6  7  2  0  0  0
  6  8  1  0  0  0
  8  9  1  0  0  0
  9 10  1  0  0  0
 10 11  2  0  0  0
 11  1  1  0  0  0
  1  2  2  0  0  0
  1  3  1  0  0  0
  3 20  1  0  0  0
 20 21  1  0  0  0
 21 22  1  0  0  0
 22 23  1  0  0  0
 23 24  1  0  0  0
 24 25  1  0  0  0
 25 26  1  0  0  0
 26 27  2  0  0  0
 27 28  1  0  0  0
 28 29  2  0  0  0
 29 30  1  0  0  0
 30 31  2  0  0  0
 11 12  1  0  0  0
 12 13  2  0  0  0
 13 14  1  0  0  0
 14 15  1  0  0  0
 15 16  2  0  0  0
 15  5  1  0  0  0
 14  9  2  0  0  0
 25 21  1  0  0  0
 31 26  1  0  0  0
  8 17  1  0  0  0
  3  4  1  0  0  0
M  END
> <minimizedAffinity>
-10.83963

$$$$
OCNT-2311206


 25 28  0  0  0  0  0  0  0  0999 V2000
   -6.0078   27.7299    4.5169 C   0  0  0  0  0  0  0  0  0  0  0  0
   -6.2721   26.5843    5.2695 C   0  0  0  0  0  0  0  0  0  0  0  0
   -6.2494   25.3333    4.6477 C   0  0  0  0  0  0  0  0  0  0  0  0
   -5.9610   25.2077    3.2761 C   0  0  0  0  0  0  0  0  0  0  0  0
   -5.6898   26.3795    2.5461 C   0  0  0  0  0  0  0  0  0  0  0  0
   -5.7089   27.6359    3.1579 C   0  0  0  0  0  0  0  0  0  0  0  0
   -5.9326   23.8863    2.6282 C   0  0  0  0  0  0  0  0  0  0  0  0
   -5.4459   22.7510    3.3077 C   0  0  0  0  0  0  0  0  0  0  0  0
   -5.4135   21.4819    2.6986 C   0  0  0  0  0  0  0  0  0  0  0  0
   -5.8688   21.3139    1.3919 C   0  0  0  0  0  0  0  0  0  0  0  0
   -6.3428   22.4273    0.7335 C   0  0  0  0  0  0  0  0  0  0  0  0
   -6.3741   23.6727    1.3261 C   0  0  0  0  0  0  0  0  0  0  0  0
   -6.8925   24.6150    0.4840 O   0  0  0  0  0  0  0  0  0  0  0  0
   -7.1740   23.8254   -0.6869 C   0  0  0  0  0  0  0  0  0  0  0  0
   -6.8258   22.4364   -0.5383 O   0  0  0  0  0  0  0  0  0  0  0  0
   -5.3998   30.2526    4.4274 O   0  0  0  0  0  0  0  0  0  0  0  0
   -6.0487   29.3142    5.3181 S   0  0  0  0  0  0  0  0  0  0  0  0
   -7.3927   29.5470    5.7999 O   0  0  0  0  0  0  0  0  0  0  0  0
   -5.0354   29.0710    6.6675 N   0  0  0  0  0  0  0  0  0  0  0  0
   -5.6913   29.0829    8.0121 C   0  0  0  0  0  0  0  0  0  0  0  0
   -5.8359   30.5055    8.5894 C   0  0  0  0  0  0  0  0  0  0  0  0
   -4.5728   31.2660    8.6056 N   0  0  0  0  0  0  0  0  0  0  0  0
   -4.0141   31.2957    7.2406 C   0  0  0  0  0  0  0  0  0  0  0  0
   -3.7837   29.8881    6.6640 C   0  0  0  0  0  0  0  0  0  0  0  0
   -3.9116   30.7855    9.2158 H   0  0  0  0  0  0  0  0  0  0  0  0
 16 17  2  0  0  0
 17 18  2  0  0  0
 17  1  1  0  0  0
  1  2  1  0  0  0
  2  3  2  0  0  0
  3  4  1  0  0  0
  4  7  1  0  0  0
  7  8  2  0  0  0
  8  9  1  0  0  0
  9 10  2  0  0  0
 10 11  1  0  0  0
 11 12  2  0  0  0
 12 13  1  0  0  0
 13 14  1  0  0  0
 14 15  1  0  0  0
  4  5  2  0  0  0
  5  6  1  0  0  0
 17 19  1  0  0  0
 19 20  1  0  0  0
 20 21  1  0  0  0
 21 22  1  0  0  0
 22 23  1  0  0  0
 23 24  1  0  0  0
  6  1  2  0  0  0
 24 19  1  0  0  0
 12  7  1  0  0  0
 15 11  1  0  0  0
 22 25  1  0  0  0
M  END
> <minimizedAffinity>
-9.39932

$$$$
OCNT-2311212


 24 26  0  0  0  0  0  0  0  0999 V2000
   -5.7584   25.5475    2.3367 N   0  0  0  0  0  0  0  0  0  0  0  0
   -4.7100   26.2310    2.9120 C   0  0  0  0  0  0  0  0  0  0  0  0
   -3.5420   26.0342    2.5888 O   0  0  0  0  0  0  0  0  0  0  0  0
   -6.6987   25.8236    2.5823 H   0  0  0  0  0  0  0  0  0  0  0  0
   -5.0772   27.2153    3.9064 C   0  0  0  0  0  0  0  0  0  0  0  0
   -6.2123   28.0238    4.0567 C   0  0  0  0  0  0  0  0  0  0  0  0
   -5.9813   28.7631    5.2092 C   0  0  0  0  0  0  0  0  0  0  0  0
   -4.7989   28.4428    5.7463 C   0  0  0  0  0  0  0  0  0  0  0  0
   -4.2226   27.4934    4.9785 N   0  0  0  0  0  0  0  0  0  0  0  0
   -4.4423   29.2820    7.1365 S   0  0  0  0  0  0  0  0  0  0  0  0
   -5.9514   30.1074    7.0007 C   0  0  0  0  0  0  0  0  0  0  0  0
   -6.3792   31.2750    8.1870 Cl  0  0  0  0  0  0  0  0  0  0  0  0
   -6.7048   29.7318    5.9000 C   0  0  0  0  0  0  0  0  0  0  0  0
   -3.3296   27.0396    5.1281 H   0  0  0  0  0  0  0  0  0  0  0  0
   -6.3402   23.2573    1.5805 C   0  0  0  0  0  0  0  0  0  0  0  0
   -6.8063   22.5687    0.2948 C   0  0  0  0  0  0  0  0  0  0  0  0
   -7.7316   23.4717   -0.5225 C   0  0  0  0  0  0  0  0  0  0  0  0
   -7.3677   24.9535   -0.4337 C   0  0  0  0  0  0  0  0  0  0  0  0
   -5.8975   25.1542   -0.0860 C   0  0  0  0  0  0  0  0  0  0  0  0
   -5.5466   24.5486    1.2908 C   0  0  0  0  0  0  0  0  0  0  0  0
   -6.2798   22.1107    4.2137 C   0  0  0  0  0  0  0  0  0  0  0  0
   -5.4312   22.1250    2.6483 S   0  0  0  0  0  0  0  0  0  0  0  0
   -4.1214   22.7072    2.8815 O   0  0  0  0  0  0  0  0  0  0  0  0
   -5.5293   20.7935    2.0813 O   0  0  0  0  0  0  0  0  0  0  0  0
 21 22  1  0  0  0
 22 23  2  0  0  0
 22 24  2  0  0  0
 22 15  1  0  0  0
 15 16  1  0  0  0
 16 17  1  0  0  0
 17 18  1  0  0  0
 18 19  1  0  0  0
 19 20  1  0  0  0
 20  1  1  0  0  0
  1  2  1  0  0  0
  2  3  2  0  0  0
  2  5  1  0  0  0
  5  6  2  0  0  0
  6  7  1  0  0  0
  7  8  2  0  0  0
  8  9  1  0  0  0
  8 10  1  0  0  0
 10 11  1  0  0  0
 11 12  1  0  0  0
 11 13  2  0  0  0
 20 15  1  0  0  0
  9  5  1  0  0  0
 13  7  1  0  0  0
  1  4  1  0  0  0
  9 14  1  0  0  0
M  END
> <minimizedAffinity>
-9.02467

$$$$
OCNT-2311225


 25 28  0  0  0  0  0  0  0  0999 V2000
   -2.2980   25.0040    3.7619 O   0  0  0  0  0  0  0  0  0  0  0  0
   -3.2593   25.7016    4.0652 C   0  0  0  0  0  0  0  0  0  0  0  0
   -3.1908   26.7458    4.9721 N   0  0  0  0  0  0  0  0  0  0  0  0
   -1.9270   27.0269    5.6522 C   0  0  0  0  0  0  0  0  0  0  0  0
   -2.1190   27.4101    7.1324 C   0  0  0  0  0  0  0  0  0  0  0  0
   -3.1450   28.4555    7.3201 N   0  0  0  0  0  0  0  0  0  0  0  0
   -3.9159   28.8512    6.1317 C   0  0  0  0  0  0  0  0  0  0  0  0
   -4.3245   27.6096    5.3189 C   0  0  0  0  0  0  0  0  0  0  0  0
   -2.8856   29.4695    8.2399 C   0  0  0  0  0  0  0  0  0  0  0  0
   -3.9091   30.1218    8.9427 C   0  0  0  0  0  0  0  0  0  0  0  0
   -3.7135   31.1194    9.8460 N   0  0  0  0  0  0  0  0  0  0  0  0
   -2.4272   31.4751   10.0222 C   0  0  0  0  0  0  0  0  0  0  0  0
   -1.3985   30.8653    9.3308 C   0  0  0  0  0  0  0  0  0  0  0  0
   -1.6062   29.8682    8.4373 N   0  0  0  0  0  0  0  0  0  0  0  0
   -4.5867   25.4431    3.4397 C   0  0  0  0  0  0  0  0  0  0  0  0
   -5.2788   26.5394    2.6741 C   0  0  0  0  0  0  0  0  0  0  0  0
   -4.7051   25.3621    1.9223 C   0  0  0  0  0  0  0  0  0  0  0  0
   -5.6384   24.3618    1.2621 C   0  0  0  0  0  0  0  0  0  0  0  0
   -6.5553   24.7622    0.2742 C   0  0  0  0  0  0  0  0  0  0  0  0
   -6.5974   26.0479   -0.1091 F   0  0  0  0  0  0  0  0  0  0  0  0
   -7.4383   23.8746   -0.3425 C   0  0  0  0  0  0  0  0  0  0  0  0
   -7.4394   22.5346    0.0241 C   0  0  0  0  0  0  0  0  0  0  0  0
   -6.5600   22.0973    1.0109 C   0  0  0  0  0  0  0  0  0  0  0  0
   -5.6785   23.0000    1.6232 C   0  0  0  0  0  0  0  0  0  0  0  0
   -4.6417   22.3752    2.8613 Cl  0  0  0  0  0  0  0  0  0  0  0  0
  1  2  2  0  0  0
  2 15  1  0  0  0
 15 16  1  0  0  0
 16 17  1  0  0  0
 17 18  1  0  0  0
 18 19  2  0  0  0
 19 20  1  0  0  0
 19 21  1  0  0  0
 21 22  2  0  0  0
 22 23  1  0  0  0
 23 24  2  0  0  0
 24 25  1  0  0  0
  2  3  1  0  0  0
  3  4  1  0  0  0
  4  5  1  0  0  0
  5  6  1  0  0  0
  6  9  1  0  0  0
  9 10  2  0  0  0
 10 11  1  0  0  0
 11 12  2  0  0  0
 12 13  1  0  0  0
 13 14  2  0  0  0
  6  7  1  0  0  0
  7  8  1  0  0  0
 17 15  1  0  0  0
 24 18  1  0  0  0
  8  3  1  0  0  0
 14  9  1  0  0  0
M  END
> <minimizedAffinity>
-9.78896

$$$$
OCNT-2311229


 24 27  0  0  0  0  0  0  0  0999 V2000
   -4.8393   25.4894    3.5060 C   0  0  0  0  0  0  0  0  0  0  0  0
   -3.3669   25.5812    3.9358 C   0  0  0  0  0  0  0  0  0  0  0  0
   -3.1786   26.2697    5.2882 C   0  0  0  0  0  0  0  0  0  0  0  0
   -4.1154   27.3747    5.4170 N   0  0  0  0  0  0  0  0  0  0  0  0
   -5.5448   27.0926    5.2997 C   0  0  0  0  0  0  0  0  0  0  0  0
   -5.7959   25.7194    4.6778 C   0  0  0  0  0  0  0  0  0  0  0  0
   -3.7912   28.3858    6.3151 C   0  0  0  0  0  0  0  0  0  0  0  0
   -4.7749   29.0982    6.8857 N   0  0  0  0  0  0  0  0  0  0  0  0
   -4.4268   30.0562    7.7648 C   0  0  0  0  0  0  0  0  0  0  0  0
   -3.1272   30.3523    8.1041 C   0  0  0  0  0  0  0  0  0  0  0  0
   -2.7929   31.4007    9.1184 C   0  0  0  0  0  0  0  0  0  0  0  0
   -1.3192   31.8074    9.0834 C   0  0  0  0  0  0  0  0  0  0  0  0
   -0.4236   30.5743    9.0128 C   0  0  0  0  0  0  0  0  0  0  0  0
   -0.7050   29.7830    7.7362 C   0  0  0  0  0  0  0  0  0  0  0  0
   -2.1744   29.5651    7.4889 C   0  0  0  0  0  0  0  0  0  0  0  0
   -2.4938   28.6013    6.5979 N   0  0  0  0  0  0  0  0  0  0  0  0
   -5.0320   22.9688    3.6152 C   0  0  0  0  0  0  0  0  0  0  0  0
   -5.0957   24.1959    2.8251 N   0  0  0  0  0  0  0  0  0  0  0  0
   -5.8545   24.2044    1.6514 C   0  0  0  0  0  0  0  0  0  0  0  0
   -6.7581   23.1645    1.3707 C   0  0  0  0  0  0  0  0  0  0  0  0
   -7.5403   23.1536    0.2099 C   0  0  0  0  0  0  0  0  0  0  0  0
   -7.4446   24.1963   -0.7026 C   0  0  0  0  0  0  0  0  0  0  0  0
   -6.5728   25.2482   -0.4476 C   0  0  0  0  0  0  0  0  0  0  0  0
   -5.7942   25.2512    0.7167 C   0  0  0  0  0  0  0  0  0  0  0  0
 17 18  1  0  0  0
 18 19  1  0  0  0
 19 20  2  0  0  0
 20 21  1  0  0  0
 21 22  2  0  0  0
 22 23  1  0  0  0
 23 24  2  0  0  0
 18  1  1  0  0  0
  1  2  1  0  0  0
  2  3  1  0  0  0
  3  4  1  0  0  0
  4  7  1  0  0  0
  7  8  2  0  0  0
  8  9  1  0  0  0
  9 10  2  0  0  0
 10 11  1  0  0  0
 11 12  1  0  0  0
 12 13  1  0  0  0
 13 14  1  0  0  0
 14 15  1  0  0  0
 15 16  2  0  0  0
  4  5  1  0  0  0
  5  6  1  0  0  0
 24 19  1  0  0  0
  6  1  1  0  0  0
 16  7  1  0  0  0
 15 10  1  0  0  0
M  END
> <minimizedAffinity>
-10.02352

$$$$
OCNT-2311231


 26 28  0  0  0  0  0  0  0  0999 V2000
   -3.2483   29.0227    7.7570 C   0  0  0  0  0  0  0  0  0  0  0  0
   -2.5241   28.0415    7.6502 O   0  0  0  0  0  0  0  0  0  0  0  0
   -4.4519   29.1627    7.0869 N   0  0  0  0  0  0  0  0  0  0  0  0
   -5.3184   30.3261    7.2573 C   0  0  0  0  0  0  0  0  0  0  0  0
   -6.7648   30.0094    6.9023 C   0  0  0  0  0  0  0  0  0  0  0  0
   -6.9127   29.4713    5.4771 C   0  0  0  0  0  0  0  0  0  0  0  0
   -5.6554   28.7403    4.9648 C   0  0  0  0  0  0  0  0  0  0  0  0
   -4.8627   28.1387    6.1319 C   0  0  0  0  0  0  0  0  0  0  0  0
   -2.9704   30.1018    8.5329 O   0  0  0  0  0  0  0  0  0  0  0  0
   -2.2170   32.3153    8.8749 C   0  0  0  0  0  0  0  0  0  0  0  0
   -1.8440   30.9664    8.2410 C   0  0  0  0  0  0  0  0  0  0  0  0
   -0.5604   30.4555    8.9020 C   0  0  0  0  0  0  0  0  0  0  0  0
   -1.6721   31.1678    6.7317 C   0  0  0  0  0  0  0  0  0  0  0  0
   -5.9865   27.6522    3.9265 C   0  0  0  0  0  0  0  0  0  0  0  0
   -4.9443   27.5615    2.9014 N   0  0  0  0  0  0  0  0  0  0  0  0
   -5.3657   27.6399    1.9722 H   0  0  0  0  0  0  0  0  0  0  0  0
   -4.2332   26.2741    2.9351 C   0  0  0  0  0  0  0  0  0  0  0  0
   -5.1661   25.1255    2.7085 C   0  0  0  0  0  0  0  0  0  0  0  0
   -5.4273   24.2522    3.7004 N   0  0  0  0  0  0  0  0  0  0  0  0
   -6.3075   23.3181    3.1667 O   0  0  0  0  0  0  0  0  0  0  0  0
   -6.5501   23.6438    1.8804 C   0  0  0  0  0  0  0  0  0  0  0  0
   -5.8647   24.7770    1.5304 C   0  0  0  0  0  0  0  0  0  0  0  0
   -5.9309   25.3562    0.1675 C   0  0  0  0  0  0  0  0  0  0  0  0
   -7.1324   24.7722   -0.6127 C   0  0  0  0  0  0  0  0  0  0  0  0
   -7.2795   23.2443   -0.4269 C   0  0  0  0  0  0  0  0  0  0  0  0
   -7.4692   22.8403    1.0516 C   0  0  0  0  0  0  0  0  0  0  0  0
 10 11  1  0  0  0
 11 12  1  0  0  0
 11 13  1  0  0  0
 11  9  1  0  0  0
  9  1  1  0  0  0
  1  2  2  0  0  0
  1  3  1  0  0  0
  3  4  1  0  0  0
  4  5  1  0  0  0
  5  6  1  0  0  0
  6  7  1  0  0  0
  7 14  1  0  0  0
 14 15  1  0  0  0
 15 17  1  0  0  0
 17 18  1  0  0  0
 18 19  2  0  0  0
 19 20  1  0  0  0
 20 21  1  0  0  0
 21 22  2  0  0  0
 22 23  1  0  0  0
 23 24  1  0  0  0
 24 25  1  0  0  0
 25 26  1  0  0  0
  7  8  1  0  0  0
  8  3  1  0  0  0
 22 18  1  0  0  0
 26 21  1  0  0  0
 15 16  1  0  0  0
M  END
> <minimizedAffinity>
-9.29571

$$$$
OCNT-2311233


 22 24  0  0  0  0  0  0  0  0999 V2000
   -2.4223   28.4064    7.2892 N   0  0  0  0  0  0  0  0  0  0  0  0
   -1.5281   27.2559    7.1969 C   0  0  0  0  0  0  0  0  0  0  0  0
   -2.3281   26.2235    6.4088 C   0  0  0  0  0  0  0  0  0  0  0  0
   -3.1386   27.0841    5.4506 C   0  0  0  0  0  0  0  0  0  0  0  0
   -3.5181   28.2995    6.3226 C   0  0  0  0  0  0  0  0  0  0  0  0
   -0.9722   30.1021    8.3610 C   0  0  0  0  0  0  0  0  0  0  0  0
   -0.8408   31.2224    9.2014 C   0  0  0  0  0  0  0  0  0  0  0  0
   -1.9424   31.7301    9.8787 C   0  0  0  0  0  0  0  0  0  0  0  0
   -3.1797   31.1299    9.7039 C   0  0  0  0  0  0  0  0  0  0  0  0
   -3.3123   30.0320    8.8434 C   0  0  0  0  0  0  0  0  0  0  0  0
   -2.2245   29.4808    8.1345 C   0  0  0  0  0  0  0  0  0  0  0  0
    1.1685   29.2223    8.5650 C   0  0  0  0  0  0  0  0  0  0  0  0
    0.1466   29.6775    7.6777 O   0  0  0  0  0  0  0  0  0  0  0  0
   -4.2773   26.3771    4.8905 N   0  0  0  0  0  0  0  0  0  0  0  0
   -4.3188   26.0891    3.5477 C   0  0  0  0  0  0  0  0  0  0  0  0
   -3.3886   26.2482    2.7710 O   0  0  0  0  0  0  0  0  0  0  0  0
   -5.1495   26.3990    5.4042 H   0  0  0  0  0  0  0  0  0  0  0  0
   -5.6073   25.5384    3.0845 C   0  0  0  0  0  0  0  0  0  0  0  0
   -6.3183   24.4791    3.8975 C   0  0  0  0  0  0  0  0  0  0  0  0
   -5.7016   24.1236    2.5786 C   0  0  0  0  0  0  0  0  0  0  0  0
   -6.7807   23.8286    1.2166 Cl  0  0  0  0  0  0  0  0  0  0  0  0
   -4.2950   23.0726    2.5860 Cl  0  0  0  0  0  0  0  0  0  0  0  0
 12 13  1  0  0  0
 13  6  1  0  0  0
  6  7  2  0  0  0
  7  8  1  0  0  0
  8  9  2  0  0  0
  9 10  1  0  0  0
 10 11  2  0  0  0
 11  1  1  0  0  0
  1  2  1  0  0  0
  2  3  1  0  0  0
  3  4  1  0  0  0
  4 14  1  0  0  0
 14 15  1  0  0  0
 15 16  2  0  0  0
 15 18  1  0  0  0
 18 19  1  0  0  0
 19 20  1  0  0  0
 20 21  1  0  0  0
 20 22  1  0  0  0
  4  5  1  0  0  0
 11  6  1  0  0  0
  5  1  1  0  0  0
 20 18  1  0  0  0
 14 17  1  0  0  0
M  END
> <minimizedAffinity>
-8.33319

$$$$
OCNT-2311240


 27 29  0  0  0  0  0  0  0  0999 V2000
   -1.5733   26.6910    5.2605 O   0  0  0  0  0  0  0  0  0  0  0  0
   -2.4124   27.0824    6.0633 C   0  0  0  0  0  0  0  0  0  0  0  0
   -3.7802   27.1528    5.8522 N   0  0  0  0  0  0  0  0  0  0  0  0
   -4.3407   27.5626    6.5893 H   0  0  0  0  0  0  0  0  0  0  0  0
   -4.4955   26.7391    4.7066 C   0  0  0  0  0  0  0  0  0  0  0  0
   -5.1172   27.6140    3.8165 C   0  0  0  0  0  0  0  0  0  0  0  0
   -5.7994   27.1212    2.7016 C   0  0  0  0  0  0  0  0  0  0  0  0
   -5.8645   25.7481    2.4654 C   0  0  0  0  0  0  0  0  0  0  0  0
   -5.2470   24.8509    3.3431 C   0  0  0  0  0  0  0  0  0  0  0  0
   -4.5662   25.3587    4.4615 C   0  0  0  0  0  0  0  0  0  0  0  0
   -5.3080   23.4171    3.1165 C   0  0  0  0  0  0  0  0  0  0  0  0
   -5.5317   22.8113    1.8978 C   0  0  0  0  0  0  0  0  0  0  0  0
   -5.4922   21.4652    2.1226 N   0  0  0  0  0  0  0  0  0  0  0  0
   -5.2548   21.1441    3.4042 N   0  0  0  0  0  0  0  0  0  0  0  0
   -5.1447   22.3304    4.0075 C   0  0  0  0  0  0  0  0  0  0  0  0
   -5.6132   20.7128    1.4523 H   0  0  0  0  0  0  0  0  0  0  0  0
   -2.0118   27.6099    7.4287 C   0  0  0  0  0  0  0  0  0  0  0  0
   -0.5440   28.0352    7.5019 C   0  0  0  0  0  0  0  0  0  0  0  0
   -0.5548   29.1818    8.4805 C   0  0  0  0  0  0  0  0  0  0  0  0
    0.4328   29.7156    8.9544 O   0  0  0  0  0  0  0  0  0  0  0  0
   -1.8731   29.5342    8.7246 N   0  0  0  0  0  0  0  0  0  0  0  0
   -2.7625   28.8837    7.7932 C   0  0  0  0  0  0  0  0  0  0  0  0
   -2.2204   30.7954    9.3866 C   0  0  0  0  0  0  0  0  0  0  0  0
   -1.8802   32.0696    8.6099 C   0  0  0  0  0  0  0  0  0  0  0  0
   -1.6958   31.8410    7.2937 F   0  0  0  0  0  0  0  0  0  0  0  0
   -2.8675   32.9877    8.7337 F   0  0  0  0  0  0  0  0  0  0  0  0
   -0.7487   32.6327    9.0938 F   0  0  0  0  0  0  0  0  0  0  0  0
  1  2  2  0  0  0
  2  3  1  0  0  0
  3  5  1  0  0  0
  5  6  2  0  0  0
  6  7  1  0  0  0
  7  8  2  0  0  0
  8  9  1  0  0  0
  9 11  1  0  0  0
 11 12  2  0  0  0
 12 13  1  0  0  0
 13 14  1  0  0  0
 14 15  2  0  0  0
  9 10  2  0  0  0
  2 17  1  0  0  0
 17 18  1  0  0  0
 18 19  1  0  0  0
 19 20  2  0  0  0
 19 21  1  0  0  0
 21 23  1  0  0  0
 23 24  1  0  0  0
 24 25  1  0  0  0
 24 26  1  0  0  0
 24 27  1  0  0  0
 21 22  1  0  0  0
 10  5  1  0  0  0
 22 17  1  0  0  0
 15 11  1  0  0  0
  3  4  1  0  0  0
 13 16  1  0  0  0
M  END
> <minimizedAffinity>
-9.07727

$$$$
OCNT-2311245


 24 26  0  0  0  0  0  0  0  0999 V2000
   -2.2963   26.1389    7.2702 O   0  0  0  0  0  0  0  0  0  0  0  0
   -2.2582   27.2822    6.8383 C   0  0  0  0  0  0  0  0  0  0  0  0
   -2.8574   27.6839    5.6620 N   0  0  0  0  0  0  0  0  0  0  0  0
   -2.7045   28.6251    5.3244 H   0  0  0  0  0  0  0  0  0  0  0  0
   -1.5367   28.3507    7.5661 C   0  0  0  0  0  0  0  0  0  0  0  0
   -0.1331   28.3899    7.5183 C   0  0  0  0  0  0  0  0  0  0  0  0
    0.5682   29.3784    8.1918 C   0  0  0  0  0  0  0  0  0  0  0  0
   -0.1203   30.3480    8.9232 C   0  0  0  0  0  0  0  0  0  0  0  0
   -1.5362   30.3401    8.9895 C   0  0  0  0  0  0  0  0  0  0  0  0
   -2.2346   29.3350    8.3032 C   0  0  0  0  0  0  0  0  0  0  0  0
   -3.9393   29.5094    8.5454 S   0  0  0  0  0  0  0  0  0  0  0  0
   -3.7499   30.8954    9.5132 C   0  0  0  0  0  0  0  0  0  0  0  0
   -2.4279   31.2302    9.6779 C   0  0  0  0  0  0  0  0  0  0  0  0
   -3.5462   26.7474    4.7898 C   0  0  0  0  0  0  0  0  0  0  0  0
   -5.0843   26.7527    5.0023 C   0  0  0  0  0  0  0  0  0  0  0  0
   -5.6757   28.1607    5.0426 C   0  0  0  0  0  0  0  0  0  0  0  0
   -5.8949   28.5152    3.5803 C   0  0  0  0  0  0  0  0  0  0  0  0
   -5.9264   27.1746    2.8501 C   0  0  0  0  0  0  0  0  0  0  0  0
   -5.8972   26.1623    3.9137 N   0  0  0  0  0  0  0  0  0  0  0  0
   -5.4547   24.8377    3.4803 C   0  0  0  0  0  0  0  0  0  0  0  0
   -6.4361   23.7043    3.7946 C   0  0  0  0  0  0  0  0  0  0  0  0
   -6.6819   23.4480    5.2716 C   0  0  0  0  0  0  0  0  0  0  0  0
   -7.6431   24.3871    5.7456 O   0  0  0  0  0  0  0  0  0  0  0  0
   -7.8487   24.1409    6.6644 H   0  0  0  0  0  0  0  0  0  0  0  0
  1  2  2  0  0  0
  2  3  1  0  0  0
  3 14  1  0  0  0
 14 15  1  0  0  0
 15 16  1  0  0  0
 16 17  1  0  0  0
 17 18  1  0  0  0
 18 19  1  0  0  0
 19 20  1  0  0  0
 20 21  1  0  0  0
 21 22  1  0  0  0
 22 23  1  0  0  0
  2  5  1  0  0  0
  5  6  1  0  0  0
  6  7  2  0  0  0
  7  8  1  0  0  0
  8  9  2  0  0  0
  9 10  1  0  0  0
 10 11  1  0  0  0
 11 12  1  0  0  0
 12 13  2  0  0  0
 19 15  1  0  0  0
 10  5  2  0  0  0
 13  9  1  0  0  0
  3  4  1  0  0  0
 23 24  1  0  0  0
M  END
> <minimizedAffinity>
-7.88247

$$$$
OCNT-2311251


 22 25  0  0  0  0  0  0  0  0999 V2000
    0.2076   29.7471    8.6712 C   0  0  0  0  0  0  0  0  0  0  0  0
   -0.4862   29.2706    7.3989 C   0  0  0  0  0  0  0  0  0  0  0  0
    0.5397   28.9863    6.2949 C   0  0  0  0  0  0  0  0  0  0  0  0
   -1.4897   28.1169    7.6234 C   0  0  0  0  0  0  0  0  0  0  0  0
   -2.3991   28.8201    6.7726 N   0  0  0  0  0  0  0  0  0  0  0  0
   -1.7227   30.0816    6.8901 C   0  0  0  0  0  0  0  0  0  0  0  0
   -3.7370   28.4963    6.5139 C   0  0  0  0  0  0  0  0  0  0  0  0
   -4.6894   29.0899    7.2793 N   0  0  0  0  0  0  0  0  0  0  0  0
   -5.9807   28.8169    7.0562 C   0  0  0  0  0  0  0  0  0  0  0  0
   -6.4854   27.9959    6.1372 N   0  0  0  0  0  0  0  0  0  0  0  0
   -5.5511   27.3763    5.3784 C   0  0  0  0  0  0  0  0  0  0  0  0
   -4.1797   27.5894    5.5347 C   0  0  0  0  0  0  0  0  0  0  0  0
   -3.2995   26.6009    4.4238 S   0  0  0  0  0  0  0  0  0  0  0  0
   -4.7128   25.9640    3.7571 C   0  0  0  0  0  0  0  0  0  0  0  0
   -4.7148   24.6914    2.3319 Br  0  0  0  0  0  0  0  0  0  0  0  0
   -5.8519   26.4425    4.3425 C   0  0  0  0  0  0  0  0  0  0  0  0
   -2.4401   31.1379    7.8498 C   0  0  0  0  0  0  0  0  0  0  0  0
   -3.2411   32.1592    7.3047 C   0  0  0  0  0  0  0  0  0  0  0  0
   -3.8705   33.0807    8.1306 C   0  0  0  0  0  0  0  0  0  0  0  0
   -3.7669   33.0747    9.4722 N   0  0  0  0  0  0  0  0  0  0  0  0
   -3.0021   32.1033   10.0050 C   0  0  0  0  0  0  0  0  0  0  0  0
   -2.3378   31.1432    9.2535 C   0  0  0  0  0  0  0  0  0  0  0  0
  1  2  1  0  0  0
  2  3  1  0  0  0
  2  4  1  0  0  0
  4  5  1  0  0  0
  5  7  1  0  0  0
  7  8  1  0  0  0
  8  9  2  0  0  0
  9 10  1  0  0  0
 10 11  2  0  0  0
 11 12  1  0  0  0
 12 13  1  0  0  0
 13 14  1  0  0  0
 14 15  1  0  0  0
 14 16  2  0  0  0
  5  6  1  0  0  0
  6 17  1  0  0  0
 17 18  2  0  0  0
 18 19  1  0  0  0
 19 20  2  0  0  0
 20 21  1  0  0  0
 21 22  2  0  0  0
  6  2  1  0  0  0
 22 17  1  0  0  0
 12  7  2  0  0  0
 16 11  1  0  0  0
M  END
> <minimizedAffinity>
-8.72279

$$$$
OCNT-2311253


 27 29  0  0  0  0  0  0  0  0999 V2000
   -1.1497   26.6293    5.8558 N   0  0  0  0  0  0  0  0  0  0  0  0
   -2.2062   26.4072    6.8356 C   0  0  0  0  0  0  0  0  0  0  0  0
   -0.2900   27.7233    5.8493 C   0  0  0  0  0  0  0  0  0  0  0  0
    0.5079   27.9416    4.9388 O   0  0  0  0  0  0  0  0  0  0  0  0
   -0.3666   28.7057    6.9460 C   0  0  0  0  0  0  0  0  0  0  0  0
    0.6390   28.7182    7.9103 C   0  0  0  0  0  0  0  0  0  0  0  0
    0.5903   29.6647    8.9290 C   0  0  0  0  0  0  0  0  0  0  0  0
   -0.4515   30.5994    8.9751 C   0  0  0  0  0  0  0  0  0  0  0  0
   -1.4561   30.6033    7.9924 C   0  0  0  0  0  0  0  0  0  0  0  0
   -1.4032   29.6497    6.9663 C   0  0  0  0  0  0  0  0  0  0  0  0
   -2.5124   31.5608    8.0406 N   0  0  0  0  0  0  0  0  0  0  0  0
   -2.7804   32.4637    9.0488 C   0  0  0  0  0  0  0  0  0  0  0  0
   -3.9016   33.1578    8.6580 C   0  0  0  0  0  0  0  0  0  0  0  0
   -4.3416   32.7198    7.4438 N   0  0  0  0  0  0  0  0  0  0  0  0
   -3.4933   31.7773    7.0940 C   0  0  0  0  0  0  0  0  0  0  0  0
   -1.1966   25.8081    4.6439 C   0  0  0  0  0  0  0  0  0  0  0  0
   -2.8980   24.7142    3.3095 N   0  0  0  0  0  0  0  0  0  0  0  0
   -2.5888   25.8728    4.0055 C   0  0  0  0  0  0  0  0  0  0  0  0
   -3.2757   26.8871    4.0929 O   0  0  0  0  0  0  0  0  0  0  0  0
   -2.1506   24.0195    3.2563 H   0  0  0  0  0  0  0  0  0  0  0  0
   -7.6095   23.7309    0.2095 C   0  0  0  0  0  0  0  0  0  0  0  0
   -6.3708   23.9566    1.0246 C   0  0  0  0  0  0  0  0  0  0  0  0
   -5.5057   25.0108    0.7166 C   0  0  0  0  0  0  0  0  0  0  0  0
   -4.3640   25.2382    1.4911 C   0  0  0  0  0  0  0  0  0  0  0  0
   -4.0702   24.4210    2.5894 C   0  0  0  0  0  0  0  0  0  0  0  0
   -4.9384   23.3760    2.9036 C   0  0  0  0  0  0  0  0  0  0  0  0
   -6.0844   23.1500    2.1306 C   0  0  0  0  0  0  0  0  0  0  0  0
 21 22  1  0  0  0
 22 23  1  0  0  0
 23 24  2  0  0  0
 24 25  1  0  0  0
 25 17  1  0  0  0
 17 18  1  0  0  0
 18 19  2  0  0  0
 18 16  1  0  0  0
 16  1  1  0  0  0
  1  2  1  0  0  0
  1  3  1  0  0  0
  3  4  2  0  0  0
  3  5  1  0  0  0
  5  6  1  0  0  0
  6  7  2  0  0  0
  7  8  1  0  0  0
  8  9  2  0  0  0
  9 11  1  0  0  0
 11 12  1  0  0  0
 12 13  2  0  0  0
 13 14  1  0  0  0
 14 15  2  0  0  0
  9 10  1  0  0  0
 25 26  2  0  0  0
 26 27  1  0  0  0
 27 22  2  0  0  0
 10  5  2  0  0  0
 15 11  1  0  0  0
 17 20  1  0  0  0
M  END
> <minimizedAffinity>
-9.24087

$$$$
OCNT-2311256


 26 28  0  0  0  0  0  0  0  0999 V2000
   -6.0573   26.0479    3.5763 N   0  0  0  0  0  0  0  0  0  0  0  0
   -5.9198   25.7361    4.5353 H   0  0  0  0  0  0  0  0  0  0  0  0
   -5.2330   25.2184    2.6801 C   0  0  0  0  0  0  0  0  0  0  0  0
   -4.5767   24.1084    3.5193 C   0  0  0  0  0  0  0  0  0  0  0  0
   -5.6339   23.1463    4.0543 C   0  0  0  0  0  0  0  0  0  0  0  0
   -6.3979   22.4172    2.9191 C   0  0  0  0  0  0  0  0  0  0  0  0
   -7.7349   21.9193    3.5110 C   0  0  0  0  0  0  0  0  0  0  0  0
   -5.5648   21.1872    2.4854 C   0  0  0  0  0  0  0  0  0  0  0  0
   -6.6348   23.3062    1.6876 C   0  0  0  0  0  0  0  0  0  0  0  0
   -7.3987   22.8139    0.6078 C   0  0  0  0  0  0  0  0  0  0  0  0
   -7.5583   23.5455   -0.5695 C   0  0  0  0  0  0  0  0  0  0  0  0
   -6.9443   24.7822   -0.7029 C   0  0  0  0  0  0  0  0  0  0  0  0
   -6.1881   25.2921    0.3496 C   0  0  0  0  0  0  0  0  0  0  0  0
   -6.0399   24.5825    1.5586 C   0  0  0  0  0  0  0  0  0  0  0  0
   -5.8084   27.4820    3.5335 C   0  0  0  0  0  0  0  0  0  0  0  0
   -5.6944   28.9462    6.9882 C   0  0  0  0  0  0  0  0  0  0  0  0
   -4.3554   28.8170    6.6320 C   0  0  0  0  0  0  0  0  0  0  0  0
   -3.1049   29.1463    7.3682 C   0  0  0  0  0  0  0  0  0  0  0  0
   -4.3039   28.2897    5.3627 N   0  0  0  0  0  0  0  0  0  0  0  0
   -5.5702   28.0554    4.8899 C   0  0  0  0  0  0  0  0  0  0  0  0
   -6.4477   28.4715    5.8709 C   0  0  0  0  0  0  0  0  0  0  0  0
   -3.4524   28.1006    4.8489 H   0  0  0  0  0  0  0  0  0  0  0  0
   -6.2654   29.4607    8.2337 C   0  0  0  0  0  0  0  0  0  0  0  0
   -6.3969   28.7685    9.2376 O   0  0  0  0  0  0  0  0  0  0  0  0
   -5.6302   31.6799    8.6276 C   0  0  0  0  0  0  0  0  0  0  0  0
   -6.6297   30.7746    8.1617 O   0  0  0  0  0  0  0  0  0  0  0  0
 25 26  1  0  0  0
 26 23  1  0  0  0
 23 24  2  0  0  0
 23 16  1  0  0  0
 16 17  2  0  0  0
 17 18  1  0  0  0
 17 19  1  0  0  0
 19 20  1  0  0  0
 20 15  1  0  0  0
 15  1  1  0  0  0
  1  3  1  0  0  0
  3  4  1  0  0  0
  4  5  1  0  0  0
  5  6  1  0  0  0
  6  7  1  0  0  0
  6  8  1  0  0  0
  6  9  1  0  0  0
  9 10  2  0  0  0
 10 11  1  0  0  0
 11 12  2  0  0  0
 12 13  1  0  0  0
 13 14  2  0  0  0
 20 21  2  0  0  0
 21 16  1  0  0  0
 14  3  1  0  0  0
 14  9  1  0  0  0
 19 22  1  0  0  0
  1  2  1  0  0  0
M  END
> <minimizedAffinity>
-9.28916

$$$$
OCNT-2311260


 33 36  0  0  0  0  0  0  0  0999 V2000
   -7.1230   28.8542    6.7511 C   0  0  0  0  0  0  0  0  0  0  0  0
   -7.3123   30.3708    6.5952 C   0  0  0  0  0  0  0  0  0  0  0  0
   -5.5611   26.9729    3.1530 C   0  0  0  0  0  0  0  0  0  0  0  0
   -5.8437   26.2190    4.2927 C   0  0  0  0  0  0  0  0  0  0  0  0
   -6.3391   26.8300    5.4473 C   0  0  0  0  0  0  0  0  0  0  0  0
   -6.5792   28.2137    5.4807 C   0  0  0  0  0  0  0  0  0  0  0  0
   -6.2734   28.9628    4.3348 C   0  0  0  0  0  0  0  0  0  0  0  0
   -5.7770   28.3468    3.1785 C   0  0  0  0  0  0  0  0  0  0  0  0
   -5.0957   26.2499    2.0858 O   0  0  0  0  0  0  0  0  0  0  0  0
   -4.3108   25.0945    2.4001 C   0  0  0  0  0  0  0  0  0  0  0  0
   -7.6903   22.7782   -0.5171 C   0  0  0  0  0  0  0  0  0  0  0  0
   -6.6629   22.7044    0.5767 C   0  0  0  0  0  0  0  0  0  0  0  0
   -6.4255   21.5027    1.2544 C   0  0  0  0  0  0  0  0  0  0  0  0
   -5.4926   21.4475    2.2888 C   0  0  0  0  0  0  0  0  0  0  0  0
   -4.7945   22.5961    2.6645 C   0  0  0  0  0  0  0  0  0  0  0  0
   -5.0164   23.8127    2.0053 C   0  0  0  0  0  0  0  0  0  0  0  0
   -5.9639   23.8542    0.9668 C   0  0  0  0  0  0  0  0  0  0  0  0
   -6.2498   28.4867    7.8750 N   0  0  0  0  0  0  0  0  0  0  0  0
   -5.3527   28.1593    7.5053 H   0  0  0  0  0  0  0  0  0  0  0  0
   -6.0034   29.6044    8.8023 C   0  0  0  0  0  0  0  0  0  0  0  0
   -4.5121   29.9259    8.7690 C   0  0  0  0  0  0  0  0  0  0  0  0
   -3.6885   29.1379    8.1587 N   0  0  0  0  0  0  0  0  0  0  0  0
   -2.2991   29.3119    8.2524 C   0  0  0  0  0  0  0  0  0  0  0  0
   -1.4944   28.2762    7.7620 C   0  0  0  0  0  0  0  0  0  0  0  0
   -0.0979   28.3400    7.8450 C   0  0  0  0  0  0  0  0  0  0  0  0
    0.5188   29.4432    8.4267 C   0  0  0  0  0  0  0  0  0  0  0  0
   -0.2609   30.4854    8.9205 C   0  0  0  0  0  0  0  0  0  0  0  0
   -1.6555   30.4051    8.8218 C   0  0  0  0  0  0  0  0  0  0  0  0
   -2.6327   31.7228    9.4043 S   0  0  0  0  0  0  0  0  0  0  0  0
   -2.6482   32.7482    8.3851 O   0  0  0  0  0  0  0  0  0  0  0  0
   -2.2359   32.0141   10.7638 O   0  0  0  0  0  0  0  0  0  0  0  0
   -4.1385   31.0638    9.4901 N   0  0  0  0  0  0  0  0  0  0  0  0
   -4.6911   31.2985   10.3173 H   0  0  0  0  0  0  0  0  0  0  0  0
 11 12  1  0  0  0
 12 13  1  0  0  0
 13 14  2  0  0  0
 14 15  1  0  0  0
 15 16  2  0  0  0
 16 10  1  0  0  0
 10  9  1  0  0  0
  9  3  1  0  0  0
  3  4  1  0  0  0
  4  5  2  0  0  0
  5  6  1  0  0  0
  6  1  1  0  0  0
  1  2  1  0  0  0
  1 18  1  0  0  0
 18 20  1  0  0  0
 20 21  1  0  0  0
 21 22  2  0  0  0
 22 23  1  0  0  0
 23 24  2  0  0  0
 24 25  1  0  0  0
 25 26  2  0  0  0
 26 27  1  0  0  0
 27 28  2  0  0  0
 28 29  1  0  0  0
 29 30  2  0  0  0
 29 31  2  0  0  0
 29 32  1  0  0  0
  6  7  2  0  0  0
  7  8  1  0  0  0
 16 17  1  0  0  0
 17 12  2  0  0  0
  8  3  2  0  0  0
 32 21  1  0  0  0
 28 23  1  0  0  0
 18 19  1  0  0  0
 32 33  1  0  0  0
M  END
> <minimizedAffinity>
-11.85378

$$$$
OCNT-2311263


 30 32  0  0  0  0  0  0  0  0999 V2000
   -4.5261   28.0211    6.3281 N   0  0  0  0  0  0  0  0  0  0  0  0
   -4.7739   27.5315    5.0639 C   0  0  0  0  0  0  0  0  0  0  0  0
   -5.4366   28.1416    4.2244 O   0  0  0  0  0  0  0  0  0  0  0  0
   -3.6920   27.6660    6.7867 H   0  0  0  0  0  0  0  0  0  0  0  0
   -2.0667   30.5275    8.5723 C   0  0  0  0  0  0  0  0  0  0  0  0
   -2.9511   30.4797    9.5833 N   0  0  0  0  0  0  0  0  0  0  0  0
   -4.0559   30.0622    8.9490 N   0  0  0  0  0  0  0  0  0  0  0  0
   -5.3070   29.8548    9.6427 C   0  0  0  0  0  0  0  0  0  0  0  0
   -6.2656   28.9962    8.8191 C   0  0  0  0  0  0  0  0  0  0  0  0
   -6.2944   29.4612    7.3578 C   0  0  0  0  0  0  0  0  0  0  0  0
   -4.9032   29.3792    6.6936 C   0  0  0  0  0  0  0  0  0  0  0  0
   -3.8386   29.8811    7.6148 C   0  0  0  0  0  0  0  0  0  0  0  0
   -2.5728   30.1319    7.3527 N   0  0  0  0  0  0  0  0  0  0  0  0
   -0.6431   30.9513    8.7568 C   0  0  0  0  0  0  0  0  0  0  0  0
    0.7897   29.2412    7.9380 C   0  0  0  0  0  0  0  0  0  0  0  0
    0.2586   29.8821    9.0901 O   0  0  0  0  0  0  0  0  0  0  0  0
   -4.1384   26.1591    4.7632 C   0  0  0  0  0  0  0  0  0  0  0  0
   -2.6810   26.1146    5.2072 C   0  0  0  0  0  0  0  0  0  0  0  0
   -4.9264   25.1455    5.4587 N   0  0  0  0  0  0  0  0  0  0  0  0
   -6.0046   24.5489    4.8428 C   0  0  0  0  0  0  0  0  0  0  0  0
   -6.2914   24.7738    3.6748 O   0  0  0  0  0  0  0  0  0  0  0  0
   -6.6462   23.6922    5.7076 N   0  0  0  0  0  0  0  0  0  0  0  0
   -4.9950   25.2838    6.4609 H   0  0  0  0  0  0  0  0  0  0  0  0
   -6.1600   23.5100    6.5721 H   0  0  0  0  0  0  0  0  0  0  0  0
   -7.8153   22.9425    5.4726 C   0  0  0  0  0  0  0  0  0  0  0  0
   -7.8545   21.7838    4.6952 C   0  0  0  0  0  0  0  0  0  0  0  0
   -9.0592   21.0992    4.5036 C   0  0  0  0  0  0  0  0  0  0  0  0
  -10.2344   21.5692    5.0850 C   0  0  0  0  0  0  0  0  0  0  0  0
  -10.2071   22.7263    5.8584 C   0  0  0  0  0  0  0  0  0  0  0  0
   -9.0035   23.4101    6.0498 C   0  0  0  0  0  0  0  0  0  0  0  0
 15 16  1  0  0  0
 16 14  1  0  0  0
 14  5  1  0  0  0
  5  6  2  0  0  0
  6  7  1  0  0  0
  7  8  1  0  0  0
  8  9  1  0  0  0
  9 10  1  0  0  0
 10 11  1  0  0  0
 11  1  1  0  0  0
  1  2  1  0  0  0
  2  3  2  0  0  0
  2 17  1  0  0  0
 17 18  1  0  0  0
 17 19  1  0  0  0
 19 20  1  0  0  0
 20 21  2  0  0  0
 20 22  1  0  0  0
 22 25  1  0  0  0
 25 26  2  0  0  0
 26 27  1  0  0  0
 27 28  2  0  0  0
 28 29  1  0  0  0
 29 30  2  0  0  0
 11 12  1  0  0  0
 12 13  2  0  0  0
 13  5  1  0  0  0
 12  7  1  0  0  0
 30 25  1  0  0  0
  1  4  1  0  0  0
 19 23  1  0  0  0
 22 24  1  0  0  0
M  END
> <minimizedAffinity>
-8.47684

$$$$
OCNT-2311283


 25 27  0  0  0  0  0  0  0  0999 V2000
   -4.3418   26.3584    4.7546 N   0  0  0  0  0  0  0  0  0  0  0  0
   -2.5555   28.6988    7.9012 C   0  0  0  0  0  0  0  0  0  0  0  0
   -1.1764   28.6454    7.9402 C   0  0  0  0  0  0  0  0  0  0  0  0
   -0.4152   27.9438    7.0636 N   0  0  0  0  0  0  0  0  0  0  0  0
   -1.0106   27.2500    6.0910 C   0  0  0  0  0  0  0  0  0  0  0  0
   -0.2229   26.5873    5.2585 N   0  0  0  0  0  0  0  0  0  0  0  0
   -0.8109   25.8914    4.2859 C   0  0  0  0  0  0  0  0  0  0  0  0
   -2.1235   25.7882    4.0695 N   0  0  0  0  0  0  0  0  0  0  0  0
   -2.9220   26.4653    4.9105 C   0  0  0  0  0  0  0  0  0  0  0  0
   -2.4007   27.2305    5.9688 C   0  0  0  0  0  0  0  0  0  0  0  0
   -3.1701   27.9757    6.8917 C   0  0  0  0  0  0  0  0  0  0  0  0
   -2.9257   30.6463    9.1983 C   0  0  0  0  0  0  0  0  0  0  0  0
   -3.3846   29.3796    8.7396 O   0  0  0  0  0  0  0  0  0  0  0  0
   -4.8115   27.1134    3.5663 C   0  0  0  0  0  0  0  0  0  0  0  0
   -6.0756   27.9555    3.8391 C   0  0  0  0  0  0  0  0  0  0  0  0
   -6.4285   28.0125    5.3257 C   0  0  0  0  0  0  0  0  0  0  0  0
   -6.0162   29.3616    3.2445 C   0  0  0  0  0  0  0  0  0  0  0  0
   -4.6566   24.9093    4.6974 C   0  0  0  0  0  0  0  0  0  0  0  0
   -5.3994   24.5319    3.3998 C   0  0  0  0  0  0  0  0  0  0  0  0
   -6.6388   23.6675    3.6725 C   0  0  0  0  0  0  0  0  0  0  0  0
   -7.2821   23.1824    2.3712 C   0  0  0  0  0  0  0  0  0  0  0  0
   -6.3587   22.4876    1.4672 N   0  0  0  0  0  0  0  0  0  0  0  0
   -6.0215   21.1475    1.9413 C   0  0  0  0  0  0  0  0  0  0  0  0
   -5.1695   23.3008    1.1940 C   0  0  0  0  0  0  0  0  0  0  0  0
   -4.4457   23.7879    2.4512 C   0  0  0  0  0  0  0  0  0  0  0  0
 12 13  1  0  0  0
 13  2  1  0  0  0
  2  3  1  0  0  0
  3  4  2  0  0  0
  4  5  1  0  0  0
  5  6  2  0  0  0
  6  7  1  0  0  0
  7  8  2  0  0  0
  8  9  1  0  0  0
  9  1  1  0  0  0
  1 14  1  0  0  0
 14 15  1  0  0  0
 15 16  1  0  0  0
 15 17  1  0  0  0
  1 18  1  0  0  0
 18 19  1  0  0  0
 19 20  1  0  0  0
 20 21  1  0  0  0
 21 22  1  0  0  0
 22 23  1  0  0  0
 22 24  1  0  0  0
 24 25  1  0  0  0
  9 10  2  0  0  0
 10 11  1  0  0  0
 11  2  2  0  0  0
 10  5  1  0  0  0
 25 19  1  0  0  0
M  END
> <minimizedAffinity>
-8.19530

$$$$
OCNT-2311302


 24 27  0  0  0  0  0  0  0  0999 V2000
   -4.7766   28.8964    6.4016 C   0  0  0  0  0  0  0  0  0  0  0  0
   -4.0991   27.8440    5.9055 C   0  0  0  0  0  0  0  0  0  0  0  0
   -4.4290   27.1569    4.6093 C   0  0  0  0  0  0  0  0  0  0  0  0
   -5.7522   27.4939    4.0727 N   0  0  0  0  0  0  0  0  0  0  0  0
   -5.9673   28.9437    4.1428 C   0  0  0  0  0  0  0  0  0  0  0  0
   -5.9583   29.4186    5.6047 C   0  0  0  0  0  0  0  0  0  0  0  0
   -6.2900   28.7172    8.9908 O   0  0  0  0  0  0  0  0  0  0  0  0
   -5.2647   29.3569    8.8098 C   0  0  0  0  0  0  0  0  0  0  0  0
   -4.6235   30.0760    9.8266 N   0  0  0  0  0  0  0  0  0  0  0  0
   -3.5045   30.7017    9.3129 C   0  0  0  0  0  0  0  0  0  0  0  0
   -2.6239   31.5295    9.9776 C   0  0  0  0  0  0  0  0  0  0  0  0
   -1.5954   32.0938    9.2243 C   0  0  0  0  0  0  0  0  0  0  0  0
   -1.4929   31.8312    7.8465 C   0  0  0  0  0  0  0  0  0  0  0  0
   -2.4064   30.9850    7.1995 C   0  0  0  0  0  0  0  0  0  0  0  0
   -3.4024   30.3943    7.9553 C   0  0  0  0  0  0  0  0  0  0  0  0
   -4.4772   29.5235    7.6101 N   0  0  0  0  0  0  0  0  0  0  0  0
   -4.9703   30.1198   10.7704 H   0  0  0  0  0  0  0  0  0  0  0  0
   -5.9070   26.9602    2.7070 C   0  0  0  0  0  0  0  0  0  0  0  0
   -5.4014   25.5160    2.5209 C   0  0  0  0  0  0  0  0  0  0  0  0
   -6.1053   24.7648    1.4228 C   0  0  0  0  0  0  0  0  0  0  0  0
   -6.6231   23.4880    1.5456 C   0  0  0  0  0  0  0  0  0  0  0  0
   -7.3638   22.9287    0.1103 S   0  0  0  0  0  0  0  0  0  0  0  0
   -7.0086   24.3879   -0.7034 C   0  0  0  0  0  0  0  0  0  0  0  0
   -6.3383   25.2796    0.1042 C   0  0  0  0  0  0  0  0  0  0  0  0
  7  8  2  0  0  0
  8  9  1  0  0  0
  9 10  1  0  0  0
 10 11  2  0  0  0
 11 12  1  0  0  0
 12 13  2  0  0  0
 13 14  1  0  0  0
 14 15  2  0  0  0
 15 16  1  0  0  0
 16  1  1  0  0  0
  1  2  2  0  0  0
  2  3  1  0  0  0
  3  4  1  0  0  0
  4 18  1  0  0  0
 18 19  1  0  0  0
 19 20  1  0  0  0
 20 21  2  0  0  0
 21 22  1  0  0  0
 22 23  1  0  0  0
 23 24  2  0  0  0
  4  5  1  0  0  0
  5  6  1  0  0  0
 16  8  1  0  0  0
  6  1  1  0  0  0
 15 10  1  0  0  0
 24 20  1  0  0  0
  9 17  1  0  0  0
M  END
> <minimizedAffinity>
-8.88262

$$$$
OCNT-2311311


 25 28  0  0  0  0  0  0  0  0999 V2000
   -4.3298   26.1951    3.2099 C   0  0  0  0  0  0  0  0  0  0  0  0
   -3.0884   25.7753    3.3158 N   0  0  0  0  0  0  0  0  0  0  0  0
   -2.5522   26.2587    4.4979 C   0  0  0  0  0  0  0  0  0  0  0  0
   -1.2839   26.0800    5.0342 C   0  0  0  0  0  0  0  0  0  0  0  0
   -0.9683   26.6487    6.2215 N   0  0  0  0  0  0  0  0  0  0  0  0
   -1.8899   27.3909    6.8670 C   0  0  0  0  0  0  0  0  0  0  0  0
   -3.1368   27.6172    6.4386 N   0  0  0  0  0  0  0  0  0  0  0  0
   -3.4076   27.0345    5.2608 C   0  0  0  0  0  0  0  0  0  0  0  0
   -4.9166   27.1629    4.4855 S   0  0  0  0  0  0  0  0  0  0  0  0
   -6.4683   24.6383    0.5798 C   0  0  0  0  0  0  0  0  0  0  0  0
   -5.7206   24.6504    1.8908 C   0  0  0  0  0  0  0  0  0  0  0  0
   -5.7461   23.6701    2.6252 O   0  0  0  0  0  0  0  0  0  0  0  0
   -5.0874   25.8499    2.1187 N   0  0  0  0  0  0  0  0  0  0  0  0
   -5.1676   26.5948    1.4408 H   0  0  0  0  0  0  0  0  0  0  0  0
   -1.5622   27.9771    8.0932 N   0  0  0  0  0  0  0  0  0  0  0  0
   -0.9599   27.3035    8.5622 H   0  0  0  0  0  0  0  0  0  0  0  0
   -1.1145   29.3485    8.2682 C   0  0  0  0  0  0  0  0  0  0  0  0
   -0.4624   29.8245    6.9237 C   0  0  0  0  0  0  0  0  0  0  0  0
    0.8962   29.3350    7.4584 C   0  0  0  0  0  0  0  0  0  0  0  0
    0.3190   29.4283    8.8838 C   0  0  0  0  0  0  0  0  0  0  0  0
   -2.2411   30.2101    8.8508 C   0  0  0  0  0  0  0  0  0  0  0  0
   -1.7905   31.3764    9.7192 C   0  0  0  0  0  0  0  0  0  0  0  0
   -2.9000   32.3754    9.5032 C   0  0  0  0  0  0  0  0  0  0  0  0
   -3.2207   32.1722    8.0402 C   0  0  0  0  0  0  0  0  0  0  0  0
   -3.0130   30.7806    7.7660 O   0  0  0  0  0  0  0  0  0  0  0  0
 10 11  1  0  0  0
 11 12  2  0  0  0
 11 13  1  0  0  0
 13  1  1  0  0  0
  1  2  2  0  0  0
  2  3  1  0  0  0
  3  4  2  0  0  0
  4  5  1  0  0  0
  5  6  2  0  0  0
  6 15  1  0  0  0
 15 17  1  0  0  0
 17 21  1  0  0  0
 21 22  1  0  0  0
 22 23  1  0  0  0
 23 24  1  0  0  0
 24 25  1  0  0  0
 17 18  1  0  0  0
 18 19  1  0  0  0
 19 20  1  0  0  0
  6  7  1  0  0  0
  7  8  2  0  0  0
  8  9  1  0  0  0
  9  1  1  0  0  0
  8  3  1  0  0  0
 20 17  1  0  0  0
 25 21  1  0  0  0
 13 14  1  0  0  0
 15 16  1  0  0  0
M  END
> <minimizedAffinity>
-9.18925

$$$$
OCNT-2311312


 23 26  0  0  0  0  0  0  0  0999 V2000
   -6.0192   29.1455    7.5970 N   0  0  0  0  0  0  0  0  0  0  0  0
   -5.8299   29.8938    6.4424 C   0  0  0  0  0  0  0  0  0  0  0  0
   -5.0557   30.8559    6.4118 O   0  0  0  0  0  0  0  0  0  0  0  0
   -6.5488   28.2866    7.5391 H   0  0  0  0  0  0  0  0  0  0  0  0
   -6.6389   29.3742    5.2170 C   0  0  0  0  0  0  0  0  0  0  0  0
   -6.1241   29.6795    3.7600 C   0  0  0  0  0  0  0  0  0  0  0  0
   -5.9332   28.2010    3.6105 C   0  0  0  0  0  0  0  0  0  0  0  0
   -5.5280   27.2115    2.7463 C   0  0  0  0  0  0  0  0  0  0  0  0
   -5.5497   25.8979    3.2225 C   0  0  0  0  0  0  0  0  0  0  0  0
   -5.9697   25.6170    4.5370 C   0  0  0  0  0  0  0  0  0  0  0  0
   -6.3767   26.6460    5.3893 C   0  0  0  0  0  0  0  0  0  0  0  0
   -6.3456   27.9279    4.8908 C   0  0  0  0  0  0  0  0  0  0  0  0
   -5.2699   29.3611    8.8058 C   0  0  0  0  0  0  0  0  0  0  0  0
   -5.8319   30.2538    9.8955 C   0  0  0  0  0  0  0  0  0  0  0  0
   -5.8295   28.7731   10.0923 C   0  0  0  0  0  0  0  0  0  0  0  0
   -0.9532   29.2924    8.1786 C   0  0  0  0  0  0  0  0  0  0  0  0
   -1.5493   30.3405    8.8747 C   0  0  0  0  0  0  0  0  0  0  0  0
   -2.9357   30.3512    9.0752 C   0  0  0  0  0  0  0  0  0  0  0  0
   -3.7628   29.3216    8.5947 C   0  0  0  0  0  0  0  0  0  0  0  0
   -3.1405   28.2805    7.8875 C   0  0  0  0  0  0  0  0  0  0  0  0
   -1.7565   28.2644    7.6856 C   0  0  0  0  0  0  0  0  0  0  0  0
    0.7821   29.3206    6.5568 C   0  0  0  0  0  0  0  0  0  0  0  0
    0.3807   29.1564    7.9113 O   0  0  0  0  0  0  0  0  0  0  0  0
 22 23  1  0  0  0
 23 16  1  0  0  0
 16 17  1  0  0  0
 17 18  2  0  0  0
 18 19  1  0  0  0
 19 13  1  0  0  0
 13  1  1  0  0  0
  1  2  1  0  0  0
  2  3  2  0  0  0
  2  5  1  0  0  0
  5  6  1  0  0  0
  6  7  1  0  0  0
  7  8  2  0  0  0
  8  9  1  0  0  0
  9 10  2  0  0  0
 10 11  1  0  0  0
 11 12  2  0  0  0
 13 14  1  0  0  0
 14 15  1  0  0  0
 19 20  2  0  0  0
 20 21  1  0  0  0
 21 16  2  0  0  0
 15 13  1  0  0  0
 12  5  1  0  0  0
 12  7  1  0  0  0
  1  4  1  0  0  0
M  END
> <minimizedAffinity>
-9.01076

$$$$
OCNT-2311317


 26 30  0  0  0  0  0  0  0  0999 V2000
   -4.4196   24.6389    3.5330 C   0  0  0  0  0  0  0  0  0  0  0  0
   -4.6596   25.2603    4.7326 C   0  0  0  0  0  0  0  0  0  0  0  0
   -3.8813   26.3846    4.6816 N   0  0  0  0  0  0  0  0  0  0  0  0
   -3.2354   26.4776    3.5043 N   0  0  0  0  0  0  0  0  0  0  0  0
   -3.5543   25.4044    2.7939 N   0  0  0  0  0  0  0  0  0  0  0  0
   -5.9878   23.0671    2.1004 N   0  0  0  0  0  0  0  0  0  0  0  0
   -6.1821   21.7571    1.8454 N   0  0  0  0  0  0  0  0  0  0  0  0
   -5.3223   21.1474    2.6638 C   0  0  0  0  0  0  0  0  0  0  0  0
   -4.5583   22.0586    3.4124 C   0  0  0  0  0  0  0  0  0  0  0  0
   -4.9936   23.3041    3.0100 C   0  0  0  0  0  0  0  0  0  0  0  0
   -8.4667   24.2430   -0.4157 F   0  0  0  0  0  0  0  0  0  0  0  0
   -7.2034   23.8669   -0.0208 C   0  0  0  0  0  0  0  0  0  0  0  0
   -6.8886   22.7140   -0.6991 F   0  0  0  0  0  0  0  0  0  0  0  0
   -6.1704   24.8919    0.2324 C   0  0  0  0  0  0  0  0  0  0  0  0
   -6.7658   24.0830    1.3784 C   0  0  0  0  0  0  0  0  0  0  0  0
   -3.7429   27.4264    5.6817 C   0  0  0  0  0  0  0  0  0  0  0  0
   -2.3473   27.4771    6.1987 C   0  0  0  0  0  0  0  0  0  0  0  0
   -1.4740   26.5043    5.8920 N   0  0  0  0  0  0  0  0  0  0  0  0
   -0.3407   26.8842    6.5101 N   0  0  0  0  0  0  0  0  0  0  0  0
   -0.4499   28.0501    7.2179 C   0  0  0  0  0  0  0  0  0  0  0  0
    0.4779   28.7599    7.9861 C   0  0  0  0  0  0  0  0  0  0  0  0
    0.0361   29.9459    8.5813 C   0  0  0  0  0  0  0  0  0  0  0  0
   -1.2735   30.3953    8.4097 C   0  0  0  0  0  0  0  0  0  0  0  0
   -2.1867   29.6682    7.6362 C   0  0  0  0  0  0  0  0  0  0  0  0
   -1.7613   28.4705    7.0324 C   0  0  0  0  0  0  0  0  0  0  0  0
    0.4813   26.2996    6.4109 H   0  0  0  0  0  0  0  0  0  0  0  0
 11 12  1  0  0  0
 12 13  1  0  0  0
 12 14  1  0  0  0
 14 15  1  0  0  0
 15  6  1  0  0  0
  6  7  1  0  0  0
  7  8  2  0  0  0
  8  9  1  0  0  0
  9 10  2  0  0  0
 10  1  1  0  0  0
  1  2  2  0  0  0
  2  3  1  0  0  0
  3 16  1  0  0  0
 16 17  1  0  0  0
 17 18  2  0  0  0
 18 19  1  0  0  0
 19 20  1  0  0  0
 20 21  2  0  0  0
 21 22  1  0  0  0
 22 23  2  0  0  0
 23 24  1  0  0  0
 24 25  2  0  0  0
  3  4  1  0  0  0
  4  5  2  0  0  0
 15 12  1  0  0  0
 10  6  1  0  0  0
  5  1  1  0  0  0
 25 17  1  0  0  0
 25 20  1  0  0  0
 19 26  1  0  0  0
M  END
> <minimizedAffinity>
-9.91033

$$$$
OCNT-2311328


 26 29  0  0  0  0  0  0  0  0999 V2000
   -3.6794   23.3146    3.2067 O   0  0  0  0  0  0  0  0  0  0  0  0
   -4.6692   24.0446    3.2484 C   0  0  0  0  0  0  0  0  0  0  0  0
   -4.6456   25.3911    2.9110 N   0  0  0  0  0  0  0  0  0  0  0  0
   -5.9366   23.4175    3.6562 C   0  0  0  0  0  0  0  0  0  0  0  0
   -6.6693   22.7184    2.6949 C   0  0  0  0  0  0  0  0  0  0  0  0
   -7.8518   22.0831    2.9099 N   0  0  0  0  0  0  0  0  0  0  0  0
   -8.2803   22.1479    4.1963 C   0  0  0  0  0  0  0  0  0  0  0  0
   -9.4388   21.6157    4.8034 C   0  0  0  0  0  0  0  0  0  0  0  0
   -9.3723   21.9743    6.1325 C   0  0  0  0  0  0  0  0  0  0  0  0
   -8.2443   22.6955    6.3861 O   0  0  0  0  0  0  0  0  0  0  0  0
   -7.5791   22.8045    5.2029 C   0  0  0  0  0  0  0  0  0  0  0  0
   -6.3761   23.4605    4.9808 C   0  0  0  0  0  0  0  0  0  0  0  0
   -5.8332   26.2275    2.6787 C   0  0  0  0  0  0  0  0  0  0  0  0
   -6.0254   27.3359    3.7004 C   0  0  0  0  0  0  0  0  0  0  0  0
   -5.9615   28.6677    3.2836 C   0  0  0  0  0  0  0  0  0  0  0  0
   -6.1734   29.6782    4.2178 C   0  0  0  0  0  0  0  0  0  0  0  0
   -6.4482   29.3393    5.5377 C   0  0  0  0  0  0  0  0  0  0  0  0
   -6.5114   27.9960    5.8693 C   0  0  0  0  0  0  0  0  0  0  0  0
   -6.3121   26.9938    4.9853 N   0  0  0  0  0  0  0  0  0  0  0  0
   -3.3481   26.0041    2.6174 C   0  0  0  0  0  0  0  0  0  0  0  0
   -2.5087   26.2233    3.8609 C   0  0  0  0  0  0  0  0  0  0  0  0
   -1.1544   25.8952    3.8621 C   0  0  0  0  0  0  0  0  0  0  0  0
   -0.4048   26.1255    5.0126 C   0  0  0  0  0  0  0  0  0  0  0  0
   -1.0214   26.6792    6.1274 C   0  0  0  0  0  0  0  0  0  0  0  0
   -2.3682   26.9869    6.0432 C   0  0  0  0  0  0  0  0  0  0  0  0
   -3.1219   26.7797    4.9402 N   0  0  0  0  0  0  0  0  0  0  0  0
  1  2  2  0  0  0
  2  4  1  0  0  0
  4  5  1  0  0  0
  5  6  2  0  0  0
  6  7  1  0  0  0
  7  8  1  0  0  0
  8  9  2  0  0  0
  9 10  1  0  0  0
 10 11  1  0  0  0
 11 12  1  0  0  0
  2  3  1  0  0  0
  3 13  1  0  0  0
 13 14  1  0  0  0
 14 15  2  0  0  0
 15 16  1  0  0  0
 16 17  2  0  0  0
 17 18  1  0  0  0
 18 19  2  0  0  0
  3 20  1  0  0  0
 20 21  1  0  0  0
 21 22  2  0  0  0
 22 23  1  0  0  0
 23 24  2  0  0  0
 24 25  1  0  0  0
 25 26  2  0  0  0
 12  4  2  0  0  0
 19 14  1  0  0  0
 26 21  1  0  0  0
 11  7  2  0  0  0
M  END
> <minimizedAffinity>
-8.44618

$$$$
OCNT-2311336


 26 29  0  0  0  0  0  0  0  0999 V2000
   -3.9035   31.4708    6.2913 O   0  0  0  0  0  0  0  0  0  0  0  0
   -4.2677   30.5428    7.0074 C   0  0  0  0  0  0  0  0  0  0  0  0
   -5.2339   29.6392    6.6098 N   0  0  0  0  0  0  0  0  0  0  0  0
   -5.1516   28.7249    7.0567 H   0  0  0  0  0  0  0  0  0  0  0  0
   -3.6722   30.2423    8.4073 C   0  0  0  0  0  0  0  0  0  0  0  0
   -3.6031   31.5230    9.2688 C   0  0  0  0  0  0  0  0  0  0  0  0
   -2.1962   31.5425    9.8478 C   0  0  0  0  0  0  0  0  0  0  0  0
   -1.3649   30.8311    8.7897 C   0  0  0  0  0  0  0  0  0  0  0  0
   -2.2662   29.7952    8.3183 N   0  0  0  0  0  0  0  0  0  0  0  0
   -1.8822   28.7305    7.5678 C   0  0  0  0  0  0  0  0  0  0  0  0
   -2.6754   27.7129    7.2934 N   0  0  0  0  0  0  0  0  0  0  0  0
   -2.0236   26.7790    6.5076 C   0  0  0  0  0  0  0  0  0  0  0  0
   -0.7327   27.0957    6.1591 C   0  0  0  0  0  0  0  0  0  0  0  0
   -0.2983   28.5823    6.8707 S   0  0  0  0  0  0  0  0  0  0  0  0
   -5.7797   29.6718    5.2758 C   0  0  0  0  0  0  0  0  0  0  0  0
   -5.7930   28.3038    4.6582 C   0  0  0  0  0  0  0  0  0  0  0  0
   -5.7660   28.1280    3.2743 C   0  0  0  0  0  0  0  0  0  0  0  0
   -5.7576   26.8399    2.7307 C   0  0  0  0  0  0  0  0  0  0  0  0
   -5.7717   25.7461    3.5982 C   0  0  0  0  0  0  0  0  0  0  0  0
   -5.7919   25.8933    4.9485 N   0  0  0  0  0  0  0  0  0  0  0  0
   -5.7881   27.1542    5.4446 C   0  0  0  0  0  0  0  0  0  0  0  0
   -5.7582   24.4128    3.0926 N   0  0  0  0  0  0  0  0  0  0  0  0
   -5.5185   23.2710    3.8354 C   0  0  0  0  0  0  0  0  0  0  0  0
   -5.5942   22.2181    2.9561 C   0  0  0  0  0  0  0  0  0  0  0  0
   -5.8757   22.6629    1.6922 N   0  0  0  0  0  0  0  0  0  0  0  0
   -5.9656   23.9757    1.8048 C   0  0  0  0  0  0  0  0  0  0  0  0
  1  2  2  0  0  0
  2  3  1  0  0  0
  3 15  1  0  0  0
 15 16  1  0  0  0
 16 17  2  0  0  0
 17 18  1  0  0  0
 18 19  2  0  0  0
 19 22  1  0  0  0
 22 23  1  0  0  0
 23 24  2  0  0  0
 24 25  1  0  0  0
 25 26  2  0  0  0
 19 20  1  0  0  0
 20 21  2  0  0  0
  2  5  1  0  0  0
  5  6  1  0  0  0
  6  7  1  0  0  0
  7  8  1  0  0  0
  8  9  1  0  0  0
  9 10  1  0  0  0
 10 11  2  0  0  0
 11 12  1  0  0  0
 12 13  2  0  0  0
 13 14  1  0  0  0
 21 16  1  0  0  0
  9  5  1  0  0  0
 14 10  1  0  0  0
 26 22  1  0  0  0
  3  4  1  0  0  0
M  END
> <minimizedAffinity>
-8.58093

$$$$
OCNT-2311340


 32 35  0  0  0  0  0  0  0  0999 V2000
   -4.2803   25.1049    3.2949 N   0  0  0  0  0  0  0  0  0  0  0  0
   -2.8772   24.7081    3.4875 C   0  0  0  0  0  0  0  0  0  0  0  0
   -1.9987   25.8837    3.9460 C   0  0  0  0  0  0  0  0  0  0  0  0
   -2.4435   26.4337    5.2243 N   0  0  0  0  0  0  0  0  0  0  0  0
   -1.5391   27.1583    5.9738 C   0  0  0  0  0  0  0  0  0  0  0  0
   -0.4228   27.4574    5.5575 O   0  0  0  0  0  0  0  0  0  0  0  0
   -1.9845   27.5214    7.2169 N   0  0  0  0  0  0  0  0  0  0  0  0
   -3.8555   26.2211    5.5615 C   0  0  0  0  0  0  0  0  0  0  0  0
   -4.7574   26.0519    4.3191 C   0  0  0  0  0  0  0  0  0  0  0  0
   -2.6427   26.8845    7.6360 H   0  0  0  0  0  0  0  0  0  0  0  0
   -5.1727   23.9562    3.0170 C   0  0  0  0  0  0  0  0  0  0  0  0
   -5.9378   24.1212    1.7037 C   0  0  0  0  0  0  0  0  0  0  0  0
   -5.7831   25.2386    0.8670 C   0  0  0  0  0  0  0  0  0  0  0  0
   -6.5056   25.3432   -0.3244 C   0  0  0  0  0  0  0  0  0  0  0  0
   -7.3861   24.3317   -0.7012 C   0  0  0  0  0  0  0  0  0  0  0  0
   -7.5402   23.2092    0.1077 C   0  0  0  0  0  0  0  0  0  0  0  0
   -6.8193   23.1026    1.2983 C   0  0  0  0  0  0  0  0  0  0  0  0
   -5.6210   22.5275    4.9841 N   0  0  0  0  0  0  0  0  0  0  0  0
   -6.0798   23.5703    4.2186 C   0  0  0  0  0  0  0  0  0  0  0  0
   -7.1431   24.1107    4.5144 O   0  0  0  0  0  0  0  0  0  0  0  0
   -4.9688   21.8572    4.5968 H   0  0  0  0  0  0  0  0  0  0  0  0
   -6.2561   22.1935    5.6986 H   0  0  0  0  0  0  0  0  0  0  0  0
   -1.1238   28.2243    8.1416 C   0  0  0  0  0  0  0  0  0  0  0  0
   -1.7090   29.5637    8.5220 C   0  0  0  0  0  0  0  0  0  0  0  0
   -0.8719   30.6115    8.9426 C   0  0  0  0  0  0  0  0  0  0  0  0
   -1.3852   31.8696    9.2817 C   0  0  0  0  0  0  0  0  0  0  0  0
   -2.7635   32.0288    9.1719 C   0  0  0  0  0  0  0  0  0  0  0  0
   -3.4536   33.1696    9.4516 O   0  0  0  0  0  0  0  0  0  0  0  0
   -4.7649   32.9060    9.2115 C   0  0  0  0  0  0  0  0  0  0  0  0
   -4.9286   31.6096    8.7800 C   0  0  0  0  0  0  0  0  0  0  0  0
   -3.6331   31.0297    8.7531 C   0  0  0  0  0  0  0  0  0  0  0  0
   -3.1000   29.7727    8.4178 C   0  0  0  0  0  0  0  0  0  0  0  0
 18 19  1  0  0  0
 19 20  2  0  0  0
 19 11  1  0  0  0
 11 12  1  0  0  0
 12 13  2  0  0  0
 13 14  1  0  0  0
 14 15  2  0  0  0
 15 16  1  0  0  0
 16 17  2  0  0  0
 11  1  1  0  0  0
  1  2  1  0  0  0
  2  3  1  0  0  0
  3  4  1  0  0  0
  4  5  1  0  0  0
  5  6  2  0  0  0
  5  7  1  0  0  0
  7 23  1  0  0  0
 23 24  1  0  0  0
 24 25  2  0  0  0
 25 26  1  0  0  0
 26 27  2  0  0  0
 27 28  1  0  0  0
 28 29  1  0  0  0
 29 30  2  0  0  0
 30 31  1  0  0  0
 31 32  2  0  0  0
  4  8  1  0  0  0
  8  9  1  0  0  0
 17 12  1  0  0  0
  9  1  1  0  0  0
 32 24  1  0  0  0
 31 27  1  0  0  0
 18 21  1  0  0  0
 18 22  1  0  0  0
  7 10  1  0  0  0
M  END
> <minimizedAffinity>
-10.25650

$$$$
OCNT-2311344


 23 24  0  0  0  0  0  0  0  0999 V2000
   -3.5470   25.5570    4.0481 C   0  0  0  0  0  0  0  0  0  0  0  0
   -4.1173   26.1559    5.0459 N   0  0  0  0  0  0  0  0  0  0  0  0
   -3.0867   26.7634    5.8031 O   0  0  0  0  0  0  0  0  0  0  0  0
   -1.8581   26.1106    5.4544 C   0  0  0  0  0  0  0  0  0  0  0  0
   -2.0626   25.6950    4.0125 C   0  0  0  0  0  0  0  0  0  0  0  0
   -5.7361   23.4823    0.9884 C   0  0  0  0  0  0  0  0  0  0  0  0
   -5.5269   24.8590    0.9054 C   0  0  0  0  0  0  0  0  0  0  0  0
   -4.8106   25.5228    1.9103 C   0  0  0  0  0  0  0  0  0  0  0  0
   -4.2981   24.8190    3.0083 C   0  0  0  0  0  0  0  0  0  0  0  0
   -4.5005   23.4423    3.0936 C   0  0  0  0  0  0  0  0  0  0  0  0
   -5.2151   22.7922    2.0887 C   0  0  0  0  0  0  0  0  0  0  0  0
   -5.3964   21.4669    2.1977 F   0  0  0  0  0  0  0  0  0  0  0  0
   -7.7050   23.1772   -0.3158 C   0  0  0  0  0  0  0  0  0  0  0  0
   -6.4167   22.7225    0.0775 O   0  0  0  0  0  0  0  0  0  0  0  0
   -0.6679   27.0601    5.6288 C   0  0  0  0  0  0  0  0  0  0  0  0
   -0.2778   27.4012    6.9986 N   0  0  0  0  0  0  0  0  0  0  0  0
    0.6303   26.9678    7.2097 H   0  0  0  0  0  0  0  0  0  0  0  0
   -0.1619   28.8255    7.3809 C   0  0  0  0  0  0  0  0  0  0  0  0
    1.0937   29.1507    8.1924 C   0  0  0  0  0  0  0  0  0  0  0  0
   -1.4786   29.3707    8.0216 C   0  0  0  0  0  0  0  0  0  0  0  0
   -1.2098   30.5024    9.0141 C   0  0  0  0  0  0  0  0  0  0  0  0
   -2.3016   29.8701    6.9500 O   0  0  0  0  0  0  0  0  0  0  0  0
   -1.9488   31.1835    6.5337 C   0  0  0  0  0  0  0  0  0  0  0  0
 13 14  1  0  0  0
 14  6  1  0  0  0
  6  7  1  0  0  0
  7  8  2  0  0  0
  8  9  1  0  0  0
  9  1  1  0  0  0
  1  2  2  0  0  0
  2  3  1  0  0  0
  3  4  1  0  0  0
  4 15  1  0  0  0
 15 16  1  0  0  0
 16 18  1  0  0  0
 18 19  1  0  0  0
 18 20  1  0  0  0
 20 21  1  0  0  0
 20 22  1  0  0  0
 22 23  1  0  0  0
  4  5  1  0  0  0
  9 10  2  0  0  0
 10 11  1  0  0  0
 11 12  1  0  0  0
 11  6  2  0  0  0
  5  1  1  0  0  0
 16 17  1  0  0  0
M  END
> <minimizedAffinity>
-7.73213

$$$$
OCNT-2311351


 24 26  0  0  0  0  0  0  0  0999 V2000
   -1.0771   26.3022    4.9736 C   0  0  0  0  0  0  0  0  0  0  0  0
   -1.8791   26.3362    6.2801 C   0  0  0  0  0  0  0  0  0  0  0  0
   -1.6519   27.6356    7.0258 C   0  0  0  0  0  0  0  0  0  0  0  0
   -2.6431   28.2391    7.7025 C   0  0  0  0  0  0  0  0  0  0  0  0
   -2.3577   29.4988    8.3752 C   0  0  0  0  0  0  0  0  0  0  0  0
   -3.3832   30.2586    8.9486 C   0  0  0  0  0  0  0  0  0  0  0  0
   -3.0859   31.4462    9.6218 C   0  0  0  0  0  0  0  0  0  0  0  0
   -1.7633   31.8737    9.7330 C   0  0  0  0  0  0  0  0  0  0  0  0
   -0.7376   31.1161    9.1675 C   0  0  0  0  0  0  0  0  0  0  0  0
   -1.0365   29.9386    8.4815 C   0  0  0  0  0  0  0  0  0  0  0  0
    0.0238   29.2381    7.9785 O   0  0  0  0  0  0  0  0  0  0  0  0
   -0.2802   28.2666    6.9628 C   0  0  0  0  0  0  0  0  0  0  0  0
   -3.3129   26.1447    6.0400 N   0  0  0  0  0  0  0  0  0  0  0  0
   -3.8529   26.6694    6.7388 H   0  0  0  0  0  0  0  0  0  0  0  0
   -3.7379   26.6121    4.7186 C   0  0  0  0  0  0  0  0  0  0  0  0
   -5.2406   26.3098    4.4300 C   0  0  0  0  0  0  0  0  0  0  0  0
   -5.6155   24.9215    5.0195 C   0  0  0  0  0  0  0  0  0  0  0  0
   -6.7279   24.2615    4.2157 C   0  0  0  0  0  0  0  0  0  0  0  0
   -6.3711   24.0243    2.8542 O   0  0  0  0  0  0  0  0  0  0  0  0
   -5.3551   24.8787    2.3326 C   0  0  0  0  0  0  0  0  0  0  0  0
   -5.4615   26.2910    2.8897 C   0  0  0  0  0  0  0  0  0  0  0  0
   -6.1363   27.4361    5.0132 C   0  0  0  0  0  0  0  0  0  0  0  0
   -5.9188   27.6670    6.4016 O   0  0  0  0  0  0  0  0  0  0  0  0
   -6.3575   26.9487    6.8906 H   0  0  0  0  0  0  0  0  0  0  0  0
  1  2  1  0  0  0
  2 13  1  0  0  0
 13 15  1  0  0  0
 15 16  1  0  0  0
 16 22  1  0  0  0
 22 23  1  0  0  0
 16 17  1  0  0  0
 17 18  1  0  0  0
 18 19  1  0  0  0
 19 20  1  0  0  0
 20 21  1  0  0  0
  2  3  1  0  0  0
  3  4  2  0  0  0
  4  5  1  0  0  0
  5  6  2  0  0  0
  6  7  1  0  0  0
  7  8  2  0  0  0
  8  9  1  0  0  0
  9 10  2  0  0  0
 10 11  1  0  0  0
 11 12  1  0  0  0
 21 16  1  0  0  0
 12  3  1  0  0  0
 10  5  1  0  0  0
 13 14  1  0  0  0
 23 24  1  0  0  0
M  END
> <minimizedAffinity>
-8.49222

$$$$
OCNT-2311357


 27 29  0  0  0  0  0  0  0  0999 V2000
   -0.9352   26.7209    5.4164 C   0  0  0  0  0  0  0  0  0  0  0  0
    0.0148   26.4870    4.6694 O   0  0  0  0  0  0  0  0  0  0  0  0
   -2.2284   26.4206    5.0603 N   0  0  0  0  0  0  0  0  0  0  0  0
   -2.9735   26.9415    5.5218 H   0  0  0  0  0  0  0  0  0  0  0  0
   -1.9850   27.4631    7.6549 C   0  0  0  0  0  0  0  0  0  0  0  0
   -0.7385   27.3869    6.7799 C   0  0  0  0  0  0  0  0  0  0  0  0
    0.1349   28.9766    6.6178 S   0  0  0  0  0  0  0  0  0  0  0  0
   -0.9798   30.1346    7.3029 C   0  0  0  0  0  0  0  0  0  0  0  0
   -1.9826   30.6315    6.6157 N   0  0  0  0  0  0  0  0  0  0  0  0
   -2.7298   31.4710    7.4278 C   0  0  0  0  0  0  0  0  0  0  0  0
   -3.9011   32.1563    7.0482 C   0  0  0  0  0  0  0  0  0  0  0  0
   -4.5469   32.9912    7.9652 C   0  0  0  0  0  0  0  0  0  0  0  0
   -4.0422   33.1468    9.2522 C   0  0  0  0  0  0  0  0  0  0  0  0
   -2.8870   32.4708    9.6568 C   0  0  0  0  0  0  0  0  0  0  0  0
   -2.2481   31.6338    8.7278 C   0  0  0  0  0  0  0  0  0  0  0  0
   -0.8392   30.6662    8.9235 S   0  0  0  0  0  0  0  0  0  0  0  0
   -2.5239   25.8843    3.7411 C   0  0  0  0  0  0  0  0  0  0  0  0
   -3.9699   26.0588    3.2929 C   0  0  0  0  0  0  0  0  0  0  0  0
   -4.4814   27.1525    3.0827 O   0  0  0  0  0  0  0  0  0  0  0  0
   -4.6123   24.8625    3.1877 O   0  0  0  0  0  0  0  0  0  0  0  0
   -4.2275   24.0421    2.0792 C   0  0  0  0  0  0  0  0  0  0  0  0
   -5.4051   23.9032    1.1522 C   0  0  0  0  0  0  0  0  0  0  0  0
   -6.0092   22.6546    0.9498 C   0  0  0  0  0  0  0  0  0  0  0  0
   -7.0875   22.5251    0.0734 C   0  0  0  0  0  0  0  0  0  0  0  0
   -7.5657   23.6392   -0.6139 C   0  0  0  0  0  0  0  0  0  0  0  0
   -6.9631   24.8821   -0.4307 C   0  0  0  0  0  0  0  0  0  0  0  0
   -5.8846   25.0140    0.4451 C   0  0  0  0  0  0  0  0  0  0  0  0
  5  6  1  0  0  0
  6  7  1  0  0  0
  7  8  1  0  0  0
  8  9  2  0  0  0
  9 10  1  0  0  0
 10 11  2  0  0  0
 11 12  1  0  0  0
 12 13  2  0  0  0
 13 14  1  0  0  0
 14 15  2  0  0  0
 15 16  1  0  0  0
  6  1  1  0  0  0
  1  2  2  0  0  0
  1  3  1  0  0  0
  3 17  1  0  0  0
 17 18  1  0  0  0
 18 19  2  0  0  0
 18 20  1  0  0  0
 20 21  1  0  0  0
 21 22  1  0  0  0
 22 23  2  0  0  0
 23 24  1  0  0  0
 24 25  2  0  0  0
 25 26  1  0  0  0
 26 27  2  0  0  0
 16  8  1  0  0  0
 27 22  1  0  0  0
 15 10  1  0  0  0
  3  4  1  0  0  0
M  END
> <minimizedAffinity>
-9.43823

$$$$
OCNT-2311380


 22 25  0  0  0  0  0  0  0  0999 V2000
   -0.4134   25.5837    4.2425 O   0  0  0  0  0  0  0  0  0  0  0  0
   -1.2978   26.1584    4.8739 C   0  0  0  0  0  0  0  0  0  0  0  0
   -2.6342   25.9756    4.5460 N   0  0  0  0  0  0  0  0  0  0  0  0
   -3.7853   26.2340    5.3939 C   0  0  0  0  0  0  0  0  0  0  0  0
   -4.9230   25.3729    4.8249 C   0  0  0  0  0  0  0  0  0  0  0  0
   -6.2118   26.1532    4.7022 C   0  0  0  0  0  0  0  0  0  0  0  0
   -6.0538   26.9933    3.5549 O   0  0  0  0  0  0  0  0  0  0  0  0
   -5.0762   26.3932    2.6780 C   0  0  0  0  0  0  0  0  0  0  0  0
   -4.5243   25.1249    3.3638 C   0  0  0  0  0  0  0  0  0  0  0  0
   -2.9893   25.1041    3.4399 C   0  0  0  0  0  0  0  0  0  0  0  0
   -0.9909   27.0384    5.9719 C   0  0  0  0  0  0  0  0  0  0  0  0
   -1.6439   27.1646    7.1825 C   0  0  0  0  0  0  0  0  0  0  0  0
   -1.0363   28.0975    7.9844 N   0  0  0  0  0  0  0  0  0  0  0  0
    0.0096   28.5030    7.3050 C   0  0  0  0  0  0  0  0  0  0  0  0
    0.0887   27.8809    6.0928 N   0  0  0  0  0  0  0  0  0  0  0  0
    0.8377   27.9870    5.4239 H   0  0  0  0  0  0  0  0  0  0  0  0
   -5.0514   23.8655    2.6796 C   0  0  0  0  0  0  0  0  0  0  0  0
   -5.7370   23.9861    1.4539 C   0  0  0  0  0  0  0  0  0  0  0  0
   -6.2358   22.8650    0.7868 C   0  0  0  0  0  0  0  0  0  0  0  0
   -6.0620   21.5978    1.3310 C   0  0  0  0  0  0  0  0  0  0  0  0
   -5.3912   21.4542    2.5413 C   0  0  0  0  0  0  0  0  0  0  0  0
   -4.8909   22.5764    3.2097 C   0  0  0  0  0  0  0  0  0  0  0  0
  1  2  2  0  0  0
  2 11  1  0  0  0
 11 12  2  0  0  0
 12 13  1  0  0  0
 13 14  2  0  0  0
 14 15  1  0  0  0
  2  3  1  0  0  0
  3  4  1  0  0  0
  4  5  1  0  0  0
  5  6  1  0  0  0
  6  7  1  0  0  0
  7  8  1  0  0  0
  8  9  1  0  0  0
  9 17  1  0  0  0
 17 18  2  0  0  0
 18 19  1  0  0  0
 19 20  2  0  0  0
 20 21  1  0  0  0
 21 22  2  0  0  0
  9 10  1  0  0  0
 15 11  1  0  0  0
 10  3  1  0  0  0
  9  5  1  0  0  0
 22 17  1  0  0  0
 15 16  1  0  0  0
M  END
> <minimizedAffinity>
-8.79775

$$$$
OCNT-2311391


 29 31  0  0  0  0  0  0  0  0999 V2000
   -3.0151   26.2519    5.4005 O   0  0  0  0  0  0  0  0  0  0  0  0
   -2.4546   25.9380    4.2025 C   0  0  0  0  0  0  0  0  0  0  0  0
   -1.3892   25.3491    4.0685 O   0  0  0  0  0  0  0  0  0  0  0  0
   -3.3178   26.4173    3.0595 C   0  0  0  0  0  0  0  0  0  0  0  0
   -4.5607   24.2806    3.6236 C   0  0  0  0  0  0  0  0  0  0  0  0
   -4.4232   25.4263    2.6033 C   0  0  0  0  0  0  0  0  0  0  0  0
   -4.0614   24.8313    1.2290 C   0  0  0  0  0  0  0  0  0  0  0  0
   -5.7450   26.2547    2.5150 C   0  0  0  0  0  0  0  0  0  0  0  0
   -6.0017   27.2741    3.6022 C   0  0  0  0  0  0  0  0  0  0  0  0
   -5.9692   28.6465    3.3130 C   0  0  0  0  0  0  0  0  0  0  0  0
   -6.2085   29.5897    4.3149 C   0  0  0  0  0  0  0  0  0  0  0  0
   -6.4875   29.1663    5.6116 C   0  0  0  0  0  0  0  0  0  0  0  0
   -6.7795   30.3293    6.8458 Cl  0  0  0  0  0  0  0  0  0  0  0  0
   -6.5328   27.8077    5.9141 C   0  0  0  0  0  0  0  0  0  0  0  0
   -6.2937   26.8647    4.9114 C   0  0  0  0  0  0  0  0  0  0  0  0
   -2.1789   26.0350    6.5428 C   0  0  0  0  0  0  0  0  0  0  0  0
   -1.7004   27.3389    7.1799 C   0  0  0  0  0  0  0  0  0  0  0  0
   -2.5228   28.0450    7.8796 N   0  0  0  0  0  0  0  0  0  0  0  0
   -2.1879   29.3111    8.3770 C   0  0  0  0  0  0  0  0  0  0  0  0
   -3.2069   30.0317    9.0126 C   0  0  0  0  0  0  0  0  0  0  0  0
   -2.9866   31.3221    9.5075 C   0  0  0  0  0  0  0  0  0  0  0  0
   -1.7346   31.9169    9.3725 C   0  0  0  0  0  0  0  0  0  0  0  0
   -0.7053   31.2175    8.7487 C   0  0  0  0  0  0  0  0  0  0  0  0
   -0.9477   29.9258    8.2635 C   0  0  0  0  0  0  0  0  0  0  0  0
    0.3545   29.0457    7.5144 S   0  0  0  0  0  0  0  0  0  0  0  0
    0.8142   29.8179    6.3804 O   0  0  0  0  0  0  0  0  0  0  0  0
    1.2593   28.6178    8.5580 O   0  0  0  0  0  0  0  0  0  0  0  0
   -0.3804   27.7034    6.9021 N   0  0  0  0  0  0  0  0  0  0  0  0
    0.0445   27.3442    6.0392 H   0  0  0  0  0  0  0  0  0  0  0  0
  5  6  1  0  0  0
  6  7  1  0  0  0
  6  4  1  0  0  0
  4  2  1  0  0  0
  2  3  2  0  0  0
  2  1  1  0  0  0
  1 16  1  0  0  0
 16 17  1  0  0  0
 17 18  2  0  0  0
 18 19  1  0  0  0
 19 20  2  0  0  0
 20 21  1  0  0  0
 21 22  2  0  0  0
 22 23  1  0  0  0
 23 24  2  0  0  0
 24 25  1  0  0  0
 25 26  2  0  0  0
 25 27  2  0  0  0
 25 28  1  0  0  0
  6  8  1  0  0  0
  8  9  1  0  0  0
  9 10  1  0  0  0
 10 11  2  0  0  0
 11 12  1  0  0  0
 12 13  1  0  0  0
 12 14  2  0  0  0
 14 15  1  0  0  0
 28 17  1  0  0  0
 15  9  2  0  0  0
 24 19  1  0  0  0
 28 29  1  0  0  0
M  END
> <minimizedAffinity>
-10.05423

$$$$
OCNT-2311397


 28 30  0  0  0  0  0  0  0  0999 V2000
   -0.2432   28.5394    6.3438 N   0  0  0  0  0  0  0  0  0  0  0  0
   -1.2680   27.7074    6.7087 C   0  0  0  0  0  0  0  0  0  0  0  0
   -1.8153   27.7145    7.8037 O   0  0  0  0  0  0  0  0  0  0  0  0
   -1.6369   26.8892    5.6739 N   0  0  0  0  0  0  0  0  0  0  0  0
    0.3982   28.1696    5.6547 H   0  0  0  0  0  0  0  0  0  0  0  0
   -1.4260   27.2268    4.7463 H   0  0  0  0  0  0  0  0  0  0  0  0
    1.0088   28.7721    8.4153 C   0  0  0  0  0  0  0  0  0  0  0  0
    0.3108   29.5167    7.2722 C   0  0  0  0  0  0  0  0  0  0  0  0
   -0.7653   30.5003    7.7206 C   0  0  0  0  0  0  0  0  0  0  0  0
   -0.8503   30.8359    9.0858 C   0  0  0  0  0  0  0  0  0  0  0  0
   -1.8281   31.7174    9.5549 C   0  0  0  0  0  0  0  0  0  0  0  0
   -2.7413   32.2832    8.6632 C   0  0  0  0  0  0  0  0  0  0  0  0
   -2.6581   31.9776    7.3013 C   0  0  0  0  0  0  0  0  0  0  0  0
   -1.6731   31.1000    6.8328 C   0  0  0  0  0  0  0  0  0  0  0  0
   -3.7670   33.1579    9.1458 C   0  0  0  0  0  0  0  0  0  0  0  0
   -4.5865   33.8804    9.5301 N   0  0  0  0  0  0  0  0  0  0  0  0
   -2.7940   26.0217    5.7983 C   0  0  0  0  0  0  0  0  0  0  0  0
   -3.3857   25.7212    4.4661 C   0  0  0  0  0  0  0  0  0  0  0  0
   -4.3629   24.8222    4.0926 C   0  0  0  0  0  0  0  0  0  0  0  0
   -4.4704   24.9471    2.7284 N   0  0  0  0  0  0  0  0  0  0  0  0
   -3.5916   25.8904    2.2978 N   0  0  0  0  0  0  0  0  0  0  0  0
   -2.9413   26.3721    3.3476 N   0  0  0  0  0  0  0  0  0  0  0  0
   -5.3215   24.2446    1.8357 C   0  0  0  0  0  0  0  0  0  0  0  0
   -5.3805   22.8441    1.8942 C   0  0  0  0  0  0  0  0  0  0  0  0
   -6.2184   22.1391    1.0278 C   0  0  0  0  0  0  0  0  0  0  0  0
   -6.9974   22.8235    0.0986 C   0  0  0  0  0  0  0  0  0  0  0  0
   -6.9417   24.2160    0.0312 C   0  0  0  0  0  0  0  0  0  0  0  0
   -6.1075   24.9289    0.8968 C   0  0  0  0  0  0  0  0  0  0  0  0
  7  8  1  0  0  0
  8  1  1  0  0  0
  1  2  1  0  0  0
  2  3  2  0  0  0
  2  4  1  0  0  0
  4 17  1  0  0  0
 17 18  1  0  0  0
 18 19  2  0  0  0
 19 20  1  0  0  0
 20 23  1  0  0  0
 23 24  2  0  0  0
 24 25  1  0  0  0
 25 26  2  0  0  0
 26 27  1  0  0  0
 27 28  2  0  0  0
 20 21  1  0  0  0
 21 22  2  0  0  0
  8  9  1  0  0  0
  9 10  1  0  0  0
 10 11  2  0  0  0
 11 12  1  0  0  0
 12 15  1  0  0  0
 15 16  3  0  0  0
 12 13  2  0  0  0
 13 14  1  0  0  0
 22 18  1  0  0  0
 14  9  2  0  0  0
 28 23  1  0  0  0
  1  5  1  0  0  0
  4  6  1  0  0  0
M  END
> <minimizedAffinity>
-9.87241

$$$$
OCNT-2311405


 23 24  0  0  0  0  0  0  0  0999 V2000
   -5.1170   25.2147    3.2273 C   0  0  0  0  0  0  0  0  0  0  0  0
   -5.9791   25.6707    4.4241 C   0  0  0  0  0  0  0  0  0  0  0  0
   -5.7153   27.1183    4.8262 C   0  0  0  0  0  0  0  0  0  0  0  0
   -4.3099   27.3374    5.1423 N   0  0  0  0  0  0  0  0  0  0  0  0
   -3.9679   28.2327    6.1397 C   0  0  0  0  0  0  0  0  0  0  0  0
   -4.7756   28.9211    6.7520 O   0  0  0  0  0  0  0  0  0  0  0  0
   -3.3158   26.5599    4.4108 C   0  0  0  0  0  0  0  0  0  0  0  0
   -3.8552   26.0858    3.0675 C   0  0  0  0  0  0  0  0  0  0  0  0
   -5.8974   25.1932    1.8929 C   0  0  0  0  0  0  0  0  0  0  0  0
   -5.9649   23.8220    1.3206 N   0  0  0  0  0  0  0  0  0  0  0  0
   -6.7307   25.2708   -0.6400 C   0  0  0  0  0  0  0  0  0  0  0  0
   -6.4692   23.8645   -0.0837 C   0  0  0  0  0  0  0  0  0  0  0  0
   -7.7873   23.0783   -0.2132 C   0  0  0  0  0  0  0  0  0  0  0  0
   -6.7568   22.9359    2.2159 C   0  0  0  0  0  0  0  0  0  0  0  0
   -5.9578   21.7098    2.6973 C   0  0  0  0  0  0  0  0  0  0  0  0
   -5.8191   20.7702    1.6327 O   0  0  0  0  0  0  0  0  0  0  0  0
   -6.6570   20.8504    1.1306 H   0  0  0  0  0  0  0  0  0  0  0  0
   -2.6266   28.2558    6.3697 O   0  0  0  0  0  0  0  0  0  0  0  0
   -2.1831   29.1575    7.3961 C   0  0  0  0  0  0  0  0  0  0  0  0
   -1.3281   30.2377    6.7421 C   0  0  0  0  0  0  0  0  0  0  0  0
    0.0248   29.5679    6.5108 C   0  0  0  0  0  0  0  0  0  0  0  0
    0.1116   28.4263    7.5233 C   0  0  0  0  0  0  0  0  0  0  0  0
   -1.1871   28.4719    8.3256 C   0  0  0  0  0  0  0  0  0  0  0  0
 11 12  1  0  0  0
 12 13  1  0  0  0
 12 10  1  0  0  0
 10 14  1  0  0  0
 14 15  1  0  0  0
 15 16  1  0  0  0
 10  9  1  0  0  0
  9  1  1  0  0  0
  1  2  1  0  0  0
  2  3  1  0  0  0
  3  4  1  0  0  0
  4  5  1  0  0  0
  5  6  2  0  0  0
  5 18  1  0  0  0
 18 19  1  0  0  0
 19 20  1  0  0  0
 20 21  1  0  0  0
 21 22  1  0  0  0
 22 23  1  0  0  0
  4  7  1  0  0  0
  7  8  1  0  0  0
  8  1  1  0  0  0
 23 19  1  0  0  0
 16 17  1  0  0  0
M  END
> <minimizedAffinity>
-7.64013

$$$$
OCNT-2311414


 25 27  0  0  0  0  0  0  0  0999 V2000
   -4.4485   27.7191    5.6616 N   0  0  0  0  0  0  0  0  0  0  0  0
   -3.6495   26.7956    5.0130 C   0  0  0  0  0  0  0  0  0  0  0  0
   -2.4197   26.9220    5.4842 N   0  0  0  0  0  0  0  0  0  0  0  0
   -2.4006   27.9461    6.3910 N   0  0  0  0  0  0  0  0  0  0  0  0
   -3.6045   28.4725    6.4499 C   0  0  0  0  0  0  0  0  0  0  0  0
   -4.0241   29.5316    7.2037 N   0  0  0  0  0  0  0  0  0  0  0  0
   -3.7769   29.3829    8.6497 C   0  0  0  0  0  0  0  0  0  0  0  0
   -4.1764   30.6598    9.3856 C   0  0  0  0  0  0  0  0  0  0  0  0
   -3.2928   31.8588    8.9559 C   0  0  0  0  0  0  0  0  0  0  0  0
   -4.1311   33.1508    9.0484 C   0  0  0  0  0  0  0  0  0  0  0  0
   -2.7860   31.6651    7.5022 C   0  0  0  0  0  0  0  0  0  0  0  0
   -3.7776   30.8780    6.6488 C   0  0  0  0  0  0  0  0  0  0  0  0
   -2.0774   31.9803    9.9074 C   0  0  0  0  0  0  0  0  0  0  0  0
   -0.8621   31.8992    9.1613 O   0  0  0  0  0  0  0  0  0  0  0  0
   -0.3285   30.5818    9.1657 C   0  0  0  0  0  0  0  0  0  0  0  0
   -4.0555   25.8108    4.0143 C   0  0  0  0  0  0  0  0  0  0  0  0
   -3.8409   26.0366    2.6574 C   0  0  0  0  0  0  0  0  0  0  0  0
   -4.2149   25.1580    1.6900 N   0  0  0  0  0  0  0  0  0  0  0  0
   -4.8272   24.0411    2.1364 C   0  0  0  0  0  0  0  0  0  0  0  0
   -5.0570   23.8128    3.4828 C   0  0  0  0  0  0  0  0  0  0  0  0
   -4.6821   24.6863    4.4481 N   0  0  0  0  0  0  0  0  0  0  0  0
   -5.8991   27.8107    5.6184 C   0  0  0  0  0  0  0  0  0  0  0  0
   -6.1674   29.5736    3.8079 C   0  0  0  0  0  0  0  0  0  0  0  0
   -6.4552   29.0981    5.0333 C   0  0  0  0  0  0  0  0  0  0  0  0
   -7.4003   29.8371    5.9414 C   0  0  0  0  0  0  0  0  0  0  0  0
 23 24  2  0  0  0
 24 25  1  0  0  0
 24 22  1  0  0  0
 22  1  1  0  0  0
  1  2  1  0  0  0
  2 16  1  0  0  0
 16 17  2  0  0  0
 17 18  1  0  0  0
 18 19  2  0  0  0
 19 20  1  0  0  0
 20 21  2  0  0  0
  2  3  2  0  0  0
  3  4  1  0  0  0
  4  5  2  0  0  0
  5  6  1  0  0  0
  6  7  1  0  0  0
  7  8  1  0  0  0
  8  9  1  0  0  0
  9 10  1  0  0  0
  9 13  1  0  0  0
 13 14  1  0  0  0
 14 15  1  0  0  0
  9 11  1  0  0  0
 11 12  1  0  0  0
  5  1  1  0  0  0
 12  6  1  0  0  0
 21 16  1  0  0  0
M  END
> <minimizedAffinity>
-8.43303

$$$$
OCNT-2311438


 25 28  0  0  0  0  0  0  0  0999 V2000
   -3.5630   23.3807    2.6949 O   0  0  0  0  0  0  0  0  0  0  0  0
   -4.3137   24.1248    3.3253 C   0  0  0  0  0  0  0  0  0  0  0  0
   -3.9220   25.4227    3.6964 N   0  0  0  0  0  0  0  0  0  0  0  0
   -2.6782   25.9368    3.1387 C   0  0  0  0  0  0  0  0  0  0  0  0
   -1.5204   25.7440    4.1107 C   0  0  0  0  0  0  0  0  0  0  0  0
   -1.4805   26.7721    5.2426 C   0  0  0  0  0  0  0  0  0  0  0  0
   -2.7511   26.8359    6.1218 C   0  0  0  0  0  0  0  0  0  0  0  0
   -3.9640   27.3722    5.3315 C   0  0  0  0  0  0  0  0  0  0  0  0
   -4.7205   26.2935    4.5542 C   0  0  0  0  0  0  0  0  0  0  0  0
   -2.5642   27.6517    7.3406 N   0  0  0  0  0  0  0  0  0  0  0  0
   -1.1560   27.9613    7.6567 C   0  0  0  0  0  0  0  0  0  0  0  0
   -0.8332   29.4649    7.6307 C   0  0  0  0  0  0  0  0  0  0  0  0
   -1.6571   30.2390    8.5107 O   0  0  0  0  0  0  0  0  0  0  0  0
   -2.9761   29.6998    8.6699 C   0  0  0  0  0  0  0  0  0  0  0  0
   -3.4271   28.8369    7.4798 C   0  0  0  0  0  0  0  0  0  0  0  0
   -5.6318   23.6770    3.7398 C   0  0  0  0  0  0  0  0  0  0  0  0
   -6.7695   23.4143    2.9936 C   0  0  0  0  0  0  0  0  0  0  0  0
   -7.8501   22.9673    3.8243 C   0  0  0  0  0  0  0  0  0  0  0  0
   -7.4912   22.8864    5.1517 C   0  0  0  0  0  0  0  0  0  0  0  0
   -5.8638   23.3334    5.4049 S   0  0  0  0  0  0  0  0  0  0  0  0
   -6.8630   23.5575    1.5755 N   0  0  0  0  0  0  0  0  0  0  0  0
   -7.2907   22.6065    0.6711 C   0  0  0  0  0  0  0  0  0  0  0  0
   -7.2266   23.2222   -0.5531 C   0  0  0  0  0  0  0  0  0  0  0  0
   -6.7800   24.4953   -0.3942 N   0  0  0  0  0  0  0  0  0  0  0  0
   -6.5534   24.6897    0.8975 N   0  0  0  0  0  0  0  0  0  0  0  0
  1  2  2  0  0  0
  2 16  1  0  0  0
 16 17  2  0  0  0
 17 21  1  0  0  0
 21 22  1  0  0  0
 22 23  2  0  0  0
 23 24  1  0  0  0
 24 25  2  0  0  0
 17 18  1  0  0  0
 18 19  2  0  0  0
 19 20  1  0  0  0
  2  3  1  0  0  0
  3  4  1  0  0  0
  4  5  1  0  0  0
  5  6  1  0  0  0
  6  7  1  0  0  0
  7 10  1  0  0  0
 10 11  1  0  0  0
 11 12  1  0  0  0
 12 13  1  0  0  0
 13 14  1  0  0  0
 14 15  1  0  0  0
  7  8  1  0  0  0
  8  9  1  0  0  0
 20 16  1  0  0  0
  9  3  1  0  0  0
 25 21  1  0  0  0
 15 10  1  0  0  0
M  END
> <minimizedAffinity>
-8.15073

$$$$
OCNT-2311440


 33 36  0  0  0  0  0  0  0  0999 V2000
   -0.6635   28.8887    8.3253 C   0  0  0  0  0  0  0  0  0  0  0  0
    0.8320   29.2015    8.1636 C   0  0  0  0  0  0  0  0  0  0  0  0
    0.9728   29.4819    6.6735 C   0  0  0  0  0  0  0  0  0  0  0  0
    0.0103   28.4871    6.0395 C   0  0  0  0  0  0  0  0  0  0  0  0
   -1.0058   28.2398    7.0550 N   0  0  0  0  0  0  0  0  0  0  0  0
   -2.0774   27.3565    6.9854 C   0  0  0  0  0  0  0  0  0  0  0  0
   -2.7796   27.1636    7.9789 O   0  0  0  0  0  0  0  0  0  0  0  0
   -2.3307   26.6340    5.7299 C   0  0  0  0  0  0  0  0  0  0  0  0
   -3.5224   26.5773    5.0056 C   0  0  0  0  0  0  0  0  0  0  0  0
   -4.8034   27.2907    5.2295 C   0  0  0  0  0  0  0  0  0  0  0  0
   -3.2424   25.7217    3.9439 N   0  0  0  0  0  0  0  0  0  0  0  0
   -1.9193   25.4151    3.9648 N   0  0  0  0  0  0  0  0  0  0  0  0
   -1.3794   25.9177    5.0569 N   0  0  0  0  0  0  0  0  0  0  0  0
   -4.0700   25.1636    2.9250 C   0  0  0  0  0  0  0  0  0  0  0  0
   -4.1282   23.7667    2.7863 C   0  0  0  0  0  0  0  0  0  0  0  0
   -4.9291   23.1795    1.7984 C   0  0  0  0  0  0  0  0  0  0  0  0
   -5.6888   23.9670    0.9355 C   0  0  0  0  0  0  0  0  0  0  0  0
   -5.6611   25.3528    1.0878 C   0  0  0  0  0  0  0  0  0  0  0  0
   -4.8588   25.9478    2.0768 C   0  0  0  0  0  0  0  0  0  0  0  0
   -6.4186   23.2664    0.0184 O   0  0  0  0  0  0  0  0  0  0  0  0
   -7.8263   23.3444    0.1271 C   0  0  0  0  0  0  0  0  0  0  0  0
   -8.2147   24.5057   -0.4630 F   0  0  0  0  0  0  0  0  0  0  0  0
   -8.3876   22.3397   -0.5879 F   0  0  0  0  0  0  0  0  0  0  0  0
   -1.5052   30.1649    8.5808 C   0  0  0  0  0  0  0  0  0  0  0  0
   -2.6971   29.8561    9.3777 N   0  0  0  0  0  0  0  0  0  0  0  0
   -2.5789   30.0016   10.3765 H   0  0  0  0  0  0  0  0  0  0  0  0
   -5.0888   33.8420    8.0784 C   0  0  0  0  0  0  0  0  0  0  0  0
   -5.0855   32.3607    8.3073 C   0  0  0  0  0  0  0  0  0  0  0  0
   -3.9172   31.8003    8.7008 N   0  0  0  0  0  0  0  0  0  0  0  0
   -3.8860   30.4781    8.9581 C   0  0  0  0  0  0  0  0  0  0  0  0
   -5.0147   29.6808    8.7925 C   0  0  0  0  0  0  0  0  0  0  0  0
   -6.2111   30.2606    8.3868 C   0  0  0  0  0  0  0  0  0  0  0  0
   -6.2533   31.6263    8.1498 C   0  0  0  0  0  0  0  0  0  0  0  0
 27 28  1  0  0  0
 28 29  1  0  0  0
 29 30  2  0  0  0
 30 25  1  0  0  0
 25 24  1  0  0  0
 24  1  1  0  0  0
  1  2  1  0  0  0
  2  3  1  0  0  0
  3  4  1  0  0  0
  4  5  1  0  0  0
  5  6  1  0  0  0
  6  7  2  0  0  0
  6  8  1  0  0  0
  8  9  2  0  0  0
  9 10  1  0  0  0
  9 11  1  0  0  0
 11 14  1  0  0  0
 14 15  1  0  0  0
 15 16  2  0  0  0
 16 17  1  0  0  0
 17 20  1  0  0  0
 20 21  1  0  0  0
 21 22  1  0  0  0
 21 23  1  0  0  0
 17 18  2  0  0  0
 18 19  1  0  0  0
 11 12  1  0  0  0
 12 13  2  0  0  0
 30 31  1  0  0  0
 31 32  2  0  0  0
 32 33  1  0  0  0
 33 28  2  0  0  0
  5  1  1  0  0  0
 13  8  1  0  0  0
 19 14  2  0  0  0
 25 26  1  0  0  0
M  END
> <minimizedAffinity>
-10.54081

$$$$
OCNT-2311450


 24 26  0  0  0  0  0  0  0  0999 V2000
   -6.1393   28.3980    5.1285 N   0  0  0  0  0  0  0  0  0  0  0  0
   -7.0713   28.5129    6.2567 C   0  0  0  0  0  0  0  0  0  0  0  0
   -6.3184   28.9015    7.5282 C   0  0  0  0  0  0  0  0  0  0  0  0
   -5.6047   30.2557    7.3686 C   0  0  0  0  0  0  0  0  0  0  0  0
   -6.5276   31.2928    7.7588 O   0  0  0  0  0  0  0  0  0  0  0  0
   -5.2130   30.5217    5.9035 C   0  0  0  0  0  0  0  0  0  0  0  0
   -4.9252   29.2182    5.1673 C   0  0  0  0  0  0  0  0  0  0  0  0
   -6.4704   31.3106    8.7376 H   0  0  0  0  0  0  0  0  0  0  0  0
   -6.2090   23.6202    5.2966 C   0  0  0  0  0  0  0  0  0  0  0  0
   -6.0554   24.8517    4.4497 C   0  0  0  0  0  0  0  0  0  0  0  0
   -5.8159   24.7773    3.0813 C   0  0  0  0  0  0  0  0  0  0  0  0
   -5.6762   25.9706    2.3798 C   0  0  0  0  0  0  0  0  0  0  0  0
   -5.7865   27.1847    3.0589 C   0  0  0  0  0  0  0  0  0  0  0  0
   -6.0444   27.2023    4.4282 C   0  0  0  0  0  0  0  0  0  0  0  0
   -6.1618   26.0380    5.1077 N   0  0  0  0  0  0  0  0  0  0  0  0
   -5.7051   23.5264    2.3967 C   0  0  0  0  0  0  0  0  0  0  0  0
   -5.6178   22.5111    1.8410 N   0  0  0  0  0  0  0  0  0  0  0  0
   -4.3665   30.3743    8.3101 C   0  0  0  0  0  0  0  0  0  0  0  0
   -3.3662   31.3192    7.7537 N   0  0  0  0  0  0  0  0  0  0  0  0
   -3.0354   32.4189    8.6766 C   0  0  0  0  0  0  0  0  0  0  0  0
   -2.1691   32.0062    9.8712 C   0  0  0  0  0  0  0  0  0  0  0  0
   -0.9112   31.2726    9.4215 C   0  0  0  0  0  0  0  0  0  0  0  0
   -1.2618   30.1355    8.4693 C   0  0  0  0  0  0  0  0  0  0  0  0
   -2.1356   30.6354    7.3172 C   0  0  0  0  0  0  0  0  0  0  0  0
  9 10  1  0  0  0
 10 11  2  0  0  0
 11 16  1  0  0  0
 16 17  3  0  0  0
 11 12  1  0  0  0
 12 13  2  0  0  0
 13 14  1  0  0  0
 14  1  1  0  0  0
  1  2  1  0  0  0
  2  3  1  0  0  0
  3  4  1  0  0  0
  4  5  1  0  0  0
  4 18  1  0  0  0
 18 19  1  0  0  0
 19 20  1  0  0  0
 20 21  1  0  0  0
 21 22  1  0  0  0
 22 23  1  0  0  0
 23 24  1  0  0  0
  4  6  1  0  0  0
  6  7  1  0  0  0
 14 15  2  0  0  0
 15 10  1  0  0  0
  7  1  1  0  0  0
 24 19  1  0  0  0
  5  8  1  0  0  0
M  END
> <minimizedAffinity>
-8.19853

$$$$
OCNT-2311473


 24 26  0  0  0  0  0  0  0  0999 V2000
   -4.8704   28.2814    4.8501 N   0  0  0  0  0  0  0  0  0  0  0  0
   -4.9834   28.4973    6.2102 C   0  0  0  0  0  0  0  0  0  0  0  0
   -6.0723   28.4749    6.7818 O   0  0  0  0  0  0  0  0  0  0  0  0
   -3.9539   28.4887    4.4402 H   0  0  0  0  0  0  0  0  0  0  0  0
   -3.7022   28.7809    6.8527 C   0  0  0  0  0  0  0  0  0  0  0  0
   -2.5918   28.1460    6.5286 N   0  0  0  0  0  0  0  0  0  0  0  0
   -1.5318   28.6512    7.2649 C   0  0  0  0  0  0  0  0  0  0  0  0
   -0.1922   28.2456    7.1893 C   0  0  0  0  0  0  0  0  0  0  0  0
    0.7561   28.8217    7.9715 N   0  0  0  0  0  0  0  0  0  0  0  0
    0.3894   29.7968    8.8288 C   0  0  0  0  0  0  0  0  0  0  0  0
   -0.9027   30.2715    8.9778 C   0  0  0  0  0  0  0  0  0  0  0  0
   -1.8641   29.6679    8.1631 C   0  0  0  0  0  0  0  0  0  0  0  0
   -3.5543   29.9879    8.0535 S   0  0  0  0  0  0  0  0  0  0  0  0
   -6.0081   28.2910    3.9637 C   0  0  0  0  0  0  0  0  0  0  0  0
   -5.8379   27.3155    2.8005 C   0  0  0  0  0  0  0  0  0  0  0  0
   -5.7209   25.8523    3.2534 C   0  0  0  0  0  0  0  0  0  0  0  0
   -4.0048   24.1221    2.7984 C   0  0  0  0  0  0  0  0  0  0  0  0
   -5.0097   25.0395    2.2449 N   0  0  0  0  0  0  0  0  0  0  0  0
   -5.8885   24.3742    1.3561 C   0  0  0  0  0  0  0  0  0  0  0  0
   -6.3276   25.0393    0.2074 C   0  0  0  0  0  0  0  0  0  0  0  0
   -7.1640   24.3899   -0.6988 C   0  0  0  0  0  0  0  0  0  0  0  0
   -7.5449   23.0820   -0.4472 C   0  0  0  0  0  0  0  0  0  0  0  0
   -7.0640   22.4818    0.7007 C   0  0  0  0  0  0  0  0  0  0  0  0
   -6.2512   23.0943    1.5913 N   0  0  0  0  0  0  0  0  0  0  0  0
 17 18  1  0  0  0
 18 16  1  0  0  0
 16 15  1  0  0  0
 15 14  1  0  0  0
 14  1  1  0  0  0
  1  2  1  0  0  0
  2  3  2  0  0  0
  2  5  1  0  0  0
  5  6  2  0  0  0
  6  7  1  0  0  0
  7  8  2  0  0  0
  8  9  1  0  0  0
  9 10  2  0  0  0
 10 11  1  0  0  0
 11 12  2  0  0  0
 12 13  1  0  0  0
 18 19  1  0  0  0
 19 20  2  0  0  0
 20 21  1  0  0  0
 21 22  2  0  0  0
 22 23  1  0  0  0
 23 24  2  0  0  0
 13  5  1  0  0  0
 24 19  1  0  0  0
 12  7  1  0  0  0
  1  4  1  0  0  0
M  END
> <minimizedAffinity>
-8.41462

$$$$
OCNT-2311479


 21 23  0  0  0  0  0  0  0  0999 V2000
   -4.9873   30.0868    7.5397 S   0  0  0  0  0  0  0  0  0  0  0  0
   -5.4191   29.2768    8.6582 O   0  0  0  0  0  0  0  0  0  0  0  0
   -5.5465   31.3999    7.2985 O   0  0  0  0  0  0  0  0  0  0  0  0
   -3.2994   30.2451    7.6195 N   0  0  0  0  0  0  0  0  0  0  0  0
   -2.7240   31.5806    7.2842 C   0  0  0  0  0  0  0  0  0  0  0  0
   -2.2818   32.2155    8.6119 C   0  0  0  0  0  0  0  0  0  0  0  0
   -2.5716   31.1822    9.6840 C   0  0  0  0  0  0  0  0  0  0  0  0
   -2.6845   29.8656    8.9282 C   0  0  0  0  0  0  0  0  0  0  0  0
   -1.3153   29.1730    8.6951 C   0  0  0  0  0  0  0  0  0  0  0  0
   -0.2778   29.9429    7.9548 N   0  0  0  0  0  0  0  0  0  0  0  0
    0.9873   29.1993    8.0064 C   0  0  0  0  0  0  0  0  0  0  0  0
   -0.6724   30.1526    6.5505 C   0  0  0  0  0  0  0  0  0  0  0  0
   -1.5601   31.3831    6.3106 C   0  0  0  0  0  0  0  0  0  0  0  0
   -5.6622   26.6818    2.5675 C   0  0  0  0  0  0  0  0  0  0  0  0
   -5.4902   27.5471    3.7792 C   0  0  0  0  0  0  0  0  0  0  0  0
   -6.1537   28.7775    3.8848 C   0  0  0  0  0  0  0  0  0  0  0  0
   -6.0068   29.5615    5.0316 C   0  0  0  0  0  0  0  0  0  0  0  0
   -5.1987   29.1065    6.0773 C   0  0  0  0  0  0  0  0  0  0  0  0
   -4.5482   27.8748    5.9974 C   0  0  0  0  0  0  0  0  0  0  0  0
   -4.7027   27.1086    4.8497 C   0  0  0  0  0  0  0  0  0  0  0  0
   -4.0767   25.9256    4.7745 F   0  0  0  0  0  0  0  0  0  0  0  0
 14 15  1  0  0  0
 15 16  1  0  0  0
 16 17  2  0  0  0
 17 18  1  0  0  0
 18  1  1  0  0  0
  1  2  2  0  0  0
  1  3  2  0  0  0
  1  4  1  0  0  0
  4  5  1  0  0  0
  5  6  1  0  0  0
  6  7  1  0  0  0
  7  8  1  0  0  0
  8  9  1  0  0  0
  9 10  1  0  0  0
 10 11  1  0  0  0
 10 12  1  0  0  0
 12 13  1  0  0  0
 18 19  2  0  0  0
 19 20  1  0  0  0
 20 21  1  0  0  0
 20 15  2  0  0  0
  8  4  1  0  0  0
 13  5  1  0  0  0
M  END
> <minimizedAffinity>
-8.33810

$$$$
OCNT-2311515


 30 32  0  0  0  0  0  0  0  0999 V2000
   -2.0319   25.8415    4.2118 O   0  0  0  0  0  0  0  0  0  0  0  0
   -3.0337   26.5429    4.2468 C   0  0  0  0  0  0  0  0  0  0  0  0
   -3.3164   27.4261    5.2548 N   0  0  0  0  0  0  0  0  0  0  0  0
   -3.9825   26.5782    3.2582 N   0  0  0  0  0  0  0  0  0  0  0  0
   -4.2862   27.6596    5.3878 H   0  0  0  0  0  0  0  0  0  0  0  0
   -4.8825   26.9589    3.5035 H   0  0  0  0  0  0  0  0  0  0  0  0
   -2.4852   27.4486    6.4360 C   0  0  0  0  0  0  0  0  0  0  0  0
   -2.7853   28.6618    7.2842 C   0  0  0  0  0  0  0  0  0  0  0  0
   -4.0839   29.2054    7.2397 C   0  0  0  0  0  0  0  0  0  0  0  0
   -4.3559   30.3098    8.0137 C   0  0  0  0  0  0  0  0  0  0  0  0
   -3.3988   30.8758    8.8173 C   0  0  0  0  0  0  0  0  0  0  0  0
   -2.1180   30.3684    8.9026 C   0  0  0  0  0  0  0  0  0  0  0  0
   -1.8048   29.2360    8.1386 C   0  0  0  0  0  0  0  0  0  0  0  0
   -3.8658   31.9596    9.4947 O   0  0  0  0  0  0  0  0  0  0  0  0
   -5.2250   32.0173    9.0117 C   0  0  0  0  0  0  0  0  0  0  0  0
   -5.5463   30.9614    8.0831 O   0  0  0  0  0  0  0  0  0  0  0  0
   -0.5858   28.6099    8.1415 O   0  0  0  0  0  0  0  0  0  0  0  0
    0.5464   29.3793    7.7700 C   0  0  0  0  0  0  0  0  0  0  0  0
    0.8170   29.1721    6.4589 F   0  0  0  0  0  0  0  0  0  0  0  0
    1.6055   28.8980    8.4685 F   0  0  0  0  0  0  0  0  0  0  0  0
   -3.9192   25.6533    2.1446 C   0  0  0  0  0  0  0  0  0  0  0  0
   -5.2705   24.9846    1.8336 C   0  0  0  0  0  0  0  0  0  0  0  0
   -5.6327   25.1253    0.3086 C   0  0  0  0  0  0  0  0  0  0  0  0
   -7.0703   24.7495   -0.1596 C   0  0  0  0  0  0  0  0  0  0  0  0
   -7.3885   23.2567   -0.4648 C   0  0  0  0  0  0  0  0  0  0  0  0
   -7.3235   22.2192    0.7071 C   0  0  0  0  0  0  0  0  0  0  0  0
   -6.3187   22.6247    1.7842 C   0  0  0  0  0  0  0  0  0  0  0  0
   -7.2604   23.6836    2.0584 F   0  0  0  0  0  0  0  0  0  0  0  0
   -5.3846   22.6990    0.6807 F   0  0  0  0  0  0  0  0  0  0  0  0
   -5.3160   23.5404    2.4812 C   0  0  0  0  0  0  0  0  0  0  0  0
  1  2  2  0  0  0
  2  3  1  0  0  0
  3  7  1  0  0  0
  7  8  1  0  0  0
  8  9  1  0  0  0
  9 10  2  0  0  0
 10 11  1  0  0  0
 11 12  2  0  0  0
 12 13  1  0  0  0
 13 17  1  0  0  0
 17 18  1  0  0  0
 18 19  1  0  0  0
 18 20  1  0  0  0
 11 14  1  0  0  0
 14 15  1  0  0  0
 15 16  1  0  0  0
  2  4  1  0  0  0
  4 21  1  0  0  0
 21 22  1  0  0  0
 22 23  1  0  0  0
 23 24  1  0  0  0
 24 25  1  0  0  0
 25 26  1  0  0  0
 26 27  1  0  0  0
 27 28  1  0  0  0
 27 29  1  0  0  0
 27 30  1  0  0  0
 13  8  2  0  0  0
 30 22  1  0  0  0
 16 10  1  0  0  0
  3  5  1  0  0  0
  4  6  1  0  0  0
M  END
> <minimizedAffinity>
-10.18304

$$$$
OCNT-2311523


 23 26  0  0  0  0  0  0  0  0999 V2000
   -3.4572   26.0377    2.2006 O   0  0  0  0  0  0  0  0  0  0  0  0
   -4.6768   25.7006    2.9014 S   0  0  0  0  0  0  0  0  0  0  0  0
   -5.8123   26.5969    2.9085 O   0  0  0  0  0  0  0  0  0  0  0  0
   -5.2375   24.1211    2.3218 C   0  0  0  0  0  0  0  0  0  0  0  0
   -4.9553   22.9636    3.0593 C   0  0  0  0  0  0  0  0  0  0  0  0
   -5.4060   21.7145    2.6071 C   0  0  0  0  0  0  0  0  0  0  0  0
   -6.1303   21.6094    1.4176 C   0  0  0  0  0  0  0  0  0  0  0  0
   -6.3904   22.7651    0.6987 C   0  0  0  0  0  0  0  0  0  0  0  0
   -5.9457   24.0077    1.1342 C   0  0  0  0  0  0  0  0  0  0  0  0
   -6.3363   25.0323    0.1322 C   0  0  0  0  0  0  0  0  0  0  0  0
   -7.3061   24.3530   -0.7001 O   0  0  0  0  0  0  0  0  0  0  0  0
   -7.1076   22.9247   -0.5918 C   0  0  0  0  0  0  0  0  0  0  0  0
   -4.3066   25.3966    4.5188 N   0  0  0  0  0  0  0  0  0  0  0  0
   -4.4405   24.4213    4.7827 H   0  0  0  0  0  0  0  0  0  0  0  0
   -3.2753   26.1478    5.1540 C   0  0  0  0  0  0  0  0  0  0  0  0
   -3.5404   27.3526    5.7669 C   0  0  0  0  0  0  0  0  0  0  0  0
   -2.6100   28.0992    6.3995 N   0  0  0  0  0  0  0  0  0  0  0  0
   -1.3455   27.6257    6.4212 C   0  0  0  0  0  0  0  0  0  0  0  0
   -0.9911   26.4564    5.8466 N   0  0  0  0  0  0  0  0  0  0  0  0
   -1.9580   25.7497    5.2198 C   0  0  0  0  0  0  0  0  0  0  0  0
   -0.2864   28.4329    7.1291 C   0  0  0  0  0  0  0  0  0  0  0  0
    0.5916   29.3871    6.3484 C   0  0  0  0  0  0  0  0  0  0  0  0
   -0.4472   29.9294    7.2850 C   0  0  0  0  0  0  0  0  0  0  0  0
  1  2  2  0  0  0
  2  3  2  0  0  0
  2 13  1  0  0  0
 13 15  1  0  0  0
 15 16  2  0  0  0
 16 17  1  0  0  0
 17 18  2  0  0  0
 18 21  1  0  0  0
 21 22  1  0  0  0
 22 23  1  0  0  0
 18 19  1  0  0  0
 19 20  2  0  0  0
  2  4  1  0  0  0
  4  5  2  0  0  0
  5  6  1  0  0  0
  6  7  2  0  0  0
  7  8  1  0  0  0
  8  9  2  0  0  0
  9 10  1  0  0  0
 10 11  1  0  0  0
 11 12  1  0  0  0
 20 15  1  0  0  0
  9  4  1  0  0  0
 23 21  1  0  0  0
 12  8  1  0  0  0
 13 14  1  0  0  0
M  END
> <minimizedAffinity>
-8.60291

$$$$
OCNT-2311525


 24 26  0  0  0  0  0  0  0  0999 V2000
   -5.1638   29.0202    6.4114 N   0  0  0  0  0  0  0  0  0  0  0  0
   -6.3581   28.5655    7.1476 C   0  0  0  0  0  0  0  0  0  0  0  0
   -6.4888   29.1032    8.5799 C   0  0  0  0  0  0  0  0  0  0  0  0
   -5.1335   29.4638    9.1640 C   0  0  0  0  0  0  0  0  0  0  0  0
   -4.4988   30.5689    8.3109 C   0  0  0  0  0  0  0  0  0  0  0  0
   -4.7971   30.3975    6.7931 C   0  0  0  0  0  0  0  0  0  0  0  0
   -3.1003   30.7712    8.6344 N   0  0  0  0  0  0  0  0  0  0  0  0
   -2.5834   31.8501    9.3705 C   0  0  0  0  0  0  0  0  0  0  0  0
   -3.1877   32.8062    9.8271 O   0  0  0  0  0  0  0  0  0  0  0  0
   -1.2028   31.6357    9.4959 N   0  0  0  0  0  0  0  0  0  0  0  0
   -0.8901   30.4390    8.8676 C   0  0  0  0  0  0  0  0  0  0  0  0
    0.3210   29.8055    8.7340 C   0  0  0  0  0  0  0  0  0  0  0  0
    0.3059   28.5964    8.0385 C   0  0  0  0  0  0  0  0  0  0  0  0
   -0.9089   28.1101    7.5344 C   0  0  0  0  0  0  0  0  0  0  0  0
   -2.1046   28.7335    7.6718 N   0  0  0  0  0  0  0  0  0  0  0  0
   -2.0540   29.8900    8.3354 C   0  0  0  0  0  0  0  0  0  0  0  0
   -0.5799   32.2636    9.9759 H   0  0  0  0  0  0  0  0  0  0  0  0
   -5.2533   28.8020    4.9414 C   0  0  0  0  0  0  0  0  0  0  0  0
   -6.2215   29.8037    4.2755 C   0  0  0  0  0  0  0  0  0  0  0  0
   -5.7168   27.3525    4.6157 C   0  0  0  0  0  0  0  0  0  0  0  0
   -5.8216   26.9798    3.1258 C   0  0  0  0  0  0  0  0  0  0  0  0
   -3.5610   25.9483    2.7612 C   0  0  0  0  0  0  0  0  0  0  0  0
   -5.0713   25.7043    2.6996 C   0  0  0  0  0  0  0  0  0  0  0  0
   -5.4625   25.2370    1.2967 C   0  0  0  0  0  0  0  0  0  0  0  0
 22 23  1  0  0  0
 23 24  1  0  0  0
 23 21  1  0  0  0
 21 20  1  0  0  0
 20 18  1  0  0  0
 18 19  1  0  0  0
 18  1  1  0  0  0
  1  2  1  0  0  0
  2  3  1  0  0  0
  3  4  1  0  0  0
  4  5  1  0  0  0
  5  7  1  0  0  0
  7  8  1  0  0  0
  8  9  2  0  0  0
  8 10  1  0  0  0
 10 11  1  0  0  0
 11 12  1  0  0  0
 12 13  2  0  0  0
 13 14  1  0  0  0
 14 15  2  0  0  0
 15 16  1  0  0  0
  5  6  1  0  0  0
  6  1  1  0  0  0
 16  7  1  0  0  0
 16 11  2  0  0  0
 10 17  1  0  0  0
M  END
> <minimizedAffinity>
-8.55457

$$$$
OCNT-2311532


 23 25  0  0  0  0  0  0  0  0999 V2000
   -5.7031   26.9275    4.0534 C   0  0  0  0  0  0  0  0  0  0  0  0
   -6.1095   27.8525    3.0816 C   0  0  0  0  0  0  0  0  0  0  0  0
   -6.1078   29.2140    3.3633 C   0  0  0  0  0  0  0  0  0  0  0  0
   -6.4986   30.0825    2.4212 F   0  0  0  0  0  0  0  0  0  0  0  0
   -5.7071   29.6938    4.6050 C   0  0  0  0  0  0  0  0  0  0  0  0
   -5.2955   28.7986    5.5984 C   0  0  0  0  0  0  0  0  0  0  0  0
   -5.3029   27.4208    5.3103 C   0  0  0  0  0  0  0  0  0  0  0  0
   -5.8398   23.6251    2.1517 C   0  0  0  0  0  0  0  0  0  0  0  0
   -5.6539   22.7221    3.2063 C   0  0  0  0  0  0  0  0  0  0  0  0
   -5.4856   23.1782    4.5148 C   0  0  0  0  0  0  0  0  0  0  0  0
   -5.5038   24.5453    4.7920 C   0  0  0  0  0  0  0  0  0  0  0  0
   -5.6905   25.4835    3.7675 C   0  0  0  0  0  0  0  0  0  0  0  0
   -5.8598   25.0016    2.4572 C   0  0  0  0  0  0  0  0  0  0  0  0
   -7.3405   23.6778    0.0447 C   0  0  0  0  0  0  0  0  0  0  0  0
   -6.0558   23.1961    0.7134 C   0  0  0  0  0  0  0  0  0  0  0  0
   -6.0407   21.7677    0.6659 O   0  0  0  0  0  0  0  0  0  0  0  0
   -6.1267   21.5081   -0.2660 H   0  0  0  0  0  0  0  0  0  0  0  0
   -4.8656   29.3018    6.9531 C   0  0  0  0  0  0  0  0  0  0  0  0
   -3.5726   29.9618    6.9015 N   0  0  0  0  0  0  0  0  0  0  0  0
   -3.3509   31.3098    6.8287 C   0  0  0  0  0  0  0  0  0  0  0  0
   -1.9835   31.4396    6.7572 C   0  0  0  0  0  0  0  0  0  0  0  0
   -1.3764   30.2107    6.7749 N   0  0  0  0  0  0  0  0  0  0  0  0
   -2.3569   29.3400    6.8613 C   0  0  0  0  0  0  0  0  0  0  0  0
 14 15  1  0  0  0
 15 16  1  0  0  0
 15  8  1  0  0  0
  8  9  2  0  0  0
  9 10  1  0  0  0
 10 11  2  0  0  0
 11 12  1  0  0  0
 12  1  1  0  0  0
  1  2  1  0  0  0
  2  3  2  0  0  0
  3  4  1  0  0  0
  3  5  1  0  0  0
  5  6  2  0  0  0
  6 18  1  0  0  0
 18 19  1  0  0  0
 19 20  1  0  0  0
 20 21  2  0  0  0
 21 22  1  0  0  0
 22 23  2  0  0  0
  6  7  1  0  0  0
 12 13  2  0  0  0
 13  8  1  0  0  0
  7  1  2  0  0  0
 23 19  1  0  0  0
 16 17  1  0  0  0
M  END
> <minimizedAffinity>
-8.74245

$$$$
OCNT-2311552


 27 30  0  0  0  0  0  0  0  0999 V2000
   -3.1502   26.7913    5.5120 C   0  0  0  0  0  0  0  0  0  0  0  0
   -2.5506   25.9783    6.2087 O   0  0  0  0  0  0  0  0  0  0  0  0
   -3.3010   26.6311    4.1596 N   0  0  0  0  0  0  0  0  0  0  0  0
   -3.8933   27.2516    3.6201 H   0  0  0  0  0  0  0  0  0  0  0  0
   -6.2640   27.8589    5.3487 C   0  0  0  0  0  0  0  0  0  0  0  0
   -5.0359   28.4229    5.9425 C   0  0  0  0  0  0  0  0  0  0  0  0
   -3.7245   28.0062    6.0401 C   0  0  0  0  0  0  0  0  0  0  0  0
   -3.0688   29.0740    6.7228 C   0  0  0  0  0  0  0  0  0  0  0  0
   -3.9356   30.0707    6.9809 N   0  0  0  0  0  0  0  0  0  0  0  0
   -5.1579   29.6523    6.5046 O   0  0  0  0  0  0  0  0  0  0  0  0
   -1.6735   29.1499    7.1517 C   0  0  0  0  0  0  0  0  0  0  0  0
   -0.6449   29.2459    6.2184 C   0  0  0  0  0  0  0  0  0  0  0  0
    0.6681   29.3148    6.6753 C   0  0  0  0  0  0  0  0  0  0  0  0
    0.9147   29.2906    8.0427 C   0  0  0  0  0  0  0  0  0  0  0  0
   -0.1671   29.2066    8.9024 C   0  0  0  0  0  0  0  0  0  0  0  0
   -1.4526   29.1437    8.4915 N   0  0  0  0  0  0  0  0  0  0  0  0
   -2.8563   25.4354    3.4922 C   0  0  0  0  0  0  0  0  0  0  0  0
   -3.9369   24.9852    2.5695 C   0  0  0  0  0  0  0  0  0  0  0  0
   -4.6131   25.7305    1.7079 N   0  0  0  0  0  0  0  0  0  0  0  0
   -5.4788   24.8726    1.0926 C   0  0  0  0  0  0  0  0  0  0  0  0
   -5.3336   23.5966    1.5804 C   0  0  0  0  0  0  0  0  0  0  0  0
   -6.1072   22.4040    1.1676 C   0  0  0  0  0  0  0  0  0  0  0  0
   -6.8284   22.7037   -0.1643 C   0  0  0  0  0  0  0  0  0  0  0  0
   -7.4647   24.1123   -0.1963 C   0  0  0  0  0  0  0  0  0  0  0  0
   -6.4282   25.2379    0.0117 C   0  0  0  0  0  0  0  0  0  0  0  0
   -4.3542   23.6735    2.5249 N   0  0  0  0  0  0  0  0  0  0  0  0
   -3.9918   22.9154    3.0867 H   0  0  0  0  0  0  0  0  0  0  0  0
  5  6  1  0  0  0
  6  7  2  0  0  0
  7  1  1  0  0  0
  1  2  2  0  0  0
  1  3  1  0  0  0
  3 17  1  0  0  0
 17 18  1  0  0  0
 18 19  2  0  0  0
 19 20  1  0  0  0
 20 21  2  0  0  0
 21 22  1  0  0  0
 22 23  1  0  0  0
 23 24  1  0  0  0
 24 25  1  0  0  0
 21 26  1  0  0  0
  7  8  1  0  0  0
  8 11  1  0  0  0
 11 12  2  0  0  0
 12 13  1  0  0  0
 13 14  2  0  0  0
 14 15  1  0  0  0
 15 16  2  0  0  0
  8  9  2  0  0  0
  9 10  1  0  0  0
 10  6  1  0  0  0
 26 18  1  0  0  0
 16 11  1  0  0  0
 25 20  1  0  0  0
  3  4  1  0  0  0
 26 27  1  0  0  0
M  END
> <minimizedAffinity>
-9.63126

$$$$
OCNT-2311554


 26 28  0  0  0  0  0  0  0  0999 V2000
   -5.7874   27.7030    3.0464 C   0  0  0  0  0  0  0  0  0  0  0  0
   -4.5496   26.3716    3.1771 S   0  0  0  0  0  0  0  0  0  0  0  0
   -5.5962   23.8443    5.2268 C   0  0  0  0  0  0  0  0  0  0  0  0
   -5.9085   24.0019    3.7835 C   0  0  0  0  0  0  0  0  0  0  0  0
   -5.5513   24.9701    2.8679 C   0  0  0  0  0  0  0  0  0  0  0  0
   -6.1509   24.6530    1.6155 C   0  0  0  0  0  0  0  0  0  0  0  0
   -6.1683   25.2530    0.3380 C   0  0  0  0  0  0  0  0  0  0  0  0
   -6.8749   24.6404   -0.7031 C   0  0  0  0  0  0  0  0  0  0  0  0
   -7.5597   23.4470   -0.4890 C   0  0  0  0  0  0  0  0  0  0  0  0
   -7.5621   22.8331    0.7670 C   0  0  0  0  0  0  0  0  0  0  0  0
   -6.8508   23.4596    1.7976 C   0  0  0  0  0  0  0  0  0  0  0  0
   -6.6930   23.0922    3.1149 N   0  0  0  0  0  0  0  0  0  0  0  0
   -7.1117   22.2710    3.5288 H   0  0  0  0  0  0  0  0  0  0  0  0
   -6.0839   28.3427    4.4051 C   0  0  0  0  0  0  0  0  0  0  0  0
   -5.4087   29.6219    4.5912 N   0  0  0  0  0  0  0  0  0  0  0  0
   -4.6426   29.8426    5.7225 C   0  0  0  0  0  0  0  0  0  0  0  0
   -4.4436   28.9779    6.5645 O   0  0  0  0  0  0  0  0  0  0  0  0
   -4.1491   31.1328    5.7268 N   0  0  0  0  0  0  0  0  0  0  0  0
   -5.9342   30.4279    4.2869 H   0  0  0  0  0  0  0  0  0  0  0  0
   -4.2390   31.6580    4.8712 H   0  0  0  0  0  0  0  0  0  0  0  0
   -3.3975   31.6520    6.7672 C   0  0  0  0  0  0  0  0  0  0  0  0
   -2.0360   31.7104    6.9770 C   0  0  0  0  0  0  0  0  0  0  0  0
   -1.8772   32.3520    8.2173 C   0  0  0  0  0  0  0  0  0  0  0  0
   -3.0445   32.6805    8.7726 N   0  0  0  0  0  0  0  0  0  0  0  0
   -3.9539   32.2484    7.8769 N   0  0  0  0  0  0  0  0  0  0  0  0
   -5.3562   32.4475    8.1550 C   0  0  0  0  0  0  0  0  0  0  0  0
  3  4  1  0  0  0
  4  5  2  0  0  0
  5  2  1  0  0  0
  2  1  1  0  0  0
  1 14  1  0  0  0
 14 15  1  0  0  0
 15 16  1  0  0  0
 16 17  2  0  0  0
 16 18  1  0  0  0
 18 21  1  0  0  0
 21 22  2  0  0  0
 22 23  1  0  0  0
 23 24  2  0  0  0
 24 25  1  0  0  0
 25 26  1  0  0  0
  5  6  1  0  0  0
  6  7  2  0  0  0
  7  8  1  0  0  0
  8  9  2  0  0  0
  9 10  1  0  0  0
 10 11  2  0  0  0
 11 12  1  0  0  0
 12  4  1  0  0  0
 25 21  1  0  0  0
 11  6  1  0  0  0
 15 19  1  0  0  0
 18 20  1  0  0  0
 12 13  1  0  0  0
M  END
> <minimizedAffinity>
-9.30699

$$$$
OCNT-2311559


 28 30  0  0  0  0  0  0  0  0999 V2000
   -5.0980   30.0391    7.0845 C   0  0  0  0  0  0  0  0  0  0  0  0
   -4.4299   29.1112    6.2685 C   0  0  0  0  0  0  0  0  0  0  0  0
   -5.1348   28.1488    5.5224 C   0  0  0  0  0  0  0  0  0  0  0  0
   -6.5358   28.1374    5.5956 C   0  0  0  0  0  0  0  0  0  0  0  0
   -7.2114   29.0599    6.3984 C   0  0  0  0  0  0  0  0  0  0  0  0
   -6.4917   29.9966    7.1311 C   0  0  0  0  0  0  0  0  0  0  0  0
   -7.1621   30.8876    7.8764 F   0  0  0  0  0  0  0  0  0  0  0  0
   -4.3897   27.2064    4.6893 C   0  0  0  0  0  0  0  0  0  0  0  0
   -3.2079   26.5957    5.0529 C   0  0  0  0  0  0  0  0  0  0  0  0
   -2.6557   25.5865    3.7862 S   0  0  0  0  0  0  0  0  0  0  0  0
   -4.0424   25.9970    2.8422 C   0  0  0  0  0  0  0  0  0  0  0  0
   -4.8341   26.8776    3.4164 N   0  0  0  0  0  0  0  0  0  0  0  0
   -4.2814   25.5690    1.5802 N   0  0  0  0  0  0  0  0  0  0  0  0
   -3.8504   26.1451    0.8652 H   0  0  0  0  0  0  0  0  0  0  0  0
   -5.3019   24.7460    1.0684 C   0  0  0  0  0  0  0  0  0  0  0  0
   -6.1609   25.2929    0.0974 C   0  0  0  0  0  0  0  0  0  0  0  0
   -7.1749   24.5289   -0.4862 C   0  0  0  0  0  0  0  0  0  0  0  0
   -7.3355   23.2054   -0.1044 C   0  0  0  0  0  0  0  0  0  0  0  0
   -8.3061   22.4690   -0.6599 F   0  0  0  0  0  0  0  0  0  0  0  0
   -6.5024   22.6366    0.8482 C   0  0  0  0  0  0  0  0  0  0  0  0
   -5.4872   23.4046    1.4288 C   0  0  0  0  0  0  0  0  0  0  0  0
   -4.3215   31.0646    7.8749 C   0  0  0  0  0  0  0  0  0  0  0  0
   -3.5873   30.4697    9.0786 C   0  0  0  0  0  0  0  0  0  0  0  0
    0.1078   29.7548    8.6854 C   0  0  0  0  0  0  0  0  0  0  0  0
   -1.1330   30.5515    8.9872 C   0  0  0  0  0  0  0  0  0  0  0  0
   -1.0834   31.6929    9.4335 O   0  0  0  0  0  0  0  0  0  0  0  0
   -2.3069   29.8828    8.7291 N   0  0  0  0  0  0  0  0  0  0  0  0
   -2.2651   28.8811    8.5756 H   0  0  0  0  0  0  0  0  0  0  0  0
 24 25  1  0  0  0
 25 26  2  0  0  0
 25 27  1  0  0  0
 27 23  1  0  0  0
 23 22  1  0  0  0
 22  1  1  0  0  0
  1  2  1  0  0  0
  2  3  2  0  0  0
  3  8  1  0  0  0
  8  9  2  0  0  0
  9 10  1  0  0  0
 10 11  1  0  0  0
 11 13  1  0  0  0
 13 15  1  0  0  0
 15 16  1  0  0  0
 16 17  2  0  0  0
 17 18  1  0  0  0
 18 19  1  0  0  0
 18 20  2  0  0  0
 20 21  1  0  0  0
 11 12  2  0  0  0
  3  4  1  0  0  0
  4  5  2  0  0  0
  5  6  1  0  0  0
  6  7  1  0  0  0
  6  1  2  0  0  0
 12  8  1  0  0  0
 21 15  2  0  0  0
 27 28  1  0  0  0
 13 14  1  0  0  0
M  END
> <minimizedAffinity>
-9.59792

$$$$
OCNT-2311573


 22 24  0  0  0  0  0  0  0  0999 V2000
   -1.1311   30.4743    6.5334 C   0  0  0  0  0  0  0  0  0  0  0  0
   -1.5633   29.8302    7.8583 C   0  0  0  0  0  0  0  0  0  0  0  0
   -0.6306   30.3999    8.9854 C   0  0  0  0  0  0  0  0  0  0  0  0
   -1.3826   31.5923    9.5445 C   0  0  0  0  0  0  0  0  0  0  0  0
   -2.8159   31.0914    9.5302 C   0  0  0  0  0  0  0  0  0  0  0  0
   -2.8989   30.3292    8.2811 N   0  0  0  0  0  0  0  0  0  0  0  0
   -4.1482   29.9064    7.8961 C   0  0  0  0  0  0  0  0  0  0  0  0
   -5.0661   29.3781    8.7819 C   0  0  0  0  0  0  0  0  0  0  0  0
   -6.2866   28.9680    8.2860 C   0  0  0  0  0  0  0  0  0  0  0  0
   -6.6223   29.0420    6.9920 N   0  0  0  0  0  0  0  0  0  0  0  0
   -5.6684   29.5468    6.1949 C   0  0  0  0  0  0  0  0  0  0  0  0
   -4.4514   29.9719    6.5855 N   0  0  0  0  0  0  0  0  0  0  0  0
   -5.9677   29.6419    4.7905 C   0  0  0  0  0  0  0  0  0  0  0  0
   -6.2055   29.7219    3.6534 N   0  0  0  0  0  0  0  0  0  0  0  0
   -1.3914   28.2816    7.9112 C   0  0  0  0  0  0  0  0  0  0  0  0
   -1.5291   27.4539    6.6537 C   0  0  0  0  0  0  0  0  0  0  0  0
   -2.7898   27.0971    6.1539 C   0  0  0  0  0  0  0  0  0  0  0  0
   -2.9054   26.3439    4.9832 C   0  0  0  0  0  0  0  0  0  0  0  0
   -1.7629   25.9482    4.2896 C   0  0  0  0  0  0  0  0  0  0  0  0
   -0.5080   26.3180    4.7654 C   0  0  0  0  0  0  0  0  0  0  0  0
    1.0453   25.7817    3.8319 Br  0  0  0  0  0  0  0  0  0  0  0  0
   -0.3865   27.0739    5.9316 C   0  0  0  0  0  0  0  0  0  0  0  0
  1  2  1  0  0  0
  2 15  1  0  0  0
 15 16  1  0  0  0
 16 17  2  0  0  0
 17 18  1  0  0  0
 18 19  2  0  0  0
 19 20  1  0  0  0
 20 21  1  0  0  0
 20 22  2  0  0  0
  2  3  1  0  0  0
  3  4  1  0  0  0
  4  5  1  0  0  0
  5  6  1  0  0  0
  6  7  1  0  0  0
  7  8  1  0  0  0
  8  9  2  0  0  0
  9 10  1  0  0  0
 10 11  2  0  0  0
 11 13  1  0  0  0
 13 14  3  0  0  0
 11 12  1  0  0  0
  6  2  1  0  0  0
 12  7  2  0  0  0
 22 16  1  0  0  0
M  END
> <minimizedAffinity>
-8.40561

$$$$
OCNT-2311582


 23 25  0  0  0  0  0  0  0  0999 V2000
   -6.1859   29.7980    4.2458 O   0  0  0  0  0  0  0  0  0  0  0  0
   -5.7934   28.8316    4.8934 C   0  0  0  0  0  0  0  0  0  0  0  0
   -5.4446   27.6159    4.3225 N   0  0  0  0  0  0  0  0  0  0  0  0
   -5.4513   27.5173    2.8545 C   0  0  0  0  0  0  0  0  0  0  0  0
   -4.6532   26.3030    2.3598 C   0  0  0  0  0  0  0  0  0  0  0  0
   -5.1805   25.0301    2.9077 N   0  0  0  0  0  0  0  0  0  0  0  0
   -5.7957   25.1342    4.2533 C   0  0  0  0  0  0  0  0  0  0  0  0
   -5.2663   26.3453    5.0472 C   0  0  0  0  0  0  0  0  0  0  0  0
   -5.6928   28.9992    6.3521 C   0  0  0  0  0  0  0  0  0  0  0  0
   -6.7642   28.7040    7.1852 C   0  0  0  0  0  0  0  0  0  0  0  0
   -6.7211   28.8264    8.5331 N   0  0  0  0  0  0  0  0  0  0  0  0
   -5.5387   29.2245    9.0655 C   0  0  0  0  0  0  0  0  0  0  0  0
   -5.4916   29.3466   10.4012 F   0  0  0  0  0  0  0  0  0  0  0  0
   -4.4043   29.5073    8.3101 C   0  0  0  0  0  0  0  0  0  0  0  0
   -2.9328   30.0030    9.0465 Cl  0  0  0  0  0  0  0  0  0  0  0  0
   -4.4814   29.3869    6.9258 C   0  0  0  0  0  0  0  0  0  0  0  0
   -6.0256   24.3338    2.0195 C   0  0  0  0  0  0  0  0  0  0  0  0
   -6.2287   24.8450    0.7315 C   0  0  0  0  0  0  0  0  0  0  0  0
   -7.0545   24.1690   -0.1665 C   0  0  0  0  0  0  0  0  0  0  0  0
   -7.6602   22.9973    0.2447 C   0  0  0  0  0  0  0  0  0  0  0  0
   -8.4603   22.3183   -0.5857 F   0  0  0  0  0  0  0  0  0  0  0  0
   -7.4247   22.5470    1.5278 C   0  0  0  0  0  0  0  0  0  0  0  0
   -6.6254   23.1885    2.4157 N   0  0  0  0  0  0  0  0  0  0  0  0
  1  2  2  0  0  0
  2  9  1  0  0  0
  9 10  1  0  0  0
 10 11  2  0  0  0
 11 12  1  0  0  0
 12 13  1  0  0  0
 12 14  2  0  0  0
 14 15  1  0  0  0
 14 16  1  0  0  0
  2  3  1  0  0  0
  3  4  1  0  0  0
  4  5  1  0  0  0
  5  6  1  0  0  0
  6 17  1  0  0  0
 17 18  2  0  0  0
 18 19  1  0  0  0
 19 20  2  0  0  0
 20 21  1  0  0  0
 20 22  1  0  0  0
 22 23  2  0  0  0
  6  7  1  0  0  0
  7  8  1  0  0  0
 16  9  2  0  0  0
  8  3  1  0  0  0
 23 17  1  0  0  0
M  END
> <minimizedAffinity>
-8.46640

$$$$
OCNT-2311590


 26 27  0  0  0  0  0  0  0  0999 V2000
   -1.1129   28.8134    7.3018 N   0  0  0  0  0  0  0  0  0  0  0  0
    1.2086   29.1201    8.2586 C   0  0  0  0  0  0  0  0  0  0  0  0
    0.3238   29.0279    7.0186 C   0  0  0  0  0  0  0  0  0  0  0  0
   -1.4374   27.3520    7.2901 C   0  0  0  0  0  0  0  0  0  0  0  0
   -1.8654   26.8897    5.8860 C   0  0  0  0  0  0  0  0  0  0  0  0
   -1.0348   26.5033    5.0685 O   0  0  0  0  0  0  0  0  0  0  0  0
   -3.2378   26.9190    5.7239 N   0  0  0  0  0  0  0  0  0  0  0  0
   -3.7171   27.3445    6.5165 H   0  0  0  0  0  0  0  0  0  0  0  0
   -4.0048   26.5439    4.6093 C   0  0  0  0  0  0  0  0  0  0  0  0
   -5.0171   27.4249    4.2109 C   0  0  0  0  0  0  0  0  0  0  0  0
   -5.8250   27.1243    3.1149 C   0  0  0  0  0  0  0  0  0  0  0  0
   -5.6238   25.9385    2.4122 C   0  0  0  0  0  0  0  0  0  0  0  0
   -4.6184   25.0490    2.7970 C   0  0  0  0  0  0  0  0  0  0  0  0
   -3.8117   25.3553    3.8978 C   0  0  0  0  0  0  0  0  0  0  0  0
   -4.5292   23.9232    2.0228 O   0  0  0  0  0  0  0  0  0  0  0  0
   -5.0734   22.7266    2.5675 C   0  0  0  0  0  0  0  0  0  0  0  0
   -1.4807   29.3976    8.6128 C   0  0  0  0  0  0  0  0  0  0  0  0
   -2.1108   30.8177    8.6263 C   0  0  0  0  0  0  0  0  0  0  0  0
   -1.2197   31.9150    9.2202 C   0  0  0  0  0  0  0  0  0  0  0  0
   -3.5645   30.8876    9.1561 C   0  0  0  0  0  0  0  0  0  0  0  0
   -4.3691   29.6754    8.9215 N   0  0  0  0  0  0  0  0  0  0  0  0
   -4.9204   29.6370    7.5427 C   0  0  0  0  0  0  0  0  0  0  0  0
   -6.4171   29.9884    7.4157 C   0  0  0  0  0  0  0  0  0  0  0  0
   -6.7724   31.0532    8.2968 O   0  0  0  0  0  0  0  0  0  0  0  0
   -6.5647   30.6920    9.6702 C   0  0  0  0  0  0  0  0  0  0  0  0
   -5.4939   29.5992    9.8757 C   0  0  0  0  0  0  0  0  0  0  0  0
  2  3  1  0  0  0
  3  1  1  0  0  0
  1  4  1  0  0  0
  4  5  1  0  0  0
  5  6  2  0  0  0
  5  7  1  0  0  0
  7  9  1  0  0  0
  9 10  2  0  0  0
 10 11  1  0  0  0
 11 12  2  0  0  0
 12 13  1  0  0  0
 13 15  1  0  0  0
 15 16  1  0  0  0
 13 14  2  0  0  0
  1 17  1  0  0  0
 17 18  1  0  0  0
 18 19  1  0  0  0
 18 20  1  0  0  0
 20 21  1  0  0  0
 21 22  1  0  0  0
 22 23  1  0  0  0
 23 24  1  0  0  0
 24 25  1  0  0  0
 25 26  1  0  0  0
 14  9  1  0  0  0
 26 21  1  0  0  0
  7  8  1  0  0  0
M  END
> <minimizedAffinity>
-7.62380

$$$$
OCNT-2311596


 33 38  0  0  0  0  0  0  0  0999 V2000
   -5.1008   24.3254    2.1208 C   0  0  0  0  0  0  0  0  0  0  0  0
   -5.1075   24.9051    0.8453 C   0  0  0  0  0  0  0  0  0  0  0  0
   -6.2257   24.7572    0.0401 C   0  0  0  0  0  0  0  0  0  0  0  0
   -7.2883   24.0327    0.5450 C   0  0  0  0  0  0  0  0  0  0  0  0
   -7.2955   23.4465    1.7647 N   0  0  0  0  0  0  0  0  0  0  0  0
   -6.1950   23.5588    2.5541 C   0  0  0  0  0  0  0  0  0  0  0  0
   -2.9968   23.7245    2.8344 O   0  0  0  0  0  0  0  0  0  0  0  0
   -3.9084   24.5482    2.9501 C   0  0  0  0  0  0  0  0  0  0  0  0
   -3.8402   25.6139    3.8314 N   0  0  0  0  0  0  0  0  0  0  0  0
   -2.7365   25.6910    4.7960 C   0  0  0  0  0  0  0  0  0  0  0  0
   -3.1019   26.7773    5.8088 C   0  0  0  0  0  0  0  0  0  0  0  0
   -4.2057   27.4900    5.0939 C   0  0  0  0  0  0  0  0  0  0  0  0
   -4.8101   28.6806    5.4712 C   0  0  0  0  0  0  0  0  0  0  0  0
   -5.8505   29.1709    4.6846 C   0  0  0  0  0  0  0  0  0  0  0  0
   -6.2660   28.4697    3.5459 C   0  0  0  0  0  0  0  0  0  0  0  0
   -5.6528   27.2647    3.1808 C   0  0  0  0  0  0  0  0  0  0  0  0
   -4.6289   26.7717    3.9698 C   0  0  0  0  0  0  0  0  0  0  0  0
   -6.2189   22.9087    3.7923 N   0  0  0  0  0  0  0  0  0  0  0  0
   -6.2120   23.7892    4.9598 C   0  0  0  0  0  0  0  0  0  0  0  0
   -6.0779   22.9477    6.2243 C   0  0  0  0  0  0  0  0  0  0  0  0
   -7.2353   21.9444    6.3616 C   0  0  0  0  0  0  0  0  0  0  0  0
   -7.9850   21.7120    5.0424 C   0  0  0  0  0  0  0  0  0  0  0  0
   -7.0261   21.6825    3.8571 C   0  0  0  0  0  0  0  0  0  0  0  0
   -8.1817   22.3314    7.4614 C   0  0  0  0  0  0  0  0  0  0  0  0
   -8.2388   21.7834    8.6581 N   0  0  0  0  0  0  0  0  0  0  0  0
   -9.2362   22.4490    9.3271 C   0  0  0  0  0  0  0  0  0  0  0  0
   -9.7163   22.2702   10.6321 C   0  0  0  0  0  0  0  0  0  0  0  0
  -10.7581   23.0914   11.0824 C   0  0  0  0  0  0  0  0  0  0  0  0
  -11.3098   24.0682   10.2500 C   0  0  0  0  0  0  0  0  0  0  0  0
  -10.8435   24.2602    8.9439 C   0  0  0  0  0  0  0  0  0  0  0  0
   -9.8039   23.4293    8.5225 C   0  0  0  0  0  0  0  0  0  0  0  0
   -9.1148   23.3356    7.3414 N   0  0  0  0  0  0  0  0  0  0  0  0
   -9.2730   23.9017    6.5206 H   0  0  0  0  0  0  0  0  0  0  0  0
  7  8  2  0  0  0
  8  1  1  0  0  0
  1  2  1  0  0  0
  2  3  2  0  0  0
  3  4  1  0  0  0
  4  5  2  0  0  0
  5  6  1  0  0  0
  6 18  1  0  0  0
 18 19  1  0  0  0
 19 20  1  0  0  0
 20 21  1  0  0  0
 21 24  1  0  0  0
 24 25  2  0  0  0
 25 26  1  0  0  0
 26 27  2  0  0  0
 27 28  1  0  0  0
 28 29  2  0  0  0
 29 30  1  0  0  0
 30 31  2  0  0  0
 31 32  1  0  0  0
 21 22  1  0  0  0
 22 23  1  0  0  0
  8  9  1  0  0  0
  9 10  1  0  0  0
 10 11  1  0  0  0
 11 12  1  0  0  0
 12 13  2  0  0  0
 13 14  1  0  0  0
 14 15  2  0  0  0
 15 16  1  0  0  0
 16 17  2  0  0  0
  6  1  2  0  0  0
 23 18  1  0  0  0
 17  9  1  0  0  0
 32 24  1  0  0  0
 17 12  1  0  0  0
 31 26  1  0  0  0
 32 33  1  0  0  0
M  END
> <minimizedAffinity>
-10.50572

$$$$
OCNT-2311600


 23 25  0  0  0  0  0  0  0  0999 V2000
   -3.4733   28.3500    6.3835 C   0  0  0  0  0  0  0  0  0  0  0  0
   -2.5520   27.7959    6.9896 O   0  0  0  0  0  0  0  0  0  0  0  0
   -4.0952   27.7064    5.3011 N   0  0  0  0  0  0  0  0  0  0  0  0
   -3.5096   26.4657    4.8036 C   0  0  0  0  0  0  0  0  0  0  0  0
   -3.7530   26.3046    3.3087 C   0  0  0  0  0  0  0  0  0  0  0  0
   -5.2520   26.2896    2.9698 C   0  0  0  0  0  0  0  0  0  0  0  0
   -6.1000   26.9647    4.0558 C   0  0  0  0  0  0  0  0  0  0  0  0
   -5.3664   28.1268    4.7113 C   0  0  0  0  0  0  0  0  0  0  0  0
   -5.3607   32.3583    8.9522 C   0  0  0  0  0  0  0  0  0  0  0  0
   -4.7548   31.4088    7.9904 C   0  0  0  0  0  0  0  0  0  0  0  0
   -4.5744   30.0393    8.0335 C   0  0  0  0  0  0  0  0  0  0  0  0
   -4.9598   29.1051    9.1223 C   0  0  0  0  0  0  0  0  0  0  0  0
   -3.9254   29.7056    6.7956 C   0  0  0  0  0  0  0  0  0  0  0  0
   -3.7193   30.8189    6.0632 N   0  0  0  0  0  0  0  0  0  0  0  0
   -4.2266   31.8132    6.8009 N   0  0  0  0  0  0  0  0  0  0  0  0
   -4.1742   32.7566    6.4312 H   0  0  0  0  0  0  0  0  0  0  0  0
   -5.6412   24.9107    2.8435 O   0  0  0  0  0  0  0  0  0  0  0  0
   -6.1807   24.5582    1.6252 C   0  0  0  0  0  0  0  0  0  0  0  0
   -6.7755   23.3066    1.5302 C   0  0  0  0  0  0  0  0  0  0  0  0
   -7.3470   22.8495    0.3879 N   0  0  0  0  0  0  0  0  0  0  0  0
   -7.2957   23.7059   -0.6562 C   0  0  0  0  0  0  0  0  0  0  0  0
   -6.7040   24.9559   -0.5622 C   0  0  0  0  0  0  0  0  0  0  0  0
   -6.1343   25.4115    0.5782 N   0  0  0  0  0  0  0  0  0  0  0  0
  9 10  1  0  0  0
 10 11  2  0  0  0
 11 12  1  0  0  0
 11 13  1  0  0  0
 13  1  1  0  0  0
  1  2  2  0  0  0
  1  3  1  0  0  0
  3  4  1  0  0  0
  4  5  1  0  0  0
  5  6  1  0  0  0
  6 17  1  0  0  0
 17 18  1  0  0  0
 18 19  2  0  0  0
 19 20  1  0  0  0
 20 21  2  0  0  0
 21 22  1  0  0  0
 22 23  2  0  0  0
  6  7  1  0  0  0
  7  8  1  0  0  0
 13 14  2  0  0  0
 14 15  1  0  0  0
 15 10  1  0  0  0
  8  3  1  0  0  0
 23 18  1  0  0  0
 15 16  1  0  0  0
M  END
> <minimizedAffinity>
-8.11158

$$$$
OCNT-2311604


 26 29  0  0  0  0  0  0  0  0999 V2000
   -2.9033   30.3193    6.6686 N   0  0  0  0  0  0  0  0  0  0  0  0
   -2.6078   28.8811    6.7461 C   0  0  0  0  0  0  0  0  0  0  0  0
   -3.6636   28.0287    6.0067 C   0  0  0  0  0  0  0  0  0  0  0  0
   -5.0447   28.3596    6.3680 N   0  0  0  0  0  0  0  0  0  0  0  0
   -6.1915   27.8338    5.7647 C   0  0  0  0  0  0  0  0  0  0  0  0
   -7.3195   28.2274    6.0779 O   0  0  0  0  0  0  0  0  0  0  0  0
   -5.1871   29.3854    7.3958 C   0  0  0  0  0  0  0  0  0  0  0  0
   -4.2893   30.6115    7.1234 C   0  0  0  0  0  0  0  0  0  0  0  0
   -6.1124   26.7844    4.7006 C   0  0  0  0  0  0  0  0  0  0  0  0
   -5.8169   27.1441    3.3973 C   0  0  0  0  0  0  0  0  0  0  0  0
   -5.7714   26.1516    2.4152 C   0  0  0  0  0  0  0  0  0  0  0  0
   -6.0320   24.8254    2.7397 C   0  0  0  0  0  0  0  0  0  0  0  0
   -6.3099   24.5258    4.0289 N   0  0  0  0  0  0  0  0  0  0  0  0
   -6.3642   25.5020    5.0118 N   0  0  0  0  0  0  0  0  0  0  0  0
   -5.9775   23.8205    1.8007 N   0  0  0  0  0  0  0  0  0  0  0  0
   -6.0033   22.4313    2.2455 C   0  0  0  0  0  0  0  0  0  0  0  0
   -6.0450   21.6540    0.9338 C   0  0  0  0  0  0  0  0  0  0  0  0
   -6.9111   22.5403    0.0523 C   0  0  0  0  0  0  0  0  0  0  0  0
   -6.4922   23.9590    0.4430 C   0  0  0  0  0  0  0  0  0  0  0  0
   -2.4820   31.9898    8.5315 C   0  0  0  0  0  0  0  0  0  0  0  0
   -1.9077   31.1881    7.3497 C   0  0  0  0  0  0  0  0  0  0  0  0
   -0.6823   30.4096    7.8282 C   0  0  0  0  0  0  0  0  0  0  0  0
   -0.3078   30.3440    9.0932 N   0  0  0  0  0  0  0  0  0  0  0  0
    0.8358   29.5791    9.2050 C   0  0  0  0  0  0  0  0  0  0  0  0
    1.3267   29.0644    8.0263 C   0  0  0  0  0  0  0  0  0  0  0  0
    0.3289   29.5496    6.7223 S   0  0  0  0  0  0  0  0  0  0  0  0
 20 21  1  0  0  0
 21 22  1  0  0  0
 22 23  2  0  0  0
 23 24  1  0  0  0
 24 25  2  0  0  0
 25 26  1  0  0  0
 21  1  1  0  0  0
  1  2  1  0  0  0
  2  3  1  0  0  0
  3  4  1  0  0  0
  4  5  1  0  0  0
  5  6  2  0  0  0
  5  9  1  0  0  0
  9 10  2  0  0  0
 10 11  1  0  0  0
 11 12  2  0  0  0
 12 15  1  0  0  0
 15 16  1  0  0  0
 16 17  1  0  0  0
 17 18  1  0  0  0
 18 19  1  0  0  0
 12 13  1  0  0  0
 13 14  2  0  0  0
  4  7  1  0  0  0
  7  8  1  0  0  0
 26 22  1  0  0  0
  8  1  1  0  0  0
 14  9  1  0  0  0
 19 15  1  0  0  0
M  END
> <minimizedAffinity>
-9.25177

$$$$
OCNT-2311606


 24 27  0  0  0  0  0  0  0  0999 V2000
   -3.9710   24.7155    1.0134 O   0  0  0  0  0  0  0  0  0  0  0  0
   -4.3921   24.4686    2.1430 C   0  0  0  0  0  0  0  0  0  0  0  0
   -4.0306   25.1921    3.2802 N   0  0  0  0  0  0  0  0  0  0  0  0
   -4.7797   25.1579    4.5395 C   0  0  0  0  0  0  0  0  0  0  0  0
   -4.7196   26.4971    5.2660 C   0  0  0  0  0  0  0  0  0  0  0  0
   -3.2656   26.8834    5.5919 C   0  0  0  0  0  0  0  0  0  0  0  0
   -2.3059   26.5230    4.4381 C   0  0  0  0  0  0  0  0  0  0  0  0
   -3.0344   26.2506    3.1287 C   0  0  0  0  0  0  0  0  0  0  0  0
   -5.3308   23.3333    2.2948 C   0  0  0  0  0  0  0  0  0  0  0  0
   -4.9006   22.1249    2.8579 C   0  0  0  0  0  0  0  0  0  0  0  0
   -5.7966   21.0582    2.9769 C   0  0  0  0  0  0  0  0  0  0  0  0
   -7.1121   21.1983    2.5245 C   0  0  0  0  0  0  0  0  0  0  0  0
   -7.5338   22.3990    1.9464 C   0  0  0  0  0  0  0  0  0  0  0  0
   -6.6402   23.4664    1.8204 C   0  0  0  0  0  0  0  0  0  0  0  0
   -3.2211   28.3183    5.9151 N   0  0  0  0  0  0  0  0  0  0  0  0
   -4.1248   28.7615    5.7377 H   0  0  0  0  0  0  0  0  0  0  0  0
   -2.7717   28.6133    7.2889 C   0  0  0  0  0  0  0  0  0  0  0  0
   -1.6054   27.6582    7.6216 C   0  0  0  0  0  0  0  0  0  0  0  0
   -0.2397   28.1685    7.1520 C   0  0  0  0  0  0  0  0  0  0  0  0
   -0.0450   29.6685    7.4201 C   0  0  0  0  0  0  0  0  0  0  0  0
   -0.3432   30.0324    8.8830 C   0  0  0  0  0  0  0  0  0  0  0  0
   -1.8480   30.3430    8.9228 C   0  0  0  0  0  0  0  0  0  0  0  0
   -2.3546   30.0993    7.4871 C   0  0  0  0  0  0  0  0  0  0  0  0
   -1.1126   30.4537    6.6666 C   0  0  0  0  0  0  0  0  0  0  0  0
  1  2  2  0  0  0
  2  9  1  0  0  0
  9 10  2  0  0  0
 10 11  1  0  0  0
 11 12  2  0  0  0
 12 13  1  0  0  0
 13 14  2  0  0  0
  2  3  1  0  0  0
  3  4  1  0  0  0
  4  5  1  0  0  0
  5  6  1  0  0  0
  6 15  1  0  0  0
 15 17  1  0  0  0
 17 18  1  0  0  0
 18 19  1  0  0  0
 19 20  1  0  0  0
 20 21  1  0  0  0
 21 22  1  0  0  0
 22 23  1  0  0  0
 23 24  1  0  0  0
  6  7  1  0  0  0
  7  8  1  0  0  0
 14  9  1  0  0  0
  8  3  1  0  0  0
 23 17  1  0  0  0
 24 20  1  0  0  0
 15 16  1  0  0  0
M  END
> <minimizedAffinity>
-9.20387

$$$$
OCNT-2311610


 25 28  0  0  0  0  0  0  0  0999 V2000
   -0.8075   27.3259    5.6343 O   0  0  0  0  0  0  0  0  0  0  0  0
   -2.0107   27.2001    5.8684 C   0  0  0  0  0  0  0  0  0  0  0  0
   -2.8259   26.4161    5.0517 N   0  0  0  0  0  0  0  0  0  0  0  0
   -4.2236   26.0874    5.3397 C   0  0  0  0  0  0  0  0  0  0  0  0
   -4.6078   24.7318    4.7580 C   0  0  0  0  0  0  0  0  0  0  0  0
   -4.4398   24.6929    3.2194 C   0  0  0  0  0  0  0  0  0  0  0  0
   -3.3150   25.6590    2.7615 C   0  0  0  0  0  0  0  0  0  0  0  0
   -2.2507   25.8538    3.8318 C   0  0  0  0  0  0  0  0  0  0  0  0
   -4.0689   23.2389    2.7691 C   0  0  0  0  0  0  0  0  0  0  0  0
   -5.0057   22.1547    3.1130 N   0  0  0  0  0  0  0  0  0  0  0  0
   -6.4060   22.4877    2.8447 C   0  0  0  0  0  0  0  0  0  0  0  0
   -6.6010   23.2954    1.5936 C   0  0  0  0  0  0  0  0  0  0  0  0
   -7.1658   22.7334    0.4412 C   0  0  0  0  0  0  0  0  0  0  0  0
   -7.3517   23.5122   -0.7029 C   0  0  0  0  0  0  0  0  0  0  0  0
   -6.9801   24.8565   -0.7029 C   0  0  0  0  0  0  0  0  0  0  0  0
   -6.4104   25.4219    0.4369 C   0  0  0  0  0  0  0  0  0  0  0  0
   -6.1989   24.6367    1.5682 C   0  0  0  0  0  0  0  0  0  0  0  0
   -5.6640   25.2495    2.6644 O   0  0  0  0  0  0  0  0  0  0  0  0
   -4.7568   21.3377    2.5551 H   0  0  0  0  0  0  0  0  0  0  0  0
   -2.6812   27.8633    7.0695 C   0  0  0  0  0  0  0  0  0  0  0  0
   -2.8101   29.3413    6.8813 C   0  0  0  0  0  0  0  0  0  0  0  0
   -1.8490   30.3264    7.0059 C   0  0  0  0  0  0  0  0  0  0  0  0
   -2.2838   31.6217    6.8017 N   0  0  0  0  0  0  0  0  0  0  0  0
   -3.5609   31.6033    6.4917 C   0  0  0  0  0  0  0  0  0  0  0  0
   -4.3114   30.0619    6.4616 S   0  0  0  0  0  0  0  0  0  0  0  0
  1  2  2  0  0  0
  2 20  1  0  0  0
 20 21  1  0  0  0
 21 22  2  0  0  0
 22 23  1  0  0  0
 23 24  2  0  0  0
 24 25  1  0  0  0
  2  3  1  0  0  0
  3  4  1  0  0  0
  4  5  1  0  0  0
  5  6  1  0  0  0
  6  7  1  0  0  0
  7  8  1  0  0  0
  6  9  1  0  0  0
  9 10  1  0  0  0
 10 11  1  0  0  0
 11 12  1  0  0  0
 12 13  2  0  0  0
 13 14  1  0  0  0
 14 15  2  0  0  0
 15 16  1  0  0  0
 16 17  2  0  0  0
 17 18  1  0  0  0
 25 21  1  0  0  0
  8  3  1  0  0  0
 17 12  1  0  0  0
 18  6  1  0  0  0
 10 19  1  0  0  0
M  END
> <minimizedAffinity>
-9.49173

$$$$
OCNT-2311617


 25 28  0  0  0  0  0  0  0  0999 V2000
   -5.8222   22.1953    0.9615 C   0  0  0  0  0  0  0  0  0  0  0  0
   -6.4444   23.5151    1.0343 N   0  0  0  0  0  0  0  0  0  0  0  0
   -5.5637   24.5753    0.5363 C   0  0  0  0  0  0  0  0  0  0  0  0
   -4.4161   24.9353    1.4873 C   0  0  0  0  0  0  0  0  0  0  0  0
   -4.8894   25.3039    2.9186 C   0  0  0  0  0  0  0  0  0  0  0  0
   -5.8510   24.1694    3.3908 C   0  0  0  0  0  0  0  0  0  0  0  0
   -6.9468   23.8232    2.3747 C   0  0  0  0  0  0  0  0  0  0  0  0
   -5.6297   26.6708    2.8965 C   0  0  0  0  0  0  0  0  0  0  0  0
   -5.9521   27.2177    4.2861 C   0  0  0  0  0  0  0  0  0  0  0  0
   -4.7492   27.2675    5.1218 N   0  0  0  0  0  0  0  0  0  0  0  0
   -4.0911   25.9677    5.2742 C   0  0  0  0  0  0  0  0  0  0  0  0
   -3.6722   25.3792    3.9107 C   0  0  0  0  0  0  0  0  0  0  0  0
   -4.7366   28.1433    6.2026 C   0  0  0  0  0  0  0  0  0  0  0  0
   -5.8563   28.5481    6.7326 N   0  0  0  0  0  0  0  0  0  0  0  0
   -5.8297   29.4336    7.7808 C   0  0  0  0  0  0  0  0  0  0  0  0
   -4.7844   29.9437    8.3528 N   0  0  0  0  0  0  0  0  0  0  0  0
   -3.6276   29.5088    7.8337 N   0  0  0  0  0  0  0  0  0  0  0  0
   -2.3760   29.8586    8.2638 C   0  0  0  0  0  0  0  0  0  0  0  0
   -1.4755   29.1495    7.5099 C   0  0  0  0  0  0  0  0  0  0  0  0
    0.3901   29.1849    7.6531 Br  0  0  0  0  0  0  0  0  0  0  0  0
   -2.1865   28.3558    6.5900 C   0  0  0  0  0  0  0  0  0  0  0  0
   -3.5252   28.6272    6.7987 C   0  0  0  0  0  0  0  0  0  0  0  0
   -2.4033   26.0864    3.3823 C   0  0  0  0  0  0  0  0  0  0  0  0
   -1.2350   25.7683    4.1161 O   0  0  0  0  0  0  0  0  0  0  0  0
   -0.4747   26.1151    3.6188 H   0  0  0  0  0  0  0  0  0  0  0  0
  1  2  1  0  0  0
  2  3  1  0  0  0
  3  4  1  0  0  0
  4  5  1  0  0  0
  5  6  1  0  0  0
  6  7  1  0  0  0
  5  8  1  0  0  0
  8  9  1  0  0  0
  9 10  1  0  0  0
 10 13  1  0  0  0
 13 14  2  0  0  0
 14 15  1  0  0  0
 15 16  2  0  0  0
 16 17  1  0  0  0
 17 18  1  0  0  0
 18 19  2  0  0  0
 19 20  1  0  0  0
 19 21  1  0  0  0
 21 22  2  0  0  0
 10 11  1  0  0  0
 11 12  1  0  0  0
 12 23  1  0  0  0
 23 24  1  0  0  0
  7  2  1  0  0  0
 22 13  1  0  0  0
 12  5  1  0  0  0
 22 17  1  0  0  0
 24 25  1  0  0  0
M  END
> <minimizedAffinity>
-8.82101

$$$$
OCNT-2311621


 29 32  0  0  0  0  0  0  0  0999 V2000
   -2.2532   27.0263    6.7177 C   0  0  0  0  0  0  0  0  0  0  0  0
   -2.3262   25.9712    7.3368 O   0  0  0  0  0  0  0  0  0  0  0  0
   -2.0055   27.1153    5.3656 N   0  0  0  0  0  0  0  0  0  0  0  0
   -1.8739   28.0542    4.9999 H   0  0  0  0  0  0  0  0  0  0  0  0
   -4.2907   32.6266    9.1203 C   0  0  0  0  0  0  0  0  0  0  0  0
   -5.3038   31.9727    8.4228 C   0  0  0  0  0  0  0  0  0  0  0  0
   -5.0672   30.7327    7.8206 C   0  0  0  0  0  0  0  0  0  0  0  0
   -3.8287   30.1159    7.8957 C   0  0  0  0  0  0  0  0  0  0  0  0
   -3.6509   28.9249    7.3007 N   0  0  0  0  0  0  0  0  0  0  0  0
   -2.4176   28.3516    7.3985 C   0  0  0  0  0  0  0  0  0  0  0  0
   -1.3467   28.9204    8.0679 C   0  0  0  0  0  0  0  0  0  0  0  0
   -1.5454   30.1527    8.6787 C   0  0  0  0  0  0  0  0  0  0  0  0
   -2.7988   30.7766    8.6028 C   0  0  0  0  0  0  0  0  0  0  0  0
   -3.0365   32.0258    9.2094 C   0  0  0  0  0  0  0  0  0  0  0  0
   -4.7750   34.9286    8.7667 C   0  0  0  0  0  0  0  0  0  0  0  0
   -4.6514   33.8287    9.6599 O   0  0  0  0  0  0  0  0  0  0  0  0
   -1.6714   25.9733    4.5557 C   0  0  0  0  0  0  0  0  0  0  0  0
   -2.8059   25.6233    3.6286 C   0  0  0  0  0  0  0  0  0  0  0  0
   -2.8875   24.3611    3.0324 C   0  0  0  0  0  0  0  0  0  0  0  0
   -3.9594   24.0341    2.1906 C   0  0  0  0  0  0  0  0  0  0  0  0
   -4.9810   24.9645    1.9325 C   0  0  0  0  0  0  0  0  0  0  0  0
   -4.8955   26.2215    2.5429 C   0  0  0  0  0  0  0  0  0  0  0  0
   -5.8250   27.1687    2.3619 F   0  0  0  0  0  0  0  0  0  0  0  0
   -3.8268   26.5467    3.3803 C   0  0  0  0  0  0  0  0  0  0  0  0
   -6.0669   24.6200    1.0742 N   0  0  0  0  0  0  0  0  0  0  0  0
   -7.0135   23.6313    1.2433 C   0  0  0  0  0  0  0  0  0  0  0  0
   -7.8462   23.6935    0.1516 C   0  0  0  0  0  0  0  0  0  0  0  0
   -7.4567   24.6856   -0.6963 N   0  0  0  0  0  0  0  0  0  0  0  0
   -6.3991   25.2202   -0.1263 C   0  0  0  0  0  0  0  0  0  0  0  0
 15 16  1  0  0  0
 16  5  1  0  0  0
  5  6  2  0  0  0
  6  7  1  0  0  0
  7  8  2  0  0  0
  8  9  1  0  0  0
  9 10  2  0  0  0
 10  1  1  0  0  0
  1  2  2  0  0  0
  1  3  1  0  0  0
  3 17  1  0  0  0
 17 18  1  0  0  0
 18 19  1  0  0  0
 19 20  2  0  0  0
 20 21  1  0  0  0
 21 25  1  0  0  0
 25 26  1  0  0  0
 26 27  2  0  0  0
 27 28  1  0  0  0
 28 29  2  0  0  0
 21 22  2  0  0  0
 22 23  1  0  0  0
 22 24  1  0  0  0
 10 11  1  0  0  0
 11 12  2  0  0  0
 12 13  1  0  0  0
 13 14  2  0  0  0
 14  5  1  0  0  0
 13  8  1  0  0  0
 24 18  2  0  0  0
 29 25  1  0  0  0
  3  4  1  0  0  0
M  END
> <minimizedAffinity>
-9.14187

$$$$
OCNT-2311623


 28 31  0  0  0  0  0  0  0  0999 V2000
   -6.1286   28.8616    7.2725 C   0  0  0  0  0  0  0  0  0  0  0  0
   -6.5780   31.2224    7.5537 O   0  0  0  0  0  0  0  0  0  0  0  0
   -5.7751   30.2943    7.6649 C   0  0  0  0  0  0  0  0  0  0  0  0
   -4.4811   30.5102    8.1400 N   0  0  0  0  0  0  0  0  0  0  0  0
   -4.1322   31.8442    8.6254 C   0  0  0  0  0  0  0  0  0  0  0  0
   -3.0722   31.7836    9.7182 C   0  0  0  0  0  0  0  0  0  0  0  0
   -1.7882   31.0990    9.2462 C   0  0  0  0  0  0  0  0  0  0  0  0
   -2.0217   30.1013    8.0987 C   0  0  0  0  0  0  0  0  0  0  0  0
   -3.4280   29.4882    8.1667 C   0  0  0  0  0  0  0  0  0  0  0  0
   -0.9579   29.0293    8.0725 C   0  0  0  0  0  0  0  0  0  0  0  0
   -1.4319   27.6960    8.3097 O   0  0  0  0  0  0  0  0  0  0  0  0
    0.1798   29.1273    7.0915 C   0  0  0  0  0  0  0  0  0  0  0  0
    0.4356   29.3250    8.5592 C   0  0  0  0  0  0  0  0  0  0  0  0
   -1.3621   27.4569    9.2506 H   0  0  0  0  0  0  0  0  0  0  0  0
   -6.0572   28.5872    5.7879 C   0  0  0  0  0  0  0  0  0  0  0  0
   -6.2141   29.6249    4.8619 C   0  0  0  0  0  0  0  0  0  0  0  0
   -6.1442   29.3630    3.4937 C   0  0  0  0  0  0  0  0  0  0  0  0
   -5.9300   28.0612    3.0346 C   0  0  0  0  0  0  0  0  0  0  0  0
   -5.7985   27.0129    3.9440 C   0  0  0  0  0  0  0  0  0  0  0  0
   -5.8515   27.2824    5.3149 C   0  0  0  0  0  0  0  0  0  0  0  0
   -5.5790   25.7008    3.6241 O   0  0  0  0  0  0  0  0  0  0  0  0
   -4.9901   25.4210    2.3503 C   0  0  0  0  0  0  0  0  0  0  0  0
   -5.9229   24.6999    1.4020 C   0  0  0  0  0  0  0  0  0  0  0  0
   -6.2572   25.2889    0.1731 C   0  0  0  0  0  0  0  0  0  0  0  0
   -7.1384   24.6529   -0.7033 C   0  0  0  0  0  0  0  0  0  0  0  0
   -7.7034   23.4272   -0.3572 C   0  0  0  0  0  0  0  0  0  0  0  0
   -7.3915   22.8389    0.8666 C   0  0  0  0  0  0  0  0  0  0  0  0
   -6.5110   23.4740    1.7441 C   0  0  0  0  0  0  0  0  0  0  0  0
  2  3  2  0  0  0
  3  1  1  0  0  0
  1 15  1  0  0  0
 15 16  2  0  0  0
 16 17  1  0  0  0
 17 18  2  0  0  0
 18 19  1  0  0  0
 19 21  1  0  0  0
 21 22  1  0  0  0
 22 23  1  0  0  0
 23 24  2  0  0  0
 24 25  1  0  0  0
 25 26  2  0  0  0
 26 27  1  0  0  0
 27 28  2  0  0  0
 19 20  2  0  0  0
  3  4  1  0  0  0
  4  5  1  0  0  0
  5  6  1  0  0  0
  6  7  1  0  0  0
  7  8  1  0  0  0
  8 10  1  0  0  0
 10 11  1  0  0  0
 10 12  1  0  0  0
 12 13  1  0  0  0
  8  9  1  0  0  0
 20 15  1  0  0  0
  9  4  1  0  0  0
 28 23  1  0  0  0
 13 10  1  0  0  0
 11 14  1  0  0  0
M  END
> <minimizedAffinity>
-11.39695

$$$$
OCNT-2311624


 24 26  0  0  0  0  0  0  0  0999 V2000
   -3.5569   32.2706    9.3809 C   0  0  0  0  0  0  0  0  0  0  0  0
   -3.7930   33.4784    9.4263 O   0  0  0  0  0  0  0  0  0  0  0  0
   -4.3910   31.3865    8.7018 N   0  0  0  0  0  0  0  0  0  0  0  0
   -5.6390   31.8980    8.1382 C   0  0  0  0  0  0  0  0  0  0  0  0
   -6.7396   30.8427    8.1687 C   0  0  0  0  0  0  0  0  0  0  0  0
   -6.3562   29.5632    7.3969 C   0  0  0  0  0  0  0  0  0  0  0  0
   -4.8272   29.3972    7.2952 C   0  0  0  0  0  0  0  0  0  0  0  0
   -4.1071   29.9632    8.5140 C   0  0  0  0  0  0  0  0  0  0  0  0
   -2.3118   31.6742   10.0241 C   0  0  0  0  0  0  0  0  0  0  0  0
   -1.0414   31.9090    9.2070 C   0  0  0  0  0  0  0  0  0  0  0  0
   -0.1929   28.1165    6.0283 C   0  0  0  0  0  0  0  0  0  0  0  0
   -0.1662   29.0086    7.1608 N   0  0  0  0  0  0  0  0  0  0  0  0
   -0.8940   30.1485    7.3248 C   0  0  0  0  0  0  0  0  0  0  0  0
   -0.5385   30.6664    8.5527 C   0  0  0  0  0  0  0  0  0  0  0  0
    0.4146   29.7459    9.0460 C   0  0  0  0  0  0  0  0  0  0  0  0
    0.6480   28.7416    8.1982 N   0  0  0  0  0  0  0  0  0  0  0  0
   -7.0215   29.5455    6.0040 C   0  0  0  0  0  0  0  0  0  0  0  0
   -6.5383   28.4241    5.1152 C   0  0  0  0  0  0  0  0  0  0  0  0
   -6.0612   28.6910    3.8228 C   0  0  0  0  0  0  0  0  0  0  0  0
   -5.6069   27.6543    3.0027 C   0  0  0  0  0  0  0  0  0  0  0  0
   -5.6259   26.3406    3.4665 C   0  0  0  0  0  0  0  0  0  0  0  0
   -6.1001   26.0748    4.7451 C   0  0  0  0  0  0  0  0  0  0  0  0
   -6.1192   24.8120    5.1918 F   0  0  0  0  0  0  0  0  0  0  0  0
   -6.5548   27.0988    5.5700 C   0  0  0  0  0  0  0  0  0  0  0  0
 11 12  1  0  0  0
 12 13  1  0  0  0
 13 14  2  0  0  0
 14 10  1  0  0  0
 10  9  1  0  0  0
  9  1  1  0  0  0
  1  2  2  0  0  0
  1  3  1  0  0  0
  3  4  1  0  0  0
  4  5  1  0  0  0
  5  6  1  0  0  0
  6 17  1  0  0  0
 17 18  1  0  0  0
 18 19  2  0  0  0
 19 20  1  0  0  0
 20 21  2  0  0  0
 21 22  1  0  0  0
 22 23  1  0  0  0
 22 24  2  0  0  0
  6  7  1  0  0  0
  7  8  1  0  0  0
 14 15  1  0  0  0
 15 16  2  0  0  0
 16 12  1  0  0  0
  8  3  1  0  0  0
 24 18  1  0  0  0
M  END
> <minimizedAffinity>
-9.26314

$$$$
OCNT-2311626


 22 24  0  0  0  0  0  0  0  0999 V2000
   -6.5225   23.5453    1.4687 N   0  0  0  0  0  0  0  0  0  0  0  0
   -6.1799   24.7010    0.8156 C   0  0  0  0  0  0  0  0  0  0  0  0
   -5.5684   25.7041    1.3495 N   0  0  0  0  0  0  0  0  0  0  0  0
   -5.2404   25.5955    2.6791 C   0  0  0  0  0  0  0  0  0  0  0  0
   -5.5352   24.5283    3.4394 C   0  0  0  0  0  0  0  0  0  0  0  0
   -5.1689   24.4286    4.8902 C   0  0  0  0  0  0  0  0  0  0  0  0
   -4.2115   25.5495    5.3266 C   0  0  0  0  0  0  0  0  0  0  0  0
   -4.5390   26.8724    4.7631 N   0  0  0  0  0  0  0  0  0  0  0  0
   -4.5203   26.7896    3.2881 C   0  0  0  0  0  0  0  0  0  0  0  0
   -6.2572   23.3999    2.8147 C   0  0  0  0  0  0  0  0  0  0  0  0
   -6.5862   22.4227    3.4822 O   0  0  0  0  0  0  0  0  0  0  0  0
   -7.7406   22.9708   -0.5935 C   0  0  0  0  0  0  0  0  0  0  0  0
   -7.2496   22.4981    0.7669 C   0  0  0  0  0  0  0  0  0  0  0  0
   -5.8128   27.3785    5.2921 C   0  0  0  0  0  0  0  0  0  0  0  0
   -5.7696   28.8927    5.4523 C   0  0  0  0  0  0  0  0  0  0  0  0
   -6.3538   29.7303    4.3212 C   0  0  0  0  0  0  0  0  0  0  0  0
   -7.1002   29.6129    5.6126 C   0  0  0  0  0  0  0  0  0  0  0  0
   -4.5593   29.4630    6.1738 C   0  0  0  0  0  0  0  0  0  0  0  0
   -5.0331   29.8958    7.8505 S   0  0  0  0  0  0  0  0  0  0  0  0
   -3.4832   29.7759    8.7065 C   0  0  0  0  0  0  0  0  0  0  0  0
   -5.8940   28.8735    8.4147 O   0  0  0  0  0  0  0  0  0  0  0  0
   -5.4219   31.2942    7.8904 O   0  0  0  0  0  0  0  0  0  0  0  0
 12 13  1  0  0  0
 13  1  1  0  0  0
  1  2  1  0  0  0
  2  3  2  0  0  0
  3  4  1  0  0  0
  4  5  2  0  0  0
  5  6  1  0  0  0
  6  7  1  0  0  0
  7  8  1  0  0  0
  8 14  1  0  0  0
 14 15  1  0  0  0
 15 18  1  0  0  0
 18 19  1  0  0  0
 19 20  1  0  0  0
 19 21  2  0  0  0
 19 22  2  0  0  0
 15 16  1  0  0  0
 16 17  1  0  0  0
  8  9  1  0  0  0
  5 10  1  0  0  0
 10 11  2  0  0  0
 10  1  1  0  0  0
  9  4  1  0  0  0
 17 15  1  0  0  0
M  END
> <minimizedAffinity>
-7.16074

$$$$
OCNT-2311634


 25 27  0  0  0  0  0  0  0  0999 V2000
   -3.9352   27.0002    4.8314 C   0  0  0  0  0  0  0  0  0  0  0  0
   -5.2783   26.6380    4.8990 C   0  0  0  0  0  0  0  0  0  0  0  0
   -5.7919   25.6569    4.0398 C   0  0  0  0  0  0  0  0  0  0  0  0
   -4.9769   25.0199    3.0940 C   0  0  0  0  0  0  0  0  0  0  0  0
   -3.6255   25.3818    3.0380 C   0  0  0  0  0  0  0  0  0  0  0  0
   -3.1117   26.3616    3.8983 C   0  0  0  0  0  0  0  0  0  0  0  0
   -5.5547   24.0040    2.2155 C   0  0  0  0  0  0  0  0  0  0  0  0
   -5.4540   22.6400    2.4130 C   0  0  0  0  0  0  0  0  0  0  0  0
   -6.2583   21.8017    1.1512 S   0  0  0  0  0  0  0  0  0  0  0  0
   -6.6815   23.3026    0.4389 C   0  0  0  0  0  0  0  0  0  0  0  0
   -7.3893   23.3633   -0.7017 N   0  0  0  0  0  0  0  0  0  0  0  0
   -6.2503   24.3652    1.0685 N   0  0  0  0  0  0  0  0  0  0  0  0
   -7.3379   22.5637   -1.3201 H   0  0  0  0  0  0  0  0  0  0  0  0
   -7.3365   24.2544   -1.1829 H   0  0  0  0  0  0  0  0  0  0  0  0
   -2.4524   27.7771    6.7068 C   0  0  0  0  0  0  0  0  0  0  0  0
   -2.0244   26.7029    7.1153 O   0  0  0  0  0  0  0  0  0  0  0  0
   -3.3406   27.9675    5.6576 N   0  0  0  0  0  0  0  0  0  0  0  0
   -3.6545   28.9300    5.5606 H   0  0  0  0  0  0  0  0  0  0  0  0
   -3.9863   29.3469    8.7420 C   0  0  0  0  0  0  0  0  0  0  0  0
   -3.1582   29.9751    7.7026 N   0  0  0  0  0  0  0  0  0  0  0  0
   -2.6762   31.2961    8.1480 C   0  0  0  0  0  0  0  0  0  0  0  0
   -1.6233   31.2417    9.2603 C   0  0  0  0  0  0  0  0  0  0  0  0
   -0.4527   30.3376    8.8868 C   0  0  0  0  0  0  0  0  0  0  0  0
   -0.9330   28.9741    8.3964 C   0  0  0  0  0  0  0  0  0  0  0  0
   -1.9912   29.1320    7.2974 C   0  0  0  0  0  0  0  0  0  0  0  0
 19 20  1  0  0  0
 20 21  1  0  0  0
 21 22  1  0  0  0
 22 23  1  0  0  0
 23 24  1  0  0  0
 24 25  1  0  0  0
 25 15  1  0  0  0
 15 16  2  0  0  0
 15 17  1  0  0  0
 17  1  1  0  0  0
  1  2  1  0  0  0
  2  3  2  0  0  0
  3  4  1  0  0  0
  4  7  1  0  0  0
  7  8  2  0  0  0
  8  9  1  0  0  0
  9 10  1  0  0  0
 10 11  1  0  0  0
 10 12  2  0  0  0
  4  5  2  0  0  0
  5  6  1  0  0  0
 25 20  1  0  0  0
  6  1  2  0  0  0
 12  7  1  0  0  0
 17 18  1  0  0  0
 11 13  1  0  0  0
 11 14  1  0  0  0
M  END
> <minimizedAffinity>
-8.68025

$$$$
OCNT-2311636


 35 39  0  0  0  0  0  0  0  0999 V2000
   -4.5680   27.1694    5.0931 C   0  0  0  0  0  0  0  0  0  0  0  0
   -5.6693   27.7874    5.9193 C   0  0  0  0  0  0  0  0  0  0  0  0
   -6.9171   27.3509    5.9687 N   0  0  0  0  0  0  0  0  0  0  0  0
   -7.6475   28.3147    6.5954 N   0  0  0  0  0  0  0  0  0  0  0  0
   -6.8819   29.3309    6.9489 N   0  0  0  0  0  0  0  0  0  0  0  0
   -5.6089   28.9738    6.6453 N   0  0  0  0  0  0  0  0  0  0  0  0
   -4.5281   29.7825    7.0847 C   0  0  0  0  0  0  0  0  0  0  0  0
   -3.7411   30.4496    6.1102 C   0  0  0  0  0  0  0  0  0  0  0  0
   -2.6674   31.2652    6.4849 C   0  0  0  0  0  0  0  0  0  0  0  0
   -2.4158   31.4126    7.8294 C   0  0  0  0  0  0  0  0  0  0  0  0
   -1.4286   32.1677    8.3777 O   0  0  0  0  0  0  0  0  0  0  0  0
   -1.6788   31.9655    9.7841 C   0  0  0  0  0  0  0  0  0  0  0  0
   -2.7931   31.0843   10.0456 O   0  0  0  0  0  0  0  0  0  0  0  0
   -3.1901   30.7901    8.7783 C   0  0  0  0  0  0  0  0  0  0  0  0
   -4.2561   29.9774    8.4443 C   0  0  0  0  0  0  0  0  0  0  0  0
   -5.7335   27.9223    2.9373 C   0  0  0  0  0  0  0  0  0  0  0  0
   -5.0905   26.7108    3.6584 C   0  0  0  0  0  0  0  0  0  0  0  0
   -3.8730   26.2805    2.7970 C   0  0  0  0  0  0  0  0  0  0  0  0
   -6.1164   25.5342    3.7759 C   0  0  0  0  0  0  0  0  0  0  0  0
   -5.9607   24.3945    2.7892 C   0  0  0  0  0  0  0  0  0  0  0  0
   -5.4743   23.1483    3.2100 C   0  0  0  0  0  0  0  0  0  0  0  0
   -5.3321   22.0981    2.3013 C   0  0  0  0  0  0  0  0  0  0  0  0
   -5.6806   22.2795    0.9644 C   0  0  0  0  0  0  0  0  0  0  0  0
   -6.1766   23.5092    0.5362 C   0  0  0  0  0  0  0  0  0  0  0  0
   -6.3196   24.5601    1.4439 C   0  0  0  0  0  0  0  0  0  0  0  0
   -3.9265   26.0464    5.8135 N   0  0  0  0  0  0  0  0  0  0  0  0
   -4.0916   25.1714    5.3181 H   0  0  0  0  0  0  0  0  0  0  0  0
   -2.4874   26.2115    6.0374 C   0  0  0  0  0  0  0  0  0  0  0  0
   -2.1957   26.9970    7.3248 C   0  0  0  0  0  0  0  0  0  0  0  0
   -1.0132   27.9300    7.3478 C   0  0  0  0  0  0  0  0  0  0  0  0
   -0.2965   28.3203    6.2192 C   0  0  0  0  0  0  0  0  0  0  0  0
    0.7744   29.1539    6.2750 N   0  0  0  0  0  0  0  0  0  0  0  0
    1.1068   29.5937    7.5068 C   0  0  0  0  0  0  0  0  0  0  0  0
    0.4058   29.2174    8.6358 C   0  0  0  0  0  0  0  0  0  0  0  0
   -0.6584   28.3833    8.5836 N   0  0  0  0  0  0  0  0  0  0  0  0
 16 17  1  0  0  0
 17 18  1  0  0  0
 17 19  1  0  0  0
 19 20  1  0  0  0
 20 21  2  0  0  0
 21 22  1  0  0  0
 22 23  2  0  0  0
 23 24  1  0  0  0
 24 25  2  0  0  0
 17  1  1  0  0  0
  1 26  1  0  0  0
 26 28  1  0  0  0
 28 29  1  0  0  0
 29 30  1  0  0  0
 30 31  2  0  0  0
 31 32  1  0  0  0
 32 33  2  0  0  0
 33 34  1  0  0  0
 34 35  2  0  0  0
  1  2  1  0  0  0
  2  3  2  0  0  0
  3  4  1  0  0  0
  4  5  2  0  0  0
  5  6  1  0  0  0
  6  7  1  0  0  0
  7  8  1  0  0  0
  8  9  2  0  0  0
  9 10  1  0  0  0
 10 11  1  0  0  0
 11 12  1  0  0  0
 12 13  1  0  0  0
 13 14  1  0  0  0
 14 15  1  0  0  0
 25 20  1  0  0  0
 35 30  1  0  0  0
  6  2  1  0  0  0
 15  7  2  0  0  0
 14 10  2  0  0  0
 26 27  1  0  0  0
M  END
> <minimizedAffinity>
-9.30441

$$$$
OCNT-2311637


 31 35  0  0  0  0  0  0  0  0999 V2000
   -6.5290   29.0323    5.2088 C   0  0  0  0  0  0  0  0  0  0  0  0
   -6.5787   27.6539    5.5139 C   0  0  0  0  0  0  0  0  0  0  0  0
   -6.2072   26.8872    4.4108 C   0  0  0  0  0  0  0  0  0  0  0  0
   -6.1346   25.5201    4.3363 C   0  0  0  0  0  0  0  0  0  0  0  0
   -5.6976   25.1993    3.0799 O   0  0  0  0  0  0  0  0  0  0  0  0
   -5.4915   26.3408    2.3267 N   0  0  0  0  0  0  0  0  0  0  0  0
   -5.7877   27.3823    3.1186 C   0  0  0  0  0  0  0  0  0  0  0  0
   -5.7308   28.7625    2.8539 C   0  0  0  0  0  0  0  0  0  0  0  0
   -6.1110   29.5705    3.9476 C   0  0  0  0  0  0  0  0  0  0  0  0
   -8.0558   30.3390    6.3552 O   0  0  0  0  0  0  0  0  0  0  0  0
   -6.8864   29.9724    6.2918 C   0  0  0  0  0  0  0  0  0  0  0  0
   -5.8881   30.4056    7.1563 N   0  0  0  0  0  0  0  0  0  0  0  0
   -6.2914   31.1108    8.3746 C   0  0  0  0  0  0  0  0  0  0  0  0
   -5.2409   32.1332    8.8108 C   0  0  0  0  0  0  0  0  0  0  0  0
   -3.9470   31.5258    8.9340 O   0  0  0  0  0  0  0  0  0  0  0  0
   -3.5142   30.9982    7.6657 C   0  0  0  0  0  0  0  0  0  0  0  0
   -4.4990   29.9215    7.1581 C   0  0  0  0  0  0  0  0  0  0  0  0
   -2.1159   30.4257    7.8013 C   0  0  0  0  0  0  0  0  0  0  0  0
   -1.5570   29.6172    6.7964 C   0  0  0  0  0  0  0  0  0  0  0  0
   -0.2582   29.1221    6.9231 C   0  0  0  0  0  0  0  0  0  0  0  0
    0.4877   29.4372    8.0515 C   0  0  0  0  0  0  0  0  0  0  0  0
    1.7346   28.9634    8.1725 F   0  0  0  0  0  0  0  0  0  0  0  0
   -0.0403   30.2384    9.0562 C   0  0  0  0  0  0  0  0  0  0  0  0
   -1.3395   30.7342    8.9320 C   0  0  0  0  0  0  0  0  0  0  0  0
   -6.4060   24.3853    5.2071 C   0  0  0  0  0  0  0  0  0  0  0  0
   -7.7207   24.0407    5.5587 C   0  0  0  0  0  0  0  0  0  0  0  0
   -7.9707   22.9500    6.3965 C   0  0  0  0  0  0  0  0  0  0  0  0
   -6.9077   22.1990    6.8818 C   0  0  0  0  0  0  0  0  0  0  0  0
   -7.1494   21.1541    7.6835 F   0  0  0  0  0  0  0  0  0  0  0  0
   -5.5989   22.5152    6.5433 C   0  0  0  0  0  0  0  0  0  0  0  0
   -5.3487   23.6051    5.7056 C   0  0  0  0  0  0  0  0  0  0  0  0
 10 11  2  0  0  0
 11  1  1  0  0  0
  1  2  2  0  0  0
  2  3  1  0  0  0
  3  4  2  0  0  0
  4 25  1  0  0  0
 25 26  1  0  0  0
 26 27  2  0  0  0
 27 28  1  0  0  0
 28 29  1  0  0  0
 28 30  2  0  0  0
 30 31  1  0  0  0
  4  5  1  0  0  0
  5  6  1  0  0  0
  6  7  2  0  0  0
  7  8  1  0  0  0
  8  9  2  0  0  0
 11 12  1  0  0  0
 12 13  1  0  0  0
 13 14  1  0  0  0
 14 15  1  0  0  0
 15 16  1  0  0  0
 16 18  1  0  0  0
 18 19  1  0  0  0
 19 20  2  0  0  0
 20 21  1  0  0  0
 21 22  1  0  0  0
 21 23  2  0  0  0
 23 24  1  0  0  0
 16 17  1  0  0  0
  9  1  1  0  0  0
 17 12  1  0  0  0
  7  3  1  0  0  0
 24 18  2  0  0  0
 31 25  2  0  0  0
M  END
> <minimizedAffinity>
-12.10596

$$$$
OCNT-2311638


 29 32  0  0  0  0  0  0  0  0999 V2000
   -3.0040   26.5114    6.2453 N   0  0  0  0  0  0  0  0  0  0  0  0
   -2.7070   26.2045    4.9388 C   0  0  0  0  0  0  0  0  0  0  0  0
   -1.5548   26.2113    4.5162 O   0  0  0  0  0  0  0  0  0  0  0  0
   -3.9593   26.5896    6.5636 H   0  0  0  0  0  0  0  0  0  0  0  0
   -3.8080   25.7767    4.1298 C   0  0  0  0  0  0  0  0  0  0  0  0
   -3.7814   24.7166    3.2429 C   0  0  0  0  0  0  0  0  0  0  0  0
   -5.0268   24.4686    2.7669 N   0  0  0  0  0  0  0  0  0  0  0  0
   -5.8434   25.3593    3.3049 N   0  0  0  0  0  0  0  0  0  0  0  0
   -5.1068   26.2463    4.0303 N   0  0  0  0  0  0  0  0  0  0  0  0
   -5.7168   27.4415    4.5020 C   0  0  0  0  0  0  0  0  0  0  0  0
   -5.7412   28.6110    3.7350 C   0  0  0  0  0  0  0  0  0  0  0  0
   -6.3526   29.7643    4.2365 C   0  0  0  0  0  0  0  0  0  0  0  0
   -6.9533   29.7571    5.4932 C   0  0  0  0  0  0  0  0  0  0  0  0
   -6.9593   28.5900    6.2507 C   0  0  0  0  0  0  0  0  0  0  0  0
   -6.3514   27.4338    5.7568 C   0  0  0  0  0  0  0  0  0  0  0  0
   -1.9667   26.8619    7.1985 C   0  0  0  0  0  0  0  0  0  0  0  0
   -1.2846   29.2019    8.1862 C   0  0  0  0  0  0  0  0  0  0  0  0
   -2.0618   30.2827    8.5773 C   0  0  0  0  0  0  0  0  0  0  0  0
   -1.7235   31.6390    9.1006 C   0  0  0  0  0  0  0  0  0  0  0  0
   -2.9158   32.3024    9.7984 C   0  0  0  0  0  0  0  0  0  0  0  0
   -4.1948   32.1458    8.9744 C   0  0  0  0  0  0  0  0  0  0  0  0
   -4.5285   30.6683    8.7783 C   0  0  0  0  0  0  0  0  0  0  0  0
   -3.3603   29.8947    8.3981 N   0  0  0  0  0  0  0  0  0  0  0  0
   -3.4984   28.6572    7.9030 N   0  0  0  0  0  0  0  0  0  0  0  0
   -2.2336   28.2209    7.7672 C   0  0  0  0  0  0  0  0  0  0  0  0
    0.1648   29.0811    8.2061 C   0  0  0  0  0  0  0  0  0  0  0  0
    0.8539   29.4417    9.1530 O   0  0  0  0  0  0  0  0  0  0  0  0
    0.6712   29.4701    5.9536 C   0  0  0  0  0  0  0  0  0  0  0  0
    0.6682   28.5560    7.0496 O   0  0  0  0  0  0  0  0  0  0  0  0
 28 29  1  0  0  0
 29 26  1  0  0  0
 26 27  2  0  0  0
 26 17  1  0  0  0
 17 18  2  0  0  0
 18 19  1  0  0  0
 19 20  1  0  0  0
 20 21  1  0  0  0
 21 22  1  0  0  0
 22 23  1  0  0  0
 23 24  1  0  0  0
 24 25  2  0  0  0
 25 16  1  0  0  0
 16  1  1  0  0  0
  1  2  1  0  0  0
  2  3  2  0  0  0
  2  5  1  0  0  0
  5  6  2  0  0  0
  6  7  1  0  0  0
  7  8  2  0  0  0
  8  9  1  0  0  0
  9 10  1  0  0  0
 10 11  2  0  0  0
 11 12  1  0  0  0
 12 13  2  0  0  0
 13 14  1  0  0  0
 14 15  2  0  0  0
 25 17  1  0  0  0
  9  5  1  0  0  0
 15 10  1  0  0  0
 23 18  1  0  0  0
  1  4  1  0  0  0
M  END
> <minimizedAffinity>
-9.52266

$$$$
OCNT-2311652


 24 26  0  0  0  0  0  0  0  0999 V2000
   -4.0203   29.0281    7.4432 C   0  0  0  0  0  0  0  0  0  0  0  0
   -2.7944   28.9944    7.5480 O   0  0  0  0  0  0  0  0  0  0  0  0
   -4.6797   28.2829    6.4569 N   0  0  0  0  0  0  0  0  0  0  0  0
   -6.0831   28.4734    6.0818 C   0  0  0  0  0  0  0  0  0  0  0  0
   -6.2888   28.2669    4.5851 C   0  0  0  0  0  0  0  0  0  0  0  0
   -5.8870   26.8473    4.1379 C   0  0  0  0  0  0  0  0  0  0  0  0
   -4.7136   26.3009    4.9764 C   0  0  0  0  0  0  0  0  0  0  0  0
   -3.8759   27.4067    5.6112 C   0  0  0  0  0  0  0  0  0  0  0  0
   -4.9123   31.1971    8.4918 C   0  0  0  0  0  0  0  0  0  0  0  0
   -4.8369   29.8217    8.3334 C   0  0  0  0  0  0  0  0  0  0  0  0
   -5.9740   29.0442    9.3534 S   0  0  0  0  0  0  0  0  0  0  0  0
   -6.4424   30.5717    9.9652 C   0  0  0  0  0  0  0  0  0  0  0  0
   -5.8246   31.6135    9.4564 N   0  0  0  0  0  0  0  0  0  0  0  0
   -4.8801   33.5955    7.7888 C   0  0  0  0  0  0  0  0  0  0  0  0
   -4.1612   32.2477    7.7155 C   0  0  0  0  0  0  0  0  0  0  0  0
   -2.7161   32.3879    8.1998 C   0  0  0  0  0  0  0  0  0  0  0  0
   -5.5991   26.8457    2.6220 C   0  0  0  0  0  0  0  0  0  0  0  0
   -4.8841   25.5747    2.1419 C   0  0  0  0  0  0  0  0  0  0  0  0
   -5.7863   24.6657    1.3045 C   0  0  0  0  0  0  0  0  0  0  0  0
   -5.7094   23.2689    1.6744 N   0  0  0  0  0  0  0  0  0  0  0  0
   -5.1819   22.7676    2.8324 C   0  0  0  0  0  0  0  0  0  0  0  0
   -5.3200   21.4036    2.7214 C   0  0  0  0  0  0  0  0  0  0  0  0
   -5.9066   21.0694    1.5267 N   0  0  0  0  0  0  0  0  0  0  0  0
   -6.1196   22.2119    0.9128 C   0  0  0  0  0  0  0  0  0  0  0  0
 14 15  1  0  0  0
 15 16  1  0  0  0
 15  9  1  0  0  0
  9 10  2  0  0  0
 10  1  1  0  0  0
  1  2  2  0  0  0
  1  3  1  0  0  0
  3  4  1  0  0  0
  4  5  1  0  0  0
  5  6  1  0  0  0
  6 17  1  0  0  0
 17 18  1  0  0  0
 18 19  1  0  0  0
 19 20  1  0  0  0
 20 21  1  0  0  0
 21 22  2  0  0  0
 22 23  1  0  0  0
 23 24  2  0  0  0
  6  7  1  0  0  0
  7  8  1  0  0  0
 10 11  1  0  0  0
 11 12  1  0  0  0
 12 13  2  0  0  0
 13  9  1  0  0  0
  8  3  1  0  0  0
 24 20  1  0  0  0
M  END
> <minimizedAffinity>
-8.03142

$$$$
OCNT-2311653


 26 28  0  0  0  0  0  0  0  0999 V2000
   -3.8368   28.1671    5.9572 O   0  0  0  0  0  0  0  0  0  0  0  0
   -4.9595   28.3516    6.4183 C   0  0  0  0  0  0  0  0  0  0  0  0
   -5.1931   28.7384    7.7194 N   0  0  0  0  0  0  0  0  0  0  0  0
   -6.1024   29.1262    7.9401 H   0  0  0  0  0  0  0  0  0  0  0  0
   -6.2151   28.1710    5.5896 C   0  0  0  0  0  0  0  0  0  0  0  0
   -6.0838   27.0455    4.5972 C   0  0  0  0  0  0  0  0  0  0  0  0
   -6.1668   25.7083    5.0106 C   0  0  0  0  0  0  0  0  0  0  0  0
   -6.0228   24.6770    4.0803 C   0  0  0  0  0  0  0  0  0  0  0  0
   -5.7955   24.9830    2.7424 C   0  0  0  0  0  0  0  0  0  0  0  0
   -5.6550   23.9913    1.8536 F   0  0  0  0  0  0  0  0  0  0  0  0
   -5.6989   26.2990    2.3152 C   0  0  0  0  0  0  0  0  0  0  0  0
   -5.8335   27.3184    3.2484 C   0  0  0  0  0  0  0  0  0  0  0  0
   -5.6996   28.5901    2.8433 F   0  0  0  0  0  0  0  0  0  0  0  0
   -4.0885   29.1048    8.5736 C   0  0  0  0  0  0  0  0  0  0  0  0
   -3.9650   30.6059    8.6835 C   0  0  0  0  0  0  0  0  0  0  0  0
   -5.1223   31.3481    8.9874 C   0  0  0  0  0  0  0  0  0  0  0  0
   -5.0815   32.7383    9.0737 C   0  0  0  0  0  0  0  0  0  0  0  0
   -3.8858   33.4114    8.8480 C   0  0  0  0  0  0  0  0  0  0  0  0
   -2.7326   32.6926    8.5326 C   0  0  0  0  0  0  0  0  0  0  0  0
   -2.7498   31.2880    8.4420 C   0  0  0  0  0  0  0  0  0  0  0  0
   -1.5075   30.5896    8.0976 C   0  0  0  0  0  0  0  0  0  0  0  0
   -0.5887   30.2017    9.0784 C   0  0  0  0  0  0  0  0  0  0  0  0
    0.5805   29.5382    8.7141 C   0  0  0  0  0  0  0  0  0  0  0  0
    0.7974   29.2772    7.3719 C   0  0  0  0  0  0  0  0  0  0  0  0
   -0.0641   29.6239    6.3937 N   0  0  0  0  0  0  0  0  0  0  0  0
   -1.1922   30.2671    6.7784 C   0  0  0  0  0  0  0  0  0  0  0  0
  1  2  2  0  0  0
  2  5  1  0  0  0
  5  6  1  0  0  0
  6  7  1  0  0  0
  7  8  2  0  0  0
  8  9  1  0  0  0
  9 10  1  0  0  0
  9 11  2  0  0  0
 11 12  1  0  0  0
 12 13  1  0  0  0
  2  3  1  0  0  0
  3 14  1  0  0  0
 14 15  1  0  0  0
 15 16  2  0  0  0
 16 17  1  0  0  0
 17 18  2  0  0  0
 18 19  1  0  0  0
 19 20  2  0  0  0
 20 21  1  0  0  0
 21 22  1  0  0  0
 22 23  2  0  0  0
 23 24  1  0  0  0
 24 25  2  0  0  0
 25 26  1  0  0  0
 12  6  2  0  0  0
 20 15  1  0  0  0
 26 21  2  0  0  0
  3  4  1  0  0  0
M  END
> <minimizedAffinity>
-10.03314

$$$$
OCNT-2311655


 27 30  0  0  0  0  0  0  0  0999 V2000
   -2.4495   25.9756    6.2435 O   0  0  0  0  0  0  0  0  0  0  0  0
   -2.9975   26.9044    5.6573 C   0  0  0  0  0  0  0  0  0  0  0  0
   -2.7544   28.2455    5.9277 N   0  0  0  0  0  0  0  0  0  0  0  0
   -3.3497   28.9125    5.4600 H   0  0  0  0  0  0  0  0  0  0  0  0
   -1.8259   28.7931    6.8392 C   0  0  0  0  0  0  0  0  0  0  0  0
   -0.4611   28.5057    6.8370 C   0  0  0  0  0  0  0  0  0  0  0  0
    0.3900   29.0982    7.7740 C   0  0  0  0  0  0  0  0  0  0  0  0
   -0.1145   29.9852    8.7219 C   0  0  0  0  0  0  0  0  0  0  0  0
   -1.4799   30.2940    8.7425 C   0  0  0  0  0  0  0  0  0  0  0  0
   -2.3258   29.6916    7.7950 C   0  0  0  0  0  0  0  0  0  0  0  0
   -2.0293   31.2530    9.7702 C   0  0  0  0  0  0  0  0  0  0  0  0
   -3.2943   31.8382    9.3459 N   0  0  0  0  0  0  0  0  0  0  0  0
   -3.4706   33.0338    8.7041 C   0  0  0  0  0  0  0  0  0  0  0  0
   -4.8219   33.1508    8.4803 C   0  0  0  0  0  0  0  0  0  0  0  0
   -5.3747   31.9701    9.0081 C   0  0  0  0  0  0  0  0  0  0  0  0
   -4.4480   31.1601    9.5258 N   0  0  0  0  0  0  0  0  0  0  0  0
   -3.9990   26.6899    4.6100 C   0  0  0  0  0  0  0  0  0  0  0  0
   -5.0864   27.4612    4.2326 C   0  0  0  0  0  0  0  0  0  0  0  0
   -5.8211   26.8810    3.1552 C   0  0  0  0  0  0  0  0  0  0  0  0
   -5.2690   25.6930    2.7327 C   0  0  0  0  0  0  0  0  0  0  0  0
   -3.8773   25.2863    3.6232 S   0  0  0  0  0  0  0  0  0  0  0  0
   -5.8598   24.8294    1.5627 C   0  0  0  0  0  0  0  0  0  0  0  0
   -6.1820   25.3674    0.3781 N   0  0  0  0  0  0  0  0  0  0  0  0
   -6.6405   24.3268   -0.3359 N   0  0  0  0  0  0  0  0  0  0  0  0
   -6.6264   23.1479    0.3480 C   0  0  0  0  0  0  0  0  0  0  0  0
   -6.1217   23.4409    1.5922 C   0  0  0  0  0  0  0  0  0  0  0  0
   -6.9484   24.4954   -1.2881 H   0  0  0  0  0  0  0  0  0  0  0  0
  1  2  2  0  0  0
  2  3  1  0  0  0
  3  5  1  0  0  0
  5  6  1  0  0  0
  6  7  2  0  0  0
  7  8  1  0  0  0
  8  9  2  0  0  0
  9 11  1  0  0  0
 11 12  1  0  0  0
 12 13  1  0  0  0
 13 14  2  0  0  0
 14 15  1  0  0  0
 15 16  2  0  0  0
  9 10  1  0  0  0
  2 17  1  0  0  0
 17 18  2  0  0  0
 18 19  1  0  0  0
 19 20  2  0  0  0
 20 22  1  0  0  0
 22 23  2  0  0  0
 23 24  1  0  0  0
 24 25  1  0  0  0
 25 26  2  0  0  0
 20 21  1  0  0  0
 10  5  2  0  0  0
 21 17  1  0  0  0
 16 12  1  0  0  0
 26 22  1  0  0  0
  3  4  1  0  0  0
 24 27  1  0  0  0
M  END
> <minimizedAffinity>
-9.25963

$$$$
OCNT-2311661


 25 27  0  0  0  0  0  0  0  0999 V2000
   -6.3191   22.3424    3.4683 C   0  0  0  0  0  0  0  0  0  0  0  0
   -6.1986   23.3555    2.3089 C   0  0  0  0  0  0  0  0  0  0  0  0
   -7.2034   22.9352    1.2162 C   0  0  0  0  0  0  0  0  0  0  0  0
   -4.7775   23.3204    1.7144 C   0  0  0  0  0  0  0  0  0  0  0  0
   -3.6929   23.7886    2.6860 C   0  0  0  0  0  0  0  0  0  0  0  0
   -4.1244   24.9548    3.5970 C   0  0  0  0  0  0  0  0  0  0  0  0
   -5.3364   25.7155    3.0064 C   0  0  0  0  0  0  0  0  0  0  0  0
   -6.5536   24.7834    2.8101 C   0  0  0  0  0  0  0  0  0  0  0  0
   -5.7562   26.9480    3.8005 C   0  0  0  0  0  0  0  0  0  0  0  0
   -6.1477   26.8660    5.1456 C   0  0  0  0  0  0  0  0  0  0  0  0
   -6.5370   28.0102    5.8453 C   0  0  0  0  0  0  0  0  0  0  0  0
   -6.5496   29.2492    5.2091 C   0  0  0  0  0  0  0  0  0  0  0  0
   -6.1750   29.3452    3.8715 C   0  0  0  0  0  0  0  0  0  0  0  0
   -5.7835   28.2024    3.1705 C   0  0  0  0  0  0  0  0  0  0  0  0
   -2.9896   25.8451    3.8396 N   0  0  0  0  0  0  0  0  0  0  0  0
   -2.5263   26.1160    5.1096 C   0  0  0  0  0  0  0  0  0  0  0  0
   -3.0004   25.6174    6.1228 O   0  0  0  0  0  0  0  0  0  0  0  0
   -2.5886   26.3403    3.0508 H   0  0  0  0  0  0  0  0  0  0  0  0
   -1.3598   27.0807    5.1151 C   0  0  0  0  0  0  0  0  0  0  0  0
   -0.5456   26.9741    6.4030 C   0  0  0  0  0  0  0  0  0  0  0  0
   -0.7543   28.1484    7.3118 C   0  0  0  0  0  0  0  0  0  0  0  0
   -1.9058   28.6230    7.9144 C   0  0  0  0  0  0  0  0  0  0  0  0
   -1.7611   29.7552    8.6921 N   0  0  0  0  0  0  0  0  0  0  0  0
   -0.4964   30.1160    8.6941 C   0  0  0  0  0  0  0  0  0  0  0  0
    0.5739   29.1379    7.7788 S   0  0  0  0  0  0  0  0  0  0  0  0
  1  2  1  0  0  0
  2  3  1  0  0  0
  2  4  1  0  0  0
  4  5  1  0  0  0
  5  6  1  0  0  0
  6 15  1  0  0  0
 15 16  1  0  0  0
 16 17  2  0  0  0
 16 19  1  0  0  0
 19 20  1  0  0  0
 20 21  1  0  0  0
 21 22  2  0  0  0
 22 23  1  0  0  0
 23 24  2  0  0  0
 24 25  1  0  0  0
  6  7  1  0  0  0
  7  9  1  0  0  0
  9 10  2  0  0  0
 10 11  1  0  0  0
 11 12  2  0  0  0
 12 13  1  0  0  0
 13 14  2  0  0  0
  7  8  1  0  0  0
  8  2  1  0  0  0
 25 21  1  0  0  0
 14  9  1  0  0  0
 15 18  1  0  0  0
M  END
> <minimizedAffinity>
-8.63295

$$$$
OCNT-2311662


 34 38  0  0  0  0  0  0  0  0999 V2000
   -2.1512   31.1274    7.5184 C   0  0  0  0  0  0  0  0  0  0  0  0
   -1.7284   31.9805    6.7282 O   0  0  0  0  0  0  0  0  0  0  0  0
   -1.7611   29.7946    7.3698 N   0  0  0  0  0  0  0  0  0  0  0  0
   -2.0698   28.6894    8.2776 C   0  0  0  0  0  0  0  0  0  0  0  0
   -2.3341   27.4028    7.5037 C   0  0  0  0  0  0  0  0  0  0  0  0
   -1.1349   26.9880    6.6334 C   0  0  0  0  0  0  0  0  0  0  0  0
   -0.1493   28.1462    6.4147 C   0  0  0  0  0  0  0  0  0  0  0  0
   -0.8671   29.4826    6.2494 C   0  0  0  0  0  0  0  0  0  0  0  0
   -1.6237   26.4027    5.3032 C   0  0  0  0  0  0  0  0  0  0  0  0
   -0.8430   25.9913    4.4535 O   0  0  0  0  0  0  0  0  0  0  0  0
   -3.0077   26.4038    5.2102 N   0  0  0  0  0  0  0  0  0  0  0  0
   -3.5175   26.7620    6.0068 H   0  0  0  0  0  0  0  0  0  0  0  0
   -3.7978   25.9312    4.1402 C   0  0  0  0  0  0  0  0  0  0  0  0
   -4.6735   26.8634    3.5371 C   0  0  0  0  0  0  0  0  0  0  0  0
   -5.5064   26.4950    2.4749 C   0  0  0  0  0  0  0  0  0  0  0  0
   -5.4440   25.1926    2.0382 C   0  0  0  0  0  0  0  0  0  0  0  0
   -6.1767   24.6559    1.0275 O   0  0  0  0  0  0  0  0  0  0  0  0
   -5.7062   23.2925    1.0461 C   0  0  0  0  0  0  0  0  0  0  0  0
   -4.6917   23.0528    2.0396 O   0  0  0  0  0  0  0  0  0  0  0  0
   -4.5950   24.2819    2.6152 C   0  0  0  0  0  0  0  0  0  0  0  0
   -3.7585   24.6190    3.6618 C   0  0  0  0  0  0  0  0  0  0  0  0
   -3.3620   33.0649    8.4399 C   0  0  0  0  0  0  0  0  0  0  0  0
   -3.1600   31.5438    8.6470 C   0  0  0  0  0  0  0  0  0  0  0  0
   -2.4507   31.3731   10.0165 C   0  0  0  0  0  0  0  0  0  0  0  0
   -4.4014   30.6078    8.7059 C   0  0  0  0  0  0  0  0  0  0  0  0
   -4.8419   30.2382   10.0026 C   0  0  0  0  0  0  0  0  0  0  0  0
   -5.8859   29.3456   10.2046 C   0  0  0  0  0  0  0  0  0  0  0  0
   -6.5425   28.8061    9.1124 C   0  0  0  0  0  0  0  0  0  0  0  0
   -6.2003   29.1885    7.8122 C   0  0  0  0  0  0  0  0  0  0  0  0
   -6.9349   28.6425    6.7468 C   0  0  0  0  0  0  0  0  0  0  0  0
   -6.6843   29.0156    5.4326 C   0  0  0  0  0  0  0  0  0  0  0  0
   -5.7048   29.9576    5.1730 C   0  0  0  0  0  0  0  0  0  0  0  0
   -4.9629   30.5034    6.2263 C   0  0  0  0  0  0  0  0  0  0  0  0
   -5.1485   30.1220    7.5788 C   0  0  0  0  0  0  0  0  0  0  0  0
 22 23  1  0  0  0
 23 24  1  0  0  0
 23  1  1  0  0  0
  1  2  2  0  0  0
  1  3  1  0  0  0
  3  4  1  0  0  0
  4  5  1  0  0  0
  5  6  1  0  0  0
  6  9  1  0  0  0
  9 10  2  0  0  0
  9 11  1  0  0  0
 11 13  1  0  0  0
 13 14  1  0  0  0
 14 15  2  0  0  0
 15 16  1  0  0  0
 16 17  1  0  0  0
 17 18  1  0  0  0
 18 19  1  0  0  0
 19 20  1  0  0  0
 20 21  1  0  0  0
  6  7  1  0  0  0
  7  8  1  0  0  0
 23 25  1  0  0  0
 25 26  2  0  0  0
 26 27  1  0  0  0
 27 28  2  0  0  0
 28 29  1  0  0  0
 29 30  2  0  0  0
 30 31  1  0  0  0
 31 32  2  0  0  0
 32 33  1  0  0  0
 33 34  2  0  0  0
  8  3  1  0  0  0
 34 25  1  0  0  0
 21 13  2  0  0  0
 34 29  1  0  0  0
 20 16  2  0  0  0
 11 12  1  0  0  0
M  END
> <minimizedAffinity>
-11.05837

$$$$
OCNT-2311676


 26 29  0  0  0  0  0  0  0  0999 V2000
   -3.8312   25.7955    2.2176 O   0  0  0  0  0  0  0  0  0  0  0  0
   -5.0500   25.6861    2.2309 C   0  0  0  0  0  0  0  0  0  0  0  0
   -5.9455   26.4264    2.9829 N   0  0  0  0  0  0  0  0  0  0  0  0
   -6.9286   26.3033    2.7773 H   0  0  0  0  0  0  0  0  0  0  0  0
   -5.6858   24.6843    1.3440 C   0  0  0  0  0  0  0  0  0  0  0  0
   -6.3485   25.0686    0.1714 C   0  0  0  0  0  0  0  0  0  0  0  0
   -6.9240   24.0840   -0.6174 C   0  0  0  0  0  0  0  0  0  0  0  0
   -6.9036   22.7579   -0.3615 N   0  0  0  0  0  0  0  0  0  0  0  0
   -6.2736   22.4470    0.7857 C   0  0  0  0  0  0  0  0  0  0  0  0
   -5.6584   23.3180    1.6784 C   0  0  0  0  0  0  0  0  0  0  0  0
   -5.1360   22.5142    2.7318 C   0  0  0  0  0  0  0  0  0  0  0  0
   -5.4456   21.1993    2.4534 C   0  0  0  0  0  0  0  0  0  0  0  0
   -6.1376   21.1746    1.2699 N   0  0  0  0  0  0  0  0  0  0  0  0
   -6.5060   20.3572    0.8060 H   0  0  0  0  0  0  0  0  0  0  0  0
   -5.6425   27.4080    3.9493 C   0  0  0  0  0  0  0  0  0  0  0  0
   -6.0986   28.7086    3.7066 C   0  0  0  0  0  0  0  0  0  0  0  0
   -5.8471   29.7377    4.6199 C   0  0  0  0  0  0  0  0  0  0  0  0
   -5.1416   29.4832    5.8030 C   0  0  0  0  0  0  0  0  0  0  0  0
   -4.6854   28.1809    6.0419 C   0  0  0  0  0  0  0  0  0  0  0  0
   -4.9355   27.1537    5.1240 C   0  0  0  0  0  0  0  0  0  0  0  0
   -4.8591   30.5845    6.7941 C   0  0  0  0  0  0  0  0  0  0  0  0
   -3.5161   30.4971    7.3418 N   0  0  0  0  0  0  0  0  0  0  0  0
   -3.1779   30.0804    8.6003 C   0  0  0  0  0  0  0  0  0  0  0  0
   -1.8105   30.2162    8.6620 C   0  0  0  0  0  0  0  0  0  0  0  0
   -1.3165   30.7097    7.4825 N   0  0  0  0  0  0  0  0  0  0  0  0
   -2.3653   30.8713    6.7071 C   0  0  0  0  0  0  0  0  0  0  0  0
  1  2  2  0  0  0
  2  3  1  0  0  0
  3 15  1  0  0  0
 15 16  1  0  0  0
 16 17  2  0  0  0
 17 18  1  0  0  0
 18 21  1  0  0  0
 21 22  1  0  0  0
 22 23  1  0  0  0
 23 24  2  0  0  0
 24 25  1  0  0  0
 25 26  2  0  0  0
 18 19  2  0  0  0
 19 20  1  0  0  0
  2  5  1  0  0  0
  5  6  2  0  0  0
  6  7  1  0  0  0
  7  8  2  0  0  0
  8  9  1  0  0  0
  9 10  2  0  0  0
 10 11  1  0  0  0
 11 12  2  0  0  0
 12 13  1  0  0  0
 20 15  2  0  0  0
 10  5  1  0  0  0
 26 22  1  0  0  0
 13  9  1  0  0  0
  3  4  1  0  0  0
 13 14  1  0  0  0
M  END
> <minimizedAffinity>
-9.03920

$$$$
OCNT-2311683


 26 28  0  0  0  0  0  0  0  0999 V2000
   -6.6165   28.7752    6.4101 C   0  0  0  0  0  0  0  0  0  0  0  0
   -7.5366   29.9201    5.9651 C   0  0  0  0  0  0  0  0  0  0  0  0
   -7.3475   28.0401    7.4100 O   0  0  0  0  0  0  0  0  0  0  0  0
   -6.6475   27.5321    7.8709 H   0  0  0  0  0  0  0  0  0  0  0  0
   -6.2960   27.8696    5.2113 C   0  0  0  0  0  0  0  0  0  0  0  0
   -6.0344   28.4232    3.9420 C   0  0  0  0  0  0  0  0  0  0  0  0
   -5.7478   27.6075    2.8422 C   0  0  0  0  0  0  0  0  0  0  0  0
   -5.7335   26.2233    2.9995 C   0  0  0  0  0  0  0  0  0  0  0  0
   -5.9804   25.6466    4.2453 C   0  0  0  0  0  0  0  0  0  0  0  0
   -6.2665   26.4686    5.3393 C   0  0  0  0  0  0  0  0  0  0  0  0
   -5.3538   25.1826    1.6123 S   0  0  0  0  0  0  0  0  0  0  0  0
   -5.9404   23.5891    2.1280 C   0  0  0  0  0  0  0  0  0  0  0  0
   -3.9065   25.1127    1.4931 O   0  0  0  0  0  0  0  0  0  0  0  0
   -6.1696   25.6268    0.4964 O   0  0  0  0  0  0  0  0  0  0  0  0
   -5.3392   29.3464    7.1108 C   0  0  0  0  0  0  0  0  0  0  0  0
   -2.1189   31.9228   10.7844 C   0  0  0  0  0  0  0  0  0  0  0  0
   -1.8376   31.3159    9.4327 C   0  0  0  0  0  0  0  0  0  0  0  0
   -0.5569   30.8006    9.1676 C   0  0  0  0  0  0  0  0  0  0  0  0
   -0.2545   30.2464    7.9257 C   0  0  0  0  0  0  0  0  0  0  0  0
   -1.2290   30.1965    6.9328 C   0  0  0  0  0  0  0  0  0  0  0  0
   -2.5214   30.6886    7.1750 C   0  0  0  0  0  0  0  0  0  0  0  0
   -2.8280   31.2666    8.4247 C   0  0  0  0  0  0  0  0  0  0  0  0
   -4.2334   31.7737    8.6812 C   0  0  0  0  0  0  0  0  0  0  0  0
   -5.1413   31.7845    7.4339 C   0  0  0  0  0  0  0  0  0  0  0  0
   -4.9470   30.6477    6.5114 N   0  0  0  0  0  0  0  0  0  0  0  0
   -3.5456   30.6514    6.0589 C   0  0  0  0  0  0  0  0  0  0  0  0
 16 17  1  0  0  0
 17 18  1  0  0  0
 18 19  2  0  0  0
 19 20  1  0  0  0
 20 21  2  0  0  0
 21 22  1  0  0  0
 22 23  1  0  0  0
 23 24  1  0  0  0
 24 25  1  0  0  0
 25 15  1  0  0  0
 15  1  1  0  0  0
  1  2  1  0  0  0
  1  3  1  0  0  0
  1  5  1  0  0  0
  5  6  1  0  0  0
  6  7  2  0  0  0
  7  8  1  0  0  0
  8 11  1  0  0  0
 11 12  1  0  0  0
 11 13  2  0  0  0
 11 14  2  0  0  0
  8  9  2  0  0  0
  9 10  1  0  0  0
 25 26  1  0  0  0
 22 17  2  0  0  0
 10  5  2  0  0  0
 26 21  1  0  0  0
  3  4  1  0  0  0
M  END
> <minimizedAffinity>
-9.40989

$$$$
OCNT-2311687


 25 28  0  0  0  0  0  0  0  0999 V2000
    1.6624   29.3732    8.4250 O   0  0  0  0  0  0  0  0  0  0  0  0
    0.5296   29.0450    8.0889 C   0  0  0  0  0  0  0  0  0  0  0  0
   -0.5935   29.6589    8.5934 N   0  0  0  0  0  0  0  0  0  0  0  0
   -1.8956   29.3450    8.2805 C   0  0  0  0  0  0  0  0  0  0  0  0
   -2.8636   29.9072    8.7757 O   0  0  0  0  0  0  0  0  0  0  0  0
   -2.0356   28.2699    7.3067 C   0  0  0  0  0  0  0  0  0  0  0  0
   -0.9563   27.6751    6.8141 C   0  0  0  0  0  0  0  0  0  0  0  0
   -1.3374   26.6088    5.8500 C   0  0  0  0  0  0  0  0  0  0  0  0
   -2.7849   26.8592    5.6133 N   0  0  0  0  0  0  0  0  0  0  0  0
   -3.2719   27.6953    6.7456 C   0  0  0  0  0  0  0  0  0  0  0  0
    0.3009   28.0359    7.1846 N   0  0  0  0  0  0  0  0  0  0  0  0
   -0.4451   30.3966    9.2633 H   0  0  0  0  0  0  0  0  0  0  0  0
    1.1168   27.5744    6.8005 H   0  0  0  0  0  0  0  0  0  0  0  0
   -3.5721   25.6305    5.4455 C   0  0  0  0  0  0  0  0  0  0  0  0
   -4.7117   25.7158    4.4113 C   0  0  0  0  0  0  0  0  0  0  0  0
   -5.0123   27.1104    3.8884 C   0  0  0  0  0  0  0  0  0  0  0  0
   -5.7470   26.7901    2.6101 C   0  0  0  0  0  0  0  0  0  0  0  0
   -4.9780   25.5781    2.0937 C   0  0  0  0  0  0  0  0  0  0  0  0
   -4.4538   24.8974    3.2544 O   0  0  0  0  0  0  0  0  0  0  0  0
   -5.8212   24.6735    1.2249 C   0  0  0  0  0  0  0  0  0  0  0  0
   -6.4971   25.2115    0.1173 C   0  0  0  0  0  0  0  0  0  0  0  0
   -7.2920   24.4020   -0.6967 C   0  0  0  0  0  0  0  0  0  0  0  0
   -7.4227   23.0444   -0.4147 C   0  0  0  0  0  0  0  0  0  0  0  0
   -6.7591   22.4959    0.6803 C   0  0  0  0  0  0  0  0  0  0  0  0
   -5.9642   23.3049    1.4952 C   0  0  0  0  0  0  0  0  0  0  0  0
  1  2  2  0  0  0
  2  3  1  0  0  0
  3  4  1  0  0  0
  4  5  2  0  0  0
  4  6  1  0  0  0
  6  7  2  0  0  0
  7  8  1  0  0  0
  8  9  1  0  0  0
  9 14  1  0  0  0
 14 15  1  0  0  0
 15 16  1  0  0  0
 16 17  1  0  0  0
 17 18  1  0  0  0
 18 20  1  0  0  0
 20 21  2  0  0  0
 21 22  1  0  0  0
 22 23  2  0  0  0
 23 24  1  0  0  0
 24 25  2  0  0  0
 18 19  1  0  0  0
  9 10  1  0  0  0
  7 11  1  0  0  0
 11  2  1  0  0  0
 10  6  1  0  0  0
 19 15  1  0  0  0
 25 20  1  0  0  0
  3 12  1  0  0  0
 11 13  1  0  0  0
M  END
> <minimizedAffinity>
-9.69936

$$$$
OCNT-2311711


 29 33  0  0  0  0  0  0  0  0999 V2000
   -1.4622   25.9306    4.1805 C   0  0  0  0  0  0  0  0  0  0  0  0
   -0.6890   24.9929    3.9928 O   0  0  0  0  0  0  0  0  0  0  0  0
   -2.7817   25.8685    3.7798 N   0  0  0  0  0  0  0  0  0  0  0  0
   -3.2317   24.7423    2.9722 C   0  0  0  0  0  0  0  0  0  0  0  0
   -4.3670   25.3183    2.1208 C   0  0  0  0  0  0  0  0  0  0  0  0
   -5.0416   26.3005    3.1075 C   0  0  0  0  0  0  0  0  0  0  0  0
   -6.0650   25.6561    4.0558 C   0  0  0  0  0  0  0  0  0  0  0  0
   -6.6320   26.6742    5.0457 C   0  0  0  0  0  0  0  0  0  0  0  0
   -5.6210   27.7381    5.4673 C   0  0  0  0  0  0  0  0  0  0  0  0
   -4.1855   27.2450    5.3431 C   0  0  0  0  0  0  0  0  0  0  0  0
   -3.8348   26.8878    3.8910 C   0  0  0  0  0  0  0  0  0  0  0  0
   -5.2863   24.3566    1.4032 C   0  0  0  0  0  0  0  0  0  0  0  0
   -6.2160   24.8653    0.4792 C   0  0  0  0  0  0  0  0  0  0  0  0
   -7.0794   24.0168   -0.2165 C   0  0  0  0  0  0  0  0  0  0  0  0
   -7.0228   22.6425   -0.0059 C   0  0  0  0  0  0  0  0  0  0  0  0
   -6.0993   22.1192    0.8944 C   0  0  0  0  0  0  0  0  0  0  0  0
   -5.2342   22.9684    1.5904 C   0  0  0  0  0  0  0  0  0  0  0  0
   -1.0071   27.1918    4.8856 C   0  0  0  0  0  0  0  0  0  0  0  0
   -0.7454   26.9740    6.3803 C   0  0  0  0  0  0  0  0  0  0  0  0
    0.8013   29.0227    7.5523 O   0  0  0  0  0  0  0  0  0  0  0  0
   -0.4149   29.0223    7.7121 C   0  0  0  0  0  0  0  0  0  0  0  0
   -1.0806   30.0494    8.4909 C   0  0  0  0  0  0  0  0  0  0  0  0
   -2.4226   29.9000    8.7595 C   0  0  0  0  0  0  0  0  0  0  0  0
   -3.2114   28.8672    8.3721 N   0  0  0  0  0  0  0  0  0  0  0  0
   -2.6052   27.9921    7.6353 C   0  0  0  0  0  0  0  0  0  0  0  0
   -1.2808   28.0360    7.2303 N   0  0  0  0  0  0  0  0  0  0  0  0
   -3.0302   31.1993    9.6852 S   0  0  0  0  0  0  0  0  0  0  0  0
   -1.4976   31.9643    9.7330 C   0  0  0  0  0  0  0  0  0  0  0  0
   -0.5387   31.2405    9.0583 C   0  0  0  0  0  0  0  0  0  0  0  0
 20 21  2  0  0  0
 21 22  1  0  0  0
 22 23  2  0  0  0
 23 24  1  0  0  0
 24 25  2  0  0  0
 25 26  1  0  0  0
 26 19  1  0  0  0
 19 18  1  0  0  0
 18  1  1  0  0  0
  1  2  2  0  0  0
  1  3  1  0  0  0
  3  4  1  0  0  0
  4  5  1  0  0  0
  5 12  1  0  0  0
 12 13  2  0  0  0
 13 14  1  0  0  0
 14 15  2  0  0  0
 15 16  1  0  0  0
 16 17  2  0  0  0
  5  6  1  0  0  0
  6  7  1  0  0  0
  7  8  1  0  0  0
  8  9  1  0  0  0
  9 10  1  0  0  0
 10 11  1  0  0  0
 23 27  1  0  0  0
 27 28  1  0  0  0
 28 29  2  0  0  0
 26 21  1  0  0  0
 11  3  1  0  0  0
 29 22  1  0  0  0
 17 12  1  0  0  0
 11  6  1  0  0  0
M  END
> <minimizedAffinity>
-10.44710

$$$$
OCNT-2311723


 28 31  0  0  0  0  0  0  0  0999 V2000
   -6.0011   24.9164    1.1425 C   0  0  0  0  0  0  0  0  0  0  0  0
   -5.3908   25.6313    2.3028 C   0  0  0  0  0  0  0  0  0  0  0  0
   -5.8678   26.7580    2.9444 C   0  0  0  0  0  0  0  0  0  0  0  0
   -4.9977   27.1253    4.0089 C   0  0  0  0  0  0  0  0  0  0  0  0
   -3.9295   26.2972    4.1446 C   0  0  0  0  0  0  0  0  0  0  0  0
   -3.1495   26.7521    5.2404 C   0  0  0  0  0  0  0  0  0  0  0  0
   -3.7817   27.8840    5.7474 C   0  0  0  0  0  0  0  0  0  0  0  0
   -4.9164   28.1023    4.9800 N   0  0  0  0  0  0  0  0  0  0  0  0
   -3.9223   25.0295    2.9688 S   0  0  0  0  0  0  0  0  0  0  0  0
   -3.3835   28.7083    6.8832 C   0  0  0  0  0  0  0  0  0  0  0  0
   -3.1744   28.2586    8.0068 O   0  0  0  0  0  0  0  0  0  0  0  0
   -3.2916   30.0588    6.6261 N   0  0  0  0  0  0  0  0  0  0  0  0
   -3.8635   30.3955    5.8557 H   0  0  0  0  0  0  0  0  0  0  0  0
   -3.1522   31.0028    7.7209 C   0  0  0  0  0  0  0  0  0  0  0  0
   -3.5827   30.4631    9.0782 C   0  0  0  0  0  0  0  0  0  0  0  0
   -2.9243   31.2645   10.0713 O   0  0  0  0  0  0  0  0  0  0  0  0
   -1.8388   31.9665    9.4394 C   0  0  0  0  0  0  0  0  0  0  0  0
   -1.7319   31.4944    7.9954 C   0  0  0  0  0  0  0  0  0  0  0  0
   -0.6726   30.5054    7.8424 N   0  0  0  0  0  0  0  0  0  0  0  0
    0.0799   29.9801    8.8594 C   0  0  0  0  0  0  0  0  0  0  0  0
    0.9679   29.1104    8.2731 C   0  0  0  0  0  0  0  0  0  0  0  0
    0.6856   29.1849    6.8988 C   0  0  0  0  0  0  0  0  0  0  0  0
   -0.3031   30.0404    6.6276 N   0  0  0  0  0  0  0  0  0  0  0  0
   -5.8917   29.1694    5.0973 C   0  0  0  0  0  0  0  0  0  0  0  0
   -6.9054   28.9435    6.1984 C   0  0  0  0  0  0  0  0  0  0  0  0
   -7.9636   29.7759    6.0345 F   0  0  0  0  0  0  0  0  0  0  0  0
   -6.4100   29.1585    7.4333 F   0  0  0  0  0  0  0  0  0  0  0  0
   -7.3962   27.6819    6.1644 F   0  0  0  0  0  0  0  0  0  0  0  0
  1  2  1  0  0  0
  2  3  2  0  0  0
  3  4  1  0  0  0
  4  5  2  0  0  0
  5  6  1  0  0  0
  6  7  2  0  0  0
  7 10  1  0  0  0
 10 11  2  0  0  0
 10 12  1  0  0  0
 12 14  1  0  0  0
 14 15  1  0  0  0
 15 16  1  0  0  0
 16 17  1  0  0  0
 17 18  1  0  0  0
 18 19  1  0  0  0
 19 20  1  0  0  0
 20 21  2  0  0  0
 21 22  1  0  0  0
 22 23  2  0  0  0
  7  8  1  0  0  0
  8 24  1  0  0  0
 24 25  1  0  0  0
 25 26  1  0  0  0
 25 27  1  0  0  0
 25 28  1  0  0  0
  5  9  1  0  0  0
  9  2  1  0  0  0
  8  4  1  0  0  0
 18 14  1  0  0  0
 23 19  1  0  0  0
 12 13  1  0  0  0
M  END
> <minimizedAffinity>
-9.31553

$$$$
OCNT-2311727


 25 26  0  0  0  0  0  0  0  0999 V2000
   -5.5507   27.9440    3.7859 C   0  0  0  0  0  0  0  0  0  0  0  0
   -5.2046   26.7655    4.7154 C   0  0  0  0  0  0  0  0  0  0  0  0
   -5.6311   27.1348    6.0568 O   0  0  0  0  0  0  0  0  0  0  0  0
   -5.2648   26.4552    6.6574 H   0  0  0  0  0  0  0  0  0  0  0  0
   -3.7135   26.5737    4.7769 C   0  0  0  0  0  0  0  0  0  0  0  0
   -2.9070   26.5512    5.8214 N   0  0  0  0  0  0  0  0  0  0  0  0
   -1.6681   26.3193    5.2823 C   0  0  0  0  0  0  0  0  0  0  0  0
   -1.7675   26.2018    3.9202 C   0  0  0  0  0  0  0  0  0  0  0  0
   -3.0768   26.3499    3.5783 O   0  0  0  0  0  0  0  0  0  0  0  0
   -5.8449   25.4397    4.2607 C   0  0  0  0  0  0  0  0  0  0  0  0
   -6.9934   25.1915    4.9417 F   0  0  0  0  0  0  0  0  0  0  0  0
   -5.0334   24.3765    4.4362 F   0  0  0  0  0  0  0  0  0  0  0  0
   -6.1885   25.4743    2.9504 F   0  0  0  0  0  0  0  0  0  0  0  0
   -6.1923   29.1349    4.4965 C   0  0  0  0  0  0  0  0  0  0  0  0
   -4.9813   30.3669    6.2667 C   0  0  0  0  0  0  0  0  0  0  0  0
   -5.6249   29.8413    7.1680 O   0  0  0  0  0  0  0  0  0  0  0  0
   -5.1880   30.0876    4.9313 N   0  0  0  0  0  0  0  0  0  0  0  0
   -4.6638   30.5938    4.2310 H   0  0  0  0  0  0  0  0  0  0  0  0
   -3.9089   31.4185    6.4930 C   0  0  0  0  0  0  0  0  0  0  0  0
   -4.1064   33.3683    8.7936 C   0  0  0  0  0  0  0  0  0  0  0  0
   -3.6878   31.9155    9.0257 C   0  0  0  0  0  0  0  0  0  0  0  0
   -2.5150   31.8218   10.0049 C   0  0  0  0  0  0  0  0  0  0  0  0
   -1.2576   31.9809    9.1512 C   0  0  0  0  0  0  0  0  0  0  0  0
   -1.6739   31.6964    7.7083 C   0  0  0  0  0  0  0  0  0  0  0  0
   -3.1230   31.1967    7.7866 C   0  0  0  0  0  0  0  0  0  0  0  0
 20 21  1  0  0  0
 21 22  1  0  0  0
 22 23  1  0  0  0
 23 24  1  0  0  0
 24 25  1  0  0  0
 25 19  1  0  0  0
 19 15  1  0  0  0
 15 16  2  0  0  0
 15 17  1  0  0  0
 17 14  1  0  0  0
 14  1  1  0  0  0
  1  2  1  0  0  0
  2  3  1  0  0  0
  2  5  1  0  0  0
  5  6  2  0  0  0
  6  7  1  0  0  0
  7  8  2  0  0  0
  8  9  1  0  0  0
  2 10  1  0  0  0
 10 11  1  0  0  0
 10 12  1  0  0  0
 10 13  1  0  0  0
 25 21  1  0  0  0
  9  5  1  0  0  0
 17 18  1  0  0  0
  3  4  1  0  0  0
M  END
> <minimizedAffinity>
-8.02107

$$$$
OCNT-2311745


 24 26  0  0  0  0  0  0  0  0999 V2000
   -5.5467   28.6928    5.4655 C   0  0  0  0  0  0  0  0  0  0  0  0
   -5.9131   29.5488    4.4430 C   0  0  0  0  0  0  0  0  0  0  0  0
   -6.1027   29.0017    3.1949 C   0  0  0  0  0  0  0  0  0  0  0  0
   -5.9583   27.6963    2.9281 N   0  0  0  0  0  0  0  0  0  0  0  0
   -5.6354   26.9179    3.9769 C   0  0  0  0  0  0  0  0  0  0  0  0
   -5.4170   27.3746    5.2278 N   0  0  0  0  0  0  0  0  0  0  0  0
   -5.0758   31.0156    9.0700 C   0  0  0  0  0  0  0  0  0  0  0  0
   -6.3240   30.9531    8.1642 C   0  0  0  0  0  0  0  0  0  0  0  0
   -6.5256   29.5704    7.5487 C   0  0  0  0  0  0  0  0  0  0  0  0
   -5.3566   29.1654    6.7636 N   0  0  0  0  0  0  0  0  0  0  0  0
   -4.1034   29.8897    7.0024 C   0  0  0  0  0  0  0  0  0  0  0  0
   -3.9465   30.1287    8.4997 C   0  0  0  0  0  0  0  0  0  0  0  0
   -4.6446   32.4255    9.2667 N   0  0  0  0  0  0  0  0  0  0  0  0
   -3.1850   32.5539    9.3355 C   0  0  0  0  0  0  0  0  0  0  0  0
   -4.8882   34.5325    8.2629 C   0  0  0  0  0  0  0  0  0  0  0  0
   -4.9966   33.1280    8.0309 O   0  0  0  0  0  0  0  0  0  0  0  0
   -5.5033   25.4340    3.7331 C   0  0  0  0  0  0  0  0  0  0  0  0
   -4.3794   25.0004    2.3554 S   0  0  0  0  0  0  0  0  0  0  0  0
   -5.5679   24.3572    1.1934 C   0  0  0  0  0  0  0  0  0  0  0  0
   -6.1852   25.1983    0.2634 C   0  0  0  0  0  0  0  0  0  0  0  0
   -7.1110   24.6807   -0.6452 C   0  0  0  0  0  0  0  0  0  0  0  0
   -7.4187   23.3208   -0.6302 C   0  0  0  0  0  0  0  0  0  0  0  0
   -6.7995   22.4766    0.2903 C   0  0  0  0  0  0  0  0  0  0  0  0
   -5.8730   22.9929    1.1981 C   0  0  0  0  0  0  0  0  0  0  0  0
 15 16  1  0  0  0
 16 13  1  0  0  0
 13 14  1  0  0  0
 13  7  1  0  0  0
  7  8  1  0  0  0
  8  9  1  0  0  0
  9 10  1  0  0  0
 10  1  1  0  0  0
  1  2  1  0  0  0
  2  3  2  0  0  0
  3  4  1  0  0  0
  4  5  2  0  0  0
  5 17  1  0  0  0
 17 18  1  0  0  0
 18 19  1  0  0  0
 19 20  2  0  0  0
 20 21  1  0  0  0
 21 22  2  0  0  0
 22 23  1  0  0  0
 23 24  2  0  0  0
  5  6  1  0  0  0
 10 11  1  0  0  0
 11 12  1  0  0  0
 12  7  1  0  0  0
  6  1  2  0  0  0
 24 19  1  0  0  0
M  END
> <minimizedAffinity>
-8.80612

$$$$
OCNT-2311748


 27 30  0  0  0  0  0  0  0  0999 V2000
   -2.7136   26.3816    3.2420 N   0  0  0  0  0  0  0  0  0  0  0  0
   -2.2095   27.0246    2.6350 H   0  0  0  0  0  0  0  0  0  0  0  0
   -5.8472   23.4652    0.9225 C   0  0  0  0  0  0  0  0  0  0  0  0
   -5.2512   24.5048    1.7259 N   0  0  0  0  0  0  0  0  0  0  0  0
   -3.9229   24.6996    1.9554 C   0  0  0  0  0  0  0  0  0  0  0  0
   -3.8438   25.7986    2.7726 C   0  0  0  0  0  0  0  0  0  0  0  0
   -5.2003   26.1958    3.0105 C   0  0  0  0  0  0  0  0  0  0  0  0
   -6.0463   25.4058    2.3243 N   0  0  0  0  0  0  0  0  0  0  0  0
   -5.7039   27.2912    3.8403 C   0  0  0  0  0  0  0  0  0  0  0  0
   -6.1000   27.0679    5.1664 C   0  0  0  0  0  0  0  0  0  0  0  0
   -6.5714   28.1221    5.9531 C   0  0  0  0  0  0  0  0  0  0  0  0
   -6.6582   29.4068    5.4191 C   0  0  0  0  0  0  0  0  0  0  0  0
   -6.2814   29.6385    4.0974 C   0  0  0  0  0  0  0  0  0  0  0  0
   -5.8101   28.5849    3.3105 C   0  0  0  0  0  0  0  0  0  0  0  0
   -1.8930   25.7865    4.2765 C   0  0  0  0  0  0  0  0  0  0  0  0
   -1.7092   26.6924    5.4376 C   0  0  0  0  0  0  0  0  0  0  0  0
   -2.5322   27.6340    6.0150 C   0  0  0  0  0  0  0  0  0  0  0  0
   -1.7968   28.1845    7.1012 C   0  0  0  0  0  0  0  0  0  0  0  0
   -0.5868   27.6035    7.1782 N   0  0  0  0  0  0  0  0  0  0  0  0
   -0.5586   26.7245    6.1675 N   0  0  0  0  0  0  0  0  0  0  0  0
    0.2871   26.1793    6.0321 H   0  0  0  0  0  0  0  0  0  0  0  0
   -2.2081   29.2275    8.0478 C   0  0  0  0  0  0  0  0  0  0  0  0
   -1.2609   30.0968    8.5986 C   0  0  0  0  0  0  0  0  0  0  0  0
   -1.6831   31.0695    9.4889 C   0  0  0  0  0  0  0  0  0  0  0  0
   -2.9682   31.2352    9.8648 N   0  0  0  0  0  0  0  0  0  0  0  0
   -3.8684   30.3893    9.3239 C   0  0  0  0  0  0  0  0  0  0  0  0
   -3.5444   29.3845    8.4249 C   0  0  0  0  0  0  0  0  0  0  0  0
  3  4  1  0  0  0
  4  5  1  0  0  0
  5  6  2  0  0  0
  6  1  1  0  0  0
  1 15  1  0  0  0
 15 16  1  0  0  0
 16 17  2  0  0  0
 17 18  1  0  0  0
 18 22  1  0  0  0
 22 23  2  0  0  0
 23 24  1  0  0  0
 24 25  2  0  0  0
 25 26  1  0  0  0
 26 27  2  0  0  0
 18 19  2  0  0  0
 19 20  1  0  0  0
  6  7  1  0  0  0
  7  9  1  0  0  0
  9 10  2  0  0  0
 10 11  1  0  0  0
 11 12  2  0  0  0
 12 13  1  0  0  0
 13 14  2  0  0  0
  7  8  2  0  0  0
  8  4  1  0  0  0
 20 16  1  0  0  0
 14  9  1  0  0  0
 27 22  1  0  0  0
  1  2  1  0  0  0
 20 21  1  0  0  0
M  END
> <minimizedAffinity>
-9.54835

$$$$
OCNT-2311751


 27 30  0  0  0  0  0  0  0  0999 V2000
   -5.1432   26.4774    5.2488 O   0  0  0  0  0  0  0  0  0  0  0  0
   -4.0471   26.2228    4.7693 C   0  0  0  0  0  0  0  0  0  0  0  0
   -3.7788   25.5413    3.6149 N   0  0  0  0  0  0  0  0  0  0  0  0
   -2.8002   25.4244    3.3741 H   0  0  0  0  0  0  0  0  0  0  0  0
   -4.6392   24.9780    2.7074 C   0  0  0  0  0  0  0  0  0  0  0  0
   -5.2302   25.8350    1.8657 N   0  0  0  0  0  0  0  0  0  0  0  0
   -6.0049   25.0646    1.0938 N   0  0  0  0  0  0  0  0  0  0  0  0
   -5.9495   23.7354    1.3939 C   0  0  0  0  0  0  0  0  0  0  0  0
   -6.6014   22.6388    0.8246 C   0  0  0  0  0  0  0  0  0  0  0  0
   -7.6932   22.8329   -0.4864 Cl  0  0  0  0  0  0  0  0  0  0  0  0
   -6.3416   21.3747    1.3513 C   0  0  0  0  0  0  0  0  0  0  0  0
   -5.4552   21.2255    2.4136 C   0  0  0  0  0  0  0  0  0  0  0  0
   -4.8093   22.3393    2.9726 C   0  0  0  0  0  0  0  0  0  0  0  0
   -5.0543   23.6314    2.4593 C   0  0  0  0  0  0  0  0  0  0  0  0
   -6.5586   25.5050    0.3668 H   0  0  0  0  0  0  0  0  0  0  0  0
   -2.8051   26.6563    5.4264 C   0  0  0  0  0  0  0  0  0  0  0  0
   -1.5369   26.4093    4.9363 C   0  0  0  0  0  0  0  0  0  0  0  0
   -0.3567   27.0723    5.9828 S   0  0  0  0  0  0  0  0  0  0  0  0
   -1.6036   27.6296    7.0299 C   0  0  0  0  0  0  0  0  0  0  0  0
   -2.8311   27.3698    6.6297 N   0  0  0  0  0  0  0  0  0  0  0  0
   -1.2667   28.3926    8.2772 C   0  0  0  0  0  0  0  0  0  0  0  0
   -1.7141   29.8550    8.2842 C   0  0  0  0  0  0  0  0  0  0  0  0
   -0.8108   30.8366    9.0316 C   0  0  0  0  0  0  0  0  0  0  0  0
   -1.7568   31.9260    9.5314 C   0  0  0  0  0  0  0  0  0  0  0  0
   -3.0723   31.5886    8.9856 N   0  0  0  0  0  0  0  0  0  0  0  0
   -3.0901   30.1289    8.8740 C   0  0  0  0  0  0  0  0  0  0  0  0
   -3.8140   31.9119    9.6050 H   0  0  0  0  0  0  0  0  0  0  0  0
  1  2  2  0  0  0
  2  3  1  0  0  0
  3  5  1  0  0  0
  5  6  2  0  0  0
  6  7  1  0  0  0
  7  8  1  0  0  0
  8  9  2  0  0  0
  9 10  1  0  0  0
  9 11  1  0  0  0
 11 12  2  0  0  0
 12 13  1  0  0  0
 13 14  2  0  0  0
  2 16  1  0  0  0
 16 17  2  0  0  0
 17 18  1  0  0  0
 18 19  1  0  0  0
 19 21  1  0  0  0
 21 22  1  0  0  0
 22 23  1  0  0  0
 23 24  1  0  0  0
 24 25  1  0  0  0
 25 26  1  0  0  0
 19 20  2  0  0  0
 14  5  1  0  0  0
 20 16  1  0  0  0
 14  8  1  0  0  0
 26 22  1  0  0  0
  3  4  1  0  0  0
  7 15  1  0  0  0
 25 27  1  0  0  0
M  END
> <minimizedAffinity>
-9.15955

$$$$
OCNT-2311754


 25 27  0  0  0  0  0  0  0  0999 V2000
   -5.0847   30.2272    5.2810 N   0  0  0  0  0  0  0  0  0  0  0  0
   -4.3682   29.7816    4.7105 H   0  0  0  0  0  0  0  0  0  0  0  0
   -4.6675   30.2080    6.6822 C   0  0  0  0  0  0  0  0  0  0  0  0
   -1.0148   26.8007    6.3498 C   0  0  0  0  0  0  0  0  0  0  0  0
   -1.7856   27.9735    6.6827 N   0  0  0  0  0  0  0  0  0  0  0  0
   -3.0445   28.2713    6.2732 C   0  0  0  0  0  0  0  0  0  0  0  0
   -3.3687   29.4907    6.8412 C   0  0  0  0  0  0  0  0  0  0  0  0
   -2.2090   29.8378    7.6166 C   0  0  0  0  0  0  0  0  0  0  0  0
   -1.2570   28.8986    7.4893 N   0  0  0  0  0  0  0  0  0  0  0  0
   -1.9530   31.0335    8.5376 C   0  0  0  0  0  0  0  0  0  0  0  0
   -1.9895   32.3671    7.7676 C   0  0  0  0  0  0  0  0  0  0  0  0
   -0.5581   30.9475    9.2093 C   0  0  0  0  0  0  0  0  0  0  0  0
   -3.0044   31.0635    9.6646 C   0  0  0  0  0  0  0  0  0  0  0  0
   -6.3643   29.5690    5.0492 C   0  0  0  0  0  0  0  0  0  0  0  0
   -6.1498   28.1841    4.5013 C   0  0  0  0  0  0  0  0  0  0  0  0
   -5.8342   27.9668    3.1587 C   0  0  0  0  0  0  0  0  0  0  0  0
   -5.6570   26.6659    2.6849 C   0  0  0  0  0  0  0  0  0  0  0  0
   -5.8063   25.6053    3.5746 C   0  0  0  0  0  0  0  0  0  0  0  0
   -6.1225   25.7914    4.8820 N   0  0  0  0  0  0  0  0  0  0  0  0
   -6.2956   27.0639    5.3092 C   0  0  0  0  0  0  0  0  0  0  0  0
   -5.6309   24.2649    3.1341 N   0  0  0  0  0  0  0  0  0  0  0  0
   -5.4119   23.1261    3.8790 C   0  0  0  0  0  0  0  0  0  0  0  0
   -5.3156   22.0968    2.9709 C   0  0  0  0  0  0  0  0  0  0  0  0
   -5.4671   22.5566    1.6937 N   0  0  0  0  0  0  0  0  0  0  0  0
   -5.6526   23.8533    1.8195 C   0  0  0  0  0  0  0  0  0  0  0  0
  4  5  1  0  0  0
  5  6  1  0  0  0
  6  7  2  0  0  0
  7  3  1  0  0  0
  3  1  1  0  0  0
  1 14  1  0  0  0
 14 15  1  0  0  0
 15 16  2  0  0  0
 16 17  1  0  0  0
 17 18  2  0  0  0
 18 21  1  0  0  0
 21 22  1  0  0  0
 22 23  2  0  0  0
 23 24  1  0  0  0
 24 25  2  0  0  0
 18 19  1  0  0  0
 19 20  2  0  0  0
  7  8  1  0  0  0
  8 10  1  0  0  0
 10 11  1  0  0  0
 10 12  1  0  0  0
 10 13  1  0  0  0
  8  9  2  0  0  0
  9  5  1  0  0  0
 20 15  1  0  0  0
 25 21  1  0  0  0
  1  2  1  0  0  0
M  END
> <minimizedAffinity>
-8.49071

$$$$
OCNT-2311760


 27 30  0  0  0  0  0  0  0  0999 V2000
   -6.6817   30.5564    7.6382 O   0  0  0  0  0  0  0  0  0  0  0  0
   -6.3441   29.3883    7.4593 C   0  0  0  0  0  0  0  0  0  0  0  0
   -5.2619   28.8209    8.1021 N   0  0  0  0  0  0  0  0  0  0  0  0
   -4.8989   27.9530    7.7253 H   0  0  0  0  0  0  0  0  0  0  0  0
   -7.1412   28.4468    6.5688 C   0  0  0  0  0  0  0  0  0  0  0  0
   -6.5354   28.2554    5.2118 C   0  0  0  0  0  0  0  0  0  0  0  0
   -6.1910   29.2522    4.3186 C   0  0  0  0  0  0  0  0  0  0  0  0
   -5.6606   28.6664    3.2006 N   0  0  0  0  0  0  0  0  0  0  0  0
   -5.6581   27.2978    3.3369 C   0  0  0  0  0  0  0  0  0  0  0  0
   -5.2184   26.3060    2.4501 C   0  0  0  0  0  0  0  0  0  0  0  0
   -5.3319   24.9764    2.8634 C   0  0  0  0  0  0  0  0  0  0  0  0
   -5.8608   24.6677    4.1098 C   0  0  0  0  0  0  0  0  0  0  0  0
   -5.9567   23.3826    4.4775 F   0  0  0  0  0  0  0  0  0  0  0  0
   -6.2955   25.6596    4.9886 C   0  0  0  0  0  0  0  0  0  0  0  0
   -6.1936   27.0086    4.5938 C   0  0  0  0  0  0  0  0  0  0  0  0
   -5.3127   29.1620    2.3908 H   0  0  0  0  0  0  0  0  0  0  0  0
   -4.3591   29.6403    8.9022 C   0  0  0  0  0  0  0  0  0  0  0  0
   -3.3515   30.4620    8.0513 C   0  0  0  0  0  0  0  0  0  0  0  0
   -3.2434   31.8748    8.5168 N   0  0  0  0  0  0  0  0  0  0  0  0
   -2.4212   32.0211    9.7287 C   0  0  0  0  0  0  0  0  0  0  0  0
   -0.9528   31.6126    9.5016 C   0  0  0  0  0  0  0  0  0  0  0  0
   -0.9058   30.3371    8.7258 C   0  0  0  0  0  0  0  0  0  0  0  0
   -1.9846   29.8186    8.0356 C   0  0  0  0  0  0  0  0  0  0  0  0
   -1.6153   28.6224    7.3423 C   0  0  0  0  0  0  0  0  0  0  0  0
   -0.2946   28.2849    7.5497 C   0  0  0  0  0  0  0  0  0  0  0  0
    0.5044   29.4054    8.5680 S   0  0  0  0  0  0  0  0  0  0  0  0
   -4.1932   32.1942    8.7059 H   0  0  0  0  0  0  0  0  0  0  0  0
  1  2  2  0  0  0
  2  5  1  0  0  0
  5  6  1  0  0  0
  6  7  2  0  0  0
  7  8  1  0  0  0
  8  9  1  0  0  0
  9 10  2  0  0  0
 10 11  1  0  0  0
 11 12  2  0  0  0
 12 13  1  0  0  0
 12 14  1  0  0  0
 14 15  2  0  0  0
  2  3  1  0  0  0
  3 17  1  0  0  0
 17 18  1  0  0  0
 18 19  1  0  0  0
 19 20  1  0  0  0
 20 21  1  0  0  0
 21 22  1  0  0  0
 22 23  2  0  0  0
 23 24  1  0  0  0
 24 25  2  0  0  0
 25 26  1  0  0  0
 15  6  1  0  0  0
 23 18  1  0  0  0
 15  9  1  0  0  0
 26 22  1  0  0  0
  8 16  1  0  0  0
  3  4  1  0  0  0
 19 27  1  0  0  0
M  END
> <minimizedAffinity>
-9.39823

$$$$
OCNT-2311765


 25 27  0  0  0  0  0  0  0  0999 V2000
   -4.2994   26.8267    5.2949 N   0  0  0  0  0  0  0  0  0  0  0  0
   -2.8884   26.7906    5.6831 C   0  0  0  0  0  0  0  0  0  0  0  0
   -2.6492   28.1341    6.4017 C   0  0  0  0  0  0  0  0  0  0  0  0
   -1.7490   28.0388    7.4996 O   0  0  0  0  0  0  0  0  0  0  0  0
   -4.0467   28.5004    6.9022 C   0  0  0  0  0  0  0  0  0  0  0  0
   -4.9430   28.0556    5.7442 C   0  0  0  0  0  0  0  0  0  0  0  0
   -0.9069   27.7002    7.1467 H   0  0  0  0  0  0  0  0  0  0  0  0
   -6.0206   23.5528    1.1066 C   0  0  0  0  0  0  0  0  0  0  0  0
   -5.9311   22.1735    1.3065 C   0  0  0  0  0  0  0  0  0  0  0  0
   -5.4262   21.6781    2.5052 C   0  0  0  0  0  0  0  0  0  0  0  0
   -5.0127   22.5604    3.5036 C   0  0  0  0  0  0  0  0  0  0  0  0
   -5.0888   23.9352    3.3412 C   0  0  0  0  0  0  0  0  0  0  0  0
   -4.6714   24.7235    4.3488 N   0  0  0  0  0  0  0  0  0  0  0  0
   -4.7229   26.0694    4.2293 C   0  0  0  0  0  0  0  0  0  0  0  0
   -5.2235   26.6459    3.0693 C   0  0  0  0  0  0  0  0  0  0  0  0
   -5.6576   25.8363    2.0206 C   0  0  0  0  0  0  0  0  0  0  0  0
   -5.5990   24.4403    2.1318 C   0  0  0  0  0  0  0  0  0  0  0  0
   -7.8794   23.9426   -0.3464 C   0  0  0  0  0  0  0  0  0  0  0  0
   -6.5051   24.1379   -0.0389 O   0  0  0  0  0  0  0  0  0  0  0  0
   -4.2212   29.9392    7.3789 C   0  0  0  0  0  0  0  0  0  0  0  0
   -3.5529   31.0078    6.5401 C   0  0  0  0  0  0  0  0  0  0  0  0
   -4.2715   31.3803    5.4403 N   0  0  0  0  0  0  0  0  0  0  0  0
   -2.4564   31.5015    6.7649 O   0  0  0  0  0  0  0  0  0  0  0  0
   -3.9026   32.1524    4.8999 H   0  0  0  0  0  0  0  0  0  0  0  0
   -5.2572   31.1718    5.3537 H   0  0  0  0  0  0  0  0  0  0  0  0
 18 19  1  0  0  0
 19  8  1  0  0  0
  8  9  1  0  0  0
  9 10  2  0  0  0
 10 11  1  0  0  0
 11 12  2  0  0  0
 12 13  1  0  0  0
 13 14  2  0  0  0
 14  1  1  0  0  0
  1  2  1  0  0  0
  2  3  1  0  0  0
  3  4  1  0  0  0
  3  5  1  0  0  0
  5 20  1  0  0  0
 20 21  1  0  0  0
 21 22  1  0  0  0
 21 23  2  0  0  0
  5  6  1  0  0  0
 14 15  1  0  0  0
 15 16  2  0  0  0
 16 17  1  0  0  0
 17  8  2  0  0  0
 17 12  1  0  0  0
  6  1  1  0  0  0
  4  7  1  0  0  0
 22 24  1  0  0  0
 22 25  1  0  0  0
M  END
> <minimizedAffinity>
-8.31932

$$$$
OCNT-2311766


 26 27  0  0  0  0  0  0  0  0999 V2000
   -4.3496   29.7854    7.0185 C   0  0  0  0  0  0  0  0  0  0  0  0
   -3.0883   29.2992    6.4882 N   0  0  0  0  0  0  0  0  0  0  0  0
   -2.3617   30.0145    6.5012 H   0  0  0  0  0  0  0  0  0  0  0  0
   -2.5352   28.0672    7.0736 C   0  0  0  0  0  0  0  0  0  0  0  0
   -1.9509   27.2038    5.9420 C   0  0  0  0  0  0  0  0  0  0  0  0
   -2.7947   26.6571    4.9760 C   0  0  0  0  0  0  0  0  0  0  0  0
   -2.2436   25.8852    3.9568 C   0  0  0  0  0  0  0  0  0  0  0  0
   -0.8705   25.6814    3.9220 C   0  0  0  0  0  0  0  0  0  0  0  0
   -0.0988   26.2616    4.9138 C   0  0  0  0  0  0  0  0  0  0  0  0
   -0.6017   27.0122    5.9175 N   0  0  0  0  0  0  0  0  0  0  0  0
   -1.3968   28.3027    8.1051 C   0  0  0  0  0  0  0  0  0  0  0  0
   -0.5909   29.6120    8.0082 C   0  0  0  0  0  0  0  0  0  0  0  0
   -0.9973   30.6337    9.0704 C   0  0  0  0  0  0  0  0  0  0  0  0
    0.9054   29.3036    8.1447 C   0  0  0  0  0  0  0  0  0  0  0  0
   -5.3885   28.6919    7.3568 C   0  0  0  0  0  0  0  0  0  0  0  0
   -5.9602   28.9949    8.7533 C   0  0  0  0  0  0  0  0  0  0  0  0
   -5.0793   28.5432    9.7750 O   0  0  0  0  0  0  0  0  0  0  0  0
   -4.2637   29.0689    9.7093 H   0  0  0  0  0  0  0  0  0  0  0  0
   -6.5361   28.6250    6.3117 C   0  0  0  0  0  0  0  0  0  0  0  0
   -6.0108   29.6917    3.5119 C   0  0  0  0  0  0  0  0  0  0  0  0
   -6.0238   28.2193    3.8218 C   0  0  0  0  0  0  0  0  0  0  0  0
   -5.8187   27.3118    2.7668 C   0  0  0  0  0  0  0  0  0  0  0  0
   -5.8405   25.9356    2.9856 C   0  0  0  0  0  0  0  0  0  0  0  0
   -6.0807   25.4438    4.2620 C   0  0  0  0  0  0  0  0  0  0  0  0
   -6.2945   26.3300    5.3170 C   0  0  0  0  0  0  0  0  0  0  0  0
   -6.2570   27.7238    5.1214 C   0  0  0  0  0  0  0  0  0  0  0  0
 20 21  1  0  0  0
 21 22  2  0  0  0
 22 23  1  0  0  0
 23 24  2  0  0  0
 24 25  1  0  0  0
 25 26  2  0  0  0
 26 19  1  0  0  0
 19 15  1  0  0  0
 15 16  1  0  0  0
 16 17  1  0  0  0
 15  1  1  0  0  0
  1  2  1  0  0  0
  2  4  1  0  0  0
  4 11  1  0  0  0
 11 12  1  0  0  0
 12 13  1  0  0  0
 12 14  1  0  0  0
  4  5  1  0  0  0
  5  6  2  0  0  0
  6  7  1  0  0  0
  7  8  2  0  0  0
  8  9  1  0  0  0
  9 10  2  0  0  0
 26 21  1  0  0  0
 10  5  1  0  0  0
 17 18  1  0  0  0
  2  3  1  0  0  0
M  END
> <minimizedAffinity>
-8.60057

$$$$
OCNT-2311769


 25 27  0  0  0  0  0  0  0  0999 V2000
   -4.1433   27.7916    5.5745 C   0  0  0  0  0  0  0  0  0  0  0  0
   -3.7379   27.8910    6.9907 N   0  0  0  0  0  0  0  0  0  0  0  0
   -4.4362   28.3700    7.5432 H   0  0  0  0  0  0  0  0  0  0  0  0
   -2.4509   28.3670    7.2279 C   0  0  0  0  0  0  0  0  0  0  0  0
   -1.3982   27.8227    6.5763 N   0  0  0  0  0  0  0  0  0  0  0  0
   -0.1602   28.3013    6.7964 C   0  0  0  0  0  0  0  0  0  0  0  0
    0.1974   29.3060    7.6027 N   0  0  0  0  0  0  0  0  0  0  0  0
   -0.8513   29.8419    8.2598 C   0  0  0  0  0  0  0  0  0  0  0  0
   -2.1595   29.4045    8.1121 C   0  0  0  0  0  0  0  0  0  0  0  0
   -2.8878   30.1926    8.9670 N   0  0  0  0  0  0  0  0  0  0  0  0
   -4.3026   30.1184    9.2453 C   0  0  0  0  0  0  0  0  0  0  0  0
   -2.1569   31.1332    9.6097 N   0  0  0  0  0  0  0  0  0  0  0  0
   -0.9119   30.8995    9.1843 C   0  0  0  0  0  0  0  0  0  0  0  0
   -5.6412   27.3558    5.3877 C   0  0  0  0  0  0  0  0  0  0  0  0
   -6.0102   24.4016    2.2010 C   0  0  0  0  0  0  0  0  0  0  0  0
   -6.2560   24.0578    3.5311 C   0  0  0  0  0  0  0  0  0  0  0  0
   -6.1542   25.0190    4.5411 C   0  0  0  0  0  0  0  0  0  0  0  0
   -5.8108   26.3481    4.2425 C   0  0  0  0  0  0  0  0  0  0  0  0
   -5.5907   26.6895    2.8997 C   0  0  0  0  0  0  0  0  0  0  0  0
   -5.6948   25.7267    1.8906 C   0  0  0  0  0  0  0  0  0  0  0  0
   -7.4183   23.9682   -0.1391 C   0  0  0  0  0  0  0  0  0  0  0  0
   -6.1191   23.2126    0.8765 S   0  0  0  0  0  0  0  0  0  0  0  0
   -6.5828   28.5054    5.3609 N   0  0  0  0  0  0  0  0  0  0  0  0
   -6.0075   29.6820    4.7093 C   0  0  0  0  0  0  0  0  0  0  0  0
   -7.1802   28.8704    6.6395 C   0  0  0  0  0  0  0  0  0  0  0  0
 21 22  1  0  0  0
 22 15  1  0  0  0
 15 16  1  0  0  0
 16 17  2  0  0  0
 17 18  1  0  0  0
 18 14  1  0  0  0
 14  1  1  0  0  0
  1  2  1  0  0  0
  2  4  1  0  0  0
  4  5  1  0  0  0
  5  6  2  0  0  0
  6  7  1  0  0  0
  7  8  2  0  0  0
  8  9  1  0  0  0
  9 10  1  0  0  0
 10 11  1  0  0  0
 10 12  1  0  0  0
 12 13  2  0  0  0
 14 23  1  0  0  0
 23 24  1  0  0  0
 23 25  1  0  0  0
 18 19  2  0  0  0
 19 20  1  0  0  0
 20 15  2  0  0  0
  9  4  2  0  0  0
 13  8  1  0  0  0
  2  3  1  0  0  0
M  END
> <minimizedAffinity>
-8.16972

$$$$
OCNT-2311777


 33 36  0  0  0  0  0  0  0  0999 V2000
   -6.8284   30.5321    7.2190 C   0  0  0  0  0  0  0  0  0  0  0  0
   -7.8781   30.8715    6.6871 O   0  0  0  0  0  0  0  0  0  0  0  0
   -5.8530   29.7119    6.6691 N   0  0  0  0  0  0  0  0  0  0  0  0
   -5.0372   29.5417    7.2444 H   0  0  0  0  0  0  0  0  0  0  0  0
   -5.8732   29.0779    5.4087 C   0  0  0  0  0  0  0  0  0  0  0  0
   -5.9487   29.7612    4.1924 C   0  0  0  0  0  0  0  0  0  0  0  0
   -5.9930   29.0621    2.9812 C   0  0  0  0  0  0  0  0  0  0  0  0
   -5.9504   27.6705    2.9734 C   0  0  0  0  0  0  0  0  0  0  0  0
   -5.8485   26.9769    4.1809 C   0  0  0  0  0  0  0  0  0  0  0  0
   -5.8250   27.6773    5.3966 C   0  0  0  0  0  0  0  0  0  0  0  0
   -5.7980   25.4912    4.1464 C   0  0  0  0  0  0  0  0  0  0  0  0
   -5.6879   24.8879    5.2057 O   0  0  0  0  0  0  0  0  0  0  0  0
   -5.9213   24.9418    2.8826 N   0  0  0  0  0  0  0  0  0  0  0  0
   -6.1512   25.5760    2.1283 H   0  0  0  0  0  0  0  0  0  0  0  0
   -5.8666   23.5725    2.5422 C   0  0  0  0  0  0  0  0  0  0  0  0
   -6.2771   23.2125    1.2578 C   0  0  0  0  0  0  0  0  0  0  0  0
   -6.2267   21.8759    0.8945 C   0  0  0  0  0  0  0  0  0  0  0  0
   -5.7987   20.8935    1.7110 N   0  0  0  0  0  0  0  0  0  0  0  0
   -5.4058   21.2665    2.9474 C   0  0  0  0  0  0  0  0  0  0  0  0
   -5.4193   22.5756    3.4031 C   0  0  0  0  0  0  0  0  0  0  0  0
   -6.4376   30.9944    8.6106 C   0  0  0  0  0  0  0  0  0  0  0  0
   -5.4516   30.0381    9.2750 C   0  0  0  0  0  0  0  0  0  0  0  0
    1.2758   29.1516    8.0522 C   0  0  0  0  0  0  0  0  0  0  0  0
   -0.1531   29.4591    8.3972 C   0  0  0  0  0  0  0  0  0  0  0  0
   -1.1592   28.5338    8.1021 C   0  0  0  0  0  0  0  0  0  0  0  0
   -2.5025   28.8091    8.3888 C   0  0  0  0  0  0  0  0  0  0  0  0
   -2.8498   30.0429    8.9740 C   0  0  0  0  0  0  0  0  0  0  0  0
   -4.0858   30.6401    9.3830 C   0  0  0  0  0  0  0  0  0  0  0  0
   -3.7783   31.8862    9.8939 C   0  0  0  0  0  0  0  0  0  0  0  0
   -2.4235   32.0623    9.8114 N   0  0  0  0  0  0  0  0  0  0  0  0
   -1.8325   30.9555    9.2488 C   0  0  0  0  0  0  0  0  0  0  0  0
   -0.4842   30.6977    8.9682 C   0  0  0  0  0  0  0  0  0  0  0  0
   -1.9219   32.8828   10.1212 H   0  0  0  0  0  0  0  0  0  0  0  0
 23 24  1  0  0  0
 24 25  2  0  0  0
 25 26  1  0  0  0
 26 27  2  0  0  0
 27 28  1  0  0  0
 28 22  1  0  0  0
 22 21  1  0  0  0
 21  1  1  0  0  0
  1  2  2  0  0  0
  1  3  1  0  0  0
  3  5  1  0  0  0
  5  6  2  0  0  0
  6  7  1  0  0  0
  7  8  2  0  0  0
  8  9  1  0  0  0
  9 11  1  0  0  0
 11 12  2  0  0  0
 11 13  1  0  0  0
 13 15  1  0  0  0
 15 16  2  0  0  0
 16 17  1  0  0  0
 17 18  2  0  0  0
 18 19  1  0  0  0
 19 20  2  0  0  0
  9 10  2  0  0  0
 28 29  2  0  0  0
 29 30  1  0  0  0
 30 31  1  0  0  0
 31 32  2  0  0  0
 32 24  1  0  0  0
 31 27  1  0  0  0
 10  5  1  0  0  0
 20 15  1  0  0  0
  3  4  1  0  0  0
 13 14  1  0  0  0
 30 33  1  0  0  0
M  END
> <minimizedAffinity>
-10.81211

$$$$
OCNT-2311787


 33 37  0  0  0  0  0  0  0  0999 V2000
   -6.1922   27.8494    3.9170 N   0  0  0  0  0  0  0  0  0  0  0  0
   -5.3685   26.8521    3.4488 C   0  0  0  0  0  0  0  0  0  0  0  0
   -4.2397   27.0260    3.0102 O   0  0  0  0  0  0  0  0  0  0  0  0
   -7.1654   27.6340    4.0917 H   0  0  0  0  0  0  0  0  0  0  0  0
   -5.9735   25.5040    3.4128 C   0  0  0  0  0  0  0  0  0  0  0  0
   -6.2529   24.9301    4.6540 C   0  0  0  0  0  0  0  0  0  0  0  0
   -6.7638   23.6451    4.6889 C   0  0  0  0  0  0  0  0  0  0  0  0
   -7.0071   22.9565    3.5453 N   0  0  0  0  0  0  0  0  0  0  0  0
   -6.7637   23.5216    2.3502 C   0  0  0  0  0  0  0  0  0  0  0  0
   -7.0432   22.7866    1.2057 C   0  0  0  0  0  0  0  0  0  0  0  0
   -6.8370   23.3030   -0.0755 C   0  0  0  0  0  0  0  0  0  0  0  0
   -6.3447   24.5910   -0.2256 C   0  0  0  0  0  0  0  0  0  0  0  0
   -6.0525   25.3482    0.9068 C   0  0  0  0  0  0  0  0  0  0  0  0
   -6.2435   24.8198    2.2098 C   0  0  0  0  0  0  0  0  0  0  0  0
   -7.0785   22.9296    5.9430 C   0  0  0  0  0  0  0  0  0  0  0  0
   -8.3891   22.9069    6.4437 C   0  0  0  0  0  0  0  0  0  0  0  0
   -8.6612   22.2301    7.6223 C   0  0  0  0  0  0  0  0  0  0  0  0
   -7.7298   21.5715    8.3397 N   0  0  0  0  0  0  0  0  0  0  0  0
   -6.4745   21.5871    7.8506 C   0  0  0  0  0  0  0  0  0  0  0  0
   -6.1069   22.2375    6.6807 C   0  0  0  0  0  0  0  0  0  0  0  0
   -5.8365   29.2427    3.7857 C   0  0  0  0  0  0  0  0  0  0  0  0
   -7.8764   29.9297    6.2320 C   0  0  0  0  0  0  0  0  0  0  0  0
   -6.3966   30.0586    6.2033 C   0  0  0  0  0  0  0  0  0  0  0  0
   -5.7474   30.4872    7.2901 N   0  0  0  0  0  0  0  0  0  0  0  0
   -4.4349   30.4896    6.9499 N   0  0  0  0  0  0  0  0  0  0  0  0
   -4.2605   30.0496    5.6554 C   0  0  0  0  0  0  0  0  0  0  0  0
   -5.5086   29.7594    5.1397 C   0  0  0  0  0  0  0  0  0  0  0  0
   -3.4385   30.9032    7.8792 C   0  0  0  0  0  0  0  0  0  0  0  0
   -3.6653   31.9628    8.7688 C   0  0  0  0  0  0  0  0  0  0  0  0
   -2.6667   32.3466    9.6694 C   0  0  0  0  0  0  0  0  0  0  0  0
   -1.4427   31.6799    9.6886 C   0  0  0  0  0  0  0  0  0  0  0  0
   -1.2107   30.6258    8.8081 C   0  0  0  0  0  0  0  0  0  0  0  0
   -2.2031   30.2368    7.9059 C   0  0  0  0  0  0  0  0  0  0  0  0
 22 23  1  0  0  0
 23 24  2  0  0  0
 24 25  1  0  0  0
 25 28  1  0  0  0
 28 29  2  0  0  0
 29 30  1  0  0  0
 30 31  2  0  0  0
 31 32  1  0  0  0
 32 33  2  0  0  0
 25 26  1  0  0  0
 26 27  2  0  0  0
 27 21  1  0  0  0
 21  1  1  0  0  0
  1  2  1  0  0  0
  2  3  2  0  0  0
  2  5  1  0  0  0
  5  6  2  0  0  0
  6  7  1  0  0  0
  7 15  1  0  0  0
 15 16  2  0  0  0
 16 17  1  0  0  0
 17 18  2  0  0  0
 18 19  1  0  0  0
 19 20  2  0  0  0
  7  8  2  0  0  0
  8  9  1  0  0  0
  9 10  2  0  0  0
 10 11  1  0  0  0
 11 12  2  0  0  0
 12 13  1  0  0  0
 13 14  2  0  0  0
 27 23  1  0  0  0
 14  5  1  0  0  0
 33 28  1  0  0  0
 20 15  1  0  0  0
 14  9  1  0  0  0
  1  4  1  0  0  0
M  END
> <minimizedAffinity>
-10.61029

$$$$
OCNT-2311790


 30 32  0  0  0  0  0  0  0  0999 V2000
   -2.4671   28.2161    6.9459 C   0  0  0  0  0  0  0  0  0  0  0  0
   -2.5651   27.7738    8.0855 O   0  0  0  0  0  0  0  0  0  0  0  0
   -2.4927   29.5409    6.5588 N   0  0  0  0  0  0  0  0  0  0  0  0
   -2.5487   29.7396    5.5660 H   0  0  0  0  0  0  0  0  0  0  0  0
    0.5421   25.5172    3.9929 C   0  0  0  0  0  0  0  0  0  0  0  0
   -0.8358   25.9416    4.4074 C   0  0  0  0  0  0  0  0  0  0  0  0
   -1.0193   26.8564    5.4442 C   0  0  0  0  0  0  0  0  0  0  0  0
   -2.3133   27.2535    5.8170 C   0  0  0  0  0  0  0  0  0  0  0  0
   -3.4537   26.7193    5.1747 C   0  0  0  0  0  0  0  0  0  0  0  0
   -4.7464   27.1616    5.5331 N   0  0  0  0  0  0  0  0  0  0  0  0
   -5.8406   26.2903    5.1470 C   0  0  0  0  0  0  0  0  0  0  0  0
   -5.7600   26.0303    3.6551 C   0  0  0  0  0  0  0  0  0  0  0  0
   -4.4631   25.2780    3.3247 C   0  0  0  0  0  0  0  0  0  0  0  0
   -4.2897   25.2503    1.8007 C   0  0  0  0  0  0  0  0  0  0  0  0
   -3.2657   25.8530    4.0736 C   0  0  0  0  0  0  0  0  0  0  0  0
   -1.9583   25.4581    3.7246 C   0  0  0  0  0  0  0  0  0  0  0  0
   -4.7672   27.4234    6.5268 H   0  0  0  0  0  0  0  0  0  0  0  0
   -2.6702   30.6879    7.3675 C   0  0  0  0  0  0  0  0  0  0  0  0
   -1.6437   31.2557    8.1258 C   0  0  0  0  0  0  0  0  0  0  0  0
   -1.9086   32.3351    8.9671 C   0  0  0  0  0  0  0  0  0  0  0  0
   -3.1990   32.8449    9.0579 C   0  0  0  0  0  0  0  0  0  0  0  0
   -4.2292   32.2949    8.2896 C   0  0  0  0  0  0  0  0  0  0  0  0
   -3.9829   31.2347    7.4090 C   0  0  0  0  0  0  0  0  0  0  0  0
   -4.9654   30.6618    6.5706 N   0  0  0  0  0  0  0  0  0  0  0  0
   -5.1559   31.3255    5.8144 H   0  0  0  0  0  0  0  0  0  0  0  0
   -6.2339   30.1363    7.1298 C   0  0  0  0  0  0  0  0  0  0  0  0
   -7.2909   29.7210    6.0963 C   0  0  0  0  0  0  0  0  0  0  0  0
   -6.7874   29.6252    4.8487 F   0  0  0  0  0  0  0  0  0  0  0  0
   -7.8332   28.5229    6.4203 F   0  0  0  0  0  0  0  0  0  0  0  0
   -8.2984   30.6240    6.0587 F   0  0  0  0  0  0  0  0  0  0  0  0
  5  6  1  0  0  0
  6  7  1  0  0  0
  7  8  2  0  0  0
  8  1  1  0  0  0
  1  2  2  0  0  0
  1  3  1  0  0  0
  3 18  1  0  0  0
 18 19  2  0  0  0
 19 20  1  0  0  0
 20 21  2  0  0  0
 21 22  1  0  0  0
 22 23  2  0  0  0
 23 24  1  0  0  0
 24 26  1  0  0  0
 26 27  1  0  0  0
 27 28  1  0  0  0
 27 29  1  0  0  0
 27 30  1  0  0  0
  8  9  1  0  0  0
  9 10  1  0  0  0
 10 11  1  0  0  0
 11 12  1  0  0  0
 12 13  1  0  0  0
 13 14  1  0  0  0
 13 15  1  0  0  0
 15 16  1  0  0  0
 16  6  2  0  0  0
 23 18  1  0  0  0
 15  9  2  0  0  0
  3  4  1  0  0  0
 24 25  1  0  0  0
 10 17  1  0  0  0
M  END
> <minimizedAffinity>
-10.23221

$$$$
OCNT-2311800


 24 27  0  0  0  0  0  0  0  0999 V2000
   -6.4785   29.0864    5.9765 C   0  0  0  0  0  0  0  0  0  0  0  0
   -7.4824   29.9603    5.7860 N   0  0  0  0  0  0  0  0  0  0  0  0
   -7.4256   30.7774    6.8424 N   0  0  0  0  0  0  0  0  0  0  0  0
   -6.3957   30.5074    7.6864 C   0  0  0  0  0  0  0  0  0  0  0  0
   -5.7458   29.4030    7.1680 C   0  0  0  0  0  0  0  0  0  0  0  0
   -8.1186   31.5149    6.9133 H   0  0  0  0  0  0  0  0  0  0  0  0
   -5.7526   25.9969    3.1021 C   0  0  0  0  0  0  0  0  0  0  0  0
   -6.0601   25.6718    4.4252 C   0  0  0  0  0  0  0  0  0  0  0  0
   -6.3050   26.6739    5.3695 C   0  0  0  0  0  0  0  0  0  0  0  0
   -6.2353   28.0211    5.0038 C   0  0  0  0  0  0  0  0  0  0  0  0
   -5.9398   28.3430    3.6724 C   0  0  0  0  0  0  0  0  0  0  0  0
   -5.6961   27.3387    2.7270 C   0  0  0  0  0  0  0  0  0  0  0  0
   -5.7183   25.1303    0.8900 C   0  0  0  0  0  0  0  0  0  0  0  0
   -5.5352   24.9221    2.2847 O   0  0  0  0  0  0  0  0  0  0  0  0
   -4.5115   28.7527    7.7080 C   0  0  0  0  0  0  0  0  0  0  0  0
   -3.3225   29.1711    6.9560 N   0  0  0  0  0  0  0  0  0  0  0  0
   -2.1295   28.3582    7.2644 C   0  0  0  0  0  0  0  0  0  0  0  0
   -0.8251   29.0725    6.8936 C   0  0  0  0  0  0  0  0  0  0  0  0
   -0.6601   30.2737    7.6542 O   0  0  0  0  0  0  0  0  0  0  0  0
   -1.8826   30.9677    8.0372 C   0  0  0  0  0  0  0  0  0  0  0  0
   -2.1901   30.9232    9.5671 C   0  0  0  0  0  0  0  0  0  0  0  0
   -2.5273   32.4213    9.5043 C   0  0  0  0  0  0  0  0  0  0  0  0
   -1.6834   32.5043    8.2224 C   0  0  0  0  0  0  0  0  0  0  0  0
   -3.0511   30.6201    7.0874 C   0  0  0  0  0  0  0  0  0  0  0  0
 13 14  1  0  0  0
 14  7  1  0  0  0
  7  8  1  0  0  0
  8  9  2  0  0  0
  9 10  1  0  0  0
 10  1  1  0  0  0
  1  2  2  0  0  0
  2  3  1  0  0  0
  3  4  1  0  0  0
  4  5  2  0  0  0
  5 15  1  0  0  0
 15 16  1  0  0  0
 16 17  1  0  0  0
 17 18  1  0  0  0
 18 19  1  0  0  0
 19 20  1  0  0  0
 20 21  1  0  0  0
 21 22  1  0  0  0
 22 23  1  0  0  0
 20 24  1  0  0  0
 10 11  2  0  0  0
 11 12  1  0  0  0
 12  7  2  0  0  0
  5  1  1  0  0  0
 24 16  1  0  0  0
 23 20  1  0  0  0
  3  6  1  0  0  0
M  END
> <minimizedAffinity>
-8.65894

$$$$
OCNT-2311801


 30 33  0  0  0  0  0  0  0  0999 V2000
   -5.2361   26.3640    4.8602 C   0  0  0  0  0  0  0  0  0  0  0  0
   -4.0797   26.2619    5.2614 O   0  0  0  0  0  0  0  0  0  0  0  0
   -6.0958   27.3956    5.1801 N   0  0  0  0  0  0  0  0  0  0  0  0
   -7.0210   27.3378    4.7671 H   0  0  0  0  0  0  0  0  0  0  0  0
   -6.2226   24.0214    4.3503 C   0  0  0  0  0  0  0  0  0  0  0  0
   -6.7033   23.1209    3.3851 C   0  0  0  0  0  0  0  0  0  0  0  0
   -6.7403   23.4541    2.0193 C   0  0  0  0  0  0  0  0  0  0  0  0
   -7.2199   22.5515    1.0547 C   0  0  0  0  0  0  0  0  0  0  0  0
   -7.2492   22.8982   -0.2971 C   0  0  0  0  0  0  0  0  0  0  0  0
   -6.7999   24.1507   -0.7026 C   0  0  0  0  0  0  0  0  0  0  0  0
   -6.3214   25.0578    0.2434 C   0  0  0  0  0  0  0  0  0  0  0  0
   -6.2867   24.7218    1.6067 C   0  0  0  0  0  0  0  0  0  0  0  0
   -5.8105   25.6224    2.5702 C   0  0  0  0  0  0  0  0  0  0  0  0
   -5.7728   25.2938    3.9403 C   0  0  0  0  0  0  0  0  0  0  0  0
   -6.3612   22.3686    6.0852 C   0  0  0  0  0  0  0  0  0  0  0  0
   -6.1746   23.7249    5.6911 O   0  0  0  0  0  0  0  0  0  0  0  0
   -5.8552   28.5098    6.0069 C   0  0  0  0  0  0  0  0  0  0  0  0
   -6.4314   28.6942    7.2634 C   0  0  0  0  0  0  0  0  0  0  0  0
   -6.1399   29.8339    8.0279 C   0  0  0  0  0  0  0  0  0  0  0  0
   -5.2647   30.8027    7.5434 C   0  0  0  0  0  0  0  0  0  0  0  0
   -4.6893   30.6221    6.2851 C   0  0  0  0  0  0  0  0  0  0  0  0
   -4.9806   29.4869    5.5222 C   0  0  0  0  0  0  0  0  0  0  0  0
   -4.8860   31.9509    8.1787 O   0  0  0  0  0  0  0  0  0  0  0  0
   -3.5011   32.1556    8.4627 C   0  0  0  0  0  0  0  0  0  0  0  0
   -3.0102   31.1639    9.5122 C   0  0  0  0  0  0  0  0  0  0  0  0
   -1.9206   30.3496    9.0234 N   0  0  0  0  0  0  0  0  0  0  0  0
   -0.5895   30.6467    9.1008 C   0  0  0  0  0  0  0  0  0  0  0  0
    0.0445   29.5773    8.5120 C   0  0  0  0  0  0  0  0  0  0  0  0
   -0.8678   28.6498    8.0790 N   0  0  0  0  0  0  0  0  0  0  0  0
   -2.0434   29.1459    8.3919 C   0  0  0  0  0  0  0  0  0  0  0  0
 15 16  1  0  0  0
 16  5  1  0  0  0
  5  6  2  0  0  0
  6  7  1  0  0  0
  7  8  2  0  0  0
  8  9  1  0  0  0
  9 10  2  0  0  0
 10 11  1  0  0  0
 11 12  2  0  0  0
 12 13  1  0  0  0
 13 14  2  0  0  0
 14  1  1  0  0  0
  1  2  2  0  0  0
  1  3  1  0  0  0
  3 17  1  0  0  0
 17 18  1  0  0  0
 18 19  2  0  0  0
 19 20  1  0  0  0
 20 23  1  0  0  0
 23 24  1  0  0  0
 24 25  1  0  0  0
 25 26  1  0  0  0
 26 27  1  0  0  0
 27 28  2  0  0  0
 28 29  1  0  0  0
 29 30  2  0  0  0
 20 21  2  0  0  0
 21 22  1  0  0  0
 14  5  1  0  0  0
 22 17  2  0  0  0
 12  7  1  0  0  0
 30 26  1  0  0  0
  3  4  1  0  0  0
M  END
> <minimizedAffinity>
-9.35420

$$$$
OCNT-2311802


 23 26  0  0  0  0  0  0  0  0999 V2000
   -3.6854   25.7011    3.3275 N   0  0  0  0  0  0  0  0  0  0  0  0
   -4.0666   26.4256    2.7297 H   0  0  0  0  0  0  0  0  0  0  0  0
   -5.9241   27.7902    4.7618 C   0  0  0  0  0  0  0  0  0  0  0  0
   -4.6619   27.8402    5.5342 C   0  0  0  0  0  0  0  0  0  0  0  0
   -4.5727   28.6246    6.6168 N   0  0  0  0  0  0  0  0  0  0  0  0
   -3.2773   28.4644    7.0865 O   0  0  0  0  0  0  0  0  0  0  0  0
   -2.6037   27.5869    6.2914 C   0  0  0  0  0  0  0  0  0  0  0  0
   -1.3248   27.2368    6.4875 N   0  0  0  0  0  0  0  0  0  0  0  0
   -0.9169   26.3709    5.5551 C   0  0  0  0  0  0  0  0  0  0  0  0
   -1.6322   25.8569    4.5350 N   0  0  0  0  0  0  0  0  0  0  0  0
   -2.9282   26.2250    4.3762 C   0  0  0  0  0  0  0  0  0  0  0  0
   -3.4497   27.1467    5.2919 C   0  0  0  0  0  0  0  0  0  0  0  0
   -4.6522   24.6513    3.6613 C   0  0  0  0  0  0  0  0  0  0  0  0
   -4.6890   23.5121    2.6117 C   0  0  0  0  0  0  0  0  0  0  0  0
   -5.0791   22.2117    3.3298 C   0  0  0  0  0  0  0  0  0  0  0  0
   -5.4182   21.1491    2.3049 C   0  0  0  0  0  0  0  0  0  0  0  0
   -6.5856   21.5137    1.5687 O   0  0  0  0  0  0  0  0  0  0  0  0
   -6.5140   22.7626    1.0089 C   0  0  0  0  0  0  0  0  0  0  0  0
   -7.4049   22.9996   -0.0401 C   0  0  0  0  0  0  0  0  0  0  0  0
   -7.3972   24.2241   -0.7033 C   0  0  0  0  0  0  0  0  0  0  0  0
   -6.4942   25.2102   -0.3182 C   0  0  0  0  0  0  0  0  0  0  0  0
   -5.6156   24.9795    0.7433 C   0  0  0  0  0  0  0  0  0  0  0  0
   -5.6330   23.7633    1.4453 C   0  0  0  0  0  0  0  0  0  0  0  0
  3  4  1  0  0  0
  4  5  2  0  0  0
  5  6  1  0  0  0
  6  7  1  0  0  0
  7  8  2  0  0  0
  8  9  1  0  0  0
  9 10  2  0  0  0
 10 11  1  0  0  0
 11  1  1  0  0  0
  1 13  1  0  0  0
 13 14  1  0  0  0
 14 15  1  0  0  0
 15 16  1  0  0  0
 16 17  1  0  0  0
 17 18  1  0  0  0
 18 19  2  0  0  0
 19 20  1  0  0  0
 20 21  2  0  0  0
 21 22  1  0  0  0
 22 23  2  0  0  0
 11 12  2  0  0  0
 12  4  1  0  0  0
 12  7  1  0  0  0
 23 14  1  0  0  0
 23 18  1  0  0  0
  1  2  1  0  0  0
M  END
> <minimizedAffinity>
-9.09965

$$$$
OCNT-2311804


 22 24  0  0  0  0  0  0  0  0999 V2000
   -2.8779   25.8018    4.1146 C   0  0  0  0  0  0  0  0  0  0  0  0
   -1.6609   25.9329    3.5555 N   0  0  0  0  0  0  0  0  0  0  0  0
   -0.6684   26.3117    4.3767 C   0  0  0  0  0  0  0  0  0  0  0  0
   -0.8445   26.5465    5.7184 C   0  0  0  0  0  0  0  0  0  0  0  0
   -2.1171   26.3675    6.2196 C   0  0  0  0  0  0  0  0  0  0  0  0
   -3.1382   26.0122    5.4238 N   0  0  0  0  0  0  0  0  0  0  0  0
   -5.3271   27.5744    3.2776 C   0  0  0  0  0  0  0  0  0  0  0  0
   -5.0774   26.1610    2.8921 C   0  0  0  0  0  0  0  0  0  0  0  0
   -5.8827   25.4507    2.1194 N   0  0  0  0  0  0  0  0  0  0  0  0
   -5.3079   24.2178    2.0078 C   0  0  0  0  0  0  0  0  0  0  0  0
   -4.1354   24.1661    2.7152 C   0  0  0  0  0  0  0  0  0  0  0  0
   -3.9756   25.4135    3.2896 N   0  0  0  0  0  0  0  0  0  0  0  0
   -2.3370   26.6398    7.5747 N   0  0  0  0  0  0  0  0  0  0  0  0
   -3.2572   26.3131    7.8737 H   0  0  0  0  0  0  0  0  0  0  0  0
   -2.1673   28.0386    7.9757 C   0  0  0  0  0  0  0  0  0  0  0  0
   -3.5363   28.7550    7.9011 C   0  0  0  0  0  0  0  0  0  0  0  0
   -3.4311   30.2341    7.8380 N   0  0  0  0  0  0  0  0  0  0  0  0
   -3.6626   30.8446    9.1587 C   0  0  0  0  0  0  0  0  0  0  0  0
   -2.3810   31.2442    9.8859 C   0  0  0  0  0  0  0  0  0  0  0  0
   -1.5727   32.2548    9.0740 C   0  0  0  0  0  0  0  0  0  0  0  0
   -1.7953   32.0994    7.5707 C   0  0  0  0  0  0  0  0  0  0  0  0
   -2.1670   30.6624    7.2110 C   0  0  0  0  0  0  0  0  0  0  0  0
  7  8  1  0  0  0
  8  9  2  0  0  0
  9 10  1  0  0  0
 10 11  2  0  0  0
 11 12  1  0  0  0
 12  1  1  0  0  0
  1  2  2  0  0  0
  2  3  1  0  0  0
  3  4  2  0  0  0
  4  5  1  0  0  0
  5 13  1  0  0  0
 13 15  1  0  0  0
 15 16  1  0  0  0
 16 17  1  0  0  0
 17 18  1  0  0  0
 18 19  1  0  0  0
 19 20  1  0  0  0
 20 21  1  0  0  0
 21 22  1  0  0  0
  5  6  2  0  0  0
 12  8  1  0  0  0
  6  1  1  0  0  0
 22 17  1  0  0  0
 13 14  1  0  0  0
M  END
> <minimizedAffinity>
-7.63842

$$$$
OCNT-2311805


 30 32  0  0  0  0  0  0  0  0999 V2000
   -5.4458   31.4713    7.5643 N   0  0  0  0  0  0  0  0  0  0  0  0
   -5.9590   30.4434    8.3204 C   0  0  0  0  0  0  0  0  0  0  0  0
   -6.5338   30.6273    9.3883 O   0  0  0  0  0  0  0  0  0  0  0  0
   -4.8745   31.2407    6.7608 H   0  0  0  0  0  0  0  0  0  0  0  0
   -5.4322   32.8616    8.0172 C   0  0  0  0  0  0  0  0  0  0  0  0
   -4.0506   33.3660    8.4992 C   0  0  0  0  0  0  0  0  0  0  0  0
   -4.0811   33.6743    9.8944 O   0  0  0  0  0  0  0  0  0  0  0  0
   -4.8548   34.2644   10.0267 H   0  0  0  0  0  0  0  0  0  0  0  0
   -1.0521   30.2761    7.7740 C   0  0  0  0  0  0  0  0  0  0  0  0
   -1.4807   30.5813    9.0752 C   0  0  0  0  0  0  0  0  0  0  0  0
   -2.4333   31.5796    9.3133 C   0  0  0  0  0  0  0  0  0  0  0  0
   -2.9884   32.3129    8.2586 C   0  0  0  0  0  0  0  0  0  0  0  0
   -2.5699   32.0187    6.9568 C   0  0  0  0  0  0  0  0  0  0  0  0
   -1.6188   31.0195    6.7212 C   0  0  0  0  0  0  0  0  0  0  0  0
   -0.5935   27.7600    7.4042 C   0  0  0  0  0  0  0  0  0  0  0  0
   -0.0063   29.1875    7.4772 C   0  0  0  0  0  0  0  0  0  0  0  0
    1.0687   29.1832    8.5853 C   0  0  0  0  0  0  0  0  0  0  0  0
    0.6674   29.4735    6.1177 C   0  0  0  0  0  0  0  0  0  0  0  0
   -5.7066   29.0701    7.7282 C   0  0  0  0  0  0  0  0  0  0  0  0
   -6.8668   28.5779    6.8623 C   0  0  0  0  0  0  0  0  0  0  0  0
   -6.5221   28.5595    5.3897 C   0  0  0  0  0  0  0  0  0  0  0  0
   -6.4566   29.7733    4.7022 C   0  0  0  0  0  0  0  0  0  0  0  0
   -6.1443   29.8966    3.3966 N   0  0  0  0  0  0  0  0  0  0  0  0
   -5.8785   28.7531    2.7319 C   0  0  0  0  0  0  0  0  0  0  0  0
   -5.9035   27.4794    3.2998 C   0  0  0  0  0  0  0  0  0  0  0  0
   -5.6097   26.3321    2.5406 C   0  0  0  0  0  0  0  0  0  0  0  0
   -5.6388   25.0675    3.1234 C   0  0  0  0  0  0  0  0  0  0  0  0
   -5.9617   24.9376    4.4680 C   0  0  0  0  0  0  0  0  0  0  0  0
   -6.2553   26.0721    5.2307 C   0  0  0  0  0  0  0  0  0  0  0  0
   -6.2340   27.3707    4.6693 C   0  0  0  0  0  0  0  0  0  0  0  0
 15 16  1  0  0  0
 16 17  1  0  0  0
 16 18  1  0  0  0
 16  9  1  0  0  0
  9 10  1  0  0  0
 10 11  2  0  0  0
 11 12  1  0  0  0
 12  6  1  0  0  0
  6  7  1  0  0  0
  6  5  1  0  0  0
  5  1  1  0  0  0
  1  2  1  0  0  0
  2  3  2  0  0  0
  2 19  1  0  0  0
 19 20  1  0  0  0
 20 21  1  0  0  0
 21 22  1  0  0  0
 22 23  2  0  0  0
 23 24  1  0  0  0
 24 25  2  0  0  0
 25 26  1  0  0  0
 26 27  2  0  0  0
 27 28  1  0  0  0
 28 29  2  0  0  0
 29 30  1  0  0  0
 12 13  2  0  0  0
 13 14  1  0  0  0
 14  9  2  0  0  0
 30 21  2  0  0  0
 30 25  1  0  0  0
  7  8  1  0  0  0
  1  4  1  0  0  0
M  END
> <minimizedAffinity>
-10.48434

$$$$
OCNT-2311808


 37 41  0  0  0  0  0  0  0  0999 V2000
   -5.9931   31.2090    8.4603 S   0  0  0  0  0  0  0  0  0  0  0  0
   -5.3891   32.4145    7.9362 O   0  0  0  0  0  0  0  0  0  0  0  0
   -7.3344   31.2062    9.0032 O   0  0  0  0  0  0  0  0  0  0  0  0
   -6.0036   28.1251    5.0830 C   0  0  0  0  0  0  0  0  0  0  0  0
   -5.1777   29.2514    5.0098 C   0  0  0  0  0  0  0  0  0  0  0  0
   -5.1253   30.1655    6.0655 C   0  0  0  0  0  0  0  0  0  0  0  0
   -5.9246   29.9596    7.1900 C   0  0  0  0  0  0  0  0  0  0  0  0
   -6.7144   28.8125    7.3024 C   0  0  0  0  0  0  0  0  0  0  0  0
   -6.7531   27.9013    6.2460 C   0  0  0  0  0  0  0  0  0  0  0  0
   -4.7675   25.4388    4.8012 O   0  0  0  0  0  0  0  0  0  0  0  0
   -5.5542   25.9206    3.9937 C   0  0  0  0  0  0  0  0  0  0  0  0
   -6.1295   27.1780    4.0490 N   0  0  0  0  0  0  0  0  0  0  0  0
   -6.7443   27.4361    3.2886 H   0  0  0  0  0  0  0  0  0  0  0  0
   -5.9477   25.0878    2.8205 C   0  0  0  0  0  0  0  0  0  0  0  0
   -6.5011   23.8076    2.9752 C   0  0  0  0  0  0  0  0  0  0  0  0
   -6.8417   23.0558    1.8467 C   0  0  0  0  0  0  0  0  0  0  0  0
   -6.6410   23.5906    0.5761 C   0  0  0  0  0  0  0  0  0  0  0  0
   -6.9625   22.8645   -0.5029 F   0  0  0  0  0  0  0  0  0  0  0  0
   -6.1138   24.8673    0.4094 C   0  0  0  0  0  0  0  0  0  0  0  0
   -5.7723   25.6209    1.5344 C   0  0  0  0  0  0  0  0  0  0  0  0
   -4.9850   30.5544    9.6636 N   0  0  0  0  0  0  0  0  0  0  0  0
   -5.3561   29.6734   10.0184 H   0  0  0  0  0  0  0  0  0  0  0  0
   -3.5775   30.6314    9.4489 C   0  0  0  0  0  0  0  0  0  0  0  0
   -2.8567   31.6983    9.9771 C   0  0  0  0  0  0  0  0  0  0  0  0
   -1.5072   31.8425    9.6673 C   0  0  0  0  0  0  0  0  0  0  0  0
   -0.8955   30.9463    8.7923 C   0  0  0  0  0  0  0  0  0  0  0  0
   -1.6217   29.8947    8.2064 C   0  0  0  0  0  0  0  0  0  0  0  0
   -2.9620   29.7223    8.5764 C   0  0  0  0  0  0  0  0  0  0  0  0
   -0.9697   29.0448    7.2099 C   0  0  0  0  0  0  0  0  0  0  0  0
   -1.3629   27.8481    6.8201 N   0  0  0  0  0  0  0  0  0  0  0  0
   -0.4043   27.4645    5.9109 C   0  0  0  0  0  0  0  0  0  0  0  0
    0.5906   28.3415    5.7358 N   0  0  0  0  0  0  0  0  0  0  0  0
    0.2020   29.3402    6.5518 N   0  0  0  0  0  0  0  0  0  0  0  0
    0.7991   30.1598    6.6395 H   0  0  0  0  0  0  0  0  0  0  0  0
   -0.4883   26.1038    5.1629 C   0  0  0  0  0  0  0  0  0  0  0  0
   -1.3488   26.0213    3.9275 C   0  0  0  0  0  0  0  0  0  0  0  0
    0.1413   25.9206    3.8065 C   0  0  0  0  0  0  0  0  0  0  0  0
 10 11  2  0  0  0
 11 12  1  0  0  0
 12  4  1  0  0  0
  4  5  1  0  0  0
  5  6  2  0  0  0
  6  7  1  0  0  0
  7  1  1  0  0  0
  1  2  2  0  0  0
  1  3  2  0  0  0
  1 21  1  0  0  0
 21 23  1  0  0  0
 23 24  2  0  0  0
 24 25  1  0  0  0
 25 26  2  0  0  0
 26 27  1  0  0  0
 27 29  1  0  0  0
 29 30  2  0  0  0
 30 31  1  0  0  0
 31 35  1  0  0  0
 35 36  1  0  0  0
 36 37  1  0  0  0
 31 32  2  0  0  0
 32 33  1  0  0  0
 27 28  2  0  0  0
  7  8  2  0  0  0
  8  9  1  0  0  0
 11 14  1  0  0  0
 14 15  1  0  0  0
 15 16  2  0  0  0
 16 17  1  0  0  0
 17 18  1  0  0  0
 17 19  2  0  0  0
 19 20  1  0  0  0
  9  4  2  0  0  0
 20 14  2  0  0  0
 28 23  1  0  0  0
 33 29  1  0  0  0
 37 35  1  0  0  0
 12 13  1  0  0  0
 21 22  1  0  0  0
 33 34  1  0  0  0
M  END
> <minimizedAffinity>
-10.87668

$$$$
OCNT-2311816


 27 30  0  0  0  0  0  0  0  0999 V2000
   -0.6692   26.8844    6.3726 C   0  0  0  0  0  0  0  0  0  0  0  0
   -4.8659   25.6700    1.9792 C   0  0  0  0  0  0  0  0  0  0  0  0
   -5.8727   26.4469    2.5625 C   0  0  0  0  0  0  0  0  0  0  0  0
   -5.6348   27.1252    3.7632 C   0  0  0  0  0  0  0  0  0  0  0  0
   -4.3837   27.0204    4.3697 C   0  0  0  0  0  0  0  0  0  0  0  0
   -4.0942   27.7053    5.6227 C   0  0  0  0  0  0  0  0  0  0  0  0
   -2.9509   27.6572    6.2288 N   0  0  0  0  0  0  0  0  0  0  0  0
   -1.9365   26.9245    5.6513 N   0  0  0  0  0  0  0  0  0  0  0  0
   -2.0706   26.1859    4.4756 C   0  0  0  0  0  0  0  0  0  0  0  0
   -1.1660   25.5137    3.9815 O   0  0  0  0  0  0  0  0  0  0  0  0
   -3.3785   26.2563    3.8014 C   0  0  0  0  0  0  0  0  0  0  0  0
   -3.6180   25.5760    2.6039 C   0  0  0  0  0  0  0  0  0  0  0  0
   -6.1586   25.1417    0.0516 C   0  0  0  0  0  0  0  0  0  0  0  0
   -4.9736   24.9595    0.8168 O   0  0  0  0  0  0  0  0  0  0  0  0
   -0.2892   28.2930    6.8260 C   0  0  0  0  0  0  0  0  0  0  0  0
    0.4632   29.0269    6.1894 O   0  0  0  0  0  0  0  0  0  0  0  0
   -0.8167   28.6433    8.0545 N   0  0  0  0  0  0  0  0  0  0  0  0
   -1.1153   27.8710    8.6524 H   0  0  0  0  0  0  0  0  0  0  0  0
   -0.3575   29.8335    8.7384 C   0  0  0  0  0  0  0  0  0  0  0  0
   -1.4006   30.9192    8.5194 C   0  0  0  0  0  0  0  0  0  0  0  0
   -1.2214   32.2582    9.2729 C   0  0  0  0  0  0  0  0  0  0  0  0
   -2.6131   32.0879    9.9041 C   0  0  0  0  0  0  0  0  0  0  0  0
   -2.7724   30.7224    9.1959 C   0  0  0  0  0  0  0  0  0  0  0  0
   -3.7552   30.6108    8.0497 C   0  0  0  0  0  0  0  0  0  0  0  0
   -3.1246   31.4455    6.9566 C   0  0  0  0  0  0  0  0  0  0  0  0
   -1.6847   31.2135    7.0852 N   0  0  0  0  0  0  0  0  0  0  0  0
   -1.4196   30.4527    6.4549 H   0  0  0  0  0  0  0  0  0  0  0  0
 13 14  1  0  0  0
 14  2  1  0  0  0
  2  3  1  0  0  0
  3  4  2  0  0  0
  4  5  1  0  0  0
  5  6  1  0  0  0
  6  7  2  0  0  0
  7  8  1  0  0  0
  8  1  1  0  0  0
  1 15  1  0  0  0
 15 16  2  0  0  0
 15 17  1  0  0  0
 17 19  1  0  0  0
 19 20  1  0  0  0
 20 21  1  0  0  0
 21 22  1  0  0  0
 22 23  1  0  0  0
 23 24  1  0  0  0
 24 25  1  0  0  0
 25 26  1  0  0  0
  8  9  1  0  0  0
  9 10  2  0  0  0
  9 11  1  0  0  0
 11 12  1  0  0  0
 12  2  2  0  0  0
 11  5  2  0  0  0
 23 20  1  0  0  0
 26 20  1  0  0  0
 17 18  1  0  0  0
 26 27  1  0  0  0
M  END
> <minimizedAffinity>
-9.21455

$$$$
OCNT-2311822


 29 32  0  0  0  0  0  0  0  0999 V2000
   -1.3604   29.3181    8.1916 N   0  0  0  0  0  0  0  0  0  0  0  0
   -0.3018   29.9062    8.8534 C   0  0  0  0  0  0  0  0  0  0  0  0
    0.7690   29.3721    9.1127 O   0  0  0  0  0  0  0  0  0  0  0  0
   -0.6009   31.2287    9.2093 O   0  0  0  0  0  0  0  0  0  0  0  0
   -1.9035   31.3670    8.7620 C   0  0  0  0  0  0  0  0  0  0  0  0
   -2.6710   32.5025    8.8785 C   0  0  0  0  0  0  0  0  0  0  0  0
   -3.9773   32.4552    8.3721 C   0  0  0  0  0  0  0  0  0  0  0  0
   -4.5099   31.2804    7.7908 C   0  0  0  0  0  0  0  0  0  0  0  0
   -3.6724   30.1587    7.6553 C   0  0  0  0  0  0  0  0  0  0  0  0
   -2.3897   30.2293    8.1576 C   0  0  0  0  0  0  0  0  0  0  0  0
   -5.7883   31.2195    7.2237 N   0  0  0  0  0  0  0  0  0  0  0  0
   -5.8124   31.6286    6.2921 H   0  0  0  0  0  0  0  0  0  0  0  0
   -6.5608   29.9890    7.3114 C   0  0  0  0  0  0  0  0  0  0  0  0
   -6.3356   29.1745    6.0571 C   0  0  0  0  0  0  0  0  0  0  0  0
   -6.2071   29.8009    4.8153 C   0  0  0  0  0  0  0  0  0  0  0  0
   -6.0172   29.0407    3.6572 C   0  0  0  0  0  0  0  0  0  0  0  0
   -5.8881   29.6694    2.4419 O   0  0  0  0  0  0  0  0  0  0  0  0
   -5.9583   27.6284    3.7139 C   0  0  0  0  0  0  0  0  0  0  0  0
   -5.7746   26.6511    2.6766 C   0  0  0  0  0  0  0  0  0  0  0  0
   -5.7814   25.3597    3.1475 C   0  0  0  0  0  0  0  0  0  0  0  0
   -6.0092   25.2996    4.8360 S   0  0  0  0  0  0  0  0  0  0  0  0
   -6.0990   27.0168    4.9616 C   0  0  0  0  0  0  0  0  0  0  0  0
   -6.2905   27.7721    6.1355 C   0  0  0  0  0  0  0  0  0  0  0  0
   -5.9416   30.6294    2.5750 H   0  0  0  0  0  0  0  0  0  0  0  0
   -1.4079   27.9416    7.7593 C   0  0  0  0  0  0  0  0  0  0  0  0
   -0.6438   27.6930    6.4416 C   0  0  0  0  0  0  0  0  0  0  0  0
   -2.4480   26.4127    5.4304 C   0  0  0  0  0  0  0  0  0  0  0  0
   -1.0200   26.4380    5.7557 N   0  0  0  0  0  0  0  0  0  0  0  0
   -0.2348   26.2804    4.5284 C   0  0  0  0  0  0  0  0  0  0  0  0
 27 28  1  0  0  0
 28 29  1  0  0  0
 28 26  1  0  0  0
 26 25  1  0  0  0
 25  1  1  0  0  0
  1  2  1  0  0  0
  2  3  2  0  0  0
  2  4  1  0  0  0
  4  5  1  0  0  0
  5  6  1  0  0  0
  6  7  2  0  0  0
  7  8  1  0  0  0
  8 11  1  0  0  0
 11 13  1  0  0  0
 13 14  1  0  0  0
 14 15  2  0  0  0
 15 16  1  0  0  0
 16 17  1  0  0  0
 16 18  2  0  0  0
 18 19  1  0  0  0
 19 20  2  0  0  0
 20 21  1  0  0  0
 21 22  1  0  0  0
 22 23  2  0  0  0
  8  9  2  0  0  0
  9 10  1  0  0  0
 10  1  1  0  0  0
 10  5  2  0  0  0
 23 14  1  0  0  0
 22 18  1  0  0  0
 11 12  1  0  0  0
 17 24  1  0  0  0
M  END
> <minimizedAffinity>
-9.50584

$$$$
OCNT-2311831


 27 28  0  0  0  0  0  0  0  0999 V2000
   -2.6628   26.8415    5.4369 C   0  0  0  0  0  0  0  0  0  0  0  0
   -1.9881   25.8466    5.6868 O   0  0  0  0  0  0  0  0  0  0  0  0
   -3.2952   27.0227    4.2302 N   0  0  0  0  0  0  0  0  0  0  0  0
   -3.8528   27.8622    4.1061 H   0  0  0  0  0  0  0  0  0  0  0  0
   -2.9855   29.8335    8.5358 C   0  0  0  0  0  0  0  0  0  0  0  0
   -1.7949   29.1531    8.3007 C   0  0  0  0  0  0  0  0  0  0  0  0
   -1.7279   28.1930    7.2846 C   0  0  0  0  0  0  0  0  0  0  0  0
   -2.8413   27.9086    6.4755 C   0  0  0  0  0  0  0  0  0  0  0  0
   -4.0263   28.6331    6.6869 C   0  0  0  0  0  0  0  0  0  0  0  0
   -4.0979   29.5608    7.7350 C   0  0  0  0  0  0  0  0  0  0  0  0
   -2.0908   31.5917    9.8631 C   0  0  0  0  0  0  0  0  0  0  0  0
   -3.1969   30.7713    9.5077 O   0  0  0  0  0  0  0  0  0  0  0  0
   -5.1356   28.3747    5.9198 O   0  0  0  0  0  0  0  0  0  0  0  0
   -5.9356   29.5293    5.6017 C   0  0  0  0  0  0  0  0  0  0  0  0
   -7.2974   29.3037    6.2535 C   0  0  0  0  0  0  0  0  0  0  0  0
   -6.0928   29.6681    4.0888 C   0  0  0  0  0  0  0  0  0  0  0  0
   -3.2326   26.0658    3.1372 C   0  0  0  0  0  0  0  0  0  0  0  0
   -4.5797   25.3129    2.8269 C   0  0  0  0  0  0  0  0  0  0  0  0
   -4.4964   24.8095    1.3593 C   0  0  0  0  0  0  0  0  0  0  0  0
   -5.7461   26.3179    2.9155 C   0  0  0  0  0  0  0  0  0  0  0  0
   -4.7518   24.0939    3.6741 N   0  0  0  0  0  0  0  0  0  0  0  0
   -5.3828   22.9146    3.0406 C   0  0  0  0  0  0  0  0  0  0  0  0
   -6.9251   22.8055    3.1772 C   0  0  0  0  0  0  0  0  0  0  0  0
   -7.3999   22.9843    4.5599 N   0  0  0  0  0  0  0  0  0  0  0  0
   -8.8588   22.9856    4.6172 C   0  0  0  0  0  0  0  0  0  0  0  0
   -6.8482   24.2293    5.1214 C   0  0  0  0  0  0  0  0  0  0  0  0
   -5.3075   24.2524    5.0309 C   0  0  0  0  0  0  0  0  0  0  0  0
 11 12  1  0  0  0
 12  5  1  0  0  0
  5  6  1  0  0  0
  6  7  2  0  0  0
  7  8  1  0  0  0
  8  1  1  0  0  0
  1  2  2  0  0  0
  1  3  1  0  0  0
  3 17  1  0  0  0
 17 18  1  0  0  0
 18 19  1  0  0  0
 18 20  1  0  0  0
 18 21  1  0  0  0
 21 22  1  0  0  0
 22 23  1  0  0  0
 23 24  1  0  0  0
 24 25  1  0  0  0
 24 26  1  0  0  0
 26 27  1  0  0  0
  8  9  2  0  0  0
  9 13  1  0  0  0
 13 14  1  0  0  0
 14 15  1  0  0  0
 14 16  1  0  0  0
  9 10  1  0  0  0
 10  5  2  0  0  0
 27 21  1  0  0  0
  3  4  1  0  0  0
M  END
> <minimizedAffinity>
-7.99311

$$$$
OCNT-2311835


 27 30  0  0  0  0  0  0  0  0999 V2000
   -6.2965   28.5449    5.7545 C   0  0  0  0  0  0  0  0  0  0  0  0
   -6.0976   27.2423    5.2733 C   0  0  0  0  0  0  0  0  0  0  0  0
   -5.9022   26.9959    3.9099 C   0  0  0  0  0  0  0  0  0  0  0  0
   -5.9106   28.0660    3.0159 C   0  0  0  0  0  0  0  0  0  0  0  0
   -6.1152   29.3679    3.4817 C   0  0  0  0  0  0  0  0  0  0  0  0
   -6.3087   29.6064    4.8414 C   0  0  0  0  0  0  0  0  0  0  0  0
   -6.5197   28.8008    7.2269 C   0  0  0  0  0  0  0  0  0  0  0  0
   -5.2284   28.9131    7.8906 N   0  0  0  0  0  0  0  0  0  0  0  0
   -4.5101   28.4049    7.3812 H   0  0  0  0  0  0  0  0  0  0  0  0
   -0.5809   30.7916    9.0395 C   0  0  0  0  0  0  0  0  0  0  0  0
   -1.0221   29.5397    8.6367 C   0  0  0  0  0  0  0  0  0  0  0  0
   -2.3832   29.3223    8.4038 C   0  0  0  0  0  0  0  0  0  0  0  0
   -3.3471   30.3490    8.5596 C   0  0  0  0  0  0  0  0  0  0  0  0
   -2.8737   31.6149    8.9963 C   0  0  0  0  0  0  0  0  0  0  0  0
   -1.5017   31.8208    9.2216 C   0  0  0  0  0  0  0  0  0  0  0  0
   -3.7773   32.6604    9.2166 C   0  0  0  0  0  0  0  0  0  0  0  0
   -5.1409   32.4680    9.0324 C   0  0  0  0  0  0  0  0  0  0  0  0
   -5.6180   31.2331    8.5977 C   0  0  0  0  0  0  0  0  0  0  0  0
   -4.7461   30.1706    8.3079 C   0  0  0  0  0  0  0  0  0  0  0  0
   -5.7140   25.6780    3.5995 O   0  0  0  0  0  0  0  0  0  0  0  0
   -4.7094   25.3320    2.6451 C   0  0  0  0  0  0  0  0  0  0  0  0
   -5.0026   23.9718    2.0209 C   0  0  0  0  0  0  0  0  0  0  0  0
   -5.9902   24.0581    0.9692 N   0  0  0  0  0  0  0  0  0  0  0  0
   -6.8758   23.0821    0.6094 C   0  0  0  0  0  0  0  0  0  0  0  0
   -7.5947   23.6256   -0.4299 C   0  0  0  0  0  0  0  0  0  0  0  0
   -7.1688   24.9003   -0.7010 N   0  0  0  0  0  0  0  0  0  0  0  0
   -6.2078   25.1374    0.1629 C   0  0  0  0  0  0  0  0  0  0  0  0
 10 11  2  0  0  0
 11 12  1  0  0  0
 12 13  2  0  0  0
 13 14  1  0  0  0
 14 15  2  0  0  0
 14 16  1  0  0  0
 16 17  2  0  0  0
 17 18  1  0  0  0
 18 19  2  0  0  0
 19  8  1  0  0  0
  8  7  1  0  0  0
  7  1  1  0  0  0
  1  2  1  0  0  0
  2  3  2  0  0  0
  3 20  1  0  0  0
 20 21  1  0  0  0
 21 22  1  0  0  0
 22 23  1  0  0  0
 23 24  1  0  0  0
 24 25  2  0  0  0
 25 26  1  0  0  0
 26 27  2  0  0  0
  3  4  1  0  0  0
  4  5  2  0  0  0
  5  6  1  0  0  0
 15 10  1  0  0  0
  6  1  2  0  0  0
 19 13  1  0  0  0
 27 23  1  0  0  0
  8  9  1  0  0  0
M  END
> <minimizedAffinity>
-10.01751

$$$$
OCNT-2311840


 27 29  0  0  0  0  0  0  0  0999 V2000
   -1.3216   26.4857    5.9322 C   0  0  0  0  0  0  0  0  0  0  0  0
   -0.8733   25.8093    4.6324 C   0  0  0  0  0  0  0  0  0  0  0  0
   -2.0540   26.0347    3.6953 C   0  0  0  0  0  0  0  0  0  0  0  0
   -3.2158   26.0816    4.5711 N   0  0  0  0  0  0  0  0  0  0  0  0
   -4.5398   26.0888    4.2009 C   0  0  0  0  0  0  0  0  0  0  0  0
   -5.4485   26.1290    5.0283 O   0  0  0  0  0  0  0  0  0  0  0  0
   -2.8142   26.1307    5.9701 C   0  0  0  0  0  0  0  0  0  0  0  0
   -0.8361   28.1622    8.1520 O   0  0  0  0  0  0  0  0  0  0  0  0
   -0.9209   28.6657    7.0358 C   0  0  0  0  0  0  0  0  0  0  0  0
   -1.1026   27.9291    5.8838 N   0  0  0  0  0  0  0  0  0  0  0  0
   -1.3767   28.4284    5.0421 H   0  0  0  0  0  0  0  0  0  0  0  0
   -0.8381   30.1633    6.8115 C   0  0  0  0  0  0  0  0  0  0  0  0
   -1.8227   30.9198    7.6620 C   0  0  0  0  0  0  0  0  0  0  0  0
   -3.0559   31.3411    7.1440 C   0  0  0  0  0  0  0  0  0  0  0  0
   -3.9517   32.0605    7.9424 C   0  0  0  0  0  0  0  0  0  0  0  0
   -3.6212   32.3714    9.2622 C   0  0  0  0  0  0  0  0  0  0  0  0
   -2.3942   31.9654    9.7739 C   0  0  0  0  0  0  0  0  0  0  0  0
   -2.0732   32.2746   11.0377 F   0  0  0  0  0  0  0  0  0  0  0  0
   -1.5022   31.2504    8.9822 C   0  0  0  0  0  0  0  0  0  0  0  0
   -0.3123   30.8824    9.4836 F   0  0  0  0  0  0  0  0  0  0  0  0
   -4.8156   26.0394    2.7141 C   0  0  0  0  0  0  0  0  0  0  0  0
   -4.9988   24.6023    2.2444 C   0  0  0  0  0  0  0  0  0  0  0  0
   -5.9692   24.5127    1.1720 N   0  0  0  0  0  0  0  0  0  0  0  0
   -6.9818   23.6013    1.0707 C   0  0  0  0  0  0  0  0  0  0  0  0
   -7.6332   23.9272   -0.0960 C   0  0  0  0  0  0  0  0  0  0  0  0
   -7.0395   25.0058   -0.6996 N   0  0  0  0  0  0  0  0  0  0  0  0
   -6.0331   25.3300    0.0808 C   0  0  0  0  0  0  0  0  0  0  0  0
  8  9  2  0  0  0
  9 12  1  0  0  0
 12 13  1  0  0  0
 13 14  2  0  0  0
 14 15  1  0  0  0
 15 16  2  0  0  0
 16 17  1  0  0  0
 17 18  1  0  0  0
 17 19  2  0  0  0
 19 20  1  0  0  0
  9 10  1  0  0  0
 10  1  1  0  0  0
  1  2  1  0  0  0
  2  3  1  0  0  0
  3  4  1  0  0  0
  4  5  1  0  0  0
  5  6  2  0  0  0
  5 21  1  0  0  0
 21 22  1  0  0  0
 22 23  1  0  0  0
 23 24  1  0  0  0
 24 25  2  0  0  0
 25 26  1  0  0  0
 26 27  2  0  0  0
  4  7  1  0  0  0
 19 13  1  0  0  0
  7  1  1  0  0  0
 27 23  1  0  0  0
 10 11  1  0  0  0
M  END
> <minimizedAffinity>
-9.09169

$$$$
OCNT-2311844


 27 29  0  0  0  0  0  0  0  0999 V2000
   -5.0305   27.3591    5.6314 N   0  0  0  0  0  0  0  0  0  0  0  0
   -5.2562   26.5408    6.2004 H   0  0  0  0  0  0  0  0  0  0  0  0
   -4.9204   27.0084    3.9973 S   0  0  0  0  0  0  0  0  0  0  0  0
   -5.6180   28.0455    3.2714 O   0  0  0  0  0  0  0  0  0  0  0  0
   -3.5372   26.6853    3.7316 O   0  0  0  0  0  0  0  0  0  0  0  0
   -5.8484   25.5030    3.8806 C   0  0  0  0  0  0  0  0  0  0  0  0
   -6.4068   24.9474    5.0494 C   0  0  0  0  0  0  0  0  0  0  0  0
   -7.1213   23.7485    4.9964 C   0  0  0  0  0  0  0  0  0  0  0  0
   -7.2934   23.0799    3.7853 C   0  0  0  0  0  0  0  0  0  0  0  0
   -7.9753   21.9289    3.7440 F   0  0  0  0  0  0  0  0  0  0  0  0
   -6.7367   23.6478    2.6418 C   0  0  0  0  0  0  0  0  0  0  0  0
   -6.0204   24.8425    2.6462 C   0  0  0  0  0  0  0  0  0  0  0  0
   -5.6439   25.0618    1.2909 C   0  0  0  0  0  0  0  0  0  0  0  0
   -6.1408   24.0028    0.5675 C   0  0  0  0  0  0  0  0  0  0  0  0
   -6.8021   23.1393    1.3793 O   0  0  0  0  0  0  0  0  0  0  0  0
   -4.0337   28.2698    6.2294 C   0  0  0  0  0  0  0  0  0  0  0  0
   -4.1228   31.8630    9.2206 C   0  0  0  0  0  0  0  0  0  0  0  0
   -3.4464   30.5592    8.7765 C   0  0  0  0  0  0  0  0  0  0  0  0
   -2.3626   30.8052    7.7040 C   0  0  0  0  0  0  0  0  0  0  0  0
   -2.8318   31.0711    6.3819 O   0  0  0  0  0  0  0  0  0  0  0  0
   -4.2121   30.7788    6.1665 C   0  0  0  0  0  0  0  0  0  0  0  0
   -4.7378   29.5030    6.8958 C   0  0  0  0  0  0  0  0  0  0  0  0
   -4.3820   29.5072    8.3510 N   0  0  0  0  0  0  0  0  0  0  0  0
   -5.3602   29.1042    9.3439 C   0  0  0  0  0  0  0  0  0  0  0  0
   -6.2651   29.3983    6.5870 C   0  0  0  0  0  0  0  0  0  0  0  0
   -6.6204   29.9874    5.3373 O   0  0  0  0  0  0  0  0  0  0  0  0
   -6.1834   30.8529    5.2803 H   0  0  0  0  0  0  0  0  0  0  0  0
 17 18  1  0  0  0
 18 19  1  0  0  0
 19 20  1  0  0  0
 20 21  1  0  0  0
 21 22  1  0  0  0
 22 25  1  0  0  0
 25 26  1  0  0  0
 22 16  1  0  0  0
 16  1  1  0  0  0
  1  3  1  0  0  0
  3  4  2  0  0  0
  3  5  2  0  0  0
  3  6  1  0  0  0
  6  7  1  0  0  0
  7  8  2  0  0  0
  8  9  1  0  0  0
  9 10  1  0  0  0
  9 11  2  0  0  0
 11 12  1  0  0  0
 12 13  1  0  0  0
 13 14  2  0  0  0
 14 15  1  0  0  0
 22 23  1  0  0  0
 23 24  1  0  0  0
 23 18  1  0  0  0
 12  6  2  0  0  0
 15 11  1  0  0  0
 26 27  1  0  0  0
  1  2  1  0  0  0
M  END
> <minimizedAffinity>
-8.13062

$$$$
OCNT-2311856


 27 29  0  0  0  0  0  0  0  0999 V2000
   -2.5568   31.2953    7.4525 C   0  0  0  0  0  0  0  0  0  0  0  0
   -2.7023   31.8423    8.7209 C   0  0  0  0  0  0  0  0  0  0  0  0
   -1.6479   31.4055    9.4855 N   0  0  0  0  0  0  0  0  0  0  0  0
   -0.8168   30.5975    8.7491 C   0  0  0  0  0  0  0  0  0  0  0  0
    0.3653   29.9451    9.1191 C   0  0  0  0  0  0  0  0  0  0  0  0
    1.0108   29.1742    8.1482 C   0  0  0  0  0  0  0  0  0  0  0  0
    0.4922   29.0618    6.8608 C   0  0  0  0  0  0  0  0  0  0  0  0
   -0.6911   29.7213    6.5089 C   0  0  0  0  0  0  0  0  0  0  0  0
   -1.3615   30.5059    7.4696 C   0  0  0  0  0  0  0  0  0  0  0  0
   -1.4992   31.6459   10.4576 H   0  0  0  0  0  0  0  0  0  0  0  0
   -3.7290   32.7426    9.2976 C   0  0  0  0  0  0  0  0  0  0  0  0
   -4.9359   32.1238    9.3917 F   0  0  0  0  0  0  0  0  0  0  0  0
   -3.4021   33.1475   10.5496 F   0  0  0  0  0  0  0  0  0  0  0  0
   -3.9203   33.8580    8.5516 F   0  0  0  0  0  0  0  0  0  0  0  0
   -3.4745   31.4915    6.2792 C   0  0  0  0  0  0  0  0  0  0  0  0
   -4.6101   30.4566    6.2551 C   0  0  0  0  0  0  0  0  0  0  0  0
   -5.2152   30.3025    4.9223 N   0  0  0  0  0  0  0  0  0  0  0  0
   -5.4856   31.2296    4.5947 H   0  0  0  0  0  0  0  0  0  0  0  0
   -6.4351   29.4873    4.9353 C   0  0  0  0  0  0  0  0  0  0  0  0
   -5.6427   24.5272    4.8080 C   0  0  0  0  0  0  0  0  0  0  0  0
   -5.8114   25.8974    4.3737 N   0  0  0  0  0  0  0  0  0  0  0  0
   -6.1361   26.9443    5.1976 C   0  0  0  0  0  0  0  0  0  0  0  0
   -6.1583   28.1057    4.4451 C   0  0  0  0  0  0  0  0  0  0  0  0
   -5.8695   27.7167    3.1035 C   0  0  0  0  0  0  0  0  0  0  0  0
   -5.6578   26.3530    3.0879 C   0  0  0  0  0  0  0  0  0  0  0  0
   -5.3295   25.5442    1.9632 C   0  0  0  0  0  0  0  0  0  0  0  0
   -5.0418   24.9059    1.0382 N   0  0  0  0  0  0  0  0  0  0  0  0
 20 21  1  0  0  0
 21 22  1  0  0  0
 22 23  2  0  0  0
 23 19  1  0  0  0
 19 17  1  0  0  0
 17 16  1  0  0  0
 16 15  1  0  0  0
 15  1  1  0  0  0
  1  2  2  0  0  0
  2 11  1  0  0  0
 11 12  1  0  0  0
 11 13  1  0  0  0
 11 14  1  0  0  0
  2  3  1  0  0  0
  3  4  1  0  0  0
  4  5  2  0  0  0
  5  6  1  0  0  0
  6  7  2  0  0  0
  7  8  1  0  0  0
  8  9  2  0  0  0
 23 24  1  0  0  0
 24 25  2  0  0  0
 25 26  1  0  0  0
 26 27  3  0  0  0
 25 21  1  0  0  0
  9  1  1  0  0  0
  9  4  1  0  0  0
 17 18  1  0  0  0
  3 10  1  0  0  0
M  END
> <minimizedAffinity>
-9.24584

$$$$
OCNT-2311864


 26 28  0  0  0  0  0  0  0  0999 V2000
   -4.1332   28.2206    5.9928 C   0  0  0  0  0  0  0  0  0  0  0  0
   -3.1196   28.8732    6.7098 C   0  0  0  0  0  0  0  0  0  0  0  0
   -1.8137   28.3802    6.6676 C   0  0  0  0  0  0  0  0  0  0  0  0
   -1.5102   27.2339    5.9348 C   0  0  0  0  0  0  0  0  0  0  0  0
   -2.5234   26.5857    5.2244 C   0  0  0  0  0  0  0  0  0  0  0  0
   -3.8464   27.0650    5.2354 C   0  0  0  0  0  0  0  0  0  0  0  0
   -4.8634   26.4184    4.5268 N   0  0  0  0  0  0  0  0  0  0  0  0
   -4.9745   26.7608    3.1006 C   0  0  0  0  0  0  0  0  0  0  0  0
   -5.8034   25.6167    2.5232 C   0  0  0  0  0  0  0  0  0  0  0  0
   -5.2583   24.4146    3.2836 C   0  0  0  0  0  0  0  0  0  0  0  0
   -4.0883   23.6546    2.5829 C   0  0  0  0  0  0  0  0  0  0  0  0
   -4.6991   22.3470    3.1245 C   0  0  0  0  0  0  0  0  0  0  0  0
   -6.0526   23.0811    3.1958 C   0  0  0  0  0  0  0  0  0  0  0  0
   -4.9317   24.9507    4.6871 C   0  0  0  0  0  0  0  0  0  0  0  0
   -0.5456   29.2115    7.5887 S   0  0  0  0  0  0  0  0  0  0  0  0
   -0.5182   28.6291    8.9095 O   0  0  0  0  0  0  0  0  0  0  0  0
    0.6307   29.3161    6.7588 O   0  0  0  0  0  0  0  0  0  0  0  0
   -1.2104   30.7426    7.7585 N   0  0  0  0  0  0  0  0  0  0  0  0
   -2.1128   30.8355    7.2852 H   0  0  0  0  0  0  0  0  0  0  0  0
   -1.0555   31.4356    9.0677 C   0  0  0  0  0  0  0  0  0  0  0  0
   -2.3815   31.7328    9.7766 C   0  0  0  0  0  0  0  0  0  0  0  0
   -2.1542   32.0668   11.0702 F   0  0  0  0  0  0  0  0  0  0  0  0
   -3.1732   30.6359    9.7761 F   0  0  0  0  0  0  0  0  0  0  0  0
   -3.0708   32.7387    9.2092 F   0  0  0  0  0  0  0  0  0  0  0  0
   -6.5599   29.1407    6.1131 N   0  0  0  0  0  0  0  0  0  0  0  0
   -5.4643   28.7598    6.0469 C   0  0  0  0  0  0  0  0  0  0  0  0
 25 26  3  0  0  0
 26  1  1  0  0  0
  1  2  1  0  0  0
  2  3  2  0  0  0
  3 15  1  0  0  0
 15 16  2  0  0  0
 15 17  2  0  0  0
 15 18  1  0  0  0
 18 20  1  0  0  0
 20 21  1  0  0  0
 21 22  1  0  0  0
 21 23  1  0  0  0
 21 24  1  0  0  0
  3  4  1  0  0  0
  4  5  2  0  0  0
  5  6  1  0  0  0
  6  7  1  0  0  0
  7  8  1  0  0  0
  8  9  1  0  0  0
  9 10  1  0  0  0
 10 11  1  0  0  0
 11 12  1  0  0  0
 12 13  1  0  0  0
 10 14  1  0  0  0
  6  1  2  0  0  0
 14  7  1  0  0  0
 13 10  1  0  0  0
 18 19  1  0  0  0
M  END
> <minimizedAffinity>
-8.27620

$$$$
OCNT-2311870


 28 30  0  0  0  0  0  0  0  0999 V2000
   -4.9100   29.9673    6.7810 N   0  0  0  0  0  0  0  0  0  0  0  0
   -4.0740   30.0137    6.2005 H   0  0  0  0  0  0  0  0  0  0  0  0
   -1.0649   30.0990    8.8728 C   0  0  0  0  0  0  0  0  0  0  0  0
   -0.7341   31.4341    9.0878 C   0  0  0  0  0  0  0  0  0  0  0  0
   -1.7218   32.4208    9.0160 C   0  0  0  0  0  0  0  0  0  0  0  0
   -3.0528   32.0894    8.7234 C   0  0  0  0  0  0  0  0  0  0  0  0
   -4.0849   33.1891    8.6839 C   0  0  0  0  0  0  0  0  0  0  0  0
   -5.3832   32.7719    7.9989 C   0  0  0  0  0  0  0  0  0  0  0  0
   -5.8423   31.4132    8.5161 C   0  0  0  0  0  0  0  0  0  0  0  0
   -4.8160   30.3133    8.1997 C   0  0  0  0  0  0  0  0  0  0  0  0
   -3.3992   30.7403    8.5309 C   0  0  0  0  0  0  0  0  0  0  0  0
   -2.3923   29.7608    8.5980 C   0  0  0  0  0  0  0  0  0  0  0  0
    0.9941   29.1677    8.1362 C   0  0  0  0  0  0  0  0  0  0  0  0
   -0.1985   29.0418    8.9004 O   0  0  0  0  0  0  0  0  0  0  0  0
   -6.1975   29.1119    6.1778 S   0  0  0  0  0  0  0  0  0  0  0  0
   -6.6979   28.2645    7.2391 O   0  0  0  0  0  0  0  0  0  0  0  0
   -7.0684   30.0299    5.4770 O   0  0  0  0  0  0  0  0  0  0  0  0
   -5.4427   28.0402    4.9886 C   0  0  0  0  0  0  0  0  0  0  0  0
   -6.0997   27.8031    3.7770 C   0  0  0  0  0  0  0  0  0  0  0  0
   -5.5139   26.9550    2.8463 C   0  0  0  0  0  0  0  0  0  0  0  0
   -6.1326   26.7294    1.6809 F   0  0  0  0  0  0  0  0  0  0  0  0
   -4.2919   26.3424    3.1002 C   0  0  0  0  0  0  0  0  0  0  0  0
   -3.6403   26.5758    4.3118 C   0  0  0  0  0  0  0  0  0  0  0  0
   -4.2247   27.4091    5.2707 C   0  0  0  0  0  0  0  0  0  0  0  0
   -3.5314   27.6849    6.4164 O   0  0  0  0  0  0  0  0  0  0  0  0
   -2.2706   27.0162    6.4384 C   0  0  0  0  0  0  0  0  0  0  0  0
   -1.2974   27.9145    6.1382 F   0  0  0  0  0  0  0  0  0  0  0  0
   -2.0473   26.6239    7.7175 F   0  0  0  0  0  0  0  0  0  0  0  0
 13 14  1  0  0  0
 14  3  1  0  0  0
  3  4  1  0  0  0
  4  5  2  0  0  0
  5  6  1  0  0  0
  6  7  1  0  0  0
  7  8  1  0  0  0
  8  9  1  0  0  0
  9 10  1  0  0  0
 10  1  1  0  0  0
  1 15  1  0  0  0
 15 16  2  0  0  0
 15 17  2  0  0  0
 15 18  1  0  0  0
 18 19  1  0  0  0
 19 20  2  0  0  0
 20 21  1  0  0  0
 20 22  1  0  0  0
 22 23  2  0  0  0
 23 24  1  0  0  0
 24 25  1  0  0  0
 25 26  1  0  0  0
 26 27  1  0  0  0
 26 28  1  0  0  0
 10 11  1  0  0  0
 11 12  1  0  0  0
 12  3  2  0  0  0
 11  6  2  0  0  0
 24 18  2  0  0  0
  1  2  1  0  0  0
M  END
> <minimizedAffinity>
-9.23580

$$$$
OCNT-2311871


 28 30  0  0  0  0  0  0  0  0999 V2000
   -3.4797   25.6157    4.9056 C   0  0  0  0  0  0  0  0  0  0  0  0
   -4.8173   26.2325    4.4039 C   0  0  0  0  0  0  0  0  0  0  0  0
   -5.2745   27.3589    5.3832 C   0  0  0  0  0  0  0  0  0  0  0  0
   -6.3232   28.1641    4.6189 C   0  0  0  0  0  0  0  0  0  0  0  0
   -5.9575   27.9954    3.1480 C   0  0  0  0  0  0  0  0  0  0  0  0
   -4.7018   27.1202    3.1353 C   0  0  0  0  0  0  0  0  0  0  0  0
   -8.7722   21.8520    3.9370 C   0  0  0  0  0  0  0  0  0  0  0  0
   -7.7395   22.9316    4.0536 C   0  0  0  0  0  0  0  0  0  0  0  0
   -7.6533   23.7117    5.1981 C   0  0  0  0  0  0  0  0  0  0  0  0
   -6.7139   24.7448    5.2821 C   0  0  0  0  0  0  0  0  0  0  0  0
   -5.8316   25.0640    4.2245 C   0  0  0  0  0  0  0  0  0  0  0  0
   -5.9019   24.2391    3.0694 C   0  0  0  0  0  0  0  0  0  0  0  0
   -5.0380   24.3734    1.8413 C   0  0  0  0  0  0  0  0  0  0  0  0
   -6.8731   23.2113    2.9971 C   0  0  0  0  0  0  0  0  0  0  0  0
   -2.8123   26.3626    5.9615 N   0  0  0  0  0  0  0  0  0  0  0  0
   -1.4655   26.6666    5.9212 C   0  0  0  0  0  0  0  0  0  0  0  0
   -0.7360   26.3154    4.9977 O   0  0  0  0  0  0  0  0  0  0  0  0
   -3.3710   26.6829    6.7372 H   0  0  0  0  0  0  0  0  0  0  0  0
   -0.9323   27.4733    7.1186 C   0  0  0  0  0  0  0  0  0  0  0  0
   -1.9842   27.6472    8.1697 N   0  0  0  0  0  0  0  0  0  0  0  0
   -2.3651   29.0656    8.1779 C   0  0  0  0  0  0  0  0  0  0  0  0
   -1.0604   29.7669    7.8286 C   0  0  0  0  0  0  0  0  0  0  0  0
   -0.1649   29.7398    8.9536 O   0  0  0  0  0  0  0  0  0  0  0  0
   -0.4911   28.8873    6.7131 C   0  0  0  0  0  0  0  0  0  0  0  0
    0.9257   29.0301    6.6502 O   0  0  0  0  0  0  0  0  0  0  0  0
   -2.7752   27.0240    8.0064 H   0  0  0  0  0  0  0  0  0  0  0  0
   -0.3276   28.8858    9.4047 H   0  0  0  0  0  0  0  0  0  0  0  0
    1.2069   29.3220    7.5425 H   0  0  0  0  0  0  0  0  0  0  0  0
  7  8  1  0  0  0
  8  9  1  0  0  0
  9 10  2  0  0  0
 10 11  1  0  0  0
 11  2  1  0  0  0
  2  1  1  0  0  0
  1 15  1  0  0  0
 15 16  1  0  0  0
 16 17  2  0  0  0
 16 19  1  0  0  0
 19 20  1  0  0  0
 20 21  1  0  0  0
 21 22  1  0  0  0
 22 23  1  0  0  0
 22 24  1  0  0  0
 24 25  1  0  0  0
  2  3  1  0  0  0
  3  4  1  0  0  0
  4  5  1  0  0  0
  5  6  1  0  0  0
 11 12  2  0  0  0
 12 13  1  0  0  0
 12 14  1  0  0  0
 14  8  2  0  0  0
  6  2  1  0  0  0
 24 19  1  0  0  0
 15 18  1  0  0  0
 20 26  1  0  0  0
 23 27  1  0  0  0
 25 28  1  0  0  0
M  END
> <minimizedAffinity>
-9.25490

$$$$
OCNT-2311875


 25 27  0  0  0  0  0  0  0  0999 V2000
   -3.0092   29.9951    7.6346 C   0  0  0  0  0  0  0  0  0  0  0  0
   -3.0619   29.4988    8.7564 O   0  0  0  0  0  0  0  0  0  0  0  0
   -3.2497   29.2614    6.4957 N   0  0  0  0  0  0  0  0  0  0  0  0
   -3.0080   29.6388    5.5911 H   0  0  0  0  0  0  0  0  0  0  0  0
   -5.0046   34.1739    8.2254 C   0  0  0  0  0  0  0  0  0  0  0  0
   -4.5758   32.7034    8.2753 C   0  0  0  0  0  0  0  0  0  0  0  0
   -5.8024   31.8305    8.5828 C   0  0  0  0  0  0  0  0  0  0  0  0
   -3.9005   32.2807    6.9561 C   0  0  0  0  0  0  0  0  0  0  0  0
   -2.6704   31.4757    7.3863 C   0  0  0  0  0  0  0  0  0  0  0  0
   -1.5290   31.5610    6.3662 C   0  0  0  0  0  0  0  0  0  0  0  0
   -2.2911   32.1838    8.6861 C   0  0  0  0  0  0  0  0  0  0  0  0
   -3.5625   32.5385    9.3392 N   0  0  0  0  0  0  0  0  0  0  0  0
   -3.8224   31.7467    9.9357 H   0  0  0  0  0  0  0  0  0  0  0  0
   -3.5048   27.8371    6.5436 C   0  0  0  0  0  0  0  0  0  0  0  0
   -2.5122   27.0951    5.6787 C   0  0  0  0  0  0  0  0  0  0  0  0
   -1.1420   27.2402    5.9827 C   0  0  0  0  0  0  0  0  0  0  0  0
   -0.1698   26.5617    5.2552 C   0  0  0  0  0  0  0  0  0  0  0  0
   -0.5535   25.7304    4.2120 C   0  0  0  0  0  0  0  0  0  0  0  0
   -1.9079   25.5770    3.9013 C   0  0  0  0  0  0  0  0  0  0  0  0
   -2.9122   26.2431    4.6262 C   0  0  0  0  0  0  0  0  0  0  0  0
   -4.2641   26.1194    4.3013 N   0  0  0  0  0  0  0  0  0  0  0  0
   -4.9040   24.7991    4.3165 C   0  0  0  0  0  0  0  0  0  0  0  0
   -6.1442   25.0063    3.4547 C   0  0  0  0  0  0  0  0  0  0  0  0
   -5.6147   25.9027    2.3477 C   0  0  0  0  0  0  0  0  0  0  0  0
   -4.6612   26.8478    3.0791 C   0  0  0  0  0  0  0  0  0  0  0  0
  5  6  1  0  0  0
  6  7  1  0  0  0
  6  8  1  0  0  0
  8  9  1  0  0  0
  9 10  1  0  0  0
  9  1  1  0  0  0
  1  2  2  0  0  0
  1  3  1  0  0  0
  3 14  1  0  0  0
 14 15  1  0  0  0
 15 16  2  0  0  0
 16 17  1  0  0  0
 17 18  2  0  0  0
 18 19  1  0  0  0
 19 20  2  0  0  0
 20 21  1  0  0  0
 21 22  1  0  0  0
 22 23  1  0  0  0
 23 24  1  0  0  0
 24 25  1  0  0  0
  9 11  1  0  0  0
 11 12  1  0  0  0
 12  6  1  0  0  0
 20 15  1  0  0  0
 25 21  1  0  0  0
  3  4  1  0  0  0
 12 13  1  0  0  0
M  END
> <minimizedAffinity>
-8.52136

$$$$
OCNT-2311890


 24 26  0  0  0  0  0  0  0  0999 V2000
   -3.9839   25.3519    3.3248 C   0  0  0  0  0  0  0  0  0  0  0  0
   -2.6864   25.1773    3.5113 N   0  0  0  0  0  0  0  0  0  0  0  0
   -2.3160   26.0451    4.5047 C   0  0  0  0  0  0  0  0  0  0  0  0
   -1.0524   26.2775    5.0687 C   0  0  0  0  0  0  0  0  0  0  0  0
   -0.9349   27.2272    6.0919 C   0  0  0  0  0  0  0  0  0  0  0  0
   -2.0666   27.9157    6.5460 C   0  0  0  0  0  0  0  0  0  0  0  0
   -3.3377   27.7126    5.9866 C   0  0  0  0  0  0  0  0  0  0  0  0
   -3.4117   26.7620    4.9658 C   0  0  0  0  0  0  0  0  0  0  0  0
   -4.4541   26.3069    4.1998 N   0  0  0  0  0  0  0  0  0  0  0  0
   -5.4122   26.6106    4.2767 H   0  0  0  0  0  0  0  0  0  0  0  0
   -6.9233   25.5146   -0.7017 C   0  0  0  0  0  0  0  0  0  0  0  0
   -6.2569   24.7117    0.3789 C   0  0  0  0  0  0  0  0  0  0  0  0
   -5.4538   25.3506    1.3346 C   0  0  0  0  0  0  0  0  0  0  0  0
   -4.8178   24.6303    2.3553 C   0  0  0  0  0  0  0  0  0  0  0  0
   -5.0125   23.2414    2.4118 C   0  0  0  0  0  0  0  0  0  0  0  0
   -5.8138   22.5726    1.4674 C   0  0  0  0  0  0  0  0  0  0  0  0
   -5.9885   21.0845    1.5786 C   0  0  0  0  0  0  0  0  0  0  0  0
   -6.4292   23.3244    0.4569 C   0  0  0  0  0  0  0  0  0  0  0  0
   -7.2248   22.7441   -0.4934 O   0  0  0  0  0  0  0  0  0  0  0  0
   -7.3156   21.7968   -0.3135 H   0  0  0  0  0  0  0  0  0  0  0  0
   -1.8775   29.1148    7.8497 S   0  0  0  0  0  0  0  0  0  0  0  0
   -1.4716   30.6042    6.9762 C   0  0  0  0  0  0  0  0  0  0  0  0
   -0.7206   28.7287    8.6359 O   0  0  0  0  0  0  0  0  0  0  0  0
   -3.1761   29.2887    8.4710 O   0  0  0  0  0  0  0  0  0  0  0  0
 11 12  1  0  0  0
 12 13  1  0  0  0
 13 14  2  0  0  0
 14  1  1  0  0  0
  1  2  2  0  0  0
  2  3  1  0  0  0
  3  4  2  0  0  0
  4  5  1  0  0  0
  5  6  2  0  0  0
  6 21  1  0  0  0
 21 22  1  0  0  0
 21 23  2  0  0  0
 21 24  2  0  0  0
  6  7  1  0  0  0
  7  8  2  0  0  0
  8  9  1  0  0  0
 14 15  1  0  0  0
 15 16  2  0  0  0
 16 17  1  0  0  0
 16 18  1  0  0  0
 18 19  1  0  0  0
 18 12  2  0  0  0
  9  1  1  0  0  0
  8  3  1  0  0  0
  9 10  1  0  0  0
 19 20  1  0  0  0
M  END
> <minimizedAffinity>
-9.68046

$$$$
OCNT-2311899


 26 29  0  0  0  0  0  0  0  0999 V2000
   -3.6724   25.9365    3.1017 C   0  0  0  0  0  0  0  0  0  0  0  0
   -4.3471   27.1759    3.7056 C   0  0  0  0  0  0  0  0  0  0  0  0
   -4.1175   27.3537    5.2023 C   0  0  0  0  0  0  0  0  0  0  0  0
   -2.7098   27.2055    5.5752 N   0  0  0  0  0  0  0  0  0  0  0  0
   -2.1240   27.8502    6.6642 C   0  0  0  0  0  0  0  0  0  0  0  0
   -0.9806   27.6144    7.0537 O   0  0  0  0  0  0  0  0  0  0  0  0
   -2.0351   26.0069    5.0828 C   0  0  0  0  0  0  0  0  0  0  0  0
   -2.2226   25.7970    3.5854 C   0  0  0  0  0  0  0  0  0  0  0  0
   -2.8899   28.9143    7.3419 C   0  0  0  0  0  0  0  0  0  0  0  0
   -3.8579   28.5491    8.1971 C   0  0  0  0  0  0  0  0  0  0  0  0
   -4.6747   29.4134    8.8889 N   0  0  0  0  0  0  0  0  0  0  0  0
   -4.4884   30.6631    8.6313 C   0  0  0  0  0  0  0  0  0  0  0  0
   -5.3958   31.9792    9.3554 S   0  0  0  0  0  0  0  0  0  0  0  0
   -4.4751   33.1484    8.4486 C   0  0  0  0  0  0  0  0  0  0  0  0
   -3.5589   32.5581    7.6723 C   0  0  0  0  0  0  0  0  0  0  0  0
   -3.5530   31.1818    7.7610 N   0  0  0  0  0  0  0  0  0  0  0  0
   -2.6889   30.3559    7.0729 C   0  0  0  0  0  0  0  0  0  0  0  0
   -1.8045   30.7516    6.3173 O   0  0  0  0  0  0  0  0  0  0  0  0
   -5.9639   22.3403    3.4064 C   0  0  0  0  0  0  0  0  0  0  0  0
   -4.6687   22.2640    2.9304 C   0  0  0  0  0  0  0  0  0  0  0  0
   -3.9294   23.4406    2.8350 C   0  0  0  0  0  0  0  0  0  0  0  0
   -4.4945   24.6660    3.2155 C   0  0  0  0  0  0  0  0  0  0  0  0
   -5.8060   24.6205    3.6803 C   0  0  0  0  0  0  0  0  0  0  0  0
   -6.5497   23.4936    3.7829 N   0  0  0  0  0  0  0  0  0  0  0  0
   -8.0012   21.2613    3.0186 C   0  0  0  0  0  0  0  0  0  0  0  0
   -6.6600   21.1507    3.4833 O   0  0  0  0  0  0  0  0  0  0  0  0
 25 26  1  0  0  0
 26 19  1  0  0  0
 19 20  2  0  0  0
 20 21  1  0  0  0
 21 22  2  0  0  0
 22  1  1  0  0  0
  1  2  1  0  0  0
  2  3  1  0  0  0
  3  4  1  0  0  0
  4  5  1  0  0  0
  5  6  2  0  0  0
  5  9  1  0  0  0
  9 10  2  0  0  0
 10 11  1  0  0  0
 11 12  2  0  0  0
 12 13  1  0  0  0
 13 14  1  0  0  0
 14 15  2  0  0  0
 15 16  1  0  0  0
 16 17  1  0  0  0
 17 18  2  0  0  0
  4  7  1  0  0  0
  7  8  1  0  0  0
 22 23  1  0  0  0
 23 24  2  0  0  0
 24 19  1  0  0  0
  8  1  1  0  0  0
 17  9  1  0  0  0
 16 12  1  0  0  0
M  END
> <minimizedAffinity>
-8.13341

$$$$
OCNT-2311901


 27 29  0  0  0  0  0  0  0  0999 V2000
   -5.3224   28.2396    6.3601 N   0  0  0  0  0  0  0  0  0  0  0  0
   -5.6504   28.4353    5.0272 C   0  0  0  0  0  0  0  0  0  0  0  0
   -5.8692   29.5183    4.5024 O   0  0  0  0  0  0  0  0  0  0  0  0
   -5.6203   27.3397    6.7131 H   0  0  0  0  0  0  0  0  0  0  0  0
   -4.0664   29.8523    7.8372 C   0  0  0  0  0  0  0  0  0  0  0  0
   -4.1879   30.9488    8.7174 C   0  0  0  0  0  0  0  0  0  0  0  0
   -5.4313   31.4293    9.1289 C   0  0  0  0  0  0  0  0  0  0  0  0
   -6.5884   30.8119    8.6775 C   0  0  0  0  0  0  0  0  0  0  0  0
   -6.4987   29.7415    7.7876 C   0  0  0  0  0  0  0  0  0  0  0  0
   -5.2514   29.2801    7.3228 C   0  0  0  0  0  0  0  0  0  0  0  0
    0.6022   29.4260    6.2984 C   0  0  0  0  0  0  0  0  0  0  0  0
   -0.6337   29.1073    7.0435 C   0  0  0  0  0  0  0  0  0  0  0  0
   -0.8726   28.0963    7.9443 C   0  0  0  0  0  0  0  0  0  0  0  0
   -2.1737   28.2618    8.3250 N   0  0  0  0  0  0  0  0  0  0  0  0
   -2.7030   29.3325    7.6419 C   0  0  0  0  0  0  0  0  0  0  0  0
   -1.7604   29.8793    6.8897 N   0  0  0  0  0  0  0  0  0  0  0  0
   -2.6812   27.6964    8.9874 H   0  0  0  0  0  0  0  0  0  0  0  0
   -5.7593   27.1919    4.2534 C   0  0  0  0  0  0  0  0  0  0  0  0
   -6.0226   25.9102    4.7130 C   0  0  0  0  0  0  0  0  0  0  0  0
   -6.0206   25.0497    3.6427 N   0  0  0  0  0  0  0  0  0  0  0  0
   -5.7495   25.7440    2.4900 C   0  0  0  0  0  0  0  0  0  0  0  0
   -5.5795   27.0689    2.8417 C   0  0  0  0  0  0  0  0  0  0  0  0
   -6.1826   24.0490    3.6902 H   0  0  0  0  0  0  0  0  0  0  0  0
   -5.6789   25.0618    1.1748 C   0  0  0  0  0  0  0  0  0  0  0  0
   -6.2022   23.8140    1.2212 F   0  0  0  0  0  0  0  0  0  0  0  0
   -4.4049   24.9536    0.7290 F   0  0  0  0  0  0  0  0  0  0  0  0
   -6.3723   25.7479    0.2286 F   0  0  0  0  0  0  0  0  0  0  0  0
 11 12  1  0  0  0
 12 13  2  0  0  0
 13 14  1  0  0  0
 14 15  1  0  0  0
 15  5  1  0  0  0
  5  6  2  0  0  0
  6  7  1  0  0  0
  7  8  2  0  0  0
  8  9  1  0  0  0
  9 10  2  0  0  0
 10  1  1  0  0  0
  1  2  1  0  0  0
  2  3  2  0  0  0
  2 18  1  0  0  0
 18 19  2  0  0  0
 19 20  1  0  0  0
 20 21  1  0  0  0
 21 24  1  0  0  0
 24 25  1  0  0  0
 24 26  1  0  0  0
 24 27  1  0  0  0
 21 22  2  0  0  0
 15 16  2  0  0  0
 16 12  1  0  0  0
 10  5  1  0  0  0
 22 18  1  0  0  0
 14 17  1  0  0  0
  1  4  1  0  0  0
 20 23  1  0  0  0
M  END
> <minimizedAffinity>
-9.51098

$$$$
OCNT-2311905


 25 28  0  0  0  0  0  0  0  0999 V2000
   -4.0100   28.5853    7.2044 C   0  0  0  0  0  0  0  0  0  0  0  0
   -4.5923   27.6532    6.1031 C   0  0  0  0  0  0  0  0  0  0  0  0
   -3.5233   27.0452    5.2898 N   0  0  0  0  0  0  0  0  0  0  0  0
   -2.4823   26.3689    6.0894 C   0  0  0  0  0  0  0  0  0  0  0  0
   -1.9501   27.2877    7.2094 C   0  0  0  0  0  0  0  0  0  0  0  0
   -3.0034   27.8888    8.0533 N   0  0  0  0  0  0  0  0  0  0  0  0
   -3.4798   27.1277    8.5392 H   0  0  0  0  0  0  0  0  0  0  0  0
   -3.8512   26.4273    4.1079 C   0  0  0  0  0  0  0  0  0  0  0  0
   -3.0189   26.2604    3.0984 N   0  0  0  0  0  0  0  0  0  0  0  0
   -3.5870   25.6375    2.0079 N   0  0  0  0  0  0  0  0  0  0  0  0
   -4.8576   25.3395    2.1970 C   0  0  0  0  0  0  0  0  0  0  0  0
   -5.4331   25.8251    3.7442 S   0  0  0  0  0  0  0  0  0  0  0  0
   -5.7381   24.6859    1.2130 C   0  0  0  0  0  0  0  0  0  0  0  0
   -6.3752   25.3655    0.1738 C   0  0  0  0  0  0  0  0  0  0  0  0
   -7.1915   24.6520   -0.7035 C   0  0  0  0  0  0  0  0  0  0  0  0
   -7.3552   23.2848   -0.5243 C   0  0  0  0  0  0  0  0  0  0  0  0
   -6.6948   22.6831    0.5314 C   0  0  0  0  0  0  0  0  0  0  0  0
   -5.8985   23.3491    1.3947 N   0  0  0  0  0  0  0  0  0  0  0  0
   -3.4408   29.9060    6.6272 C   0  0  0  0  0  0  0  0  0  0  0  0
   -3.8755   33.2606    9.3082 C   0  0  0  0  0  0  0  0  0  0  0  0
   -4.8325   33.0264    8.3228 C   0  0  0  0  0  0  0  0  0  0  0  0
   -4.6884   31.9457    7.4520 C   0  0  0  0  0  0  0  0  0  0  0  0
   -3.5855   31.0873    7.5610 C   0  0  0  0  0  0  0  0  0  0  0  0
   -2.6269   31.3341    8.5529 C   0  0  0  0  0  0  0  0  0  0  0  0
   -2.7728   32.4157    9.4227 C   0  0  0  0  0  0  0  0  0  0  0  0
 20 21  2  0  0  0
 21 22  1  0  0  0
 22 23  2  0  0  0
 23 19  1  0  0  0
 19  1  1  0  0  0
  1  2  1  0  0  0
  2  3  1  0  0  0
  3  8  1  0  0  0
  8  9  2  0  0  0
  9 10  1  0  0  0
 10 11  2  0  0  0
 11 13  1  0  0  0
 13 14  2  0  0  0
 14 15  1  0  0  0
 15 16  2  0  0  0
 16 17  1  0  0  0
 17 18  2  0  0  0
 11 12  1  0  0  0
  3  4  1  0  0  0
  4  5  1  0  0  0
  5  6  1  0  0  0
 23 24  1  0  0  0
 24 25  2  0  0  0
 25 20  1  0  0  0
  6  1  1  0  0  0
 12  8  1  0  0  0
 18 13  1  0  0  0
  6  7  1  0  0  0
M  END
> <minimizedAffinity>
-9.36564

$$$$
OCNT-2311907


 23 25  0  0  0  0  0  0  0  0999 V2000
   -2.3392   26.4153    5.7288 C   0  0  0  0  0  0  0  0  0  0  0  0
    0.4936   29.4230    8.6456 C   0  0  0  0  0  0  0  0  0  0  0  0
   -0.6294   28.7344    8.0564 N   0  0  0  0  0  0  0  0  0  0  0  0
   -0.5993   27.6781    7.1404 C   0  0  0  0  0  0  0  0  0  0  0  0
   -1.8469   27.4478    6.6684 C   0  0  0  0  0  0  0  0  0  0  0  0
   -2.6792   28.3732    7.2947 N   0  0  0  0  0  0  0  0  0  0  0  0
   -3.9881   28.6937    7.3281 N   0  0  0  0  0  0  0  0  0  0  0  0
   -4.0241   29.7448    8.1642 C   0  0  0  0  0  0  0  0  0  0  0  0
   -2.7572   30.0892    8.6937 C   0  0  0  0  0  0  0  0  0  0  0  0
   -1.9192   29.1735    8.1312 C   0  0  0  0  0  0  0  0  0  0  0  0
   -2.4331   31.1291    9.6015 C   0  0  0  0  0  0  0  0  0  0  0  0
   -2.1645   31.9791   10.3448 N   0  0  0  0  0  0  0  0  0  0  0  0
   -3.3027   26.9800    4.7827 N   0  0  0  0  0  0  0  0  0  0  0  0
   -3.1488   27.9845    4.7058 H   0  0  0  0  0  0  0  0  0  0  0  0
   -3.1674   26.3599    3.4612 C   0  0  0  0  0  0  0  0  0  0  0  0
   -4.5134   26.3727    2.7247 C   0  0  0  0  0  0  0  0  0  0  0  0
   -4.9581   24.9788    2.3517 C   0  0  0  0  0  0  0  0  0  0  0  0
   -4.3858   23.8616    2.9763 C   0  0  0  0  0  0  0  0  0  0  0  0
   -4.7805   22.5706    2.6203 C   0  0  0  0  0  0  0  0  0  0  0  0
   -5.7479   22.3823    1.6338 C   0  0  0  0  0  0  0  0  0  0  0  0
   -6.3160   23.4890    1.0065 C   0  0  0  0  0  0  0  0  0  0  0  0
   -7.6243   23.2368   -0.3352 Br  0  0  0  0  0  0  0  0  0  0  0  0
   -5.9266   24.7822    1.3573 C   0  0  0  0  0  0  0  0  0  0  0  0
  2  3  1  0  0  0
  3  4  1  0  0  0
  4  5  2  0  0  0
  5  1  1  0  0  0
  1 13  1  0  0  0
 13 15  1  0  0  0
 15 16  1  0  0  0
 16 17  1  0  0  0
 17 18  2  0  0  0
 18 19  1  0  0  0
 19 20  2  0  0  0
 20 21  1  0  0  0
 21 22  1  0  0  0
 21 23  2  0  0  0
  5  6  1  0  0  0
  6  7  1  0  0  0
  7  8  2  0  0  0
  8  9  1  0  0  0
  9 11  1  0  0  0
 11 12  3  0  0  0
  9 10  2  0  0  0
 10  3  1  0  0  0
 23 17  1  0  0  0
 10  6  1  0  0  0
 13 14  1  0  0  0
M  END
> <minimizedAffinity>
-8.22307

$$$$
OCNT-2311908


 23 25  0  0  0  0  0  0  0  0999 V2000
   -2.7867   26.4386    5.3100 C   0  0  0  0  0  0  0  0  0  0  0  0
   -3.7744   27.4808    5.6046 N   0  0  0  0  0  0  0  0  0  0  0  0
   -4.9758   27.5662    4.8910 C   0  0  0  0  0  0  0  0  0  0  0  0
   -5.6648   28.5683    4.7198 O   0  0  0  0  0  0  0  0  0  0  0  0
   -3.4231   28.4410    6.5634 C   0  0  0  0  0  0  0  0  0  0  0  0
   -2.1770   28.8233    6.7522 N   0  0  0  0  0  0  0  0  0  0  0  0
   -2.1048   29.7499    7.7777 C   0  0  0  0  0  0  0  0  0  0  0  0
   -0.9358   30.3922    8.2339 C   0  0  0  0  0  0  0  0  0  0  0  0
   -1.0128   31.3095    9.2874 C   0  0  0  0  0  0  0  0  0  0  0  0
   -2.2356   31.5906    9.8888 C   0  0  0  0  0  0  0  0  0  0  0  0
   -3.4084   30.9643    9.4555 C   0  0  0  0  0  0  0  0  0  0  0  0
   -3.3181   30.0462    8.3964 C   0  0  0  0  0  0  0  0  0  0  0  0
   -4.5559   29.1203    7.6499 S   0  0  0  0  0  0  0  0  0  0  0  0
   -5.4889   26.3267    4.2539 C   0  0  0  0  0  0  0  0  0  0  0  0
   -6.0995   25.3306    5.0221 C   0  0  0  0  0  0  0  0  0  0  0  0
   -6.5996   24.1904    4.3956 C   0  0  0  0  0  0  0  0  0  0  0  0
   -6.4988   24.0473    3.0071 C   0  0  0  0  0  0  0  0  0  0  0  0
   -5.9008   25.0473    2.2353 C   0  0  0  0  0  0  0  0  0  0  0  0
   -5.4110   26.1955    2.8633 C   0  0  0  0  0  0  0  0  0  0  0  0
   -5.7555   25.0355    0.8767 O   0  0  0  0  0  0  0  0  0  0  0  0
   -6.9332   24.8565    0.1084 C   0  0  0  0  0  0  0  0  0  0  0  0
   -7.1074   25.9285   -0.7027 F   0  0  0  0  0  0  0  0  0  0  0  0
   -6.7316   23.7856   -0.7002 F   0  0  0  0  0  0  0  0  0  0  0  0
  1  2  1  0  0  0
  2  3  1  0  0  0
  3  4  2  0  0  0
  3 14  1  0  0  0
 14 15  2  0  0  0
 15 16  1  0  0  0
 16 17  2  0  0  0
 17 18  1  0  0  0
 18 20  1  0  0  0
 20 21  1  0  0  0
 21 22  1  0  0  0
 21 23  1  0  0  0
 18 19  2  0  0  0
  2  5  1  0  0  0
  5  6  2  0  0  0
  6  7  1  0  0  0
  7  8  2  0  0  0
  8  9  1  0  0  0
  9 10  2  0  0  0
 10 11  1  0  0  0
 11 12  2  0  0  0
 12 13  1  0  0  0
 19 14  1  0  0  0
 13  5  1  0  0  0
 12  7  1  0  0  0
M  END
> <minimizedAffinity>
-8.83093

$$$$
OCNT-2311909


 24 26  0  0  0  0  0  0  0  0999 V2000
   -6.5256   28.9182    7.1157 C   0  0  0  0  0  0  0  0  0  0  0  0
   -6.8979   30.3972    7.2724 C   0  0  0  0  0  0  0  0  0  0  0  0
   -6.3111   28.5573    5.6522 C   0  0  0  0  0  0  0  0  0  0  0  0
   -6.2700   29.5403    4.6505 C   0  0  0  0  0  0  0  0  0  0  0  0
   -6.0577   29.1903    3.3176 C   0  0  0  0  0  0  0  0  0  0  0  0
   -5.8809   27.8530    2.9643 C   0  0  0  0  0  0  0  0  0  0  0  0
   -5.9160   26.8521    3.9451 C   0  0  0  0  0  0  0  0  0  0  0  0
   -6.1310   27.2093    5.2855 C   0  0  0  0  0  0  0  0  0  0  0  0
   -5.7310   25.4930    3.5614 N   0  0  0  0  0  0  0  0  0  0  0  0
   -5.7498   24.9540    2.2903 C   0  0  0  0  0  0  0  0  0  0  0  0
   -5.5262   23.6034    2.4164 C   0  0  0  0  0  0  0  0  0  0  0  0
   -5.3818   23.3998    3.7944 C   0  0  0  0  0  0  0  0  0  0  0  0
   -5.5035   24.5280    4.4931 N   0  0  0  0  0  0  0  0  0  0  0  0
   -5.3515   28.6421    7.9516 N   0  0  0  0  0  0  0  0  0  0  0  0
   -5.6352   28.5398    8.9241 H   0  0  0  0  0  0  0  0  0  0  0  0
   -4.3286   29.6807    7.8587 C   0  0  0  0  0  0  0  0  0  0  0  0
    0.6072   29.4738    8.8017 C   0  0  0  0  0  0  0  0  0  0  0  0
   -0.6084   28.9651    8.0870 C   0  0  0  0  0  0  0  0  0  0  0  0
   -1.8486   29.5503    8.3181 C   0  0  0  0  0  0  0  0  0  0  0  0
   -2.9693   29.0648    7.6384 C   0  0  0  0  0  0  0  0  0  0  0  0
   -2.7947   28.0086    6.7406 C   0  0  0  0  0  0  0  0  0  0  0  0
   -1.5224   27.4731    6.5640 C   0  0  0  0  0  0  0  0  0  0  0  0
   -1.3113   26.3376    5.6080 C   0  0  0  0  0  0  0  0  0  0  0  0
   -0.4359   27.9356    7.2251 N   0  0  0  0  0  0  0  0  0  0  0  0
 17 18  1  0  0  0
 18 19  1  0  0  0
 19 20  2  0  0  0
 20 16  1  0  0  0
 16 14  1  0  0  0
 14  1  1  0  0  0
  1  2  1  0  0  0
  1  3  1  0  0  0
  3  4  2  0  0  0
  4  5  1  0  0  0
  5  6  2  0  0  0
  6  7  1  0  0  0
  7  9  1  0  0  0
  9 10  1  0  0  0
 10 11  2  0  0  0
 11 12  1  0  0  0
 12 13  2  0  0  0
  7  8  2  0  0  0
 20 21  1  0  0  0
 21 22  2  0  0  0
 22 23  1  0  0  0
 22 24  1  0  0  0
 24 18  2  0  0  0
  8  3  1  0  0  0
 13  9  1  0  0  0
 14 15  1  0  0  0
M  END
> <minimizedAffinity>
-8.87488

$$$$
OCNT-2311912


 23 24  0  0  0  0  0  0  0  0999 V2000
   -4.3663   26.1964    4.2378 C   0  0  0  0  0  0  0  0  0  0  0  0
   -1.2845   27.7880    6.8539 C   0  0  0  0  0  0  0  0  0  0  0  0
   -2.5577   28.3834    6.8332 C   0  0  0  0  0  0  0  0  0  0  0  0
   -3.5788   27.8718    6.0122 C   0  0  0  0  0  0  0  0  0  0  0  0
   -5.1501   28.6125    6.0445 Cl  0  0  0  0  0  0  0  0  0  0  0  0
   -3.3233   26.7780    5.1662 C   0  0  0  0  0  0  0  0  0  0  0  0
   -2.0371   26.2152    5.1677 C   0  0  0  0  0  0  0  0  0  0  0  0
   -1.0314   26.7100    6.0045 C   0  0  0  0  0  0  0  0  0  0  0  0
    0.6403   29.1631    7.1669 C   0  0  0  0  0  0  0  0  0  0  0  0
   -0.3698   28.3296    7.7191 O   0  0  0  0  0  0  0  0  0  0  0  0
   -2.8378   29.4336    7.6808 O   0  0  0  0  0  0  0  0  0  0  0  0
   -2.6924   30.6772    6.9946 C   0  0  0  0  0  0  0  0  0  0  0  0
   -3.8236   25.9906    2.8216 C   0  0  0  0  0  0  0  0  0  0  0  0
   -4.1015   24.6329    2.3594 N   0  0  0  0  0  0  0  0  0  0  0  0
   -5.0478   24.4223    1.5113 C   0  0  0  0  0  0  0  0  0  0  0  0
   -5.2290   23.1299    1.1250 N   0  0  0  0  0  0  0  0  0  0  0  0
   -6.5461   22.5236    1.0660 C   0  0  0  0  0  0  0  0  0  0  0  0
   -7.2246   22.8110   -0.2666 C   0  0  0  0  0  0  0  0  0  0  0  0
   -7.6203   24.2761   -0.4350 C   0  0  0  0  0  0  0  0  0  0  0  0
   -6.4299   25.2244   -0.3794 C   0  0  0  0  0  0  0  0  0  0  0  0
   -5.9049   25.3308    0.9687 N   0  0  0  0  0  0  0  0  0  0  0  0
   -4.5719   22.5581    1.6488 H   0  0  0  0  0  0  0  0  0  0  0  0
   -5.7206   26.2917    1.2306 H   0  0  0  0  0  0  0  0  0  0  0  0
  9 10  1  0  0  0
 10  2  1  0  0  0
  2  3  2  0  0  0
  3 11  1  0  0  0
 11 12  1  0  0  0
  3  4  1  0  0  0
  4  5  1  0  0  0
  4  6  2  0  0  0
  6  1  1  0  0  0
  1 13  1  0  0  0
 13 14  1  0  0  0
 14 15  2  0  0  0
 15 16  1  0  0  0
 16 17  1  0  0  0
 17 18  1  0  0  0
 18 19  1  0  0  0
 19 20  1  0  0  0
 20 21  1  0  0  0
  6  7  1  0  0  0
  7  8  2  0  0  0
  8  2  1  0  0  0
 21 15  1  0  0  0
 16 22  1  0  0  0
 21 23  1  0  0  0
M  END
> <minimizedAffinity>
-7.78934

$$$$
OCNT-2311913


 27 29  0  0  0  0  0  0  0  0999 V2000
   -4.4112   29.1722    7.3810 C   0  0  0  0  0  0  0  0  0  0  0  0
   -5.3947   28.6797    7.9216 O   0  0  0  0  0  0  0  0  0  0  0  0
   -3.9051   28.8434    6.1372 N   0  0  0  0  0  0  0  0  0  0  0  0
   -3.0509   29.3157    5.8712 H   0  0  0  0  0  0  0  0  0  0  0  0
   -4.4231   27.9204    5.1967 C   0  0  0  0  0  0  0  0  0  0  0  0
   -3.9198   26.6173    5.0725 C   0  0  0  0  0  0  0  0  0  0  0  0
   -4.4829   25.7779    4.1326 C   0  0  0  0  0  0  0  0  0  0  0  0
   -5.5140   26.1813    3.3248 C   0  0  0  0  0  0  0  0  0  0  0  0
   -6.0422   27.4486    3.4112 C   0  0  0  0  0  0  0  0  0  0  0  0
   -5.4975   28.3400    4.3568 C   0  0  0  0  0  0  0  0  0  0  0  0
   -6.0911   29.7223    4.4425 C   0  0  0  0  0  0  0  0  0  0  0  0
   -5.9224   25.2053    2.4715 O   0  0  0  0  0  0  0  0  0  0  0  0
   -5.0261   24.1354    2.8373 C   0  0  0  0  0  0  0  0  0  0  0  0
   -4.1088   24.4919    3.8907 O   0  0  0  0  0  0  0  0  0  0  0  0
   -3.6549   32.4511    9.0928 C   0  0  0  0  0  0  0  0  0  0  0  0
   -2.3646   32.2373    9.5808 C   0  0  0  0  0  0  0  0  0  0  0  0
   -1.7021   31.0329    9.3419 C   0  0  0  0  0  0  0  0  0  0  0  0
   -2.3270   30.0304    8.5965 C   0  0  0  0  0  0  0  0  0  0  0  0
   -3.6424   30.2104    8.1389 C   0  0  0  0  0  0  0  0  0  0  0  0
   -4.2908   31.4367    8.3769 C   0  0  0  0  0  0  0  0  0  0  0  0
   -4.8467   34.3668    8.3395 C   0  0  0  0  0  0  0  0  0  0  0  0
   -4.1816   33.6766    9.3917 O   0  0  0  0  0  0  0  0  0  0  0  0
   -1.6633   28.8513    8.3811 O   0  0  0  0  0  0  0  0  0  0  0  0
   -0.6325   29.0029    7.4017 C   0  0  0  0  0  0  0  0  0  0  0  0
   -0.8762   30.0496    6.5884 F   0  0  0  0  0  0  0  0  0  0  0  0
    0.5694   29.1570    7.9947 F   0  0  0  0  0  0  0  0  0  0  0  0
   -0.5938   27.8789    6.6546 F   0  0  0  0  0  0  0  0  0  0  0  0
 21 22  1  0  0  0
 22 15  1  0  0  0
 15 16  1  0  0  0
 16 17  2  0  0  0
 17 18  1  0  0  0
 18 23  1  0  0  0
 23 24  1  0  0  0
 24 25  1  0  0  0
 24 26  1  0  0  0
 24 27  1  0  0  0
 18 19  2  0  0  0
 19  1  1  0  0  0
  1  2  2  0  0  0
  1  3  1  0  0  0
  3  5  1  0  0  0
  5  6  1  0  0  0
  6  7  2  0  0  0
  7  8  1  0  0  0
  8  9  2  0  0  0
  9 10  1  0  0  0
 10 11  1  0  0  0
  8 12  1  0  0  0
 12 13  1  0  0  0
 13 14  1  0  0  0
 19 20  1  0  0  0
 20 15  2  0  0  0
 10  5  2  0  0  0
 14  7  1  0  0  0
  3  4  1  0  0  0
M  END
> <minimizedAffinity>
-8.95958

$$$$
OCNT-2311914


 32 35  0  0  0  0  0  0  0  0999 V2000
   -5.5102   29.6318    5.7851 C   0  0  0  0  0  0  0  0  0  0  0  0
   -5.9298   29.1584    6.8382 O   0  0  0  0  0  0  0  0  0  0  0  0
   -4.4882   30.5516    5.6644 N   0  0  0  0  0  0  0  0  0  0  0  0
   -4.1394   30.6741    4.7211 H   0  0  0  0  0  0  0  0  0  0  0  0
   -3.7619   31.2473    6.6660 C   0  0  0  0  0  0  0  0  0  0  0  0
   -4.5100   32.2213    7.3561 C   0  0  0  0  0  0  0  0  0  0  0  0
   -3.9480   32.9865    8.3814 C   0  0  0  0  0  0  0  0  0  0  0  0
   -2.6240   32.7886    8.7446 C   0  0  0  0  0  0  0  0  0  0  0  0
   -1.8675   31.8232    8.0843 C   0  0  0  0  0  0  0  0  0  0  0  0
   -2.4193   31.0502    7.0509 C   0  0  0  0  0  0  0  0  0  0  0  0
   -1.5648   30.0439    6.5003 N   0  0  0  0  0  0  0  0  0  0  0  0
   -1.6530   29.9490    5.4781 H   0  0  0  0  0  0  0  0  0  0  0  0
   -1.6187   28.4997    7.2017 S   0  0  0  0  0  0  0  0  0  0  0  0
   -0.3189   28.2700    7.8031 O   0  0  0  0  0  0  0  0  0  0  0  0
   -2.8335   28.3350    7.9726 O   0  0  0  0  0  0  0  0  0  0  0  0
   -1.6840   27.2892    5.8864 C   0  0  0  0  0  0  0  0  0  0  0  0
   -2.7585   26.7068    5.2382 C   0  0  0  0  0  0  0  0  0  0  0  0
   -2.3541   25.7649    4.2439 C   0  0  0  0  0  0  0  0  0  0  0  0
   -0.9835   25.6608    4.1674 C   0  0  0  0  0  0  0  0  0  0  0  0
   -0.1969   26.6943    5.2835 S   0  0  0  0  0  0  0  0  0  0  0  0
   -6.1269   29.2437    4.4489 C   0  0  0  0  0  0  0  0  0  0  0  0
   -5.7866   22.6461    4.5307 C   0  0  0  0  0  0  0  0  0  0  0  0
   -5.9102   23.5760    3.4144 N   0  0  0  0  0  0  0  0  0  0  0  0
   -5.2518   23.1595    2.1714 C   0  0  0  0  0  0  0  0  0  0  0  0
   -5.7244   24.0100    1.0052 C   0  0  0  0  0  0  0  0  0  0  0  0
   -5.3327   25.4549    1.2586 C   0  0  0  0  0  0  0  0  0  0  0  0
   -5.7094   25.8955    2.6525 C   0  0  0  0  0  0  0  0  0  0  0  0
   -5.7584   27.2783    2.9132 C   0  0  0  0  0  0  0  0  0  0  0  0
   -6.0838   27.7619    4.1837 C   0  0  0  0  0  0  0  0  0  0  0  0
   -6.3503   26.8404    5.1986 C   0  0  0  0  0  0  0  0  0  0  0  0
   -6.2923   25.4642    4.9420 C   0  0  0  0  0  0  0  0  0  0  0  0
   -5.9540   24.9529    3.6765 C   0  0  0  0  0  0  0  0  0  0  0  0
 22 23  1  0  0  0
 23 24  1  0  0  0
 24 25  1  0  0  0
 25 26  1  0  0  0
 26 27  1  0  0  0
 27 28  1  0  0  0
 28 29  2  0  0  0
 29 21  1  0  0  0
 21  1  1  0  0  0
  1  2  2  0  0  0
  1  3  1  0  0  0
  3  5  1  0  0  0
  5  6  2  0  0  0
  6  7  1  0  0  0
  7  8  2  0  0  0
  8  9  1  0  0  0
  9 10  2  0  0  0
 10 11  1  0  0  0
 11 13  1  0  0  0
 13 14  2  0  0  0
 13 15  2  0  0  0
 13 16  1  0  0  0
 16 17  2  0  0  0
 17 18  1  0  0  0
 18 19  2  0  0  0
 19 20  1  0  0  0
 29 30  1  0  0  0
 30 31  2  0  0  0
 31 32  1  0  0  0
 32 23  1  0  0  0
 32 27  2  0  0  0
 10  5  1  0  0  0
 20 16  1  0  0  0
  3  4  1  0  0  0
 11 12  1  0  0  0
M  END
> <minimizedAffinity>
-10.70159

$$$$
OCNT-2311918


 24 26  0  0  0  0  0  0  0  0999 V2000
   -3.4436   25.8318    4.8512 C   0  0  0  0  0  0  0  0  0  0  0  0
   -1.2543   31.8959    9.2852 C   0  0  0  0  0  0  0  0  0  0  0  0
   -1.4848   30.4080    9.0327 C   0  0  0  0  0  0  0  0  0  0  0  0
   -0.3372   29.8087    8.2127 C   0  0  0  0  0  0  0  0  0  0  0  0
   -0.5822   28.3315    7.9201 C   0  0  0  0  0  0  0  0  0  0  0  0
   -1.8870   28.0999    7.3030 N   0  0  0  0  0  0  0  0  0  0  0  0
   -1.9593   27.1721    6.2745 C   0  0  0  0  0  0  0  0  0  0  0  0
   -0.9682   26.7176    5.7087 O   0  0  0  0  0  0  0  0  0  0  0  0
   -3.2316   26.7990    5.9162 N   0  0  0  0  0  0  0  0  0  0  0  0
   -3.0339   28.6979    7.9890 C   0  0  0  0  0  0  0  0  0  0  0  0
   -2.8111   30.1767    8.3011 C   0  0  0  0  0  0  0  0  0  0  0  0
   -3.8581   26.7052    6.6998 H   0  0  0  0  0  0  0  0  0  0  0  0
   -3.5266   26.4870    3.4658 C   0  0  0  0  0  0  0  0  0  0  0  0
   -4.7591   27.3710    3.2879 C   0  0  0  0  0  0  0  0  0  0  0  0
   -5.8816   26.3803    2.9735 C   0  0  0  0  0  0  0  0  0  0  0  0
   -5.2030   25.2245    2.3718 N   0  0  0  0  0  0  0  0  0  0  0  0
   -3.7498   25.4375    2.3750 C   0  0  0  0  0  0  0  0  0  0  0  0
   -5.8374   24.3798    1.4672 C   0  0  0  0  0  0  0  0  0  0  0  0
   -6.5101   24.9250    0.3501 C   0  0  0  0  0  0  0  0  0  0  0  0
   -7.1839   24.1392   -0.5947 C   0  0  0  0  0  0  0  0  0  0  0  0
   -7.1987   22.7602   -0.4672 C   0  0  0  0  0  0  0  0  0  0  0  0
   -6.5246   22.1738    0.5963 C   0  0  0  0  0  0  0  0  0  0  0  0
   -5.8456   22.9633    1.5435 C   0  0  0  0  0  0  0  0  0  0  0  0
   -4.9665   22.0553    2.7348 Cl  0  0  0  0  0  0  0  0  0  0  0  0
  2  3  1  0  0  0
  3  4  1  0  0  0
  4  5  1  0  0  0
  5  6  1  0  0  0
  6  7  1  0  0  0
  7  8  2  0  0  0
  7  9  1  0  0  0
  9  1  1  0  0  0
  1 13  1  0  0  0
 13 14  1  0  0  0
 14 15  1  0  0  0
 15 16  1  0  0  0
 16 18  1  0  0  0
 18 19  2  0  0  0
 19 20  1  0  0  0
 20 21  2  0  0  0
 21 22  1  0  0  0
 22 23  2  0  0  0
 23 24  1  0  0  0
 16 17  1  0  0  0
  6 10  1  0  0  0
 10 11  1  0  0  0
 11  3  1  0  0  0
 17 13  1  0  0  0
 23 18  1  0  0  0
  9 12  1  0  0  0
M  END
> <minimizedAffinity>
-10.19954

$$$$
OCNT-2311929


 26 27  0  0  0  0  0  0  0  0999 V2000
   -0.6686   27.0164    6.5932 N   0  0  0  0  0  0  0  0  0  0  0  0
   -1.7975   26.7778    5.8356 C   0  0  0  0  0  0  0  0  0  0  0  0
   -2.9256   27.1117    6.1789 O   0  0  0  0  0  0  0  0  0  0  0  0
    0.2228   26.9628    6.1119 H   0  0  0  0  0  0  0  0  0  0  0  0
   -0.7365   27.8551    7.7798 C   0  0  0  0  0  0  0  0  0  0  0  0
    0.6476   29.2468    6.2135 C   0  0  0  0  0  0  0  0  0  0  0  0
    0.0224   29.2057    7.6288 C   0  0  0  0  0  0  0  0  0  0  0  0
    1.1948   29.2240    8.6367 C   0  0  0  0  0  0  0  0  0  0  0  0
   -0.9091   30.3891    7.9270 C   0  0  0  0  0  0  0  0  0  0  0  0
   -1.8791   30.8416    7.0319 C   0  0  0  0  0  0  0  0  0  0  0  0
   -2.7379   31.8612    7.2719 N   0  0  0  0  0  0  0  0  0  0  0  0
   -2.6311   32.4837    8.4617 C   0  0  0  0  0  0  0  0  0  0  0  0
   -1.7061   32.1309    9.4246 C   0  0  0  0  0  0  0  0  0  0  0  0
   -0.8401   31.0747    9.1513 C   0  0  0  0  0  0  0  0  0  0  0  0
   -1.4922   26.0357    4.5495 C   0  0  0  0  0  0  0  0  0  0  0  0
   -2.5941   26.2205    3.5062 C   0  0  0  0  0  0  0  0  0  0  0  0
   -3.6175   25.0890    3.5461 C   0  0  0  0  0  0  0  0  0  0  0  0
   -3.9630   24.7406    2.2068 O   0  0  0  0  0  0  0  0  0  0  0  0
   -4.7629   23.6443    2.0094 C   0  0  0  0  0  0  0  0  0  0  0  0
   -4.6572   22.4574    2.7442 C   0  0  0  0  0  0  0  0  0  0  0  0
   -5.5181   21.3879    2.4899 C   0  0  0  0  0  0  0  0  0  0  0  0
   -6.4945   21.4959    1.5022 C   0  0  0  0  0  0  0  0  0  0  0  0
   -6.6163   22.6761    0.7644 C   0  0  0  0  0  0  0  0  0  0  0  0
   -7.8545   22.7310   -0.4428 Cl  0  0  0  0  0  0  0  0  0  0  0  0
   -5.7549   23.7545    1.0143 C   0  0  0  0  0  0  0  0  0  0  0  0
   -5.8879   25.2275    0.1001 Cl  0  0  0  0  0  0  0  0  0  0  0  0
  6  7  1  0  0  0
  7  8  1  0  0  0
  7  5  1  0  0  0
  5  1  1  0  0  0
  1  2  1  0  0  0
  2  3  2  0  0  0
  2 15  1  0  0  0
 15 16  1  0  0  0
 16 17  1  0  0  0
 17 18  1  0  0  0
 18 19  1  0  0  0
 19 20  2  0  0  0
 20 21  1  0  0  0
 21 22  2  0  0  0
 22 23  1  0  0  0
 23 24  1  0  0  0
 23 25  2  0  0  0
 25 26  1  0  0  0
  7  9  1  0  0  0
  9 10  2  0  0  0
 10 11  1  0  0  0
 11 12  2  0  0  0
 12 13  1  0  0  0
 13 14  2  0  0  0
 25 19  1  0  0  0
 14  9  1  0  0  0
  1  4  1  0  0  0
M  END
> <minimizedAffinity>
-9.74015

$$$$
OCNT-2311931


 26 27  0  0  0  0  0  0  0  0999 V2000
   -2.7177   26.5855    4.9677 N   0  0  0  0  0  0  0  0  0  0  0  0
   -1.6788   26.9840    5.7676 C   0  0  0  0  0  0  0  0  0  0  0  0
   -0.4987   26.9052    5.4594 O   0  0  0  0  0  0  0  0  0  0  0  0
   -2.1410   27.4885    6.9564 N   0  0  0  0  0  0  0  0  0  0  0  0
   -3.4984   26.1970    5.4754 H   0  0  0  0  0  0  0  0  0  0  0  0
   -3.0907   27.8285    6.9352 H   0  0  0  0  0  0  0  0  0  0  0  0
   -2.4259   25.9206    3.7184 C   0  0  0  0  0  0  0  0  0  0  0  0
   -4.8233   26.0298    2.8655 C   0  0  0  0  0  0  0  0  0  0  0  0
   -5.9478   25.3915    2.3356 C   0  0  0  0  0  0  0  0  0  0  0  0
   -5.9186   24.0191    2.0796 C   0  0  0  0  0  0  0  0  0  0  0  0
   -7.3113   23.2460    1.4246 Cl  0  0  0  0  0  0  0  0  0  0  0  0
   -4.7772   23.2695    2.3416 C   0  0  0  0  0  0  0  0  0  0  0  0
   -3.6523   23.8969    2.8726 C   0  0  0  0  0  0  0  0  0  0  0  0
   -3.6668   25.2749    3.1500 C   0  0  0  0  0  0  0  0  0  0  0  0
   -4.7308   27.3694    3.1340 O   0  0  0  0  0  0  0  0  0  0  0  0
   -6.0809   29.3892    3.1909 C   0  0  0  0  0  0  0  0  0  0  0  0
   -5.7970   28.0325    3.8125 C   0  0  0  0  0  0  0  0  0  0  0  0
   -1.2322   28.0739    7.9250 C   0  0  0  0  0  0  0  0  0  0  0  0
   -1.8226   29.3051    8.6525 C   0  0  0  0  0  0  0  0  0  0  0  0
   -1.1117   30.5847    8.1802 C   0  0  0  0  0  0  0  0  0  0  0  0
   -1.1682   31.7465    9.1647 C   0  0  0  0  0  0  0  0  0  0  0  0
   -2.4927   31.9829    9.8772 C   0  0  0  0  0  0  0  0  0  0  0  0
   -3.7411   31.6956    9.0472 C   0  0  0  0  0  0  0  0  0  0  0  0
   -4.1455   30.2900    9.1456 N   0  0  0  0  0  0  0  0  0  0  0  0
   -5.5605   30.1467    8.7846 C   0  0  0  0  0  0  0  0  0  0  0  0
   -3.3384   29.3560    8.3476 C   0  0  0  0  0  0  0  0  0  0  0  0
 16 17  1  0  0  0
 17 15  1  0  0  0
 15  8  1  0  0  0
  8  9  1  0  0  0
  9 10  2  0  0  0
 10 11  1  0  0  0
 10 12  1  0  0  0
 12 13  2  0  0  0
 13 14  1  0  0  0
 14  7  1  0  0  0
  7  1  1  0  0  0
  1  2  1  0  0  0
  2  3  2  0  0  0
  2  4  1  0  0  0
  4 18  1  0  0  0
 18 19  1  0  0  0
 19 20  1  0  0  0
 20 21  1  0  0  0
 21 22  1  0  0  0
 22 23  1  0  0  0
 23 24  1  0  0  0
 24 25  1  0  0  0
 24 26  1  0  0  0
 14  8  2  0  0  0
 26 19  1  0  0  0
  1  5  1  0  0  0
  4  6  1  0  0  0
M  END
> <minimizedAffinity>
-8.62004

$$$$
OCNT-2311937


 27 29  0  0  0  0  0  0  0  0999 V2000
   -5.8295   31.1770    7.2868 N   0  0  0  0  0  0  0  0  0  0  0  0
   -5.5672   29.8328    7.1407 C   0  0  0  0  0  0  0  0  0  0  0  0
   -5.0467   29.1495    8.0151 O   0  0  0  0  0  0  0  0  0  0  0  0
   -6.2988   31.6755    6.5415 H   0  0  0  0  0  0  0  0  0  0  0  0
   -5.5913   31.8805    8.5364 C   0  0  0  0  0  0  0  0  0  0  0  0
   -5.0215   34.3137    8.0911 C   0  0  0  0  0  0  0  0  0  0  0  0
   -4.4705   32.9350    8.4474 C   0  0  0  0  0  0  0  0  0  0  0  0
   -3.5800   32.4978    7.4087 O   0  0  0  0  0  0  0  0  0  0  0  0
   -2.4842   31.7528    7.7389 C   0  0  0  0  0  0  0  0  0  0  0  0
   -1.9965   30.9524    6.7004 C   0  0  0  0  0  0  0  0  0  0  0  0
   -0.8769   30.1389    6.8903 C   0  0  0  0  0  0  0  0  0  0  0  0
   -0.2365   30.1307    8.1254 C   0  0  0  0  0  0  0  0  0  0  0  0
    1.1427   29.1327    8.3698 Cl  0  0  0  0  0  0  0  0  0  0  0  0
   -0.7059   30.9315    9.1645 C   0  0  0  0  0  0  0  0  0  0  0  0
   -1.8285   31.7450    8.9704 C   0  0  0  0  0  0  0  0  0  0  0  0
   -5.9202   29.2988    5.7655 C   0  0  0  0  0  0  0  0  0  0  0  0
   -6.0658   27.7768    5.7441 C   0  0  0  0  0  0  0  0  0  0  0  0
   -5.2237   27.1276    4.6682 C   0  0  0  0  0  0  0  0  0  0  0  0
   -5.8188   26.8343    3.4392 C   0  0  0  0  0  0  0  0  0  0  0  0
   -5.1801   26.2680    2.3953 N   0  0  0  0  0  0  0  0  0  0  0  0
   -3.8743   25.9803    2.5756 C   0  0  0  0  0  0  0  0  0  0  0  0
   -3.1596   26.2291    3.7473 C   0  0  0  0  0  0  0  0  0  0  0  0
   -1.7950   25.9051    3.8566 C   0  0  0  0  0  0  0  0  0  0  0  0
   -1.0957   26.1613    5.0336 C   0  0  0  0  0  0  0  0  0  0  0  0
   -1.7524   26.7423    6.1109 C   0  0  0  0  0  0  0  0  0  0  0  0
   -3.1085   27.0675    6.0119 C   0  0  0  0  0  0  0  0  0  0  0  0
   -3.8473   26.8208    4.8307 C   0  0  0  0  0  0  0  0  0  0  0  0
  6  7  1  0  0  0
  7  5  1  0  0  0
  5  1  1  0  0  0
  1  2  1  0  0  0
  2  3  2  0  0  0
  2 16  1  0  0  0
 16 17  1  0  0  0
 17 18  1  0  0  0
 18 19  1  0  0  0
 19 20  2  0  0  0
 20 21  1  0  0  0
 21 22  2  0  0  0
 22 23  1  0  0  0
 23 24  2  0  0  0
 24 25  1  0  0  0
 25 26  2  0  0  0
 26 27  1  0  0  0
  7  8  1  0  0  0
  8  9  1  0  0  0
  9 10  1  0  0  0
 10 11  2  0  0  0
 11 12  1  0  0  0
 12 13  1  0  0  0
 12 14  2  0  0  0
 14 15  1  0  0  0
 27 18  2  0  0  0
 15  9  2  0  0  0
 27 22  1  0  0  0
  1  4  1  0  0  0
M  END
> <minimizedAffinity>
-9.45760

$$$$
OCNT-2311956


 30 33  0  0  0  0  0  0  0  0999 V2000
   -6.0066   26.5305    4.4431 C   0  0  0  0  0  0  0  0  0  0  0  0
   -6.1516   27.3025    3.5036 O   0  0  0  0  0  0  0  0  0  0  0  0
   -5.8369   26.9468    5.7460 N   0  0  0  0  0  0  0  0  0  0  0  0
   -5.5883   26.2775    6.4609 H   0  0  0  0  0  0  0  0  0  0  0  0
   -6.0672   22.3968    1.4716 C   0  0  0  0  0  0  0  0  0  0  0  0
   -5.9685   21.0989    1.7894 N   0  0  0  0  0  0  0  0  0  0  0  0
   -5.8523   21.1021    3.1269 N   0  0  0  0  0  0  0  0  0  0  0  0
   -5.8630   22.3500    3.6902 C   0  0  0  0  0  0  0  0  0  0  0  0
   -5.7724   22.7693    5.0210 C   0  0  0  0  0  0  0  0  0  0  0  0
   -5.8238   24.1485    5.2601 C   0  0  0  0  0  0  0  0  0  0  0  0
   -5.9523   25.0621    4.2048 C   0  0  0  0  0  0  0  0  0  0  0  0
   -6.0611   24.6107    2.8787 C   0  0  0  0  0  0  0  0  0  0  0  0
   -6.0075   23.2288    2.6233 C   0  0  0  0  0  0  0  0  0  0  0  0
   -5.7697   20.2104    3.6010 H   0  0  0  0  0  0  0  0  0  0  0  0
   -6.2262   22.8116    0.0452 C   0  0  0  0  0  0  0  0  0  0  0  0
   -7.2220   25.0405   -0.6861 C   0  0  0  0  0  0  0  0  0  0  0  0
   -7.4996   23.6177   -0.2208 C   0  0  0  0  0  0  0  0  0  0  0  0
   -5.8955   28.3518    6.1159 C   0  0  0  0  0  0  0  0  0  0  0  0
   -4.6301   29.1409    5.7461 C   0  0  0  0  0  0  0  0  0  0  0  0
   -3.6069   29.0656    6.7902 N   0  0  0  0  0  0  0  0  0  0  0  0
   -2.7112   28.0028    6.7531 C   0  0  0  0  0  0  0  0  0  0  0  0
   -2.7014   27.1451    5.8706 O   0  0  0  0  0  0  0  0  0  0  0  0
   -1.7757   27.9183    7.9510 C   0  0  0  0  0  0  0  0  0  0  0  0
   -1.3240   29.1254    8.5307 O   0  0  0  0  0  0  0  0  0  0  0  0
   -2.2832   30.1003    8.5645 C   0  0  0  0  0  0  0  0  0  0  0  0
   -2.0336   31.1422    9.4624 C   0  0  0  0  0  0  0  0  0  0  0  0
   -2.9202   32.2099    9.5604 C   0  0  0  0  0  0  0  0  0  0  0  0
   -4.0496   32.2408    8.7494 C   0  0  0  0  0  0  0  0  0  0  0  0
   -4.2920   31.2065    7.8379 C   0  0  0  0  0  0  0  0  0  0  0  0
   -3.4137   30.1176    7.7322 C   0  0  0  0  0  0  0  0  0  0  0  0
 16 17  1  0  0  0
 17 15  1  0  0  0
 15  5  1  0  0  0
  5  6  2  0  0  0
  6  7  1  0  0  0
  7  8  1  0  0  0
  8  9  2  0  0  0
  9 10  1  0  0  0
 10 11  2  0  0  0
 11  1  1  0  0  0
  1  2  2  0  0  0
  1  3  1  0  0  0
  3 18  1  0  0  0
 18 19  1  0  0  0
 19 20  1  0  0  0
 20 21  1  0  0  0
 21 22  2  0  0  0
 21 23  1  0  0  0
 23 24  1  0  0  0
 24 25  1  0  0  0
 25 26  2  0  0  0
 26 27  1  0  0  0
 27 28  2  0  0  0
 28 29  1  0  0  0
 29 30  2  0  0  0
 11 12  1  0  0  0
 12 13  2  0  0  0
 13  5  1  0  0  0
 13  8  1  0  0  0
 30 20  1  0  0  0
 30 25  1  0  0  0
  7 14  1  0  0  0
  3  4  1  0  0  0
M  END
> <minimizedAffinity>
-10.00892

$$$$
OCNT-2311962


 26 29  0  0  0  0  0  0  0  0999 V2000
    0.1493   29.6295    9.3680 O   0  0  0  0  0  0  0  0  0  0  0  0
   -0.5979   30.2350    8.5986 C   0  0  0  0  0  0  0  0  0  0  0  0
   -1.0519   29.6718    7.4199 N   0  0  0  0  0  0  0  0  0  0  0  0
   -1.8671   30.1070    7.0041 H   0  0  0  0  0  0  0  0  0  0  0  0
   -1.1372   31.6791    8.8397 C   0  0  0  0  0  0  0  0  0  0  0  0
   -2.0240   31.9091   10.1045 C   0  0  0  0  0  0  0  0  0  0  0  0
   -3.2209   31.8917    9.1924 C   0  0  0  0  0  0  0  0  0  0  0  0
   -2.3574   32.1194    7.9728 C   0  0  0  0  0  0  0  0  0  0  0  0
   -4.3794   32.8182    9.4491 C   0  0  0  0  0  0  0  0  0  0  0  0
   -5.3050   31.6771    8.9371 C   0  0  0  0  0  0  0  0  0  0  0  0
   -6.4268   31.4661    9.6604 F   0  0  0  0  0  0  0  0  0  0  0  0
   -5.6860   31.7899    7.6426 F   0  0  0  0  0  0  0  0  0  0  0  0
   -4.1351   30.6874    9.1983 C   0  0  0  0  0  0  0  0  0  0  0  0
   -0.8819   28.2559    7.1425 C   0  0  0  0  0  0  0  0  0  0  0  0
   -0.3101   27.9490    5.7602 C   0  0  0  0  0  0  0  0  0  0  0  0
   -0.6055   26.4558    5.5939 C   0  0  0  0  0  0  0  0  0  0  0  0
   -1.9654   26.2453    6.2837 C   0  0  0  0  0  0  0  0  0  0  0  0
   -2.2283   27.5170    7.0942 C   0  0  0  0  0  0  0  0  0  0  0  0
   -2.7019   27.2337    8.4014 O   0  0  0  0  0  0  0  0  0  0  0  0
   -3.4688   26.6400    8.3175 H   0  0  0  0  0  0  0  0  0  0  0  0
   -0.5608   26.0156    4.1307 C   0  0  0  0  0  0  0  0  0  0  0  0
    0.7896   25.8371    3.6367 N   0  0  0  0  0  0  0  0  0  0  0  0
    1.4500   26.6664    2.7748 C   0  0  0  0  0  0  0  0  0  0  0  0
    2.6856   26.0863    2.6037 C   0  0  0  0  0  0  0  0  0  0  0  0
    2.7828   24.9255    3.3282 N   0  0  0  0  0  0  0  0  0  0  0  0
    1.6219   24.7954    3.9299 C   0  0  0  0  0  0  0  0  0  0  0  0
  1  2  2  0  0  0
  2  3  1  0  0  0
  3 14  1  0  0  0
 14 15  1  0  0  0
 15 16  1  0  0  0
 16 21  1  0  0  0
 21 22  1  0  0  0
 22 23  1  0  0  0
 23 24  2  0  0  0
 24 25  1  0  0  0
 25 26  2  0  0  0
 16 17  1  0  0  0
 17 18  1  0  0  0
 18 19  1  0  0  0
  2  5  1  0  0  0
  5  6  1  0  0  0
  6  7  1  0  0  0
  7  8  1  0  0  0
  7  9  1  0  0  0
  9 10  1  0  0  0
 10 11  1  0  0  0
 10 12  1  0  0  0
 10 13  1  0  0  0
 18 14  1  0  0  0
  8  5  1  0  0  0
 26 22  1  0  0  0
 13  7  1  0  0  0
  3  4  1  0  0  0
 19 20  1  0  0  0
M  END
> <minimizedAffinity>
-9.62348

$$$$
OCNT-2311967


 26 28  0  0  0  0  0  0  0  0999 V2000
   -6.4915   29.2071    5.5121 C   0  0  0  0  0  0  0  0  0  0  0  0
   -6.4236   27.8437    5.8088 C   0  0  0  0  0  0  0  0  0  0  0  0
   -6.1209   26.9025    4.8182 C   0  0  0  0  0  0  0  0  0  0  0  0
   -5.8896   27.3205    3.5106 C   0  0  0  0  0  0  0  0  0  0  0  0
   -5.9455   28.6843    3.2147 C   0  0  0  0  0  0  0  0  0  0  0  0
   -6.2490   29.6253    4.2058 C   0  0  0  0  0  0  0  0  0  0  0  0
   -6.7933   30.0030    6.5806 O   0  0  0  0  0  0  0  0  0  0  0  0
   -6.2563   29.6646    7.8666 C   0  0  0  0  0  0  0  0  0  0  0  0
   -5.6652   32.0207    7.6855 O   0  0  0  0  0  0  0  0  0  0  0  0
   -5.4745   30.8428    8.4782 C   0  0  0  0  0  0  0  0  0  0  0  0
   -5.0005   32.6692    7.9750 H   0  0  0  0  0  0  0  0  0  0  0  0
   -3.9907   30.5519    8.5747 C   0  0  0  0  0  0  0  0  0  0  0  0
   -3.4545   29.3596    8.0604 C   0  0  0  0  0  0  0  0  0  0  0  0
   -2.0873   29.0933    8.1622 C   0  0  0  0  0  0  0  0  0  0  0  0
   -1.2472   30.0156    8.7808 C   0  0  0  0  0  0  0  0  0  0  0  0
    0.4371   29.6886    8.9072 Cl  0  0  0  0  0  0  0  0  0  0  0  0
   -1.7625   31.2025    9.2974 C   0  0  0  0  0  0  0  0  0  0  0  0
   -3.1300   31.4704    9.1948 C   0  0  0  0  0  0  0  0  0  0  0  0
   -5.5736   26.5183    2.4501 O   0  0  0  0  0  0  0  0  0  0  0  0
   -5.5706   25.1018    2.6535 C   0  0  0  0  0  0  0  0  0  0  0  0
   -6.1023   24.3279    1.4762 C   0  0  0  0  0  0  0  0  0  0  0  0
   -6.6304   24.9471    0.3399 C   0  0  0  0  0  0  0  0  0  0  0  0
   -7.1318   24.1716   -0.7017 C   0  0  0  0  0  0  0  0  0  0  0  0
   -7.1004   22.7941   -0.5679 C   0  0  0  0  0  0  0  0  0  0  0  0
   -6.6152   22.1576    0.5191 N   0  0  0  0  0  0  0  0  0  0  0  0
   -6.1342   22.9368    1.5141 C   0  0  0  0  0  0  0  0  0  0  0  0
  9 10  1  0  0  0
 10  8  1  0  0  0
  8  7  1  0  0  0
  7  1  1  0  0  0
  1  2  1  0  0  0
  2  3  2  0  0  0
  3  4  1  0  0  0
  4 19  1  0  0  0
 19 20  1  0  0  0
 20 21  1  0  0  0
 21 22  1  0  0  0
 22 23  2  0  0  0
 23 24  1  0  0  0
 24 25  2  0  0  0
 25 26  1  0  0  0
  4  5  2  0  0  0
  5  6  1  0  0  0
 10 12  1  0  0  0
 12 13  1  0  0  0
 13 14  2  0  0  0
 14 15  1  0  0  0
 15 16  1  0  0  0
 15 17  2  0  0  0
 17 18  1  0  0  0
  6  1  2  0  0  0
 18 12  2  0  0  0
 26 21  2  0  0  0
  9 11  1  0  0  0
M  END
> <minimizedAffinity>
-9.44263

$$$$
OCNT-2311971


 23 25  0  0  0  0  0  0  0  0999 V2000
   -2.8544   27.5186    5.1934 N   0  0  0  0  0  0  0  0  0  0  0  0
   -2.3269   27.0287    6.3674 C   0  0  0  0  0  0  0  0  0  0  0  0
   -2.3507   25.8766    6.7788 O   0  0  0  0  0  0  0  0  0  0  0  0
   -2.6887   28.4945    4.9620 H   0  0  0  0  0  0  0  0  0  0  0  0
   -1.6111   28.0496    7.1720 C   0  0  0  0  0  0  0  0  0  0  0  0
   -0.2125   28.0516    7.0679 C   0  0  0  0  0  0  0  0  0  0  0  0
    0.5343   29.0048    7.7513 C   0  0  0  0  0  0  0  0  0  0  0  0
   -0.1133   29.9525    8.5420 C   0  0  0  0  0  0  0  0  0  0  0  0
   -1.5148   29.9469    8.6735 C   0  0  0  0  0  0  0  0  0  0  0  0
   -2.1800   30.8780    9.4754 C   0  0  0  0  0  0  0  0  0  0  0  0
   -3.5185   30.9195    9.6614 N   0  0  0  0  0  0  0  0  0  0  0  0
   -4.2409   29.9758    9.0304 C   0  0  0  0  0  0  0  0  0  0  0  0
   -3.6892   29.0063    8.2078 C   0  0  0  0  0  0  0  0  0  0  0  0
   -2.2931   28.9829    7.9968 C   0  0  0  0  0  0  0  0  0  0  0  0
   -4.9388   27.2320    4.0278 C   0  0  0  0  0  0  0  0  0  0  0  0
   -5.7341   26.5863    3.0745 C   0  0  0  0  0  0  0  0  0  0  0  0
   -5.2145   25.5316    2.3107 C   0  0  0  0  0  0  0  0  0  0  0  0
   -6.0584   24.8628    1.2653 C   0  0  0  0  0  0  0  0  0  0  0  0
   -3.8829   25.1471    2.4943 C   0  0  0  0  0  0  0  0  0  0  0  0
   -3.0817   25.7866    3.4436 C   0  0  0  0  0  0  0  0  0  0  0  0
   -3.5999   26.8277    4.2134 C   0  0  0  0  0  0  0  0  0  0  0  0
   -6.0987   29.3105    4.2163 C   0  0  0  0  0  0  0  0  0  0  0  0
   -5.3580   28.2659    4.8353 O   0  0  0  0  0  0  0  0  0  0  0  0
 22 23  1  0  0  0
 23 15  1  0  0  0
 15 16  1  0  0  0
 16 17  2  0  0  0
 17 18  1  0  0  0
 17 19  1  0  0  0
 19 20  2  0  0  0
 20 21  1  0  0  0
 21  1  1  0  0  0
  1  2  1  0  0  0
  2  3  2  0  0  0
  2  5  1  0  0  0
  5  6  2  0  0  0
  6  7  1  0  0  0
  7  8  2  0  0  0
  8  9  1  0  0  0
  9 10  2  0  0  0
 10 11  1  0  0  0
 11 12  2  0  0  0
 12 13  1  0  0  0
 13 14  2  0  0  0
 21 15  2  0  0  0
 14  5  1  0  0  0
 14  9  1  0  0  0
  1  4  1  0  0  0
M  END
> <minimizedAffinity>
-8.90584

$$$$
OCNT-2311975


 24 26  0  0  0  0  0  0  0  0999 V2000
   -5.2209   30.4041    7.5819 O   0  0  0  0  0  0  0  0  0  0  0  0
   -4.7004   29.7771    8.6682 C   0  0  0  0  0  0  0  0  0  0  0  0
   -5.2733   28.9523    9.3581 O   0  0  0  0  0  0  0  0  0  0  0  0
   -3.3285   30.2748    8.9068 C   0  0  0  0  0  0  0  0  0  0  0  0
   -3.1714   31.4577    9.6247 C   0  0  0  0  0  0  0  0  0  0  0  0
   -1.9778   32.0300    9.8953 N   0  0  0  0  0  0  0  0  0  0  0  0
   -0.8872   31.3898    9.4194 C   0  0  0  0  0  0  0  0  0  0  0  0
   -0.9177   30.2012    8.6851 C   0  0  0  0  0  0  0  0  0  0  0  0
    0.2671   29.5961    8.2285 C   0  0  0  0  0  0  0  0  0  0  0  0
    0.2254   28.4078    7.5027 C   0  0  0  0  0  0  0  0  0  0  0  0
   -0.9985   27.8118    7.2272 C   0  0  0  0  0  0  0  0  0  0  0  0
   -2.1823   28.4040    7.6757 C   0  0  0  0  0  0  0  0  0  0  0  0
   -2.1759   29.6149    8.4119 C   0  0  0  0  0  0  0  0  0  0  0  0
   -6.6510   30.5237    7.6018 C   0  0  0  0  0  0  0  0  0  0  0  0
   -7.2268   29.7132    6.4448 C   0  0  0  0  0  0  0  0  0  0  0  0
   -6.3362   29.6834    5.3319 O   0  0  0  0  0  0  0  0  0  0  0  0
   -5.8532   25.9309    3.5629 C   0  0  0  0  0  0  0  0  0  0  0  0
   -5.7181   27.0697    2.7642 C   0  0  0  0  0  0  0  0  0  0  0  0
   -5.8730   28.3505    3.3104 C   0  0  0  0  0  0  0  0  0  0  0  0
   -6.1552   28.5042    4.6666 C   0  0  0  0  0  0  0  0  0  0  0  0
   -6.2771   27.3656    5.4669 C   0  0  0  0  0  0  0  0  0  0  0  0
   -6.1225   26.0868    4.9232 C   0  0  0  0  0  0  0  0  0  0  0  0
   -5.5776   24.7862    1.0709 C   0  0  0  0  0  0  0  0  0  0  0  0
   -5.6339   24.3239    2.8229 S   0  0  0  0  0  0  0  0  0  0  0  0
 23 24  1  0  0  0
 24 17  1  0  0  0
 17 18  1  0  0  0
 18 19  2  0  0  0
 19 20  1  0  0  0
 20 16  1  0  0  0
 16 15  1  0  0  0
 15 14  1  0  0  0
 14  1  1  0  0  0
  1  2  1  0  0  0
  2  3  2  0  0  0
  2  4  1  0  0  0
  4  5  1  0  0  0
  5  6  2  0  0  0
  6  7  1  0  0  0
  7  8  2  0  0  0
  8  9  1  0  0  0
  9 10  2  0  0  0
 10 11  1  0  0  0
 11 12  2  0  0  0
 12 13  1  0  0  0
 20 21  2  0  0  0
 21 22  1  0  0  0
 22 17  2  0  0  0
 13  4  2  0  0  0
 13  8  1  0  0  0
M  END
> <minimizedAffinity>
-8.49381

$$$$
OCNT-2311986


 29 32  0  0  0  0  0  0  0  0999 V2000
   -3.5010   27.5120    5.3373 N   0  0  0  0  0  0  0  0  0  0  0  0
   -4.8618   27.3143    5.2144 C   0  0  0  0  0  0  0  0  0  0  0  0
   -5.7256   27.6691    6.0071 O   0  0  0  0  0  0  0  0  0  0  0  0
   -2.9275   27.1288    4.5995 H   0  0  0  0  0  0  0  0  0  0  0  0
   -2.6722   29.9610    7.8729 C   0  0  0  0  0  0  0  0  0  0  0  0
   -1.5608   29.3791    8.4776 C   0  0  0  0  0  0  0  0  0  0  0  0
   -1.0896   28.1595    8.0021 C   0  0  0  0  0  0  0  0  0  0  0  0
   -1.7430   27.5448    6.9405 C   0  0  0  0  0  0  0  0  0  0  0  0
   -2.8565   28.1654    6.3907 C   0  0  0  0  0  0  0  0  0  0  0  0
   -3.3090   29.3449    6.8438 N   0  0  0  0  0  0  0  0  0  0  0  0
   -4.9483   35.0928    9.4365 C   0  0  0  0  0  0  0  0  0  0  0  0
   -4.3809   33.7597    9.0579 C   0  0  0  0  0  0  0  0  0  0  0  0
   -3.5310   33.0679    9.9261 C   0  0  0  0  0  0  0  0  0  0  0  0
   -2.9756   31.8382    9.5497 C   0  0  0  0  0  0  0  0  0  0  0  0
   -3.2465   31.2605    8.2940 C   0  0  0  0  0  0  0  0  0  0  0  0
   -4.0869   31.9871    7.4267 C   0  0  0  0  0  0  0  0  0  0  0  0
   -4.6446   33.2155    7.7982 C   0  0  0  0  0  0  0  0  0  0  0  0
   -5.1998   26.5965    4.0074 C   0  0  0  0  0  0  0  0  0  0  0  0
   -5.5613   27.0249    2.7532 C   0  0  0  0  0  0  0  0  0  0  0  0
   -5.8052   25.9474    1.9400 N   0  0  0  0  0  0  0  0  0  0  0  0
   -5.5794   24.9018    2.7059 C   0  0  0  0  0  0  0  0  0  0  0  0
   -5.2030   25.2220    3.9842 O   0  0  0  0  0  0  0  0  0  0  0  0
   -5.6874   23.5955    2.3943 N   0  0  0  0  0  0  0  0  0  0  0  0
   -4.7238   22.6035    2.8650 C   0  0  0  0  0  0  0  0  0  0  0  0
   -5.3538   21.1915    2.8421 C   0  0  0  0  0  0  0  0  0  0  0  0
   -5.9218   20.7571    1.5478 N   0  0  0  0  0  0  0  0  0  0  0  0
   -6.1352   21.8932    0.6370 C   0  0  0  0  0  0  0  0  0  0  0  0
   -6.5972   23.2024    1.3170 C   0  0  0  0  0  0  0  0  0  0  0  0
   -6.8153   20.3024    1.7303 H   0  0  0  0  0  0  0  0  0  0  0  0
 11 12  1  0  0  0
 12 13  1  0  0  0
 13 14  2  0  0  0
 14 15  1  0  0  0
 15  5  1  0  0  0
  5  6  1  0  0  0
  6  7  2  0  0  0
  7  8  1  0  0  0
  8  9  2  0  0  0
  9  1  1  0  0  0
  1  2  1  0  0  0
  2  3  2  0  0  0
  2 18  1  0  0  0
 18 19  2  0  0  0
 19 20  1  0  0  0
 20 21  2  0  0  0
 21 23  1  0  0  0
 23 24  1  0  0  0
 24 25  1  0  0  0
 25 26  1  0  0  0
 26 27  1  0  0  0
 27 28  1  0  0  0
 21 22  1  0  0  0
  9 10  1  0  0  0
 15 16  2  0  0  0
 16 17  1  0  0  0
 17 12  2  0  0  0
 10  5  2  0  0  0
 22 18  1  0  0  0
 28 23  1  0  0  0
  1  4  1  0  0  0
 26 29  1  0  0  0
M  END
> <minimizedAffinity>
-10.07656

$$$$
OCNT-2311990


 35 38  0  0  0  0  0  0  0  0999 V2000
   -3.4119   26.1812    5.5240 O   0  0  0  0  0  0  0  0  0  0  0  0
   -2.5006   25.9824    4.7309 C   0  0  0  0  0  0  0  0  0  0  0  0
   -2.6065   25.4358    3.4701 N   0  0  0  0  0  0  0  0  0  0  0  0
   -1.1853   26.3129    5.0132 N   0  0  0  0  0  0  0  0  0  0  0  0
   -1.8552   25.6588    2.8357 H   0  0  0  0  0  0  0  0  0  0  0  0
   -0.5061   25.7580    4.5116 H   0  0  0  0  0  0  0  0  0  0  0  0
   -3.7398   24.8102    2.9119 C   0  0  0  0  0  0  0  0  0  0  0  0
   -4.3498   25.4280    1.8155 C   0  0  0  0  0  0  0  0  0  0  0  0
   -5.4617   24.8461    1.2051 C   0  0  0  0  0  0  0  0  0  0  0  0
   -5.9648   23.6317    1.6728 C   0  0  0  0  0  0  0  0  0  0  0  0
   -5.3539   22.9778    2.7504 C   0  0  0  0  0  0  0  0  0  0  0  0
   -4.2482   23.5922    3.3702 C   0  0  0  0  0  0  0  0  0  0  0  0
   -5.8524   21.6624    3.3155 C   0  0  0  0  0  0  0  0  0  0  0  0
   -6.9353   21.7754    4.2920 N   0  0  0  0  0  0  0  0  0  0  0  0
   -6.6567   22.1777    5.5827 C   0  0  0  0  0  0  0  0  0  0  0  0
   -7.6215   22.2686    6.4947 C   0  0  0  0  0  0  0  0  0  0  0  0
   -8.9603   21.9148    6.0014 C   0  0  0  0  0  0  0  0  0  0  0  0
   -9.2495   21.5354    4.8068 N   0  0  0  0  0  0  0  0  0  0  0  0
   -8.2351   21.4380    3.8817 C   0  0  0  0  0  0  0  0  0  0  0  0
   -8.4717   21.0636    2.7360 O   0  0  0  0  0  0  0  0  0  0  0  0
   -0.8199   26.8549    6.3358 C   0  0  0  0  0  0  0  0  0  0  0  0
   -2.0162   27.3461    7.1838 C   0  0  0  0  0  0  0  0  0  0  0  0
   -1.1130   28.5261    7.6438 C   0  0  0  0  0  0  0  0  0  0  0  0
   -0.3388   28.3238    6.3128 C   0  0  0  0  0  0  0  0  0  0  0  0
   -1.7244   29.9622    7.9330 C   0  0  0  0  0  0  0  0  0  0  0  0
   -2.5636   30.6480    7.0394 C   0  0  0  0  0  0  0  0  0  0  0  0
   -3.0757   31.9197    7.3247 C   0  0  0  0  0  0  0  0  0  0  0  0
   -2.7555   32.5670    8.5159 C   0  0  0  0  0  0  0  0  0  0  0  0
   -1.9298   31.9161    9.4235 C   0  0  0  0  0  0  0  0  0  0  0  0
   -1.4266   30.6404    9.1300 C   0  0  0  0  0  0  0  0  0  0  0  0
   -3.3168   33.8027    8.6648 O   0  0  0  0  0  0  0  0  0  0  0  0
   -4.6864   33.8570    9.0322 C   0  0  0  0  0  0  0  0  0  0  0  0
   -5.4612   34.1820    7.9752 F   0  0  0  0  0  0  0  0  0  0  0  0
   -4.8436   34.8120    9.9778 F   0  0  0  0  0  0  0  0  0  0  0  0
   -5.1034   32.6850    9.5552 F   0  0  0  0  0  0  0  0  0  0  0  0
  1  2  2  0  0  0
  2  3  1  0  0  0
  3  7  1  0  0  0
  7  8  1  0  0  0
  8  9  2  0  0  0
  9 10  1  0  0  0
 10 11  2  0  0  0
 11 13  1  0  0  0
 13 14  1  0  0  0
 14 15  1  0  0  0
 15 16  2  0  0  0
 16 17  1  0  0  0
 17 18  2  0  0  0
 18 19  1  0  0  0
 19 20  2  0  0  0
 11 12  1  0  0  0
  2  4  1  0  0  0
  4 21  1  0  0  0
 21 22  1  0  0  0
 22 23  1  0  0  0
 23 25  1  0  0  0
 25 26  1  0  0  0
 26 27  2  0  0  0
 27 28  1  0  0  0
 28 31  1  0  0  0
 31 32  1  0  0  0
 32 33  1  0  0  0
 32 34  1  0  0  0
 32 35  1  0  0  0
 28 29  2  0  0  0
 29 30  1  0  0  0
 23 24  1  0  0  0
 12  7  2  0  0  0
 24 21  1  0  0  0
 19 14  1  0  0  0
 30 25  2  0  0  0
  3  5  1  0  0  0
  4  6  1  0  0  0
M  END
> <minimizedAffinity>
-10.51995

$$$$
OCNT-2311994


 26 28  0  0  0  0  0  0  0  0999 V2000
   -4.2953   33.8163    9.0420 C   0  0  0  0  0  0  0  0  0  0  0  0
   -4.6613   32.4404    8.6294 C   0  0  0  0  0  0  0  0  0  0  0  0
   -5.9170   32.1798    8.2439 N   0  0  0  0  0  0  0  0  0  0  0  0
   -5.9409   30.8326    7.9237 O   0  0  0  0  0  0  0  0  0  0  0  0
   -4.7082   30.2896    8.1188 C   0  0  0  0  0  0  0  0  0  0  0  0
   -4.4210   28.9966    7.8930 N   0  0  0  0  0  0  0  0  0  0  0  0
   -3.1527   28.6580    8.1565 C   0  0  0  0  0  0  0  0  0  0  0  0
   -2.1892   29.5622    8.6031 C   0  0  0  0  0  0  0  0  0  0  0  0
   -2.5116   30.9146    8.8328 C   0  0  0  0  0  0  0  0  0  0  0  0
   -3.8467   31.2764    8.5732 C   0  0  0  0  0  0  0  0  0  0  0  0
   -1.4690   31.8806    9.3087 C   0  0  0  0  0  0  0  0  0  0  0  0
   -1.7597   32.3942   10.5346 F   0  0  0  0  0  0  0  0  0  0  0  0
   -0.2283   31.3321    9.4204 F   0  0  0  0  0  0  0  0  0  0  0  0
   -1.3323   32.9482    8.4771 F   0  0  0  0  0  0  0  0  0  0  0  0
   -2.8240   27.3229    7.9056 N   0  0  0  0  0  0  0  0  0  0  0  0
   -2.6151   26.9335    8.8284 H   0  0  0  0  0  0  0  0  0  0  0  0
   -1.6544   27.1507    7.0373 C   0  0  0  0  0  0  0  0  0  0  0  0
   -2.0862   26.7225    5.6476 C   0  0  0  0  0  0  0  0  0  0  0  0
   -3.4265   26.8446    5.2627 C   0  0  0  0  0  0  0  0  0  0  0  0
   -3.8516   26.4487    3.9862 C   0  0  0  0  0  0  0  0  0  0  0  0
   -2.8474   25.9616    3.1414 C   0  0  0  0  0  0  0  0  0  0  0  0
   -1.5374   25.8642    3.5935 C   0  0  0  0  0  0  0  0  0  0  0  0
   -1.1349   26.2269    4.8250 N   0  0  0  0  0  0  0  0  0  0  0  0
   -5.1848   26.5768    3.5727 N   0  0  0  0  0  0  0  0  0  0  0  0
   -5.9205   27.7937    3.9142 C   0  0  0  0  0  0  0  0  0  0  0  0
   -5.5933   25.9282    2.3256 C   0  0  0  0  0  0  0  0  0  0  0  0
  1  2  1  0  0  0
  2  3  2  0  0  0
  3  4  1  0  0  0
  4  5  1  0  0  0
  5  6  2  0  0  0
  6  7  1  0  0  0
  7 15  1  0  0  0
 15 17  1  0  0  0
 17 18  1  0  0  0
 18 19  2  0  0  0
 19 20  1  0  0  0
 20 24  1  0  0  0
 24 25  1  0  0  0
 24 26  1  0  0  0
 20 21  2  0  0  0
 21 22  1  0  0  0
 22 23  2  0  0  0
  7  8  2  0  0  0
  8  9  1  0  0  0
  9 11  1  0  0  0
 11 12  1  0  0  0
 11 13  1  0  0  0
 11 14  1  0  0  0
  9 10  2  0  0  0
 10  2  1  0  0  0
 10  5  1  0  0  0
 23 18  1  0  0  0
 15 16  1  0  0  0
M  END
> <minimizedAffinity>
-8.96496

$$$$
OCNT-2311998


 23 25  0  0  0  0  0  0  0  0999 V2000
    0.0020   28.3621    7.0044 C   0  0  0  0  0  0  0  0  0  0  0  0
    0.5474   29.0050    6.1121 O   0  0  0  0  0  0  0  0  0  0  0  0
   -0.5167   27.0971    6.7959 N   0  0  0  0  0  0  0  0  0  0  0  0
   -1.1008   26.6853    7.5103 H   0  0  0  0  0  0  0  0  0  0  0  0
    1.2366   29.2742    8.9863 C   0  0  0  0  0  0  0  0  0  0  0  0
   -0.1338   28.8468    8.4543 C   0  0  0  0  0  0  0  0  0  0  0  0
   -1.1824   29.9342    8.6397 C   0  0  0  0  0  0  0  0  0  0  0  0
   -0.8013   31.1986    9.1187 C   0  0  0  0  0  0  0  0  0  0  0  0
   -1.7471   32.2134    9.2872 C   0  0  0  0  0  0  0  0  0  0  0  0
   -3.0836   31.9709    8.9812 C   0  0  0  0  0  0  0  0  0  0  0  0
   -4.3633   33.3430    9.2112 Br  0  0  0  0  0  0  0  0  0  0  0  0
   -3.4833   30.7235    8.5103 C   0  0  0  0  0  0  0  0  0  0  0  0
   -2.5362   29.7106    8.3407 C   0  0  0  0  0  0  0  0  0  0  0  0
   -0.5950   26.5213    5.4721 C   0  0  0  0  0  0  0  0  0  0  0  0
   -2.0069   26.5964    4.9449 C   0  0  0  0  0  0  0  0  0  0  0  0
   -3.0090   27.2136    5.7143 C   0  0  0  0  0  0  0  0  0  0  0  0
   -4.3394   27.2809    5.2724 C   0  0  0  0  0  0  0  0  0  0  0  0
   -4.6662   26.7080    4.0325 C   0  0  0  0  0  0  0  0  0  0  0  0
   -5.8473   26.5668    3.2573 C   0  0  0  0  0  0  0  0  0  0  0  0
   -5.4849   25.8877    2.1167 C   0  0  0  0  0  0  0  0  0  0  0  0
   -4.1576   25.5973    2.1332 O   0  0  0  0  0  0  0  0  0  0  0  0
   -3.6577   26.0974    3.2974 C   0  0  0  0  0  0  0  0  0  0  0  0
   -2.3283   26.0139    3.7068 C   0  0  0  0  0  0  0  0  0  0  0  0
  5  6  1  0  0  0
  6  1  1  0  0  0
  1  2  2  0  0  0
  1  3  1  0  0  0
  3 14  1  0  0  0
 14 15  1  0  0  0
 15 16  2  0  0  0
 16 17  1  0  0  0
 17 18  2  0  0  0
 18 19  1  0  0  0
 19 20  2  0  0  0
 20 21  1  0  0  0
 21 22  1  0  0  0
 22 23  2  0  0  0
  6  7  1  0  0  0
  7  8  1  0  0  0
  8  9  2  0  0  0
  9 10  1  0  0  0
 10 11  1  0  0  0
 10 12  2  0  0  0
 12 13  1  0  0  0
 23 15  1  0  0  0
 13  7  2  0  0  0
 22 18  1  0  0  0
  3  4  1  0  0  0
M  END
> <minimizedAffinity>
-9.69136

$$$$
OCNT-2312000


 22 25  0  0  0  0  0  0  0  0999 V2000
   -2.0847   26.7415    4.6654 O   0  0  0  0  0  0  0  0  0  0  0  0
   -3.3008   26.6961    4.8613 C   0  0  0  0  0  0  0  0  0  0  0  0
   -4.0874   25.6888    4.3583 N   0  0  0  0  0  0  0  0  0  0  0  0
   -3.7387   24.8188    3.2413 C   0  0  0  0  0  0  0  0  0  0  0  0
   -5.2289   24.3913    3.2278 C   0  0  0  0  0  0  0  0  0  0  0  0
   -5.5013   25.7011    4.0159 C   0  0  0  0  0  0  0  0  0  0  0  0
   -5.9502   24.1417    1.8196 C   0  0  0  0  0  0  0  0  0  0  0  0
   -6.1114   25.1892    0.8816 C   0  0  0  0  0  0  0  0  0  0  0  0
   -6.7362   25.0050   -0.3563 C   0  0  0  0  0  0  0  0  0  0  0  0
   -7.2350   23.7572   -0.7035 C   0  0  0  0  0  0  0  0  0  0  0  0
   -7.1134   22.6991    0.1900 C   0  0  0  0  0  0  0  0  0  0  0  0
   -6.4908   22.8930    1.4316 C   0  0  0  0  0  0  0  0  0  0  0  0
   -6.4264   21.3884    2.5950 Br  0  0  0  0  0  0  0  0  0  0  0  0
   -4.0117   27.7621    5.6688 C   0  0  0  0  0  0  0  0  0  0  0  0
   -3.0917   28.3540    6.6729 C   0  0  0  0  0  0  0  0  0  0  0  0
   -2.4079   27.5682    7.5158 N   0  0  0  0  0  0  0  0  0  0  0  0
   -1.6536   28.4275    8.2967 O   0  0  0  0  0  0  0  0  0  0  0  0
   -1.8930   29.7163    7.9256 C   0  0  0  0  0  0  0  0  0  0  0  0
   -2.7960   29.7205    6.8909 C   0  0  0  0  0  0  0  0  0  0  0  0
   -1.2284   30.9394    8.6144 C   0  0  0  0  0  0  0  0  0  0  0  0
   -1.9365   31.6325    9.7491 C   0  0  0  0  0  0  0  0  0  0  0  0
   -1.7807   32.3267    8.4263 C   0  0  0  0  0  0  0  0  0  0  0  0
  1  2  2  0  0  0
  2 14  1  0  0  0
 14 15  1  0  0  0
 15 16  2  0  0  0
 16 17  1  0  0  0
 17 18  1  0  0  0
 18 20  1  0  0  0
 20 21  1  0  0  0
 21 22  1  0  0  0
 18 19  2  0  0  0
  2  3  1  0  0  0
  3  4  1  0  0  0
  4  5  1  0  0  0
  5  7  1  0  0  0
  7  8  2  0  0  0
  8  9  1  0  0  0
  9 10  2  0  0  0
 10 11  1  0  0  0
 11 12  2  0  0  0
 12 13  1  0  0  0
  5  6  1  0  0  0
 19 15  1  0  0  0
  6  3  1  0  0  0
 22 20  1  0  0  0
 12  7  1  0  0  0
M  END
> <minimizedAffinity>
-8.99875

$$$$
OCNT-2312008


 25 27  0  0  0  0  0  0  0  0999 V2000
   -5.7909   27.4070    3.4840 C   0  0  0  0  0  0  0  0  0  0  0  0
   -5.7306   27.0623    4.8426 C   0  0  0  0  0  0  0  0  0  0  0  0
   -5.8395   28.0314    5.8442 C   0  0  0  0  0  0  0  0  0  0  0  0
   -6.0587   29.3608    5.4987 C   0  0  0  0  0  0  0  0  0  0  0  0
   -6.1413   29.7256    4.1561 C   0  0  0  0  0  0  0  0  0  0  0  0
   -6.0301   28.7480    3.1606 C   0  0  0  0  0  0  0  0  0  0  0  0
   -5.7285   26.3919    2.5264 N   0  0  0  0  0  0  0  0  0  0  0  0
   -6.6319   26.2313    2.0766 H   0  0  0  0  0  0  0  0  0  0  0  0
   -5.0986   25.1065    2.8597 C   0  0  0  0  0  0  0  0  0  0  0  0
   -5.9674   23.9103    2.3635 C   0  0  0  0  0  0  0  0  0  0  0  0
   -5.1180   22.6202    2.3502 C   0  0  0  0  0  0  0  0  0  0  0  0
   -5.8634   21.4780    1.6701 C   0  0  0  0  0  0  0  0  0  0  0  0
   -6.2420   21.8447    0.3437 O   0  0  0  0  0  0  0  0  0  0  0  0
   -7.1395   22.9526    0.3398 C   0  0  0  0  0  0  0  0  0  0  0  0
   -6.4580   24.1807    0.9269 C   0  0  0  0  0  0  0  0  0  0  0  0
   -6.7465   23.5549    4.6575 C   0  0  0  0  0  0  0  0  0  0  0  0
   -7.0613   23.6436    3.2744 O   0  0  0  0  0  0  0  0  0  0  0  0
   -6.1293   30.2753    6.5232 O   0  0  0  0  0  0  0  0  0  0  0  0
   -4.9481   30.6360    7.1312 C   0  0  0  0  0  0  0  0  0  0  0  0
   -4.8609   30.4311    8.5094 C   0  0  0  0  0  0  0  0  0  0  0  0
   -3.7049   30.8048    9.1976 C   0  0  0  0  0  0  0  0  0  0  0  0
   -2.6486   31.3959    8.5046 C   0  0  0  0  0  0  0  0  0  0  0  0
   -1.2238   31.8567    9.3521 Cl  0  0  0  0  0  0  0  0  0  0  0  0
   -2.7407   31.6228    7.1315 C   0  0  0  0  0  0  0  0  0  0  0  0
   -3.8971   31.2493    6.4427 C   0  0  0  0  0  0  0  0  0  0  0  0
 16 17  1  0  0  0
 17 10  1  0  0  0
 10  9  1  0  0  0
  9  7  1  0  0  0
  7  1  1  0  0  0
  1  2  1  0  0  0
  2  3  2  0  0  0
  3  4  1  0  0  0
  4 18  1  0  0  0
 18 19  1  0  0  0
 19 20  1  0  0  0
 20 21  2  0  0  0
 21 22  1  0  0  0
 22 23  1  0  0  0
 22 24  2  0  0  0
 24 25  1  0  0  0
  4  5  2  0  0  0
  5  6  1  0  0  0
 10 11  1  0  0  0
 11 12  1  0  0  0
 12 13  1  0  0  0
 13 14  1  0  0  0
 14 15  1  0  0  0
 15 10  1  0  0  0
  6  1  2  0  0  0
 25 19  2  0  0  0
  7  8  1  0  0  0
M  END
> <minimizedAffinity>
-8.54993

$$$$
OCNT-2312014


 25 27  0  0  0  0  0  0  0  0999 V2000
   -5.5889   29.3025    5.4935 C   0  0  0  0  0  0  0  0  0  0  0  0
   -6.5800   29.7539    6.0537 O   0  0  0  0  0  0  0  0  0  0  0  0
   -4.3306   29.8577    5.6082 N   0  0  0  0  0  0  0  0  0  0  0  0
   -3.5315   29.3291    5.2865 H   0  0  0  0  0  0  0  0  0  0  0  0
   -5.9087   25.6584    3.1916 C   0  0  0  0  0  0  0  0  0  0  0  0
   -5.7699   26.9027    2.5485 C   0  0  0  0  0  0  0  0  0  0  0  0
   -5.6686   28.0962    3.2742 C   0  0  0  0  0  0  0  0  0  0  0  0
   -5.6946   28.0664    4.6706 C   0  0  0  0  0  0  0  0  0  0  0  0
   -5.8479   26.8413    5.3267 C   0  0  0  0  0  0  0  0  0  0  0  0
   -5.9485   25.6503    4.5953 C   0  0  0  0  0  0  0  0  0  0  0  0
   -7.1599   22.9061   -0.6978 C   0  0  0  0  0  0  0  0  0  0  0  0
   -6.5424   23.1325    0.6328 C   0  0  0  0  0  0  0  0  0  0  0  0
   -5.9030   22.1970    1.4189 C   0  0  0  0  0  0  0  0  0  0  0  0
   -5.3582   22.9221    2.8679 S   0  0  0  0  0  0  0  0  0  0  0  0
   -6.0066   24.4387    2.3612 C   0  0  0  0  0  0  0  0  0  0  0  0
   -6.5969   24.4036    1.1792 N   0  0  0  0  0  0  0  0  0  0  0  0
   -4.0902   31.0110    6.4605 C   0  0  0  0  0  0  0  0  0  0  0  0
   -2.6093   31.2094    6.8384 C   0  0  0  0  0  0  0  0  0  0  0  0
   -2.4391   32.1611    8.0269 C   0  0  0  0  0  0  0  0  0  0  0  0
   -1.9521   29.8861    7.1217 C   0  0  0  0  0  0  0  0  0  0  0  0
   -2.5111   28.8527    7.7180 N   0  0  0  0  0  0  0  0  0  0  0  0
   -1.5526   27.8758    7.7615 C   0  0  0  0  0  0  0  0  0  0  0  0
   -0.3896   28.3128    7.1782 C   0  0  0  0  0  0  0  0  0  0  0  0
   -0.6547   29.5903    6.7718 N   0  0  0  0  0  0  0  0  0  0  0  0
   -0.0143   30.2075    6.2929 H   0  0  0  0  0  0  0  0  0  0  0  0
 11 12  1  0  0  0
 12 13  2  0  0  0
 13 14  1  0  0  0
 14 15  1  0  0  0
 15  5  1  0  0  0
  5  6  1  0  0  0
  6  7  2  0  0  0
  7  8  1  0  0  0
  8  1  1  0  0  0
  1  2  2  0  0  0
  1  3  1  0  0  0
  3 17  1  0  0  0
 17 18  1  0  0  0
 18 19  1  0  0  0
 18 20  1  0  0  0
 20 21  2  0  0  0
 21 22  1  0  0  0
 22 23  2  0  0  0
 23 24  1  0  0  0
  8  9  2  0  0  0
  9 10  1  0  0  0
 15 16  2  0  0  0
 16 12  1  0  0  0
 10  5  2  0  0  0
 24 20  1  0  0  0
  3  4  1  0  0  0
 24 25  1  0  0  0
M  END
> <minimizedAffinity>
-8.76705

$$$$
OCNT-2312015


 24 26  0  0  0  0  0  0  0  0999 V2000
   -4.8541   27.2107    5.6396 N   0  0  0  0  0  0  0  0  0  0  0  0
   -3.7956   26.3031    5.1463 C   0  0  0  0  0  0  0  0  0  0  0  0
   -3.5067   26.4175    3.6310 C   0  0  0  0  0  0  0  0  0  0  0  0
   -4.6924   26.2429    2.7650 N   0  0  0  0  0  0  0  0  0  0  0  0
   -5.7743   27.1261    3.2535 C   0  0  0  0  0  0  0  0  0  0  0  0
   -6.0457   27.0586    4.7794 C   0  0  0  0  0  0  0  0  0  0  0  0
   -4.3671   28.6060    5.7109 C   0  0  0  0  0  0  0  0  0  0  0  0
   -4.6498   29.3097    7.0524 C   0  0  0  0  0  0  0  0  0  0  0  0
   -3.8148   28.7560    8.0831 O   0  0  0  0  0  0  0  0  0  0  0  0
   -1.5183   29.4877    8.2835 C   0  0  0  0  0  0  0  0  0  0  0  0
   -0.6124   30.4326    8.7835 C   0  0  0  0  0  0  0  0  0  0  0  0
   -1.0714   31.5283    9.5194 C   0  0  0  0  0  0  0  0  0  0  0  0
   -2.4355   31.6823    9.7657 C   0  0  0  0  0  0  0  0  0  0  0  0
   -3.3431   30.7463    9.2711 C   0  0  0  0  0  0  0  0  0  0  0  0
   -2.8862   29.6640    8.5168 C   0  0  0  0  0  0  0  0  0  0  0  0
   -0.5983   27.4666    6.9433 N   0  0  0  0  0  0  0  0  0  0  0  0
   -1.0276   28.3650    7.5408 C   0  0  0  0  0  0  0  0  0  0  0  0
   -5.1142   24.8326    2.6955 C   0  0  0  0  0  0  0  0  0  0  0  0
   -6.1889   24.5816    1.6176 C   0  0  0  0  0  0  0  0  0  0  0  0
   -5.8887   25.2370    0.2683 C   0  0  0  0  0  0  0  0  0  0  0  0
   -7.0558   25.0412   -0.7018 C   0  0  0  0  0  0  0  0  0  0  0  0
   -7.8407   23.8801   -0.4214 O   0  0  0  0  0  0  0  0  0  0  0  0
   -7.0495   22.7868    0.0304 C   0  0  0  0  0  0  0  0  0  0  0  0
   -6.4815   23.0824    1.4160 C   0  0  0  0  0  0  0  0  0  0  0  0
 16 17  3  0  0  0
 17 10  1  0  0  0
 10 11  2  0  0  0
 11 12  1  0  0  0
 12 13  2  0  0  0
 13 14  1  0  0  0
 14 15  2  0  0  0
 15  9  1  0  0  0
  9  8  1  0  0  0
  8  7  1  0  0  0
  7  1  1  0  0  0
  1  2  1  0  0  0
  2  3  1  0  0  0
  3  4  1  0  0  0
  4 18  1  0  0  0
 18 19  1  0  0  0
 19 20  1  0  0  0
 20 21  1  0  0  0
 21 22  1  0  0  0
 22 23  1  0  0  0
 23 24  1  0  0  0
  4  5  1  0  0  0
  5  6  1  0  0  0
 15 10  1  0  0  0
  6  1  1  0  0  0
 24 19  1  0  0  0
M  END
> <minimizedAffinity>
-8.26529

$$$$
OCNT-2312016


 28 31  0  0  0  0  0  0  0  0999 V2000
   -3.7556   26.7641    4.5639 C   0  0  0  0  0  0  0  0  0  0  0  0
   -3.1637   27.6521    5.5571 N   0  0  0  0  0  0  0  0  0  0  0  0
   -2.3314   27.1793    6.5484 C   0  0  0  0  0  0  0  0  0  0  0  0
   -2.0751   25.9985    6.7393 O   0  0  0  0  0  0  0  0  0  0  0  0
   -3.2312   28.6499    5.3962 H   0  0  0  0  0  0  0  0  0  0  0  0
   -1.6594   28.2125    7.3644 C   0  0  0  0  0  0  0  0  0  0  0  0
   -0.2667   28.2114    7.3381 C   0  0  0  0  0  0  0  0  0  0  0  0
    0.3829   29.1975    8.0447 C   0  0  0  0  0  0  0  0  0  0  0  0
   -0.2565   30.1532    8.7531 N   0  0  0  0  0  0  0  0  0  0  0  0
   -1.6004   30.1306    8.8049 C   0  0  0  0  0  0  0  0  0  0  0  0
   -2.2482   31.0949    9.5547 C   0  0  0  0  0  0  0  0  0  0  0  0
   -3.6280   31.0833    9.6370 C   0  0  0  0  0  0  0  0  0  0  0  0
   -4.3993   30.1659    9.0268 N   0  0  0  0  0  0  0  0  0  0  0  0
   -3.7555   29.2237    8.3045 C   0  0  0  0  0  0  0  0  0  0  0  0
   -2.3646   29.1652    8.1322 C   0  0  0  0  0  0  0  0  0  0  0  0
   -5.4339   28.3165    3.4559 C   0  0  0  0  0  0  0  0  0  0  0  0
   -5.2753   27.0110    4.2780 C   0  0  0  0  0  0  0  0  0  0  0  0
   -6.0317   27.2494    5.6094 C   0  0  0  0  0  0  0  0  0  0  0  0
   -5.9386   25.8725    3.5612 N   0  0  0  0  0  0  0  0  0  0  0  0
   -5.5998   24.5376    4.0900 C   0  0  0  0  0  0  0  0  0  0  0  0
   -6.5884   23.4829    3.5749 C   0  0  0  0  0  0  0  0  0  0  0  0
   -6.7285   23.5231    2.0777 C   0  0  0  0  0  0  0  0  0  0  0  0
   -7.2723   22.4318    1.3874 C   0  0  0  0  0  0  0  0  0  0  0  0
   -7.4277   22.4815    0.0028 C   0  0  0  0  0  0  0  0  0  0  0  0
   -7.0481   23.6225   -0.6996 C   0  0  0  0  0  0  0  0  0  0  0  0
   -6.5170   24.7174   -0.0170 C   0  0  0  0  0  0  0  0  0  0  0  0
   -6.3634   24.6840    1.3778 C   0  0  0  0  0  0  0  0  0  0  0  0
   -5.7559   25.8760    2.0936 C   0  0  0  0  0  0  0  0  0  0  0  0
 16 17  1  0  0  0
 17 18  1  0  0  0
 17  1  1  0  0  0
  1  2  1  0  0  0
  2  3  1  0  0  0
  3  4  2  0  0  0
  3  6  1  0  0  0
  6  7  2  0  0  0
  7  8  1  0  0  0
  8  9  2  0  0  0
  9 10  1  0  0  0
 10 11  2  0  0  0
 11 12  1  0  0  0
 12 13  2  0  0  0
 13 14  1  0  0  0
 14 15  2  0  0  0
 17 19  1  0  0  0
 19 20  1  0  0  0
 20 21  1  0  0  0
 21 22  1  0  0  0
 22 23  2  0  0  0
 23 24  1  0  0  0
 24 25  2  0  0  0
 25 26  1  0  0  0
 26 27  2  0  0  0
 27 28  1  0  0  0
 15  6  1  0  0  0
 28 19  1  0  0  0
 15 10  1  0  0  0
 27 22  1  0  0  0
  2  5  1  0  0  0
M  END
> <minimizedAffinity>
-10.54248

$$$$
OCNT-2312020


 27 30  0  0  0  0  0  0  0  0999 V2000
   -6.1936   29.5790    3.8678 O   0  0  0  0  0  0  0  0  0  0  0  0
   -6.2988   28.6130    4.6137 C   0  0  0  0  0  0  0  0  0  0  0  0
   -6.6911   28.7062    5.9309 N   0  0  0  0  0  0  0  0  0  0  0  0
   -6.8877   27.8696    6.4628 H   0  0  0  0  0  0  0  0  0  0  0  0
   -6.0159   27.2459    4.0997 C   0  0  0  0  0  0  0  0  0  0  0  0
   -6.0720   26.1805    5.0081 C   0  0  0  0  0  0  0  0  0  0  0  0
   -5.8254   24.8723    4.5896 C   0  0  0  0  0  0  0  0  0  0  0  0
   -5.8826   23.5669    5.7011 Cl  0  0  0  0  0  0  0  0  0  0  0  0
   -5.5332   24.6652    3.2414 C   0  0  0  0  0  0  0  0  0  0  0  0
   -5.2551   23.5280    2.5301 N   0  0  0  0  0  0  0  0  0  0  0  0
   -5.0320   23.7431    1.2211 N   0  0  0  0  0  0  0  0  0  0  0  0
   -5.1789   25.0637    1.0915 C   0  0  0  0  0  0  0  0  0  0  0  0
   -5.4859   25.7004    2.3147 C   0  0  0  0  0  0  0  0  0  0  0  0
   -5.7349   27.0183    2.7397 C   0  0  0  0  0  0  0  0  0  0  0  0
   -5.2064   22.5776    2.8824 H   0  0  0  0  0  0  0  0  0  0  0  0
   -7.0347   29.9798    6.5440 C   0  0  0  0  0  0  0  0  0  0  0  0
   -6.0119   30.4351    7.6092 C   0  0  0  0  0  0  0  0  0  0  0  0
   -4.5981   29.8922    7.3100 C   0  0  0  0  0  0  0  0  0  0  0  0
   -3.5305   30.5464    8.1561 C   0  0  0  0  0  0  0  0  0  0  0  0
   -2.2455   29.9899    8.2103 C   0  0  0  0  0  0  0  0  0  0  0  0
   -1.2452   30.5998    8.9661 C   0  0  0  0  0  0  0  0  0  0  0  0
   -1.5191   31.7706    9.6689 C   0  0  0  0  0  0  0  0  0  0  0  0
   -2.7929   32.3373    9.6125 C   0  0  0  0  0  0  0  0  0  0  0  0
   -3.8045   31.7404    8.8464 C   0  0  0  0  0  0  0  0  0  0  0  0
   -5.1865   32.3471    8.8231 C   0  0  0  0  0  0  0  0  0  0  0  0
   -5.9969   31.9139    7.6769 N   0  0  0  0  0  0  0  0  0  0  0  0
   -5.5467   32.2701    6.8318 H   0  0  0  0  0  0  0  0  0  0  0  0
  1  2  2  0  0  0
  2  3  1  0  0  0
  3 16  1  0  0  0
 16 17  1  0  0  0
 17 18  1  0  0  0
 18 19  1  0  0  0
 19 20  2  0  0  0
 20 21  1  0  0  0
 21 22  2  0  0  0
 22 23  1  0  0  0
 23 24  2  0  0  0
 24 25  1  0  0  0
 25 26  1  0  0  0
  2  5  1  0  0  0
  5  6  2  0  0  0
  6  7  1  0  0  0
  7  8  1  0  0  0
  7  9  2  0  0  0
  9 10  1  0  0  0
 10 11  1  0  0  0
 11 12  2  0  0  0
 12 13  1  0  0  0
 13 14  2  0  0  0
 26 17  1  0  0  0
 14  5  1  0  0  0
 24 19  1  0  0  0
 13  9  1  0  0  0
  3  4  1  0  0  0
 26 27  1  0  0  0
 10 15  1  0  0  0
M  END
> <minimizedAffinity>
-10.17595

$$$$
OCNT-2312021


 24 27  0  0  0  0  0  0  0  0999 V2000
   -5.0532   26.8317    3.4674 N   0  0  0  0  0  0  0  0  0  0  0  0
   -5.7364   27.7369    4.2814 C   0  0  0  0  0  0  0  0  0  0  0  0
   -6.1665   27.3188    5.4934 N   0  0  0  0  0  0  0  0  0  0  0  0
   -6.8100   28.2116    6.2828 C   0  0  0  0  0  0  0  0  0  0  0  0
   -7.0204   29.5136    5.9237 C   0  0  0  0  0  0  0  0  0  0  0  0
   -7.6537   30.3828    6.7140 F   0  0  0  0  0  0  0  0  0  0  0  0
   -6.5336   29.8714    4.6970 C   0  0  0  0  0  0  0  0  0  0  0  0
   -5.8942   29.0099    3.8716 N   0  0  0  0  0  0  0  0  0  0  0  0
   -4.3369   25.8009    4.2364 C   0  0  0  0  0  0  0  0  0  0  0  0
    0.5004   26.1875    3.8101 C   0  0  0  0  0  0  0  0  0  0  0  0
   -0.7900   26.2193    4.4575 N   0  0  0  0  0  0  0  0  0  0  0  0
   -1.0403   26.4519    5.7800 C   0  0  0  0  0  0  0  0  0  0  0  0
   -2.3998   26.3267    5.9344 C   0  0  0  0  0  0  0  0  0  0  0  0
   -2.8952   26.0370    4.6351 C   0  0  0  0  0  0  0  0  0  0  0  0
   -1.9008   26.0055    3.7301 N   0  0  0  0  0  0  0  0  0  0  0  0
   -5.7694   26.3999    2.2654 C   0  0  0  0  0  0  0  0  0  0  0  0
   -5.8743   24.9030    2.2438 C   0  0  0  0  0  0  0  0  0  0  0  0
   -4.9212   24.1654    1.3745 C   0  0  0  0  0  0  0  0  0  0  0  0
   -4.0338   24.8470    0.5742 F   0  0  0  0  0  0  0  0  0  0  0  0
   -4.2752   23.0478    1.8477 F   0  0  0  0  0  0  0  0  0  0  0  0
   -6.3581   24.1232    1.0495 C   0  0  0  0  0  0  0  0  0  0  0  0
   -6.9919   24.6136   -0.1959 C   0  0  0  0  0  0  0  0  0  0  0  0
   -7.3685   23.1350   -0.4295 C   0  0  0  0  0  0  0  0  0  0  0  0
   -7.2205   22.9191    1.0887 C   0  0  0  0  0  0  0  0  0  0  0  0
 10 11  1  0  0  0
 11 12  1  0  0  0
 12 13  2  0  0  0
 13 14  1  0  0  0
 14  9  1  0  0  0
  9  1  1  0  0  0
  1 16  1  0  0  0
 16 17  1  0  0  0
 17 18  1  0  0  0
 18 19  1  0  0  0
 18 20  1  0  0  0
 18 21  1  0  0  0
 21 22  1  0  0  0
 22 23  1  0  0  0
 23 24  1  0  0  0
  1  2  1  0  0  0
  2  3  2  0  0  0
  3  4  1  0  0  0
  4  5  2  0  0  0
  5  6  1  0  0  0
  5  7  1  0  0  0
  7  8  2  0  0  0
 14 15  2  0  0  0
 15 11  1  0  0  0
 21 17  1  0  0  0
  8  2  1  0  0  0
 24 21  1  0  0  0
M  END
> <minimizedAffinity>
-8.85639

$$$$
OCNT-2312024


 26 30  0  0  0  0  0  0  0  0999 V2000
   -5.2952   26.4449    5.0081 C   0  0  0  0  0  0  0  0  0  0  0  0
   -6.5291   26.4024    4.9724 O   0  0  0  0  0  0  0  0  0  0  0  0
   -4.4874   25.3240    4.7268 N   0  0  0  0  0  0  0  0  0  0  0  0
   -3.3258   25.5670    3.8503 C   0  0  0  0  0  0  0  0  0  0  0  0
   -3.7588   25.7315    2.3705 C   0  0  0  0  0  0  0  0  0  0  0  0
   -4.9674   24.8835    2.0610 C   0  0  0  0  0  0  0  0  0  0  0  0
   -5.6695   24.1295    2.9981 C   0  0  0  0  0  0  0  0  0  0  0  0
   -6.8556   23.5879    2.4060 C   0  0  0  0  0  0  0  0  0  0  0  0
   -6.9638   23.8896    1.0649 C   0  0  0  0  0  0  0  0  0  0  0  0
   -5.6640   24.8508    0.5114 S   0  0  0  0  0  0  0  0  0  0  0  0
   -5.1223   24.0266    4.4117 C   0  0  0  0  0  0  0  0  0  0  0  0
   -2.7217   30.1656    8.2848 C   0  0  0  0  0  0  0  0  0  0  0  0
   -3.1904   30.2039    6.7981 C   0  0  0  0  0  0  0  0  0  0  0  0
   -3.9405   28.9190    7.0689 C   0  0  0  0  0  0  0  0  0  0  0  0
   -3.8499   29.1248    8.5581 C   0  0  0  0  0  0  0  0  0  0  0  0
   -5.2768   28.7011    6.4132 C   0  0  0  0  0  0  0  0  0  0  0  0
   -4.5461   27.7467    5.4076 C   0  0  0  0  0  0  0  0  0  0  0  0
   -3.4023   27.6403    6.4705 C   0  0  0  0  0  0  0  0  0  0  0  0
   -0.2893   29.2871    8.6438 N   0  0  0  0  0  0  0  0  0  0  0  0
   -1.3698   29.6807    8.4902 C   0  0  0  0  0  0  0  0  0  0  0  0
   -6.0510   23.3235    5.3886 C   0  0  0  0  0  0  0  0  0  0  0  0
   -7.4328   23.5496    5.4670 C   0  0  0  0  0  0  0  0  0  0  0  0
   -8.2245   22.9145    6.4317 C   0  0  0  0  0  0  0  0  0  0  0  0
   -7.6476   22.0577    7.3628 C   0  0  0  0  0  0  0  0  0  0  0  0
   -6.2754   21.8444    7.3394 C   0  0  0  0  0  0  0  0  0  0  0  0
   -5.4890   22.4786    6.3737 C   0  0  0  0  0  0  0  0  0  0  0  0
 19 20  3  0  0  0
 20 12  1  0  0  0
 12 13  1  0  0  0
 13 14  1  0  0  0
 14 15  1  0  0  0
 14 16  1  0  0  0
 16 17  1  0  0  0
 17  1  1  0  0  0
  1  2  2  0  0  0
  1  3  1  0  0  0
  3  4  1  0  0  0
  4  5  1  0  0  0
  5  6  1  0  0  0
  6  7  2  0  0  0
  7  8  1  0  0  0
  8  9  2  0  0  0
  9 10  1  0  0  0
  7 11  1  0  0  0
 11 21  1  0  0  0
 21 22  2  0  0  0
 22 23  1  0  0  0
 23 24  2  0  0  0
 24 25  1  0  0  0
 25 26  2  0  0  0
 17 18  1  0  0  0
 15 12  1  0  0  0
 11  3  1  0  0  0
 26 21  1  0  0  0
 18 14  1  0  0  0
 10  6  1  0  0  0
M  END
> <minimizedAffinity>
-9.19737

$$$$
OCNT-2312038


 25 27  0  0  0  0  0  0  0  0999 V2000
   -2.8999   26.0403    5.5751 O   0  0  0  0  0  0  0  0  0  0  0  0
   -3.7276   26.9229    5.3693 C   0  0  0  0  0  0  0  0  0  0  0  0
   -3.9113   27.9249    6.2926 N   0  0  0  0  0  0  0  0  0  0  0  0
   -5.1962   28.6221    6.3924 C   0  0  0  0  0  0  0  0  0  0  0  0
   -5.7800   28.9826    5.0098 C   0  0  0  0  0  0  0  0  0  0  0  0
   -6.7179   29.7543    4.8371 O   0  0  0  0  0  0  0  0  0  0  0  0
   -5.2855   28.2524    3.9523 N   0  0  0  0  0  0  0  0  0  0  0  0
   -4.7115   26.9277    4.1803 C   0  0  0  0  0  0  0  0  0  0  0  0
   -3.3445   27.8069    7.1242 H   0  0  0  0  0  0  0  0  0  0  0  0
   -5.8059   28.4207    3.1004 H   0  0  0  0  0  0  0  0  0  0  0  0
   -5.1359   29.8507    7.3071 C   0  0  0  0  0  0  0  0  0  0  0  0
   -3.7604   30.4475    7.3764 C   0  0  0  0  0  0  0  0  0  0  0  0
   -3.1244   30.9663    6.3486 N   0  0  0  0  0  0  0  0  0  0  0  0
   -1.8788   31.4108    6.7419 C   0  0  0  0  0  0  0  0  0  0  0  0
   -1.5782   31.2325    8.0739 C   0  0  0  0  0  0  0  0  0  0  0  0
   -2.8984   30.4839    8.8679 S   0  0  0  0  0  0  0  0  0  0  0  0
   -4.0704   26.3345    2.9128 C   0  0  0  0  0  0  0  0  0  0  0  0
   -4.7922   25.1354    2.3333 C   0  0  0  0  0  0  0  0  0  0  0  0
   -4.5897   23.8525    2.8636 C   0  0  0  0  0  0  0  0  0  0  0  0
   -5.2724   22.7542    2.3358 C   0  0  0  0  0  0  0  0  0  0  0  0
   -5.0088   21.1894    3.0028 Cl  0  0  0  0  0  0  0  0  0  0  0  0
   -6.1613   22.9108    1.2771 C   0  0  0  0  0  0  0  0  0  0  0  0
   -6.3631   24.1805    0.7449 C   0  0  0  0  0  0  0  0  0  0  0  0
   -7.4592   24.3889   -0.5658 Cl  0  0  0  0  0  0  0  0  0  0  0  0
   -5.6859   25.2868    1.2625 C   0  0  0  0  0  0  0  0  0  0  0  0
  1  2  2  0  0  0
  2  3  1  0  0  0
  3  4  1  0  0  0
  4 11  1  0  0  0
 11 12  1  0  0  0
 12 13  2  0  0  0
 13 14  1  0  0  0
 14 15  2  0  0  0
 15 16  1  0  0  0
  4  5  1  0  0  0
  5  6  2  0  0  0
  5  7  1  0  0  0
  7  8  1  0  0  0
  8 17  1  0  0  0
 17 18  1  0  0  0
 18 19  2  0  0  0
 19 20  1  0  0  0
 20 21  1  0  0  0
 20 22  2  0  0  0
 22 23  1  0  0  0
 23 24  1  0  0  0
 23 25  2  0  0  0
  8  2  1  0  0  0
 25 18  1  0  0  0
 16 12  1  0  0  0
  3  9  1  0  0  0
  7 10  1  0  0  0
M  END
> <minimizedAffinity>
-8.74038

$$$$
OCNT-2312044


 22 24  0  0  0  0  0  0  0  0999 V2000
   -2.2627   26.2505    4.2658 C   0  0  0  0  0  0  0  0  0  0  0  0
   -3.0976   25.8367    3.2400 C   0  0  0  0  0  0  0  0  0  0  0  0
   -4.4389   26.2189    3.2864 C   0  0  0  0  0  0  0  0  0  0  0  0
   -4.8718   26.9906    4.3715 C   0  0  0  0  0  0  0  0  0  0  0  0
   -3.9719   27.3767    5.3654 C   0  0  0  0  0  0  0  0  0  0  0  0
   -2.6773   27.0050    5.3116 N   0  0  0  0  0  0  0  0  0  0  0  0
   -4.4489   28.1550    6.4474 N   0  0  0  0  0  0  0  0  0  0  0  0
   -5.8894   28.4142    6.2870 C   0  0  0  0  0  0  0  0  0  0  0  0
   -6.5158   29.0792    7.5122 C   0  0  0  0  0  0  0  0  0  0  0  0
   -6.1571   30.5615    7.6276 C   0  0  0  0  0  0  0  0  0  0  0  0
   -4.8909   30.8770    8.2946 N   0  0  0  0  0  0  0  0  0  0  0  0
   -3.8003   29.9110    8.0904 C   0  0  0  0  0  0  0  0  0  0  0  0
   -3.6109   29.3553    6.6657 C   0  0  0  0  0  0  0  0  0  0  0  0
   -4.4744   32.2696    8.0501 C   0  0  0  0  0  0  0  0  0  0  0  0
   -4.4217   33.2351    9.2036 C   0  0  0  0  0  0  0  0  0  0  0  0
   -3.1488   32.7433    8.5828 C   0  0  0  0  0  0  0  0  0  0  0  0
   -5.4110   25.7795    2.2265 C   0  0  0  0  0  0  0  0  0  0  0  0
   -6.2682   24.8167    2.6644 F   0  0  0  0  0  0  0  0  0  0  0  0
   -4.7999   25.2622    1.1261 F   0  0  0  0  0  0  0  0  0  0  0  0
   -6.1888   26.8028    1.7838 F   0  0  0  0  0  0  0  0  0  0  0  0
    0.2510   25.5920    4.2322 N   0  0  0  0  0  0  0  0  0  0  0  0
   -0.8721   25.8883    4.2710 C   0  0  0  0  0  0  0  0  0  0  0  0
 21 22  3  0  0  0
 22  1  1  0  0  0
  1  2  1  0  0  0
  2  3  2  0  0  0
  3 17  1  0  0  0
 17 18  1  0  0  0
 17 19  1  0  0  0
 17 20  1  0  0  0
  3  4  1  0  0  0
  4  5  2  0  0  0
  5  7  1  0  0  0
  7  8  1  0  0  0
  8  9  1  0  0  0
  9 10  1  0  0  0
 10 11  1  0  0  0
 11 14  1  0  0  0
 14 15  1  0  0  0
 15 16  1  0  0  0
 11 12  1  0  0  0
 12 13  1  0  0  0
  5  6  1  0  0  0
  6  1  2  0  0  0
 13  7  1  0  0  0
 16 14  1  0  0  0
M  END
> <minimizedAffinity>
-7.80494

$$$$
OCNT-2312049


 24 26  0  0  0  0  0  0  0  0999 V2000
   -4.4705   25.9718    3.7160 N   0  0  0  0  0  0  0  0  0  0  0  0
   -6.5528   24.2326    1.3585 C   0  0  0  0  0  0  0  0  0  0  0  0
   -7.1971   23.2850    2.0525 N   0  0  0  0  0  0  0  0  0  0  0  0
   -6.9091   23.2364    3.3591 C   0  0  0  0  0  0  0  0  0  0  0  0
   -6.0169   24.0845    3.9805 C   0  0  0  0  0  0  0  0  0  0  0  0
   -5.3804   25.0348    3.2022 C   0  0  0  0  0  0  0  0  0  0  0  0
   -5.6635   25.0977    1.8840 N   0  0  0  0  0  0  0  0  0  0  0  0
   -7.2624   23.0217   -0.7034 C   0  0  0  0  0  0  0  0  0  0  0  0
   -6.8627   24.3607   -0.1062 C   0  0  0  0  0  0  0  0  0  0  0  0
   -3.8486   25.5116    4.9803 C   0  0  0  0  0  0  0  0  0  0  0  0
   -2.5810   26.1901    5.4044 C   0  0  0  0  0  0  0  0  0  0  0  0
   -2.3432   27.0183    6.4811 C   0  0  0  0  0  0  0  0  0  0  0  0
   -1.0324   27.3620    6.3522 N   0  0  0  0  0  0  0  0  0  0  0  0
   -0.4804   26.7846    5.2697 N   0  0  0  0  0  0  0  0  0  0  0  0
   -1.4225   26.0618    4.6794 N   0  0  0  0  0  0  0  0  0  0  0  0
   -0.2560   28.2386    7.2143 C   0  0  0  0  0  0  0  0  0  0  0  0
    0.5112   29.2854    6.4076 C   0  0  0  0  0  0  0  0  0  0  0  0
   -1.1317   28.8913    8.2830 C   0  0  0  0  0  0  0  0  0  0  0  0
   -4.7464   27.4149    3.5893 C   0  0  0  0  0  0  0  0  0  0  0  0
   -6.0521   27.9234    4.2382 C   0  0  0  0  0  0  0  0  0  0  0  0
   -6.3509   27.5041    5.6474 C   0  0  0  0  0  0  0  0  0  0  0  0
   -6.9121   28.4968    6.3466 C   0  0  0  0  0  0  0  0  0  0  0  0
   -7.0665   29.7358    5.5278 C   0  0  0  0  0  0  0  0  0  0  0  0
   -6.1870   29.4532    4.3079 C   0  0  0  0  0  0  0  0  0  0  0  0
  8  9  1  0  0  0
  9  2  1  0  0  0
  2  3  2  0  0  0
  3  4  1  0  0  0
  4  5  2  0  0  0
  5  6  1  0  0  0
  6  1  1  0  0  0
  1 10  1  0  0  0
 10 11  1  0  0  0
 11 12  2  0  0  0
 12 13  1  0  0  0
 13 16  1  0  0  0
 16 17  1  0  0  0
 16 18  1  0  0  0
 13 14  1  0  0  0
 14 15  2  0  0  0
  1 19  1  0  0  0
 19 20  1  0  0  0
 20 21  1  0  0  0
 21 22  2  0  0  0
 22 23  1  0  0  0
 23 24  1  0  0  0
  6  7  2  0  0  0
  7  2  1  0  0  0
 15 11  1  0  0  0
 24 20  1  0  0  0
M  END
> <minimizedAffinity>
-8.38255

$$$$
OCNT-2312062


 29 33  0  0  0  0  0  0  0  0999 V2000
   -4.2473   30.5199    7.8047 N   0  0  0  0  0  0  0  0  0  0  0  0
   -4.9294   31.3634    6.8312 C   0  0  0  0  0  0  0  0  0  0  0  0
   -6.2095   31.7772    7.5746 C   0  0  0  0  0  0  0  0  0  0  0  0
   -6.4412   30.6705    8.6178 C   0  0  0  0  0  0  0  0  0  0  0  0
   -5.2718   29.6896    8.4253 C   0  0  0  0  0  0  0  0  0  0  0  0
   -5.6125   28.5950    7.3938 C   0  0  0  0  0  0  0  0  0  0  0  0
   -6.0140   29.1557    5.9945 C   0  0  0  0  0  0  0  0  0  0  0  0
   -7.4025   29.5506    6.0657 O   0  0  0  0  0  0  0  0  0  0  0  0
   -5.2246   30.4493    5.6211 C   0  0  0  0  0  0  0  0  0  0  0  0
   -7.7698   29.4854    5.1655 H   0  0  0  0  0  0  0  0  0  0  0  0
   -2.6944   31.8395    9.0856 C   0  0  0  0  0  0  0  0  0  0  0  0
   -1.4076   32.0388    9.5587 C   0  0  0  0  0  0  0  0  0  0  0  0
   -0.3739   31.2144    9.3069 N   0  0  0  0  0  0  0  0  0  0  0  0
   -0.6136   30.1306    8.5499 C   0  0  0  0  0  0  0  0  0  0  0  0
    0.4244   29.2541    8.2700 C   0  0  0  0  0  0  0  0  0  0  0  0
    0.3378   28.1222    7.5280 N   0  0  0  0  0  0  0  0  0  0  0  0
   -0.8747   27.8437    7.0290 C   0  0  0  0  0  0  0  0  0  0  0  0
   -1.9862   28.6443    7.2405 C   0  0  0  0  0  0  0  0  0  0  0  0
   -1.8850   29.8224    8.0122 C   0  0  0  0  0  0  0  0  0  0  0  0
   -2.9709   30.7123    8.2857 C   0  0  0  0  0  0  0  0  0  0  0  0
   -4.4614   33.6259    9.7144 N   0  0  0  0  0  0  0  0  0  0  0  0
   -3.6846   32.8054    9.4459 C   0  0  0  0  0  0  0  0  0  0  0  0
   -5.9814   28.0281    4.9489 C   0  0  0  0  0  0  0  0  0  0  0  0
   -5.8361   28.2494    3.5705 C   0  0  0  0  0  0  0  0  0  0  0  0
   -5.8149   27.1818    2.6639 C   0  0  0  0  0  0  0  0  0  0  0  0
   -5.9432   25.8747    3.1205 C   0  0  0  0  0  0  0  0  0  0  0  0
   -5.9205   24.5680    2.0027 Cl  0  0  0  0  0  0  0  0  0  0  0  0
   -6.0920   25.6228    4.4785 C   0  0  0  0  0  0  0  0  0  0  0  0
   -6.1098   26.6894    5.3816 C   0  0  0  0  0  0  0  0  0  0  0  0
 21 22  3  0  0  0
 22 11  1  0  0  0
 11 12  1  0  0  0
 12 13  2  0  0  0
 13 14  1  0  0  0
 14 15  2  0  0  0
 15 16  1  0  0  0
 16 17  2  0  0  0
 17 18  1  0  0  0
 18 19  2  0  0  0
 19 20  1  0  0  0
 20  1  1  0  0  0
  1  2  1  0  0  0
  2  3  1  0  0  0
  3  4  1  0  0  0
  4  5  1  0  0  0
  5  6  1  0  0  0
  6  7  1  0  0  0
  7  8  1  0  0  0
  7 23  1  0  0  0
 23 24  1  0  0  0
 24 25  2  0  0  0
 25 26  1  0  0  0
 26 27  1  0  0  0
 26 28  2  0  0  0
 28 29  1  0  0  0
  7  9  1  0  0  0
 20 11  2  0  0  0
  5  1  1  0  0  0
 29 23  2  0  0  0
 19 14  1  0  0  0
  9  2  1  0  0  0
  8 10  1  0  0  0
M  END
> <minimizedAffinity>
-9.72698

$$$$
OCNT-2312063


 34 38  0  0  0  0  0  0  0  0999 V2000
   -5.4226   22.8932    3.9236 C   0  0  0  0  0  0  0  0  0  0  0  0
   -4.8264   22.6725    2.6712 C   0  0  0  0  0  0  0  0  0  0  0  0
   -4.3884   23.7467    1.8925 C   0  0  0  0  0  0  0  0  0  0  0  0
   -4.5632   25.0496    2.3478 C   0  0  0  0  0  0  0  0  0  0  0  0
   -4.1068   26.0601    1.5946 F   0  0  0  0  0  0  0  0  0  0  0  0
   -5.1964   25.2890    3.5633 C   0  0  0  0  0  0  0  0  0  0  0  0
   -5.6151   24.2138    4.3581 C   0  0  0  0  0  0  0  0  0  0  0  0
   -5.3803   26.6571    4.0794 C   0  0  0  0  0  0  0  0  0  0  0  0
   -6.2669   27.3365    3.5651 O   0  0  0  0  0  0  0  0  0  0  0  0
   -4.5352   27.1326    5.0732 N   0  0  0  0  0  0  0  0  0  0  0  0
   -4.7671   28.4775    5.6018 C   0  0  0  0  0  0  0  0  0  0  0  0
   -4.2289   28.6730    7.0316 C   0  0  0  0  0  0  0  0  0  0  0  0
   -2.8262   28.2394    7.1732 N   0  0  0  0  0  0  0  0  0  0  0  0
   -2.2538   27.4655    6.0613 C   0  0  0  0  0  0  0  0  0  0  0  0
   -3.2916   26.4750    5.5025 C   0  0  0  0  0  0  0  0  0  0  0  0
   -1.9383   29.0421    7.8845 C   0  0  0  0  0  0  0  0  0  0  0  0
   -0.5897   28.7333    7.9471 C   0  0  0  0  0  0  0  0  0  0  0  0
    0.2272   29.5894    8.6538 C   0  0  0  0  0  0  0  0  0  0  0  0
   -0.2156   30.6929    9.2726 N   0  0  0  0  0  0  0  0  0  0  0  0
   -1.5273   30.9215    9.1446 C   0  0  0  0  0  0  0  0  0  0  0  0
   -2.4063   30.1564    8.4784 N   0  0  0  0  0  0  0  0  0  0  0  0
   -5.8869   21.7372    4.7816 C   0  0  0  0  0  0  0  0  0  0  0  0
  -11.4016   21.4287    5.1527 O   0  0  0  0  0  0  0  0  0  0  0  0
  -10.1784   21.5075    5.1342 C   0  0  0  0  0  0  0  0  0  0  0  0
   -9.4546   21.4319    3.9700 N   0  0  0  0  0  0  0  0  0  0  0  0
   -8.1020   21.5060    3.8598 N   0  0  0  0  0  0  0  0  0  0  0  0
   -7.4001   21.6684    4.9439 C   0  0  0  0  0  0  0  0  0  0  0  0
   -8.0115   21.7737    6.2942 C   0  0  0  0  0  0  0  0  0  0  0  0
   -7.2711   21.9460    7.4697 C   0  0  0  0  0  0  0  0  0  0  0  0
   -7.9238   22.0271    8.7042 C   0  0  0  0  0  0  0  0  0  0  0  0
   -9.3136   21.9411    8.7726 C   0  0  0  0  0  0  0  0  0  0  0  0
  -10.0557   21.7734    7.6053 C   0  0  0  0  0  0  0  0  0  0  0  0
   -9.4005   21.6889    6.3703 C   0  0  0  0  0  0  0  0  0  0  0  0
   -9.9760   21.3096    3.1071 H   0  0  0  0  0  0  0  0  0  0  0  0
 23 24  2  0  0  0
 24 25  1  0  0  0
 25 26  1  0  0  0
 26 27  2  0  0  0
 27 22  1  0  0  0
 22  1  1  0  0  0
  1  2  1  0  0  0
  2  3  2  0  0  0
  3  4  1  0  0  0
  4  5  1  0  0  0
  4  6  2  0  0  0
  6  8  1  0  0  0
  8  9  2  0  0  0
  8 10  1  0  0  0
 10 11  1  0  0  0
 11 12  1  0  0  0
 12 13  1  0  0  0
 13 16  1  0  0  0
 16 17  1  0  0  0
 17 18  2  0  0  0
 18 19  1  0  0  0
 19 20  2  0  0  0
 20 21  1  0  0  0
 13 14  1  0  0  0
 14 15  1  0  0  0
  6  7  1  0  0  0
 27 28  1  0  0  0
 28 29  2  0  0  0
 29 30  1  0  0  0
 30 31  2  0  0  0
 31 32  1  0  0  0
 32 33  2  0  0  0
 33 24  1  0  0  0
  7  1  2  0  0  0
 33 28  1  0  0  0
 15 10  1  0  0  0
 21 16  2  0  0  0
 25 34  1  0  0  0
M  END
> <minimizedAffinity>
-10.39770

$$$$
OCNT-2312068


 27 30  0  0  0  0  0  0  0  0999 V2000
   -2.6639   26.0181    5.8616 C   0  0  0  0  0  0  0  0  0  0  0  0
   -3.5926   26.6842    4.9196 N   0  0  0  0  0  0  0  0  0  0  0  0
   -4.9439   26.8677    5.5014 C   0  0  0  0  0  0  0  0  0  0  0  0
   -5.8394   26.9297    4.3003 C   0  0  0  0  0  0  0  0  0  0  0  0
   -5.5139   27.7868    3.1024 C   0  0  0  0  0  0  0  0  0  0  0  0
   -5.1153   26.3121    3.1517 C   0  0  0  0  0  0  0  0  0  0  0  0
   -3.7494   25.8999    3.6760 C   0  0  0  0  0  0  0  0  0  0  0  0
   -5.7959   25.3530    2.2014 C   0  0  0  0  0  0  0  0  0  0  0  0
   -6.3767   24.1612    2.6669 C   0  0  0  0  0  0  0  0  0  0  0  0
   -7.0269   23.2767    1.7980 C   0  0  0  0  0  0  0  0  0  0  0  0
   -7.1112   23.5592    0.4283 C   0  0  0  0  0  0  0  0  0  0  0  0
   -7.8362   22.6352   -0.5062 C   0  0  0  0  0  0  0  0  0  0  0  0
   -6.5573   24.7509   -0.0493 C   0  0  0  0  0  0  0  0  0  0  0  0
   -5.9058   25.6287    0.8255 C   0  0  0  0  0  0  0  0  0  0  0  0
   -1.7358   27.5885    7.4772 N   0  0  0  0  0  0  0  0  0  0  0  0
   -1.5263   26.9652    6.2600 C   0  0  0  0  0  0  0  0  0  0  0  0
   -0.5614   27.1847    5.5235 O   0  0  0  0  0  0  0  0  0  0  0  0
   -2.4910   27.2104    8.0440 H   0  0  0  0  0  0  0  0  0  0  0  0
   -0.7860   28.5019    8.0592 C   0  0  0  0  0  0  0  0  0  0  0  0
   -3.5859   30.8301    9.2187 C   0  0  0  0  0  0  0  0  0  0  0  0
   -2.8618   31.9465    9.6424 C   0  0  0  0  0  0  0  0  0  0  0  0
   -1.4652   31.9534    9.5476 C   0  0  0  0  0  0  0  0  0  0  0  0
   -0.7839   30.8465    9.0270 C   0  0  0  0  0  0  0  0  0  0  0  0
   -1.4964   29.7242    8.5870 C   0  0  0  0  0  0  0  0  0  0  0  0
   -2.8988   29.7283    8.6906 C   0  0  0  0  0  0  0  0  0  0  0  0
   -5.4543   29.4465    9.7662 C   0  0  0  0  0  0  0  0  0  0  0  0
   -4.9471   30.6876    9.2668 O   0  0  0  0  0  0  0  0  0  0  0  0
 26 27  1  0  0  0
 27 20  1  0  0  0
 20 21  1  0  0  0
 21 22  2  0  0  0
 22 23  1  0  0  0
 23 24  2  0  0  0
 24 19  1  0  0  0
 19 15  1  0  0  0
 15 16  1  0  0  0
 16 17  2  0  0  0
 16  1  1  0  0  0
  1  2  1  0  0  0
  2  3  1  0  0  0
  3  4  1  0  0  0
  4  5  1  0  0  0
  5  6  1  0  0  0
  6  8  1  0  0  0
  8  9  1  0  0  0
  9 10  2  0  0  0
 10 11  1  0  0  0
 11 12  1  0  0  0
 11 13  2  0  0  0
 13 14  1  0  0  0
  6  7  1  0  0  0
 24 25  1  0  0  0
 25 20  2  0  0  0
  7  2  1  0  0  0
  6  4  1  0  0  0
 14  8  2  0  0  0
 15 18  1  0  0  0
M  END
> <minimizedAffinity>
-10.13235

$$$$
OCNT-2312069


 25 28  0  0  0  0  0  0  0  0999 V2000
   -4.1009   24.5038    3.4024 C   0  0  0  0  0  0  0  0  0  0  0  0
   -7.2866   23.4156    6.3448 O   0  0  0  0  0  0  0  0  0  0  0  0
   -7.0879   23.6156    4.9326 C   0  0  0  0  0  0  0  0  0  0  0  0
   -5.8854   22.8714    4.3189 C   0  0  0  0  0  0  0  0  0  0  0  0
   -5.6022   24.1413    3.4369 C   0  0  0  0  0  0  0  0  0  0  0  0
   -6.3969   24.9338    4.5331 C   0  0  0  0  0  0  0  0  0  0  0  0
   -7.6934   22.5349    6.4197 H   0  0  0  0  0  0  0  0  0  0  0  0
   -6.2127   24.1128    1.9353 C   0  0  0  0  0  0  0  0  0  0  0  0
   -6.9481   23.0099    1.4497 C   0  0  0  0  0  0  0  0  0  0  0  0
   -7.4816   22.9755    0.1566 C   0  0  0  0  0  0  0  0  0  0  0  0
   -7.2860   24.0482   -0.7030 C   0  0  0  0  0  0  0  0  0  0  0  0
   -6.5503   25.1444   -0.2699 C   0  0  0  0  0  0  0  0  0  0  0  0
   -6.0244   25.1721    1.0261 C   0  0  0  0  0  0  0  0  0  0  0  0
   -3.8793   25.9027    3.7424 N   0  0  0  0  0  0  0  0  0  0  0  0
   -3.9945   26.5375    2.9382 H   0  0  0  0  0  0  0  0  0  0  0  0
   -2.8961   26.3977    4.6019 C   0  0  0  0  0  0  0  0  0  0  0  0
   -1.6172   25.9865    4.6390 C   0  0  0  0  0  0  0  0  0  0  0  0
   -0.7411   26.6161    5.6615 C   0  0  0  0  0  0  0  0  0  0  0  0
   -1.0869   27.5259    6.5199 N   0  0  0  0  0  0  0  0  0  0  0  0
   -2.3907   27.9365    6.4557 C   0  0  0  0  0  0  0  0  0  0  0  0
   -3.1189   28.8510    7.1758 C   0  0  0  0  0  0  0  0  0  0  0  0
   -2.5490   29.9411    8.5818 Br  0  0  0  0  0  0  0  0  0  0  0  0
   -4.4147   28.8260    6.6564 C   0  0  0  0  0  0  0  0  0  0  0  0
   -4.5434   27.9517    5.6556 N   0  0  0  0  0  0  0  0  0  0  0  0
   -3.2966   27.3963    5.5334 N   0  0  0  0  0  0  0  0  0  0  0  0
  2  3  1  0  0  0
  3  4  1  0  0  0
  4  5  1  0  0  0
  5  1  1  0  0  0
  1 14  1  0  0  0
 14 16  1  0  0  0
 16 17  2  0  0  0
 17 18  1  0  0  0
 18 19  2  0  0  0
 19 20  1  0  0  0
 20 21  2  0  0  0
 21 22  1  0  0  0
 21 23  1  0  0  0
 23 24  2  0  0  0
 24 25  1  0  0  0
  5  8  1  0  0  0
  8  9  2  0  0  0
  9 10  1  0  0  0
 10 11  2  0  0  0
 11 12  1  0  0  0
 12 13  2  0  0  0
  5  6  1  0  0  0
  6  3  1  0  0  0
 25 16  1  0  0  0
 13  8  1  0  0  0
 25 20  1  0  0  0
  2  7  1  0  0  0
 14 15  1  0  0  0
M  END
> <minimizedAffinity>
-9.00392

$$$$
OCNT-2312089


 27 31  0  0  0  0  0  0  0  0999 V2000
   -0.5532   27.1875    6.0264 C   0  0  0  0  0  0  0  0  0  0  0  0
   -1.8237   26.7900    5.3606 C   0  0  0  0  0  0  0  0  0  0  0  0
   -3.1163   27.2272    5.5778 C   0  0  0  0  0  0  0  0  0  0  0  0
   -4.0812   26.6425    4.7705 N   0  0  0  0  0  0  0  0  0  0  0  0
   -3.5359   25.7653    3.9491 C   0  0  0  0  0  0  0  0  0  0  0  0
   -1.8267   25.6170    4.1114 S   0  0  0  0  0  0  0  0  0  0  0  0
   -4.3068   24.9826    2.9588 C   0  0  0  0  0  0  0  0  0  0  0  0
   -4.3683   23.5662    2.9633 C   0  0  0  0  0  0  0  0  0  0  0  0
   -5.1121   22.8612    2.0063 C   0  0  0  0  0  0  0  0  0  0  0  0
   -5.7884   23.5890    1.0550 C   0  0  0  0  0  0  0  0  0  0  0  0
   -6.5548   23.0774    0.0562 O   0  0  0  0  0  0  0  0  0  0  0  0
   -6.9914   24.2876   -0.5972 C   0  0  0  0  0  0  0  0  0  0  0  0
   -6.4792   25.4878    0.0184 O   0  0  0  0  0  0  0  0  0  0  0  0
   -5.7448   24.9607    1.0346 C   0  0  0  0  0  0  0  0  0  0  0  0
   -5.0212   25.6794    1.9642 C   0  0  0  0  0  0  0  0  0  0  0  0
   -3.5615   28.2244    6.5506 C   0  0  0  0  0  0  0  0  0  0  0  0
   -4.4879   29.2274    6.3827 C   0  0  0  0  0  0  0  0  0  0  0  0
   -4.5071   29.8565    7.5894 N   0  0  0  0  0  0  0  0  0  0  0  0
   -3.6621   29.2734    8.4616 N   0  0  0  0  0  0  0  0  0  0  0  0
   -3.0668   28.2715    7.8264 N   0  0  0  0  0  0  0  0  0  0  0  0
   -5.3070   30.9941    7.9859 C   0  0  0  0  0  0  0  0  0  0  0  0
   -4.5698   32.3454    7.9657 C   0  0  0  0  0  0  0  0  0  0  0  0
   -3.9825   32.7644    9.3192 C   0  0  0  0  0  0  0  0  0  0  0  0
   -4.5694   34.1383    9.5900 C   0  0  0  0  0  0  0  0  0  0  0  0
   -4.8892   34.6612    8.2069 C   0  0  0  0  0  0  0  0  0  0  0  0
   -5.3968   33.4816    7.5006 N   0  0  0  0  0  0  0  0  0  0  0  0
   -6.3665   33.3244    7.8065 H   0  0  0  0  0  0  0  0  0  0  0  0
  1  2  1  0  0  0
  2  3  2  0  0  0
  3 16  1  0  0  0
 16 17  2  0  0  0
 17 18  1  0  0  0
 18 21  1  0  0  0
 21 22  1  0  0  0
 22 23  1  0  0  0
 23 24  1  0  0  0
 24 25  1  0  0  0
 25 26  1  0  0  0
 18 19  1  0  0  0
 19 20  2  0  0  0
  3  4  1  0  0  0
  4  5  2  0  0  0
  5  7  1  0  0  0
  7  8  1  0  0  0
  8  9  2  0  0  0
  9 10  1  0  0  0
 10 11  1  0  0  0
 11 12  1  0  0  0
 12 13  1  0  0  0
 13 14  1  0  0  0
 14 15  1  0  0  0
  5  6  1  0  0  0
  6  2  1  0  0  0
 20 16  1  0  0  0
 15  7  2  0  0  0
 26 22  1  0  0  0
 14 10  2  0  0  0
 26 27  1  0  0  0
M  END
> <minimizedAffinity>
-9.48105

$$$$
OCNT-2312094


 27 30  0  0  0  0  0  0  0  0999 V2000
   -4.6792   28.2600    4.4183 N   0  0  0  0  0  0  0  0  0  0  0  0
   -5.0614   28.7610    3.6216 H   0  0  0  0  0  0  0  0  0  0  0  0
   -5.2059   29.2902    7.7491 C   0  0  0  0  0  0  0  0  0  0  0  0
   -6.4279   29.9198    7.7352 C   0  0  0  0  0  0  0  0  0  0  0  0
   -7.0435   29.9476    6.5135 C   0  0  0  0  0  0  0  0  0  0  0  0
   -6.5043   29.4159    5.4017 N   0  0  0  0  0  0  0  0  0  0  0  0
   -5.3016   28.8359    5.5184 C   0  0  0  0  0  0  0  0  0  0  0  0
   -4.6156   28.7642    6.6614 N   0  0  0  0  0  0  0  0  0  0  0  0
   -4.4665   29.2348    8.9136 O   0  0  0  0  0  0  0  0  0  0  0  0
   -1.3304   31.9655    9.1293 C   0  0  0  0  0  0  0  0  0  0  0  0
   -2.6380   32.3488    9.4287 C   0  0  0  0  0  0  0  0  0  0  0  0
   -3.6728   31.4161    9.3515 C   0  0  0  0  0  0  0  0  0  0  0  0
   -3.3953   30.0970    8.9894 C   0  0  0  0  0  0  0  0  0  0  0  0
   -2.0899   29.7175    8.6653 C   0  0  0  0  0  0  0  0  0  0  0  0
   -1.0569   30.6527    8.7434 C   0  0  0  0  0  0  0  0  0  0  0  0
   -4.7401   26.8012    4.3403 C   0  0  0  0  0  0  0  0  0  0  0  0
   -3.3446   26.2146    4.0864 C   0  0  0  0  0  0  0  0  0  0  0  0
   -3.3923   25.0212    3.1454 C   0  0  0  0  0  0  0  0  0  0  0  0
   -4.5401   24.2258    3.4202 O   0  0  0  0  0  0  0  0  0  0  0  0
   -5.7820   24.8732    3.0985 C   0  0  0  0  0  0  0  0  0  0  0  0
   -5.6894   26.4053    3.2069 C   0  0  0  0  0  0  0  0  0  0  0  0
   -6.3427   24.4040    1.7616 C   0  0  0  0  0  0  0  0  0  0  0  0
   -6.8772   23.1098    1.6353 C   0  0  0  0  0  0  0  0  0  0  0  0
   -7.3850   22.6570    0.4150 C   0  0  0  0  0  0  0  0  0  0  0  0
   -7.3576   23.4862   -0.7028 C   0  0  0  0  0  0  0  0  0  0  0  0
   -6.8166   24.7649   -0.6023 C   0  0  0  0  0  0  0  0  0  0  0  0
   -6.3090   25.2178    0.6180 C   0  0  0  0  0  0  0  0  0  0  0  0
 10 11  2  0  0  0
 11 12  1  0  0  0
 12 13  2  0  0  0
 13  9  1  0  0  0
  9  3  1  0  0  0
  3  4  1  0  0  0
  4  5  2  0  0  0
  5  6  1  0  0  0
  6  7  2  0  0  0
  7  1  1  0  0  0
  1 16  1  0  0  0
 16 17  1  0  0  0
 17 18  1  0  0  0
 18 19  1  0  0  0
 19 20  1  0  0  0
 20 22  1  0  0  0
 22 23  2  0  0  0
 23 24  1  0  0  0
 24 25  2  0  0  0
 25 26  1  0  0  0
 26 27  2  0  0  0
 20 21  1  0  0  0
  7  8  1  0  0  0
 13 14  1  0  0  0
 14 15  2  0  0  0
 15 10  1  0  0  0
  8  3  2  0  0  0
 21 16  1  0  0  0
 27 22  1  0  0  0
  1  2  1  0  0  0
M  END
> <minimizedAffinity>
-10.21697

$$$$
OCNT-2312095


 24 27  0  0  0  0  0  0  0  0999 V2000
   -5.7788   29.0479    6.4263 C   0  0  0  0  0  0  0  0  0  0  0  0
   -4.6757   28.2275    5.9943 N   0  0  0  0  0  0  0  0  0  0  0  0
   -3.3735   28.3315    6.4255 C   0  0  0  0  0  0  0  0  0  0  0  0
   -2.6963   27.2977    5.9725 N   0  0  0  0  0  0  0  0  0  0  0  0
   -3.5524   26.5240    5.2326 N   0  0  0  0  0  0  0  0  0  0  0  0
   -4.7268   27.1175    5.1825 C   0  0  0  0  0  0  0  0  0  0  0  0
   -5.8575   26.7092    4.5324 N   0  0  0  0  0  0  0  0  0  0  0  0
   -6.4581   25.4480    4.9922 C   0  0  0  0  0  0  0  0  0  0  0  0
   -5.6695   24.1967    4.5979 C   0  0  0  0  0  0  0  0  0  0  0  0
   -6.3155   23.3738    3.4857 C   0  0  0  0  0  0  0  0  0  0  0  0
   -6.4788   23.8696    2.0636 C   0  0  0  0  0  0  0  0  0  0  0  0
   -7.2461   23.0088    1.2388 C   0  0  0  0  0  0  0  0  0  0  0  0
   -7.4801   23.2789   -0.1070 C   0  0  0  0  0  0  0  0  0  0  0  0
   -6.9470   24.4232   -0.6715 C   0  0  0  0  0  0  0  0  0  0  0  0
   -6.1859   25.2868    0.1140 C   0  0  0  0  0  0  0  0  0  0  0  0
   -5.9352   25.0295    1.4818 C   0  0  0  0  0  0  0  0  0  0  0  0
   -5.1125   26.0654    2.2177 C   0  0  0  0  0  0  0  0  0  0  0  0
   -5.9830   26.9806    3.0927 C   0  0  0  0  0  0  0  0  0  0  0  0
   -2.8311   29.4168    7.2931 C   0  0  0  0  0  0  0  0  0  0  0  0
   -1.3363   29.3508    7.4631 C   0  0  0  0  0  0  0  0  0  0  0  0
   -0.6917   29.0634    8.6530 C   0  0  0  0  0  0  0  0  0  0  0  0
    1.0119   29.0666    8.5047 S   0  0  0  0  0  0  0  0  0  0  0  0
    0.9209   29.4345    6.8389 C   0  0  0  0  0  0  0  0  0  0  0  0
   -0.3814   29.5567    6.4096 C   0  0  0  0  0  0  0  0  0  0  0  0
  1  2  1  0  0  0
  2  3  1  0  0  0
  3 19  1  0  0  0
 19 20  1  0  0  0
 20 21  2  0  0  0
 21 22  1  0  0  0
 22 23  1  0  0  0
 23 24  2  0  0  0
  3  4  2  0  0  0
  4  5  1  0  0  0
  5  6  2  0  0  0
  6  7  1  0  0  0
  7  8  1  0  0  0
  8  9  1  0  0  0
  9 10  1  0  0  0
 10 11  1  0  0  0
 11 12  2  0  0  0
 12 13  1  0  0  0
 13 14  2  0  0  0
 14 15  1  0  0  0
 15 16  2  0  0  0
 16 17  1  0  0  0
 17 18  1  0  0  0
  6  2  1  0  0  0
 18  7  1  0  0  0
 24 20  1  0  0  0
 16 11  1  0  0  0
M  END
> <minimizedAffinity>
-9.63734

$$$$
OCNT-2312098


 28 31  0  0  0  0  0  0  0  0999 V2000
   -3.9054   26.2999    5.4559 N   0  0  0  0  0  0  0  0  0  0  0  0
   -2.8200   26.3394    4.4674 C   0  0  0  0  0  0  0  0  0  0  0  0
   -3.3444   26.4351    3.0328 C   0  0  0  0  0  0  0  0  0  0  0  0
   -4.5448   25.4948    2.7615 C   0  0  0  0  0  0  0  0  0  0  0  0
   -5.7193   26.3138    2.6205 O   0  0  0  0  0  0  0  0  0  0  0  0
   -4.7591   24.5143    3.9236 C   0  0  0  0  0  0  0  0  0  0  0  0
   -4.8918   25.2228    5.2722 C   0  0  0  0  0  0  0  0  0  0  0  0
   -5.7670   26.8867    3.4172 H   0  0  0  0  0  0  0  0  0  0  0  0
   -1.8108   29.3694    7.6497 C   0  0  0  0  0  0  0  0  0  0  0  0
   -2.4227   30.6170    7.7295 C   0  0  0  0  0  0  0  0  0  0  0  0
   -3.6828   30.8209    7.1556 C   0  0  0  0  0  0  0  0  0  0  0  0
   -4.3552   29.8096    6.4827 C   0  0  0  0  0  0  0  0  0  0  0  0
   -5.5604   30.0708    5.9696 N   0  0  0  0  0  0  0  0  0  0  0  0
   -6.1707   29.0666    5.3325 C   0  0  0  0  0  0  0  0  0  0  0  0
   -5.6872   27.8316    5.1471 N   0  0  0  0  0  0  0  0  0  0  0  0
   -4.4684   27.5798    5.6661 C   0  0  0  0  0  0  0  0  0  0  0  0
   -3.7384   28.5574    6.3704 C   0  0  0  0  0  0  0  0  0  0  0  0
   -2.4659   28.3475    6.9628 C   0  0  0  0  0  0  0  0  0  0  0  0
    0.8517   29.3543    6.9274 C   0  0  0  0  0  0  0  0  0  0  0  0
   -0.2053   29.1401    8.3854 S   0  0  0  0  0  0  0  0  0  0  0  0
   -4.3221   24.7668    1.4088 C   0  0  0  0  0  0  0  0  0  0  0  0
   -5.5560   24.1724    0.7692 C   0  0  0  0  0  0  0  0  0  0  0  0
   -6.3749   24.9434   -0.0665 C   0  0  0  0  0  0  0  0  0  0  0  0
   -7.5149   24.3869   -0.6523 C   0  0  0  0  0  0  0  0  0  0  0  0
   -7.8502   23.0549   -0.4092 C   0  0  0  0  0  0  0  0  0  0  0  0
   -7.0461   22.2796    0.4238 C   0  0  0  0  0  0  0  0  0  0  0  0
   -5.9122   22.8410    1.0045 C   0  0  0  0  0  0  0  0  0  0  0  0
   -5.1597   22.0808    1.8139 F   0  0  0  0  0  0  0  0  0  0  0  0
 19 20  1  0  0  0
 20  9  1  0  0  0
  9 10  1  0  0  0
 10 11  2  0  0  0
 11 12  1  0  0  0
 12 13  2  0  0  0
 13 14  1  0  0  0
 14 15  2  0  0  0
 15 16  1  0  0  0
 16  1  1  0  0  0
  1  2  1  0  0  0
  2  3  1  0  0  0
  3  4  1  0  0  0
  4  5  1  0  0  0
  4 21  1  0  0  0
 21 22  1  0  0  0
 22 23  2  0  0  0
 23 24  1  0  0  0
 24 25  2  0  0  0
 25 26  1  0  0  0
 26 27  2  0  0  0
 27 28  1  0  0  0
  4  6  1  0  0  0
  6  7  1  0  0  0
 16 17  2  0  0  0
 17 18  1  0  0  0
 18  9  2  0  0  0
 17 12  1  0  0  0
  7  1  1  0  0  0
 27 22  1  0  0  0
  5  8  1  0  0  0
M  END
> <minimizedAffinity>
-9.87704

$$$$
OCNT-2312102


 35 40  0  0  0  0  0  0  0  0999 V2000
   -1.8177   27.0749    6.4974 N   0  0  0  0  0  0  0  0  0  0  0  0
   -2.7501   26.6905    5.5809 C   0  0  0  0  0  0  0  0  0  0  0  0
   -2.0575   26.1638    4.5059 C   0  0  0  0  0  0  0  0  0  0  0  0
   -0.6793   26.3136    4.8703 C   0  0  0  0  0  0  0  0  0  0  0  0
   -0.5566   26.8275    6.1042 N   0  0  0  0  0  0  0  0  0  0  0  0
    0.5110   25.9670    4.1084 C   0  0  0  0  0  0  0  0  0  0  0  0
    1.2091   24.7779    4.3259 C   0  0  0  0  0  0  0  0  0  0  0  0
    2.3521   24.5030    3.5770 C   0  0  0  0  0  0  0  0  0  0  0  0
    2.7576   25.4294    2.6290 C   0  0  0  0  0  0  0  0  0  0  0  0
    2.1043   26.5844    2.3811 N   0  0  0  0  0  0  0  0  0  0  0  0
    0.9888   26.8192    3.1179 C   0  0  0  0  0  0  0  0  0  0  0  0
   -2.0719   27.6481    7.8132 C   0  0  0  0  0  0  0  0  0  0  0  0
   -1.7881   31.9532    7.7823 C   0  0  0  0  0  0  0  0  0  0  0  0
   -1.0904   31.2152    8.7362 C   0  0  0  0  0  0  0  0  0  0  0  0
   -1.1822   29.8229    8.7463 C   0  0  0  0  0  0  0  0  0  0  0  0
   -1.9721   29.1535    7.7988 C   0  0  0  0  0  0  0  0  0  0  0  0
   -2.6712   29.9076    6.8447 C   0  0  0  0  0  0  0  0  0  0  0  0
   -2.5780   31.3005    6.8376 C   0  0  0  0  0  0  0  0  0  0  0  0
   -2.6476   25.6065    3.2493 C   0  0  0  0  0  0  0  0  0  0  0  0
   -3.8305   24.7655    3.4517 N   0  0  0  0  0  0  0  0  0  0  0  0
   -3.6523   23.3704    3.0464 C   0  0  0  0  0  0  0  0  0  0  0  0
   -4.8916   22.5411    3.2314 C   0  0  0  0  0  0  0  0  0  0  0  0
   -6.1081   23.0692    3.4584 C   0  0  0  0  0  0  0  0  0  0  0  0
   -6.2893   24.5681    3.5060 C   0  0  0  0  0  0  0  0  0  0  0  0
   -5.0784   25.3252    2.9281 C   0  0  0  0  0  0  0  0  0  0  0  0
   -7.3019   22.2948    3.5994 C   0  0  0  0  0  0  0  0  0  0  0  0
   -7.6843   21.3025    2.7149 C   0  0  0  0  0  0  0  0  0  0  0  0
   -8.8769   20.7857    3.1499 N   0  0  0  0  0  0  0  0  0  0  0  0
   -9.2643   21.4142    4.3003 C   0  0  0  0  0  0  0  0  0  0  0  0
  -10.3923   21.1231    4.9750 N   0  0  0  0  0  0  0  0  0  0  0  0
  -10.5458   21.8746    6.0884 C   0  0  0  0  0  0  0  0  0  0  0  0
   -9.6648   22.8499    6.5359 C   0  0  0  0  0  0  0  0  0  0  0  0
   -8.5101   23.1095    5.7960 C   0  0  0  0  0  0  0  0  0  0  0  0
   -8.2994   22.3663    4.6201 C   0  0  0  0  0  0  0  0  0  0  0  0
   -9.4108   20.0506    2.7108 H   0  0  0  0  0  0  0  0  0  0  0  0
 13 14  2  0  0  0
 14 15  1  0  0  0
 15 16  2  0  0  0
 16 12  1  0  0  0
 12  1  1  0  0  0
  1  2  1  0  0  0
  2  3  2  0  0  0
  3 19  1  0  0  0
 19 20  1  0  0  0
 20 21  1  0  0  0
 21 22  1  0  0  0
 22 23  2  0  0  0
 23 26  1  0  0  0
 26 27  2  0  0  0
 27 28  1  0  0  0
 28 29  1  0  0  0
 29 30  1  0  0  0
 30 31  2  0  0  0
 31 32  1  0  0  0
 32 33  2  0  0  0
 33 34  1  0  0  0
 23 24  1  0  0  0
 24 25  1  0  0  0
  3  4  1  0  0  0
  4  6  1  0  0  0
  6  7  1  0  0  0
  7  8  2  0  0  0
  8  9  1  0  0  0
  9 10  2  0  0  0
 10 11  1  0  0  0
  4  5  2  0  0  0
 16 17  1  0  0  0
 17 18  2  0  0  0
 18 13  1  0  0  0
  5  1  1  0  0  0
 25 20  1  0  0  0
 11  6  2  0  0  0
 34 26  1  0  0  0
 34 29  2  0  0  0
 28 35  1  0  0  0
M  END
> <minimizedAffinity>
-10.57045

$$$$
OCNT-2312103


 25 27  0  0  0  0  0  0  0  0999 V2000
   -5.5421   26.6976    2.6938 N   0  0  0  0  0  0  0  0  0  0  0  0
   -6.4348   26.7015    2.1978 H   0  0  0  0  0  0  0  0  0  0  0  0
   -5.7852   26.5781    4.1316 C   0  0  0  0  0  0  0  0  0  0  0  0
   -4.6883   25.7408    4.8057 C   0  0  0  0  0  0  0  0  0  0  0  0
   -1.9493   26.0371    4.4909 O   0  0  0  0  0  0  0  0  0  0  0  0
   -2.4784   26.5914    5.4478 C   0  0  0  0  0  0  0  0  0  0  0  0
   -3.8428   26.5521    5.6685 N   0  0  0  0  0  0  0  0  0  0  0  0
   -4.1429   26.6348    6.6295 H   0  0  0  0  0  0  0  0  0  0  0  0
   -1.7301   27.3077    6.4481 C   0  0  0  0  0  0  0  0  0  0  0  0
   -2.1707   27.8666    7.6331 C   0  0  0  0  0  0  0  0  0  0  0  0
   -1.0284   28.4320    8.2246 C   0  0  0  0  0  0  0  0  0  0  0  0
    0.0679   28.2373    7.4895 N   0  0  0  0  0  0  0  0  0  0  0  0
   -0.3784   27.5223    6.4438 N   0  0  0  0  0  0  0  0  0  0  0  0
    0.2993   27.1948    5.7644 H   0  0  0  0  0  0  0  0  0  0  0  0
   -4.7243   25.6040    2.1606 C   0  0  0  0  0  0  0  0  0  0  0  0
   -5.5291   24.5361    1.4542 C   0  0  0  0  0  0  0  0  0  0  0  0
   -6.3124   24.8843    0.3321 C   0  0  0  0  0  0  0  0  0  0  0  0
   -7.0620   23.9356   -0.3614 C   0  0  0  0  0  0  0  0  0  0  0  0
   -7.0641   22.5974    0.0311 C   0  0  0  0  0  0  0  0  0  0  0  0
   -6.2909   22.2497    1.1431 C   0  0  0  0  0  0  0  0  0  0  0  0
   -5.5319   23.1770    1.8593 C   0  0  0  0  0  0  0  0  0  0  0  0
   -4.8937   22.4567    2.9126 C   0  0  0  0  0  0  0  0  0  0  0  0
   -5.2670   21.1367    2.8133 C   0  0  0  0  0  0  0  0  0  0  0  0
   -6.1106   21.0225    1.7419 N   0  0  0  0  0  0  0  0  0  0  0  0
   -6.5442   20.1647    1.4300 H   0  0  0  0  0  0  0  0  0  0  0  0
  5  6  2  0  0  0
  6  7  1  0  0  0
  7  4  1  0  0  0
  4  3  1  0  0  0
  3  1  1  0  0  0
  1 15  1  0  0  0
 15 16  1  0  0  0
 16 17  1  0  0  0
 17 18  2  0  0  0
 18 19  1  0  0  0
 19 20  2  0  0  0
 20 21  1  0  0  0
 21 22  1  0  0  0
 22 23  2  0  0  0
 23 24  1  0  0  0
  6  9  1  0  0  0
  9 10  2  0  0  0
 10 11  1  0  0  0
 11 12  2  0  0  0
 12 13  1  0  0  0
 21 16  2  0  0  0
 13  9  1  0  0  0
 24 20  1  0  0  0
  7  8  1  0  0  0
  1  2  1  0  0  0
 24 25  1  0  0  0
 13 14  1  0  0  0
M  END
> <minimizedAffinity>
-8.04453

$$$$
OCNT-2312104


 30 34  0  0  0  0  0  0  0  0999 V2000
   -1.2748   27.5450    7.9189 O   0  0  0  0  0  0  0  0  0  0  0  0
   -1.9508   28.1819    7.1155 C   0  0  0  0  0  0  0  0  0  0  0  0
   -2.5544   27.5832    6.0334 N   0  0  0  0  0  0  0  0  0  0  0  0
   -3.2504   28.1075    5.5268 H   0  0  0  0  0  0  0  0  0  0  0  0
   -2.1925   29.6110    7.2337 C   0  0  0  0  0  0  0  0  0  0  0  0
   -1.3841   30.6913    6.8857 C   0  0  0  0  0  0  0  0  0  0  0  0
   -2.0499   31.8949    7.2301 C   0  0  0  0  0  0  0  0  0  0  0  0
   -3.2474   31.5315    7.7903 C   0  0  0  0  0  0  0  0  0  0  0  0
   -3.3372   30.1654    7.7689 N   0  0  0  0  0  0  0  0  0  0  0  0
   -4.5074   29.4720    8.2853 C   0  0  0  0  0  0  0  0  0  0  0  0
   -5.6977   30.4289    8.4518 C   0  0  0  0  0  0  0  0  0  0  0  0
   -5.3487   31.6796    9.1518 N   0  0  0  0  0  0  0  0  0  0  0  0
   -4.3696   32.4352    8.3483 C   0  0  0  0  0  0  0  0  0  0  0  0
   -5.1024   33.3655    7.3584 C   0  0  0  0  0  0  0  0  0  0  0  0
   -5.1070   34.4559    8.4518 C   0  0  0  0  0  0  0  0  0  0  0  0
   -3.9535   33.6956    9.1416 C   0  0  0  0  0  0  0  0  0  0  0  0
   -4.9792   31.4390   10.0720 H   0  0  0  0  0  0  0  0  0  0  0  0
   -2.5336   26.1527    5.8423 C   0  0  0  0  0  0  0  0  0  0  0  0
   -3.4439   25.7492    4.7112 C   0  0  0  0  0  0  0  0  0  0  0  0
   -3.0795   26.0079    3.3844 C   0  0  0  0  0  0  0  0  0  0  0  0
   -3.9091   25.6161    2.3293 C   0  0  0  0  0  0  0  0  0  0  0  0
   -5.1208   24.9497    2.5697 C   0  0  0  0  0  0  0  0  0  0  0  0
   -5.4732   24.6860    3.9030 C   0  0  0  0  0  0  0  0  0  0  0  0
   -4.6458   25.0772    4.9612 C   0  0  0  0  0  0  0  0  0  0  0  0
   -5.9931   24.5384    1.4586 C   0  0  0  0  0  0  0  0  0  0  0  0
   -6.7071   23.3353    1.5056 C   0  0  0  0  0  0  0  0  0  0  0  0
   -7.5149   22.9889    0.4334 C   0  0  0  0  0  0  0  0  0  0  0  0
   -7.6640   23.7487   -0.6709 N   0  0  0  0  0  0  0  0  0  0  0  0
   -6.9732   24.9065   -0.7028 C   0  0  0  0  0  0  0  0  0  0  0  0
   -6.1388   25.3362    0.3176 C   0  0  0  0  0  0  0  0  0  0  0  0
  1  2  2  0  0  0
  2  3  1  0  0  0
  3 18  1  0  0  0
 18 19  1  0  0  0
 19 20  1  0  0  0
 20 21  2  0  0  0
 21 22  1  0  0  0
 22 25  1  0  0  0
 25 26  2  0  0  0
 26 27  1  0  0  0
 27 28  2  0  0  0
 28 29  1  0  0  0
 29 30  2  0  0  0
 22 23  2  0  0  0
 23 24  1  0  0  0
  2  5  1  0  0  0
  5  6  2  0  0  0
  6  7  1  0  0  0
  7  8  2  0  0  0
  8  9  1  0  0  0
  9 10  1  0  0  0
 10 11  1  0  0  0
 11 12  1  0  0  0
 12 13  1  0  0  0
 13 14  1  0  0  0
 14 15  1  0  0  0
 15 16  1  0  0  0
 24 19  2  0  0  0
  9  5  1  0  0  0
 16 13  1  0  0  0
 30 25  1  0  0  0
 13  8  1  0  0  0
  3  4  1  0  0  0
 12 17  1  0  0  0
M  END
> <minimizedAffinity>
-10.59650

$$$$
OCNT-2312108


 29 32  0  0  0  0  0  0  0  0999 V2000
   -6.1390   28.0245    6.8937 N   0  0  0  0  0  0  0  0  0  0  0  0
   -6.8329   27.3173    7.1214 H   0  0  0  0  0  0  0  0  0  0  0  0
   -5.6777   25.0667    2.7167 C   0  0  0  0  0  0  0  0  0  0  0  0
   -5.6916   24.7835    4.0771 C   0  0  0  0  0  0  0  0  0  0  0  0
   -5.8246   25.8127    5.0096 C   0  0  0  0  0  0  0  0  0  0  0  0
   -5.9513   27.1614    4.6022 C   0  0  0  0  0  0  0  0  0  0  0  0
   -5.9071   27.4391    3.2153 C   0  0  0  0  0  0  0  0  0  0  0  0
   -5.7784   26.3943    2.3064 C   0  0  0  0  0  0  0  0  0  0  0  0
   -5.9738   28.6826    2.7205 N   0  0  0  0  0  0  0  0  0  0  0  0
   -6.0578   29.7024    3.5934 C   0  0  0  0  0  0  0  0  0  0  0  0
   -6.1173   29.5438    4.9647 C   0  0  0  0  0  0  0  0  0  0  0  0
   -6.1115   28.2567    5.5039 C   0  0  0  0  0  0  0  0  0  0  0  0
   -5.5423   23.9717    1.9119 O   0  0  0  0  0  0  0  0  0  0  0  0
   -7.2863   23.6786    0.2564 C   0  0  0  0  0  0  0  0  0  0  0  0
   -6.7009   23.1981    1.5810 C   0  0  0  0  0  0  0  0  0  0  0  0
   -6.2362   21.7490    1.4497 C   0  0  0  0  0  0  0  0  0  0  0  0
   -6.1702   29.1165    7.8636 C   0  0  0  0  0  0  0  0  0  0  0  0
   -4.7897   29.6019    8.2599 C   0  0  0  0  0  0  0  0  0  0  0  0
   -4.5986   30.8877    8.8399 C   0  0  0  0  0  0  0  0  0  0  0  0
   -3.3266   31.3626    9.1836 C   0  0  0  0  0  0  0  0  0  0  0  0
   -2.2677   30.5305    8.9196 C   0  0  0  0  0  0  0  0  0  0  0  0
   -0.9087   30.7207    9.1422 N   0  0  0  0  0  0  0  0  0  0  0  0
   -0.2166   29.5850    8.6989 C   0  0  0  0  0  0  0  0  0  0  0  0
    0.9868   29.4037    8.7372 O   0  0  0  0  0  0  0  0  0  0  0  0
   -1.1805   28.6960    8.2006 N   0  0  0  0  0  0  0  0  0  0  0  0
   -2.4363   29.2767    8.3379 C   0  0  0  0  0  0  0  0  0  0  0  0
   -3.6736   28.7857    7.9918 C   0  0  0  0  0  0  0  0  0  0  0  0
   -0.4637   31.5259    9.5505 H   0  0  0  0  0  0  0  0  0  0  0  0
   -0.9596   27.7932    7.8148 H   0  0  0  0  0  0  0  0  0  0  0  0
 14 15  1  0  0  0
 15 16  1  0  0  0
 15 13  1  0  0  0
 13  3  1  0  0  0
  3  4  2  0  0  0
  4  5  1  0  0  0
  5  6  2  0  0  0
  6  7  1  0  0  0
  7  8  2  0  0  0
  7  9  1  0  0  0
  9 10  2  0  0  0
 10 11  1  0  0  0
 11 12  2  0  0  0
 12  1  1  0  0  0
  1 17  1  0  0  0
 17 18  1  0  0  0
 18 19  1  0  0  0
 19 20  2  0  0  0
 20 21  1  0  0  0
 21 22  1  0  0  0
 22 23  1  0  0  0
 23 24  2  0  0  0
 23 25  1  0  0  0
 25 26  1  0  0  0
 26 27  1  0  0  0
  8  3  1  0  0  0
 27 18  2  0  0  0
 12  6  1  0  0  0
 26 21  2  0  0  0
  1  2  1  0  0  0
 22 28  1  0  0  0
 25 29  1  0  0  0
M  END
> <minimizedAffinity>
-9.91916

$$$$
OCNT-2312110


 25 28  0  0  0  0  0  0  0  0999 V2000
   -2.3547   28.0121    7.1481 C   0  0  0  0  0  0  0  0  0  0  0  0
   -1.6545   26.8743    7.2594 N   0  0  0  0  0  0  0  0  0  0  0  0
   -2.0858   26.1113    6.1794 O   0  0  0  0  0  0  0  0  0  0  0  0
   -2.9922   26.8704    5.4892 C   0  0  0  0  0  0  0  0  0  0  0  0
   -3.1753   28.0508    6.0422 N   0  0  0  0  0  0  0  0  0  0  0  0
   -2.1119   32.4314   10.5772 F   0  0  0  0  0  0  0  0  0  0  0  0
   -2.1518   31.3729    9.7581 C   0  0  0  0  0  0  0  0  0  0  0  0
   -3.3624   30.7404    9.5176 C   0  0  0  0  0  0  0  0  0  0  0  0
   -3.4002   29.6367    8.6635 C   0  0  0  0  0  0  0  0  0  0  0  0
   -2.2287   29.1604    8.0387 C   0  0  0  0  0  0  0  0  0  0  0  0
   -1.0120   29.8118    8.3127 C   0  0  0  0  0  0  0  0  0  0  0  0
    0.5132   29.2877    7.6839 Cl  0  0  0  0  0  0  0  0  0  0  0  0
   -0.9794   30.9195    9.1689 C   0  0  0  0  0  0  0  0  0  0  0  0
   -3.7070   26.3794    4.2004 C   0  0  0  0  0  0  0  0  0  0  0  0
   -3.4285   25.2147    3.5217 C   0  0  0  0  0  0  0  0  0  0  0  0
   -4.3094   25.2320    2.4813 N   0  0  0  0  0  0  0  0  0  0  0  0
   -5.0753   26.3361    2.5038 N   0  0  0  0  0  0  0  0  0  0  0  0
   -4.7167   27.0485    3.5653 N   0  0  0  0  0  0  0  0  0  0  0  0
   -4.4697   24.2466    1.4337 C   0  0  0  0  0  0  0  0  0  0  0  0
   -5.9373   23.9871    1.0804 C   0  0  0  0  0  0  0  0  0  0  0  0
   -6.1965   22.6074    0.4844 C   0  0  0  0  0  0  0  0  0  0  0  0
   -7.4938   22.7740   -0.2955 C   0  0  0  0  0  0  0  0  0  0  0  0
   -7.7060   24.2768   -0.4056 C   0  0  0  0  0  0  0  0  0  0  0  0
   -6.4413   24.8886    0.0212 N   0  0  0  0  0  0  0  0  0  0  0  0
   -5.7998   24.8767   -0.7734 H   0  0  0  0  0  0  0  0  0  0  0  0
  6  7  1  0  0  0
  7  8  1  0  0  0
  8  9  2  0  0  0
  9 10  1  0  0  0
 10  1  1  0  0  0
  1  2  2  0  0  0
  2  3  1  0  0  0
  3  4  1  0  0  0
  4 14  1  0  0  0
 14 15  2  0  0  0
 15 16  1  0  0  0
 16 19  1  0  0  0
 19 20  1  0  0  0
 20 21  1  0  0  0
 21 22  1  0  0  0
 22 23  1  0  0  0
 23 24  1  0  0  0
 16 17  1  0  0  0
 17 18  2  0  0  0
  4  5  2  0  0  0
 10 11  2  0  0  0
 11 12  1  0  0  0
 11 13  1  0  0  0
 13  7  2  0  0  0
  5  1  1  0  0  0
 18 14  1  0  0  0
 24 20  1  0  0  0
 24 25  1  0  0  0
M  END
> <minimizedAffinity>
-9.77065

$$$$
OCNT-2312113


 22 24  0  0  0  0  0  0  0  0999 V2000
   -6.2495   22.8851    2.3242 N   0  0  0  0  0  0  0  0  0  0  0  0
   -7.0897   22.5616    1.2869 C   0  0  0  0  0  0  0  0  0  0  0  0
   -7.1508   23.3889    0.2917 N   0  0  0  0  0  0  0  0  0  0  0  0
   -6.2811   24.4000    0.6501 C   0  0  0  0  0  0  0  0  0  0  0  0
   -5.9248   25.3147   -0.0782 O   0  0  0  0  0  0  0  0  0  0  0  0
   -5.8144   24.1766    1.9499 N   0  0  0  0  0  0  0  0  0  0  0  0
   -8.2691   22.1935    7.6793 C   0  0  0  0  0  0  0  0  0  0  0  0
   -7.7076   22.3683    6.2961 C   0  0  0  0  0  0  0  0  0  0  0  0
   -8.5562   22.7455    5.2479 C   0  0  0  0  0  0  0  0  0  0  0  0
   -8.0576   22.9133    3.9522 C   0  0  0  0  0  0  0  0  0  0  0  0
   -6.6987   22.7102    3.6628 C   0  0  0  0  0  0  0  0  0  0  0  0
   -5.8529   22.3340    4.7159 C   0  0  0  0  0  0  0  0  0  0  0  0
   -6.3498   22.1651    6.0141 C   0  0  0  0  0  0  0  0  0  0  0  0
   -5.2331   21.7001    7.2484 Cl  0  0  0  0  0  0  0  0  0  0  0  0
   -4.4770   24.5983    2.3297 C   0  0  0  0  0  0  0  0  0  0  0  0
   -4.4690   25.8492    3.2167 C   0  0  0  0  0  0  0  0  0  0  0  0
   -5.8859   26.3031    3.6146 C   0  0  0  0  0  0  0  0  0  0  0  0
   -6.0155   27.8227    3.5415 C   0  0  0  0  0  0  0  0  0  0  0  0
   -5.6476   28.3168    4.9358 C   0  0  0  0  0  0  0  0  0  0  0  0
   -5.5952   27.1381    5.8126 N   0  0  0  0  0  0  0  0  0  0  0  0
   -6.2400   26.0483    5.0749 C   0  0  0  0  0  0  0  0  0  0  0  0
   -4.6176   26.8984    5.9771 H   0  0  0  0  0  0  0  0  0  0  0  0
  7  8  1  0  0  0
  8  9  1  0  0  0
  9 10  2  0  0  0
 10 11  1  0  0  0
 11  1  1  0  0  0
  1  2  1  0  0  0
  2  3  2  0  0  0
  3  4  1  0  0  0
  4  5  2  0  0  0
  4  6  1  0  0  0
  6 15  1  0  0  0
 15 16  1  0  0  0
 16 17  1  0  0  0
 17 18  1  0  0  0
 18 19  1  0  0  0
 19 20  1  0  0  0
 20 21  1  0  0  0
 11 12  2  0  0  0
 12 13  1  0  0  0
 13 14  1  0  0  0
 13  8  2  0  0  0
  6  1  1  0  0  0
 21 17  1  0  0  0
 20 22  1  0  0  0
M  END
> <minimizedAffinity>
-8.13767

$$$$
OCNT-2312118


 30 33  0  0  0  0  0  0  0  0999 V2000
   -6.2554   29.7633    6.6045 C   0  0  0  0  0  0  0  0  0  0  0  0
   -7.3800   30.1535    6.9256 O   0  0  0  0  0  0  0  0  0  0  0  0
   -5.0808   30.3699    7.0759 N   0  0  0  0  0  0  0  0  0  0  0  0
   -5.3279   31.6872    7.6800 C   0  0  0  0  0  0  0  0  0  0  0  0
   -4.1330   32.3114    8.4047 C   0  0  0  0  0  0  0  0  0  0  0  0
   -2.9447   32.3513    7.5446 N   0  0  0  0  0  0  0  0  0  0  0  0
   -2.5950   30.9667    7.1992 C   0  0  0  0  0  0  0  0  0  0  0  0
   -3.7301   30.1643    6.4799 C   0  0  0  0  0  0  0  0  0  0  0  0
   -2.1727   32.7693    8.0645 H   0  0  0  0  0  0  0  0  0  0  0  0
   -5.9153   30.0506    3.6974 O   0  0  0  0  0  0  0  0  0  0  0  0
   -5.9599   28.9217    4.1752 C   0  0  0  0  0  0  0  0  0  0  0  0
   -5.8396   27.8039    3.3785 N   0  0  0  0  0  0  0  0  0  0  0  0
   -5.8723   26.5108    3.8427 C   0  0  0  0  0  0  0  0  0  0  0  0
   -6.0160   26.2816    5.1586 C   0  0  0  0  0  0  0  0  0  0  0  0
   -6.1460   27.3921    6.0765 C   0  0  0  0  0  0  0  0  0  0  0  0
   -6.1615   28.6603    5.6270 C   0  0  0  0  0  0  0  0  0  0  0  0
   -5.7366   27.9848    2.3880 H   0  0  0  0  0  0  0  0  0  0  0  0
   -5.7258   25.4189    2.8707 C   0  0  0  0  0  0  0  0  0  0  0  0
   -5.8265   25.6599    1.4991 C   0  0  0  0  0  0  0  0  0  0  0  0
   -5.6652   24.5953    0.6281 C   0  0  0  0  0  0  0  0  0  0  0  0
   -5.4193   23.3299    1.0278 N   0  0  0  0  0  0  0  0  0  0  0  0
   -5.3263   23.1188    2.3574 C   0  0  0  0  0  0  0  0  0  0  0  0
   -5.4668   24.1173    3.3066 C   0  0  0  0  0  0  0  0  0  0  0  0
   -3.2714   28.7098    6.4540 C   0  0  0  0  0  0  0  0  0  0  0  0
   -3.0979   27.9760    7.6393 C   0  0  0  0  0  0  0  0  0  0  0  0
   -2.6684   26.6478    7.5987 C   0  0  0  0  0  0  0  0  0  0  0  0
   -2.3954   26.0381    6.3753 C   0  0  0  0  0  0  0  0  0  0  0  0
   -2.5477   26.7619    5.1961 C   0  0  0  0  0  0  0  0  0  0  0  0
   -2.2119   26.0137    3.6834 Cl  0  0  0  0  0  0  0  0  0  0  0  0
   -2.9743   28.0898    5.2285 C   0  0  0  0  0  0  0  0  0  0  0  0
 10 11  2  0  0  0
 11 12  1  0  0  0
 12 13  1  0  0  0
 13 18  1  0  0  0
 18 19  2  0  0  0
 19 20  1  0  0  0
 20 21  2  0  0  0
 21 22  1  0  0  0
 22 23  2  0  0  0
 13 14  2  0  0  0
 14 15  1  0  0  0
 15 16  2  0  0  0
 16  1  1  0  0  0
  1  2  2  0  0  0
  1  3  1  0  0  0
  3  4  1  0  0  0
  4  5  1  0  0  0
  5  6  1  0  0  0
  6  7  1  0  0  0
  7  8  1  0  0  0
  8 24  1  0  0  0
 24 25  2  0  0  0
 25 26  1  0  0  0
 26 27  2  0  0  0
 27 28  1  0  0  0
 28 29  1  0  0  0
 28 30  2  0  0  0
 16 11  1  0  0  0
  8  3  1  0  0  0
 30 24  1  0  0  0
 23 18  1  0  0  0
 12 17  1  0  0  0
  6  9  1  0  0  0
M  END
> <minimizedAffinity>
-7.38790

$$$$
OCNT-2312136


 23 25  0  0  0  0  0  0  0  0999 V2000
   -2.9056   26.0530    3.8354 C   0  0  0  0  0  0  0  0  0  0  0  0
   -4.0502   25.4244    4.5007 N   0  0  0  0  0  0  0  0  0  0  0  0
   -4.0929   25.7282    5.4746 H   0  0  0  0  0  0  0  0  0  0  0  0
   -6.4587   24.7162    4.5130 C   0  0  0  0  0  0  0  0  0  0  0  0
   -5.3836   25.6361    3.8912 C   0  0  0  0  0  0  0  0  0  0  0  0
   -5.3157   25.3306    2.3769 C   0  0  0  0  0  0  0  0  0  0  0  0
   -5.7864   27.0961    4.1876 C   0  0  0  0  0  0  0  0  0  0  0  0
   -6.1679   27.4604    5.4918 C   0  0  0  0  0  0  0  0  0  0  0  0
   -6.5323   28.7710    5.7612 C   0  0  0  0  0  0  0  0  0  0  0  0
   -6.5487   29.7490    4.8347 N   0  0  0  0  0  0  0  0  0  0  0  0
   -6.1799   29.3954    3.5873 C   0  0  0  0  0  0  0  0  0  0  0  0
   -5.7976   28.1103    3.2212 C   0  0  0  0  0  0  0  0  0  0  0  0
   -1.6479   25.9183    4.7018 C   0  0  0  0  0  0  0  0  0  0  0  0
   -1.5963   26.9975    5.7202 C   0  0  0  0  0  0  0  0  0  0  0  0
   -2.5916   27.7093    6.2148 N   0  0  0  0  0  0  0  0  0  0  0  0
   -1.9746   28.5549    7.1025 C   0  0  0  0  0  0  0  0  0  0  0  0
   -2.4960   29.5481    7.9405 C   0  0  0  0  0  0  0  0  0  0  0  0
   -1.5935   30.2566    8.7452 C   0  0  0  0  0  0  0  0  0  0  0  0
   -2.2535   31.6094    9.8942 Br  0  0  0  0  0  0  0  0  0  0  0  0
   -0.2176   29.9912    8.7219 C   0  0  0  0  0  0  0  0  0  0  0  0
    0.3135   28.9998    7.8870 C   0  0  0  0  0  0  0  0  0  0  0  0
   -0.6090   28.3177    7.1038 C   0  0  0  0  0  0  0  0  0  0  0  0
   -0.3577   27.3160    6.2131 O   0  0  0  0  0  0  0  0  0  0  0  0
  4  5  1  0  0  0
  5  6  1  0  0  0
  5  2  1  0  0  0
  2  1  1  0  0  0
  1 13  1  0  0  0
 13 14  1  0  0  0
 14 15  2  0  0  0
 15 16  1  0  0  0
 16 17  2  0  0  0
 17 18  1  0  0  0
 18 19  1  0  0  0
 18 20  2  0  0  0
 20 21  1  0  0  0
 21 22  2  0  0  0
 22 23  1  0  0  0
  5  7  1  0  0  0
  7  8  2  0  0  0
  8  9  1  0  0  0
  9 10  2  0  0  0
 10 11  1  0  0  0
 11 12  2  0  0  0
 23 14  1  0  0  0
 12  7  1  0  0  0
 22 16  1  0  0  0
  2  3  1  0  0  0
M  END
> <minimizedAffinity>
-8.55523

$$$$
OCNT-2312140


 23 26  0  0  0  0  0  0  0  0999 V2000
   -2.5320   27.0480    5.4805 N   0  0  0  0  0  0  0  0  0  0  0  0
   -3.7062   26.7243    4.8397 C   0  0  0  0  0  0  0  0  0  0  0  0
   -3.3401   25.8033    3.8875 C   0  0  0  0  0  0  0  0  0  0  0  0
   -1.9962   25.5866    3.9590 N   0  0  0  0  0  0  0  0  0  0  0  0
   -1.5099   26.3471    4.9305 N   0  0  0  0  0  0  0  0  0  0  0  0
   -4.2880   25.0995    2.8714 C   0  0  0  0  0  0  0  0  0  0  0  0
   -4.9276   25.7249    1.8199 C   0  0  0  0  0  0  0  0  0  0  0  0
   -5.7331   24.8177    1.0608 C   0  0  0  0  0  0  0  0  0  0  0  0
   -5.6558   23.5397    1.5799 C   0  0  0  0  0  0  0  0  0  0  0  0
   -6.4077   22.3722    1.0252 C   0  0  0  0  0  0  0  0  0  0  0  0
   -7.0131   22.7584   -0.3420 C   0  0  0  0  0  0  0  0  0  0  0  0
   -7.5929   24.1182   -0.3543 N   0  0  0  0  0  0  0  0  0  0  0  0
   -6.5477   25.1391   -0.1574 C   0  0  0  0  0  0  0  0  0  0  0  0
   -4.6528   23.4321    2.9434 S   0  0  0  0  0  0  0  0  0  0  0  0
   -8.2517   24.1944    0.4213 H   0  0  0  0  0  0  0  0  0  0  0  0
    0.5325   29.3990    8.6354 C   0  0  0  0  0  0  0  0  0  0  0  0
   -0.8411   29.0996    8.1148 C   0  0  0  0  0  0  0  0  0  0  0  0
   -1.0309   28.2047    7.0491 C   0  0  0  0  0  0  0  0  0  0  0  0
   -2.3217   27.9557    6.5528 C   0  0  0  0  0  0  0  0  0  0  0  0
   -3.4229   28.6155    7.1230 C   0  0  0  0  0  0  0  0  0  0  0  0
   -3.2335   29.5153    8.1728 C   0  0  0  0  0  0  0  0  0  0  0  0
   -1.9515   29.7527    8.6549 C   0  0  0  0  0  0  0  0  0  0  0  0
   -1.7886   30.6277    9.6573 F   0  0  0  0  0  0  0  0  0  0  0  0
 16 17  1  0  0  0
 17 18  1  0  0  0
 18 19  2  0  0  0
 19  1  1  0  0  0
  1  2  1  0  0  0
  2  3  2  0  0  0
  3  6  1  0  0  0
  6  7  2  0  0  0
  7  8  1  0  0  0
  8  9  2  0  0  0
  9 10  1  0  0  0
 10 11  1  0  0  0
 11 12  1  0  0  0
 12 13  1  0  0  0
  9 14  1  0  0  0
  3  4  1  0  0  0
  4  5  2  0  0  0
 19 20  1  0  0  0
 20 21  2  0  0  0
 21 22  1  0  0  0
 22 23  1  0  0  0
 22 17  2  0  0  0
  5  1  1  0  0  0
 14  6  1  0  0  0
 13  8  1  0  0  0
 12 15  1  0  0  0
M  END
> <minimizedAffinity>
-9.28757

$$$$
OCNT-2312148


 28 31  0  0  0  0  0  0  0  0999 V2000
   -2.8598   26.9283    6.7098 O   0  0  0  0  0  0  0  0  0  0  0  0
   -3.8585   27.4202    6.1915 C   0  0  0  0  0  0  0  0  0  0  0  0
   -4.5029   28.5489    6.6820 N   0  0  0  0  0  0  0  0  0  0  0  0
   -5.5030   29.3292    5.9365 C   0  0  0  0  0  0  0  0  0  0  0  0
   -6.0891   30.4819    6.7713 C   0  0  0  0  0  0  0  0  0  0  0  0
   -5.0975   31.3886    7.3491 N   0  0  0  0  0  0  0  0  0  0  0  0
   -3.8330   30.7180    7.7453 C   0  0  0  0  0  0  0  0  0  0  0  0
   -3.9836   29.1837    7.8987 C   0  0  0  0  0  0  0  0  0  0  0  0
   -4.8945   32.1629    6.7211 H   0  0  0  0  0  0  0  0  0  0  0  0
   -4.3755   26.7738    4.9661 C   0  0  0  0  0  0  0  0  0  0  0  0
   -3.5581   26.7236    3.8341 C   0  0  0  0  0  0  0  0  0  0  0  0
   -4.0128   26.0848    2.6750 C   0  0  0  0  0  0  0  0  0  0  0  0
   -5.2810   25.4834    2.6426 C   0  0  0  0  0  0  0  0  0  0  0  0
   -6.0806   25.5275    3.7942 C   0  0  0  0  0  0  0  0  0  0  0  0
   -5.6262   26.1544    4.9572 C   0  0  0  0  0  0  0  0  0  0  0  0
   -5.7874   24.8138    1.4561 C   0  0  0  0  0  0  0  0  0  0  0  0
   -5.9663   23.4559    1.2845 C   0  0  0  0  0  0  0  0  0  0  0  0
   -6.4858   23.3200    0.0267 N   0  0  0  0  0  0  0  0  0  0  0  0
   -6.5995   24.5703   -0.5120 C   0  0  0  0  0  0  0  0  0  0  0  0
   -6.1888   25.4921    0.3254 N   0  0  0  0  0  0  0  0  0  0  0  0
   -6.7473   22.4531   -0.4258 H   0  0  0  0  0  0  0  0  0  0  0  0
   -2.6584   31.0328    6.7794 C   0  0  0  0  0  0  0  0  0  0  0  0
   -1.3398   30.4051    7.1752 C   0  0  0  0  0  0  0  0  0  0  0  0
   -0.9061   30.4393    8.5087 C   0  0  0  0  0  0  0  0  0  0  0  0
    0.3109   29.8584    8.8754 C   0  0  0  0  0  0  0  0  0  0  0  0
    1.1069   29.2403    7.9140 C   0  0  0  0  0  0  0  0  0  0  0  0
    0.6859   29.1982    6.5862 C   0  0  0  0  0  0  0  0  0  0  0  0
   -0.5331   29.7788    6.2164 C   0  0  0  0  0  0  0  0  0  0  0  0
  1  2  2  0  0  0
  2 10  1  0  0  0
 10 11  1  0  0  0
 11 12  2  0  0  0
 12 13  1  0  0  0
 13 16  1  0  0  0
 16 17  2  0  0  0
 17 18  1  0  0  0
 18 19  1  0  0  0
 19 20  2  0  0  0
 13 14  2  0  0  0
 14 15  1  0  0  0
  2  3  1  0  0  0
  3  4  1  0  0  0
  4  5  1  0  0  0
  5  6  1  0  0  0
  6  7  1  0  0  0
  7 22  1  0  0  0
 22 23  1  0  0  0
 23 24  2  0  0  0
 24 25  1  0  0  0
 25 26  2  0  0  0
 26 27  1  0  0  0
 27 28  2  0  0  0
  7  8  1  0  0  0
 15 10  2  0  0  0
  8  3  1  0  0  0
 20 16  1  0  0  0
 28 23  1  0  0  0
 18 21  1  0  0  0
  6  9  1  0  0  0
M  END
> <minimizedAffinity>
-9.25429

$$$$
OCNT-2312150


 27 30  0  0  0  0  0  0  0  0999 V2000
   -3.2500   29.3462    7.0390 C   0  0  0  0  0  0  0  0  0  0  0  0
   -2.0407   28.7841    6.8933 N   0  0  0  0  0  0  0  0  0  0  0  0
   -2.2897   27.6688    6.0987 O   0  0  0  0  0  0  0  0  0  0  0  0
   -3.6340   27.6571    5.8333 C   0  0  0  0  0  0  0  0  0  0  0  0
   -4.2586   28.6727    6.3935 N   0  0  0  0  0  0  0  0  0  0  0  0
   -5.7022   33.4589    7.8065 F   0  0  0  0  0  0  0  0  0  0  0  0
   -4.7305   32.6155    8.1808 C   0  0  0  0  0  0  0  0  0  0  0  0
   -4.5104   31.4597    7.4327 C   0  0  0  0  0  0  0  0  0  0  0  0
   -3.4982   30.5615    7.8061 C   0  0  0  0  0  0  0  0  0  0  0  0
   -2.7204   30.8511    8.9386 C   0  0  0  0  0  0  0  0  0  0  0  0
   -2.9567   32.0121    9.6728 C   0  0  0  0  0  0  0  0  0  0  0  0
   -2.2026   32.2685   10.7503 F   0  0  0  0  0  0  0  0  0  0  0  0
   -3.9585   32.8955    9.2988 C   0  0  0  0  0  0  0  0  0  0  0  0
   -4.1788   34.0094   10.0107 F   0  0  0  0  0  0  0  0  0  0  0  0
   -4.3179   26.5527    4.9611 C   0  0  0  0  0  0  0  0  0  0  0  0
   -5.6405   26.3474    4.9461 N   0  0  0  0  0  0  0  0  0  0  0  0
   -5.8454   25.2965    4.0689 O   0  0  0  0  0  0  0  0  0  0  0  0
   -4.6506   24.8910    3.5597 C   0  0  0  0  0  0  0  0  0  0  0  0
   -3.6460   25.6564    4.1007 C   0  0  0  0  0  0  0  0  0  0  0  0
   -4.6874   23.7655    2.5906 C   0  0  0  0  0  0  0  0  0  0  0  0
   -5.9235   23.8151    1.6686 C   0  0  0  0  0  0  0  0  0  0  0  0
   -5.9881   22.6068    0.7200 C   0  0  0  0  0  0  0  0  0  0  0  0
   -7.2442   22.6418   -0.1526 C   0  0  0  0  0  0  0  0  0  0  0  0
   -7.7322   24.0636   -0.4167 C   0  0  0  0  0  0  0  0  0  0  0  0
   -6.5809   25.0589   -0.3706 C   0  0  0  0  0  0  0  0  0  0  0  0
   -5.8973   25.0903    0.9234 N   0  0  0  0  0  0  0  0  0  0  0  0
   -6.3006   25.8251    1.5053 H   0  0  0  0  0  0  0  0  0  0  0  0
  6  7  1  0  0  0
  7  8  2  0  0  0
  8  9  1  0  0  0
  9  1  1  0  0  0
  1  2  2  0  0  0
  2  3  1  0  0  0
  3  4  1  0  0  0
  4 15  1  0  0  0
 15 16  2  0  0  0
 16 17  1  0  0  0
 17 18  1  0  0  0
 18 20  1  0  0  0
 20 21  1  0  0  0
 21 22  1  0  0  0
 22 23  1  0  0  0
 23 24  1  0  0  0
 24 25  1  0  0  0
 25 26  1  0  0  0
 18 19  2  0  0  0
  4  5  2  0  0  0
  9 10  2  0  0  0
 10 11  1  0  0  0
 11 12  1  0  0  0
 11 13  2  0  0  0
 13 14  1  0  0  0
 13  7  1  0  0  0
  5  1  1  0  0  0
 19 15  1  0  0  0
 26 21  1  0  0  0
 26 27  1  0  0  0
M  END
> <minimizedAffinity>
-10.10519

$$$$
OCNT-2312156


 22 25  0  0  0  0  0  0  0  0999 V2000
   -2.1836   27.5563    7.8905 O   0  0  0  0  0  0  0  0  0  0  0  0
   -2.4371   27.7910    6.7152 C   0  0  0  0  0  0  0  0  0  0  0  0
   -3.1201   28.8899    6.2496 N   0  0  0  0  0  0  0  0  0  0  0  0
   -3.2292   29.0375    5.2604 H   0  0  0  0  0  0  0  0  0  0  0  0
   -3.6195   29.8578    7.0719 C   0  0  0  0  0  0  0  0  0  0  0  0
   -4.5932   29.7989    7.9426 N   0  0  0  0  0  0  0  0  0  0  0  0
   -4.7435   31.0356    8.5422 C   0  0  0  0  0  0  0  0  0  0  0  0
   -3.8704   32.0082    8.1078 C   0  0  0  0  0  0  0  0  0  0  0  0
   -2.8323   31.3679    6.9128 S   0  0  0  0  0  0  0  0  0  0  0  0
   -3.8031   33.4872    8.5963 C   0  0  0  0  0  0  0  0  0  0  0  0
   -4.7593   33.9987    9.6410 C   0  0  0  0  0  0  0  0  0  0  0  0
   -4.9022   34.4427    8.2126 C   0  0  0  0  0  0  0  0  0  0  0  0
   -2.0094   26.8968    5.6396 C   0  0  0  0  0  0  0  0  0  0  0  0
   -0.7156   26.5086    5.3025 C   0  0  0  0  0  0  0  0  0  0  0  0
   -0.7716   25.7085    4.1419 C   0  0  0  0  0  0  0  0  0  0  0  0
   -2.0930   25.6160    3.7830 C   0  0  0  0  0  0  0  0  0  0  0  0
   -2.8503   26.2948    4.7110 N   0  0  0  0  0  0  0  0  0  0  0  0
   -4.3086   26.3806    4.6852 C   0  0  0  0  0  0  0  0  0  0  0  0
   -5.0392   25.0359    4.8886 C   0  0  0  0  0  0  0  0  0  0  0  0
   -6.1534   25.0281    3.8498 C   0  0  0  0  0  0  0  0  0  0  0  0
   -5.5619   25.8009    2.6846 C   0  0  0  0  0  0  0  0  0  0  0  0
   -4.8358   26.9563    3.3605 C   0  0  0  0  0  0  0  0  0  0  0  0
  1  2  2  0  0  0
  2  3  1  0  0  0
  3  5  1  0  0  0
  5  6  2  0  0  0
  6  7  1  0  0  0
  7  8  2  0  0  0
  8 10  1  0  0  0
 10 11  1  0  0  0
 11 12  1  0  0  0
  8  9  1  0  0  0
  2 13  1  0  0  0
 13 14  2  0  0  0
 14 15  1  0  0  0
 15 16  2  0  0  0
 16 17  1  0  0  0
 17 18  1  0  0  0
 18 19  1  0  0  0
 19 20  1  0  0  0
 20 21  1  0  0  0
 21 22  1  0  0  0
  9  5  1  0  0  0
 17 13  1  0  0  0
 22 18  1  0  0  0
 12 10  1  0  0  0
  3  4  1  0  0  0
M  END
> <minimizedAffinity>
-8.26612

$$$$
OCNT-2312165


 23 25  0  0  0  0  0  0  0  0999 V2000
   -7.0859   29.8456    6.4219 C   0  0  0  0  0  0  0  0  0  0  0  0
   -5.4901   27.0982    3.4601 C   0  0  0  0  0  0  0  0  0  0  0  0
   -6.2434   26.5724    4.6915 C   0  0  0  0  0  0  0  0  0  0  0  0
   -6.2606   27.6162    5.8139 C   0  0  0  0  0  0  0  0  0  0  0  0
   -6.8409   28.8762    5.3433 N   0  0  0  0  0  0  0  0  0  0  0  0
   -6.1020   29.4324    4.2068 C   0  0  0  0  0  0  0  0  0  0  0  0
   -6.0889   28.4444    3.0357 C   0  0  0  0  0  0  0  0  0  0  0  0
   -5.4036   26.0529    2.3271 C   0  0  0  0  0  0  0  0  0  0  0  0
   -3.9975   24.0221    2.8237 C   0  0  0  0  0  0  0  0  0  0  0  0
   -4.0431   25.3745    2.1210 C   0  0  0  0  0  0  0  0  0  0  0  0
   -3.0187   26.1926    2.6802 O   0  0  0  0  0  0  0  0  0  0  0  0
   -2.1658   25.7729    2.4752 H   0  0  0  0  0  0  0  0  0  0  0  0
   -5.9884   29.9981    7.4427 C   0  0  0  0  0  0  0  0  0  0  0  0
   -5.9935   29.6223    8.7738 C   0  0  0  0  0  0  0  0  0  0  0  0
   -4.7590   29.9092    9.4267 C   0  0  0  0  0  0  0  0  0  0  0  0
   -3.8437   30.4761    8.5681 C   0  0  0  0  0  0  0  0  0  0  0  0
   -4.4650   30.6523    6.9926 S   0  0  0  0  0  0  0  0  0  0  0  0
   -2.4000   30.9035    8.9834 C   0  0  0  0  0  0  0  0  0  0  0  0
   -2.1090   32.0905    9.5427 N   0  0  0  0  0  0  0  0  0  0  0  0
   -0.7835   31.9528    9.6946 N   0  0  0  0  0  0  0  0  0  0  0  0
   -0.2587   30.7954    9.2777 N   0  0  0  0  0  0  0  0  0  0  0  0
   -1.2940   30.1078    8.8156 N   0  0  0  0  0  0  0  0  0  0  0  0
   -0.2058   32.6828   10.1024 H   0  0  0  0  0  0  0  0  0  0  0  0
  9 10  1  0  0  0
 10 11  1  0  0  0
 10  8  1  0  0  0
  8  2  1  0  0  0
  2  3  1  0  0  0
  3  4  1  0  0  0
  4  5  1  0  0  0
  5  1  1  0  0  0
  1 13  1  0  0  0
 13 14  2  0  0  0
 14 15  1  0  0  0
 15 16  2  0  0  0
 16 18  1  0  0  0
 18 19  2  0  0  0
 19 20  1  0  0  0
 20 21  1  0  0  0
 21 22  2  0  0  0
 16 17  1  0  0  0
  5  6  1  0  0  0
  6  7  1  0  0  0
  7  2  1  0  0  0
 17 13  1  0  0  0
 22 18  1  0  0  0
 11 12  1  0  0  0
 20 23  1  0  0  0
M  END
> <minimizedAffinity>
-7.76645

$$$$
OCNT-2312180


 31 32  0  0  0  0  0  0  0  0999 V2000
   -5.7219   28.9896    5.9067 C   0  0  0  0  0  0  0  0  0  0  0  0
   -6.0758   29.5057    4.6632 C   0  0  0  0  0  0  0  0  0  0  0  0
   -6.0479   28.6688    3.5519 C   0  0  0  0  0  0  0  0  0  0  0  0
   -5.6716   27.3176    3.6757 C   0  0  0  0  0  0  0  0  0  0  0  0
   -5.6400   26.4735    2.4284 C   0  0  0  0  0  0  0  0  0  0  0  0
   -5.3427   26.7928    4.9466 C   0  0  0  0  0  0  0  0  0  0  0  0
   -5.3510   27.6469    6.0531 C   0  0  0  0  0  0  0  0  0  0  0  0
   -5.7227   30.0443    7.3323 S   0  0  0  0  0  0  0  0  0  0  0  0
   -5.3444   29.2251    8.4633 O   0  0  0  0  0  0  0  0  0  0  0  0
   -6.9465   30.8147    7.3427 O   0  0  0  0  0  0  0  0  0  0  0  0
   -4.4107   31.0712    7.0424 N   0  0  0  0  0  0  0  0  0  0  0  0
   -4.4597   31.4553    6.1003 H   0  0  0  0  0  0  0  0  0  0  0  0
    0.7988   29.4931    8.8288 C   0  0  0  0  0  0  0  0  0  0  0  0
   -0.5610   29.9177    8.3579 C   0  0  0  0  0  0  0  0  0  0  0  0
   -1.1350   29.3384    7.2241 C   0  0  0  0  0  0  0  0  0  0  0  0
   -2.4089   29.7235    6.8050 C   0  0  0  0  0  0  0  0  0  0  0  0
   -3.1289   30.6790    7.5246 C   0  0  0  0  0  0  0  0  0  0  0  0
   -2.5785   31.2643    8.6744 C   0  0  0  0  0  0  0  0  0  0  0  0
   -3.2995   32.3247    9.4561 C   0  0  0  0  0  0  0  0  0  0  0  0
   -1.2919   30.8708    9.0799 C   0  0  0  0  0  0  0  0  0  0  0  0
   -4.8399   25.4515    5.0188 N   0  0  0  0  0  0  0  0  0  0  0  0
   -4.0175   25.2389    4.4544 H   0  0  0  0  0  0  0  0  0  0  0  0
   -5.7999   24.0863    5.1559 S   0  0  0  0  0  0  0  0  0  0  0  0
   -7.1623   24.5761    5.1054 O   0  0  0  0  0  0  0  0  0  0  0  0
   -5.3511   23.2704    6.2604 O   0  0  0  0  0  0  0  0  0  0  0  0
   -5.4888   23.2244    3.6270 C   0  0  0  0  0  0  0  0  0  0  0  0
   -6.7466   22.5915    3.0677 C   0  0  0  0  0  0  0  0  0  0  0  0
   -7.2627   23.3852    1.9958 O   0  0  0  0  0  0  0  0  0  0  0  0
   -6.6316   23.1511    0.7339 C   0  0  0  0  0  0  0  0  0  0  0  0
   -6.0855   21.7283    0.6829 C   0  0  0  0  0  0  0  0  0  0  0  0
   -7.6911   23.3490   -0.3415 C   0  0  0  0  0  0  0  0  0  0  0  0
 13 14  1  0  0  0
 14 15  1  0  0  0
 15 16  2  0  0  0
 16 17  1  0  0  0
 17 11  1  0  0  0
 11  8  1  0  0  0
  8  9  2  0  0  0
  8 10  2  0  0  0
  8  1  1  0  0  0
  1  2  1  0  0  0
  2  3  2  0  0  0
  3  4  1  0  0  0
  4  5  1  0  0  0
  4  6  2  0  0  0
  6 21  1  0  0  0
 21 23  1  0  0  0
 23 24  2  0  0  0
 23 25  2  0  0  0
 23 26  1  0  0  0
 26 27  1  0  0  0
 27 28  1  0  0  0
 28 29  1  0  0  0
 29 30  1  0  0  0
 29 31  1  0  0  0
  6  7  1  0  0  0
 17 18  2  0  0  0
 18 19  1  0  0  0
 18 20  1  0  0  0
 20 14  2  0  0  0
  7  1  2  0  0  0
 11 12  1  0  0  0
 21 22  1  0  0  0
M  END
> <minimizedAffinity>
-9.26875

$$$$
OCNT-2312204


 25 27  0  0  0  0  0  0  0  0999 V2000
   -5.4320   23.8193    3.6303 N   0  0  0  0  0  0  0  0  0  0  0  0
   -4.6693   24.9747    3.8231 C   0  0  0  0  0  0  0  0  0  0  0  0
   -3.6528   25.2080    3.1635 O   0  0  0  0  0  0  0  0  0  0  0  0
   -8.1388   22.2710    6.5240 C   0  0  0  0  0  0  0  0  0  0  0  0
   -6.7648   22.1194    6.6906 C   0  0  0  0  0  0  0  0  0  0  0  0
   -5.8769   22.6302    5.7336 C   0  0  0  0  0  0  0  0  0  0  0  0
   -6.3453   23.2842    4.5882 C   0  0  0  0  0  0  0  0  0  0  0  0
   -7.7265   23.4486    4.4403 C   0  0  0  0  0  0  0  0  0  0  0  0
   -8.6126   22.9419    5.3971 C   0  0  0  0  0  0  0  0  0  0  0  0
   -8.8949   22.0436    8.7654 C   0  0  0  0  0  0  0  0  0  0  0  0
   -9.1095   21.8255    7.3764 O   0  0  0  0  0  0  0  0  0  0  0  0
   -5.1110   22.9802    2.4649 C   0  0  0  0  0  0  0  0  0  0  0  0
   -6.0552   23.2375    1.3198 C   0  0  0  0  0  0  0  0  0  0  0  0
   -6.9992   22.3959    0.7606 C   0  0  0  0  0  0  0  0  0  0  0  0
   -7.7176   23.0082   -0.3062 C   0  0  0  0  0  0  0  0  0  0  0  0
   -7.3178   24.3076   -0.5161 C   0  0  0  0  0  0  0  0  0  0  0  0
   -6.0922   24.7854    0.5739 S   0  0  0  0  0  0  0  0  0  0  0  0
   -5.1745   25.9946    4.8451 C   0  0  0  0  0  0  0  0  0  0  0  0
   -4.8679   27.4521    4.4441 C   0  0  0  0  0  0  0  0  0  0  0  0
   -5.8803   27.9667    3.4016 C   0  0  0  0  0  0  0  0  0  0  0  0
   -6.0843   29.4737    3.5149 C   0  0  0  0  0  0  0  0  0  0  0  0
   -6.6400   29.8629    4.8120 N   0  0  0  0  0  0  0  0  0  0  0  0
   -6.1820   29.0397    5.9310 C   0  0  0  0  0  0  0  0  0  0  0  0
   -4.8335   28.3699    5.6819 C   0  0  0  0  0  0  0  0  0  0  0  0
   -6.4208   30.8435    4.9851 H   0  0  0  0  0  0  0  0  0  0  0  0
 10 11  1  0  0  0
 11  4  1  0  0  0
  4  5  1  0  0  0
  5  6  2  0  0  0
  6  7  1  0  0  0
  7  1  1  0  0  0
  1 12  1  0  0  0
 12 13  1  0  0  0
 13 14  2  0  0  0
 14 15  1  0  0  0
 15 16  2  0  0  0
 16 17  1  0  0  0
  1  2  1  0  0  0
  2  3  2  0  0  0
  2 18  1  0  0  0
 18 19  1  0  0  0
 19 20  1  0  0  0
 20 21  1  0  0  0
 21 22  1  0  0  0
 22 23  1  0  0  0
 23 24  1  0  0  0
  7  8  2  0  0  0
  8  9  1  0  0  0
  9  4  2  0  0  0
 17 13  1  0  0  0
 24 19  1  0  0  0
 22 25  1  0  0  0
M  END
> <minimizedAffinity>
-8.29368

$$$$
OCNT-2312206


 27 30  0  0  0  0  0  0  0  0999 V2000
   -5.5611   28.8116    5.1210 C   0  0  0  0  0  0  0  0  0  0  0  0
   -6.3459   29.6753    4.7249 O   0  0  0  0  0  0  0  0  0  0  0  0
   -5.4051   27.6019    4.4090 N   0  0  0  0  0  0  0  0  0  0  0  0
   -5.9921   27.5355    3.0730 C   0  0  0  0  0  0  0  0  0  0  0  0
   -6.7194   28.9269    8.1348 C   0  0  0  0  0  0  0  0  0  0  0  0
   -5.3235   29.1229    7.6749 C   0  0  0  0  0  0  0  0  0  0  0  0
   -4.3488   29.3907    8.5508 N   0  0  0  0  0  0  0  0  0  0  0  0
   -3.2575   29.5088    7.7519 N   0  0  0  0  0  0  0  0  0  0  0  0
   -3.4828   29.3349    6.4224 N   0  0  0  0  0  0  0  0  0  0  0  0
   -4.7972   29.0613    6.3591 C   0  0  0  0  0  0  0  0  0  0  0  0
   -1.9668   29.7714    8.2627 C   0  0  0  0  0  0  0  0  0  0  0  0
   -0.8531   28.9641    8.2089 C   0  0  0  0  0  0  0  0  0  0  0  0
    0.1282   29.6537    8.8611 N   0  0  0  0  0  0  0  0  0  0  0  0
    1.4865   29.2198    9.0916 C   0  0  0  0  0  0  0  0  0  0  0  0
   -0.2738   30.8533    9.3218 N   0  0  0  0  0  0  0  0  0  0  0  0
   -1.5565   30.9243    8.9485 C   0  0  0  0  0  0  0  0  0  0  0  0
   -4.6699   26.4192    4.9238 C   0  0  0  0  0  0  0  0  0  0  0  0
   -3.2832   26.2696    4.2943 C   0  0  0  0  0  0  0  0  0  0  0  0
   -3.4857   25.3475    3.0915 C   0  0  0  0  0  0  0  0  0  0  0  0
   -4.7068   24.5983    3.3825 N   0  0  0  0  0  0  0  0  0  0  0  0
   -5.3033   25.0365    4.6446 C   0  0  0  0  0  0  0  0  0  0  0  0
   -5.0953   23.4679    2.6968 C   0  0  0  0  0  0  0  0  0  0  0  0
   -5.1031   22.2011    3.2946 C   0  0  0  0  0  0  0  0  0  0  0  0
   -5.5242   21.0909    2.5725 C   0  0  0  0  0  0  0  0  0  0  0  0
   -5.9409   21.1391    1.2940 N   0  0  0  0  0  0  0  0  0  0  0  0
   -5.9357   22.3587    0.7202 C   0  0  0  0  0  0  0  0  0  0  0  0
   -5.5341   23.5205    1.3687 C   0  0  0  0  0  0  0  0  0  0  0  0
  5  6  1  0  0  0
  6  7  2  0  0  0
  7  8  1  0  0  0
  8 11  1  0  0  0
 11 12  2  0  0  0
 12 13  1  0  0  0
 13 14  1  0  0  0
 13 15  1  0  0  0
 15 16  2  0  0  0
  8  9  1  0  0  0
  9 10  2  0  0  0
 10  1  1  0  0  0
  1  2  2  0  0  0
  1  3  1  0  0  0
  3  4  1  0  0  0
  3 17  1  0  0  0
 17 18  1  0  0  0
 18 19  1  0  0  0
 19 20  1  0  0  0
 20 22  1  0  0  0
 22 23  2  0  0  0
 23 24  1  0  0  0
 24 25  2  0  0  0
 25 26  1  0  0  0
 26 27  2  0  0  0
 20 21  1  0  0  0
 10  6  1  0  0  0
 21 17  1  0  0  0
 16 11  1  0  0  0
 27 22  1  0  0  0
M  END
> <minimizedAffinity>
-8.82392

$$$$
OCNT-2312208


 22 25  0  0  0  0  0  0  0  0999 V2000
   -2.3177   26.4979    5.6503 N   0  0  0  0  0  0  0  0  0  0  0  0
   -3.4722   25.9001    5.2339 C   0  0  0  0  0  0  0  0  0  0  0  0
   -3.1765   25.4485    3.9670 C   0  0  0  0  0  0  0  0  0  0  0  0
   -1.8809   25.7951    3.6642 N   0  0  0  0  0  0  0  0  0  0  0  0
   -1.3660   26.4430    4.7001 N   0  0  0  0  0  0  0  0  0  0  0  0
   -4.0510   24.7236    3.0603 C   0  0  0  0  0  0  0  0  0  0  0  0
   -4.2311   23.3375    3.1538 C   0  0  0  0  0  0  0  0  0  0  0  0
   -5.0788   22.6665    2.2660 C   0  0  0  0  0  0  0  0  0  0  0  0
   -5.7641   23.3726    1.2641 C   0  0  0  0  0  0  0  0  0  0  0  0
   -6.6230   22.7561    0.3502 C   0  0  0  0  0  0  0  0  0  0  0  0
   -7.2985   23.4048   -0.6268 N   0  0  0  0  0  0  0  0  0  0  0  0
   -7.1123   24.7384   -0.7022 C   0  0  0  0  0  0  0  0  0  0  0  0
   -6.2851   25.4532    0.1499 C   0  0  0  0  0  0  0  0  0  0  0  0
   -5.5943   24.7650    1.1547 C   0  0  0  0  0  0  0  0  0  0  0  0
   -4.7380   25.4245    2.0551 C   0  0  0  0  0  0  0  0  0  0  0  0
   -2.0519   27.1512    6.9162 C   0  0  0  0  0  0  0  0  0  0  0  0
    0.2695   29.2092    6.8034 C   0  0  0  0  0  0  0  0  0  0  0  0
   -1.1398   29.5171    6.7374 N   0  0  0  0  0  0  0  0  0  0  0  0
   -1.6606   30.7768    6.6208 C   0  0  0  0  0  0  0  0  0  0  0  0
   -3.0222   30.6050    6.6035 C   0  0  0  0  0  0  0  0  0  0  0  0
   -3.3423   29.2780    6.7072 N   0  0  0  0  0  0  0  0  0  0  0  0
   -2.1932   28.6304    6.7908 C   0  0  0  0  0  0  0  0  0  0  0  0
 17 18  1  0  0  0
 18 19  1  0  0  0
 19 20  2  0  0  0
 20 21  1  0  0  0
 21 22  2  0  0  0
 22 16  1  0  0  0
 16  1  1  0  0  0
  1  2  1  0  0  0
  2  3  2  0  0  0
  3  6  1  0  0  0
  6  7  1  0  0  0
  7  8  2  0  0  0
  8  9  1  0  0  0
  9 10  2  0  0  0
 10 11  1  0  0  0
 11 12  2  0  0  0
 12 13  1  0  0  0
 13 14  2  0  0  0
 14 15  1  0  0  0
  3  4  1  0  0  0
  4  5  2  0  0  0
 22 18  1  0  0  0
  5  1  1  0  0  0
 15  6  2  0  0  0
 14  9  1  0  0  0
M  END
> <minimizedAffinity>
-8.56740

$$$$
OCNT-2312209


 22 24  0  0  0  0  0  0  0  0999 V2000
   -6.3014   29.9310    8.4805 C   0  0  0  0  0  0  0  0  0  0  0  0
   -6.0153   31.2841    9.1337 C   0  0  0  0  0  0  0  0  0  0  0  0
   -4.5513   31.5605    8.7938 C   0  0  0  0  0  0  0  0  0  0  0  0
   -3.9619   30.2316    8.6581 N   0  0  0  0  0  0  0  0  0  0  0  0
   -4.9794   29.1828    8.6987 C   0  0  0  0  0  0  0  0  0  0  0  0
   -2.6069   29.9941    8.6322 C   0  0  0  0  0  0  0  0  0  0  0  0
   -2.0761   28.7950    8.1225 C   0  0  0  0  0  0  0  0  0  0  0  0
   -0.6990   28.5439    8.0969 C   0  0  0  0  0  0  0  0  0  0  0  0
    0.1773   29.4968    8.5876 C   0  0  0  0  0  0  0  0  0  0  0  0
    1.4954   29.2621    8.5652 F   0  0  0  0  0  0  0  0  0  0  0  0
   -0.2999   30.6901    9.1026 C   0  0  0  0  0  0  0  0  0  0  0  0
   -1.6792   30.9302    9.1236 C   0  0  0  0  0  0  0  0  0  0  0  0
   -6.6318   30.0383    6.9880 C   0  0  0  0  0  0  0  0  0  0  0  0
   -6.2338   29.8678    4.2307 O   0  0  0  0  0  0  0  0  0  0  0  0
   -6.1711   28.8371    4.8930 C   0  0  0  0  0  0  0  0  0  0  0  0
   -6.2877   28.8240    6.2694 N   0  0  0  0  0  0  0  0  0  0  0  0
   -6.5101   27.9386    6.6987 H   0  0  0  0  0  0  0  0  0  0  0  0
   -5.9942   27.5203    4.2732 C   0  0  0  0  0  0  0  0  0  0  0  0
   -6.1246   26.3519    5.0067 C   0  0  0  0  0  0  0  0  0  0  0  0
   -5.8702   24.9392    4.0802 S   0  0  0  0  0  0  0  0  0  0  0  0
   -5.6030   25.8544    2.6646 C   0  0  0  0  0  0  0  0  0  0  0  0
   -5.7005   27.2091    2.8989 C   0  0  0  0  0  0  0  0  0  0  0  0
 14 15  2  0  0  0
 15 16  1  0  0  0
 16 13  1  0  0  0
 13  1  1  0  0  0
  1  2  1  0  0  0
  2  3  1  0  0  0
  3  4  1  0  0  0
  4  6  1  0  0  0
  6  7  1  0  0  0
  7  8  2  0  0  0
  8  9  1  0  0  0
  9 10  1  0  0  0
  9 11  2  0  0  0
 11 12  1  0  0  0
  4  5  1  0  0  0
 15 18  1  0  0  0
 18 19  2  0  0  0
 19 20  1  0  0  0
 20 21  1  0  0  0
 21 22  2  0  0  0
  5  1  1  0  0  0
 22 18  1  0  0  0
 12  6  2  0  0  0
 16 17  1  0  0  0
M  END
> <minimizedAffinity>
-8.53761

$$$$
OCNT-2312226


 24 27  0  0  0  0  0  0  0  0999 V2000
   -2.9507   32.6276    7.8675 C   0  0  0  0  0  0  0  0  0  0  0  0
   -3.2653   31.4550    8.8211 C   0  0  0  0  0  0  0  0  0  0  0  0
   -2.4885   31.6935   10.1340 C   0  0  0  0  0  0  0  0  0  0  0  0
   -4.7840   31.4715    9.1664 C   0  0  0  0  0  0  0  0  0  0  0  0
   -5.6298   30.9228    8.0741 C   0  0  0  0  0  0  0  0  0  0  0  0
   -6.9200   31.0854    7.8877 N   0  0  0  0  0  0  0  0  0  0  0  0
   -7.2783   30.3692    6.7706 N   0  0  0  0  0  0  0  0  0  0  0  0
   -6.2013   29.7797    6.2928 C   0  0  0  0  0  0  0  0  0  0  0  0
   -5.1431   30.1006    7.0975 N   0  0  0  0  0  0  0  0  0  0  0  0
   -3.7513   29.7401    6.9429 C   0  0  0  0  0  0  0  0  0  0  0  0
   -2.9207   30.0465    8.2102 C   0  0  0  0  0  0  0  0  0  0  0  0
   -1.4401   29.7656    7.9865 C   0  0  0  0  0  0  0  0  0  0  0  0
   -0.5322   29.6077    9.0444 C   0  0  0  0  0  0  0  0  0  0  0  0
    0.8195   29.3561    8.7961 C   0  0  0  0  0  0  0  0  0  0  0  0
    1.2849   29.2584    7.4878 C   0  0  0  0  0  0  0  0  0  0  0  0
    0.3989   29.4103    6.4257 C   0  0  0  0  0  0  0  0  0  0  0  0
   -0.9522   29.6616    6.6725 C   0  0  0  0  0  0  0  0  0  0  0  0
   -6.1115   28.9171    5.0849 C   0  0  0  0  0  0  0  0  0  0  0  0
   -6.1989   27.4336    5.4364 C   0  0  0  0  0  0  0  0  0  0  0  0
   -6.0120   26.6007    4.2649 N   0  0  0  0  0  0  0  0  0  0  0  0
   -6.0531   25.2358    4.2266 C   0  0  0  0  0  0  0  0  0  0  0  0
   -5.7948   24.9128    2.9147 C   0  0  0  0  0  0  0  0  0  0  0  0
   -5.6013   26.0440    2.1642 N   0  0  0  0  0  0  0  0  0  0  0  0
   -5.7529   27.0458    3.0008 C   0  0  0  0  0  0  0  0  0  0  0  0
  1  2  1  0  0  0
  2  3  1  0  0  0
  2  4  1  0  0  0
  4  5  1  0  0  0
  5  6  2  0  0  0
  6  7  1  0  0  0
  7  8  2  0  0  0
  8 18  1  0  0  0
 18 19  1  0  0  0
 19 20  1  0  0  0
 20 21  1  0  0  0
 21 22  2  0  0  0
 22 23  1  0  0  0
 23 24  2  0  0  0
  8  9  1  0  0  0
  9 10  1  0  0  0
 10 11  1  0  0  0
 11 12  1  0  0  0
 12 13  2  0  0  0
 13 14  1  0  0  0
 14 15  2  0  0  0
 15 16  1  0  0  0
 16 17  2  0  0  0
 11  2  1  0  0  0
 17 12  1  0  0  0
  9  5  1  0  0  0
 24 20  1  0  0  0
M  END
> <minimizedAffinity>
-9.09897

$$$$
OCNT-2312229


 30 31  0  0  0  0  0  0  0  0999 V2000
   -3.9041   31.4008    6.1377 N   0  0  0  0  0  0  0  0  0  0  0  0
   -5.0712   30.7005    5.9641 C   0  0  0  0  0  0  0  0  0  0  0  0
   -5.9526   30.6134    6.8072 O   0  0  0  0  0  0  0  0  0  0  0  0
   -5.1147   30.1109    4.7292 N   0  0  0  0  0  0  0  0  0  0  0  0
   -3.1311   31.1090    5.5542 H   0  0  0  0  0  0  0  0  0  0  0  0
   -4.5750   30.5675    4.0106 H   0  0  0  0  0  0  0  0  0  0  0  0
   -3.5868   32.0517    7.3979 C   0  0  0  0  0  0  0  0  0  0  0  0
   -2.8031   31.1659    8.3936 C   0  0  0  0  0  0  0  0  0  0  0  0
   -3.7250   30.6204    9.5009 C   0  0  0  0  0  0  0  0  0  0  0  0
   -1.7073   32.0100    9.0737 C   0  0  0  0  0  0  0  0  0  0  0  0
   -1.8499   27.5547    7.5352 C   0  0  0  0  0  0  0  0  0  0  0  0
   -2.4423   28.7313    8.1223 N   0  0  0  0  0  0  0  0  0  0  0  0
   -2.1605   29.9905    7.6330 C   0  0  0  0  0  0  0  0  0  0  0  0
   -1.4035   30.1546    6.6783 O   0  0  0  0  0  0  0  0  0  0  0  0
   -2.9551   28.6216    8.9861 H   0  0  0  0  0  0  0  0  0  0  0  0
   -6.2919   29.3974    4.2872 C   0  0  0  0  0  0  0  0  0  0  0  0
   -6.0256   27.9168    4.1894 C   0  0  0  0  0  0  0  0  0  0  0  0
   -6.3661   27.0641    5.2499 C   0  0  0  0  0  0  0  0  0  0  0  0
   -6.1579   25.6870    5.1510 C   0  0  0  0  0  0  0  0  0  0  0  0
   -5.6040   25.1461    3.9915 C   0  0  0  0  0  0  0  0  0  0  0  0
   -5.2459   25.9889    2.9371 C   0  0  0  0  0  0  0  0  0  0  0  0
   -5.4751   27.3638    3.0244 C   0  0  0  0  0  0  0  0  0  0  0  0
   -4.7305   25.5198    1.7498 O   0  0  0  0  0  0  0  0  0  0  0  0
   -5.5431   24.7156    0.9847 C   0  0  0  0  0  0  0  0  0  0  0  0
   -6.5116   25.2361    0.1211 C   0  0  0  0  0  0  0  0  0  0  0  0
   -7.3345   24.3684   -0.6024 C   0  0  0  0  0  0  0  0  0  0  0  0
   -7.2031   22.9855   -0.4523 C   0  0  0  0  0  0  0  0  0  0  0  0
   -6.2510   22.4675    0.4261 C   0  0  0  0  0  0  0  0  0  0  0  0
   -5.4322   23.3349    1.1440 C   0  0  0  0  0  0  0  0  0  0  0  0
   -4.5251   22.8210    1.9882 F   0  0  0  0  0  0  0  0  0  0  0  0
 11 12  1  0  0  0
 12 13  1  0  0  0
 13 14  2  0  0  0
 13  8  1  0  0  0
  8  9  1  0  0  0
  8 10  1  0  0  0
  8  7  1  0  0  0
  7  1  1  0  0  0
  1  2  1  0  0  0
  2  3  2  0  0  0
  2  4  1  0  0  0
  4 16  1  0  0  0
 16 17  1  0  0  0
 17 18  2  0  0  0
 18 19  1  0  0  0
 19 20  2  0  0  0
 20 21  1  0  0  0
 21 23  1  0  0  0
 23 24  1  0  0  0
 24 25  2  0  0  0
 25 26  1  0  0  0
 26 27  2  0  0  0
 27 28  1  0  0  0
 28 29  2  0  0  0
 29 30  1  0  0  0
 21 22  2  0  0  0
 22 17  1  0  0  0
 29 24  1  0  0  0
 12 15  1  0  0  0
  1  5  1  0  0  0
  4  6  1  0  0  0
M  END
> <minimizedAffinity>
-10.27466

$$$$
OCNT-2312240


 30 33  0  0  0  0  0  0  0  0999 V2000
   -3.1144   26.1527    4.3976 C   0  0  0  0  0  0  0  0  0  0  0  0
   -5.1215   26.0785    2.9473 C   0  0  0  0  0  0  0  0  0  0  0  0
   -6.0800   25.3619    3.9069 C   0  0  0  0  0  0  0  0  0  0  0  0
   -6.1369   26.2371    5.1508 C   0  0  0  0  0  0  0  0  0  0  0  0
   -5.1769   27.3828    4.8769 C   0  0  0  0  0  0  0  0  0  0  0  0
   -4.2507   26.9025    3.8356 N   0  0  0  0  0  0  0  0  0  0  0  0
   -3.5412   25.8190    1.0840 O   0  0  0  0  0  0  0  0  0  0  0  0
   -4.4572   25.1070    1.9249 C   0  0  0  0  0  0  0  0  0  0  0  0
   -3.4914   25.3417    0.2385 H   0  0  0  0  0  0  0  0  0  0  0  0
   -5.4665   24.3866    1.0474 C   0  0  0  0  0  0  0  0  0  0  0  0
   -6.2771   25.1096    0.1598 C   0  0  0  0  0  0  0  0  0  0  0  0
   -7.2037   24.4512   -0.6510 C   0  0  0  0  0  0  0  0  0  0  0  0
   -7.3318   23.0653   -0.5832 C   0  0  0  0  0  0  0  0  0  0  0  0
   -6.5349   22.3350    0.2955 C   0  0  0  0  0  0  0  0  0  0  0  0
   -5.6079   22.9906    1.1066 C   0  0  0  0  0  0  0  0  0  0  0  0
   -2.7508   26.6848    5.7446 C   0  0  0  0  0  0  0  0  0  0  0  0
   -2.4585   25.9992    6.9002 C   0  0  0  0  0  0  0  0  0  0  0  0
   -2.1748   26.9072    7.8731 O   0  0  0  0  0  0  0  0  0  0  0  0
   -2.3032   28.1240    7.2512 C   0  0  0  0  0  0  0  0  0  0  0  0
   -2.6591   28.0400    5.9863 N   0  0  0  0  0  0  0  0  0  0  0  0
   -2.0299   29.3111    8.0639 C   0  0  0  0  0  0  0  0  0  0  0  0
   -3.0976   29.9668    8.7113 C   0  0  0  0  0  0  0  0  0  0  0  0
   -2.8912   31.1120    9.4823 C   0  0  0  0  0  0  0  0  0  0  0  0
   -1.6106   31.6284    9.6223 C   0  0  0  0  0  0  0  0  0  0  0  0
   -0.5384   30.9964    8.9950 C   0  0  0  0  0  0  0  0  0  0  0  0
   -0.7260   29.8332    8.2153 C   0  0  0  0  0  0  0  0  0  0  0  0
    0.4862   29.1872    7.5771 C   0  0  0  0  0  0  0  0  0  0  0  0
    0.3954   27.8330    7.4699 F   0  0  0  0  0  0  0  0  0  0  0  0
    1.6270   29.3945    8.3077 F   0  0  0  0  0  0  0  0  0  0  0  0
    0.7786   29.6773    6.3419 F   0  0  0  0  0  0  0  0  0  0  0  0
  7  8  1  0  0  0
  8 10  1  0  0  0
 10 11  2  0  0  0
 11 12  1  0  0  0
 12 13  2  0  0  0
 13 14  1  0  0  0
 14 15  2  0  0  0
  8  2  1  0  0  0
  2  3  1  0  0  0
  3  4  1  0  0  0
  4  5  1  0  0  0
  5  6  1  0  0  0
  6  1  1  0  0  0
  1 16  1  0  0  0
 16 17  2  0  0  0
 17 18  1  0  0  0
 18 19  1  0  0  0
 19 21  1  0  0  0
 21 22  2  0  0  0
 22 23  1  0  0  0
 23 24  2  0  0  0
 24 25  1  0  0  0
 25 26  2  0  0  0
 26 27  1  0  0  0
 27 28  1  0  0  0
 27 29  1  0  0  0
 27 30  1  0  0  0
 19 20  2  0  0  0
 15 10  1  0  0  0
  6  2  1  0  0  0
 20 16  1  0  0  0
 26 21  1  0  0  0
  7  9  1  0  0  0
M  END
> <minimizedAffinity>
-11.01894

$$$$
OCNT-2312247


 26 28  0  0  0  0  0  0  0  0999 V2000
   -3.3130   29.3198    7.1721 C   0  0  0  0  0  0  0  0  0  0  0  0
   -4.1353   30.3118    6.9023 N   0  0  0  0  0  0  0  0  0  0  0  0
   -5.3040   29.7759    6.4158 N   0  0  0  0  0  0  0  0  0  0  0  0
   -5.1940   28.4665    6.3953 C   0  0  0  0  0  0  0  0  0  0  0  0
   -3.9496   28.1435    6.8672 N   0  0  0  0  0  0  0  0  0  0  0  0
   -3.5823   27.2125    6.9714 H   0  0  0  0  0  0  0  0  0  0  0  0
   -1.9289   29.4169    7.7288 C   0  0  0  0  0  0  0  0  0  0  0  0
   -1.1445   28.1136    7.7725 C   0  0  0  0  0  0  0  0  0  0  0  0
    0.2857   28.6083    7.7769 C   0  0  0  0  0  0  0  0  0  0  0  0
    0.3159   29.7249    6.8868 O   0  0  0  0  0  0  0  0  0  0  0  0
   -1.0235   30.2686    6.8177 C   0  0  0  0  0  0  0  0  0  0  0  0
   -1.9468   30.0372    9.0305 O   0  0  0  0  0  0  0  0  0  0  0  0
   -2.6534   32.1958    9.7402 C   0  0  0  0  0  0  0  0  0  0  0  0
   -1.5269   31.3947    9.1155 C   0  0  0  0  0  0  0  0  0  0  0  0
   -6.0389   27.4825    6.0166 N   0  0  0  0  0  0  0  0  0  0  0  0
   -6.8158   27.2256    6.6116 H   0  0  0  0  0  0  0  0  0  0  0  0
   -5.9844   26.7054    4.8390 C   0  0  0  0  0  0  0  0  0  0  0  0
   -6.2276   25.3246    4.9355 C   0  0  0  0  0  0  0  0  0  0  0  0
   -6.1919   24.4886    3.8094 C   0  0  0  0  0  0  0  0  0  0  0  0
   -5.9138   25.0183    2.5542 C   0  0  0  0  0  0  0  0  0  0  0  0
   -5.6643   26.3856    2.4456 C   0  0  0  0  0  0  0  0  0  0  0  0
   -5.7010   27.2189    3.5712 C   0  0  0  0  0  0  0  0  0  0  0  0
   -5.8401   24.3318    1.3770 O   0  0  0  0  0  0  0  0  0  0  0  0
   -6.8624   23.3853    1.0514 C   0  0  0  0  0  0  0  0  0  0  0  0
   -6.2355   22.0280    0.7463 C   0  0  0  0  0  0  0  0  0  0  0  0
   -7.5761   23.9201   -0.1885 C   0  0  0  0  0  0  0  0  0  0  0  0
 13 14  1  0  0  0
 14 12  1  0  0  0
 12  7  1  0  0  0
  7  1  1  0  0  0
  1  2  2  0  0  0
  2  3  1  0  0  0
  3  4  2  0  0  0
  4 15  1  0  0  0
 15 17  1  0  0  0
 17 18  1  0  0  0
 18 19  2  0  0  0
 19 20  1  0  0  0
 20 23  1  0  0  0
 23 24  1  0  0  0
 24 25  1  0  0  0
 24 26  1  0  0  0
 20 21  2  0  0  0
 21 22  1  0  0  0
  4  5  1  0  0  0
  7  8  1  0  0  0
  8  9  1  0  0  0
  9 10  1  0  0  0
 10 11  1  0  0  0
 11  7  1  0  0  0
  5  1  1  0  0  0
 22 17  2  0  0  0
 15 16  1  0  0  0
  5  6  1  0  0  0
M  END
> <minimizedAffinity>
-8.77092

$$$$
OCNT-2312258


 27 29  0  0  0  0  0  0  0  0999 V2000
   -5.7361   32.4755    7.6760 N   0  0  0  0  0  0  0  0  0  0  0  0
   -6.3833   31.3828    8.2231 C   0  0  0  0  0  0  0  0  0  0  0  0
   -6.3638   31.1073    9.4190 O   0  0  0  0  0  0  0  0  0  0  0  0
   -5.5929   32.4746    6.6739 H   0  0  0  0  0  0  0  0  0  0  0  0
   -4.8606   33.3163    8.4715 C   0  0  0  0  0  0  0  0  0  0  0  0
   -1.9077   30.2619    8.2347 C   0  0  0  0  0  0  0  0  0  0  0  0
   -1.9357   31.2568    7.0534 C   0  0  0  0  0  0  0  0  0  0  0  0
   -3.2364   32.0530    7.0168 C   0  0  0  0  0  0  0  0  0  0  0  0
   -3.3845   32.9385    8.2678 C   0  0  0  0  0  0  0  0  0  0  0  0
   -2.7832   32.2737    9.5256 C   0  0  0  0  0  0  0  0  0  0  0  0
   -2.7661   30.7512    9.4198 C   0  0  0  0  0  0  0  0  0  0  0  0
   -0.4620   29.9789    8.6903 C   0  0  0  0  0  0  0  0  0  0  0  0
    0.2860   29.0547    7.7552 C   0  0  0  0  0  0  0  0  0  0  0  0
    1.3242   29.3280    7.1708 O   0  0  0  0  0  0  0  0  0  0  0  0
   -0.5951   27.4596    6.2834 C   0  0  0  0  0  0  0  0  0  0  0  0
   -0.3972   27.8808    7.6332 O   0  0  0  0  0  0  0  0  0  0  0  0
   -7.1429   30.5487    7.2061 C   0  0  0  0  0  0  0  0  0  0  0  0
   -6.2614   29.5442    6.5064 C   0  0  0  0  0  0  0  0  0  0  0  0
   -5.1462   29.0099    7.1668 C   0  0  0  0  0  0  0  0  0  0  0  0
   -4.3217   28.0847    6.5257 C   0  0  0  0  0  0  0  0  0  0  0  0
   -4.5928   27.6949    5.2152 C   0  0  0  0  0  0  0  0  0  0  0  0
   -3.7327   26.7769    4.6722 O   0  0  0  0  0  0  0  0  0  0  0  0
   -3.8169   26.6496    3.2489 C   0  0  0  0  0  0  0  0  0  0  0  0
   -5.2549   26.5194    2.7725 C   0  0  0  0  0  0  0  0  0  0  0  0
   -6.0099   27.7909    3.1299 C   0  0  0  0  0  0  0  0  0  0  0  0
   -5.7079   28.2080    4.5413 C   0  0  0  0  0  0  0  0  0  0  0  0
   -6.5315   29.1423    5.1889 C   0  0  0  0  0  0  0  0  0  0  0  0
 15 16  1  0  0  0
 16 13  1  0  0  0
 13 14  2  0  0  0
 13 12  1  0  0  0
 12  6  1  0  0  0
  6  7  1  0  0  0
  7  8  1  0  0  0
  8  9  1  0  0  0
  9  5  1  0  0  0
  5  1  1  0  0  0
  1  2  1  0  0  0
  2  3  2  0  0  0
  2 17  1  0  0  0
 17 18  1  0  0  0
 18 19  1  0  0  0
 19 20  2  0  0  0
 20 21  1  0  0  0
 21 22  1  0  0  0
 22 23  1  0  0  0
 23 24  1  0  0  0
 24 25  1  0  0  0
 25 26  1  0  0  0
 26 27  1  0  0  0
  9 10  1  0  0  0
 10 11  1  0  0  0
 11  6  1  0  0  0
 27 18  2  0  0  0
 26 21  2  0  0  0
  1  4  1  0  0  0
M  END
> <minimizedAffinity>
-9.10760

$$$$
OCNT-2312272


 26 29  0  0  0  0  0  0  0  0999 V2000
   -2.9264   26.0700    4.9614 N   0  0  0  0  0  0  0  0  0  0  0  0
   -2.8704   26.3889    3.5287 C   0  0  0  0  0  0  0  0  0  0  0  0
   -3.7198   25.3823    2.7628 C   0  0  0  0  0  0  0  0  0  0  0  0
   -5.2028   25.5529    3.1343 C   0  0  0  0  0  0  0  0  0  0  0  0
   -5.3787   26.0451    4.5801 C   0  0  0  0  0  0  0  0  0  0  0  0
   -4.2282   25.6029    5.4793 C   0  0  0  0  0  0  0  0  0  0  0  0
   -4.1732   29.6904    8.6425 C   0  0  0  0  0  0  0  0  0  0  0  0
   -2.7858   29.4695    8.3216 N   0  0  0  0  0  0  0  0  0  0  0  0
   -1.8317   30.1794    8.9681 N   0  0  0  0  0  0  0  0  0  0  0  0
   -0.6937   29.7298    8.4290 C   0  0  0  0  0  0  0  0  0  0  0  0
   -0.9087   28.7376    7.4499 C   0  0  0  0  0  0  0  0  0  0  0  0
   -0.1395   27.9497    6.5907 C   0  0  0  0  0  0  0  0  0  0  0  0
   -0.8266   27.0583    5.7483 C   0  0  0  0  0  0  0  0  0  0  0  0
   -2.2356   26.9696    5.7940 C   0  0  0  0  0  0  0  0  0  0  0  0
   -2.9822   27.7502    6.6129 N   0  0  0  0  0  0  0  0  0  0  0  0
   -2.2842   28.5879    7.4014 C   0  0  0  0  0  0  0  0  0  0  0  0
   -0.0529   26.2847    4.8230 C   0  0  0  0  0  0  0  0  0  0  0  0
    0.5333   25.6509    4.0461 N   0  0  0  0  0  0  0  0  0  0  0  0
   -5.9044   24.2771    2.9387 N   0  0  0  0  0  0  0  0  0  0  0  0
   -5.4696   23.4874    3.4120 H   0  0  0  0  0  0  0  0  0  0  0  0
   -6.4398   23.9096    1.7014 C   0  0  0  0  0  0  0  0  0  0  0  0
   -6.5561   24.7702    0.6107 C   0  0  0  0  0  0  0  0  0  0  0  0
   -7.1685   24.3175   -0.5510 C   0  0  0  0  0  0  0  0  0  0  0  0
   -7.6908   23.0840   -0.6976 N   0  0  0  0  0  0  0  0  0  0  0  0
   -7.6114   22.2759    0.3771 C   0  0  0  0  0  0  0  0  0  0  0  0
   -7.0170   22.6423    1.5761 C   0  0  0  0  0  0  0  0  0  0  0  0
  7  8  1  0  0  0
  8  9  1  0  0  0
  9 10  2  0  0  0
 10 11  1  0  0  0
 11 12  1  0  0  0
 12 13  2  0  0  0
 13 17  1  0  0  0
 17 18  3  0  0  0
 13 14  1  0  0  0
 14  1  1  0  0  0
  1  2  1  0  0  0
  2  3  1  0  0  0
  3  4  1  0  0  0
  4 19  1  0  0  0
 19 21  1  0  0  0
 21 22  2  0  0  0
 22 23  1  0  0  0
 23 24  2  0  0  0
 24 25  1  0  0  0
 25 26  2  0  0  0
  4  5  1  0  0  0
  5  6  1  0  0  0
 14 15  2  0  0  0
 15 16  1  0  0  0
 16  8  1  0  0  0
 16 11  2  0  0  0
  6  1  1  0  0  0
 26 21  1  0  0  0
 19 20  1  0  0  0
M  END
> <minimizedAffinity>
-8.32270

$$$$
OCNT-2312280


 28 30  0  0  0  0  0  0  0  0999 V2000
   -4.2995   28.3990    6.1186 C   0  0  0  0  0  0  0  0  0  0  0  0
   -5.0919   29.0522    7.0705 C   0  0  0  0  0  0  0  0  0  0  0  0
   -6.4657   28.8196    7.1294 C   0  0  0  0  0  0  0  0  0  0  0  0
   -7.0597   27.9297    6.2397 C   0  0  0  0  0  0  0  0  0  0  0  0
   -6.2772   27.2480    5.3046 C   0  0  0  0  0  0  0  0  0  0  0  0
   -4.8875   27.4518    5.2515 C   0  0  0  0  0  0  0  0  0  0  0  0
   -4.0352   26.6851    4.2870 C   0  0  0  0  0  0  0  0  0  0  0  0
   -2.9229   26.2884    4.6316 O   0  0  0  0  0  0  0  0  0  0  0  0
   -4.5779   26.4033    3.0512 N   0  0  0  0  0  0  0  0  0  0  0  0
   -5.5759   26.4838    2.9170 H   0  0  0  0  0  0  0  0  0  0  0  0
   -3.9103   25.5249    2.1158 C   0  0  0  0  0  0  0  0  0  0  0  0
   -4.7198   24.2867    1.8665 C   0  0  0  0  0  0  0  0  0  0  0  0
   -4.5680   23.1437    2.6667 C   0  0  0  0  0  0  0  0  0  0  0  0
   -5.3327   21.9878    2.4307 C   0  0  0  0  0  0  0  0  0  0  0  0
   -6.2684   21.9523    1.3951 C   0  0  0  0  0  0  0  0  0  0  0  0
   -6.4329   23.0907    0.6271 C   0  0  0  0  0  0  0  0  0  0  0  0
   -5.6765   24.2304    0.8645 C   0  0  0  0  0  0  0  0  0  0  0  0
   -5.9719   25.2651    0.0092 O   0  0  0  0  0  0  0  0  0  0  0  0
   -7.1953   24.8375   -0.6357 C   0  0  0  0  0  0  0  0  0  0  0  0
   -7.3043   23.3158   -0.5469 C   0  0  0  0  0  0  0  0  0  0  0  0
   -2.8819   28.6958    6.0621 N   0  0  0  0  0  0  0  0  0  0  0  0
   -2.7609   29.7198    5.9730 H   0  0  0  0  0  0  0  0  0  0  0  0
   -1.9955   28.1906    7.4255 S   0  0  0  0  0  0  0  0  0  0  0  0
   -2.3796   26.8351    7.7579 O   0  0  0  0  0  0  0  0  0  0  0  0
   -2.0753   29.2427    8.4170 O   0  0  0  0  0  0  0  0  0  0  0  0
   -0.3259   28.1790    6.7844 C   0  0  0  0  0  0  0  0  0  0  0  0
    1.2501   29.1652    8.5360 C   0  0  0  0  0  0  0  0  0  0  0  0
    0.5491   29.3557    7.2005 C   0  0  0  0  0  0  0  0  0  0  0  0
 27 28  1  0  0  0
 28 26  1  0  0  0
 26 23  1  0  0  0
 23 24  2  0  0  0
 23 25  2  0  0  0
 23 21  1  0  0  0
 21  1  1  0  0  0
  1  2  2  0  0  0
  2  3  1  0  0  0
  3  4  2  0  0  0
  4  5  1  0  0  0
  5  6  2  0  0  0
  6  7  1  0  0  0
  7  8  2  0  0  0
  7  9  1  0  0  0
  9 11  1  0  0  0
 11 12  1  0  0  0
 12 13  1  0  0  0
 13 14  2  0  0  0
 14 15  1  0  0  0
 15 16  2  0  0  0
 16 17  1  0  0  0
 17 18  1  0  0  0
 18 19  1  0  0  0
 19 20  1  0  0  0
  6  1  1  0  0  0
 17 12  2  0  0  0
 20 16  1  0  0  0
 21 22  1  0  0  0
  9 10  1  0  0  0
M  END
> <minimizedAffinity>
-9.31241

$$$$
OCNT-2312281


 23 26  0  0  0  0  0  0  0  0999 V2000
   -5.3390   25.6840    3.2650 C   0  0  0  0  0  0  0  0  0  0  0  0
   -5.6946   27.1324    3.6140 C   0  0  0  0  0  0  0  0  0  0  0  0
   -5.2643   27.4786    5.0305 C   0  0  0  0  0  0  0  0  0  0  0  0
   -3.8064   27.3581    5.1699 N   0  0  0  0  0  0  0  0  0  0  0  0
   -3.1330   26.4128    4.2781 C   0  0  0  0  0  0  0  0  0  0  0  0
   -4.0434   25.2336    3.9486 C   0  0  0  0  0  0  0  0  0  0  0  0
   -3.1569   28.0496    6.1914 C   0  0  0  0  0  0  0  0  0  0  0  0
   -1.8432   27.9690    6.2597 N   0  0  0  0  0  0  0  0  0  0  0  0
   -1.2002   28.6521    7.2514 C   0  0  0  0  0  0  0  0  0  0  0  0
    0.1339   28.7666    7.5666 C   0  0  0  0  0  0  0  0  0  0  0  0
    0.1711   29.6054    8.6900 C   0  0  0  0  0  0  0  0  0  0  0  0
   -1.0408   30.0062    9.0772 N   0  0  0  0  0  0  0  0  0  0  0  0
   -1.8851   29.4191    8.1914 N   0  0  0  0  0  0  0  0  0  0  0  0
   -3.2663   29.5039    8.1488 C   0  0  0  0  0  0  0  0  0  0  0  0
   -3.9508   28.8554    7.1983 C   0  0  0  0  0  0  0  0  0  0  0  0
   -5.1978   25.6310    1.8382 O   0  0  0  0  0  0  0  0  0  0  0  0
   -5.9002   20.9977    0.7229 F   0  0  0  0  0  0  0  0  0  0  0  0
   -6.1606   22.2999    0.5442 C   0  0  0  0  0  0  0  0  0  0  0  0
   -7.0775   22.6834   -0.4275 C   0  0  0  0  0  0  0  0  0  0  0  0
   -7.3410   24.0363   -0.6181 C   0  0  0  0  0  0  0  0  0  0  0  0
   -6.6845   24.9859    0.1692 C   0  0  0  0  0  0  0  0  0  0  0  0
   -5.7678   24.5951    1.1527 C   0  0  0  0  0  0  0  0  0  0  0  0
   -5.5021   23.2398    1.3341 C   0  0  0  0  0  0  0  0  0  0  0  0
 17 18  1  0  0  0
 18 19  1  0  0  0
 19 20  2  0  0  0
 20 21  1  0  0  0
 21 22  2  0  0  0
 22 16  1  0  0  0
 16  1  1  0  0  0
  1  2  1  0  0  0
  2  3  1  0  0  0
  3  4  1  0  0  0
  4  7  1  0  0  0
  7  8  2  0  0  0
  8  9  1  0  0  0
  9 10  2  0  0  0
 10 11  1  0  0  0
 11 12  2  0  0  0
 12 13  1  0  0  0
 13 14  1  0  0  0
 14 15  2  0  0  0
  4  5  1  0  0  0
  5  6  1  0  0  0
 22 23  1  0  0  0
 23 18  2  0  0  0
  6  1  1  0  0  0
 15  7  1  0  0  0
 13  9  1  0  0  0
M  END
> <minimizedAffinity>
-9.65214

$$$$
OCNT-2312285


 24 27  0  0  0  0  0  0  0  0999 V2000
   -5.8126   29.8156    5.5821 N   0  0  0  0  0  0  0  0  0  0  0  0
   -6.4854   30.5049    5.9025 H   0  0  0  0  0  0  0  0  0  0  0  0
   -2.3597   29.9954    6.9993 C   0  0  0  0  0  0  0  0  0  0  0  0
   -2.7317   31.2009    6.6240 N   0  0  0  0  0  0  0  0  0  0  0  0
   -4.0110   31.2115    6.1066 N   0  0  0  0  0  0  0  0  0  0  0  0
   -4.5649   30.0178    6.0799 C   0  0  0  0  0  0  0  0  0  0  0  0
   -3.5548   28.7913    6.7475 S   0  0  0  0  0  0  0  0  0  0  0  0
    0.8053   29.6244    8.9466 C   0  0  0  0  0  0  0  0  0  0  0  0
   -0.4555   30.1544    8.8647 C   0  0  0  0  0  0  0  0  0  0  0  0
   -0.9465   29.6935    7.6201 C   0  0  0  0  0  0  0  0  0  0  0  0
   -0.0365   28.9334    6.9955 N   0  0  0  0  0  0  0  0  0  0  0  0
    1.0626   28.8944    7.8352 O   0  0  0  0  0  0  0  0  0  0  0  0
   -6.0261   29.3875    4.2028 C   0  0  0  0  0  0  0  0  0  0  0  0
   -5.9972   27.8809    4.0061 C   0  0  0  0  0  0  0  0  0  0  0  0
   -5.8190   27.3223    2.7406 C   0  0  0  0  0  0  0  0  0  0  0  0
   -5.7755   25.9382    2.6233 C   0  0  0  0  0  0  0  0  0  0  0  0
   -5.9612   25.1465    3.7478 C   0  0  0  0  0  0  0  0  0  0  0  0
   -6.1529   25.7764    4.9615 C   0  0  0  0  0  0  0  0  0  0  0  0
   -6.1695   27.1180    5.1161 N   0  0  0  0  0  0  0  0  0  0  0  0
   -5.5739   25.2641    1.4453 O   0  0  0  0  0  0  0  0  0  0  0  0
   -6.6087   24.3672    0.9848 C   0  0  0  0  0  0  0  0  0  0  0  0
   -7.0228   24.4610   -0.5094 C   0  0  0  0  0  0  0  0  0  0  0  0
   -7.1152   22.9250   -0.5151 C   0  0  0  0  0  0  0  0  0  0  0  0
   -6.1220   22.9301    0.6610 C   0  0  0  0  0  0  0  0  0  0  0  0
  8  9  2  0  0  0
  9 10  1  0  0  0
 10  3  1  0  0  0
  3  4  2  0  0  0
  4  5  1  0  0  0
  5  6  2  0  0  0
  6  1  1  0  0  0
  1 13  1  0  0  0
 13 14  1  0  0  0
 14 15  2  0  0  0
 15 16  1  0  0  0
 16 20  1  0  0  0
 20 21  1  0  0  0
 21 22  1  0  0  0
 22 23  1  0  0  0
 23 24  1  0  0  0
 16 17  2  0  0  0
 17 18  1  0  0  0
 18 19  2  0  0  0
  6  7  1  0  0  0
 10 11  2  0  0  0
 11 12  1  0  0  0
 12  8  1  0  0  0
  7  3  1  0  0  0
 19 14  1  0  0  0
 24 21  1  0  0  0
  1  2  1  0  0  0
M  END
> <minimizedAffinity>
-8.58800

$$$$
OCNT-2312286


 23 24  0  0  0  0  0  0  0  0999 V2000
   -5.6535   28.2005    5.9850 C   0  0  0  0  0  0  0  0  0  0  0  0
   -4.5093   28.7139    6.5564 C   0  0  0  0  0  0  0  0  0  0  0  0
   -4.9728   29.5202    7.5546 N   0  0  0  0  0  0  0  0  0  0  0  0
   -6.3153   29.5117    7.6096 N   0  0  0  0  0  0  0  0  0  0  0  0
   -6.7450   28.7078    6.6470 N   0  0  0  0  0  0  0  0  0  0  0  0
   -5.9201   25.5317    2.6490 C   0  0  0  0  0  0  0  0  0  0  0  0
   -5.7073   26.9007    2.4555 C   0  0  0  0  0  0  0  0  0  0  0  0
   -5.6224   27.7619    3.5566 C   0  0  0  0  0  0  0  0  0  0  0  0
   -5.7476   27.2763    4.8673 C   0  0  0  0  0  0  0  0  0  0  0  0
   -5.9610   25.9031    5.0521 C   0  0  0  0  0  0  0  0  0  0  0  0
   -6.0464   25.0386    3.9535 C   0  0  0  0  0  0  0  0  0  0  0  0
   -6.0191   24.5675    1.5193 C   0  0  0  0  0  0  0  0  0  0  0  0
   -6.3134   23.3911    1.6629 O   0  0  0  0  0  0  0  0  0  0  0  0
   -6.7878   25.0812   -0.6249 C   0  0  0  0  0  0  0  0  0  0  0  0
   -5.7400   25.1781    0.3409 O   0  0  0  0  0  0  0  0  0  0  0  0
   -4.2000   30.3274    8.4782 C   0  0  0  0  0  0  0  0  0  0  0  0
   -3.6052   31.5891    7.8110 C   0  0  0  0  0  0  0  0  0  0  0  0
   -4.5580   32.1828    6.8596 N   0  0  0  0  0  0  0  0  0  0  0  0
   -4.0822   32.8604    6.2646 H   0  0  0  0  0  0  0  0  0  0  0  0
   -4.8966   31.4510    6.2236 H   0  0  0  0  0  0  0  0  0  0  0  0
   -3.1560   32.6305    8.8733 C   0  0  0  0  0  0  0  0  0  0  0  0
   -4.3314   33.4723    9.3843 C   0  0  0  0  0  0  0  0  0  0  0  0
   -2.4104   32.0100   10.0602 C   0  0  0  0  0  0  0  0  0  0  0  0
 14 15  1  0  0  0
 15 12  1  0  0  0
 12 13  2  0  0  0
 12  6  1  0  0  0
  6  7  1  0  0  0
  7  8  2  0  0  0
  8  9  1  0  0  0
  9  1  1  0  0  0
  1  2  2  0  0  0
  2  3  1  0  0  0
  3 16  1  0  0  0
 16 17  1  0  0  0
 17 18  1  0  0  0
 17 21  1  0  0  0
 21 22  1  0  0  0
 21 23  1  0  0  0
  3  4  1  0  0  0
  4  5  2  0  0  0
  9 10  2  0  0  0
 10 11  1  0  0  0
 11  6  2  0  0  0
  5  1  1  0  0  0
 18 19  1  0  0  0
 18 20  1  0  0  0
M  END
> <minimizedAffinity>
-7.89128

$$$$
OCNT-2312293


 28 31  0  0  0  0  0  0  0  0999 V2000
   -5.9825   29.6887    5.0966 O   0  0  0  0  0  0  0  0  0  0  0  0
   -5.7482   28.5502    5.5129 C   0  0  0  0  0  0  0  0  0  0  0  0
   -5.3698   28.2611    6.8095 N   0  0  0  0  0  0  0  0  0  0  0  0
   -5.1906   27.2934    7.0774 H   0  0  0  0  0  0  0  0  0  0  0  0
   -5.1969   29.1759    7.8349 C   0  0  0  0  0  0  0  0  0  0  0  0
   -6.1340   29.9231    8.5022 C   0  0  0  0  0  0  0  0  0  0  0  0
   -5.4484   30.6628    9.4199 N   0  0  0  0  0  0  0  0  0  0  0  0
   -4.1193   30.4556    9.4021 N   0  0  0  0  0  0  0  0  0  0  0  0
   -3.9583   29.5430    8.4323 C   0  0  0  0  0  0  0  0  0  0  0  0
   -5.8236   31.3276   10.0887 H   0  0  0  0  0  0  0  0  0  0  0  0
   -2.5613   28.9397    7.9978 C   0  0  0  0  0  0  0  0  0  0  0  0
   -2.4919   27.7902    7.3459 N   0  0  0  0  0  0  0  0  0  0  0  0
   -1.1686   27.4847    7.0939 C   0  0  0  0  0  0  0  0  0  0  0  0
   -0.2479   28.4034    7.5491 C   0  0  0  0  0  0  0  0  0  0  0  0
   -1.0583   29.7001    8.3248 S   0  0  0  0  0  0  0  0  0  0  0  0
   -5.8512   27.3080    4.5931 C   0  0  0  0  0  0  0  0  0  0  0  0
   -4.6750   26.3093    4.5256 C   0  0  0  0  0  0  0  0  0  0  0  0
   -4.9749   26.1072    2.9958 C   0  0  0  0  0  0  0  0  0  0  0  0
   -3.7733   26.1475    2.1859 O   0  0  0  0  0  0  0  0  0  0  0  0
   -5.6944   27.4986    3.0687 C   0  0  0  0  0  0  0  0  0  0  0  0
   -4.0912   26.0470    1.2716 H   0  0  0  0  0  0  0  0  0  0  0  0
   -5.8483   24.8016    2.6341 C   0  0  0  0  0  0  0  0  0  0  0  0
   -6.3128   23.8796    3.5948 C   0  0  0  0  0  0  0  0  0  0  0  0
   -7.0802   22.7618    3.2461 C   0  0  0  0  0  0  0  0  0  0  0  0
   -7.4183   22.5349    1.9162 C   0  0  0  0  0  0  0  0  0  0  0  0
   -6.9919   23.4303    0.9441 C   0  0  0  0  0  0  0  0  0  0  0  0
   -7.4130   23.1699   -0.7035 Cl  0  0  0  0  0  0  0  0  0  0  0  0
   -6.2259   24.5434    1.2971 C   0  0  0  0  0  0  0  0  0  0  0  0
  1  2  2  0  0  0
  2  3  1  0  0  0
  3  5  1  0  0  0
  5  6  2  0  0  0
  6  7  1  0  0  0
  7  8  1  0  0  0
  8  9  2  0  0  0
  9 11  1  0  0  0
 11 12  2  0  0  0
 12 13  1  0  0  0
 13 14  2  0  0  0
 14 15  1  0  0  0
  2 16  1  0  0  0
 16 17  1  0  0  0
 17 18  1  0  0  0
 18 19  1  0  0  0
 18 22  1  0  0  0
 22 23  2  0  0  0
 23 24  1  0  0  0
 24 25  2  0  0  0
 25 26  1  0  0  0
 26 27  1  0  0  0
 26 28  2  0  0  0
 18 20  1  0  0  0
  9  5  1  0  0  0
 15 11  1  0  0  0
 20 16  1  0  0  0
 28 22  1  0  0  0
  3  4  1  0  0  0
  7 10  1  0  0  0
 19 21  1  0  0  0
M  END
> <minimizedAffinity>
-9.41303

$$$$
OCNT-2312302


 39 43  0  0  0  0  0  0  0  0999 V2000
   -6.0289   24.8849    0.7198 C   0  0  0  0  0  0  0  0  0  0  0  0
   -7.2713   22.1615    3.1091 C   0  0  0  0  0  0  0  0  0  0  0  0
   -6.7500   21.0221    2.4966 C   0  0  0  0  0  0  0  0  0  0  0  0
   -6.0148   21.1281    1.3126 C   0  0  0  0  0  0  0  0  0  0  0  0
   -5.7902   22.3746    0.7327 C   0  0  0  0  0  0  0  0  0  0  0  0
   -6.2952   23.5340    1.3347 C   0  0  0  0  0  0  0  0  0  0  0  0
   -7.0339   23.4149    2.5240 C   0  0  0  0  0  0  0  0  0  0  0  0
   -6.4046   22.1808    5.9657 O   0  0  0  0  0  0  0  0  0  0  0  0
   -7.5704   22.1579    5.5944 C   0  0  0  0  0  0  0  0  0  0  0  0
   -8.6260   22.1213    6.4842 N   0  0  0  0  0  0  0  0  0  0  0  0
   -8.0312   22.1378    4.2964 N   0  0  0  0  0  0  0  0  0  0  0  0
   -9.4789   22.5660    6.1789 H   0  0  0  0  0  0  0  0  0  0  0  0
   -9.0206   21.9711    4.1931 H   0  0  0  0  0  0  0  0  0  0  0  0
   -8.3615   22.1646    7.9056 C   0  0  0  0  0  0  0  0  0  0  0  0
   -9.4279   22.9588    8.6091 C   0  0  0  0  0  0  0  0  0  0  0  0
  -10.3443   23.7120    7.8704 C   0  0  0  0  0  0  0  0  0  0  0  0
  -11.2930   24.4589    8.5512 C   0  0  0  0  0  0  0  0  0  0  0  0
  -11.3837   24.5108    9.8983 N   0  0  0  0  0  0  0  0  0  0  0  0
  -10.4885   23.7781   10.5933 C   0  0  0  0  0  0  0  0  0  0  0  0
   -9.5037   22.9995   10.0053 C   0  0  0  0  0  0  0  0  0  0  0  0
   -6.0304   25.9178    1.7334 N   0  0  0  0  0  0  0  0  0  0  0  0
   -4.8705   26.2796    2.3856 C   0  0  0  0  0  0  0  0  0  0  0  0
   -3.7598   25.8534    2.0900 O   0  0  0  0  0  0  0  0  0  0  0  0
   -6.9130   26.0991    2.1871 H   0  0  0  0  0  0  0  0  0  0  0  0
   -5.0286   27.2015    3.5455 C   0  0  0  0  0  0  0  0  0  0  0  0
   -5.8803   28.3029    3.4087 C   0  0  0  0  0  0  0  0  0  0  0  0
   -6.0438   29.2091    4.4626 C   0  0  0  0  0  0  0  0  0  0  0  0
   -5.3597   29.0202    5.6693 C   0  0  0  0  0  0  0  0  0  0  0  0
   -4.5410   27.8888    5.8209 C   0  0  0  0  0  0  0  0  0  0  0  0
   -4.3749   26.9854    4.7626 C   0  0  0  0  0  0  0  0  0  0  0  0
   -5.5121   29.9392    6.7473 N   0  0  0  0  0  0  0  0  0  0  0  0
   -6.6730   30.1311    7.4669 C   0  0  0  0  0  0  0  0  0  0  0  0
   -6.5708   31.0789    8.3665 N   0  0  0  0  0  0  0  0  0  0  0  0
   -5.2775   31.5097    8.2738 C   0  0  0  0  0  0  0  0  0  0  0  0
   -4.6304   32.4976    9.0319 C   0  0  0  0  0  0  0  0  0  0  0  0
   -3.2736   32.7450    8.8114 C   0  0  0  0  0  0  0  0  0  0  0  0
   -2.5676   32.0105    7.8647 C   0  0  0  0  0  0  0  0  0  0  0  0
   -3.1972   31.0252    7.0954 C   0  0  0  0  0  0  0  0  0  0  0  0
   -4.5728   30.8098    7.2930 C   0  0  0  0  0  0  0  0  0  0  0  0
  8  9  2  0  0  0
  9 10  1  0  0  0
 10 14  1  0  0  0
 14 15  1  0  0  0
 15 16  2  0  0  0
 16 17  1  0  0  0
 17 18  2  0  0  0
 18 19  1  0  0  0
 19 20  2  0  0  0
  9 11  1  0  0  0
 11  2  1  0  0  0
  2  3  1  0  0  0
  3  4  2  0  0  0
  4  5  1  0  0  0
  5  6  2  0  0  0
  6  1  1  0  0  0
  1 21  1  0  0  0
 21 22  1  0  0  0
 22 23  2  0  0  0
 22 25  1  0  0  0
 25 26  1  0  0  0
 26 27  2  0  0  0
 27 28  1  0  0  0
 28 31  1  0  0  0
 31 32  1  0  0  0
 32 33  2  0  0  0
 33 34  1  0  0  0
 34 35  2  0  0  0
 35 36  1  0  0  0
 36 37  2  0  0  0
 37 38  1  0  0  0
 38 39  2  0  0  0
 28 29  2  0  0  0
 29 30  1  0  0  0
  6  7  1  0  0  0
 20 15  1  0  0  0
  7  2  2  0  0  0
 30 25  2  0  0  0
 39 31  1  0  0  0
 39 34  1  0  0  0
 10 12  1  0  0  0
 11 13  1  0  0  0
 21 24  1  0  0  0
M  END
> <minimizedAffinity>
-11.08683

$$$$
OCNT-2312303


 25 27  0  0  0  0  0  0  0  0999 V2000
   -5.9247   27.4604    6.1778 N   0  0  0  0  0  0  0  0  0  0  0  0
   -5.9848   26.8934    7.0203 H   0  0  0  0  0  0  0  0  0  0  0  0
   -5.9953   25.1452    0.0871 C   0  0  0  0  0  0  0  0  0  0  0  0
   -5.9243   24.4594    1.3685 N   0  0  0  0  0  0  0  0  0  0  0  0
   -5.8905   23.0659    1.3710 C   0  0  0  0  0  0  0  0  0  0  0  0
   -5.9794   22.3780    0.3529 O   0  0  0  0  0  0  0  0  0  0  0  0
   -5.6211   22.4086    2.7040 C   0  0  0  0  0  0  0  0  0  0  0  0
   -6.3779   23.0957    3.8178 C   0  0  0  0  0  0  0  0  0  0  0  0
   -6.0831   24.5676    3.8022 C   0  0  0  0  0  0  0  0  0  0  0  0
   -6.0904   25.2987    5.0051 C   0  0  0  0  0  0  0  0  0  0  0  0
   -5.8674   26.6781    5.0223 C   0  0  0  0  0  0  0  0  0  0  0  0
   -5.7242   27.3205    3.7877 C   0  0  0  0  0  0  0  0  0  0  0  0
   -5.7313   26.6066    2.5822 C   0  0  0  0  0  0  0  0  0  0  0  0
   -5.8987   25.2195    2.5758 C   0  0  0  0  0  0  0  0  0  0  0  0
   -6.8152   28.6119    6.2279 C   0  0  0  0  0  0  0  0  0  0  0  0
   -6.0431   29.8128    6.7240 C   0  0  0  0  0  0  0  0  0  0  0  0
   -4.8045   30.1422    6.1554 C   0  0  0  0  0  0  0  0  0  0  0  0
   -4.0762   31.2462    6.6116 C   0  0  0  0  0  0  0  0  0  0  0  0
   -4.5727   32.0293    7.6536 C   0  0  0  0  0  0  0  0  0  0  0  0
   -5.8091   31.7078    8.2195 C   0  0  0  0  0  0  0  0  0  0  0  0
   -6.5378   30.6054    7.7660 C   0  0  0  0  0  0  0  0  0  0  0  0
   -3.9678   33.1306    8.1909 O   0  0  0  0  0  0  0  0  0  0  0  0
   -4.8257   34.1171    8.7379 C   0  0  0  0  0  0  0  0  0  0  0  0
   -4.5654   34.2518   10.0617 F   0  0  0  0  0  0  0  0  0  0  0  0
   -4.5022   35.3009    8.1576 F   0  0  0  0  0  0  0  0  0  0  0  0
  3  4  1  0  0  0
  4  5  1  0  0  0
  5  6  2  0  0  0
  5  7  1  0  0  0
  7  8  1  0  0  0
  8  9  1  0  0  0
  9 10  1  0  0  0
 10 11  2  0  0  0
 11  1  1  0  0  0
  1 15  1  0  0  0
 15 16  1  0  0  0
 16 17  1  0  0  0
 17 18  2  0  0  0
 18 19  1  0  0  0
 19 22  1  0  0  0
 22 23  1  0  0  0
 23 24  1  0  0  0
 23 25  1  0  0  0
 19 20  2  0  0  0
 20 21  1  0  0  0
 11 12  1  0  0  0
 12 13  2  0  0  0
 13 14  1  0  0  0
 14  4  1  0  0  0
 14  9  2  0  0  0
 21 16  2  0  0  0
  1  2  1  0  0  0
M  END
> <minimizedAffinity>
-9.41345

$$$$
OCNT-2312312


 29 32  0  0  0  0  0  0  0  0999 V2000
   -5.8481   24.5686    3.2320 C   0  0  0  0  0  0  0  0  0  0  0  0
   -5.9106   26.1166    3.1801 C   0  0  0  0  0  0  0  0  0  0  0  0
   -4.4631   26.5587    3.0497 C   0  0  0  0  0  0  0  0  0  0  0  0
   -3.7947   25.6233    3.9541 N   0  0  0  0  0  0  0  0  0  0  0  0
   -4.3669   24.3031    3.6270 C   0  0  0  0  0  0  0  0  0  0  0  0
   -6.1451   23.8166    1.9188 C   0  0  0  0  0  0  0  0  0  0  0  0
   -6.8399   24.4879    0.8905 C   0  0  0  0  0  0  0  0  0  0  0  0
   -7.1387   23.8558   -0.3186 C   0  0  0  0  0  0  0  0  0  0  0  0
   -6.7577   22.5336   -0.5239 C   0  0  0  0  0  0  0  0  0  0  0  0
   -6.0849   21.8456    0.4816 C   0  0  0  0  0  0  0  0  0  0  0  0
   -5.7886   22.4770    1.6961 C   0  0  0  0  0  0  0  0  0  0  0  0
   -6.5399   24.5311    5.6035 N   0  0  0  0  0  0  0  0  0  0  0  0
   -6.8248   24.0949    4.3330 C   0  0  0  0  0  0  0  0  0  0  0  0
   -7.8229   23.4058    4.1439 O   0  0  0  0  0  0  0  0  0  0  0  0
   -7.2630   24.3424    6.2850 H   0  0  0  0  0  0  0  0  0  0  0  0
   -6.0270   25.3975    5.7205 H   0  0  0  0  0  0  0  0  0  0  0  0
   -2.3334   25.6343    3.8227 C   0  0  0  0  0  0  0  0  0  0  0  0
   -1.7226   26.4438    4.9166 C   0  0  0  0  0  0  0  0  0  0  0  0
   -0.4267   26.4327    5.3803 C   0  0  0  0  0  0  0  0  0  0  0  0
   -0.3263   27.3402    6.3885 O   0  0  0  0  0  0  0  0  0  0  0  0
   -1.5856   27.8735    6.4912 C   0  0  0  0  0  0  0  0  0  0  0  0
   -2.4556   27.3681    5.6356 N   0  0  0  0  0  0  0  0  0  0  0  0
   -1.7811   28.9093    7.5035 C   0  0  0  0  0  0  0  0  0  0  0  0
   -0.6737   29.6291    7.9829 C   0  0  0  0  0  0  0  0  0  0  0  0
   -0.8302   30.6235    8.9539 C   0  0  0  0  0  0  0  0  0  0  0  0
   -2.0978   30.9069    9.4549 C   0  0  0  0  0  0  0  0  0  0  0  0
   -2.2933   32.1298   10.6487 Cl  0  0  0  0  0  0  0  0  0  0  0  0
   -3.2095   30.2026    8.9955 C   0  0  0  0  0  0  0  0  0  0  0  0
   -3.0511   29.2091    8.0233 C   0  0  0  0  0  0  0  0  0  0  0  0
 12 13  1  0  0  0
 13 14  2  0  0  0
 13  1  1  0  0  0
  1  6  1  0  0  0
  6  7  2  0  0  0
  7  8  1  0  0  0
  8  9  2  0  0  0
  9 10  1  0  0  0
 10 11  2  0  0  0
  1  2  1  0  0  0
  2  3  1  0  0  0
  3  4  1  0  0  0
  4 17  1  0  0  0
 17 18  1  0  0  0
 18 19  2  0  0  0
 19 20  1  0  0  0
 20 21  1  0  0  0
 21 23  1  0  0  0
 23 24  1  0  0  0
 24 25  2  0  0  0
 25 26  1  0  0  0
 26 27  1  0  0  0
 26 28  2  0  0  0
 28 29  1  0  0  0
 21 22  2  0  0  0
  4  5  1  0  0  0
  5  1  1  0  0  0
 11  6  1  0  0  0
 22 18  1  0  0  0
 29 23  2  0  0  0
 12 15  1  0  0  0
 12 16  1  0  0  0
M  END
> <minimizedAffinity>
-9.96010

$$$$
OCNT-2312315


 24 27  0  0  0  0  0  0  0  0999 V2000
   -2.3777   25.8534    7.1303 O   0  0  0  0  0  0  0  0  0  0  0  0
   -1.7414   26.7989    6.2348 S   0  0  0  0  0  0  0  0  0  0  0  0
   -0.7402   26.3956    5.2716 O   0  0  0  0  0  0  0  0  0  0  0  0
   -1.1460   28.1336    7.2363 C   0  0  0  0  0  0  0  0  0  0  0  0
    0.2345   28.3910    7.3069 C   0  0  0  0  0  0  0  0  0  0  0  0
    0.7064   29.4219    8.1086 C   0  0  0  0  0  0  0  0  0  0  0  0
   -0.1980   30.1953    8.8267 C   0  0  0  0  0  0  0  0  0  0  0  0
   -1.5789   29.9491    8.7383 C   0  0  0  0  0  0  0  0  0  0  0  0
   -2.4851   30.7447    9.4531 C   0  0  0  0  0  0  0  0  0  0  0  0
   -3.8486   30.5077    9.3546 C   0  0  0  0  0  0  0  0  0  0  0  0
   -4.2615   29.4787    8.5375 C   0  0  0  0  0  0  0  0  0  0  0  0
   -3.4143   28.6948    7.8371 N   0  0  0  0  0  0  0  0  0  0  0  0
   -2.0829   28.9046    7.9279 C   0  0  0  0  0  0  0  0  0  0  0  0
   -3.0232   27.4635    5.3616 N   0  0  0  0  0  0  0  0  0  0  0  0
   -3.4316   28.2588    5.8504 H   0  0  0  0  0  0  0  0  0  0  0  0
   -3.8212   26.7460    4.4203 C   0  0  0  0  0  0  0  0  0  0  0  0
   -4.9425   27.4208    3.9138 C   0  0  0  0  0  0  0  0  0  0  0  0
   -5.7634   26.8595    2.9266 C   0  0  0  0  0  0  0  0  0  0  0  0
   -5.3944   25.6032    2.4605 C   0  0  0  0  0  0  0  0  0  0  0  0
   -6.0507   24.8871    1.5070 O   0  0  0  0  0  0  0  0  0  0  0  0
   -5.3662   23.7244    1.3456 C   0  0  0  0  0  0  0  0  0  0  0  0
   -4.2735   23.6852    2.1811 C   0  0  0  0  0  0  0  0  0  0  0  0
   -4.2830   24.9034    2.9113 C   0  0  0  0  0  0  0  0  0  0  0  0
   -3.4703   25.4899    3.9018 C   0  0  0  0  0  0  0  0  0  0  0  0
  1  2  2  0  0  0
  2  3  2  0  0  0
  2 14  1  0  0  0
 14 16  1  0  0  0
 16 17  2  0  0  0
 17 18  1  0  0  0
 18 19  2  0  0  0
 19 20  1  0  0  0
 20 21  1  0  0  0
 21 22  2  0  0  0
 22 23  1  0  0  0
 23 24  2  0  0  0
  2  4  1  0  0  0
  4  5  1  0  0  0
  5  6  2  0  0  0
  6  7  1  0  0  0
  7  8  2  0  0  0
  8  9  1  0  0  0
  9 10  2  0  0  0
 10 11  1  0  0  0
 11 12  2  0  0  0
 12 13  1  0  0  0
 24 16  1  0  0  0
 13  4  2  0  0  0
 23 19  1  0  0  0
 13  8  1  0  0  0
 14 15  1  0  0  0
M  END
> <minimizedAffinity>
-9.48118

$$$$
OCNT-2312337


 26 28  0  0  0  0  0  0  0  0999 V2000
   -1.3693   27.3876    7.4464 O   0  0  0  0  0  0  0  0  0  0  0  0
   -0.4820   27.8809    6.7506 C   0  0  0  0  0  0  0  0  0  0  0  0
   -0.1259   27.3544    5.5121 N   0  0  0  0  0  0  0  0  0  0  0  0
    0.7792   27.6462    5.1533 H   0  0  0  0  0  0  0  0  0  0  0  0
    0.3325   29.1430    7.1643 C   0  0  0  0  0  0  0  0  0  0  0  0
    1.0760   29.5756    6.0876 F   0  0  0  0  0  0  0  0  0  0  0  0
    1.2740   28.8071    8.1018 F   0  0  0  0  0  0  0  0  0  0  0  0
   -0.5887   30.2257    7.6678 C   0  0  0  0  0  0  0  0  0  0  0  0
   -1.4738   30.8535    6.7987 C   0  0  0  0  0  0  0  0  0  0  0  0
   -2.3277   31.8350    7.1698 N   0  0  0  0  0  0  0  0  0  0  0  0
   -2.2992   32.2139    8.4649 C   0  0  0  0  0  0  0  0  0  0  0  0
   -1.4547   31.6557    9.4092 C   0  0  0  0  0  0  0  0  0  0  0  0
   -0.5865   30.6466    9.0024 C   0  0  0  0  0  0  0  0  0  0  0  0
   -0.6745   26.0886    5.0557 C   0  0  0  0  0  0  0  0  0  0  0  0
   -1.6712   26.2800    3.9127 C   0  0  0  0  0  0  0  0  0  0  0  0
   -3.0151   25.7053    4.2251 C   0  0  0  0  0  0  0  0  0  0  0  0
   -3.5768   25.5773    5.4808 C   0  0  0  0  0  0  0  0  0  0  0  0
   -4.8107   25.0020    5.3447 N   0  0  0  0  0  0  0  0  0  0  0  0
   -5.0744   24.7491    4.0184 C   0  0  0  0  0  0  0  0  0  0  0  0
   -6.1957   24.1769    3.4067 C   0  0  0  0  0  0  0  0  0  0  0  0
   -7.5469   23.6569    4.3322 Cl  0  0  0  0  0  0  0  0  0  0  0  0
   -6.1935   24.0364    2.0174 C   0  0  0  0  0  0  0  0  0  0  0  0
   -5.0996   24.4571    1.2644 C   0  0  0  0  0  0  0  0  0  0  0  0
   -3.9826   25.0290    1.8867 C   0  0  0  0  0  0  0  0  0  0  0  0
   -3.9648   25.1804    3.2897 C   0  0  0  0  0  0  0  0  0  0  0  0
   -5.4475   24.7857    6.1004 H   0  0  0  0  0  0  0  0  0  0  0  0
  1  2  2  0  0  0
  2  3  1  0  0  0
  3 14  1  0  0  0
 14 15  1  0  0  0
 15 16  1  0  0  0
 16 17  2  0  0  0
 17 18  1  0  0  0
 18 19  1  0  0  0
 19 20  2  0  0  0
 20 21  1  0  0  0
 20 22  1  0  0  0
 22 23  2  0  0  0
 23 24  1  0  0  0
 24 25  2  0  0  0
  2  5  1  0  0  0
  5  6  1  0  0  0
  5  7  1  0  0  0
  5  8  1  0  0  0
  8  9  2  0  0  0
  9 10  1  0  0  0
 10 11  2  0  0  0
 11 12  1  0  0  0
 12 13  2  0  0  0
 25 16  1  0  0  0
 13  8  1  0  0  0
 25 19  1  0  0  0
  3  4  1  0  0  0
 18 26  1  0  0  0
M  END
> <minimizedAffinity>
-9.45419

$$$$
OCNT-2312338


 27 30  0  0  0  0  0  0  0  0999 V2000
   -2.7208   26.4270    6.0699 O   0  0  0  0  0  0  0  0  0  0  0  0
   -3.6706   26.9582    5.5024 C   0  0  0  0  0  0  0  0  0  0  0  0
   -4.3483   28.0237    6.0413 N   0  0  0  0  0  0  0  0  0  0  0  0
   -4.1545   26.5400    4.2630 N   0  0  0  0  0  0  0  0  0  0  0  0
   -3.4495   25.4096    3.6612 C   0  0  0  0  0  0  0  0  0  0  0  0
   -3.6763   25.3195    2.1549 C   0  0  0  0  0  0  0  0  0  0  0  0
   -5.1684   25.3170    1.7824 C   0  0  0  0  0  0  0  0  0  0  0  0
   -5.8174   26.5621    2.4127 C   0  0  0  0  0  0  0  0  0  0  0  0
   -5.5740   26.6584    3.9177 C   0  0  0  0  0  0  0  0  0  0  0  0
   -4.6591   28.6827    5.3432 H   0  0  0  0  0  0  0  0  0  0  0  0
   -5.8889   24.0070    2.1727 C   0  0  0  0  0  0  0  0  0  0  0  0
   -4.9916   22.7720    2.1692 C   0  0  0  0  0  0  0  0  0  0  0  0
   -5.9897   21.6440    2.0099 C   0  0  0  0  0  0  0  0  0  0  0  0
   -6.9240   22.1651    1.0177 N   0  0  0  0  0  0  0  0  0  0  0  0
   -7.0279   23.6115    1.2218 C   0  0  0  0  0  0  0  0  0  0  0  0
   -7.8331   21.7129    1.0977 H   0  0  0  0  0  0  0  0  0  0  0  0
   -3.9401   28.6085    7.3101 C   0  0  0  0  0  0  0  0  0  0  0  0
   -3.1670   29.9345    7.1423 C   0  0  0  0  0  0  0  0  0  0  0  0
   -3.7190   31.0891    7.9838 C   0  0  0  0  0  0  0  0  0  0  0  0
   -3.3496   30.8860    9.4438 C   0  0  0  0  0  0  0  0  0  0  0  0
   -1.9336   30.8851    9.6483 O   0  0  0  0  0  0  0  0  0  0  0  0
   -1.1995   30.1997    8.7185 C   0  0  0  0  0  0  0  0  0  0  0  0
    0.1477   30.0149    9.0335 C   0  0  0  0  0  0  0  0  0  0  0  0
    0.9948   29.3545    8.1445 C   0  0  0  0  0  0  0  0  0  0  0  0
    0.4968   28.8847    6.9319 C   0  0  0  0  0  0  0  0  0  0  0  0
   -0.8477   29.0749    6.6091 C   0  0  0  0  0  0  0  0  0  0  0  0
   -1.7101   29.7341    7.5006 C   0  0  0  0  0  0  0  0  0  0  0  0
  1  2  2  0  0  0
  2  3  1  0  0  0
  3 17  1  0  0  0
 17 18  1  0  0  0
 18 19  1  0  0  0
 19 20  1  0  0  0
 20 21  1  0  0  0
 21 22  1  0  0  0
 22 23  2  0  0  0
 23 24  1  0  0  0
 24 25  2  0  0  0
 25 26  1  0  0  0
 26 27  2  0  0  0
  2  4  1  0  0  0
  4  5  1  0  0  0
  5  6  1  0  0  0
  6  7  1  0  0  0
  7 11  1  0  0  0
 11 12  1  0  0  0
 12 13  1  0  0  0
 13 14  1  0  0  0
 14 15  1  0  0  0
  7  8  1  0  0  0
  8  9  1  0  0  0
 27 18  1  0  0  0
  9  4  1  0  0  0
 27 22  1  0  0  0
 15 11  1  0  0  0
  3 10  1  0  0  0
 14 16  1  0  0  0
M  END
> <minimizedAffinity>
-9.72407

$$$$
OCNT-2312351


 22 23  0  0  0  0  0  0  0  0999 V2000
   -3.6344   28.8494    6.5519 C   0  0  0  0  0  0  0  0  0  0  0  0
   -2.4418   28.7809    6.8505 O   0  0  0  0  0  0  0  0  0  0  0  0
   -4.2520   27.8885    5.7490 N   0  0  0  0  0  0  0  0  0  0  0  0
   -5.7043   27.7436    5.6838 C   0  0  0  0  0  0  0  0  0  0  0  0
   -6.1458   26.8295    4.5784 C   0  0  0  0  0  0  0  0  0  0  0  0
   -5.3190   26.1346    3.7747 C   0  0  0  0  0  0  0  0  0  0  0  0
   -3.8259   26.2336    3.9581 C   0  0  0  0  0  0  0  0  0  0  0  0
   -3.4623   26.7208    5.3608 C   0  0  0  0  0  0  0  0  0  0  0  0
   -5.8348   25.2803    2.6857 C   0  0  0  0  0  0  0  0  0  0  0  0
   -5.7640   25.6963    1.3481 C   0  0  0  0  0  0  0  0  0  0  0  0
   -6.2664   24.8926    0.3199 C   0  0  0  0  0  0  0  0  0  0  0  0
   -6.8516   23.6599    0.6145 C   0  0  0  0  0  0  0  0  0  0  0  0
   -7.4518   22.7181   -0.7030 Cl  0  0  0  0  0  0  0  0  0  0  0  0
   -6.9347   23.2346    1.9432 C   0  0  0  0  0  0  0  0  0  0  0  0
   -7.6456   21.7230    2.3878 Cl  0  0  0  0  0  0  0  0  0  0  0  0
   -6.4311   24.0433    2.9701 C   0  0  0  0  0  0  0  0  0  0  0  0
   -4.5149   29.9872    7.0567 C   0  0  0  0  0  0  0  0  0  0  0  0
   -4.5322   30.1034    8.5944 C   0  0  0  0  0  0  0  0  0  0  0  0
   -5.6488   31.0570    9.0426 C   0  0  0  0  0  0  0  0  0  0  0  0
   -5.8355   28.6910   10.1128 C   0  0  0  0  0  0  0  0  0  0  0  0
   -4.7362   28.7477    9.1543 N   0  0  0  0  0  0  0  0  0  0  0  0
   -3.8860   28.4613    9.6406 H   0  0  0  0  0  0  0  0  0  0  0  0
 20 21  1  0  0  0
 21 18  1  0  0  0
 18 19  1  0  0  0
 18 17  1  0  0  0
 17  1  1  0  0  0
  1  2  2  0  0  0
  1  3  1  0  0  0
  3  4  1  0  0  0
  4  5  1  0  0  0
  5  6  2  0  0  0
  6  9  1  0  0  0
  9 10  1  0  0  0
 10 11  2  0  0  0
 11 12  1  0  0  0
 12 13  1  0  0  0
 12 14  2  0  0  0
 14 15  1  0  0  0
 14 16  1  0  0  0
  6  7  1  0  0  0
  7  8  1  0  0  0
  8  3  1  0  0  0
 16  9  2  0  0  0
 21 22  1  0  0  0
M  END
> <minimizedAffinity>
-8.26480

$$$$
OCNT-2312355


 23 25  0  0  0  0  0  0  0  0999 V2000
    1.3207   29.1549    8.8812 C   0  0  0  0  0  0  0  0  0  0  0  0
    0.0820   29.6199    8.2080 C   0  0  0  0  0  0  0  0  0  0  0  0
   -0.6768   30.5634    8.7744 N   0  0  0  0  0  0  0  0  0  0  0  0
   -1.7234   30.7358    7.9284 N   0  0  0  0  0  0  0  0  0  0  0  0
   -1.6164   29.9068    6.8328 C   0  0  0  0  0  0  0  0  0  0  0  0
   -0.4576   29.1705    6.9765 C   0  0  0  0  0  0  0  0  0  0  0  0
   -2.7510   31.6780    8.2201 C   0  0  0  0  0  0  0  0  0  0  0  0
   -3.6843   32.0091    7.2253 C   0  0  0  0  0  0  0  0  0  0  0  0
   -4.7010   32.9296    7.4890 C   0  0  0  0  0  0  0  0  0  0  0  0
   -4.7937   33.5260    8.7444 C   0  0  0  0  0  0  0  0  0  0  0  0
   -3.8708   33.2036    9.7380 C   0  0  0  0  0  0  0  0  0  0  0  0
   -2.8504   32.2822    9.4814 C   0  0  0  0  0  0  0  0  0  0  0  0
    0.0952   28.1431    6.0512 C   0  0  0  0  0  0  0  0  0  0  0  0
   -0.5126   26.8671    6.3975 N   0  0  0  0  0  0  0  0  0  0  0  0
   -1.3632   27.0245    6.9335 H   0  0  0  0  0  0  0  0  0  0  0  0
   -0.8278   26.0509    5.2153 C   0  0  0  0  0  0  0  0  0  0  0  0
    0.1938   26.2615    4.0930 C   0  0  0  0  0  0  0  0  0  0  0  0
   -2.2156   26.3980    4.7337 C   0  0  0  0  0  0  0  0  0  0  0  0
   -2.7755   26.3184    3.4722 C   0  0  0  0  0  0  0  0  0  0  0  0
   -4.0580   26.7676    3.6102 N   0  0  0  0  0  0  0  0  0  0  0  0
   -4.2432   27.0873    4.9236 C   0  0  0  0  0  0  0  0  0  0  0  0
   -3.1564   26.8745    5.6278 N   0  0  0  0  0  0  0  0  0  0  0  0
   -4.7470   26.8527    2.8762 H   0  0  0  0  0  0  0  0  0  0  0  0
  1  2  1  0  0  0
  2  3  2  0  0  0
  3  4  1  0  0  0
  4  7  1  0  0  0
  7  8  2  0  0  0
  8  9  1  0  0  0
  9 10  2  0  0  0
 10 11  1  0  0  0
 11 12  2  0  0  0
  4  5  1  0  0  0
  5  6  2  0  0  0
  6 13  1  0  0  0
 13 14  1  0  0  0
 14 16  1  0  0  0
 16 17  1  0  0  0
 16 18  1  0  0  0
 18 19  2  0  0  0
 19 20  1  0  0  0
 20 21  1  0  0  0
 21 22  2  0  0  0
  6  2  1  0  0  0
 22 18  1  0  0  0
 12  7  1  0  0  0
 14 15  1  0  0  0
 20 23  1  0  0  0
M  END
> <minimizedAffinity>
-8.09812

$$$$
OCNT-2312358


 31 34  0  0  0  0  0  0  0  0999 V2000
   -8.1067   30.3122    6.1257 O   0  0  0  0  0  0  0  0  0  0  0  0
   -6.9228   29.9674    6.0839 C   0  0  0  0  0  0  0  0  0  0  0  0
   -6.0672   30.2710    7.1341 N   0  0  0  0  0  0  0  0  0  0  0  0
   -6.5493   30.9788    8.3042 C   0  0  0  0  0  0  0  0  0  0  0  0
   -5.4352   30.8253    9.3308 C   0  0  0  0  0  0  0  0  0  0  0  0
   -4.1720   30.8412    8.4640 C   0  0  0  0  0  0  0  0  0  0  0  0
   -3.8893   32.2051    8.1078 O   0  0  0  0  0  0  0  0  0  0  0  0
   -4.6263   30.0603    7.2086 C   0  0  0  0  0  0  0  0  0  0  0  0
   -3.2644   32.1996    7.3624 H   0  0  0  0  0  0  0  0  0  0  0  0
   -6.4137   29.2184    4.9106 C   0  0  0  0  0  0  0  0  0  0  0  0
   -6.0954   29.7562    3.7176 N   0  0  0  0  0  0  0  0  0  0  0  0
   -5.6694   28.7121    2.9874 N   0  0  0  0  0  0  0  0  0  0  0  0
   -5.6875   27.5059    3.6354 C   0  0  0  0  0  0  0  0  0  0  0  0
   -6.1656   27.8139    4.8935 C   0  0  0  0  0  0  0  0  0  0  0  0
   -5.3658   28.8649    2.0300 H   0  0  0  0  0  0  0  0  0  0  0  0
   -5.2599   26.2472    3.0095 C   0  0  0  0  0  0  0  0  0  0  0  0
   -5.8110   25.8615    1.7767 C   0  0  0  0  0  0  0  0  0  0  0  0
   -5.4274   24.6704    1.1525 C   0  0  0  0  0  0  0  0  0  0  0  0
   -4.4836   23.8406    1.7502 C   0  0  0  0  0  0  0  0  0  0  0  0
   -3.9204   24.1986    2.9731 C   0  0  0  0  0  0  0  0  0  0  0  0
   -4.3064   25.3907    3.5950 C   0  0  0  0  0  0  0  0  0  0  0  0
   -3.7351   25.7200    4.8015 O   0  0  0  0  0  0  0  0  0  0  0  0
   -3.1117   25.0132    5.0448 H   0  0  0  0  0  0  0  0  0  0  0  0
   -2.9335   30.1991    9.1157 C   0  0  0  0  0  0  0  0  0  0  0  0
   -1.9680   29.5428    8.1504 C   0  0  0  0  0  0  0  0  0  0  0  0
   -2.0383   28.1658    7.8887 C   0  0  0  0  0  0  0  0  0  0  0  0
   -1.1460   27.5678    6.9976 C   0  0  0  0  0  0  0  0  0  0  0  0
   -0.1814   28.3443    6.3691 C   0  0  0  0  0  0  0  0  0  0  0  0
    0.6753   27.7698    5.5143 F   0  0  0  0  0  0  0  0  0  0  0  0
   -0.0921   29.7086    6.6138 C   0  0  0  0  0  0  0  0  0  0  0  0
   -0.9842   30.3088    7.5040 C   0  0  0  0  0  0  0  0  0  0  0  0
  1  2  2  0  0  0
  2 10  1  0  0  0
 10 11  2  0  0  0
 11 12  1  0  0  0
 12 13  1  0  0  0
 13 16  1  0  0  0
 16 17  2  0  0  0
 17 18  1  0  0  0
 18 19  2  0  0  0
 19 20  1  0  0  0
 20 21  2  0  0  0
 21 22  1  0  0  0
 13 14  2  0  0  0
  2  3  1  0  0  0
  3  4  1  0  0  0
  4  5  1  0  0  0
  5  6  1  0  0  0
  6  7  1  0  0  0
  6 24  1  0  0  0
 24 25  1  0  0  0
 25 26  1  0  0  0
 26 27  2  0  0  0
 27 28  1  0  0  0
 28 29  1  0  0  0
 28 30  2  0  0  0
 30 31  1  0  0  0
  6  8  1  0  0  0
 14 10  1  0  0  0
  8  3  1  0  0  0
 21 16  1  0  0  0
 31 25  2  0  0  0
 12 15  1  0  0  0
 22 23  1  0  0  0
  7  9  1  0  0  0
M  END
> <minimizedAffinity>
-10.43699

$$$$
OCNT-2312364


 27 29  0  0  0  0  0  0  0  0999 V2000
   -2.8056   30.7335    6.9953 C   0  0  0  0  0  0  0  0  0  0  0  0
   -1.6749   30.0206    6.7441 N   0  0  0  0  0  0  0  0  0  0  0  0
   -0.6549   29.9940    7.6548 C   0  0  0  0  0  0  0  0  0  0  0  0
   -0.6491   30.6407    8.8519 N   0  0  0  0  0  0  0  0  0  0  0  0
   -1.7758   31.3361    9.0473 C   0  0  0  0  0  0  0  0  0  0  0  0
   -2.8680   31.4425    8.2073 C   0  0  0  0  0  0  0  0  0  0  0  0
   -3.8266   32.2688    8.7605 N   0  0  0  0  0  0  0  0  0  0  0  0
   -3.3254   32.6403    9.9194 C   0  0  0  0  0  0  0  0  0  0  0  0
   -2.0873   32.0992   10.1356 N   0  0  0  0  0  0  0  0  0  0  0  0
   -1.4994   32.2322   10.9448 H   0  0  0  0  0  0  0  0  0  0  0  0
    0.5754   29.1490    7.2954 C   0  0  0  0  0  0  0  0  0  0  0  0
    1.1575   29.5027    6.1088 F   0  0  0  0  0  0  0  0  0  0  0  0
    0.2937   27.8154    7.1676 F   0  0  0  0  0  0  0  0  0  0  0  0
    1.5716   29.2273    8.2272 F   0  0  0  0  0  0  0  0  0  0  0  0
   -3.8533   30.7533    6.0757 N   0  0  0  0  0  0  0  0  0  0  0  0
   -3.4886   30.6974    5.1234 H   0  0  0  0  0  0  0  0  0  0  0  0
   -4.9770   29.8494    6.3296 C   0  0  0  0  0  0  0  0  0  0  0  0
   -7.2370   30.1209    5.4551 O   0  0  0  0  0  0  0  0  0  0  0  0
   -5.9070   29.7114    5.1030 C   0  0  0  0  0  0  0  0  0  0  0  0
   -7.8164   29.8381    4.7265 H   0  0  0  0  0  0  0  0  0  0  0  0
   -5.9321   28.2911    4.5732 C   0  0  0  0  0  0  0  0  0  0  0  0
   -5.7121   28.0489    3.2081 C   0  0  0  0  0  0  0  0  0  0  0  0
   -5.7160   26.7438    2.7093 C   0  0  0  0  0  0  0  0  0  0  0  0
   -5.9343   25.6724    3.5723 C   0  0  0  0  0  0  0  0  0  0  0  0
   -5.9395   24.0658    2.9567 Cl  0  0  0  0  0  0  0  0  0  0  0  0
   -6.1453   25.8938    4.9310 C   0  0  0  0  0  0  0  0  0  0  0  0
   -6.1409   27.1981    5.4306 C   0  0  0  0  0  0  0  0  0  0  0  0
 18 19  1  0  0  0
 19 17  1  0  0  0
 17 15  1  0  0  0
 15  1  1  0  0  0
  1  2  1  0  0  0
  2  3  2  0  0  0
  3 11  1  0  0  0
 11 12  1  0  0  0
 11 13  1  0  0  0
 11 14  1  0  0  0
  3  4  1  0  0  0
  4  5  2  0  0  0
  5  6  1  0  0  0
  6  7  1  0  0  0
  7  8  2  0  0  0
  8  9  1  0  0  0
 19 21  1  0  0  0
 21 22  1  0  0  0
 22 23  2  0  0  0
 23 24  1  0  0  0
 24 25  1  0  0  0
 24 26  2  0  0  0
 26 27  1  0  0  0
  6  1  2  0  0  0
 27 21  2  0  0  0
  9  5  1  0  0  0
 18 20  1  0  0  0
 15 16  1  0  0  0
  9 10  1  0  0  0
M  END
> <minimizedAffinity>
-9.51693

$$$$
OCNT-2312368


 26 29  0  0  0  0  0  0  0  0999 V2000
   -2.2270   29.8683    8.6536 C   0  0  0  0  0  0  0  0  0  0  0  0
   -1.0489   29.1954    8.3013 C   0  0  0  0  0  0  0  0  0  0  0  0
   -1.0400   28.3248    7.2198 C   0  0  0  0  0  0  0  0  0  0  0  0
   -2.2053   28.1309    6.4874 C   0  0  0  0  0  0  0  0  0  0  0  0
   -3.4025   28.8048    6.8154 C   0  0  0  0  0  0  0  0  0  0  0  0
   -4.6017   28.6187    6.0780 C   0  0  0  0  0  0  0  0  0  0  0  0
   -5.7486   29.3067    6.4795 C   0  0  0  0  0  0  0  0  0  0  0  0
   -5.6842   30.1470    7.5772 C   0  0  0  0  0  0  0  0  0  0  0  0
   -6.9002   30.9003    8.0245 C   0  0  0  0  0  0  0  0  0  0  0  0
   -4.5498   30.3363    8.2807 N   0  0  0  0  0  0  0  0  0  0  0  0
   -3.4195   29.6845    7.9228 C   0  0  0  0  0  0  0  0  0  0  0  0
   -4.6156   27.7820    4.9370 N   0  0  0  0  0  0  0  0  0  0  0  0
   -5.6861   28.1535    3.9958 C   0  0  0  0  0  0  0  0  0  0  0  0
   -5.7311   27.1437    2.8587 C   0  0  0  0  0  0  0  0  0  0  0  0
   -6.0874   25.7422    3.3765 C   0  0  0  0  0  0  0  0  0  0  0  0
   -5.6524   25.5333    4.8359 C   0  0  0  0  0  0  0  0  0  0  0  0
   -4.4040   26.3431    5.1679 C   0  0  0  0  0  0  0  0  0  0  0  0
   -5.4183   24.7441    2.5868 O   0  0  0  0  0  0  0  0  0  0  0  0
   -6.1463   24.2474    1.5269 C   0  0  0  0  0  0  0  0  0  0  0  0
   -6.8695   23.0813    1.7409 C   0  0  0  0  0  0  0  0  0  0  0  0
   -7.6205   22.4953    0.7754 N   0  0  0  0  0  0  0  0  0  0  0  0
   -7.6123   23.1313   -0.4170 C   0  0  0  0  0  0  0  0  0  0  0  0
   -6.8899   24.2947   -0.6322 C   0  0  0  0  0  0  0  0  0  0  0  0
   -6.1410   24.8795    0.3321 N   0  0  0  0  0  0  0  0  0  0  0  0
   -1.6507   31.9960    9.6022 C   0  0  0  0  0  0  0  0  0  0  0  0
   -2.3103   30.7447    9.7165 O   0  0  0  0  0  0  0  0  0  0  0  0
 25 26  1  0  0  0
 26  1  1  0  0  0
  1  2  1  0  0  0
  2  3  2  0  0  0
  3  4  1  0  0  0
  4  5  2  0  0  0
  5  6  1  0  0  0
  6 12  1  0  0  0
 12 13  1  0  0  0
 13 14  1  0  0  0
 14 15  1  0  0  0
 15 18  1  0  0  0
 18 19  1  0  0  0
 19 20  2  0  0  0
 20 21  1  0  0  0
 21 22  2  0  0  0
 22 23  1  0  0  0
 23 24  2  0  0  0
 15 16  1  0  0  0
 16 17  1  0  0  0
  6  7  2  0  0  0
  7  8  1  0  0  0
  8  9  1  0  0  0
  8 10  2  0  0  0
 10 11  1  0  0  0
 11  1  2  0  0  0
 11  5  1  0  0  0
 17 12  1  0  0  0
 24 19  1  0  0  0
M  END
> <minimizedAffinity>
-8.87043

$$$$
OCNT-2312372


 26 29  0  0  0  0  0  0  0  0999 V2000
   -5.4635   29.4364    5.5639 N   0  0  0  0  0  0  0  0  0  0  0  0
   -5.7115   28.1704    6.2518 C   0  0  0  0  0  0  0  0  0  0  0  0
   -5.7487   26.9759    5.3384 C   0  0  0  0  0  0  0  0  0  0  0  0
   -5.7610   27.0617    3.9947 C   0  0  0  0  0  0  0  0  0  0  0  0
   -5.7379   28.4175    3.3300 C   0  0  0  0  0  0  0  0  0  0  0  0
   -6.1596   29.5476    4.2853 C   0  0  0  0  0  0  0  0  0  0  0  0
   -5.7798   25.8585    3.1368 C   0  0  0  0  0  0  0  0  0  0  0  0
   -5.7410   25.9697    1.7368 C   0  0  0  0  0  0  0  0  0  0  0  0
   -5.7476   24.8317    0.9243 C   0  0  0  0  0  0  0  0  0  0  0  0
   -5.7917   23.5677    1.5030 C   0  0  0  0  0  0  0  0  0  0  0  0
   -5.8187   22.4967    0.6473 O   0  0  0  0  0  0  0  0  0  0  0  0
   -6.2072   21.2980    1.3281 C   0  0  0  0  0  0  0  0  0  0  0  0
   -5.4574   21.1615    2.6428 C   0  0  0  0  0  0  0  0  0  0  0  0
   -5.8038   22.2260    3.5359 O   0  0  0  0  0  0  0  0  0  0  0  0
   -5.7963   23.4391    2.8940 C   0  0  0  0  0  0  0  0  0  0  0  0
   -5.8028   24.5760    3.7043 C   0  0  0  0  0  0  0  0  0  0  0  0
   -5.5240   30.6158    6.4265 C   0  0  0  0  0  0  0  0  0  0  0  0
   -2.1508   32.0944   10.5576 O   0  0  0  0  0  0  0  0  0  0  0  0
   -2.5438   31.8684    9.4122 C   0  0  0  0  0  0  0  0  0  0  0  0
   -4.0195   31.9065    9.0735 C   0  0  0  0  0  0  0  0  0  0  0  0
   -4.3401   32.5427    7.7300 C   0  0  0  0  0  0  0  0  0  0  0  0
   -4.2901   31.5542    6.5527 C   0  0  0  0  0  0  0  0  0  0  0  0
   -3.0195   30.6734    6.5774 C   0  0  0  0  0  0  0  0  0  0  0  0
   -1.7709   31.4119    7.0341 C   0  0  0  0  0  0  0  0  0  0  0  0
   -1.6305   31.4956    8.4751 N   0  0  0  0  0  0  0  0  0  0  0  0
   -0.6860   31.5431    8.8409 H   0  0  0  0  0  0  0  0  0  0  0  0
 18 19  2  0  0  0
 19 20  1  0  0  0
 20 21  1  0  0  0
 21 22  1  0  0  0
 22 17  1  0  0  0
 17  1  1  0  0  0
  1  2  1  0  0  0
  2  3  1  0  0  0
  3  4  2  0  0  0
  4  7  1  0  0  0
  7  8  1  0  0  0
  8  9  2  0  0  0
  9 10  1  0  0  0
 10 11  1  0  0  0
 11 12  1  0  0  0
 12 13  1  0  0  0
 13 14  1  0  0  0
 14 15  1  0  0  0
 15 16  1  0  0  0
  4  5  1  0  0  0
  5  6  1  0  0  0
 22 23  1  0  0  0
 23 24  1  0  0  0
 24 25  1  0  0  0
 25 19  1  0  0  0
  6  1  1  0  0  0
 16  7  2  0  0  0
 15 10  2  0  0  0
 25 26  1  0  0  0
M  END
> <minimizedAffinity>
-9.79843

$$$$
OCNT-2312385


 29 31  0  0  0  0  0  0  0  0999 V2000
   -4.7470   27.4785    5.7207 O   0  0  0  0  0  0  0  0  0  0  0  0
   -4.0085   26.9395    4.9031 C   0  0  0  0  0  0  0  0  0  0  0  0
   -2.7517   26.4598    5.2386 N   0  0  0  0  0  0  0  0  0  0  0  0
   -2.2048   25.9513    4.5563 H   0  0  0  0  0  0  0  0  0  0  0  0
   -4.3602   26.7528    3.4257 C   0  0  0  0  0  0  0  0  0  0  0  0
   -5.5048   25.7781    3.2739 C   0  0  0  0  0  0  0  0  0  0  0  0
   -5.0870   25.1313    1.9985 C   0  0  0  0  0  0  0  0  0  0  0  0
   -3.8606   25.3684    1.6611 N   0  0  0  0  0  0  0  0  0  0  0  0
   -3.2951   26.1805    2.6742 O   0  0  0  0  0  0  0  0  0  0  0  0
   -6.0064   24.2851    1.2115 C   0  0  0  0  0  0  0  0  0  0  0  0
   -6.6712   24.8022    0.0969 C   0  0  0  0  0  0  0  0  0  0  0  0
   -6.5315   26.0835   -0.2699 F   0  0  0  0  0  0  0  0  0  0  0  0
   -7.5327   24.0073   -0.6623 C   0  0  0  0  0  0  0  0  0  0  0  0
   -7.7425   22.6746   -0.3151 C   0  0  0  0  0  0  0  0  0  0  0  0
   -7.0894   22.1452    0.7954 C   0  0  0  0  0  0  0  0  0  0  0  0
   -6.2303   22.9482    1.5482 C   0  0  0  0  0  0  0  0  0  0  0  0
   -5.6217   22.3856    2.6026 F   0  0  0  0  0  0  0  0  0  0  0  0
   -2.1949   26.6442    6.5713 C   0  0  0  0  0  0  0  0  0  0  0  0
   -1.1391   27.7693    6.6391 C   0  0  0  0  0  0  0  0  0  0  0  0
    0.1385   27.2014    6.9332 O   0  0  0  0  0  0  0  0  0  0  0  0
    0.6405   27.8462    7.4613 H   0  0  0  0  0  0  0  0  0  0  0  0
   -1.4525   28.8742    7.6293 C   0  0  0  0  0  0  0  0  0  0  0  0
   -0.4279   29.7110    8.1031 C   0  0  0  0  0  0  0  0  0  0  0  0
   -0.7070   30.7389    9.0096 C   0  0  0  0  0  0  0  0  0  0  0  0
   -2.0123   30.9353    9.4584 C   0  0  0  0  0  0  0  0  0  0  0  0
   -2.3379   32.1996   10.5800 Cl  0  0  0  0  0  0  0  0  0  0  0  0
   -3.0317   30.1052    9.0016 C   0  0  0  0  0  0  0  0  0  0  0  0
   -4.2913   30.2674    9.4329 F   0  0  0  0  0  0  0  0  0  0  0  0
   -2.7606   29.0817    8.0953 C   0  0  0  0  0  0  0  0  0  0  0  0
  1  2  2  0  0  0
  2  3  1  0  0  0
  3 18  1  0  0  0
 18 19  1  0  0  0
 19 20  1  0  0  0
 19 22  1  0  0  0
 22 23  1  0  0  0
 23 24  2  0  0  0
 24 25  1  0  0  0
 25 26  1  0  0  0
 25 27  2  0  0  0
 27 28  1  0  0  0
 27 29  1  0  0  0
  2  5  1  0  0  0
  5  6  1  0  0  0
  6  7  1  0  0  0
  7 10  1  0  0  0
 10 11  2  0  0  0
 11 12  1  0  0  0
 11 13  1  0  0  0
 13 14  2  0  0  0
 14 15  1  0  0  0
 15 16  2  0  0  0
 16 17  1  0  0  0
  7  8  2  0  0  0
  8  9  1  0  0  0
 29 22  2  0  0  0
  9  5  1  0  0  0
 16 10  1  0  0  0
  3  4  1  0  0  0
 20 21  1  0  0  0
M  END
> <minimizedAffinity>
-10.55468

$$$$
OCNT-2312389


 22 24  0  0  0  0  0  0  0  0999 V2000
    0.0868   28.4411    6.8991 C   0  0  0  0  0  0  0  0  0  0  0  0
    0.7245   29.0293    6.0340 O   0  0  0  0  0  0  0  0  0  0  0  0
   -0.3798   27.1540    6.7458 N   0  0  0  0  0  0  0  0  0  0  0  0
   -1.1322   26.8484    7.3509 H   0  0  0  0  0  0  0  0  0  0  0  0
   -0.3008   29.0512    8.2361 C   0  0  0  0  0  0  0  0  0  0  0  0
   -3.1386   30.7812    6.6287 C   0  0  0  0  0  0  0  0  0  0  0  0
   -2.6180   30.0324    7.8623 C   0  0  0  0  0  0  0  0  0  0  0  0
   -3.4883   30.3276    9.0909 C   0  0  0  0  0  0  0  0  0  0  0  0
   -3.3676   31.7671    9.5885 C   0  0  0  0  0  0  0  0  0  0  0  0
   -1.9542   32.3337    9.4703 C   0  0  0  0  0  0  0  0  0  0  0  0
   -0.9024   31.2376    9.3656 C   0  0  0  0  0  0  0  0  0  0  0  0
   -1.1153   30.3551    8.1160 C   0  0  0  0  0  0  0  0  0  0  0  0
   -0.2902   26.4821    5.4640 C   0  0  0  0  0  0  0  0  0  0  0  0
   -1.6592   26.4387    4.8488 C   0  0  0  0  0  0  0  0  0  0  0  0
   -1.9105   25.9575    3.6467 N   0  0  0  0  0  0  0  0  0  0  0  0
   -3.2700   26.0489    3.3753 C   0  0  0  0  0  0  0  0  0  0  0  0
   -3.9207   25.6374    2.2038 C   0  0  0  0  0  0  0  0  0  0  0  0
   -5.2623   25.7820    2.0606 N   0  0  0  0  0  0  0  0  0  0  0  0
   -5.9691   26.3311    3.0699 C   0  0  0  0  0  0  0  0  0  0  0  0
   -5.4250   26.7705    4.2648 C   0  0  0  0  0  0  0  0  0  0  0  0
   -4.0423   26.6137    4.3916 C   0  0  0  0  0  0  0  0  0  0  0  0
   -3.0182   27.0357    5.7090 S   0  0  0  0  0  0  0  0  0  0  0  0
  6  7  1  0  0  0
  7  8  1  0  0  0
  8  9  1  0  0  0
  9 10  1  0  0  0
 10 11  1  0  0  0
 11 12  1  0  0  0
 12  5  1  0  0  0
  5  1  1  0  0  0
  1  2  2  0  0  0
  1  3  1  0  0  0
  3 13  1  0  0  0
 13 14  1  0  0  0
 14 15  2  0  0  0
 15 16  1  0  0  0
 16 17  2  0  0  0
 17 18  1  0  0  0
 18 19  2  0  0  0
 19 20  1  0  0  0
 20 21  2  0  0  0
 21 22  1  0  0  0
 12  7  1  0  0  0
 22 14  1  0  0  0
 21 16  1  0  0  0
  3  4  1  0  0  0
M  END
> <minimizedAffinity>
-8.25570

$$$$
OCNT-2312400


 31 34  0  0  0  0  0  0  0  0999 V2000
   -5.5951   25.1415    3.4368 N   0  0  0  0  0  0  0  0  0  0  0  0
   -4.7649   26.2612    3.3778 C   0  0  0  0  0  0  0  0  0  0  0  0
   -3.7915   26.3374    2.6285 O   0  0  0  0  0  0  0  0  0  0  0  0
   -5.0332   27.4090    4.2705 C   0  0  0  0  0  0  0  0  0  0  0  0
   -6.1012   28.2591    3.9748 C   0  0  0  0  0  0  0  0  0  0  0  0
   -6.3818   29.3360    4.8170 C   0  0  0  0  0  0  0  0  0  0  0  0
   -5.5972   29.5626    5.9535 C   0  0  0  0  0  0  0  0  0  0  0  0
   -5.9287   30.6529    6.7687 N   0  0  0  0  0  0  0  0  0  0  0  0
   -5.1957   31.1352    7.8180 C   0  0  0  0  0  0  0  0  0  0  0  0
   -5.6540   32.0575    8.4954 O   0  0  0  0  0  0  0  0  0  0  0  0
   -3.7877   30.6262    8.0260 C   0  0  0  0  0  0  0  0  0  0  0  0
   -3.6096   28.8478    7.7720 S   0  0  0  0  0  0  0  0  0  0  0  0
   -4.5490   28.6857    6.2702 C   0  0  0  0  0  0  0  0  0  0  0  0
   -4.2789   27.5989    5.4318 C   0  0  0  0  0  0  0  0  0  0  0  0
   -6.7990   31.1456    6.6087 H   0  0  0  0  0  0  0  0  0  0  0  0
   -6.4500   24.8126    4.5901 C   0  0  0  0  0  0  0  0  0  0  0  0
   -7.0880   23.4196    4.5031 C   0  0  0  0  0  0  0  0  0  0  0  0
   -5.6447   21.9298    6.6875 C   0  0  0  0  0  0  0  0  0  0  0  0
   -7.0921   22.3245    6.8161 C   0  0  0  0  0  0  0  0  0  0  0  0
   -7.7857   21.9927    7.9910 C   0  0  0  0  0  0  0  0  0  0  0  0
   -9.1237   22.3497    8.1586 C   0  0  0  0  0  0  0  0  0  0  0  0
   -9.7876   23.0476    7.1557 C   0  0  0  0  0  0  0  0  0  0  0  0
   -9.1126   23.3904    5.9855 C   0  0  0  0  0  0  0  0  0  0  0  0
   -7.7626   23.0407    5.8031 C   0  0  0  0  0  0  0  0  0  0  0  0
   -5.3385   24.0660    2.4764 C   0  0  0  0  0  0  0  0  0  0  0  0
   -6.1416   24.2550    1.2347 C   0  0  0  0  0  0  0  0  0  0  0  0
   -7.1983   23.5687    0.8445 N   0  0  0  0  0  0  0  0  0  0  0  0
   -7.5712   24.1203   -0.3547 C   0  0  0  0  0  0  0  0  0  0  0  0
   -6.7293   25.1488   -0.7034 C   0  0  0  0  0  0  0  0  0  0  0  0
   -5.8252   25.2282    0.3166 N   0  0  0  0  0  0  0  0  0  0  0  0
   -5.0274   25.8515    0.3956 H   0  0  0  0  0  0  0  0  0  0  0  0
 18 19  1  0  0  0
 19 20  2  0  0  0
 20 21  1  0  0  0
 21 22  2  0  0  0
 22 23  1  0  0  0
 23 24  2  0  0  0
 24 17  1  0  0  0
 17 16  1  0  0  0
 16  1  1  0  0  0
  1 25  1  0  0  0
 25 26  1  0  0  0
 26 27  2  0  0  0
 27 28  1  0  0  0
 28 29  2  0  0  0
 29 30  1  0  0  0
  1  2  1  0  0  0
  2  3  2  0  0  0
  2  4  1  0  0  0
  4  5  1  0  0  0
  5  6  2  0  0  0
  6  7  1  0  0  0
  7  8  1  0  0  0
  8  9  1  0  0  0
  9 10  2  0  0  0
  9 11  1  0  0  0
 11 12  1  0  0  0
 12 13  1  0  0  0
 13 14  1  0  0  0
 24 19  1  0  0  0
 30 26  1  0  0  0
 14  4  2  0  0  0
 13  7  2  0  0  0
 30 31  1  0  0  0
  8 15  1  0  0  0
M  END
> <minimizedAffinity>
-9.92195

$$$$
OCNT-2312401


 23 25  0  0  0  0  0  0  0  0999 V2000
   -1.9082   27.9984    6.8955 C   0  0  0  0  0  0  0  0  0  0  0  0
   -0.6995   27.4733    6.6742 N   0  0  0  0  0  0  0  0  0  0  0  0
   -0.6514   26.5307    5.7252 C   0  0  0  0  0  0  0  0  0  0  0  0
   -1.7493   26.1231    5.0011 C   0  0  0  0  0  0  0  0  0  0  0  0
   -2.9593   26.7323    5.2799 C   0  0  0  0  0  0  0  0  0  0  0  0
   -3.0355   27.6620    6.2493 N   0  0  0  0  0  0  0  0  0  0  0  0
   -4.1223   26.3817    4.6114 N   0  0  0  0  0  0  0  0  0  0  0  0
   -4.3702   27.0358    3.3202 C   0  0  0  0  0  0  0  0  0  0  0  0
   -5.7403   26.6165    2.7586 C   0  0  0  0  0  0  0  0  0  0  0  0
   -5.8747   25.1723    2.5103 N   0  0  0  0  0  0  0  0  0  0  0  0
   -5.2006   24.3460    3.5414 C   0  0  0  0  0  0  0  0  0  0  0  0
   -3.9459   23.7346    2.8861 C   0  0  0  0  0  0  0  0  0  0  0  0
   -6.1476   23.1892    3.9188 C   0  0  0  0  0  0  0  0  0  0  0  0
   -4.7991   25.1002    4.8574 C   0  0  0  0  0  0  0  0  0  0  0  0
   -6.8655   24.9444    2.4465 H   0  0  0  0  0  0  0  0  0  0  0  0
   -1.9368   28.9679    7.8734 O   0  0  0  0  0  0  0  0  0  0  0  0
   -3.9010   32.8555    9.2550 C   0  0  0  0  0  0  0  0  0  0  0  0
   -3.0333   31.7383    8.6789 C   0  0  0  0  0  0  0  0  0  0  0  0
   -1.9819   31.2789    9.7033 C   0  0  0  0  0  0  0  0  0  0  0  0
   -0.7104   30.7067    9.0658 C   0  0  0  0  0  0  0  0  0  0  0  0
   -0.9787   30.0236    7.7215 C   0  0  0  0  0  0  0  0  0  0  0  0
   -1.5699   31.0334    6.7190 C   0  0  0  0  0  0  0  0  0  0  0  0
   -2.3722   32.1686    7.3686 C   0  0  0  0  0  0  0  0  0  0  0  0
 17 18  1  0  0  0
 18 19  1  0  0  0
 19 20  1  0  0  0
 20 21  1  0  0  0
 21 16  1  0  0  0
 16  1  1  0  0  0
  1  2  2  0  0  0
  2  3  1  0  0  0
  3  4  2  0  0  0
  4  5  1  0  0  0
  5  7  1  0  0  0
  7  8  1  0  0  0
  8  9  1  0  0  0
  9 10  1  0  0  0
 10 11  1  0  0  0
 11 12  1  0  0  0
 11 13  1  0  0  0
 11 14  1  0  0  0
  5  6  2  0  0  0
 21 22  1  0  0  0
 22 23  1  0  0  0
 23 18  1  0  0  0
  6  1  1  0  0  0
 14  7  1  0  0  0
 10 15  1  0  0  0
M  END
> <minimizedAffinity>
-8.71145

$$$$
OCNT-2312407


 25 28  0  0  0  0  0  0  0  0999 V2000
   -6.5975   29.4057    5.0550 O   0  0  0  0  0  0  0  0  0  0  0  0
   -6.3088   28.3017    5.5053 C   0  0  0  0  0  0  0  0  0  0  0  0
   -6.1697   28.0583    6.8497 N   0  0  0  0  0  0  0  0  0  0  0  0
   -5.6679   27.2411    7.1781 H   0  0  0  0  0  0  0  0  0  0  0  0
   -6.0692   27.1510    4.5898 C   0  0  0  0  0  0  0  0  0  0  0  0
   -5.8341   27.4177    3.2372 C   0  0  0  0  0  0  0  0  0  0  0  0
   -5.6298   26.3694    2.3360 C   0  0  0  0  0  0  0  0  0  0  0  0
   -5.6684   25.0350    2.7704 C   0  0  0  0  0  0  0  0  0  0  0  0
   -5.4789   23.9652    1.8871 C   0  0  0  0  0  0  0  0  0  0  0  0
   -5.5443   22.6716    2.3813 C   0  0  0  0  0  0  0  0  0  0  0  0
   -5.7771   22.3708    3.6759 N   0  0  0  0  0  0  0  0  0  0  0  0
   -5.9562   23.4170    4.5162 C   0  0  0  0  0  0  0  0  0  0  0  0
   -5.9139   24.7606    4.1313 C   0  0  0  0  0  0  0  0  0  0  0  0
   -6.1148   25.8215    5.0355 C   0  0  0  0  0  0  0  0  0  0  0  0
   -6.2867   29.1285    7.8100 C   0  0  0  0  0  0  0  0  0  0  0  0
   -4.9128   29.6106    8.1212 C   0  0  0  0  0  0  0  0  0  0  0  0
   -3.7783   29.1142    7.6504 N   0  0  0  0  0  0  0  0  0  0  0  0
   -2.7952   29.8715    8.2190 C   0  0  0  0  0  0  0  0  0  0  0  0
   -3.3281   30.8272    9.0493 C   0  0  0  0  0  0  0  0  0  0  0  0
   -2.5693   31.8062    9.8594 C   0  0  0  0  0  0  0  0  0  0  0  0
   -1.1214   31.8867    9.3292 C   0  0  0  0  0  0  0  0  0  0  0  0
   -0.5247   30.4947    9.0181 C   0  0  0  0  0  0  0  0  0  0  0  0
   -1.3415   29.7202    7.9617 C   0  0  0  0  0  0  0  0  0  0  0  0
   -4.6786   30.6589    8.9841 N   0  0  0  0  0  0  0  0  0  0  0  0
   -5.3833   31.1903    9.4801 H   0  0  0  0  0  0  0  0  0  0  0  0
  1  2  2  0  0  0
  2  3  1  0  0  0
  3 15  1  0  0  0
 15 16  1  0  0  0
 16 17  2  0  0  0
 17 18  1  0  0  0
 18 19  2  0  0  0
 19 20  1  0  0  0
 20 21  1  0  0  0
 21 22  1  0  0  0
 22 23  1  0  0  0
 19 24  1  0  0  0
  2  5  1  0  0  0
  5  6  1  0  0  0
  6  7  2  0  0  0
  7  8  1  0  0  0
  8  9  2  0  0  0
  9 10  1  0  0  0
 10 11  2  0  0  0
 11 12  1  0  0  0
 12 13  2  0  0  0
 13 14  1  0  0  0
 24 16  1  0  0  0
 14  5  2  0  0  0
 23 18  1  0  0  0
 13  8  1  0  0  0
  3  4  1  0  0  0
 24 25  1  0  0  0
M  END
> <minimizedAffinity>
-9.89816

$$$$
OCNT-2312410


 28 31  0  0  0  0  0  0  0  0999 V2000
   -3.9948   28.6636    7.2098 C   0  0  0  0  0  0  0  0  0  0  0  0
   -4.4500   33.7460    9.3033 C   0  0  0  0  0  0  0  0  0  0  0  0
   -4.1733   32.8917    8.1522 N   0  0  0  0  0  0  0  0  0  0  0  0
   -5.2822   31.9574    7.8790 C   0  0  0  0  0  0  0  0  0  0  0  0
   -5.0826   30.5231    8.4225 C   0  0  0  0  0  0  0  0  0  0  0  0
   -3.8193   29.8671    8.0396 N   0  0  0  0  0  0  0  0  0  0  0  0
   -2.8106   30.8315    7.5401 C   0  0  0  0  0  0  0  0  0  0  0  0
   -2.8903   32.1739    8.3340 C   0  0  0  0  0  0  0  0  0  0  0  0
   -1.3935   30.2750    7.6182 C   0  0  0  0  0  0  0  0  0  0  0  0
   -0.6931   29.8940    6.4618 C   0  0  0  0  0  0  0  0  0  0  0  0
    0.5990   29.3739    6.5503 C   0  0  0  0  0  0  0  0  0  0  0  0
    1.2062   29.2236    7.7951 C   0  0  0  0  0  0  0  0  0  0  0  0
    0.5225   29.5921    8.9518 C   0  0  0  0  0  0  0  0  0  0  0  0
   -0.7699   30.1133    8.8655 C   0  0  0  0  0  0  0  0  0  0  0  0
   -4.9796   28.6946    6.0171 C   0  0  0  0  0  0  0  0  0  0  0  0
   -5.9682   27.6150    6.0770 N   0  0  0  0  0  0  0  0  0  0  0  0
   -6.9149   27.9854    6.1696 H   0  0  0  0  0  0  0  0  0  0  0  0
   -6.0146   26.7592    4.9775 C   0  0  0  0  0  0  0  0  0  0  0  0
   -5.6845   27.1719    3.6962 C   0  0  0  0  0  0  0  0  0  0  0  0
   -5.7267   26.2589    2.6412 C   0  0  0  0  0  0  0  0  0  0  0  0
   -6.0962   24.9517    2.9134 C   0  0  0  0  0  0  0  0  0  0  0  0
   -6.4043   24.5671    4.1701 N   0  0  0  0  0  0  0  0  0  0  0  0
   -6.3529   25.4759    5.2026 N   0  0  0  0  0  0  0  0  0  0  0  0
   -6.1619   23.9740    1.8910 N   0  0  0  0  0  0  0  0  0  0  0  0
   -6.6533   24.0951    0.6090 C   0  0  0  0  0  0  0  0  0  0  0  0
   -6.4880   22.8598    0.0262 C   0  0  0  0  0  0  0  0  0  0  0  0
   -5.9135   21.9820    0.9007 N   0  0  0  0  0  0  0  0  0  0  0  0
   -5.7280   22.6718    2.0054 C   0  0  0  0  0  0  0  0  0  0  0  0
  2  3  1  0  0  0
  3  4  1  0  0  0
  4  5  1  0  0  0
  5  6  1  0  0  0
  6  1  1  0  0  0
  1 15  1  0  0  0
 15 16  1  0  0  0
 16 18  1  0  0  0
 18 19  2  0  0  0
 19 20  1  0  0  0
 20 21  2  0  0  0
 21 24  1  0  0  0
 24 25  1  0  0  0
 25 26  2  0  0  0
 26 27  1  0  0  0
 27 28  2  0  0  0
 21 22  1  0  0  0
 22 23  2  0  0  0
  6  7  1  0  0  0
  7  9  1  0  0  0
  9 10  2  0  0  0
 10 11  1  0  0  0
 11 12  2  0  0  0
 12 13  1  0  0  0
 13 14  2  0  0  0
  7  8  1  0  0  0
  8  3  1  0  0  0
 23 18  1  0  0  0
 14  9  1  0  0  0
 28 24  1  0  0  0
 16 17  1  0  0  0
M  END
> <minimizedAffinity>
-9.56491

$$$$
OCNT-2312411


 24 26  0  0  0  0  0  0  0  0999 V2000
   -2.2764   32.0591   10.1233 O   0  0  0  0  0  0  0  0  0  0  0  0
   -2.5177   31.5016    9.0546 C   0  0  0  0  0  0  0  0  0  0  0  0
   -1.5322   30.5670    8.4906 C   0  0  0  0  0  0  0  0  0  0  0  0
   -0.2774   30.3873    9.0857 C   0  0  0  0  0  0  0  0  0  0  0  0
    0.6257   29.4832    8.5284 C   0  0  0  0  0  0  0  0  0  0  0  0
    0.2712   28.7647    7.3871 C   0  0  0  0  0  0  0  0  0  0  0  0
   -0.9860   28.9508    6.8049 C   0  0  0  0  0  0  0  0  0  0  0  0
   -1.8990   29.8550    7.3537 C   0  0  0  0  0  0  0  0  0  0  0  0
   -3.1466   30.0109    6.7421 N   0  0  0  0  0  0  0  0  0  0  0  0
   -3.9736   30.8948    7.2161 C   0  0  0  0  0  0  0  0  0  0  0  0
   -3.6996   31.6650    8.3350 N   0  0  0  0  0  0  0  0  0  0  0  0
   -5.1748   31.0083    6.5624 N   0  0  0  0  0  0  0  0  0  0  0  0
   -5.5802   31.8876    6.8856 H   0  0  0  0  0  0  0  0  0  0  0  0
   -6.1927   29.9762    6.8108 C   0  0  0  0  0  0  0  0  0  0  0  0
   -6.3180   29.0188    5.6121 C   0  0  0  0  0  0  0  0  0  0  0  0
   -5.8996   29.6822    4.2970 C   0  0  0  0  0  0  0  0  0  0  0  0
   -6.0831   28.7218    3.1224 C   0  0  0  0  0  0  0  0  0  0  0  0
   -5.9560   27.2623    3.5503 C   0  0  0  0  0  0  0  0  0  0  0  0
   -5.0463   27.1364    4.7613 C   0  0  0  0  0  0  0  0  0  0  0  0
   -5.5281   27.8532    5.8987 O   0  0  0  0  0  0  0  0  0  0  0  0
   -4.7213   32.5143    8.9451 C   0  0  0  0  0  0  0  0  0  0  0  0
   -4.6466   33.9550    8.4386 C   0  0  0  0  0  0  0  0  0  0  0  0
   -5.3485   34.0714    7.2035 O   0  0  0  0  0  0  0  0  0  0  0  0
   -5.1964   34.9762    6.8797 H   0  0  0  0  0  0  0  0  0  0  0  0
  1  2  2  0  0  0
  2  3  1  0  0  0
  3  4  2  0  0  0
  4  5  1  0  0  0
  5  6  2  0  0  0
  6  7  1  0  0  0
  7  8  2  0  0  0
  8  9  1  0  0  0
  9 10  2  0  0  0
 10 12  1  0  0  0
 12 14  1  0  0  0
 14 15  1  0  0  0
 15 16  1  0  0  0
 16 17  1  0  0  0
 17 18  1  0  0  0
 18 19  1  0  0  0
 19 20  1  0  0  0
 10 11  1  0  0  0
 11 21  1  0  0  0
 21 22  1  0  0  0
 22 23  1  0  0  0
 11  2  1  0  0  0
  8  3  1  0  0  0
 20 15  1  0  0  0
 12 13  1  0  0  0
 23 24  1  0  0  0
M  END
> <minimizedAffinity>
-8.84223

$$$$
OCNT-2312415


 23 25  0  0  0  0  0  0  0  0999 V2000
   -5.7900   29.8022    7.6303 C   0  0  0  0  0  0  0  0  0  0  0  0
   -5.2323   31.0925    7.9526 N   0  0  0  0  0  0  0  0  0  0  0  0
   -6.0362   32.1628    8.0787 N   0  0  0  0  0  0  0  0  0  0  0  0
   -5.2165   33.1956    8.1981 N   0  0  0  0  0  0  0  0  0  0  0  0
   -3.9048   32.7933    8.1416 N   0  0  0  0  0  0  0  0  0  0  0  0
   -3.9141   31.4810    8.0292 C   0  0  0  0  0  0  0  0  0  0  0  0
   -2.8608   30.6199    7.9066 N   0  0  0  0  0  0  0  0  0  0  0  0
   -1.9720   30.8811    6.7495 C   0  0  0  0  0  0  0  0  0  0  0  0
   -0.7802   29.9137    6.7791 C   0  0  0  0  0  0  0  0  0  0  0  0
    0.0379   30.0399    7.9535 O   0  0  0  0  0  0  0  0  0  0  0  0
   -0.6419   30.6605    9.0529 C   0  0  0  0  0  0  0  0  0  0  0  0
   -2.1238   30.2639    9.1434 C   0  0  0  0  0  0  0  0  0  0  0  0
   -6.7539   29.8809    6.4498 C   0  0  0  0  0  0  0  0  0  0  0  0
   -5.8380   26.9327    3.4169 C   0  0  0  0  0  0  0  0  0  0  0  0
   -5.8760   28.2976    3.0967 C   0  0  0  0  0  0  0  0  0  0  0  0
   -6.1671   29.2498    4.0763 C   0  0  0  0  0  0  0  0  0  0  0  0
   -6.4155   28.8552    5.3965 C   0  0  0  0  0  0  0  0  0  0  0  0
   -6.3740   27.4938    5.7213 C   0  0  0  0  0  0  0  0  0  0  0  0
   -6.0827   26.5419    4.7416 C   0  0  0  0  0  0  0  0  0  0  0  0
   -5.8738   24.6417    2.7098 F   0  0  0  0  0  0  0  0  0  0  0  0
   -5.4999   25.9055    2.3643 C   0  0  0  0  0  0  0  0  0  0  0  0
   -6.1071   26.1637    1.1736 F   0  0  0  0  0  0  0  0  0  0  0  0
   -4.1654   25.8359    2.0968 F   0  0  0  0  0  0  0  0  0  0  0  0
 20 21  1  0  0  0
 21 22  1  0  0  0
 21 23  1  0  0  0
 21 14  1  0  0  0
 14 15  1  0  0  0
 15 16  2  0  0  0
 16 17  1  0  0  0
 17 13  1  0  0  0
 13  1  1  0  0  0
  1  2  1  0  0  0
  2  3  1  0  0  0
  3  4  2  0  0  0
  4  5  1  0  0  0
  5  6  2  0  0  0
  6  7  1  0  0  0
  7  8  1  0  0  0
  8  9  1  0  0  0
  9 10  1  0  0  0
 10 11  1  0  0  0
 11 12  1  0  0  0
 17 18  2  0  0  0
 18 19  1  0  0  0
 19 14  2  0  0  0
  6  2  1  0  0  0
 12  7  1  0  0  0
M  END
> <minimizedAffinity>
-8.57366

$$$$
OCNT-2312429


 24 26  0  0  0  0  0  0  0  0999 V2000
   -5.6700   29.5367    7.9398 C   0  0  0  0  0  0  0  0  0  0  0  0
   -4.3504   28.9005    7.9325 N   0  0  0  0  0  0  0  0  0  0  0  0
   -4.4025   27.9318    8.2394 H   0  0  0  0  0  0  0  0  0  0  0  0
   -3.1726   29.5175    8.3054 C   0  0  0  0  0  0  0  0  0  0  0  0
   -3.1866   30.4753    9.2007 N   0  0  0  0  0  0  0  0  0  0  0  0
   -2.0115   31.0994    9.5552 C   0  0  0  0  0  0  0  0  0  0  0  0
   -0.8179   30.7804    9.0410 C   0  0  0  0  0  0  0  0  0  0  0  0
   -0.7522   29.7677    8.1050 N   0  0  0  0  0  0  0  0  0  0  0  0
    0.3451   29.2753    7.4728 N   0  0  0  0  0  0  0  0  0  0  0  0
   -0.1333   28.3004    6.6954 C   0  0  0  0  0  0  0  0  0  0  0  0
   -1.5195   28.1600    6.8185 C   0  0  0  0  0  0  0  0  0  0  0  0
   -2.5372   26.8858    5.9073 Br  0  0  0  0  0  0  0  0  0  0  0  0
   -1.9076   29.1153    7.7213 C   0  0  0  0  0  0  0  0  0  0  0  0
   -6.1282   29.9697    9.3395 C   0  0  0  0  0  0  0  0  0  0  0  0
   -5.4793   27.9955   10.5739 O   0  0  0  0  0  0  0  0  0  0  0  0
   -6.5934   28.8012   10.2001 C   0  0  0  0  0  0  0  0  0  0  0  0
   -5.0564   27.6755    9.7599 H   0  0  0  0  0  0  0  0  0  0  0  0
   -6.7333   28.6596    7.2421 C   0  0  0  0  0  0  0  0  0  0  0  0
   -6.4514   28.4525    5.7691 C   0  0  0  0  0  0  0  0  0  0  0  0
   -6.3787   29.5450    4.8944 C   0  0  0  0  0  0  0  0  0  0  0  0
   -6.0783   29.3504    3.5454 C   0  0  0  0  0  0  0  0  0  0  0  0
   -5.8485   28.0648    3.0587 C   0  0  0  0  0  0  0  0  0  0  0  0
   -5.9236   26.9714    3.9187 C   0  0  0  0  0  0  0  0  0  0  0  0
   -6.2257   27.1632    5.2671 C   0  0  0  0  0  0  0  0  0  0  0  0
 15 16  1  0  0  0
 16 14  1  0  0  0
 14  1  1  0  0  0
  1 18  1  0  0  0
 18 19  1  0  0  0
 19 20  2  0  0  0
 20 21  1  0  0  0
 21 22  2  0  0  0
 22 23  1  0  0  0
 23 24  2  0  0  0
  1  2  1  0  0  0
  2  4  1  0  0  0
  4  5  2  0  0  0
  5  6  1  0  0  0
  6  7  2  0  0  0
  7  8  1  0  0  0
  8  9  1  0  0  0
  9 10  2  0  0  0
 10 11  1  0  0  0
 11 12  1  0  0  0
 11 13  2  0  0  0
 24 19  1  0  0  0
 13  4  1  0  0  0
 13  8  1  0  0  0
 15 17  1  0  0  0
  2  3  1  0  0  0
M  END
> <minimizedAffinity>
-8.70586

$$$$
OCNT-2312433


 32 34  0  0  0  0  0  0  0  0999 V2000
    0.4854   29.1687    7.2629 S   0  0  0  0  0  0  0  0  0  0  0  0
    0.8790   29.4244    5.8941 O   0  0  0  0  0  0  0  0  0  0  0  0
    1.4368   29.3046    8.3463 O   0  0  0  0  0  0  0  0  0  0  0  0
   -3.1372   31.7672    8.2667 C   0  0  0  0  0  0  0  0  0  0  0  0
   -2.5211   30.9963    9.2644 C   0  0  0  0  0  0  0  0  0  0  0  0
   -1.4140   30.2022    8.9631 C   0  0  0  0  0  0  0  0  0  0  0  0
   -0.9127   30.1872    7.6595 C   0  0  0  0  0  0  0  0  0  0  0  0
   -1.5206   30.9403    6.6524 C   0  0  0  0  0  0  0  0  0  0  0  0
   -2.6281   31.7321    6.9596 C   0  0  0  0  0  0  0  0  0  0  0  0
   -4.3486   32.6117    8.5944 C   0  0  0  0  0  0  0  0  0  0  0  0
   -5.6248   31.7911    8.7993 C   0  0  0  0  0  0  0  0  0  0  0  0
   -6.8858   29.5586    6.0186 C   0  0  0  0  0  0  0  0  0  0  0  0
   -6.1202   29.9444    7.2557 C   0  0  0  0  0  0  0  0  0  0  0  0
   -5.5151   29.1198    7.9321 O   0  0  0  0  0  0  0  0  0  0  0  0
   -6.1743   31.2885    7.5521 N   0  0  0  0  0  0  0  0  0  0  0  0
   -6.9303   31.8202    7.1371 H   0  0  0  0  0  0  0  0  0  0  0  0
   -0.1456   27.6044    7.3895 N   0  0  0  0  0  0  0  0  0  0  0  0
    0.5866   26.9437    7.6475 H   0  0  0  0  0  0  0  0  0  0  0  0
   -1.0851   27.1875    6.4087 C   0  0  0  0  0  0  0  0  0  0  0  0
   -0.6567   26.4370    5.3176 C   0  0  0  0  0  0  0  0  0  0  0  0
   -1.5853   25.9880    4.3741 C   0  0  0  0  0  0  0  0  0  0  0  0
   -2.9539   26.2739    4.5124 C   0  0  0  0  0  0  0  0  0  0  0  0
   -3.3630   27.0271    5.6259 C   0  0  0  0  0  0  0  0  0  0  0  0
   -2.4366   27.4796    6.5704 C   0  0  0  0  0  0  0  0  0  0  0  0
   -3.9313   25.7921    3.5232 C   0  0  0  0  0  0  0  0  0  0  0  0
   -4.8836   26.6632    2.9653 C   0  0  0  0  0  0  0  0  0  0  0  0
   -5.8134   26.2084    2.0258 C   0  0  0  0  0  0  0  0  0  0  0  0
   -5.8037   24.8743    1.6281 C   0  0  0  0  0  0  0  0  0  0  0  0
   -4.8667   24.0051    2.1706 C   0  0  0  0  0  0  0  0  0  0  0  0
   -4.8889   22.7072    1.7513 O   0  0  0  0  0  0  0  0  0  0  0  0
   -3.9368   24.4486    3.1094 C   0  0  0  0  0  0  0  0  0  0  0  0
   -4.1768   22.2227    2.2003 H   0  0  0  0  0  0  0  0  0  0  0  0
 12 13  1  0  0  0
 13 14  2  0  0  0
 13 15  1  0  0  0
 15 11  1  0  0  0
 11 10  1  0  0  0
 10  4  1  0  0  0
  4  5  1  0  0  0
  5  6  2  0  0  0
  6  7  1  0  0  0
  7  1  1  0  0  0
  1  2  2  0  0  0
  1  3  2  0  0  0
  1 17  1  0  0  0
 17 19  1  0  0  0
 19 20  1  0  0  0
 20 21  2  0  0  0
 21 22  1  0  0  0
 22 25  1  0  0  0
 25 26  2  0  0  0
 26 27  1  0  0  0
 27 28  2  0  0  0
 28 29  1  0  0  0
 29 30  1  0  0  0
 29 31  2  0  0  0
 22 23  2  0  0  0
 23 24  1  0  0  0
  7  8  2  0  0  0
  8  9  1  0  0  0
  9  4  2  0  0  0
 24 19  2  0  0  0
 31 25  1  0  0  0
 15 16  1  0  0  0
 17 18  1  0  0  0
 30 32  1  0  0  0
M  END
> <minimizedAffinity>
-10.44425

$$$$
OCNT-2312442


 29 31  0  0  0  0  0  0  0  0999 V2000
   -3.8341   29.7737    6.0622 N   0  0  0  0  0  0  0  0  0  0  0  0
   -3.4872   29.1445    7.2371 C   0  0  0  0  0  0  0  0  0  0  0  0
   -4.3005   28.9159    8.1268 O   0  0  0  0  0  0  0  0  0  0  0  0
   -3.1993   29.7802    5.2727 H   0  0  0  0  0  0  0  0  0  0  0  0
   -2.0977   28.7143    7.3370 C   0  0  0  0  0  0  0  0  0  0  0  0
   -1.5858   27.5353    6.8143 C   0  0  0  0  0  0  0  0  0  0  0  0
   -2.2259   26.4389    6.0462 C   0  0  0  0  0  0  0  0  0  0  0  0
   -0.2633   27.5106    7.1436 N   0  0  0  0  0  0  0  0  0  0  0  0
    0.1346   28.5771    7.8478 N   0  0  0  0  0  0  0  0  0  0  0  0
   -0.9828   29.3175    8.0026 C   0  0  0  0  0  0  0  0  0  0  0  0
    0.4239   26.7947    6.9249 H   0  0  0  0  0  0  0  0  0  0  0  0
   -0.9976   30.5925    8.8021 C   0  0  0  0  0  0  0  0  0  0  0  0
   -1.1760   31.6869    8.0140 F   0  0  0  0  0  0  0  0  0  0  0  0
    0.1934   30.7754    9.4466 F   0  0  0  0  0  0  0  0  0  0  0  0
   -1.9617   30.6372    9.7587 F   0  0  0  0  0  0  0  0  0  0  0  0
   -5.1907   30.2435    5.8237 C   0  0  0  0  0  0  0  0  0  0  0  0
   -5.7974   29.6713    4.5401 C   0  0  0  0  0  0  0  0  0  0  0  0
   -5.9976   26.1808    3.8723 C   0  0  0  0  0  0  0  0  0  0  0  0
   -5.7619   27.4127    3.4567 N   0  0  0  0  0  0  0  0  0  0  0  0
   -5.9504   28.1929    4.5753 C   0  0  0  0  0  0  0  0  0  0  0  0
   -6.2941   27.3872    5.6361 C   0  0  0  0  0  0  0  0  0  0  0  0
   -6.3215   26.0979    5.2030 O   0  0  0  0  0  0  0  0  0  0  0  0
   -5.8872   21.1713    0.9768 C   0  0  0  0  0  0  0  0  0  0  0  0
   -5.9323   22.4829    1.7037 C   0  0  0  0  0  0  0  0  0  0  0  0
   -5.1308   23.5519    1.2910 C   0  0  0  0  0  0  0  0  0  0  0  0
   -5.1491   24.7643    1.9893 C   0  0  0  0  0  0  0  0  0  0  0  0
   -5.9608   24.9294    3.1204 C   0  0  0  0  0  0  0  0  0  0  0  0
   -6.7514   23.8485    3.5354 C   0  0  0  0  0  0  0  0  0  0  0  0
   -6.7341   22.6362    2.8388 C   0  0  0  0  0  0  0  0  0  0  0  0
 23 24  1  0  0  0
 24 25  1  0  0  0
 25 26  2  0  0  0
 26 27  1  0  0  0
 27 18  1  0  0  0
 18 19  2  0  0  0
 19 20  1  0  0  0
 20 17  1  0  0  0
 17 16  1  0  0  0
 16  1  1  0  0  0
  1  2  1  0  0  0
  2  3  2  0  0  0
  2  5  1  0  0  0
  5  6  2  0  0  0
  6  7  1  0  0  0
  6  8  1  0  0  0
  8  9  1  0  0  0
  9 10  2  0  0  0
 10 12  1  0  0  0
 12 13  1  0  0  0
 12 14  1  0  0  0
 12 15  1  0  0  0
 20 21  2  0  0  0
 21 22  1  0  0  0
 27 28  2  0  0  0
 28 29  1  0  0  0
 29 24  2  0  0  0
 22 18  1  0  0  0
 10  5  1  0  0  0
  1  4  1  0  0  0
  8 11  1  0  0  0
M  END
> <minimizedAffinity>
-9.55790

$$$$
OCNT-2312448


 24 26  0  0  0  0  0  0  0  0999 V2000
   -6.5866   29.6368    6.3505 C   0  0  0  0  0  0  0  0  0  0  0  0
   -5.3695   30.1281    6.9905 N   0  0  0  0  0  0  0  0  0  0  0  0
   -4.3972   30.6971    6.0541 C   0  0  0  0  0  0  0  0  0  0  0  0
   -3.1061   30.7764    6.8806 C   0  0  0  0  0  0  0  0  0  0  0  0
   -2.8360   32.2068    7.3728 C   0  0  0  0  0  0  0  0  0  0  0  0
   -1.7982   32.2137    8.4875 C   0  0  0  0  0  0  0  0  0  0  0  0
   -2.2460   31.3992    9.7010 C   0  0  0  0  0  0  0  0  0  0  0  0
   -3.4233   30.4697    9.4048 C   0  0  0  0  0  0  0  0  0  0  0  0
   -3.3005   29.7513    8.0375 C   0  0  0  0  0  0  0  0  0  0  0  0
   -4.6345   29.0678    7.6833 C   0  0  0  0  0  0  0  0  0  0  0  0
   -2.1539   28.7209    8.0558 C   0  0  0  0  0  0  0  0  0  0  0  0
   -2.6128   27.4121    8.3690 O   0  0  0  0  0  0  0  0  0  0  0  0
   -3.1490   27.0890    7.6263 H   0  0  0  0  0  0  0  0  0  0  0  0
   -5.9454   29.3385    3.1345 C   0  0  0  0  0  0  0  0  0  0  0  0
   -6.0447   28.2751    4.1666 C   0  0  0  0  0  0  0  0  0  0  0  0
   -6.3095   28.4330    5.5161 C   0  0  0  0  0  0  0  0  0  0  0  0
   -6.2877   27.1769    6.0486 N   0  0  0  0  0  0  0  0  0  0  0  0
   -6.0248   26.2124    5.1571 N   0  0  0  0  0  0  0  0  0  0  0  0
   -5.8603   26.8670    3.9896 C   0  0  0  0  0  0  0  0  0  0  0  0
   -6.4404   26.9038    7.0139 H   0  0  0  0  0  0  0  0  0  0  0  0
   -5.5324   26.1627    2.6956 C   0  0  0  0  0  0  0  0  0  0  0  0
   -4.2115   26.2756    2.3827 F   0  0  0  0  0  0  0  0  0  0  0  0
   -6.2271   26.6306    1.6241 F   0  0  0  0  0  0  0  0  0  0  0  0
   -5.7924   24.8270    2.7693 F   0  0  0  0  0  0  0  0  0  0  0  0
 14 15  1  0  0  0
 15 16  2  0  0  0
 16  1  1  0  0  0
  1  2  1  0  0  0
  2  3  1  0  0  0
  3  4  1  0  0  0
  4  5  1  0  0  0
  5  6  1  0  0  0
  6  7  1  0  0  0
  7  8  1  0  0  0
  8  9  1  0  0  0
  9 11  1  0  0  0
 11 12  1  0  0  0
  9 10  1  0  0  0
 16 17  1  0  0  0
 17 18  1  0  0  0
 18 19  2  0  0  0
 19 21  1  0  0  0
 21 22  1  0  0  0
 21 23  1  0  0  0
 21 24  1  0  0  0
 19 15  1  0  0  0
 10  2  1  0  0  0
  9  4  1  0  0  0
 12 13  1  0  0  0
 17 20  1  0  0  0
M  END
> <minimizedAffinity>
-8.92790

$$$$
OCNT-2312463


 25 28  0  0  0  0  0  0  0  0999 V2000
   -3.2925   29.1819    7.2321 C   0  0  0  0  0  0  0  0  0  0  0  0
   -1.8570   31.8973    7.5754 C   0  0  0  0  0  0  0  0  0  0  0  0
   -1.3404   30.6288    8.0281 N   0  0  0  0  0  0  0  0  0  0  0  0
   -0.1472   30.4428    8.6691 C   0  0  0  0  0  0  0  0  0  0  0  0
   -0.0719   29.0922    8.9062 C   0  0  0  0  0  0  0  0  0  0  0  0
   -1.1860   28.4538    8.4319 N   0  0  0  0  0  0  0  0  0  0  0  0
   -1.9466   29.4000    7.8981 C   0  0  0  0  0  0  0  0  0  0  0  0
   -4.4509   29.7455    8.0552 C   0  0  0  0  0  0  0  0  0  0  0  0
   -4.8144   29.1178    9.2600 C   0  0  0  0  0  0  0  0  0  0  0  0
   -5.8571   29.6197   10.0410 C   0  0  0  0  0  0  0  0  0  0  0  0
   -6.5442   30.7619    9.6368 C   0  0  0  0  0  0  0  0  0  0  0  0
   -6.1846   31.4087    8.4566 C   0  0  0  0  0  0  0  0  0  0  0  0
   -5.1414   30.9096    7.6742 C   0  0  0  0  0  0  0  0  0  0  0  0
   -3.5704   27.7719    6.9898 N   0  0  0  0  0  0  0  0  0  0  0  0
   -3.2642   27.2259    7.7901 H   0  0  0  0  0  0  0  0  0  0  0  0
   -3.2582   27.1928    5.7812 C   0  0  0  0  0  0  0  0  0  0  0  0
   -2.0321   26.7661    5.5694 N   0  0  0  0  0  0  0  0  0  0  0  0
   -1.7129   26.1952    4.3566 C   0  0  0  0  0  0  0  0  0  0  0  0
   -2.5860   26.0444    3.3532 C   0  0  0  0  0  0  0  0  0  0  0  0
   -3.8837   26.4805    3.5338 N   0  0  0  0  0  0  0  0  0  0  0  0
   -4.9200   26.4259    2.6563 N   0  0  0  0  0  0  0  0  0  0  0  0
   -5.9431   26.9661    3.3246 C   0  0  0  0  0  0  0  0  0  0  0  0
   -5.5777   27.3705    4.6130 C   0  0  0  0  0  0  0  0  0  0  0  0
   -6.7404   28.1616    5.8424 Br  0  0  0  0  0  0  0  0  0  0  0  0
   -4.2497   27.0564    4.7338 C   0  0  0  0  0  0  0  0  0  0  0  0
  2  3  1  0  0  0
  3  4  1  0  0  0
  4  5  2  0  0  0
  5  6  1  0  0  0
  6  7  2  0  0  0
  7  1  1  0  0  0
  1 14  1  0  0  0
 14 16  1  0  0  0
 16 17  2  0  0  0
 17 18  1  0  0  0
 18 19  2  0  0  0
 19 20  1  0  0  0
 20 21  1  0  0  0
 21 22  2  0  0  0
 22 23  1  0  0  0
 23 24  1  0  0  0
 23 25  2  0  0  0
  1  8  1  0  0  0
  8  9  2  0  0  0
  9 10  1  0  0  0
 10 11  2  0  0  0
 11 12  1  0  0  0
 12 13  2  0  0  0
  7  3  1  0  0  0
 25 16  1  0  0  0
 13  8  1  0  0  0
 25 20  1  0  0  0
 14 15  1  0  0  0
M  END
> <minimizedAffinity>
-8.29555

$$$$
OCNT-2312465


 24 26  0  0  0  0  0  0  0  0999 V2000
   -0.3439   27.6767    7.4904 N   0  0  0  0  0  0  0  0  0  0  0  0
    0.2836   26.9700    7.8770 H   0  0  0  0  0  0  0  0  0  0  0  0
   -3.8097   25.3651    2.3477 C   0  0  0  0  0  0  0  0  0  0  0  0
   -3.8734   26.1436    3.5506 N   0  0  0  0  0  0  0  0  0  0  0  0
   -4.9957   26.7578    4.0691 C   0  0  0  0  0  0  0  0  0  0  0  0
   -6.1186   26.7414    3.5842 O   0  0  0  0  0  0  0  0  0  0  0  0
   -4.6900   27.4321    5.2617 O   0  0  0  0  0  0  0  0  0  0  0  0
   -3.3353   27.1809    5.4122 C   0  0  0  0  0  0  0  0  0  0  0  0
   -2.5486   27.6323    6.4506 C   0  0  0  0  0  0  0  0  0  0  0  0
   -1.1980   27.2760    6.4257 C   0  0  0  0  0  0  0  0  0  0  0  0
   -0.6748   26.4778    5.3884 C   0  0  0  0  0  0  0  0  0  0  0  0
   -1.4953   26.0323    4.3465 C   0  0  0  0  0  0  0  0  0  0  0  0
   -2.8208   26.4046    4.3930 C   0  0  0  0  0  0  0  0  0  0  0  0
    0.4687   29.1536    7.3353 S   0  0  0  0  0  0  0  0  0  0  0  0
    0.8218   29.3673    5.9496 O   0  0  0  0  0  0  0  0  0  0  0  0
    1.4698   29.1754    8.3797 O   0  0  0  0  0  0  0  0  0  0  0  0
   -0.7822   30.3271    7.7912 C   0  0  0  0  0  0  0  0  0  0  0  0
   -1.5651   30.9353    6.8028 C   0  0  0  0  0  0  0  0  0  0  0  0
   -2.5412   31.8648    7.1720 C   0  0  0  0  0  0  0  0  0  0  0  0
   -2.7223   32.1839    8.5196 C   0  0  0  0  0  0  0  0  0  0  0  0
   -3.9337   33.3234    8.9618 Cl  0  0  0  0  0  0  0  0  0  0  0  0
   -1.9253   31.5785    9.4925 C   0  0  0  0  0  0  0  0  0  0  0  0
   -2.0879   31.8748   10.7902 F   0  0  0  0  0  0  0  0  0  0  0  0
   -0.9496   30.6526    9.1393 C   0  0  0  0  0  0  0  0  0  0  0  0
  3  4  1  0  0  0
  4  5  1  0  0  0
  5  6  2  0  0  0
  5  7  1  0  0  0
  7  8  1  0  0  0
  8  9  1  0  0  0
  9 10  2  0  0  0
 10  1  1  0  0  0
  1 14  1  0  0  0
 14 15  2  0  0  0
 14 16  2  0  0  0
 14 17  1  0  0  0
 17 18  1  0  0  0
 18 19  2  0  0  0
 19 20  1  0  0  0
 20 21  1  0  0  0
 20 22  2  0  0  0
 22 23  1  0  0  0
 22 24  1  0  0  0
 10 11  1  0  0  0
 11 12  2  0  0  0
 12 13  1  0  0  0
 13  4  1  0  0  0
 13  8  2  0  0  0
 24 17  2  0  0  0
  1  2  1  0  0  0
M  END
> <minimizedAffinity>
-9.86658

$$$$
OCNT-2312472


 25 28  0  0  0  0  0  0  0  0999 V2000
   -5.1163   26.4935    3.1289 C   0  0  0  0  0  0  0  0  0  0  0  0
   -5.4276   26.4705    4.6729 C   0  0  0  0  0  0  0  0  0  0  0  0
   -5.6428   27.8983    4.5839 N   0  0  0  0  0  0  0  0  0  0  0  0
   -5.3664   28.9467    5.4113 C   0  0  0  0  0  0  0  0  0  0  0  0
   -5.4088   30.1153    5.0189 O   0  0  0  0  0  0  0  0  0  0  0  0
   -5.7971   27.9091    3.1421 C   0  0  0  0  0  0  0  0  0  0  0  0
   -5.8432   25.3133    2.2897 C   0  0  0  0  0  0  0  0  0  0  0  0
   -6.3438   24.1669    2.9416 C   0  0  0  0  0  0  0  0  0  0  0  0
   -6.9491   23.1144    2.2442 C   0  0  0  0  0  0  0  0  0  0  0  0
   -7.0748   23.1754    0.8622 C   0  0  0  0  0  0  0  0  0  0  0  0
   -6.5939   24.2864    0.1819 C   0  0  0  0  0  0  0  0  0  0  0  0
   -5.9835   25.3355    0.8868 C   0  0  0  0  0  0  0  0  0  0  0  0
   -2.8763   25.5692    3.5559 C   0  0  0  0  0  0  0  0  0  0  0  0
   -3.6696   26.5178    2.8641 O   0  0  0  0  0  0  0  0  0  0  0  0
   -5.0384   28.6121    6.8574 C   0  0  0  0  0  0  0  0  0  0  0  0
   -3.5635   28.5272    7.0461 C   0  0  0  0  0  0  0  0  0  0  0  0
   -2.6460   27.6366    6.5259 C   0  0  0  0  0  0  0  0  0  0  0  0
   -1.3771   27.9190    6.9489 N   0  0  0  0  0  0  0  0  0  0  0  0
   -1.4930   28.9741    7.7317 C   0  0  0  0  0  0  0  0  0  0  0  0
   -0.4915   29.7092    8.4595 C   0  0  0  0  0  0  0  0  0  0  0  0
    0.9646   29.3248    8.4325 C   0  0  0  0  0  0  0  0  0  0  0  0
   -0.9005   30.7760    9.1914 C   0  0  0  0  0  0  0  0  0  0  0  0
   -2.2920   31.1888    9.2681 C   0  0  0  0  0  0  0  0  0  0  0  0
   -3.2172   30.4938    8.5887 C   0  0  0  0  0  0  0  0  0  0  0  0
   -2.8204   29.3945    7.8264 N   0  0  0  0  0  0  0  0  0  0  0  0
 13 14  1  0  0  0
 14  1  1  0  0  0
  1  7  1  0  0  0
  7  8  2  0  0  0
  8  9  1  0  0  0
  9 10  2  0  0  0
 10 11  1  0  0  0
 11 12  2  0  0  0
  1  2  1  0  0  0
  2  3  1  0  0  0
  3  4  1  0  0  0
  4  5  2  0  0  0
  4 15  1  0  0  0
 15 16  1  0  0  0
 16 17  2  0  0  0
 17 18  1  0  0  0
 18 19  2  0  0  0
 19 20  1  0  0  0
 20 21  1  0  0  0
 20 22  2  0  0  0
 22 23  1  0  0  0
 23 24  2  0  0  0
 24 25  1  0  0  0
  3  6  1  0  0  0
  6  1  1  0  0  0
 12  7  1  0  0  0
 25 16  1  0  0  0
 25 19  1  0  0  0
M  END
> <minimizedAffinity>
-9.68405

$$$$
OCNT-2312476


 26 29  0  0  0  0  0  0  0  0999 V2000
   -2.5789   26.3773    4.9054 C   0  0  0  0  0  0  0  0  0  0  0  0
   -5.0163   25.3469    2.3063 C   0  0  0  0  0  0  0  0  0  0  0  0
   -3.9255   25.0348    3.0940 C   0  0  0  0  0  0  0  0  0  0  0  0
   -3.6687   26.1841    3.8818 C   0  0  0  0  0  0  0  0  0  0  0  0
   -4.5619   27.1524    3.6295 N   0  0  0  0  0  0  0  0  0  0  0  0
   -5.3527   26.6222    2.6818 N   0  0  0  0  0  0  0  0  0  0  0  0
   -6.1245   27.1819    2.3392 H   0  0  0  0  0  0  0  0  0  0  0  0
   -7.1262   23.0550   -0.6215 C   0  0  0  0  0  0  0  0  0  0  0  0
   -7.1199   24.4454   -0.7012 C   0  0  0  0  0  0  0  0  0  0  0  0
   -6.4303   25.1999    0.2528 C   0  0  0  0  0  0  0  0  0  0  0  0
   -5.7398   24.5721    1.2998 C   0  0  0  0  0  0  0  0  0  0  0  0
   -5.7494   23.1714    1.3613 C   0  0  0  0  0  0  0  0  0  0  0  0
   -6.4399   22.4174    0.4086 C   0  0  0  0  0  0  0  0  0  0  0  0
   -2.9573   26.7789    6.2692 N   0  0  0  0  0  0  0  0  0  0  0  0
   -3.0638   25.9458    6.8653 H   0  0  0  0  0  0  0  0  0  0  0  0
   -2.1474   27.7183    6.9412 C   0  0  0  0  0  0  0  0  0  0  0  0
   -0.7481   27.6580    6.7991 C   0  0  0  0  0  0  0  0  0  0  0  0
    0.0919   28.6171    7.3669 C   0  0  0  0  0  0  0  0  0  0  0  0
   -0.4508   29.6780    8.0761 C   0  0  0  0  0  0  0  0  0  0  0  0
   -1.8347   29.7831    8.2168 C   0  0  0  0  0  0  0  0  0  0  0  0
   -2.6962   28.8173    7.6551 C   0  0  0  0  0  0  0  0  0  0  0  0
   -4.1088   28.9564    7.8554 N   0  0  0  0  0  0  0  0  0  0  0  0
   -4.7828   29.1950    9.0412 C   0  0  0  0  0  0  0  0  0  0  0  0
   -6.1271   29.2250    8.7583 C   0  0  0  0  0  0  0  0  0  0  0  0
   -6.1997   28.9939    7.3811 C   0  0  0  0  0  0  0  0  0  0  0  0
   -5.0006   28.8236    6.8254 N   0  0  0  0  0  0  0  0  0  0  0  0
  8  9  2  0  0  0
  9 10  1  0  0  0
 10 11  2  0  0  0
 11  2  1  0  0  0
  2  3  2  0  0  0
  3  4  1  0  0  0
  4  1  1  0  0  0
  1 14  1  0  0  0
 14 16  1  0  0  0
 16 17  2  0  0  0
 17 18  1  0  0  0
 18 19  2  0  0  0
 19 20  1  0  0  0
 20 21  2  0  0  0
 21 22  1  0  0  0
 22 23  1  0  0  0
 23 24  2  0  0  0
 24 25  1  0  0  0
 25 26  2  0  0  0
  4  5  2  0  0  0
  5  6  1  0  0  0
 11 12  1  0  0  0
 12 13  2  0  0  0
 13  8  1  0  0  0
  6  2  1  0  0  0
 21 16  1  0  0  0
 26 22  1  0  0  0
 14 15  1  0  0  0
  6  7  1  0  0  0
M  END
> <minimizedAffinity>
-9.44751

$$$$
OCNT-2312485


 32 34  0  0  0  0  0  0  0  0999 V2000
   -5.3497   29.2740    8.5211 C   0  0  0  0  0  0  0  0  0  0  0  0
   -5.3044   28.8880    9.6856 O   0  0  0  0  0  0  0  0  0  0  0  0
   -4.4128   30.0687    7.8873 N   0  0  0  0  0  0  0  0  0  0  0  0
   -4.7039   30.4797    6.9941 H   0  0  0  0  0  0  0  0  0  0  0  0
   -3.1188   30.4367    8.3212 C   0  0  0  0  0  0  0  0  0  0  0  0
   -2.8773   31.6555    8.9678 C   0  0  0  0  0  0  0  0  0  0  0  0
   -1.6003   31.9802    9.4285 C   0  0  0  0  0  0  0  0  0  0  0  0
   -0.5497   31.0879    9.2562 C   0  0  0  0  0  0  0  0  0  0  0  0
   -0.7708   29.8709    8.6098 C   0  0  0  0  0  0  0  0  0  0  0  0
   -2.0472   29.5277    8.1229 C   0  0  0  0  0  0  0  0  0  0  0  0
   -2.2466   28.2560    7.3998 C   0  0  0  0  0  0  0  0  0  0  0  0
   -2.3557   28.1089    6.0867 N   0  0  0  0  0  0  0  0  0  0  0  0
   -2.4209   26.7538    5.8469 C   0  0  0  0  0  0  0  0  0  0  0  0
   -2.4952   26.2178    4.4695 C   0  0  0  0  0  0  0  0  0  0  0  0
   -2.3926   26.0633    7.0350 C   0  0  0  0  0  0  0  0  0  0  0  0
   -2.2773   27.0181    8.0044 N   0  0  0  0  0  0  0  0  0  0  0  0
   -2.1723   26.8449    8.9932 H   0  0  0  0  0  0  0  0  0  0  0  0
   -6.5682   28.9895    7.6375 C   0  0  0  0  0  0  0  0  0  0  0  0
   -6.2588   28.1968    5.3197 C   0  0  0  0  0  0  0  0  0  0  0  0
   -6.4149   29.3136    4.8417 O   0  0  0  0  0  0  0  0  0  0  0  0
   -6.2748   27.9411    6.6705 N   0  0  0  0  0  0  0  0  0  0  0  0
   -6.3913   26.9858    6.9850 H   0  0  0  0  0  0  0  0  0  0  0  0
   -5.7008   24.8422    2.6944 C   0  0  0  0  0  0  0  0  0  0  0  0
   -5.6103   26.1537    2.2156 C   0  0  0  0  0  0  0  0  0  0  0  0
   -5.7904   27.2346    3.0819 C   0  0  0  0  0  0  0  0  0  0  0  0
   -6.0743   27.0146    4.4318 C   0  0  0  0  0  0  0  0  0  0  0  0
   -6.1510   25.7042    4.9223 C   0  0  0  0  0  0  0  0  0  0  0  0
   -5.9649   24.6160    4.0617 C   0  0  0  0  0  0  0  0  0  0  0  0
   -6.4447   23.5246    0.8442 C   0  0  0  0  0  0  0  0  0  0  0  0
   -5.5374   23.7210    1.9192 O   0  0  0  0  0  0  0  0  0  0  0  0
   -6.0207   23.3015    4.4566 O   0  0  0  0  0  0  0  0  0  0  0  0
   -5.8390   23.0163    5.8372 C   0  0  0  0  0  0  0  0  0  0  0  0
 29 30  1  0  0  0
 30 23  1  0  0  0
 23 24  1  0  0  0
 24 25  2  0  0  0
 25 26  1  0  0  0
 26 19  1  0  0  0
 19 20  2  0  0  0
 19 21  1  0  0  0
 21 18  1  0  0  0
 18  1  1  0  0  0
  1  2  2  0  0  0
  1  3  1  0  0  0
  3  5  1  0  0  0
  5  6  2  0  0  0
  6  7  1  0  0  0
  7  8  2  0  0  0
  8  9  1  0  0  0
  9 10  2  0  0  0
 10 11  1  0  0  0
 11 12  2  0  0  0
 12 13  1  0  0  0
 13 14  1  0  0  0
 13 15  2  0  0  0
 15 16  1  0  0  0
 26 27  2  0  0  0
 27 28  1  0  0  0
 28 31  1  0  0  0
 31 32  1  0  0  0
 28 23  2  0  0  0
 10  5  1  0  0  0
 16 11  1  0  0  0
 21 22  1  0  0  0
  3  4  1  0  0  0
 16 17  1  0  0  0
M  END
> <minimizedAffinity>
-9.83818

$$$$
OCNT-2312497


 26 28  0  0  0  0  0  0  0  0999 V2000
   -5.7522   27.8825    6.0817 C   0  0  0  0  0  0  0  0  0  0  0  0
   -5.8978   25.3041    2.5723 C   0  0  0  0  0  0  0  0  0  0  0  0
   -5.6857   26.6851    2.4501 C   0  0  0  0  0  0  0  0  0  0  0  0
   -5.6449   27.5068    3.5814 C   0  0  0  0  0  0  0  0  0  0  0  0
   -5.8262   26.9706    4.8664 C   0  0  0  0  0  0  0  0  0  0  0  0
   -6.0381   25.5886    4.9876 C   0  0  0  0  0  0  0  0  0  0  0  0
   -6.0760   24.7676    3.8555 C   0  0  0  0  0  0  0  0  0  0  0  0
   -6.1405   25.1830    0.0578 C   0  0  0  0  0  0  0  0  0  0  0  0
   -5.9474   24.3933    1.3571 C   0  0  0  0  0  0  0  0  0  0  0  0
   -7.0336   23.3248    1.5137 C   0  0  0  0  0  0  0  0  0  0  0  0
   -4.8036   28.9550    5.8733 N   0  0  0  0  0  0  0  0  0  0  0  0
   -4.7955   29.4020    4.9583 H   0  0  0  0  0  0  0  0  0  0  0  0
   -3.7991   29.3860    6.6964 C   0  0  0  0  0  0  0  0  0  0  0  0
   -4.0596   30.5024    7.3434 N   0  0  0  0  0  0  0  0  0  0  0  0
   -3.1005   30.9849    8.1926 C   0  0  0  0  0  0  0  0  0  0  0  0
   -3.0400   32.0920    9.0031 C   0  0  0  0  0  0  0  0  0  0  0  0
   -4.3236   33.4288    9.2488 Br  0  0  0  0  0  0  0  0  0  0  0  0
   -1.7968   32.0444    9.6393 C   0  0  0  0  0  0  0  0  0  0  0  0
   -1.0809   30.9786    9.2713 N   0  0  0  0  0  0  0  0  0  0  0  0
   -1.8785   30.3332    8.3770 N   0  0  0  0  0  0  0  0  0  0  0  0
   -1.6007   29.1575    7.6917 C   0  0  0  0  0  0  0  0  0  0  0  0
   -2.5031   28.6368    6.8508 C   0  0  0  0  0  0  0  0  0  0  0  0
   -7.1445   28.4548    6.3950 C   0  0  0  0  0  0  0  0  0  0  0  0
   -7.3081   29.8873    5.8995 C   0  0  0  0  0  0  0  0  0  0  0  0
   -7.0582   30.7956    6.9651 O   0  0  0  0  0  0  0  0  0  0  0  0
   -6.1406   30.6671    7.2615 H   0  0  0  0  0  0  0  0  0  0  0  0
  8  9  1  0  0  0
  9 10  1  0  0  0
  9  2  1  0  0  0
  2  3  1  0  0  0
  3  4  2  0  0  0
  4  5  1  0  0  0
  5  1  1  0  0  0
  1 23  1  0  0  0
 23 24  1  0  0  0
 24 25  1  0  0  0
  1 11  1  0  0  0
 11 13  1  0  0  0
 13 14  2  0  0  0
 14 15  1  0  0  0
 15 16  2  0  0  0
 16 17  1  0  0  0
 16 18  1  0  0  0
 18 19  2  0  0  0
 19 20  1  0  0  0
 20 21  1  0  0  0
 21 22  2  0  0  0
  5  6  2  0  0  0
  6  7  1  0  0  0
  7  2  2  0  0  0
 22 13  1  0  0  0
 20 15  1  0  0  0
 25 26  1  0  0  0
 11 12  1  0  0  0
M  END
> <minimizedAffinity>
-8.90134

$$$$
OCNT-2312506


 34 37  0  0  0  0  0  0  0  0999 V2000
   -5.7342   25.9556    2.6983 N   0  0  0  0  0  0  0  0  0  0  0  0
   -4.6743   26.5284    3.3654 C   0  0  0  0  0  0  0  0  0  0  0  0
   -3.5025   26.3728    3.0434 O   0  0  0  0  0  0  0  0  0  0  0  0
   -6.6377   25.9272    3.1521 H   0  0  0  0  0  0  0  0  0  0  0  0
   -5.0132   27.3435    4.5677 C   0  0  0  0  0  0  0  0  0  0  0  0
   -3.9268   27.7487    5.3799 C   0  0  0  0  0  0  0  0  0  0  0  0
   -4.3511   28.5137    6.4653 C   0  0  0  0  0  0  0  0  0  0  0  0
   -3.5721   29.0607    7.4520 C   0  0  0  0  0  0  0  0  0  0  0  0
   -4.4075   29.6993    8.3279 O   0  0  0  0  0  0  0  0  0  0  0  0
   -5.7238   29.5900    7.9164 N   0  0  0  0  0  0  0  0  0  0  0  0
   -5.7126   28.8722    6.7831 C   0  0  0  0  0  0  0  0  0  0  0  0
   -6.7765   28.4710    5.9570 C   0  0  0  0  0  0  0  0  0  0  0  0
   -6.3778   27.7029    4.8378 C   0  0  0  0  0  0  0  0  0  0  0  0
   -2.1544   29.1388    7.7755 C   0  0  0  0  0  0  0  0  0  0  0  0
   -1.2384   28.2189    7.2406 C   0  0  0  0  0  0  0  0  0  0  0  0
    0.1204   28.3000    7.5587 C   0  0  0  0  0  0  0  0  0  0  0  0
    0.5677   29.3031    8.4089 C   0  0  0  0  0  0  0  0  0  0  0  0
    1.8697   29.3801    8.7126 F   0  0  0  0  0  0  0  0  0  0  0  0
   -0.3167   30.2297    8.9449 C   0  0  0  0  0  0  0  0  0  0  0  0
   -1.6750   30.1489    8.6269 C   0  0  0  0  0  0  0  0  0  0  0  0
   -5.5286   25.0698    1.5622 C   0  0  0  0  0  0  0  0  0  0  0  0
   -6.1911   25.6147    0.2930 C   0  0  0  0  0  0  0  0  0  0  0  0
   -7.2631   22.1492    3.3384 C   0  0  0  0  0  0  0  0  0  0  0  0
   -6.9184   21.0722    2.5195 C   0  0  0  0  0  0  0  0  0  0  0  0
   -6.1387   21.2969    1.3868 C   0  0  0  0  0  0  0  0  0  0  0  0
   -5.7012   22.5887    1.0807 C   0  0  0  0  0  0  0  0  0  0  0  0
   -6.0375   23.6783    1.9010 C   0  0  0  0  0  0  0  0  0  0  0  0
   -6.8205   23.4433    3.0435 C   0  0  0  0  0  0  0  0  0  0  0  0
   -8.2189   21.8581    4.8048 S   0  0  0  0  0  0  0  0  0  0  0  0
   -9.1245   20.7650    4.5286 O   0  0  0  0  0  0  0  0  0  0  0  0
   -7.3279   21.8380    5.9439 O   0  0  0  0  0  0  0  0  0  0  0  0
   -9.6230   23.6972    6.1962 C   0  0  0  0  0  0  0  0  0  0  0  0
   -9.1608   23.2425    4.8924 N   0  0  0  0  0  0  0  0  0  0  0  0
   -9.7775   23.3541    4.0888 H   0  0  0  0  0  0  0  0  0  0  0  0
 32 33  1  0  0  0
 33 29  1  0  0  0
 29 30  2  0  0  0
 29 31  2  0  0  0
 29 23  1  0  0  0
 23 24  2  0  0  0
 24 25  1  0  0  0
 25 26  2  0  0  0
 26 27  1  0  0  0
 27 21  1  0  0  0
 21 22  1  0  0  0
 21  1  1  0  0  0
  1  2  1  0  0  0
  2  3  2  0  0  0
  2  5  1  0  0  0
  5  6  2  0  0  0
  6  7  1  0  0  0
  7  8  2  0  0  0
  8 14  1  0  0  0
 14 15  1  0  0  0
 15 16  2  0  0  0
 16 17  1  0  0  0
 17 18  1  0  0  0
 17 19  2  0  0  0
 19 20  1  0  0  0
  8  9  1  0  0  0
  9 10  1  0  0  0
 10 11  2  0  0  0
 11 12  1  0  0  0
 12 13  2  0  0  0
 27 28  2  0  0  0
 28 23  1  0  0  0
 13  5  1  0  0  0
 11  7  1  0  0  0
 20 14  2  0  0  0
 33 34  1  0  0  0
  1  4  1  0  0  0
M  END
> <minimizedAffinity>
-10.61572

$$$$
OCNT-2312510


 35 38  0  0  0  0  0  0  0  0999 V2000
   -2.4106   26.1213    4.9007 C   0  0  0  0  0  0  0  0  0  0  0  0
   -2.6042   25.9751    3.3876 C   0  0  0  0  0  0  0  0  0  0  0  0
   -3.5697   24.8433    3.0577 C   0  0  0  0  0  0  0  0  0  0  0  0
   -4.8825   25.1537    3.6318 N   0  0  0  0  0  0  0  0  0  0  0  0
   -4.9221   25.7181    4.9864 C   0  0  0  0  0  0  0  0  0  0  0  0
   -3.5871   25.5503    5.7055 C   0  0  0  0  0  0  0  0  0  0  0  0
   -2.3296   27.1828    7.4890 O   0  0  0  0  0  0  0  0  0  0  0  0
   -2.1443   27.9463    6.5519 C   0  0  0  0  0  0  0  0  0  0  0  0
   -1.9043   29.3014    6.6208 N   0  0  0  0  0  0  0  0  0  0  0  0
   -2.1414   27.5202    5.2357 N   0  0  0  0  0  0  0  0  0  0  0  0
   -1.5280   29.7128    5.7801 H   0  0  0  0  0  0  0  0  0  0  0  0
   -2.4355   28.2108    4.5609 H   0  0  0  0  0  0  0  0  0  0  0  0
   -1.9200   30.1178    7.7688 C   0  0  0  0  0  0  0  0  0  0  0  0
   -3.1317   30.2172    8.4686 C   0  0  0  0  0  0  0  0  0  0  0  0
   -3.2241   31.0012    9.6216 C   0  0  0  0  0  0  0  0  0  0  0  0
   -2.1030   31.6808   10.0776 C   0  0  0  0  0  0  0  0  0  0  0  0
   -2.1906   32.4329   11.1823 F   0  0  0  0  0  0  0  0  0  0  0  0
   -0.8932   31.5890    9.4031 C   0  0  0  0  0  0  0  0  0  0  0  0
   -0.8010   30.8058    8.2482 C   0  0  0  0  0  0  0  0  0  0  0  0
   -5.9396   24.3487    3.2087 C   0  0  0  0  0  0  0  0  0  0  0  0
   -6.1308   24.0748    1.8679 C   0  0  0  0  0  0  0  0  0  0  0  0
   -7.1822   23.2457    1.5135 C   0  0  0  0  0  0  0  0  0  0  0  0
   -8.0162   22.7192    2.4402 N   0  0  0  0  0  0  0  0  0  0  0  0
   -7.7604   23.0147    3.7237 C   0  0  0  0  0  0  0  0  0  0  0  0
   -6.7483   23.8015    4.1315 N   0  0  0  0  0  0  0  0  0  0  0  0
   -8.6442   22.4402    4.7542 C   0  0  0  0  0  0  0  0  0  0  0  0
   -8.5741   22.8523    6.0937 C   0  0  0  0  0  0  0  0  0  0  0  0
   -9.4245   22.2833    7.0290 C   0  0  0  0  0  0  0  0  0  0  0  0
  -10.3376   21.3371    6.7340 N   0  0  0  0  0  0  0  0  0  0  0  0
  -10.4027   20.9446    5.4463 C   0  0  0  0  0  0  0  0  0  0  0  0
   -9.5947   21.4559    4.4425 C   0  0  0  0  0  0  0  0  0  0  0  0
   -7.4196   22.9509    0.0434 C   0  0  0  0  0  0  0  0  0  0  0  0
   -8.5490   22.2297   -0.2042 F   0  0  0  0  0  0  0  0  0  0  0  0
   -7.5267   24.0875   -0.7033 F   0  0  0  0  0  0  0  0  0  0  0  0
   -6.3986   22.2400   -0.5213 F   0  0  0  0  0  0  0  0  0  0  0  0
  7  8  2  0  0  0
  8  9  1  0  0  0
  9 13  1  0  0  0
 13 14  1  0  0  0
 14 15  2  0  0  0
 15 16  1  0  0  0
 16 17  1  0  0  0
 16 18  2  0  0  0
 18 19  1  0  0  0
  8 10  1  0  0  0
 10  1  1  0  0  0
  1  2  1  0  0  0
  2  3  1  0  0  0
  3  4  1  0  0  0
  4 20  1  0  0  0
 20 21  2  0  0  0
 21 22  1  0  0  0
 22 32  1  0  0  0
 32 33  1  0  0  0
 32 34  1  0  0  0
 32 35  1  0  0  0
 22 23  2  0  0  0
 23 24  1  0  0  0
 24 26  1  0  0  0
 26 27  2  0  0  0
 27 28  1  0  0  0
 28 29  2  0  0  0
 29 30  1  0  0  0
 30 31  2  0  0  0
 24 25  2  0  0  0
  4  5  1  0  0  0
  5  6  1  0  0  0
 19 13  2  0  0  0
  6  1  1  0  0  0
 25 20  1  0  0  0
 31 26  1  0  0  0
  9 11  1  0  0  0
 10 12  1  0  0  0
M  END
> <minimizedAffinity>
-10.66516

$$$$
OCNT-2312526


 26 28  0  0  0  0  0  0  0  0999 V2000
   -4.6784   27.1868    5.4233 O   0  0  0  0  0  0  0  0  0  0  0  0
   -3.9255   28.0579    5.8439 C   0  0  0  0  0  0  0  0  0  0  0  0
   -4.3195   29.3756    5.9827 N   0  0  0  0  0  0  0  0  0  0  0  0
   -3.7414   29.9823    6.5444 H   0  0  0  0  0  0  0  0  0  0  0  0
   -2.5556   27.7832    6.2471 C   0  0  0  0  0  0  0  0  0  0  0  0
   -1.8133   26.6243    6.0839 C   0  0  0  0  0  0  0  0  0  0  0  0
   -0.5906   26.8625    6.6447 N   0  0  0  0  0  0  0  0  0  0  0  0
   -0.4651   28.0988    7.1463 N   0  0  0  0  0  0  0  0  0  0  0  0
   -1.6650   28.6407    6.9337 C   0  0  0  0  0  0  0  0  0  0  0  0
    0.2014   26.2312    6.7185 H   0  0  0  0  0  0  0  0  0  0  0  0
   -1.9134   29.9085    7.3252 O   0  0  0  0  0  0  0  0  0  0  0  0
   -1.9969   30.1032    8.7412 C   0  0  0  0  0  0  0  0  0  0  0  0
   -1.2725   31.3482    9.2335 C   0  0  0  0  0  0  0  0  0  0  0  0
   -1.3869   32.4128    8.4134 F   0  0  0  0  0  0  0  0  0  0  0  0
   -1.7714   31.7253   10.4394 F   0  0  0  0  0  0  0  0  0  0  0  0
    0.0480   31.1123    9.4170 F   0  0  0  0  0  0  0  0  0  0  0  0
   -5.6967   29.7677    5.7409 C   0  0  0  0  0  0  0  0  0  0  0  0
   -6.3088   30.1334    7.0903 C   0  0  0  0  0  0  0  0  0  0  0  0
   -6.4684   28.9446    8.0765 C   0  0  0  0  0  0  0  0  0  0  0  0
   -5.9523   29.9240    9.1430 C   0  0  0  0  0  0  0  0  0  0  0  0
   -5.3196   30.6943    8.0489 N   0  0  0  0  0  0  0  0  0  0  0  0
   -5.3816   32.1362    8.2835 C   0  0  0  0  0  0  0  0  0  0  0  0
   -4.7873   33.1431    7.2901 C   0  0  0  0  0  0  0  0  0  0  0  0
   -4.7978   34.4597    8.0652 C   0  0  0  0  0  0  0  0  0  0  0  0
   -4.7167   34.0817    9.5444 C   0  0  0  0  0  0  0  0  0  0  0  0
   -4.7044   32.5555    9.5916 C   0  0  0  0  0  0  0  0  0  0  0  0
  1  2  2  0  0  0
  2  3  1  0  0  0
  3 17  1  0  0  0
 17 18  1  0  0  0
 18 19  1  0  0  0
 19 20  1  0  0  0
 20 21  1  0  0  0
 21 22  1  0  0  0
 22 23  1  0  0  0
 23 24  1  0  0  0
 24 25  1  0  0  0
 25 26  1  0  0  0
  2  5  1  0  0  0
  5  6  2  0  0  0
  6  7  1  0  0  0
  7  8  1  0  0  0
  8  9  2  0  0  0
  9 11  1  0  0  0
 11 12  1  0  0  0
 12 13  1  0  0  0
 13 14  1  0  0  0
 13 15  1  0  0  0
 13 16  1  0  0  0
 21 18  1  0  0  0
 26 22  1  0  0  0
  9  5  1  0  0  0
  3  4  1  0  0  0
  7 10  1  0  0  0
M  END
> <minimizedAffinity>
-8.19648

$$$$
OCNT-2312546


 31 34  0  0  0  0  0  0  0  0999 V2000
   -4.6868   28.1908    4.7790 N   0  0  0  0  0  0  0  0  0  0  0  0
   -4.5723   28.3364    6.1437 C   0  0  0  0  0  0  0  0  0  0  0  0
   -4.0927   27.5343    6.9331 O   0  0  0  0  0  0  0  0  0  0  0  0
   -5.0681   29.5592    6.5430 N   0  0  0  0  0  0  0  0  0  0  0  0
   -4.8386   29.0484    4.2705 H   0  0  0  0  0  0  0  0  0  0  0  0
   -5.7928   29.9614    5.9688 H   0  0  0  0  0  0  0  0  0  0  0  0
   -5.0853   29.9169    7.9453 C   0  0  0  0  0  0  0  0  0  0  0  0
   -6.1111   31.0230    8.2750 C   0  0  0  0  0  0  0  0  0  0  0  0
   -5.3875   32.3668    8.0983 C   0  0  0  0  0  0  0  0  0  0  0  0
   -3.9750   31.9859    8.4141 C   0  0  0  0  0  0  0  0  0  0  0  0
   -2.9120   32.8225    8.7130 C   0  0  0  0  0  0  0  0  0  0  0  0
   -1.6577   32.2484    8.9383 C   0  0  0  0  0  0  0  0  0  0  0  0
   -1.4940   30.8598    8.8474 C   0  0  0  0  0  0  0  0  0  0  0  0
   -0.2760   30.2799    9.0559 O   0  0  0  0  0  0  0  0  0  0  0  0
   -2.5600   30.0210    8.5357 C   0  0  0  0  0  0  0  0  0  0  0  0
   -3.8019   30.5984    8.3250 C   0  0  0  0  0  0  0  0  0  0  0  0
    0.3600   30.9738    9.2943 H   0  0  0  0  0  0  0  0  0  0  0  0
   -4.9478   25.3239    2.3610 C   0  0  0  0  0  0  0  0  0  0  0  0
   -3.6655   24.7811    2.5332 C   0  0  0  0  0  0  0  0  0  0  0  0
   -2.7556   25.3600    3.4171 C   0  0  0  0  0  0  0  0  0  0  0  0
   -3.1193   26.4893    4.1500 C   0  0  0  0  0  0  0  0  0  0  0  0
   -4.3952   27.0459    4.0107 C   0  0  0  0  0  0  0  0  0  0  0  0
   -5.2951   26.4638    3.1126 C   0  0  0  0  0  0  0  0  0  0  0  0
   -6.5880   23.4937    1.7220 C   0  0  0  0  0  0  0  0  0  0  0  0
   -7.5064   22.9686    0.8018 C   0  0  0  0  0  0  0  0  0  0  0  0
   -7.7615   23.6254   -0.4040 C   0  0  0  0  0  0  0  0  0  0  0  0
   -7.1040   24.8123   -0.7028 C   0  0  0  0  0  0  0  0  0  0  0  0
   -6.1926   25.3465    0.2075 C   0  0  0  0  0  0  0  0  0  0  0  0
   -5.9189   24.7064    1.4332 C   0  0  0  0  0  0  0  0  0  0  0  0
   -5.6978   21.6002    2.8805 C   0  0  0  0  0  0  0  0  0  0  0  0
   -6.2793   22.8956    2.9198 O   0  0  0  0  0  0  0  0  0  0  0  0
 30 31  1  0  0  0
 31 24  1  0  0  0
 24 25  2  0  0  0
 25 26  1  0  0  0
 26 27  2  0  0  0
 27 28  1  0  0  0
 28 29  2  0  0  0
 29 18  1  0  0  0
 18 19  1  0  0  0
 19 20  2  0  0  0
 20 21  1  0  0  0
 21 22  2  0  0  0
 22  1  1  0  0  0
  1  2  1  0  0  0
  2  3  2  0  0  0
  2  4  1  0  0  0
  4  7  1  0  0  0
  7  8  1  0  0  0
  8  9  1  0  0  0
  9 10  1  0  0  0
 10 11  1  0  0  0
 11 12  2  0  0  0
 12 13  1  0  0  0
 13 14  1  0  0  0
 13 15  2  0  0  0
 15 16  1  0  0  0
 22 23  1  0  0  0
 29 24  1  0  0  0
 23 18  2  0  0  0
 16  7  1  0  0  0
 16 10  2  0  0  0
  1  5  1  0  0  0
  4  6  1  0  0  0
 14 17  1  0  0  0
M  END
> <minimizedAffinity>
-10.81462

$$$$
OCNT-2312554


 25 28  0  0  0  0  0  0  0  0999 V2000
   -6.9069   25.0708    5.3019 O   0  0  0  0  0  0  0  0  0  0  0  0
   -6.0524   25.5648    4.5767 C   0  0  0  0  0  0  0  0  0  0  0  0
   -5.1347   24.8277    3.8557 N   0  0  0  0  0  0  0  0  0  0  0  0
   -4.6949   25.2721    3.0610 H   0  0  0  0  0  0  0  0  0  0  0  0
   -5.9945   27.0414    4.4102 C   0  0  0  0  0  0  0  0  0  0  0  0
   -6.0083   27.6407    3.1523 C   0  0  0  0  0  0  0  0  0  0  0  0
   -5.9418   29.0184    3.0983 C   0  0  0  0  0  0  0  0  0  0  0  0
   -5.8630   29.8066    4.1907 N   0  0  0  0  0  0  0  0  0  0  0  0
   -5.8287   29.2088    5.4116 C   0  0  0  0  0  0  0  0  0  0  0  0
   -5.8894   27.8304    5.5611 C   0  0  0  0  0  0  0  0  0  0  0  0
   -5.7288   30.0586    6.5489 N   0  0  0  0  0  0  0  0  0  0  0  0
   -6.7229   30.2697    7.4819 C   0  0  0  0  0  0  0  0  0  0  0  0
   -6.2012   31.1463    8.4011 C   0  0  0  0  0  0  0  0  0  0  0  0
   -4.9192   31.4871    8.0707 N   0  0  0  0  0  0  0  0  0  0  0  0
   -4.6640   30.8274    6.9605 C   0  0  0  0  0  0  0  0  0  0  0  0
   -5.2106   23.3742    3.8368 C   0  0  0  0  0  0  0  0  0  0  0  0
   -4.8992   22.8061    2.4487 C   0  0  0  0  0  0  0  0  0  0  0  0
   -5.4160   21.3607    2.2623 C   0  0  0  0  0  0  0  0  0  0  0  0
   -6.8427   21.4656    1.7029 C   0  0  0  0  0  0  0  0  0  0  0  0
   -6.7600   22.7518    0.9432 C   0  0  0  0  0  0  0  0  0  0  0  0
   -7.6295   23.2241   -0.0250 C   0  0  0  0  0  0  0  0  0  0  0  0
   -7.3789   24.4780   -0.5858 C   0  0  0  0  0  0  0  0  0  0  0  0
   -6.2776   25.2414   -0.1681 C   0  0  0  0  0  0  0  0  0  0  0  0
   -5.4125   24.7629    0.8180 C   0  0  0  0  0  0  0  0  0  0  0  0
   -5.6660   23.5159    1.3668 C   0  0  0  0  0  0  0  0  0  0  0  0
  1  2  2  0  0  0
  2  3  1  0  0  0
  3 16  1  0  0  0
 16 17  1  0  0  0
 17 18  1  0  0  0
 18 19  1  0  0  0
 19 20  1  0  0  0
 20 21  2  0  0  0
 21 22  1  0  0  0
 22 23  2  0  0  0
 23 24  1  0  0  0
 24 25  2  0  0  0
  2  5  1  0  0  0
  5  6  2  0  0  0
  6  7  1  0  0  0
  7  8  2  0  0  0
  8  9  1  0  0  0
  9 11  1  0  0  0
 11 12  1  0  0  0
 12 13  2  0  0  0
 13 14  1  0  0  0
 14 15  2  0  0  0
  9 10  2  0  0  0
 25 17  1  0  0  0
 10  5  1  0  0  0
 25 20  1  0  0  0
 15 11  1  0  0  0
  3  4  1  0  0  0
M  END
> <minimizedAffinity>
-9.89746

$$$$
OCNT-2312556


 28 30  0  0  0  0  0  0  0  0999 V2000
   -4.7647   30.4461    8.3567 N   0  0  0  0  0  0  0  0  0  0  0  0
   -5.0676   30.5258    6.9992 C   0  0  0  0  0  0  0  0  0  0  0  0
   -4.3501   31.1126    6.1926 O   0  0  0  0  0  0  0  0  0  0  0  0
   -5.5922   29.7047    9.3196 C   0  0  0  0  0  0  0  0  0  0  0  0
   -6.5975   30.6087   10.0186 C   0  0  0  0  0  0  0  0  0  0  0  0
   -3.5483   31.0927    8.9151 C   0  0  0  0  0  0  0  0  0  0  0  0
   -2.2915   30.2612    8.7132 C   0  0  0  0  0  0  0  0  0  0  0  0
   -1.0390   30.7901    9.0528 C   0  0  0  0  0  0  0  0  0  0  0  0
    0.0948   30.0145    8.8596 C   0  0  0  0  0  0  0  0  0  0  0  0
    0.0726   28.7648    8.3545 N   0  0  0  0  0  0  0  0  0  0  0  0
   -1.1385   28.2731    8.0196 C   0  0  0  0  0  0  0  0  0  0  0  0
   -2.3272   28.9697    8.1776 C   0  0  0  0  0  0  0  0  0  0  0  0
   -4.4006   33.5429    9.3491 C   0  0  0  0  0  0  0  0  0  0  0  0
   -3.4034   32.6164    8.6620 C   0  0  0  0  0  0  0  0  0  0  0  0
   -6.3372   29.8296    6.5237 C   0  0  0  0  0  0  0  0  0  0  0  0
   -6.1509   28.3451    6.1971 C   0  0  0  0  0  0  0  0  0  0  0  0
   -4.8179   28.0448    5.5042 C   0  0  0  0  0  0  0  0  0  0  0  0
   -4.9673   27.0012    4.5062 N   0  0  0  0  0  0  0  0  0  0  0  0
   -5.5637   27.1951    3.2894 C   0  0  0  0  0  0  0  0  0  0  0  0
   -6.0738   28.2014    2.8347 O   0  0  0  0  0  0  0  0  0  0  0  0
   -5.4629   25.9268    2.5706 C   0  0  0  0  0  0  0  0  0  0  0  0
   -5.9145   25.5699    1.3151 C   0  0  0  0  0  0  0  0  0  0  0  0
   -5.6561   24.2622    0.8916 C   0  0  0  0  0  0  0  0  0  0  0  0
   -4.9603   23.3572    1.7207 C   0  0  0  0  0  0  0  0  0  0  0  0
   -4.5112   23.7445    2.9873 C   0  0  0  0  0  0  0  0  0  0  0  0
   -4.7808   25.0399    3.3834 C   0  0  0  0  0  0  0  0  0  0  0  0
   -4.4462   25.7412    4.6217 C   0  0  0  0  0  0  0  0  0  0  0  0
   -3.8107   25.2443    5.5310 O   0  0  0  0  0  0  0  0  0  0  0  0
 13 14  1  0  0  0
 14  6  1  0  0  0
  6  7  1  0  0  0
  7  8  2  0  0  0
  8  9  1  0  0  0
  9 10  2  0  0  0
 10 11  1  0  0  0
 11 12  2  0  0  0
  6  1  1  0  0  0
  1  4  1  0  0  0
  4  5  1  0  0  0
  1  2  1  0  0  0
  2  3  2  0  0  0
  2 15  1  0  0  0
 15 16  1  0  0  0
 16 17  1  0  0  0
 17 18  1  0  0  0
 18 19  1  0  0  0
 19 20  2  0  0  0
 19 21  1  0  0  0
 21 22  2  0  0  0
 22 23  1  0  0  0
 23 24  2  0  0  0
 24 25  1  0  0  0
 25 26  2  0  0  0
 26 27  1  0  0  0
 27 28  2  0  0  0
 12  7  1  0  0  0
 27 18  1  0  0  0
 26 21  1  0  0  0
M  END
> <minimizedAffinity>
-9.14140

$$$$
OCNT-2312575


 26 28  0  0  0  0  0  0  0  0999 V2000
   -5.9066   28.4509    6.0200 C   0  0  0  0  0  0  0  0  0  0  0  0
   -6.5956   28.2728    7.0295 O   0  0  0  0  0  0  0  0  0  0  0  0
   -5.8560   27.5310    4.9775 N   0  0  0  0  0  0  0  0  0  0  0  0
   -6.6048   26.2810    5.0970 C   0  0  0  0  0  0  0  0  0  0  0  0
   -5.8268   25.1039    4.5172 C   0  0  0  0  0  0  0  0  0  0  0  0
   -5.3997   25.3331    3.0523 C   0  0  0  0  0  0  0  0  0  0  0  0
   -5.5082   26.8079    2.6285 C   0  0  0  0  0  0  0  0  0  0  0  0
   -5.0771   27.7372    3.7562 C   0  0  0  0  0  0  0  0  0  0  0  0
   -6.1362   24.4330    2.0738 C   0  0  0  0  0  0  0  0  0  0  0  0
   -6.2960   24.8371    0.7394 C   0  0  0  0  0  0  0  0  0  0  0  0
   -6.9738   24.0282   -0.1751 C   0  0  0  0  0  0  0  0  0  0  0  0
   -7.5031   22.8062    0.2320 C   0  0  0  0  0  0  0  0  0  0  0  0
   -7.3560   22.3927    1.5536 C   0  0  0  0  0  0  0  0  0  0  0  0
   -6.6783   23.2003    2.4692 C   0  0  0  0  0  0  0  0  0  0  0  0
   -5.0560   29.7181    5.8735 C   0  0  0  0  0  0  0  0  0  0  0  0
   -2.8904   30.5438    6.7021 C   0  0  0  0  0  0  0  0  0  0  0  0
   -3.1974   31.7143    6.5131 O   0  0  0  0  0  0  0  0  0  0  0  0
   -3.7360   29.4961    6.4289 N   0  0  0  0  0  0  0  0  0  0  0  0
   -3.4229   28.5318    6.4944 H   0  0  0  0  0  0  0  0  0  0  0  0
   -2.1569   31.0524    9.5511 C   0  0  0  0  0  0  0  0  0  0  0  0
   -1.2086   30.4013    8.5829 C   0  0  0  0  0  0  0  0  0  0  0  0
    0.0583   29.9979    9.0367 C   0  0  0  0  0  0  0  0  0  0  0  0
    0.9682   29.3858    8.1727 C   0  0  0  0  0  0  0  0  0  0  0  0
    0.6238   29.1568    6.8437 C   0  0  0  0  0  0  0  0  0  0  0  0
   -0.6328   29.5405    6.3763 C   0  0  0  0  0  0  0  0  0  0  0  0
   -1.5514   30.1650    7.2370 C   0  0  0  0  0  0  0  0  0  0  0  0
 20 21  1  0  0  0
 21 22  2  0  0  0
 22 23  1  0  0  0
 23 24  2  0  0  0
 24 25  1  0  0  0
 25 26  2  0  0  0
 26 16  1  0  0  0
 16 17  2  0  0  0
 16 18  1  0  0  0
 18 15  1  0  0  0
 15  1  1  0  0  0
  1  2  2  0  0  0
  1  3  1  0  0  0
  3  4  1  0  0  0
  4  5  1  0  0  0
  5  6  1  0  0  0
  6  9  1  0  0  0
  9 10  2  0  0  0
 10 11  1  0  0  0
 11 12  2  0  0  0
 12 13  1  0  0  0
 13 14  2  0  0  0
  6  7  1  0  0  0
  7  8  1  0  0  0
 26 21  1  0  0  0
  8  3  1  0  0  0
 14  9  1  0  0  0
 18 19  1  0  0  0
M  END
> <minimizedAffinity>
-10.45264

$$$$
OCNT-2312594


 27 30  0  0  0  0  0  0  0  0999 V2000
   -2.1338   27.3066    7.9218 O   0  0  0  0  0  0  0  0  0  0  0  0
   -1.4803   27.8681    7.0524 C   0  0  0  0  0  0  0  0  0  0  0  0
   -1.3304   27.4035    5.7692 N   0  0  0  0  0  0  0  0  0  0  0  0
   -0.7563   27.9289    5.1226 H   0  0  0  0  0  0  0  0  0  0  0  0
   -0.7479   29.1533    7.3386 C   0  0  0  0  0  0  0  0  0  0  0  0
    0.6444   29.0297    7.9573 C   0  0  0  0  0  0  0  0  0  0  0  0
    0.5140   29.4555    6.5309 C   0  0  0  0  0  0  0  0  0  0  0  0
   -1.6159   30.3173    7.8093 C   0  0  0  0  0  0  0  0  0  0  0  0
   -2.5300   30.9332    6.9343 C   0  0  0  0  0  0  0  0  0  0  0  0
   -3.3246   32.0080    7.3443 C   0  0  0  0  0  0  0  0  0  0  0  0
   -3.2136   32.4897    8.6441 C   0  0  0  0  0  0  0  0  0  0  0  0
   -4.1882   33.8115    9.1551 Cl  0  0  0  0  0  0  0  0  0  0  0  0
   -2.3145   31.9078    9.5322 C   0  0  0  0  0  0  0  0  0  0  0  0
   -1.5222   30.8335    9.1147 C   0  0  0  0  0  0  0  0  0  0  0  0
   -1.9624   26.1811    5.3074 C   0  0  0  0  0  0  0  0  0  0  0  0
   -1.9297   26.0016    3.7873 C   0  0  0  0  0  0  0  0  0  0  0  0
   -3.2877   25.9655    3.1836 C   0  0  0  0  0  0  0  0  0  0  0  0
   -3.6573   25.0024    2.3307 N   0  0  0  0  0  0  0  0  0  0  0  0
   -4.9451   25.3451    2.0383 N   0  0  0  0  0  0  0  0  0  0  0  0
   -5.4189   26.4517    2.6764 N   0  0  0  0  0  0  0  0  0  0  0  0
   -4.3609   26.8460    3.3852 C   0  0  0  0  0  0  0  0  0  0  0  0
   -5.7445   24.5865    1.1445 C   0  0  0  0  0  0  0  0  0  0  0  0
   -6.5237   25.2341    0.1749 C   0  0  0  0  0  0  0  0  0  0  0  0
   -7.3081   24.4835   -0.7034 C   0  0  0  0  0  0  0  0  0  0  0  0
   -7.3180   23.0913   -0.6176 C   0  0  0  0  0  0  0  0  0  0  0  0
   -6.5449   22.4436    0.3460 C   0  0  0  0  0  0  0  0  0  0  0  0
   -5.7577   23.1866    1.2282 C   0  0  0  0  0  0  0  0  0  0  0  0
  1  2  2  0  0  0
  2  3  1  0  0  0
  3 15  1  0  0  0
 15 16  1  0  0  0
 16 17  1  0  0  0
 17 18  2  0  0  0
 18 19  1  0  0  0
 19 22  1  0  0  0
 22 23  2  0  0  0
 23 24  1  0  0  0
 24 25  2  0  0  0
 25 26  1  0  0  0
 26 27  2  0  0  0
 19 20  1  0  0  0
 20 21  2  0  0  0
  2  5  1  0  0  0
  5  8  1  0  0  0
  8  9  1  0  0  0
  9 10  2  0  0  0
 10 11  1  0  0  0
 11 12  1  0  0  0
 11 13  2  0  0  0
 13 14  1  0  0  0
  5  6  1  0  0  0
  6  7  1  0  0  0
 21 17  1  0  0  0
  7  5  1  0  0  0
 27 22  1  0  0  0
 14  8  2  0  0  0
  3  4  1  0  0  0
M  END
> <minimizedAffinity>
-10.79400

$$$$
OCNT-2312606


 30 34  0  0  0  0  0  0  0  0999 V2000
   -1.8926   28.4232    6.5724 O   0  0  0  0  0  0  0  0  0  0  0  0
   -3.1211   28.3689    6.5742 C   0  0  0  0  0  0  0  0  0  0  0  0
   -3.8273   27.5346    5.6884 N   0  0  0  0  0  0  0  0  0  0  0  0
   -5.0520   28.0115    5.0416 C   0  0  0  0  0  0  0  0  0  0  0  0
   -5.9181   26.8517    4.5664 C   0  0  0  0  0  0  0  0  0  0  0  0
   -5.1045   25.9058    3.6761 C   0  0  0  0  0  0  0  0  0  0  0  0
   -3.8208   25.4432    4.3733 C   0  0  0  0  0  0  0  0  0  0  0  0
   -3.0146   26.6377    4.8706 C   0  0  0  0  0  0  0  0  0  0  0  0
   -3.8989   29.1441    7.5422 C   0  0  0  0  0  0  0  0  0  0  0  0
   -4.6209   28.6419    8.6137 C   0  0  0  0  0  0  0  0  0  0  0  0
   -5.1744   29.6906    9.2965 N   0  0  0  0  0  0  0  0  0  0  0  0
   -4.8096   30.8812    8.7142 C   0  0  0  0  0  0  0  0  0  0  0  0
   -5.1275   32.1971    9.0763 C   0  0  0  0  0  0  0  0  0  0  0  0
   -4.5922   33.2262    8.2965 C   0  0  0  0  0  0  0  0  0  0  0  0
   -4.9545   34.8614    8.7026 Cl  0  0  0  0  0  0  0  0  0  0  0  0
   -3.7733   32.9581    7.2038 C   0  0  0  0  0  0  0  0  0  0  0  0
   -3.4681   31.6362    6.8573 C   0  0  0  0  0  0  0  0  0  0  0  0
   -3.9956   30.5731    7.6222 C   0  0  0  0  0  0  0  0  0  0  0  0
   -5.7500   29.6101   10.1241 H   0  0  0  0  0  0  0  0  0  0  0  0
   -5.8940   24.8101    3.1484 N   0  0  0  0  0  0  0  0  0  0  0  0
   -6.3966   23.7543    3.9456 C   0  0  0  0  0  0  0  0  0  0  0  0
   -6.2620   23.5945    5.1472 O   0  0  0  0  0  0  0  0  0  0  0  0
   -7.0942   22.8974    3.0856 N   0  0  0  0  0  0  0  0  0  0  0  0
   -7.0264   23.3984    1.7930 C   0  0  0  0  0  0  0  0  0  0  0  0
   -7.5684   22.8748    0.6408 C   0  0  0  0  0  0  0  0  0  0  0  0
   -7.3455   23.5867   -0.5398 C   0  0  0  0  0  0  0  0  0  0  0  0
   -6.5982   24.7821   -0.5324 C   0  0  0  0  0  0  0  0  0  0  0  0
   -6.0577   25.2919    0.6557 C   0  0  0  0  0  0  0  0  0  0  0  0
   -6.2848   24.5821    1.8156 C   0  0  0  0  0  0  0  0  0  0  0  0
   -7.5575   22.0579    3.3917 H   0  0  0  0  0  0  0  0  0  0  0  0
  1  2  2  0  0  0
  2  9  1  0  0  0
  9 10  2  0  0  0
 10 11  1  0  0  0
 11 12  1  0  0  0
 12 13  2  0  0  0
 13 14  1  0  0  0
 14 15  1  0  0  0
 14 16  2  0  0  0
 16 17  1  0  0  0
 17 18  2  0  0  0
  2  3  1  0  0  0
  3  4  1  0  0  0
  4  5  1  0  0  0
  5  6  1  0  0  0
  6 20  1  0  0  0
 20 21  1  0  0  0
 21 22  2  0  0  0
 21 23  1  0  0  0
 23 24  1  0  0  0
 24 25  2  0  0  0
 25 26  1  0  0  0
 26 27  2  0  0  0
 27 28  1  0  0  0
 28 29  2  0  0  0
  6  7  1  0  0  0
  7  8  1  0  0  0
 18  9  1  0  0  0
  8  3  1  0  0  0
 18 12  1  0  0  0
 29 20  1  0  0  0
 29 24  1  0  0  0
 11 19  1  0  0  0
 23 30  1  0  0  0
M  END
> <minimizedAffinity>
-10.63787

$$$$
OCNT-2312607


 25 28  0  0  0  0  0  0  0  0999 V2000
   -5.6404   28.5251    6.3309 C   0  0  0  0  0  0  0  0  0  0  0  0
   -6.8569   28.6239    6.5029 O   0  0  0  0  0  0  0  0  0  0  0  0
   -5.1364   27.5982    5.4355 N   0  0  0  0  0  0  0  0  0  0  0  0
   -3.7677   27.1079    5.3457 C   0  0  0  0  0  0  0  0  0  0  0  0
   -3.9069   25.7155    4.7417 C   0  0  0  0  0  0  0  0  0  0  0  0
   -5.1297   25.8670    3.8290 C   0  0  0  0  0  0  0  0  0  0  0  0
   -6.0412   26.7560    4.6733 C   0  0  0  0  0  0  0  0  0  0  0  0
   -4.4894   29.4658    8.4679 C   0  0  0  0  0  0  0  0  0  0  0  0
   -4.7324   29.3313    7.1145 C   0  0  0  0  0  0  0  0  0  0  0  0
   -3.7870   30.1237    6.4922 N   0  0  0  0  0  0  0  0  0  0  0  0
   -3.0451   30.8349    7.4051 C   0  0  0  0  0  0  0  0  0  0  0  0
   -2.0305   31.7788    7.2091 C   0  0  0  0  0  0  0  0  0  0  0  0
   -1.4420   32.3393    8.3471 C   0  0  0  0  0  0  0  0  0  0  0  0
   -1.8509   31.9669    9.6260 C   0  0  0  0  0  0  0  0  0  0  0  0
   -2.8638   31.0173    9.8023 C   0  0  0  0  0  0  0  0  0  0  0  0
   -3.4737   30.4409    8.6705 C   0  0  0  0  0  0  0  0  0  0  0  0
   -3.6833   30.1793    5.4877 H   0  0  0  0  0  0  0  0  0  0  0  0
   -6.2511   29.5254    9.9241 C   0  0  0  0  0  0  0  0  0  0  0  0
   -5.1391   28.7805    9.4330 O   0  0  0  0  0  0  0  0  0  0  0  0
   -5.7993   24.5493    3.4455 C   0  0  0  0  0  0  0  0  0  0  0  0
   -6.1728   24.5120    1.9949 C   0  0  0  0  0  0  0  0  0  0  0  0
   -5.8573   25.4527    1.1292 N   0  0  0  0  0  0  0  0  0  0  0  0
   -6.3494   25.1216   -0.1173 C   0  0  0  0  0  0  0  0  0  0  0  0
   -7.0366   23.9300   -0.1886 C   0  0  0  0  0  0  0  0  0  0  0  0
   -7.0716   23.1905    1.3563 S   0  0  0  0  0  0  0  0  0  0  0  0
 18 19  1  0  0  0
 19  8  1  0  0  0
  8  9  2  0  0  0
  9  1  1  0  0  0
  1  2  2  0  0  0
  1  3  1  0  0  0
  3  4  1  0  0  0
  4  5  1  0  0  0
  5  6  1  0  0  0
  6 20  1  0  0  0
 20 21  1  0  0  0
 21 22  2  0  0  0
 22 23  1  0  0  0
 23 24  2  0  0  0
 24 25  1  0  0  0
  6  7  1  0  0  0
  9 10  1  0  0  0
 10 11  1  0  0  0
 11 12  2  0  0  0
 12 13  1  0  0  0
 13 14  2  0  0  0
 14 15  1  0  0  0
 15 16  2  0  0  0
 16  8  1  0  0  0
  7  3  1  0  0  0
 16 11  1  0  0  0
 25 21  1  0  0  0
 10 17  1  0  0  0
M  END
> <minimizedAffinity>
-8.73976

$$$$
OCNT-2312608


 23 25  0  0  0  0  0  0  0  0999 V2000
   -3.8723   25.3642    3.8696 N   0  0  0  0  0  0  0  0  0  0  0  0
   -4.6652   25.0148    4.4015 H   0  0  0  0  0  0  0  0  0  0  0  0
   -2.9739   26.0242    4.7172 C   0  0  0  0  0  0  0  0  0  0  0  0
   -1.6172   25.8115    4.5187 C   0  0  0  0  0  0  0  0  0  0  0  0
   -0.7014   26.4820    5.3222 C   0  0  0  0  0  0  0  0  0  0  0  0
   -1.1417   27.3534    6.2991 C   0  0  0  0  0  0  0  0  0  0  0  0
   -0.2427   27.9981    7.0772 N   0  0  0  0  0  0  0  0  0  0  0  0
   -0.7598   28.8292    8.0025 C   0  0  0  0  0  0  0  0  0  0  0  0
   -2.1197   29.0027    8.1429 C   0  0  0  0  0  0  0  0  0  0  0  0
   -3.0174   28.3555    7.3672 N   0  0  0  0  0  0  0  0  0  0  0  0
   -2.5415   27.5242    6.4322 C   0  0  0  0  0  0  0  0  0  0  0  0
   -3.4183   26.8774    5.6567 N   0  0  0  0  0  0  0  0  0  0  0  0
   -4.3009   26.0964    2.6558 C   0  0  0  0  0  0  0  0  0  0  0  0
   -5.7753   26.5576    2.7606 C   0  0  0  0  0  0  0  0  0  0  0  0
   -6.0393   29.1078    3.5346 C   0  0  0  0  0  0  0  0  0  0  0  0
   -5.9225   27.9630    3.1911 C   0  0  0  0  0  0  0  0  0  0  0  0
   -4.0962   25.1919    1.4139 C   0  0  0  0  0  0  0  0  0  0  0  0
   -5.3857   24.6105    0.8749 C   0  0  0  0  0  0  0  0  0  0  0  0
   -5.8841   23.3986    1.3707 C   0  0  0  0  0  0  0  0  0  0  0  0
   -7.0691   22.8603    0.8668 C   0  0  0  0  0  0  0  0  0  0  0  0
   -7.7661   23.5264   -0.1391 C   0  0  0  0  0  0  0  0  0  0  0  0
   -7.2768   24.7293   -0.6443 C   0  0  0  0  0  0  0  0  0  0  0  0
   -6.0914   25.2688   -0.1419 C   0  0  0  0  0  0  0  0  0  0  0  0
 15 16  3  0  0  0
 16 14  1  0  0  0
 14 13  1  0  0  0
 13 17  1  0  0  0
 17 18  1  0  0  0
 18 19  2  0  0  0
 19 20  1  0  0  0
 20 21  2  0  0  0
 21 22  1  0  0  0
 22 23  2  0  0  0
 13  1  1  0  0  0
  1  3  1  0  0  0
  3  4  2  0  0  0
  4  5  1  0  0  0
  5  6  2  0  0  0
  6  7  1  0  0  0
  7  8  2  0  0  0
  8  9  1  0  0  0
  9 10  2  0  0  0
 10 11  1  0  0  0
 11 12  2  0  0  0
 23 18  1  0  0  0
 12  3  1  0  0  0
 11  6  1  0  0  0
  1  2  1  0  0  0
M  END
> <minimizedAffinity>
-9.02560

$$$$
OCNT-2312650


 25 27  0  0  0  0  0  0  0  0999 V2000
   -6.6170   28.9603    7.7883 O   0  0  0  0  0  0  0  0  0  0  0  0
   -6.1460   29.5683    6.8344 C   0  0  0  0  0  0  0  0  0  0  0  0
   -5.6884   30.8688    6.9055 N   0  0  0  0  0  0  0  0  0  0  0  0
   -5.6107   31.3872    6.0405 H   0  0  0  0  0  0  0  0  0  0  0  0
   -6.0796   28.9211    5.4957 C   0  0  0  0  0  0  0  0  0  0  0  0
   -6.1449   29.6660    4.3134 C   0  0  0  0  0  0  0  0  0  0  0  0
   -6.0746   29.0161    3.0826 C   0  0  0  0  0  0  0  0  0  0  0  0
   -5.9313   27.6265    3.0312 C   0  0  0  0  0  0  0  0  0  0  0  0
   -5.8456   26.8625    4.2057 C   0  0  0  0  0  0  0  0  0  0  0  0
   -5.9172   27.5287    5.4376 C   0  0  0  0  0  0  0  0  0  0  0  0
   -5.6835   25.4156    4.1572 C   0  0  0  0  0  0  0  0  0  0  0  0
   -5.7885   24.3770    5.0595 C   0  0  0  0  0  0  0  0  0  0  0  0
   -5.5240   23.1781    4.4445 N   0  0  0  0  0  0  0  0  0  0  0  0
   -5.2672   23.5257    3.2051 C   0  0  0  0  0  0  0  0  0  0  0  0
   -5.3435   24.8594    2.9488 O   0  0  0  0  0  0  0  0  0  0  0  0
   -5.8149   31.6256    8.1335 C   0  0  0  0  0  0  0  0  0  0  0  0
   -4.5190   32.3474    8.5024 C   0  0  0  0  0  0  0  0  0  0  0  0
   -3.2546   31.4660    8.4419 C   0  0  0  0  0  0  0  0  0  0  0  0
   -2.2876   31.7452    9.6094 C   0  0  0  0  0  0  0  0  0  0  0  0
   -0.8472   31.2948    9.3471 C   0  0  0  0  0  0  0  0  0  0  0  0
   -0.7637   30.2374    8.2652 C   0  0  0  0  0  0  0  0  0  0  0  0
    0.5242   29.8524    8.0902 F   0  0  0  0  0  0  0  0  0  0  0  0
   -1.4395   29.1304    8.6734 F   0  0  0  0  0  0  0  0  0  0  0  0
   -1.3348   30.7125    6.9377 C   0  0  0  0  0  0  0  0  0  0  0  0
   -2.5409   31.6440    7.0951 C   0  0  0  0  0  0  0  0  0  0  0  0
  1  2  2  0  0  0
  2  3  1  0  0  0
  3 16  1  0  0  0
 16 17  1  0  0  0
 17 18  1  0  0  0
 18 19  1  0  0  0
 19 20  1  0  0  0
 20 21  1  0  0  0
 21 22  1  0  0  0
 21 23  1  0  0  0
 21 24  1  0  0  0
 24 25  1  0  0  0
  2  5  1  0  0  0
  5  6  1  0  0  0
  6  7  2  0  0  0
  7  8  1  0  0  0
  8  9  2  0  0  0
  9 11  1  0  0  0
 11 12  2  0  0  0
 12 13  1  0  0  0
 13 14  2  0  0  0
 14 15  1  0  0  0
  9 10  1  0  0  0
 25 18  1  0  0  0
 10  5  2  0  0  0
 15 11  1  0  0  0
  3  4  1  0  0  0
M  END
> <minimizedAffinity>
-9.57310

$$$$
OCNT-2312662


 26 28  0  0  0  0  0  0  0  0999 V2000
   -3.3920   27.2941    4.7359 N   0  0  0  0  0  0  0  0  0  0  0  0
   -2.7393   27.0828    5.9333 C   0  0  0  0  0  0  0  0  0  0  0  0
   -2.2081   26.0209    6.2436 O   0  0  0  0  0  0  0  0  0  0  0  0
   -3.5959   28.2701    4.5343 H   0  0  0  0  0  0  0  0  0  0  0  0
   -3.3650   26.3243    3.6610 C   0  0  0  0  0  0  0  0  0  0  0  0
   -4.6765   26.2946    2.8722 C   0  0  0  0  0  0  0  0  0  0  0  0
   -5.2500   21.3090    2.9433 C   0  0  0  0  0  0  0  0  0  0  0  0
   -5.3408   22.6894    2.5238 N   0  0  0  0  0  0  0  0  0  0  0  0
   -4.7894   23.7467    3.1969 C   0  0  0  0  0  0  0  0  0  0  0  0
   -5.0826   24.9039    2.5019 C   0  0  0  0  0  0  0  0  0  0  0  0
   -5.8499   24.5180    1.3568 C   0  0  0  0  0  0  0  0  0  0  0  0
   -6.4322   25.2328    0.2890 C   0  0  0  0  0  0  0  0  0  0  0  0
   -7.1368   24.5427   -0.7029 C   0  0  0  0  0  0  0  0  0  0  0  0
   -7.2675   23.1587   -0.6445 C   0  0  0  0  0  0  0  0  0  0  0  0
   -6.6994   22.4262    0.4018 C   0  0  0  0  0  0  0  0  0  0  0  0
   -5.9946   23.1286    1.3930 C   0  0  0  0  0  0  0  0  0  0  0  0
   -2.7938   28.2921    6.8775 C   0  0  0  0  0  0  0  0  0  0  0  0
   -1.4918   29.0256    6.8852 N   0  0  0  0  0  0  0  0  0  0  0  0
   -0.6533   28.4840    7.9719 C   0  0  0  0  0  0  0  0  0  0  0  0
   -1.7159   30.4811    7.0808 C   0  0  0  0  0  0  0  0  0  0  0  0
   -1.2960   30.9580    8.4781 C   0  0  0  0  0  0  0  0  0  0  0  0
   -1.9335   32.3342    8.5858 C   0  0  0  0  0  0  0  0  0  0  0  0
   -3.2914   32.1908    7.9113 C   0  0  0  0  0  0  0  0  0  0  0  0
   -3.2012   30.9356    7.0371 C   0  0  0  0  0  0  0  0  0  0  0  0
   -3.6106   31.2352    5.7068 O   0  0  0  0  0  0  0  0  0  0  0  0
   -4.5427   31.5091    5.7471 H   0  0  0  0  0  0  0  0  0  0  0  0
  7  8  1  0  0  0
  8  9  1  0  0  0
  9 10  2  0  0  0
 10  6  1  0  0  0
  6  5  1  0  0  0
  5  1  1  0  0  0
  1  2  1  0  0  0
  2  3  2  0  0  0
  2 17  1  0  0  0
 17 18  1  0  0  0
 18 19  1  0  0  0
 18 20  1  0  0  0
 20 21  1  0  0  0
 21 22  1  0  0  0
 22 23  1  0  0  0
 23 24  1  0  0  0
 24 25  1  0  0  0
 10 11  1  0  0  0
 11 12  2  0  0  0
 12 13  1  0  0  0
 13 14  2  0  0  0
 14 15  1  0  0  0
 15 16  2  0  0  0
 16  8  1  0  0  0
 24 20  1  0  0  0
 16 11  1  0  0  0
  1  4  1  0  0  0
 25 26  1  0  0  0
M  END
> <minimizedAffinity>
-9.57561

$$$$
OCNT-2312702


 23 24  0  0  0  0  0  0  0  0999 V2000
   -5.3404   30.0886    6.1044 C   0  0  0  0  0  0  0  0  0  0  0  0
   -5.1516   28.8592    5.2350 C   0  0  0  0  0  0  0  0  0  0  0  0
   -6.0755   28.6253    4.2019 C   0  0  0  0  0  0  0  0  0  0  0  0
   -5.9501   27.5104    3.3871 C   0  0  0  0  0  0  0  0  0  0  0  0
   -4.9041   26.6156    3.6050 C   0  0  0  0  0  0  0  0  0  0  0  0
   -4.8177   25.1161    2.4313 Br  0  0  0  0  0  0  0  0  0  0  0  0
   -3.9685   26.8210    4.6511 C   0  0  0  0  0  0  0  0  0  0  0  0
   -2.8915   25.9493    4.9349 C   0  0  0  0  0  0  0  0  0  0  0  0
   -2.0173   26.2097    5.9821 C   0  0  0  0  0  0  0  0  0  0  0  0
   -2.2381   27.3419    6.7307 C   0  0  0  0  0  0  0  0  0  0  0  0
   -3.2497   28.2030    6.4989 N   0  0  0  0  0  0  0  0  0  0  0  0
   -4.1024   27.9621    5.4798 C   0  0  0  0  0  0  0  0  0  0  0  0
   -4.3683   31.1229    5.7356 N   0  0  0  0  0  0  0  0  0  0  0  0
   -4.8208   31.7400    5.0610 H   0  0  0  0  0  0  0  0  0  0  0  0
   -3.8799   31.9350    6.8768 C   0  0  0  0  0  0  0  0  0  0  0  0
   -2.3541   31.7799    6.9929 C   0  0  0  0  0  0  0  0  0  0  0  0
   -1.6160   32.3478    7.7842 O   0  0  0  0  0  0  0  0  0  0  0  0
   -1.8454   30.8927    6.1109 O   0  0  0  0  0  0  0  0  0  0  0  0
   -0.8934   30.8595    6.3370 H   0  0  0  0  0  0  0  0  0  0  0  0
   -4.5784   31.6950    8.2510 C   0  0  0  0  0  0  0  0  0  0  0  0
   -3.7864   30.6628    9.0744 C   0  0  0  0  0  0  0  0  0  0  0  0
   -4.9825   34.2388    8.1808 C   0  0  0  0  0  0  0  0  0  0  0  0
   -4.7388   33.0108    9.0490 C   0  0  0  0  0  0  0  0  0  0  0  0
 22 23  1  0  0  0
 23 20  1  0  0  0
 20 21  1  0  0  0
 20 15  1  0  0  0
 15 13  1  0  0  0
 13  1  1  0  0  0
  1  2  1  0  0  0
  2  3  1  0  0  0
  3  4  2  0  0  0
  4  5  1  0  0  0
  5  6  1  0  0  0
  5  7  2  0  0  0
  7  8  1  0  0  0
  8  9  2  0  0  0
  9 10  1  0  0  0
 10 11  2  0  0  0
 11 12  1  0  0  0
 15 16  1  0  0  0
 16 17  2  0  0  0
 16 18  1  0  0  0
 12  2  2  0  0  0
 12  7  1  0  0  0
 13 14  1  0  0  0
 18 19  1  0  0  0
M  END
> <minimizedAffinity>
-7.93822

$$$$
OCNT-2312704


 22 23  0  0  0  0  0  0  0  0999 V2000
   -4.5111   30.5804    5.6569 N   0  0  0  0  0  0  0  0  0  0  0  0
   -3.9627   30.0543    4.9856 H   0  0  0  0  0  0  0  0  0  0  0  0
   -3.6100   31.0281    6.6105 C   0  0  0  0  0  0  0  0  0  0  0  0
   -3.8212   32.1739    7.2698 N   0  0  0  0  0  0  0  0  0  0  0  0
   -2.8934   32.5493    8.1660 C   0  0  0  0  0  0  0  0  0  0  0  0
   -1.7646   31.8182    8.4350 C   0  0  0  0  0  0  0  0  0  0  0  0
   -1.6217   30.6426    7.7218 C   0  0  0  0  0  0  0  0  0  0  0  0
   -2.5473   30.2418    6.8108 N   0  0  0  0  0  0  0  0  0  0  0  0
   -0.3974   29.7796    7.9705 C   0  0  0  0  0  0  0  0  0  0  0  0
    0.3899   30.1976    9.0008 F   0  0  0  0  0  0  0  0  0  0  0  0
   -0.7234   28.4835    8.2514 F   0  0  0  0  0  0  0  0  0  0  0  0
    0.4211   29.7179    6.8786 F   0  0  0  0  0  0  0  0  0  0  0  0
   -5.6849   29.9101    6.1938 C   0  0  0  0  0  0  0  0  0  0  0  0
   -6.1255   29.6625    3.7064 C   0  0  0  0  0  0  0  0  0  0  0  0
   -6.3789   29.0713    5.0996 C   0  0  0  0  0  0  0  0  0  0  0  0
   -5.8678   27.6131    5.1910 C   0  0  0  0  0  0  0  0  0  0  0  0
   -4.5208   27.3973    4.6343 N   0  0  0  0  0  0  0  0  0  0  0  0
   -3.6005   26.9183    5.6910 C   0  0  0  0  0  0  0  0  0  0  0  0
   -2.1986   26.6321    5.1315 C   0  0  0  0  0  0  0  0  0  0  0  0
   -2.2514   25.6579    4.0818 O   0  0  0  0  0  0  0  0  0  0  0  0
   -3.0982   26.1273    3.0248 C   0  0  0  0  0  0  0  0  0  0  0  0
   -4.5229   26.4096    3.5317 C   0  0  0  0  0  0  0  0  0  0  0  0
 14 15  1  0  0  0
 15 13  1  0  0  0
 13  1  1  0  0  0
  1  3  1  0  0  0
  3  4  2  0  0  0
  4  5  1  0  0  0
  5  6  2  0  0  0
  6  7  1  0  0  0
  7  9  1  0  0  0
  9 10  1  0  0  0
  9 11  1  0  0  0
  9 12  1  0  0  0
  7  8  2  0  0  0
 15 16  1  0  0  0
 16 17  1  0  0  0
 17 18  1  0  0  0
 18 19  1  0  0  0
 19 20  1  0  0  0
 20 21  1  0  0  0
 21 22  1  0  0  0
  8  3  1  0  0  0
 22 17  1  0  0  0
  1  2  1  0  0  0
M  END
> <minimizedAffinity>
-7.42693

$$$$
OCNT-2312712


 27 29  0  0  0  0  0  0  0  0999 V2000
   -2.6559   26.1066    4.7575 C   0  0  0  0  0  0  0  0  0  0  0  0
   -1.2770   25.7157    4.2370 C   0  0  0  0  0  0  0  0  0  0  0  0
   -2.6559   28.7039    7.2255 C   0  0  0  0  0  0  0  0  0  0  0  0
   -1.7312   27.8853    7.7576 N   0  0  0  0  0  0  0  0  0  0  0  0
   -1.6489   26.8354    6.8485 O   0  0  0  0  0  0  0  0  0  0  0  0
   -2.5329   27.1170    5.8506 C   0  0  0  0  0  0  0  0  0  0  0  0
   -3.1781   28.2489    6.0307 N   0  0  0  0  0  0  0  0  0  0  0  0
   -3.9445   32.3806    9.0097 C   0  0  0  0  0  0  0  0  0  0  0  0
   -4.5327   31.9148    7.8276 C   0  0  0  0  0  0  0  0  0  0  0  0
   -4.1091   30.7144    7.2480 C   0  0  0  0  0  0  0  0  0  0  0  0
   -3.0876   29.9566    7.8368 C   0  0  0  0  0  0  0  0  0  0  0  0
   -2.4976   30.4284    9.0185 C   0  0  0  0  0  0  0  0  0  0  0  0
   -2.9247   31.6266    9.6009 C   0  0  0  0  0  0  0  0  0  0  0  0
   -4.8270   34.6974    8.6034 C   0  0  0  0  0  0  0  0  0  0  0  0
   -4.4154   33.6653    9.6430 C   0  0  0  0  0  0  0  0  0  0  0  0
   -3.4444   26.7094    3.6701 N   0  0  0  0  0  0  0  0  0  0  0  0
   -2.9394   27.2264    2.9475 H   0  0  0  0  0  0  0  0  0  0  0  0
   -4.8443   25.9570    3.1525 S   0  0  0  0  0  0  0  0  0  0  0  0
   -5.1176   24.9590    4.1642 O   0  0  0  0  0  0  0  0  0  0  0  0
   -5.7905   27.0018    2.8284 O   0  0  0  0  0  0  0  0  0  0  0  0
   -4.2703   25.1454    1.6512 C   0  0  0  0  0  0  0  0  0  0  0  0
   -5.4394   24.4987    0.9581 C   0  0  0  0  0  0  0  0  0  0  0  0
   -5.8436   23.2001    1.3038 C   0  0  0  0  0  0  0  0  0  0  0  0
   -6.9240   22.5992    0.6561 C   0  0  0  0  0  0  0  0  0  0  0  0
   -7.6092   23.2873   -0.3433 C   0  0  0  0  0  0  0  0  0  0  0  0
   -7.2137   24.5759   -0.6986 C   0  0  0  0  0  0  0  0  0  0  0  0
   -6.1334   25.1796   -0.0530 C   0  0  0  0  0  0  0  0  0  0  0  0
 14 15  1  0  0  0
 15  8  1  0  0  0
  8  9  1  0  0  0
  9 10  2  0  0  0
 10 11  1  0  0  0
 11  3  1  0  0  0
  3  4  2  0  0  0
  4  5  1  0  0  0
  5  6  1  0  0  0
  6  1  1  0  0  0
  1  2  1  0  0  0
  1 16  1  0  0  0
 16 18  1  0  0  0
 18 19  2  0  0  0
 18 20  2  0  0  0
 18 21  1  0  0  0
 21 22  1  0  0  0
 22 23  2  0  0  0
 23 24  1  0  0  0
 24 25  2  0  0  0
 25 26  1  0  0  0
 26 27  2  0  0  0
  6  7  2  0  0  0
 11 12  2  0  0  0
 12 13  1  0  0  0
 13  8  2  0  0  0
  7  3  1  0  0  0
 27 22  1  0  0  0
 16 17  1  0  0  0
M  END
> <minimizedAffinity>
-10.09036

$$$$
OCNT-2312713


 23 25  0  0  0  0  0  0  0  0999 V2000
   -5.7309   29.3888    6.2610 C   0  0  0  0  0  0  0  0  0  0  0  0
   -6.5046   29.9375    5.0421 C   0  0  0  0  0  0  0  0  0  0  0  0
   -6.1158   28.9850    3.9163 C   0  0  0  0  0  0  0  0  0  0  0  0
   -5.9432   27.7038    4.5796 N   0  0  0  0  0  0  0  0  0  0  0  0
   -5.7405   26.4774    3.9918 C   0  0  0  0  0  0  0  0  0  0  0  0
   -5.6033   25.4510    4.6559 O   0  0  0  0  0  0  0  0  0  0  0  0
   -5.9504   27.8709    6.0228 C   0  0  0  0  0  0  0  0  0  0  0  0
   -3.2708   30.1269    9.0581 N   0  0  0  0  0  0  0  0  0  0  0  0
   -4.2083   31.1057    8.4682 C   0  0  0  0  0  0  0  0  0  0  0  0
   -4.1928   31.1895    6.9177 C   0  0  0  0  0  0  0  0  0  0  0  0
   -4.3299   29.8875    6.2140 N   0  0  0  0  0  0  0  0  0  0  0  0
   -3.3332   28.9644    6.7976 C   0  0  0  0  0  0  0  0  0  0  0  0
   -3.4046   28.8410    8.3371 C   0  0  0  0  0  0  0  0  0  0  0  0
   -1.7318   32.0112    9.5949 C   0  0  0  0  0  0  0  0  0  0  0  0
   -1.8753   30.5941    9.0484 C   0  0  0  0  0  0  0  0  0  0  0  0
   -5.7062   26.4687    2.4748 C   0  0  0  0  0  0  0  0  0  0  0  0
   -4.8953   25.2917    1.9359 C   0  0  0  0  0  0  0  0  0  0  0  0
   -5.7411   24.3866    1.0767 C   0  0  0  0  0  0  0  0  0  0  0  0
   -6.5258   24.9087    0.0456 C   0  0  0  0  0  0  0  0  0  0  0  0
   -7.3044   24.0388   -0.7025 C   0  0  0  0  0  0  0  0  0  0  0  0
   -7.3571   22.7062   -0.4927 N   0  0  0  0  0  0  0  0  0  0  0  0
   -6.5918   22.2224    0.5088 C   0  0  0  0  0  0  0  0  0  0  0  0
   -5.7810   23.0102    1.3118 C   0  0  0  0  0  0  0  0  0  0  0  0
 14 15  1  0  0  0
 15  8  1  0  0  0
  8  9  1  0  0  0
  9 10  1  0  0  0
 10 11  1  0  0  0
 11  1  1  0  0  0
  1  2  1  0  0  0
  2  3  1  0  0  0
  3  4  1  0  0  0
  4  5  1  0  0  0
  5  6  2  0  0  0
  5 16  1  0  0  0
 16 17  1  0  0  0
 17 18  1  0  0  0
 18 19  2  0  0  0
 19 20  1  0  0  0
 20 21  2  0  0  0
 21 22  1  0  0  0
 22 23  2  0  0  0
  4  7  1  0  0  0
 11 12  1  0  0  0
 12 13  1  0  0  0
 13  8  1  0  0  0
  7  1  1  0  0  0
 23 18  1  0  0  0
M  END
> <minimizedAffinity>
-8.25970

$$$$
OCNT-2312719


 29 31  0  0  0  0  0  0  0  0999 V2000
   -4.8142   26.4531    5.3781 N   0  0  0  0  0  0  0  0  0  0  0  0
   -3.5539   26.9947    5.5144 C   0  0  0  0  0  0  0  0  0  0  0  0
   -2.5476   26.6666    4.9022 O   0  0  0  0  0  0  0  0  0  0  0  0
   -3.5519   27.9844    6.4744 N   0  0  0  0  0  0  0  0  0  0  0  0
   -5.4749   26.7171    6.0931 H   0  0  0  0  0  0  0  0  0  0  0  0
   -4.4233   28.4713    6.6183 H   0  0  0  0  0  0  0  0  0  0  0  0
   -2.3501   28.7576    6.7775 C   0  0  0  0  0  0  0  0  0  0  0  0
   -1.5238   27.9790    7.7985 C   0  0  0  0  0  0  0  0  0  0  0  0
   -0.4441   28.8583    8.4133 C   0  0  0  0  0  0  0  0  0  0  0  0
    0.6421   29.3000    7.4346 C   0  0  0  0  0  0  0  0  0  0  0  0
   -1.0064   29.9929    9.0823 O   0  0  0  0  0  0  0  0  0  0  0  0
   -2.0061   30.6510    8.4178 C   0  0  0  0  0  0  0  0  0  0  0  0
   -2.3301   31.9118    8.9236 C   0  0  0  0  0  0  0  0  0  0  0  0
   -3.3091   32.6875    8.3057 C   0  0  0  0  0  0  0  0  0  0  0  0
   -3.9626   32.2041    7.1763 C   0  0  0  0  0  0  0  0  0  0  0  0
   -3.6507   30.9377    6.6785 C   0  0  0  0  0  0  0  0  0  0  0  0
   -2.6875   30.1314    7.3106 C   0  0  0  0  0  0  0  0  0  0  0  0
   -6.0342   23.6045    2.5250 C   0  0  0  0  0  0  0  0  0  0  0  0
   -5.7146   24.9156    2.1523 C   0  0  0  0  0  0  0  0  0  0  0  0
   -5.3123   25.8379    3.1186 C   0  0  0  0  0  0  0  0  0  0  0  0
   -5.2377   25.4658    4.4645 C   0  0  0  0  0  0  0  0  0  0  0  0
   -5.5725   24.1556    4.8304 C   0  0  0  0  0  0  0  0  0  0  0  0
   -5.9850   23.2160    3.8723 C   0  0  0  0  0  0  0  0  0  0  0  0
   -6.4468   22.6849    1.4449 C   0  0  0  0  0  0  0  0  0  0  0  0
   -5.8013   21.7002    1.1219 O   0  0  0  0  0  0  0  0  0  0  0  0
   -7.7561   23.0515   -0.4489 C   0  0  0  0  0  0  0  0  0  0  0  0
   -7.6662   23.0421    0.9749 O   0  0  0  0  0  0  0  0  0  0  0  0
   -6.3781   21.9362    4.1655 O   0  0  0  0  0  0  0  0  0  0  0  0
   -7.6074   21.7620    4.8600 C   0  0  0  0  0  0  0  0  0  0  0  0
 26 27  1  0  0  0
 27 24  1  0  0  0
 24 25  2  0  0  0
 24 18  1  0  0  0
 18 19  1  0  0  0
 19 20  2  0  0  0
 20 21  1  0  0  0
 21  1  1  0  0  0
  1  2  1  0  0  0
  2  3  2  0  0  0
  2  4  1  0  0  0
  4  7  1  0  0  0
  7  8  1  0  0  0
  8  9  1  0  0  0
  9 10  1  0  0  0
  9 11  1  0  0  0
 11 12  1  0  0  0
 12 13  2  0  0  0
 13 14  1  0  0  0
 14 15  2  0  0  0
 15 16  1  0  0  0
 16 17  2  0  0  0
 21 22  2  0  0  0
 22 23  1  0  0  0
 23 28  1  0  0  0
 28 29  1  0  0  0
 23 18  2  0  0  0
 17  7  1  0  0  0
 17 12  1  0  0  0
  1  5  1  0  0  0
  4  6  1  0  0  0
M  END
> <minimizedAffinity>
-9.60529

$$$$
OCNT-2312721


 28 30  0  0  0  0  0  0  0  0999 V2000
   -4.2833   26.0818    5.1903 C   0  0  0  0  0  0  0  0  0  0  0  0
   -5.1216   26.9713    5.2700 O   0  0  0  0  0  0  0  0  0  0  0  0
   -4.6035   24.7421    5.1174 N   0  0  0  0  0  0  0  0  0  0  0  0
   -3.8196   24.1014    5.2435 H   0  0  0  0  0  0  0  0  0  0  0  0
   -5.9762   24.2549    5.3073 C   0  0  0  0  0  0  0  0  0  0  0  0
   -6.7717   24.4146    4.0118 C   0  0  0  0  0  0  0  0  0  0  0  0
   -6.4666   23.3003    3.0521 C   0  0  0  0  0  0  0  0  0  0  0  0
   -6.8194   23.4307    1.7011 C   0  0  0  0  0  0  0  0  0  0  0  0
   -6.5464   22.4043    0.7962 C   0  0  0  0  0  0  0  0  0  0  0  0
   -5.9231   21.2384    1.2339 C   0  0  0  0  0  0  0  0  0  0  0  0
   -5.5800   21.0974    2.5779 C   0  0  0  0  0  0  0  0  0  0  0  0
   -5.8613   22.1180    3.4866 C   0  0  0  0  0  0  0  0  0  0  0  0
   -5.4817   21.8802    4.7778 O   0  0  0  0  0  0  0  0  0  0  0  0
   -5.9843   22.7914    5.7799 C   0  0  0  0  0  0  0  0  0  0  0  0
   -7.3519   22.3575    6.3054 C   0  0  0  0  0  0  0  0  0  0  0  0
   -7.2454   21.7560    7.5139 F   0  0  0  0  0  0  0  0  0  0  0  0
   -8.1678   23.4267    6.4688 F   0  0  0  0  0  0  0  0  0  0  0  0
   -7.9906   21.4980    5.4829 F   0  0  0  0  0  0  0  0  0  0  0  0
   -0.8994   27.4443    6.1121 C   0  0  0  0  0  0  0  0  0  0  0  0
   -0.1215   26.8185    5.1336 C   0  0  0  0  0  0  0  0  0  0  0  0
   -0.7532   25.9870    4.2256 C   0  0  0  0  0  0  0  0  0  0  0  0
   -2.0798   25.7455    4.2299 N   0  0  0  0  0  0  0  0  0  0  0  0
   -2.8131   26.3701    5.1945 C   0  0  0  0  0  0  0  0  0  0  0  0
   -2.2755   27.2175    6.1478 C   0  0  0  0  0  0  0  0  0  0  0  0
   -0.3134   28.3536    7.1306 C   0  0  0  0  0  0  0  0  0  0  0  0
    0.7131   28.9882    6.9526 O   0  0  0  0  0  0  0  0  0  0  0  0
   -1.4657   29.6765    8.6704 C   0  0  0  0  0  0  0  0  0  0  0  0
   -1.0741   28.3671    8.2529 O   0  0  0  0  0  0  0  0  0  0  0  0
 27 28  1  0  0  0
 28 25  1  0  0  0
 25 26  2  0  0  0
 25 19  1  0  0  0
 19 20  2  0  0  0
 20 21  1  0  0  0
 21 22  2  0  0  0
 22 23  1  0  0  0
 23  1  1  0  0  0
  1  2  2  0  0  0
  1  3  1  0  0  0
  3  5  1  0  0  0
  5  6  1  0  0  0
  6  7  1  0  0  0
  7  8  2  0  0  0
  8  9  1  0  0  0
  9 10  2  0  0  0
 10 11  1  0  0  0
 11 12  2  0  0  0
 12 13  1  0  0  0
 13 14  1  0  0  0
 14 15  1  0  0  0
 15 16  1  0  0  0
 15 17  1  0  0  0
 15 18  1  0  0  0
 23 24  2  0  0  0
 24 19  1  0  0  0
 14  5  1  0  0  0
 12  7  1  0  0  0
  3  4  1  0  0  0
M  END
> <minimizedAffinity>
-9.14403

$$$$
OCNT-2312735


 26 29  0  0  0  0  0  0  0  0999 V2000
   -5.6681   27.4172    3.5194 C   0  0  0  0  0  0  0  0  0  0  0  0
   -4.3480   27.0055    4.1046 C   0  0  0  0  0  0  0  0  0  0  0  0
   -4.0311   27.3323    5.4359 C   0  0  0  0  0  0  0  0  0  0  0  0
   -2.8150   26.9555    6.0196 C   0  0  0  0  0  0  0  0  0  0  0  0
   -1.9028   26.2397    5.2258 C   0  0  0  0  0  0  0  0  0  0  0  0
   -2.1954   25.9100    3.9002 C   0  0  0  0  0  0  0  0  0  0  0  0
   -3.4068   26.3115    3.3376 C   0  0  0  0  0  0  0  0  0  0  0  0
   -2.4429   27.2758    7.3384 N   0  0  0  0  0  0  0  0  0  0  0  0
   -2.8030   26.6292    8.0234 H   0  0  0  0  0  0  0  0  0  0  0  0
   -1.6929   28.3296    7.8815 C   0  0  0  0  0  0  0  0  0  0  0  0
   -2.2999   29.4274    8.5132 C   0  0  0  0  0  0  0  0  0  0  0  0
   -3.6028   29.9067    8.8117 C   0  0  0  0  0  0  0  0  0  0  0  0
   -4.9154   29.2988    8.4938 C   0  0  0  0  0  0  0  0  0  0  0  0
   -3.5606   31.0735    9.4678 N   0  0  0  0  0  0  0  0  0  0  0  0
   -2.2158   31.3778    9.6016 O   0  0  0  0  0  0  0  0  0  0  0  0
   -1.4620   30.3973    9.0320 C   0  0  0  0  0  0  0  0  0  0  0  0
   -0.1229   30.4172    9.0068 N   0  0  0  0  0  0  0  0  0  0  0  0
    0.3611   29.3371    8.3908 C   0  0  0  0  0  0  0  0  0  0  0  0
   -0.3344   28.3231    7.8434 N   0  0  0  0  0  0  0  0  0  0  0  0
   -3.7272   25.9703    2.0433 O   0  0  0  0  0  0  0  0  0  0  0  0
   -4.4812   24.8370    1.8627 C   0  0  0  0  0  0  0  0  0  0  0  0
   -4.3164   23.6587    2.5881 C   0  0  0  0  0  0  0  0  0  0  0  0
   -5.1197   22.5593    2.2924 C   0  0  0  0  0  0  0  0  0  0  0  0
   -6.0509   22.6772    1.2719 C   0  0  0  0  0  0  0  0  0  0  0  0
   -6.2241   23.7981    0.5385 N   0  0  0  0  0  0  0  0  0  0  0  0
   -5.4267   24.8494    0.8461 C   0  0  0  0  0  0  0  0  0  0  0  0
  1  2  1  0  0  0
  2  3  1  0  0  0
  3  4  2  0  0  0
  4  8  1  0  0  0
  8 10  1  0  0  0
 10 11  2  0  0  0
 11 12  1  0  0  0
 12 13  1  0  0  0
 12 14  2  0  0  0
 14 15  1  0  0  0
 15 16  1  0  0  0
 16 17  2  0  0  0
 17 18  1  0  0  0
 18 19  2  0  0  0
  4  5  1  0  0  0
  5  6  2  0  0  0
  6  7  1  0  0  0
  7 20  1  0  0  0
 20 21  1  0  0  0
 21 22  1  0  0  0
 22 23  2  0  0  0
 23 24  1  0  0  0
 24 25  2  0  0  0
 25 26  1  0  0  0
  7  2  2  0  0  0
 26 21  2  0  0  0
 19 10  1  0  0  0
 16 11  1  0  0  0
  8  9  1  0  0  0
M  END
> <minimizedAffinity>
-9.64523

$$$$
OCNT-2312738


 23 24  0  0  0  0  0  0  0  0999 V2000
   -3.2730   26.7137    4.7452 C   0  0  0  0  0  0  0  0  0  0  0  0
   -4.6043   26.7644    4.3350 C   0  0  0  0  0  0  0  0  0  0  0  0
   -4.6227   26.2508    3.0599 N   0  0  0  0  0  0  0  0  0  0  0  0
   -3.4085   25.8739    2.6219 N   0  0  0  0  0  0  0  0  0  0  0  0
   -2.5996   26.1350    3.6465 C   0  0  0  0  0  0  0  0  0  0  0  0
   -2.8212   28.3977    6.4032 N   0  0  0  0  0  0  0  0  0  0  0  0
   -2.6377   27.0971    5.9995 C   0  0  0  0  0  0  0  0  0  0  0  0
   -1.9591   26.2964    6.6343 O   0  0  0  0  0  0  0  0  0  0  0  0
   -3.2657   29.0513    5.7699 H   0  0  0  0  0  0  0  0  0  0  0  0
   -1.0642   29.9651    7.2897 C   0  0  0  0  0  0  0  0  0  0  0  0
   -1.1233   30.9726    8.3247 O   0  0  0  0  0  0  0  0  0  0  0  0
   -2.2240   30.6683    9.1880 C   0  0  0  0  0  0  0  0  0  0  0  0
   -3.1616   29.8010    8.3844 C   0  0  0  0  0  0  0  0  0  0  0  0
   -2.1888   28.9501    7.5923 C   0  0  0  0  0  0  0  0  0  0  0  0
    1.1656   29.1133    8.2129 C   0  0  0  0  0  0  0  0  0  0  0  0
    0.3584   29.4881    7.2118 C   0  0  0  0  0  0  0  0  0  0  0  0
   -5.8192   27.1997    5.0535 C   0  0  0  0  0  0  0  0  0  0  0  0
   -6.6740   26.1484    5.2021 F   0  0  0  0  0  0  0  0  0  0  0  0
   -6.4968   28.1235    4.3231 F   0  0  0  0  0  0  0  0  0  0  0  0
   -5.7416   26.0806    2.1447 C   0  0  0  0  0  0  0  0  0  0  0  0
   -5.6076   24.8538    1.2266 C   0  0  0  0  0  0  0  0  0  0  0  0
   -6.2414   25.1544   -0.1332 C   0  0  0  0  0  0  0  0  0  0  0  0
   -6.2500   23.6042    1.8312 C   0  0  0  0  0  0  0  0  0  0  0  0
 15 16  2  0  0  0
 16 10  1  0  0  0
 10 11  1  0  0  0
 11 12  1  0  0  0
 12 13  1  0  0  0
 13 14  1  0  0  0
 14  6  1  0  0  0
  6  7  1  0  0  0
  7  8  2  0  0  0
  7  1  1  0  0  0
  1  2  2  0  0  0
  2 17  1  0  0  0
 17 18  1  0  0  0
 17 19  1  0  0  0
  2  3  1  0  0  0
  3 20  1  0  0  0
 20 21  1  0  0  0
 21 22  1  0  0  0
 21 23  1  0  0  0
  3  4  1  0  0  0
  4  5  2  0  0  0
 14 10  1  0  0  0
  5  1  1  0  0  0
  6  9  1  0  0  0
M  END
> <minimizedAffinity>
-7.91761

$$$$
OCNT-2312743


 28 30  0  0  0  0  0  0  0  0999 V2000
   -5.0500   25.7753    5.2721 N   0  0  0  0  0  0  0  0  0  0  0  0
   -3.8376   26.4133    5.4053 C   0  0  0  0  0  0  0  0  0  0  0  0
   -2.7872   26.1292    4.8484 O   0  0  0  0  0  0  0  0  0  0  0  0
   -3.9363   27.4458    6.3177 N   0  0  0  0  0  0  0  0  0  0  0  0
   -5.6673   25.8621    6.0650 H   0  0  0  0  0  0  0  0  0  0  0  0
   -4.8382   27.9030    6.3371 H   0  0  0  0  0  0  0  0  0  0  0  0
   -2.8223   28.3658    6.5021 C   0  0  0  0  0  0  0  0  0  0  0  0
   -3.2531   29.6466    7.1690 C   0  0  0  0  0  0  0  0  0  0  0  0
   -4.3230   30.4679    6.8396 C   0  0  0  0  0  0  0  0  0  0  0  0
   -4.5236   31.6340    7.5810 C   0  0  0  0  0  0  0  0  0  0  0  0
   -3.6520   31.9736    8.6260 C   0  0  0  0  0  0  0  0  0  0  0  0
   -2.5652   31.1553    8.9392 C   0  0  0  0  0  0  0  0  0  0  0  0
   -2.3796   29.9945    8.2050 C   0  0  0  0  0  0  0  0  0  0  0  0
   -1.2577   29.0085    8.3319 C   0  0  0  0  0  0  0  0  0  0  0  0
   -1.7830   27.8117    7.5212 C   0  0  0  0  0  0  0  0  0  0  0  0
   -2.3866   26.8591    8.4172 O   0  0  0  0  0  0  0  0  0  0  0  0
   -2.7544   26.1638    7.8428 H   0  0  0  0  0  0  0  0  0  0  0  0
   -5.7835   23.5154    2.6202 N   0  0  0  0  0  0  0  0  0  0  0  0
   -5.9332   22.6722    3.6561 N   0  0  0  0  0  0  0  0  0  0  0  0
   -5.6771   23.4254    4.7282 C   0  0  0  0  0  0  0  0  0  0  0  0
   -5.7217   22.8184    6.0814 C   0  0  0  0  0  0  0  0  0  0  0  0
   -5.3662   24.7688    4.3721 C   0  0  0  0  0  0  0  0  0  0  0  0
   -5.5123   24.8105    2.9972 C   0  0  0  0  0  0  0  0  0  0  0  0
   -5.4438   25.9264    2.0163 C   0  0  0  0  0  0  0  0  0  0  0  0
   -5.9411   22.9902    1.2774 C   0  0  0  0  0  0  0  0  0  0  0  0
   -7.3512   22.4664    1.0371 C   0  0  0  0  0  0  0  0  0  0  0  0
   -7.4629   24.2143   -0.5738 C   0  0  0  0  0  0  0  0  0  0  0  0
   -7.8599   22.8928   -0.2313 O   0  0  0  0  0  0  0  0  0  0  0  0
 27 28  1  0  0  0
 28 26  1  0  0  0
 26 25  1  0  0  0
 25 18  1  0  0  0
 18 19  1  0  0  0
 19 20  2  0  0  0
 20 21  1  0  0  0
 20 22  1  0  0  0
 22  1  1  0  0  0
  1  2  1  0  0  0
  2  3  2  0  0  0
  2  4  1  0  0  0
  4  7  1  0  0  0
  7  8  1  0  0  0
  8  9  2  0  0  0
  9 10  1  0  0  0
 10 11  2  0  0  0
 11 12  1  0  0  0
 12 13  2  0  0  0
 13 14  1  0  0  0
 14 15  1  0  0  0
 15 16  1  0  0  0
 22 23  2  0  0  0
 23 24  1  0  0  0
 23 18  1  0  0  0
 15  7  1  0  0  0
 13  8  1  0  0  0
  1  5  1  0  0  0
  4  6  1  0  0  0
 16 17  1  0  0  0
M  END
> <minimizedAffinity>
-8.79967

$$$$
OCNT-2312773


 25 28  0  0  0  0  0  0  0  0999 V2000
   -6.2477   26.8784    4.9609 C   0  0  0  0  0  0  0  0  0  0  0  0
   -5.7977   26.0488    3.7638 C   0  0  0  0  0  0  0  0  0  0  0  0
   -5.4273   26.5632    2.7067 O   0  0  0  0  0  0  0  0  0  0  0  0
   -5.7760   24.6602    3.9334 N   0  0  0  0  0  0  0  0  0  0  0  0
   -6.3933   23.9623    5.0703 C   0  0  0  0  0  0  0  0  0  0  0  0
   -5.7537   22.5943    5.3261 C   0  0  0  0  0  0  0  0  0  0  0  0
   -5.7028   21.8062    4.1319 O   0  0  0  0  0  0  0  0  0  0  0  0
   -4.9168   22.4746    3.1340 C   0  0  0  0  0  0  0  0  0  0  0  0
   -5.5442   23.8233    2.7302 C   0  0  0  0  0  0  0  0  0  0  0  0
   -6.8615   23.6442    1.9383 C   0  0  0  0  0  0  0  0  0  0  0  0
   -6.6388   23.4891    0.4586 C   0  0  0  0  0  0  0  0  0  0  0  0
   -7.3757   24.3685   -0.5176 C   0  0  0  0  0  0  0  0  0  0  0  0
   -7.7282   22.9110   -0.4079 C   0  0  0  0  0  0  0  0  0  0  0  0
   -6.2903   29.7815    6.4956 C   0  0  0  0  0  0  0  0  0  0  0  0
   -5.1546   28.8592    6.2706 C   0  0  0  0  0  0  0  0  0  0  0  0
   -5.1466   27.6384    5.6124 C   0  0  0  0  0  0  0  0  0  0  0  0
   -3.8685   27.1733    5.5347 N   0  0  0  0  0  0  0  0  0  0  0  0
   -3.0779   28.0431    6.1363 N   0  0  0  0  0  0  0  0  0  0  0  0
   -3.8327   29.0434    6.6697 N   0  0  0  0  0  0  0  0  0  0  0  0
   -3.2049   30.0448    7.4698 C   0  0  0  0  0  0  0  0  0  0  0  0
   -3.3036   30.0700    8.8655 C   0  0  0  0  0  0  0  0  0  0  0  0
   -2.6672   31.0757    9.6032 C   0  0  0  0  0  0  0  0  0  0  0  0
   -1.9217   32.0594    8.9587 C   0  0  0  0  0  0  0  0  0  0  0  0
   -1.8009   32.0368    7.5733 C   0  0  0  0  0  0  0  0  0  0  0  0
   -2.4330   31.0346    6.8327 C   0  0  0  0  0  0  0  0  0  0  0  0
 14 15  1  0  0  0
 15 16  2  0  0  0
 16  1  1  0  0  0
  1  2  1  0  0  0
  2  3  2  0  0  0
  2  4  1  0  0  0
  4  5  1  0  0  0
  5  6  1  0  0  0
  6  7  1  0  0  0
  7  8  1  0  0  0
  8  9  1  0  0  0
  9 10  1  0  0  0
 10 11  1  0  0  0
 11 12  1  0  0  0
 12 13  1  0  0  0
 16 17  1  0  0  0
 17 18  2  0  0  0
 18 19  1  0  0  0
 19 20  1  0  0  0
 20 21  2  0  0  0
 21 22  1  0  0  0
 22 23  2  0  0  0
 23 24  1  0  0  0
 24 25  2  0  0  0
 19 15  1  0  0  0
 25 20  1  0  0  0
  9  4  1  0  0  0
 13 11  1  0  0  0
M  END
> <minimizedAffinity>
-9.23026

$$$$
OCNT-2312798


 24 26  0  0  0  0  0  0  0  0999 V2000
   -3.5466   26.3795    2.9907 C   0  0  0  0  0  0  0  0  0  0  0  0
   -4.6057   26.5681    4.0904 C   0  0  0  0  0  0  0  0  0  0  0  0
   -5.6580   27.5921    3.5920 C   0  0  0  0  0  0  0  0  0  0  0  0
   -6.1225   28.2886    4.8612 C   0  0  0  0  0  0  0  0  0  0  0  0
   -4.8304   28.4334    5.6445 C   0  0  0  0  0  0  0  0  0  0  0  0
   -4.0385   27.2652    5.2802 N   0  0  0  0  0  0  0  0  0  0  0  0
   -2.9397   26.7965    5.9880 C   0  0  0  0  0  0  0  0  0  0  0  0
   -2.3713   25.7461    5.6930 O   0  0  0  0  0  0  0  0  0  0  0  0
   -5.2419   25.2137    4.5314 C   0  0  0  0  0  0  0  0  0  0  0  0
   -5.4326   24.1636    3.4581 C   0  0  0  0  0  0  0  0  0  0  0  0
   -4.8841   22.8806    3.6139 C   0  0  0  0  0  0  0  0  0  0  0  0
   -5.0618   21.9099    2.6271 C   0  0  0  0  0  0  0  0  0  0  0  0
   -5.7939   22.2175    1.4878 C   0  0  0  0  0  0  0  0  0  0  0  0
   -5.9644   21.2859    0.5405 F   0  0  0  0  0  0  0  0  0  0  0  0
   -6.3562   23.4764    1.3181 C   0  0  0  0  0  0  0  0  0  0  0  0
   -6.1797   24.4484    2.3040 C   0  0  0  0  0  0  0  0  0  0  0  0
   -2.4585   27.6761    7.1568 C   0  0  0  0  0  0  0  0  0  0  0  0
   -1.4468   28.6235    6.8487 O   0  0  0  0  0  0  0  0  0  0  0  0
   -1.4798   29.8244    7.4947 C   0  0  0  0  0  0  0  0  0  0  0  0
   -0.8634   30.1396    8.7020 C   0  0  0  0  0  0  0  0  0  0  0  0
   -1.0001   31.4245    9.2297 C   0  0  0  0  0  0  0  0  0  0  0  0
   -1.7516   32.3541    8.5291 C   0  0  0  0  0  0  0  0  0  0  0  0
   -2.3663   32.0874    7.3595 N   0  0  0  0  0  0  0  0  0  0  0  0
   -2.2221   30.8278    6.8791 C   0  0  0  0  0  0  0  0  0  0  0  0
  1  2  1  0  0  0
  2  9  1  0  0  0
  9 10  1  0  0  0
 10 11  1  0  0  0
 11 12  2  0  0  0
 12 13  1  0  0  0
 13 14  1  0  0  0
 13 15  2  0  0  0
 15 16  1  0  0  0
  2  3  1  0  0  0
  3  4  1  0  0  0
  4  5  1  0  0  0
  5  6  1  0  0  0
  6  7  1  0  0  0
  7  8  2  0  0  0
  7 17  1  0  0  0
 17 18  1  0  0  0
 18 19  1  0  0  0
 19 20  1  0  0  0
 20 21  2  0  0  0
 21 22  1  0  0  0
 22 23  2  0  0  0
 23 24  1  0  0  0
  6  2  1  0  0  0
 24 19  2  0  0  0
 16 10  2  0  0  0
M  END
> <minimizedAffinity>
-8.72688

$$$$
OCNT-2312800


 25 27  0  0  0  0  0  0  0  0999 V2000
   -3.0634   26.3819    3.8927 C   0  0  0  0  0  0  0  0  0  0  0  0
   -1.5870   25.9653    3.8229 C   0  0  0  0  0  0  0  0  0  0  0  0
   -0.8513   26.1466    5.1551 C   0  0  0  0  0  0  0  0  0  0  0  0
   -1.3233   27.3500    5.8388 N   0  0  0  0  0  0  0  0  0  0  0  0
   -2.7358   27.2317    6.2408 C   0  0  0  0  0  0  0  0  0  0  0  0
   -3.5689   26.3198    5.3322 C   0  0  0  0  0  0  0  0  0  0  0  0
   -5.0968   25.9805    2.5143 C   0  0  0  0  0  0  0  0  0  0  0  0
   -5.5149   27.1181    2.7171 O   0  0  0  0  0  0  0  0  0  0  0  0
   -3.8772   25.5581    3.0081 N   0  0  0  0  0  0  0  0  0  0  0  0
   -3.6620   24.5739    2.9137 H   0  0  0  0  0  0  0  0  0  0  0  0
   -7.0444   23.0399    1.2482 C   0  0  0  0  0  0  0  0  0  0  0  0
   -7.0537   23.6870    0.0324 C   0  0  0  0  0  0  0  0  0  0  0  0
   -6.2301   25.1874    0.0965 S   0  0  0  0  0  0  0  0  0  0  0  0
   -5.8511   24.9892    1.7568 C   0  0  0  0  0  0  0  0  0  0  0  0
   -6.3510   23.7922    2.2365 C   0  0  0  0  0  0  0  0  0  0  0  0
   -7.4885   21.4223    2.8981 C   0  0  0  0  0  0  0  0  0  0  0  0
   -7.6014   21.8375    1.5435 O   0  0  0  0  0  0  0  0  0  0  0  0
   -0.4469   27.7037    6.9705 C   0  0  0  0  0  0  0  0  0  0  0  0
    0.2094   29.0873    6.8224 C   0  0  0  0  0  0  0  0  0  0  0  0
   -0.6162   30.1661    7.4834 C   0  0  0  0  0  0  0  0  0  0  0  0
   -1.5390   30.9111    6.7371 C   0  0  0  0  0  0  0  0  0  0  0  0
   -2.2874   31.9209    7.3436 C   0  0  0  0  0  0  0  0  0  0  0  0
   -2.1176   32.1977    8.6990 C   0  0  0  0  0  0  0  0  0  0  0  0
   -1.1987   31.4659    9.4490 C   0  0  0  0  0  0  0  0  0  0  0  0
   -0.4493   30.4555    8.8444 C   0  0  0  0  0  0  0  0  0  0  0  0
 16 17  1  0  0  0
 17 11  1  0  0  0
 11 12  2  0  0  0
 12 13  1  0  0  0
 13 14  1  0  0  0
 14  7  1  0  0  0
  7  8  2  0  0  0
  7  9  1  0  0  0
  9  1  1  0  0  0
  1  2  1  0  0  0
  2  3  1  0  0  0
  3  4  1  0  0  0
  4 18  1  0  0  0
 18 19  1  0  0  0
 19 20  1  0  0  0
 20 21  2  0  0  0
 21 22  1  0  0  0
 22 23  2  0  0  0
 23 24  1  0  0  0
 24 25  2  0  0  0
  4  5  1  0  0  0
  5  6  1  0  0  0
 14 15  2  0  0  0
 15 11  1  0  0  0
  6  1  1  0  0  0
 25 20  1  0  0  0
  9 10  1  0  0  0
M  END
> <minimizedAffinity>
-8.91535

$$$$
OCNT-2312825


 23 26  0  0  0  0  0  0  0  0999 V2000
   -5.3382   28.0218    5.3433 O   0  0  0  0  0  0  0  0  0  0  0  0
   -4.2914   27.4880    4.9896 C   0  0  0  0  0  0  0  0  0  0  0  0
   -4.1133   26.8792    3.7689 N   0  0  0  0  0  0  0  0  0  0  0  0
   -3.2383   26.3730    3.6668 H   0  0  0  0  0  0  0  0  0  0  0  0
   -3.0941   27.4263    5.8430 C   0  0  0  0  0  0  0  0  0  0  0  0
   -2.2954   26.3351    5.8772 N   0  0  0  0  0  0  0  0  0  0  0  0
   -1.3399   26.6623    6.7669 N   0  0  0  0  0  0  0  0  0  0  0  0
   -1.4890   27.9106    7.2873 C   0  0  0  0  0  0  0  0  0  0  0  0
   -2.6201   28.4371    6.7204 C   0  0  0  0  0  0  0  0  0  0  0  0
   -0.6126   25.9855    6.9715 H   0  0  0  0  0  0  0  0  0  0  0  0
   -0.5786   28.5813    8.3369 C   0  0  0  0  0  0  0  0  0  0  0  0
   -0.4659   30.0822    8.3512 C   0  0  0  0  0  0  0  0  0  0  0  0
    0.6909   29.2499    7.8811 C   0  0  0  0  0  0  0  0  0  0  0  0
   -5.1939   26.6486    2.8511 C   0  0  0  0  0  0  0  0  0  0  0  0
   -5.2928   25.1765    2.5973 C   0  0  0  0  0  0  0  0  0  0  0  0
   -4.7829   24.2195    3.4545 C   0  0  0  0  0  0  0  0  0  0  0  0
   -5.0461   22.6307    2.9092 S   0  0  0  0  0  0  0  0  0  0  0  0
   -5.8518   23.1734    1.4899 C   0  0  0  0  0  0  0  0  0  0  0  0
   -6.3966   22.3666    0.4706 C   0  0  0  0  0  0  0  0  0  0  0  0
   -7.0171   22.9773   -0.6203 C   0  0  0  0  0  0  0  0  0  0  0  0
   -7.0957   24.3592   -0.7002 C   0  0  0  0  0  0  0  0  0  0  0  0
   -6.5543   25.1560    0.3136 C   0  0  0  0  0  0  0  0  0  0  0  0
   -5.9182   24.5694    1.4389 C   0  0  0  0  0  0  0  0  0  0  0  0
  1  2  2  0  0  0
  2  3  1  0  0  0
  3 14  1  0  0  0
 14 15  1  0  0  0
 15 16  2  0  0  0
 16 17  1  0  0  0
 17 18  1  0  0  0
 18 19  2  0  0  0
 19 20  1  0  0  0
 20 21  2  0  0  0
 21 22  1  0  0  0
 22 23  2  0  0  0
  2  5  1  0  0  0
  5  6  2  0  0  0
  6  7  1  0  0  0
  7  8  1  0  0  0
  8 11  1  0  0  0
 11 12  1  0  0  0
 12 13  1  0  0  0
  8  9  2  0  0  0
 23 15  1  0  0  0
  9  5  1  0  0  0
 23 18  1  0  0  0
 13 11  1  0  0  0
  3  4  1  0  0  0
  7 10  1  0  0  0
M  END
> <minimizedAffinity>
-8.88120

$$$$
OCNT-2312831


 24 26  0  0  0  0  0  0  0  0999 V2000
   -4.7620   27.4834    5.2289 C   0  0  0  0  0  0  0  0  0  0  0  0
   -3.5939   26.7575    4.9726 C   0  0  0  0  0  0  0  0  0  0  0  0
   -3.4278   26.0711    3.7660 C   0  0  0  0  0  0  0  0  0  0  0  0
   -4.4240   26.1087    2.7831 C   0  0  0  0  0  0  0  0  0  0  0  0
   -5.5971   26.8269    3.0477 C   0  0  0  0  0  0  0  0  0  0  0  0
   -5.7634   27.5090    4.2591 C   0  0  0  0  0  0  0  0  0  0  0  0
   -4.8573   29.5065    6.7217 C   0  0  0  0  0  0  0  0  0  0  0  0
   -4.7938   30.3922    5.8717 O   0  0  0  0  0  0  0  0  0  0  0  0
   -4.8478   28.1401    6.4712 N   0  0  0  0  0  0  0  0  0  0  0  0
   -4.8448   27.5379    7.2969 H   0  0  0  0  0  0  0  0  0  0  0  0
   -6.1971   30.7796    8.4690 C   0  0  0  0  0  0  0  0  0  0  0  0
   -5.0226   29.8372    8.2079 C   0  0  0  0  0  0  0  0  0  0  0  0
   -3.7590   30.3225    8.7524 N   0  0  0  0  0  0  0  0  0  0  0  0
   -3.5199   31.4625    9.4656 C   0  0  0  0  0  0  0  0  0  0  0  0
   -2.1634   31.5001    9.6874 C   0  0  0  0  0  0  0  0  0  0  0  0
   -1.6636   30.3505    9.0525 C   0  0  0  0  0  0  0  0  0  0  0  0
   -2.6265   29.6371    8.4615 N   0  0  0  0  0  0  0  0  0  0  0  0
   -4.2649   25.3574    1.4792 C   0  0  0  0  0  0  0  0  0  0  0  0
   -5.5308   24.7114    0.9648 C   0  0  0  0  0  0  0  0  0  0  0  0
   -6.0686   23.5812    1.5895 C   0  0  0  0  0  0  0  0  0  0  0  0
   -7.2288   23.0232    1.0752 C   0  0  0  0  0  0  0  0  0  0  0  0
   -7.8784   23.5037   -0.0062 N   0  0  0  0  0  0  0  0  0  0  0  0
   -7.3407   24.5894   -0.6000 C   0  0  0  0  0  0  0  0  0  0  0  0
   -6.1852   25.2188   -0.1611 C   0  0  0  0  0  0  0  0  0  0  0  0
 11 12  1  0  0  0
 12  7  1  0  0  0
  7  8  2  0  0  0
  7  9  1  0  0  0
  9  1  1  0  0  0
  1  2  1  0  0  0
  2  3  2  0  0  0
  3  4  1  0  0  0
  4 18  1  0  0  0
 18 19  1  0  0  0
 19 20  2  0  0  0
 20 21  1  0  0  0
 21 22  2  0  0  0
 22 23  1  0  0  0
 23 24  2  0  0  0
  4  5  2  0  0  0
  5  6  1  0  0  0
 12 13  1  0  0  0
 13 14  1  0  0  0
 14 15  2  0  0  0
 15 16  1  0  0  0
 16 17  2  0  0  0
  6  1  2  0  0  0
 17 13  1  0  0  0
 24 19  1  0  0  0
  9 10  1  0  0  0
M  END
> <minimizedAffinity>
-8.86512

$$$$
OCNT-2312832


 24 27  0  0  0  0  0  0  0  0999 V2000
   -3.3342   28.9907    6.9239 C   0  0  0  0  0  0  0  0  0  0  0  0
   -2.7854   27.8323    6.6115 N   0  0  0  0  0  0  0  0  0  0  0  0
   -3.6737   27.2623    5.7190 C   0  0  0  0  0  0  0  0  0  0  0  0
   -4.7499   28.1053    5.5593 C   0  0  0  0  0  0  0  0  0  0  0  0
   -4.5450   29.2140    6.3207 O   0  0  0  0  0  0  0  0  0  0  0  0
   -4.1140   33.4264    9.5255 Cl  0  0  0  0  0  0  0  0  0  0  0  0
   -3.1221   32.0995    9.0573 C   0  0  0  0  0  0  0  0  0  0  0  0
   -1.8164   32.0134    9.5360 C   0  0  0  0  0  0  0  0  0  0  0  0
   -1.0132   30.9398    9.1577 C   0  0  0  0  0  0  0  0  0  0  0  0
   -1.5216   29.9584    8.3030 C   0  0  0  0  0  0  0  0  0  0  0  0
   -2.8366   30.0352    7.8150 C   0  0  0  0  0  0  0  0  0  0  0  0
   -3.6338   31.1217    8.2032 C   0  0  0  0  0  0  0  0  0  0  0  0
   -3.4239   25.9183    5.1171 C   0  0  0  0  0  0  0  0  0  0  0  0
   -4.2609   25.7172    3.9253 N   0  0  0  0  0  0  0  0  0  0  0  0
   -5.0893   24.5042    3.9743 C   0  0  0  0  0  0  0  0  0  0  0  0
   -4.5987   23.3949    3.0441 C   0  0  0  0  0  0  0  0  0  0  0  0
   -4.5497   23.8657    1.5826 C   0  0  0  0  0  0  0  0  0  0  0  0
   -4.2462   25.3675    1.4760 C   0  0  0  0  0  0  0  0  0  0  0  0
   -3.4732   25.8568    2.6967 C   0  0  0  0  0  0  0  0  0  0  0  0
   -5.8117   23.5420    0.8519 C   0  0  0  0  0  0  0  0  0  0  0  0
   -6.3697   22.3691    0.6241 N   0  0  0  0  0  0  0  0  0  0  0  0
   -7.5083   22.6786   -0.0743 C   0  0  0  0  0  0  0  0  0  0  0  0
   -7.5947   24.0363   -0.2472 C   0  0  0  0  0  0  0  0  0  0  0  0
   -6.5085   24.6063    0.3430 O   0  0  0  0  0  0  0  0  0  0  0  0
  6  7  1  0  0  0
  7  8  1  0  0  0
  8  9  2  0  0  0
  9 10  1  0  0  0
 10 11  2  0  0  0
 11  1  1  0  0  0
  1  2  2  0  0  0
  2  3  1  0  0  0
  3 13  1  0  0  0
 13 14  1  0  0  0
 14 15  1  0  0  0
 15 16  1  0  0  0
 16 17  1  0  0  0
 17 20  1  0  0  0
 20 21  2  0  0  0
 21 22  1  0  0  0
 22 23  2  0  0  0
 23 24  1  0  0  0
 17 18  1  0  0  0
 18 19  1  0  0  0
  3  4  2  0  0  0
  4  5  1  0  0  0
 11 12  1  0  0  0
 12  7  2  0  0  0
  5  1  1  0  0  0
 19 14  1  0  0  0
 24 20  1  0  0  0
M  END
> <minimizedAffinity>
-8.97479

$$$$
OCNT-2312836


 21 23  0  0  0  0  0  0  0  0999 V2000
   -4.2938   29.0165    6.6259 N   0  0  0  0  0  0  0  0  0  0  0  0
   -4.9596   30.1652    5.9791 C   0  0  0  0  0  0  0  0  0  0  0  0
   -5.7683   29.7475    4.7466 C   0  0  0  0  0  0  0  0  0  0  0  0
   -6.4942   28.4240    4.9680 C   0  0  0  0  0  0  0  0  0  0  0  0
   -5.5258   27.2918    5.3790 C   0  0  0  0  0  0  0  0  0  0  0  0
   -4.1301   27.8320    5.7671 C   0  0  0  0  0  0  0  0  0  0  0  0
    0.4969   29.3495    6.3961 C   0  0  0  0  0  0  0  0  0  0  0  0
   -0.7599   29.5813    7.1799 C   0  0  0  0  0  0  0  0  0  0  0  0
   -0.7008   30.1497    8.4430 C   0  0  0  0  0  0  0  0  0  0  0  0
   -1.8891   30.3381    9.1375 C   0  0  0  0  0  0  0  0  0  0  0  0
   -3.1030   29.9597    8.5523 C   0  0  0  0  0  0  0  0  0  0  0  0
   -3.0958   29.4011    7.2670 C   0  0  0  0  0  0  0  0  0  0  0  0
   -1.9279   29.2130    6.6008 N   0  0  0  0  0  0  0  0  0  0  0  0
   -4.3093   30.1241    9.3046 C   0  0  0  0  0  0  0  0  0  0  0  0
   -5.3158   30.2585    9.8689 N   0  0  0  0  0  0  0  0  0  0  0  0
   -5.4188   26.2030    4.3248 C   0  0  0  0  0  0  0  0  0  0  0  0
   -5.6211   26.5113    2.9753 C   0  0  0  0  0  0  0  0  0  0  0  0
   -5.5245   25.4972    2.0338 C   0  0  0  0  0  0  0  0  0  0  0  0
   -5.2456   24.2126    2.3378 N   0  0  0  0  0  0  0  0  0  0  0  0
   -5.0549   23.9312    3.6433 C   0  0  0  0  0  0  0  0  0  0  0  0
   -5.1301   24.8748    4.6574 C   0  0  0  0  0  0  0  0  0  0  0  0
  7  8  1  0  0  0
  8  9  2  0  0  0
  9 10  1  0  0  0
 10 11  2  0  0  0
 11 14  1  0  0  0
 14 15  3  0  0  0
 11 12  1  0  0  0
 12  1  1  0  0  0
  1  2  1  0  0  0
  2  3  1  0  0  0
  3  4  1  0  0  0
  4  5  1  0  0  0
  5 16  1  0  0  0
 16 17  2  0  0  0
 17 18  1  0  0  0
 18 19  2  0  0  0
 19 20  1  0  0  0
 20 21  2  0  0  0
  5  6  1  0  0  0
 12 13  2  0  0  0
 13  8  1  0  0  0
  6  1  1  0  0  0
 21 16  1  0  0  0
M  END
> <minimizedAffinity>
-8.05054

$$$$
OCNT-2312847


 21 24  0  0  0  0  0  0  0  0999 V2000
   -4.0860   23.5563    3.0174 O   0  0  0  0  0  0  0  0  0  0  0  0
   -5.2483   23.7388    3.8598 S   0  0  0  0  0  0  0  0  0  0  0  0
   -5.2700   23.2412    5.2191 O   0  0  0  0  0  0  0  0  0  0  0  0
   -5.5992   25.4790    3.9564 C   0  0  0  0  0  0  0  0  0  0  0  0
   -5.4832   26.2570    2.7849 C   0  0  0  0  0  0  0  0  0  0  0  0
   -5.7509   27.6274    2.8278 C   0  0  0  0  0  0  0  0  0  0  0  0
   -6.1288   28.1673    4.0400 C   0  0  0  0  0  0  0  0  0  0  0  0
   -6.4259   29.4749    4.2661 O   0  0  0  0  0  0  0  0  0  0  0  0
   -6.7563   29.4416    5.6703 C   0  0  0  0  0  0  0  0  0  0  0  0
   -6.6295   28.1299    6.2579 O   0  0  0  0  0  0  0  0  0  0  0  0
   -6.2454   27.3990    5.1774 C   0  0  0  0  0  0  0  0  0  0  0  0
   -5.9903   26.0453    5.1740 C   0  0  0  0  0  0  0  0  0  0  0  0
   -6.6018   23.1428    3.0363 N   0  0  0  0  0  0  0  0  0  0  0  0
   -6.4704   22.8356    1.5990 C   0  0  0  0  0  0  0  0  0  0  0  0
   -7.5122   23.4977    0.7448 C   0  0  0  0  0  0  0  0  0  0  0  0
   -7.8136   22.9332   -0.6226 C   0  0  0  0  0  0  0  0  0  0  0  0
   -7.1399   24.2692   -0.4990 C   0  0  0  0  0  0  0  0  0  0  0  0
   -7.4944   22.2555    3.8030 C   0  0  0  0  0  0  0  0  0  0  0  0
   -8.6558   23.0558    4.3129 C   0  0  0  0  0  0  0  0  0  0  0  0
   -9.6804   22.4338    5.2288 C   0  0  0  0  0  0  0  0  0  0  0  0
   -8.7282   23.4686    5.7617 C   0  0  0  0  0  0  0  0  0  0  0  0
  1  2  2  0  0  0
  2  3  2  0  0  0
  2  4  1  0  0  0
  4  5  1  0  0  0
  5  6  2  0  0  0
  6  7  1  0  0  0
  7  8  1  0  0  0
  8  9  1  0  0  0
  9 10  1  0  0  0
 10 11  1  0  0  0
 11 12  1  0  0  0
  2 13  1  0  0  0
 13 14  1  0  0  0
 14 15  1  0  0  0
 15 16  1  0  0  0
 16 17  1  0  0  0
 13 18  1  0  0  0
 18 19  1  0  0  0
 19 20  1  0  0  0
 20 21  1  0  0  0
 12  4  2  0  0  0
 17 15  1  0  0  0
 21 19  1  0  0  0
 11  7  2  0  0  0
M  END
> <minimizedAffinity>
-7.37300

$$$$
OCNT-2312850


 25 26  0  0  0  0  0  0  0  0999 V2000
   -4.7262   31.0472    6.8785 N   0  0  0  0  0  0  0  0  0  0  0  0
   -5.7438   30.7140    7.7369 C   0  0  0  0  0  0  0  0  0  0  0  0
   -5.8236   31.1361    8.8869 O   0  0  0  0  0  0  0  0  0  0  0  0
   -4.7358   30.6905    5.9323 H   0  0  0  0  0  0  0  0  0  0  0  0
   -3.7310   32.0371    7.2091 C   0  0  0  0  0  0  0  0  0  0  0  0
   -2.4856   31.9099   10.0305 C   0  0  0  0  0  0  0  0  0  0  0  0
   -1.9656   31.2749    8.8390 N   0  0  0  0  0  0  0  0  0  0  0  0
   -0.8354   30.5472    8.9283 N   0  0  0  0  0  0  0  0  0  0  0  0
   -0.6117   30.0998    7.6778 C   0  0  0  0  0  0  0  0  0  0  0  0
   -1.6299   30.5545    6.7990 C   0  0  0  0  0  0  0  0  0  0  0  0
   -2.4890   31.3106    7.5712 C   0  0  0  0  0  0  0  0  0  0  0  0
    0.5704   29.2386    7.3208 C   0  0  0  0  0  0  0  0  0  0  0  0
    1.1142   29.5622    6.1174 F   0  0  0  0  0  0  0  0  0  0  0  0
    1.5668   29.3113    8.2433 F   0  0  0  0  0  0  0  0  0  0  0  0
    0.2228   27.9220    7.2392 F   0  0  0  0  0  0  0  0  0  0  0  0
   -6.7555   29.7585    7.1401 C   0  0  0  0  0  0  0  0  0  0  0  0
   -6.8240   29.8670    5.6166 C   0  0  0  0  0  0  0  0  0  0  0  0
   -6.4026   28.5949    4.9148 C   0  0  0  0  0  0  0  0  0  0  0  0
   -6.4559   27.3811    5.6207 C   0  0  0  0  0  0  0  0  0  0  0  0
   -6.1176   26.1746    4.9985 C   0  0  0  0  0  0  0  0  0  0  0  0
   -5.7239   26.1626    3.6628 C   0  0  0  0  0  0  0  0  0  0  0  0
   -5.6583   27.3575    2.9524 C   0  0  0  0  0  0  0  0  0  0  0  0
   -5.9776   28.5617    3.5804 C   0  0  0  0  0  0  0  0  0  0  0  0
   -5.8433   29.6861    2.8137 O   0  0  0  0  0  0  0  0  0  0  0  0
   -5.5874   30.4378    3.3889 H   0  0  0  0  0  0  0  0  0  0  0  0
  6  7  1  0  0  0
  7  8  1  0  0  0
  8  9  2  0  0  0
  9 12  1  0  0  0
 12 13  1  0  0  0
 12 14  1  0  0  0
 12 15  1  0  0  0
  9 10  1  0  0  0
 10 11  2  0  0  0
 11  5  1  0  0  0
  5  1  1  0  0  0
  1  2  1  0  0  0
  2  3  2  0  0  0
  2 16  1  0  0  0
 16 17  1  0  0  0
 17 18  1  0  0  0
 18 19  2  0  0  0
 19 20  1  0  0  0
 20 21  2  0  0  0
 21 22  1  0  0  0
 22 23  2  0  0  0
 23 24  1  0  0  0
 11  7  1  0  0  0
 23 18  1  0  0  0
  1  4  1  0  0  0
 24 25  1  0  0  0
M  END
> <minimizedAffinity>
-9.29002

$$$$
OCNT-2312851


 26 29  0  0  0  0  0  0  0  0999 V2000
   -4.8636   30.5458    7.4292 N   0  0  0  0  0  0  0  0  0  0  0  0
   -6.3822   29.8101    7.2897 S   0  0  0  0  0  0  0  0  0  0  0  0
   -6.5420   28.8487    8.3598 O   0  0  0  0  0  0  0  0  0  0  0  0
   -7.3655   30.8458    7.0492 O   0  0  0  0  0  0  0  0  0  0  0  0
   -6.1951   28.8732    5.7866 C   0  0  0  0  0  0  0  0  0  0  0  0
   -6.1812   29.5517    4.5653 C   0  0  0  0  0  0  0  0  0  0  0  0
   -6.0538   28.8253    3.3823 C   0  0  0  0  0  0  0  0  0  0  0  0
   -5.9277   27.4350    3.4225 C   0  0  0  0  0  0  0  0  0  0  0  0
   -5.8193   26.8090    2.2089 O   0  0  0  0  0  0  0  0  0  0  0  0
   -5.3471   25.4600    2.2738 C   0  0  0  0  0  0  0  0  0  0  0  0
   -6.0880   24.6503    3.3242 C   0  0  0  0  0  0  0  0  0  0  0  0
   -5.8174   25.2555    4.6934 C   0  0  0  0  0  0  0  0  0  0  0  0
   -5.9497   26.7512    4.6456 C   0  0  0  0  0  0  0  0  0  0  0  0
   -6.0668   27.4814    5.8361 C   0  0  0  0  0  0  0  0  0  0  0  0
   -3.6934   29.8372    6.8227 C   0  0  0  0  0  0  0  0  0  0  0  0
   -0.7326   26.6267    5.8866 C   0  0  0  0  0  0  0  0  0  0  0  0
   -1.3922   27.8661    6.2880 N   0  0  0  0  0  0  0  0  0  0  0  0
   -0.4477   28.8207    6.9044 C   0  0  0  0  0  0  0  0  0  0  0  0
   -0.7289   29.1074    8.3881 C   0  0  0  0  0  0  0  0  0  0  0  0
   -2.0613   29.5761    8.6188 O   0  0  0  0  0  0  0  0  0  0  0  0
   -3.0691   28.8743    7.8562 C   0  0  0  0  0  0  0  0  0  0  0  0
   -2.5293   27.5911    7.1845 C   0  0  0  0  0  0  0  0  0  0  0  0
   -4.8255   32.0168    7.2865 C   0  0  0  0  0  0  0  0  0  0  0  0
   -5.0353   32.7351    8.5874 C   0  0  0  0  0  0  0  0  0  0  0  0
   -3.8648   33.1654    9.4365 C   0  0  0  0  0  0  0  0  0  0  0  0
   -4.6763   34.1960    8.7044 C   0  0  0  0  0  0  0  0  0  0  0  0
 16 17  1  0  0  0
 17 18  1  0  0  0
 18 19  1  0  0  0
 19 20  1  0  0  0
 20 21  1  0  0  0
 21 15  1  0  0  0
 15  1  1  0  0  0
  1 23  1  0  0  0
 23 24  1  0  0  0
 24 25  1  0  0  0
 25 26  1  0  0  0
  1  2  1  0  0  0
  2  3  2  0  0  0
  2  4  2  0  0  0
  2  5  1  0  0  0
  5  6  1  0  0  0
  6  7  2  0  0  0
  7  8  1  0  0  0
  8  9  1  0  0  0
  9 10  1  0  0  0
 10 11  1  0  0  0
 11 12  1  0  0  0
 12 13  1  0  0  0
 13 14  1  0  0  0
 21 22  1  0  0  0
 22 17  1  0  0  0
 26 24  1  0  0  0
 14  5  2  0  0  0
 13  8  2  0  0  0
M  END
> <minimizedAffinity>
-8.98180

$$$$
OCNT-2312874


 21 25  0  0  0  0  0  0  0  0999 V2000
   -2.1982   26.4785    5.2897 C   0  0  0  0  0  0  0  0  0  0  0  0
   -0.8805   26.4152    5.0375 N   0  0  0  0  0  0  0  0  0  0  0  0
   -0.3090   27.1342    6.0842 O   0  0  0  0  0  0  0  0  0  0  0  0
   -1.3372   27.5621    6.8715 C   0  0  0  0  0  0  0  0  0  0  0  0
   -2.5149   27.1883    6.4272 N   0  0  0  0  0  0  0  0  0  0  0  0
   -4.4823   25.3982    5.1561 C   0  0  0  0  0  0  0  0  0  0  0  0
   -5.4730   24.8503    4.4301 C   0  0  0  0  0  0  0  0  0  0  0  0
   -5.3242   24.7508    3.0535 N   0  0  0  0  0  0  0  0  0  0  0  0
   -6.1711   24.2424    2.1019 C   0  0  0  0  0  0  0  0  0  0  0  0
   -5.6631   24.3273    0.8904 N   0  0  0  0  0  0  0  0  0  0  0  0
   -4.4331   24.9170    1.0558 C   0  0  0  0  0  0  0  0  0  0  0  0
   -4.1969   25.1912    2.3831 C   0  0  0  0  0  0  0  0  0  0  0  0
   -3.1470   25.7733    3.1475 C   0  0  0  0  0  0  0  0  0  0  0  0
   -3.2533   25.8891    4.4974 C   0  0  0  0  0  0  0  0  0  0  0  0
   -1.1286   28.4068    8.1611 C   0  0  0  0  0  0  0  0  0  0  0  0
    0.1050   29.2625    8.2905 C   0  0  0  0  0  0  0  0  0  0  0  0
   -1.2453   29.9183    8.1102 C   0  0  0  0  0  0  0  0  0  0  0  0
   -1.5631   30.6595    6.8507 C   0  0  0  0  0  0  0  0  0  0  0  0
   -1.8965   32.0419    7.3832 C   0  0  0  0  0  0  0  0  0  0  0  0
   -2.5386   31.8026    8.6452 O   0  0  0  0  0  0  0  0  0  0  0  0
   -1.8751   30.6752    9.2421 C   0  0  0  0  0  0  0  0  0  0  0  0
  6  7  2  0  0  0
  7  8  1  0  0  0
  8  9  1  0  0  0
  9 10  2  0  0  0
 10 11  1  0  0  0
 11 12  2  0  0  0
 12 13  1  0  0  0
 13 14  2  0  0  0
 14  1  1  0  0  0
  1  2  2  0  0  0
  2  3  1  0  0  0
  3  4  1  0  0  0
  4 15  1  0  0  0
 15 16  1  0  0  0
 16 17  1  0  0  0
 17 18  1  0  0  0
 18 19  1  0  0  0
 19 20  1  0  0  0
 20 21  1  0  0  0
  4  5  2  0  0  0
 14  6  1  0  0  0
  5  1  1  0  0  0
 12  8  1  0  0  0
 17 15  1  0  0  0
 21 17  1  0  0  0
M  END
> <minimizedAffinity>
-8.27786

$$$$
OCNT-2312890


 22 23  0  0  0  0  0  0  0  0999 V2000
   -7.2175   30.3260    6.8277 C   0  0  0  0  0  0  0  0  0  0  0  0
   -6.6825   29.3794    5.7936 C   0  0  0  0  0  0  0  0  0  0  0  0
   -6.4359   29.7840    4.4804 C   0  0  0  0  0  0  0  0  0  0  0  0
   -5.9192   28.8755    3.5546 C   0  0  0  0  0  0  0  0  0  0  0  0
   -5.6534   27.5741    3.9722 C   0  0  0  0  0  0  0  0  0  0  0  0
   -5.8772   27.1626    5.2469 N   0  0  0  0  0  0  0  0  0  0  0  0
   -6.3782   28.0645    6.1221 C   0  0  0  0  0  0  0  0  0  0  0  0
   -5.1260   26.6139    3.0640 N   0  0  0  0  0  0  0  0  0  0  0  0
   -3.8149   26.1876    3.0161 C   0  0  0  0  0  0  0  0  0  0  0  0
   -3.7509   25.2683    1.9980 C   0  0  0  0  0  0  0  0  0  0  0  0
   -4.9763   25.1086    1.4122 N   0  0  0  0  0  0  0  0  0  0  0  0
   -5.7768   25.9218    2.0682 C   0  0  0  0  0  0  0  0  0  0  0  0
   -5.9351   31.3751    8.6546 C   0  0  0  0  0  0  0  0  0  0  0  0
   -6.6257   30.8401    9.5141 O   0  0  0  0  0  0  0  0  0  0  0  0
   -6.1800   31.2109    7.3057 N   0  0  0  0  0  0  0  0  0  0  0  0
   -5.4996   31.5476    6.6385 H   0  0  0  0  0  0  0  0  0  0  0  0
   -4.7899   33.4917    8.0699 C   0  0  0  0  0  0  0  0  0  0  0  0
   -4.6983   32.2365    8.9502 C   0  0  0  0  0  0  0  0  0  0  0  0
   -3.3285   31.4801    8.8479 C   0  0  0  0  0  0  0  0  0  0  0  0
   -2.3854   31.9255    9.9872 C   0  0  0  0  0  0  0  0  0  0  0  0
   -3.4720   29.9471    8.8839 C   0  0  0  0  0  0  0  0  0  0  0  0
   -2.6305   31.8528    7.5180 C   0  0  0  0  0  0  0  0  0  0  0  0
 17 18  1  0  0  0
 18 13  1  0  0  0
 13 14  2  0  0  0
 13 15  1  0  0  0
 15  1  1  0  0  0
  1  2  1  0  0  0
  2  3  2  0  0  0
  3  4  1  0  0  0
  4  5  2  0  0  0
  5  8  1  0  0  0
  8  9  1  0  0  0
  9 10  2  0  0  0
 10 11  1  0  0  0
 11 12  2  0  0  0
  5  6  1  0  0  0
  6  7  2  0  0  0
 18 19  1  0  0  0
 19 20  1  0  0  0
 19 21  1  0  0  0
 19 22  1  0  0  0
  7  2  1  0  0  0
 12  8  1  0  0  0
 15 16  1  0  0  0
M  END
> <minimizedAffinity>
-8.06404

$$$$
OCNT-2312921


 25 27  0  0  0  0  0  0  0  0999 V2000
   -6.1128   24.6369    4.4701 C   0  0  0  0  0  0  0  0  0  0  0  0
   -5.1714   24.9712    3.4054 N   0  0  0  0  0  0  0  0  0  0  0  0
   -4.4085   26.1373    3.3918 C   0  0  0  0  0  0  0  0  0  0  0  0
   -3.3552   26.2578    2.7701 O   0  0  0  0  0  0  0  0  0  0  0  0
   -4.8915   27.3158    4.1478 C   0  0  0  0  0  0  0  0  0  0  0  0
   -5.8481   28.1740    3.5970 C   0  0  0  0  0  0  0  0  0  0  0  0
   -6.2699   29.2899    4.3178 C   0  0  0  0  0  0  0  0  0  0  0  0
   -5.7265   29.5568    5.5774 C   0  0  0  0  0  0  0  0  0  0  0  0
   -4.7437   28.7178    6.1268 C   0  0  0  0  0  0  0  0  0  0  0  0
   -4.3265   27.5946    5.3969 C   0  0  0  0  0  0  0  0  0  0  0  0
   -4.1568   29.0052    7.4852 C   0  0  0  0  0  0  0  0  0  0  0  0
   -2.7126   29.1351    7.4196 N   0  0  0  0  0  0  0  0  0  0  0  0
   -2.0125   30.1634    6.8510 C   0  0  0  0  0  0  0  0  0  0  0  0
   -0.6904   29.8574    7.0753 C   0  0  0  0  0  0  0  0  0  0  0  0
   -0.5736   28.6819    7.7713 N   0  0  0  0  0  0  0  0  0  0  0  0
   -1.8066   28.2710    7.9662 C   0  0  0  0  0  0  0  0  0  0  0  0
   -4.8019   23.9033    2.4767 C   0  0  0  0  0  0  0  0  0  0  0  0
   -5.8726   23.5976    1.4691 C   0  0  0  0  0  0  0  0  0  0  0  0
   -6.5607   22.3837    1.4975 C   0  0  0  0  0  0  0  0  0  0  0  0
   -6.2691   21.4691    2.4330 F   0  0  0  0  0  0  0  0  0  0  0  0
   -7.5559   22.0885    0.5663 C   0  0  0  0  0  0  0  0  0  0  0  0
   -7.8801   23.0173   -0.4210 C   0  0  0  0  0  0  0  0  0  0  0  0
   -7.2028   24.2347   -0.4676 C   0  0  0  0  0  0  0  0  0  0  0  0
   -6.2107   24.5129    0.4720 C   0  0  0  0  0  0  0  0  0  0  0  0
   -5.5699   25.6880    0.3978 F   0  0  0  0  0  0  0  0  0  0  0  0
  1  2  1  0  0  0
  2 17  1  0  0  0
 17 18  1  0  0  0
 18 19  2  0  0  0
 19 20  1  0  0  0
 19 21  1  0  0  0
 21 22  2  0  0  0
 22 23  1  0  0  0
 23 24  2  0  0  0
 24 25  1  0  0  0
  2  3  1  0  0  0
  3  4  2  0  0  0
  3  5  1  0  0  0
  5  6  1  0  0  0
  6  7  2  0  0  0
  7  8  1  0  0  0
  8  9  2  0  0  0
  9 11  1  0  0  0
 11 12  1  0  0  0
 12 13  1  0  0  0
 13 14  2  0  0  0
 14 15  1  0  0  0
 15 16  2  0  0  0
  9 10  1  0  0  0
 24 18  1  0  0  0
 10  5  2  0  0  0
 16 12  1  0  0  0
M  END
> <minimizedAffinity>
-9.12560

$$$$
OCNT-2312925


 23 26  0  0  0  0  0  0  0  0999 V2000
   -2.1682   25.6219    4.1071 C   0  0  0  0  0  0  0  0  0  0  0  0
   -3.2387   26.3553    4.9036 C   0  0  0  0  0  0  0  0  0  0  0  0
   -4.4741   25.5010    4.6133 C   0  0  0  0  0  0  0  0  0  0  0  0
   -4.3439   25.1784    3.1696 N   0  0  0  0  0  0  0  0  0  0  0  0
   -2.9134   25.2700    2.8053 C   0  0  0  0  0  0  0  0  0  0  0  0
   -4.9502   23.9865    2.7349 C   0  0  0  0  0  0  0  0  0  0  0  0
   -4.7335   22.8646    3.4459 N   0  0  0  0  0  0  0  0  0  0  0  0
   -5.2895   21.7395    2.9855 C   0  0  0  0  0  0  0  0  0  0  0  0
   -6.0415   21.6162    1.8880 N   0  0  0  0  0  0  0  0  0  0  0  0
   -6.2759   22.7360    1.1992 C   0  0  0  0  0  0  0  0  0  0  0  0
   -7.0731   22.6591    0.0628 C   0  0  0  0  0  0  0  0  0  0  0  0
   -7.3836   23.7865   -0.7024 C   0  0  0  0  0  0  0  0  0  0  0  0
   -6.8942   25.0285   -0.3255 C   0  0  0  0  0  0  0  0  0  0  0  0
   -6.0904   25.1289    0.8076 C   0  0  0  0  0  0  0  0  0  0  0  0
   -5.7583   23.9833    1.5769 C   0  0  0  0  0  0  0  0  0  0  0  0
    0.1922   25.8117    4.1671 C   0  0  0  0  0  0  0  0  0  0  0  0
   -1.0414   26.4732    3.9207 O   0  0  0  0  0  0  0  0  0  0  0  0
   -5.8169   26.1817    4.9756 C   0  0  0  0  0  0  0  0  0  0  0  0
   -5.8037   27.6423    5.1741 N   0  0  0  0  0  0  0  0  0  0  0  0
   -6.8596   28.0708    6.0940 C   0  0  0  0  0  0  0  0  0  0  0  0
   -6.8830   29.5752    5.8929 C   0  0  0  0  0  0  0  0  0  0  0  0
   -6.4762   29.7764    4.4390 C   0  0  0  0  0  0  0  0  0  0  0  0
   -6.0476   28.3994    3.9440 C   0  0  0  0  0  0  0  0  0  0  0  0
 16 17  1  0  0  0
 17  1  1  0  0  0
  1  2  1  0  0  0
  2  3  1  0  0  0
  3 18  1  0  0  0
 18 19  1  0  0  0
 19 20  1  0  0  0
 20 21  1  0  0  0
 21 22  1  0  0  0
 22 23  1  0  0  0
  3  4  1  0  0  0
  4  6  1  0  0  0
  6  7  1  0  0  0
  7  8  2  0  0  0
  8  9  1  0  0  0
  9 10  2  0  0  0
 10 11  1  0  0  0
 11 12  2  0  0  0
 12 13  1  0  0  0
 13 14  2  0  0  0
 14 15  1  0  0  0
  4  5  1  0  0  0
  5  1  1  0  0  0
 23 19  1  0  0  0
 15  6  2  0  0  0
 15 10  1  0  0  0
M  END
> <minimizedAffinity>
-8.34164

$$$$
OCNT-2312932


 23 25  0  0  0  0  0  0  0  0999 V2000
   -4.3396   27.9616    5.7741 N   0  0  0  0  0  0  0  0  0  0  0  0
   -3.4830   26.8559    5.3739 C   0  0  0  0  0  0  0  0  0  0  0  0
   -3.8252   26.4197    3.9453 C   0  0  0  0  0  0  0  0  0  0  0  0
   -5.3282   26.5098    3.6191 C   0  0  0  0  0  0  0  0  0  0  0  0
   -6.1738   26.5507    4.8969 C   0  0  0  0  0  0  0  0  0  0  0  0
   -5.7869   27.7547    5.7591 C   0  0  0  0  0  0  0  0  0  0  0  0
   -5.3567   31.1359    9.2013 C   0  0  0  0  0  0  0  0  0  0  0  0
   -4.3295   30.3456    8.4489 C   0  0  0  0  0  0  0  0  0  0  0  0
   -2.9928   30.4812    8.7410 C   0  0  0  0  0  0  0  0  0  0  0  0
   -2.1224   29.7117    7.9945 C   0  0  0  0  0  0  0  0  0  0  0  0
   -2.5627   28.8770    7.0187 N   0  0  0  0  0  0  0  0  0  0  0  0
   -3.8797   28.7941    6.7864 C   0  0  0  0  0  0  0  0  0  0  0  0
   -4.7725   29.5137    7.4864 N   0  0  0  0  0  0  0  0  0  0  0  0
   -0.6316   29.8270    8.2522 C   0  0  0  0  0  0  0  0  0  0  0  0
   -0.1231   28.7184    8.8693 F   0  0  0  0  0  0  0  0  0  0  0  0
    0.1225   29.9987    7.1300 F   0  0  0  0  0  0  0  0  0  0  0  0
   -0.3237   30.8710    9.0754 F   0  0  0  0  0  0  0  0  0  0  0  0
   -5.7624   25.4144    2.6638 C   0  0  0  0  0  0  0  0  0  0  0  0
   -6.1986   24.1821    3.1617 C   0  0  0  0  0  0  0  0  0  0  0  0
   -6.5952   23.1991    2.2668 C   0  0  0  0  0  0  0  0  0  0  0  0
   -6.5910   23.3556    0.9268 N   0  0  0  0  0  0  0  0  0  0  0  0
   -6.1738   24.5516    0.4627 C   0  0  0  0  0  0  0  0  0  0  0  0
   -5.7580   25.5955    1.2764 C   0  0  0  0  0  0  0  0  0  0  0  0
  7  8  1  0  0  0
  8  9  2  0  0  0
  9 10  1  0  0  0
 10 14  1  0  0  0
 14 15  1  0  0  0
 14 16  1  0  0  0
 14 17  1  0  0  0
 10 11  2  0  0  0
 11 12  1  0  0  0
 12  1  1  0  0  0
  1  2  1  0  0  0
  2  3  1  0  0  0
  3  4  1  0  0  0
  4 18  1  0  0  0
 18 19  2  0  0  0
 19 20  1  0  0  0
 20 21  2  0  0  0
 21 22  1  0  0  0
 22 23  2  0  0  0
  4  5  1  0  0  0
  5  6  1  0  0  0
 12 13  2  0  0  0
 13  8  1  0  0  0
  6  1  1  0  0  0
 23 18  1  0  0  0
M  END
> <minimizedAffinity>
-8.98312

$$$$
OCNT-2312941


 32 35  0  0  0  0  0  0  0  0999 V2000
   -5.4579   20.8852    2.0136 O   0  0  0  0  0  0  0  0  0  0  0  0
   -5.5841   22.0601    2.3411 C   0  0  0  0  0  0  0  0  0  0  0  0
   -5.2852   22.4632    3.6168 N   0  0  0  0  0  0  0  0  0  0  0  0
   -5.6536   23.7532    4.1549 C   0  0  0  0  0  0  0  0  0  0  0  0
   -4.8186   24.9150    3.5655 C   0  0  0  0  0  0  0  0  0  0  0  0
   -5.4926   26.2527    3.9520 C   0  0  0  0  0  0  0  0  0  0  0  0
   -4.4734   27.3877    4.0254 C   0  0  0  0  0  0  0  0  0  0  0  0
   -3.4265   27.1664    5.0380 N   0  0  0  0  0  0  0  0  0  0  0  0
   -3.2150   25.7453    5.3553 C   0  0  0  0  0  0  0  0  0  0  0  0
   -3.3716   24.8665    4.1188 C   0  0  0  0  0  0  0  0  0  0  0  0
   -4.6620   24.8763    2.1271 O   0  0  0  0  0  0  0  0  0  0  0  0
   -5.6947   24.3945    1.3769 C   0  0  0  0  0  0  0  0  0  0  0  0
   -6.2224   25.2781    0.4307 C   0  0  0  0  0  0  0  0  0  0  0  0
   -7.2071   24.8526   -0.4623 C   0  0  0  0  0  0  0  0  0  0  0  0
   -7.6479   23.5312   -0.4351 C   0  0  0  0  0  0  0  0  0  0  0  0
   -7.1030   22.6358    0.4862 C   0  0  0  0  0  0  0  0  0  0  0  0
   -6.1278   23.0648    1.3989 C   0  0  0  0  0  0  0  0  0  0  0  0
   -5.0032   21.7117    4.2350 H   0  0  0  0  0  0  0  0  0  0  0  0
   -3.6452   27.9486    6.2781 C   0  0  0  0  0  0  0  0  0  0  0  0
   -2.4061   27.9045    7.2120 C   0  0  0  0  0  0  0  0  0  0  0  0
   -2.5109   26.7484    8.0528 O   0  0  0  0  0  0  0  0  0  0  0  0
   -2.8754   26.0553    7.4657 H   0  0  0  0  0  0  0  0  0  0  0  0
   -2.2987   29.1575    8.0673 C   0  0  0  0  0  0  0  0  0  0  0  0
   -3.4682   29.7272    8.6072 C   0  0  0  0  0  0  0  0  0  0  0  0
   -3.4183   30.8885    9.3773 C   0  0  0  0  0  0  0  0  0  0  0  0
   -2.1985   31.5067    9.6226 C   0  0  0  0  0  0  0  0  0  0  0  0
   -1.0272   30.9634    9.0970 C   0  0  0  0  0  0  0  0  0  0  0  0
   -1.0564   29.7931    8.3125 C   0  0  0  0  0  0  0  0  0  0  0  0
    0.2450   29.2425    7.7723 C   0  0  0  0  0  0  0  0  0  0  0  0
    0.5912   29.7853    6.5733 F   0  0  0  0  0  0  0  0  0  0  0  0
    0.2334   27.8932    7.5797 F   0  0  0  0  0  0  0  0  0  0  0  0
    1.2988   29.4792    8.6062 F   0  0  0  0  0  0  0  0  0  0  0  0
  1  2  2  0  0  0
  2  3  1  0  0  0
  3  4  1  0  0  0
  4  5  1  0  0  0
  5  6  1  0  0  0
  6  7  1  0  0  0
  7  8  1  0  0  0
  8 19  1  0  0  0
 19 20  1  0  0  0
 20 21  1  0  0  0
 20 23  1  0  0  0
 23 24  2  0  0  0
 24 25  1  0  0  0
 25 26  2  0  0  0
 26 27  1  0  0  0
 27 28  2  0  0  0
 28 29  1  0  0  0
 29 30  1  0  0  0
 29 31  1  0  0  0
 29 32  1  0  0  0
  8  9  1  0  0  0
  9 10  1  0  0  0
  5 11  1  0  0  0
 11 12  1  0  0  0
 12 13  2  0  0  0
 13 14  1  0  0  0
 14 15  2  0  0  0
 15 16  1  0  0  0
 16 17  2  0  0  0
 17  2  1  0  0  0
 10  5  1  0  0  0
 17 12  1  0  0  0
 28 23  1  0  0  0
  3 18  1  0  0  0
 21 22  1  0  0  0
M  END
> <minimizedAffinity>
-12.32738

$$$$
OCNT-2312943


 32 35  0  0  0  0  0  0  0  0999 V2000
   -2.7299   27.7377    6.5344 C   0  0  0  0  0  0  0  0  0  0  0  0
   -1.6352   27.3334    6.9178 O   0  0  0  0  0  0  0  0  0  0  0  0
   -3.4065   27.2081    5.4471 N   0  0  0  0  0  0  0  0  0  0  0  0
   -4.6518   27.7570    4.8922 C   0  0  0  0  0  0  0  0  0  0  0  0
   -4.9282   27.2989    3.4559 C   0  0  0  0  0  0  0  0  0  0  0  0
   -4.8231   25.8469    3.2593 N   0  0  0  0  0  0  0  0  0  0  0  0
   -5.4114   25.3205    2.1081 C   0  0  0  0  0  0  0  0  0  0  0  0
   -6.0561   26.0414    1.3433 O   0  0  0  0  0  0  0  0  0  0  0  0
   -3.9025   25.1135    4.1560 C   0  0  0  0  0  0  0  0  0  0  0  0
   -4.6795   24.3939    5.2660 C   0  0  0  0  0  0  0  0  0  0  0  0
   -2.8317   26.0488    4.7627 C   0  0  0  0  0  0  0  0  0  0  0  0
   -1.5911   30.4850    6.4659 C   0  0  0  0  0  0  0  0  0  0  0  0
   -2.8470   30.1277    7.2160 C   0  0  0  0  0  0  0  0  0  0  0  0
   -3.3809   28.8892    7.2387 C   0  0  0  0  0  0  0  0  0  0  0  0
   -4.5566   28.6097    7.8903 N   0  0  0  0  0  0  0  0  0  0  0  0
   -5.3000   29.5238    8.5877 C   0  0  0  0  0  0  0  0  0  0  0  0
   -6.3443   29.2129    9.1479 O   0  0  0  0  0  0  0  0  0  0  0  0
   -4.7609   30.9038    8.6337 C   0  0  0  0  0  0  0  0  0  0  0  0
   -5.4615   31.8854    9.3479 C   0  0  0  0  0  0  0  0  0  0  0  0
   -4.9680   33.1856    9.4039 C   0  0  0  0  0  0  0  0  0  0  0  0
   -3.7805   33.5010    8.7491 C   0  0  0  0  0  0  0  0  0  0  0  0
   -3.0826   32.5191    8.0356 C   0  0  0  0  0  0  0  0  0  0  0  0
   -3.5597   31.2002    7.9628 C   0  0  0  0  0  0  0  0  0  0  0  0
   -4.9429   27.6741    7.8294 H   0  0  0  0  0  0  0  0  0  0  0  0
   -5.1874   23.8394    1.8132 C   0  0  0  0  0  0  0  0  0  0  0  0
   -6.2560   22.9292    2.3763 C   0  0  0  0  0  0  0  0  0  0  0  0
   -6.3463   21.5922    1.9623 C   0  0  0  0  0  0  0  0  0  0  0  0
   -7.3401   20.7560    2.4756 C   0  0  0  0  0  0  0  0  0  0  0  0
   -8.2569   21.2483    3.4038 C   0  0  0  0  0  0  0  0  0  0  0  0
   -8.1793   22.5780    3.8112 C   0  0  0  0  0  0  0  0  0  0  0  0
   -9.3129   23.1892    4.9533 Cl  0  0  0  0  0  0  0  0  0  0  0  0
   -7.1891   23.4190    3.3024 C   0  0  0  0  0  0  0  0  0  0  0  0
 12 13  1  0  0  0
 13 14  2  0  0  0
 14  1  1  0  0  0
  1  2  2  0  0  0
  1  3  1  0  0  0
  3  4  1  0  0  0
  4  5  1  0  0  0
  5  6  1  0  0  0
  6  7  1  0  0  0
  7  8  2  0  0  0
  7 25  1  0  0  0
 25 26  1  0  0  0
 26 27  2  0  0  0
 27 28  1  0  0  0
 28 29  2  0  0  0
 29 30  1  0  0  0
 30 31  1  0  0  0
 30 32  2  0  0  0
  6  9  1  0  0  0
  9 10  1  0  0  0
  9 11  1  0  0  0
 14 15  1  0  0  0
 15 16  1  0  0  0
 16 17  2  0  0  0
 16 18  1  0  0  0
 18 19  2  0  0  0
 19 20  1  0  0  0
 20 21  2  0  0  0
 21 22  1  0  0  0
 22 23  2  0  0  0
 23 13  1  0  0  0
 11  3  1  0  0  0
 23 18  1  0  0  0
 32 26  1  0  0  0
 15 24  1  0  0  0
M  END
> <minimizedAffinity>
-10.66179

$$$$
OCNT-2312947


 35 39  0  0  0  0  0  0  0  0999 V2000
   -3.1543   25.9152    5.2640 C   0  0  0  0  0  0  0  0  0  0  0  0
   -4.4573   25.4946    4.5651 C   0  0  0  0  0  0  0  0  0  0  0  0
   -5.6787   25.9522    5.3368 C   0  0  0  0  0  0  0  0  0  0  0  0
   -5.5945   27.4449    5.4716 C   0  0  0  0  0  0  0  0  0  0  0  0
   -6.7311   28.2438    5.2914 C   0  0  0  0  0  0  0  0  0  0  0  0
   -6.6405   29.6288    5.4106 C   0  0  0  0  0  0  0  0  0  0  0  0
   -5.4161   30.2211    5.7054 C   0  0  0  0  0  0  0  0  0  0  0  0
   -4.2841   29.4273    5.9022 C   0  0  0  0  0  0  0  0  0  0  0  0
   -4.3681   28.0324    5.8177 C   0  0  0  0  0  0  0  0  0  0  0  0
   -3.2293   27.2000    6.0089 N   0  0  0  0  0  0  0  0  0  0  0  0
   -2.2127   27.4125    6.9441 C   0  0  0  0  0  0  0  0  0  0  0  0
   -1.1348   26.8179    6.8446 O   0  0  0  0  0  0  0  0  0  0  0  0
   -2.4918   28.2549    8.1927 C   0  0  0  0  0  0  0  0  0  0  0  0
   -3.9715   28.6609    8.2333 C   0  0  0  0  0  0  0  0  0  0  0  0
   -4.2016   29.9353    9.0426 C   0  0  0  0  0  0  0  0  0  0  0  0
   -3.3778   31.0236    8.5403 N   0  0  0  0  0  0  0  0  0  0  0  0
   -2.2504   30.7369    7.6672 C   0  0  0  0  0  0  0  0  0  0  0  0
   -1.5478   29.4732    8.1617 C   0  0  0  0  0  0  0  0  0  0  0  0
   -3.9005   32.3017    8.5471 C   0  0  0  0  0  0  0  0  0  0  0  0
   -4.3104   32.8411    7.3845 N   0  0  0  0  0  0  0  0  0  0  0  0
   -4.8295   34.0831    7.4150 C   0  0  0  0  0  0  0  0  0  0  0  0
   -4.9636   34.8206    8.5613 C   0  0  0  0  0  0  0  0  0  0  0  0
   -4.5278   34.1976    9.7003 C   0  0  0  0  0  0  0  0  0  0  0  0
   -4.0042   32.9576    9.7164 N   0  0  0  0  0  0  0  0  0  0  0  0
   -2.3061   26.3188    3.0386 O   0  0  0  0  0  0  0  0  0  0  0  0
   -2.0501   25.9228    4.1747 C   0  0  0  0  0  0  0  0  0  0  0  0
   -0.7867   25.6323    4.6642 N   0  0  0  0  0  0  0  0  0  0  0  0
   -0.7595   25.3404    5.6333 H   0  0  0  0  0  0  0  0  0  0  0  0
    0.4365   25.6271    3.9696 C   0  0  0  0  0  0  0  0  0  0  0  0
    1.3784   24.5978    4.0530 C   0  0  0  0  0  0  0  0  0  0  0  0
    2.5718   24.6704    3.3270 C   0  0  0  0  0  0  0  0  0  0  0  0
    2.8206   25.7717    2.5194 C   0  0  0  0  0  0  0  0  0  0  0  0
    3.9633   25.8393    1.8242 F   0  0  0  0  0  0  0  0  0  0  0  0
    1.8986   26.8048    2.4233 C   0  0  0  0  0  0  0  0  0  0  0  0
    0.7069   26.7324    3.1488 C   0  0  0  0  0  0  0  0  0  0  0  0
 25 26  2  0  0  0
 26 27  1  0  0  0
 27 29  1  0  0  0
 29 30  1  0  0  0
 30 31  2  0  0  0
 31 32  1  0  0  0
 32 33  1  0  0  0
 32 34  2  0  0  0
 34 35  1  0  0  0
 26  1  1  0  0  0
  1  2  1  0  0  0
  2  3  1  0  0  0
  3  4  1  0  0  0
  4  5  2  0  0  0
  5  6  1  0  0  0
  6  7  2  0  0  0
  7  8  1  0  0  0
  8  9  2  0  0  0
  9 10  1  0  0  0
 10 11  1  0  0  0
 11 12  2  0  0  0
 11 13  1  0  0  0
 13 14  1  0  0  0
 14 15  1  0  0  0
 15 16  1  0  0  0
 16 19  1  0  0  0
 19 20  2  0  0  0
 20 21  1  0  0  0
 21 22  2  0  0  0
 22 23  1  0  0  0
 23 24  2  0  0  0
 16 17  1  0  0  0
 17 18  1  0  0  0
 35 29  2  0  0  0
 10  1  1  0  0  0
 18 13  1  0  0  0
  9  4  1  0  0  0
 24 19  1  0  0  0
 27 28  1  0  0  0
M  END
> <minimizedAffinity>
-10.05103

$$$$
OCNT-2312951


 27 29  0  0  0  0  0  0  0  0999 V2000
   -1.4124   27.6318    6.3305 N   0  0  0  0  0  0  0  0  0  0  0  0
   -2.2706   26.5513    6.2290 C   0  0  0  0  0  0  0  0  0  0  0  0
   -2.4262   25.7358    7.1330 O   0  0  0  0  0  0  0  0  0  0  0  0
   -1.5985   28.3840    5.6866 H   0  0  0  0  0  0  0  0  0  0  0  0
   -2.9739   26.4842    4.9467 C   0  0  0  0  0  0  0  0  0  0  0  0
   -4.2145   27.0532    4.6558 C   0  0  0  0  0  0  0  0  0  0  0  0
   -4.5203   26.7245    3.3475 N   0  0  0  0  0  0  0  0  0  0  0  0
   -5.7451   27.0675    2.6516 C   0  0  0  0  0  0  0  0  0  0  0  0
   -3.4981   26.0006    2.7899 C   0  0  0  0  0  0  0  0  0  0  0  0
   -2.5281   25.8378    3.7493 C   0  0  0  0  0  0  0  0  0  0  0  0
   -5.0848   27.8884    5.4868 C   0  0  0  0  0  0  0  0  0  0  0  0
   -4.6068   29.0969    6.0104 C   0  0  0  0  0  0  0  0  0  0  0  0
   -5.4356   29.9071    6.7895 C   0  0  0  0  0  0  0  0  0  0  0  0
   -6.7463   29.5118    7.0557 C   0  0  0  0  0  0  0  0  0  0  0  0
   -7.2276   28.3071    6.5444 C   0  0  0  0  0  0  0  0  0  0  0  0
   -6.3997   27.4978    5.7622 C   0  0  0  0  0  0  0  0  0  0  0  0
   -0.8007   27.9565    7.6098 C   0  0  0  0  0  0  0  0  0  0  0  0
   -0.0068   29.2867    7.6223 C   0  0  0  0  0  0  0  0  0  0  0  0
    1.1358   29.2450    8.6607 C   0  0  0  0  0  0  0  0  0  0  0  0
    0.6396   29.5173    6.2340 C   0  0  0  0  0  0  0  0  0  0  0  0
   -3.8687   33.4938    8.6732 C   0  0  0  0  0  0  0  0  0  0  0  0
   -2.8787   32.3962    8.4542 C   0  0  0  0  0  0  0  0  0  0  0  0
   -2.1550   31.8442    9.5081 C   0  0  0  0  0  0  0  0  0  0  0  0
   -1.2181   30.8420    9.2567 C   0  0  0  0  0  0  0  0  0  0  0  0
   -1.0020   30.4141    7.9444 C   0  0  0  0  0  0  0  0  0  0  0  0
   -1.7022   30.9467    6.9119 N   0  0  0  0  0  0  0  0  0  0  0  0
   -2.6066   31.9166    7.1818 C   0  0  0  0  0  0  0  0  0  0  0  0
 21 22  1  0  0  0
 22 23  2  0  0  0
 23 24  1  0  0  0
 24 25  2  0  0  0
 25 18  1  0  0  0
 18 19  1  0  0  0
 18 20  1  0  0  0
 18 17  1  0  0  0
 17  1  1  0  0  0
  1  2  1  0  0  0
  2  3  2  0  0  0
  2  5  1  0  0  0
  5  6  2  0  0  0
  6 11  1  0  0  0
 11 12  2  0  0  0
 12 13  1  0  0  0
 13 14  2  0  0  0
 14 15  1  0  0  0
 15 16  2  0  0  0
  6  7  1  0  0  0
  7  8  1  0  0  0
  7  9  1  0  0  0
  9 10  2  0  0  0
 25 26  1  0  0  0
 26 27  2  0  0  0
 27 22  1  0  0  0
 10  5  1  0  0  0
 16 11  1  0  0  0
  1  4  1  0  0  0
M  END
> <minimizedAffinity>
-9.89154

$$$$
OCNT-2312959


 22 24  0  0  0  0  0  0  0  0999 V2000
   -3.1105   26.6623    5.3463 C   0  0  0  0  0  0  0  0  0  0  0  0
   -1.9407   26.3035    4.4338 C   0  0  0  0  0  0  0  0  0  0  0  0
   -2.6196   25.9902    3.1040 C   0  0  0  0  0  0  0  0  0  0  0  0
   -3.9062   25.4062    3.4818 N   0  0  0  0  0  0  0  0  0  0  0  0
   -4.1732   25.6287    4.9046 C   0  0  0  0  0  0  0  0  0  0  0  0
   -4.7572   24.7632    2.6176 C   0  0  0  0  0  0  0  0  0  0  0  0
   -5.0979   23.4091    2.7872 C   0  0  0  0  0  0  0  0  0  0  0  0
   -5.9642   22.7447    1.9109 C   0  0  0  0  0  0  0  0  0  0  0  0
   -6.5110   23.4302    0.8376 C   0  0  0  0  0  0  0  0  0  0  0  0
   -7.3394   22.7803    0.0071 F   0  0  0  0  0  0  0  0  0  0  0  0
   -6.1986   24.7672    0.6355 C   0  0  0  0  0  0  0  0  0  0  0  0
   -6.8713   25.6343   -0.6927 Cl  0  0  0  0  0  0  0  0  0  0  0  0
   -5.3310   25.4229    1.5166 C   0  0  0  0  0  0  0  0  0  0  0  0
   -2.7734   26.5195    6.7682 N   0  0  0  0  0  0  0  0  0  0  0  0
   -3.5693   26.2064    7.3185 H   0  0  0  0  0  0  0  0  0  0  0  0
    0.9924   29.1219    8.2845 C   0  0  0  0  0  0  0  0  0  0  0  0
   -0.4866   28.9379    8.1518 C   0  0  0  0  0  0  0  0  0  0  0  0
   -1.2806   29.9141    8.6228 N   0  0  0  0  0  0  0  0  0  0  0  0
   -2.5999   29.7208    8.4718 C   0  0  0  0  0  0  0  0  0  0  0  0
   -3.1375   28.6134    7.8599 C   0  0  0  0  0  0  0  0  0  0  0  0
   -2.2466   27.6712    7.3847 C   0  0  0  0  0  0  0  0  0  0  0  0
   -0.9216   27.8249    7.5306 N   0  0  0  0  0  0  0  0  0  0  0  0
 16 17  1  0  0  0
 17 18  2  0  0  0
 18 19  1  0  0  0
 19 20  2  0  0  0
 20 21  1  0  0  0
 21 14  1  0  0  0
 14  1  1  0  0  0
  1  2  1  0  0  0
  2  3  1  0  0  0
  3  4  1  0  0  0
  4  6  1  0  0  0
  6  7  1  0  0  0
  7  8  2  0  0  0
  8  9  1  0  0  0
  9 10  1  0  0  0
  9 11  2  0  0  0
 11 12  1  0  0  0
 11 13  1  0  0  0
  4  5  1  0  0  0
 21 22  2  0  0  0
 22 17  1  0  0  0
  5  1  1  0  0  0
 13  6  2  0  0  0
 14 15  1  0  0  0
M  END
> <minimizedAffinity>
-8.69452

$$$$
OCNT-2312961


 25 27  0  0  0  0  0  0  0  0999 V2000
   -2.7535   26.7205    5.8931 C   0  0  0  0  0  0  0  0  0  0  0  0
   -2.4564   25.6391    6.3910 O   0  0  0  0  0  0  0  0  0  0  0  0
   -2.1869   27.9087    6.2834 N   0  0  0  0  0  0  0  0  0  0  0  0
   -2.4038   28.7582    5.7603 H   0  0  0  0  0  0  0  0  0  0  0  0
   -4.9893   27.5417    4.9645 C   0  0  0  0  0  0  0  0  0  0  0  0
   -5.9156   27.5317    3.9116 C   0  0  0  0  0  0  0  0  0  0  0  0
   -5.6567   26.8037    2.7471 C   0  0  0  0  0  0  0  0  0  0  0  0
   -4.4734   26.0878    2.6297 C   0  0  0  0  0  0  0  0  0  0  0  0
   -4.2304   25.3980    1.5081 F   0  0  0  0  0  0  0  0  0  0  0  0
   -3.5443   26.0750    3.6583 C   0  0  0  0  0  0  0  0  0  0  0  0
   -3.8030   26.7885    4.8381 C   0  0  0  0  0  0  0  0  0  0  0  0
   -6.4894   28.5849    6.5093 C   0  0  0  0  0  0  0  0  0  0  0  0
   -5.1619   28.2554    6.1208 O   0  0  0  0  0  0  0  0  0  0  0  0
   -1.0454   27.9680    7.1858 C   0  0  0  0  0  0  0  0  0  0  0  0
    0.1177   28.7283    6.5609 C   0  0  0  0  0  0  0  0  0  0  0  0
   -0.2834   30.1920    6.7494 C   0  0  0  0  0  0  0  0  0  0  0  0
   -1.0876   30.2260    7.9929 N   0  0  0  0  0  0  0  0  0  0  0  0
   -1.3292   28.8299    8.4240 C   0  0  0  0  0  0  0  0  0  0  0  0
   -2.2484   31.0093    7.8234 C   0  0  0  0  0  0  0  0  0  0  0  0
   -2.8851   30.9728    6.6232 N   0  0  0  0  0  0  0  0  0  0  0  0
   -4.0023   31.7165    6.4596 C   0  0  0  0  0  0  0  0  0  0  0  0
   -4.5299   32.5392    7.4361 C   0  0  0  0  0  0  0  0  0  0  0  0
   -3.8762   32.5969    8.6596 C   0  0  0  0  0  0  0  0  0  0  0  0
   -2.7279   31.8287    8.8635 C   0  0  0  0  0  0  0  0  0  0  0  0
   -1.9701   31.9130   10.4153 Cl  0  0  0  0  0  0  0  0  0  0  0  0
 12 13  1  0  0  0
 13  5  1  0  0  0
  5  6  1  0  0  0
  6  7  2  0  0  0
  7  8  1  0  0  0
  8  9  1  0  0  0
  8 10  2  0  0  0
 10 11  1  0  0  0
 11  1  1  0  0  0
  1  2  2  0  0  0
  1  3  1  0  0  0
  3 14  1  0  0  0
 14 15  1  0  0  0
 15 16  1  0  0  0
 16 17  1  0  0  0
 17 19  1  0  0  0
 19 20  1  0  0  0
 20 21  2  0  0  0
 21 22  1  0  0  0
 22 23  2  0  0  0
 23 24  1  0  0  0
 24 25  1  0  0  0
 17 18  1  0  0  0
 11  5  2  0  0  0
 18 14  1  0  0  0
 24 19  2  0  0  0
  3  4  1  0  0  0
M  END
> <minimizedAffinity>
-8.60656

$$$$
OCNT-2312969


 25 27  0  0  0  0  0  0  0  0999 V2000
   -3.0021   25.6517    4.0923 C   0  0  0  0  0  0  0  0  0  0  0  0
   -1.6313   25.5875    3.8352 C   0  0  0  0  0  0  0  0  0  0  0  0
   -0.7211   26.1467    4.7347 C   0  0  0  0  0  0  0  0  0  0  0  0
   -1.1837   26.7600    5.8953 C   0  0  0  0  0  0  0  0  0  0  0  0
   -2.5003   26.8448    6.1623 N   0  0  0  0  0  0  0  0  0  0  0  0
   -3.3660   26.2943    5.2737 C   0  0  0  0  0  0  0  0  0  0  0  0
   -5.9202   23.9894    1.3866 C   0  0  0  0  0  0  0  0  0  0  0  0
   -5.6832   25.3652    1.4216 C   0  0  0  0  0  0  0  0  0  0  0  0
   -4.7345   25.9022    2.3030 C   0  0  0  0  0  0  0  0  0  0  0  0
   -3.9967   25.0834    3.1721 C   0  0  0  0  0  0  0  0  0  0  0  0
   -4.2395   23.7025    3.1301 C   0  0  0  0  0  0  0  0  0  0  0  0
   -5.1872   23.1633    2.2512 C   0  0  0  0  0  0  0  0  0  0  0  0
   -5.4201   21.4484    2.2724 Cl  0  0  0  0  0  0  0  0  0  0  0  0
   -7.4596   24.1712   -0.4315 C   0  0  0  0  0  0  0  0  0  0  0  0
   -6.8247   23.3762    0.5607 O   0  0  0  0  0  0  0  0  0  0  0  0
   -0.2416   27.3393    6.7572 N   0  0  0  0  0  0  0  0  0  0  0  0
   -0.5503   27.2385    7.7185 H   0  0  0  0  0  0  0  0  0  0  0  0
    0.0734   28.7356    6.4585 C   0  0  0  0  0  0  0  0  0  0  0  0
   -0.2686   29.6897    7.5618 C   0  0  0  0  0  0  0  0  0  0  0  0
    0.3146   29.7869    8.8095 C   0  0  0  0  0  0  0  0  0  0  0  0
   -0.3230   30.8000    9.4562 N   0  0  0  0  0  0  0  0  0  0  0  0
   -1.2878   31.3765    8.7250 N   0  0  0  0  0  0  0  0  0  0  0  0
   -1.2586   30.7123    7.5628 C   0  0  0  0  0  0  0  0  0  0  0  0
   -2.1963   31.0806    6.4723 C   0  0  0  0  0  0  0  0  0  0  0  0
   -0.1545   31.1519   10.3926 H   0  0  0  0  0  0  0  0  0  0  0  0
 14 15  1  0  0  0
 15  7  1  0  0  0
  7  8  1  0  0  0
  8  9  2  0  0  0
  9 10  1  0  0  0
 10  1  1  0  0  0
  1  2  2  0  0  0
  2  3  1  0  0  0
  3  4  2  0  0  0
  4 16  1  0  0  0
 16 18  1  0  0  0
 18 19  1  0  0  0
 19 20  2  0  0  0
 20 21  1  0  0  0
 21 22  1  0  0  0
 22 23  2  0  0  0
 23 24  1  0  0  0
  4  5  1  0  0  0
  5  6  2  0  0  0
 10 11  2  0  0  0
 11 12  1  0  0  0
 12 13  1  0  0  0
 12  7  2  0  0  0
  6  1  1  0  0  0
 23 19  1  0  0  0
 16 17  1  0  0  0
 21 25  1  0  0  0
M  END
> <minimizedAffinity>
-8.89689

$$$$
OCNT-2312992


 26 29  0  0  0  0  0  0  0  0999 V2000
   -2.3663   26.5244    4.9470 C   0  0  0  0  0  0  0  0  0  0  0  0
   -1.2741   26.1912    4.4933 O   0  0  0  0  0  0  0  0  0  0  0  0
   -3.5787   26.0251    4.4747 N   0  0  0  0  0  0  0  0  0  0  0  0
   -4.8632   26.6986    4.6206 C   0  0  0  0  0  0  0  0  0  0  0  0
   -5.9710   25.7077    4.9709 C   0  0  0  0  0  0  0  0  0  0  0  0
   -5.7290   24.2844    4.4074 C   0  0  0  0  0  0  0  0  0  0  0  0
   -4.8919   24.3918    3.1135 C   0  0  0  0  0  0  0  0  0  0  0  0
   -4.7249   23.0398    2.4214 C   0  0  0  0  0  0  0  0  0  0  0  0
   -6.0845   22.3941    2.2141 C   0  0  0  0  0  0  0  0  0  0  0  0
   -6.8332   22.2680    3.5382 C   0  0  0  0  0  0  0  0  0  0  0  0
   -7.0088   23.5610    4.2107 N   0  0  0  0  0  0  0  0  0  0  0  0
   -3.5181   25.0074    3.4299 C   0  0  0  0  0  0  0  0  0  0  0  0
   -3.6342   28.8950    7.6385 C   0  0  0  0  0  0  0  0  0  0  0  0
   -2.3940   29.2248    8.2193 C   0  0  0  0  0  0  0  0  0  0  0  0
   -1.1788   28.6773    7.7693 C   0  0  0  0  0  0  0  0  0  0  0  0
   -1.1680   27.7923    6.6970 C   0  0  0  0  0  0  0  0  0  0  0  0
   -2.3728   27.4801    6.0752 C   0  0  0  0  0  0  0  0  0  0  0  0
   -3.5854   28.0060    6.5516 C   0  0  0  0  0  0  0  0  0  0  0  0
   -6.0976   29.0184    7.4864 C   0  0  0  0  0  0  0  0  0  0  0  0
   -4.8359   29.4531    8.0880 N   0  0  0  0  0  0  0  0  0  0  0  0
   -4.9315   29.9197    9.4725 C   0  0  0  0  0  0  0  0  0  0  0  0
    0.0485   29.0377    8.4163 C   0  0  0  0  0  0  0  0  0  0  0  0
    1.0397   29.3391    8.9391 N   0  0  0  0  0  0  0  0  0  0  0  0
   -7.8607   23.5231    5.4250 C   0  0  0  0  0  0  0  0  0  0  0  0
   -8.8971   22.4680    5.7112 C   0  0  0  0  0  0  0  0  0  0  0  0
   -7.6271   22.4986    6.5063 C   0  0  0  0  0  0  0  0  0  0  0  0
 19 20  1  0  0  0
 20 21  1  0  0  0
 20 13  1  0  0  0
 13 14  2  0  0  0
 14 15  1  0  0  0
 15 22  1  0  0  0
 22 23  3  0  0  0
 15 16  2  0  0  0
 16 17  1  0  0  0
 17  1  1  0  0  0
  1  2  2  0  0  0
  1  3  1  0  0  0
  3  4  1  0  0  0
  4  5  1  0  0  0
  5  6  1  0  0  0
  6  7  1  0  0  0
  7  8  1  0  0  0
  8  9  1  0  0  0
  9 10  1  0  0  0
 10 11  1  0  0  0
 11 24  1  0  0  0
 24 25  1  0  0  0
 25 26  1  0  0  0
  7 12  1  0  0  0
 17 18  2  0  0  0
 18 13  1  0  0  0
 12  3  1  0  0  0
 11  6  1  0  0  0
 26 24  1  0  0  0
M  END
> <minimizedAffinity>
-8.54398

$$$$
OCNT-2312995


 22 25  0  0  0  0  0  0  0  0999 V2000
   -5.7804   24.8627    4.0942 C   0  0  0  0  0  0  0  0  0  0  0  0
   -4.6441   25.2533    5.0494 C   0  0  0  0  0  0  0  0  0  0  0  0
   -3.5509   25.5870    4.1522 N   0  0  0  0  0  0  0  0  0  0  0  0
   -3.7590   25.0839    2.8039 C   0  0  0  0  0  0  0  0  0  0  0  0
   -5.0202   24.2053    2.9285 C   0  0  0  0  0  0  0  0  0  0  0  0
   -5.8178   24.0707    1.6514 C   0  0  0  0  0  0  0  0  0  0  0  0
   -6.0266   25.1581    0.7893 C   0  0  0  0  0  0  0  0  0  0  0  0
   -6.7758   25.0083   -0.3796 C   0  0  0  0  0  0  0  0  0  0  0  0
   -7.3270   23.7710   -0.7024 C   0  0  0  0  0  0  0  0  0  0  0  0
   -7.1282   22.6819    0.1426 C   0  0  0  0  0  0  0  0  0  0  0  0
   -6.3785   22.8301    1.3113 C   0  0  0  0  0  0  0  0  0  0  0  0
   -2.3714   26.0783    4.5853 C   0  0  0  0  0  0  0  0  0  0  0  0
   -1.2011   25.9010    3.9630 N   0  0  0  0  0  0  0  0  0  0  0  0
   -0.0395   26.6813    4.8664 S   0  0  0  0  0  0  0  0  0  0  0  0
   -1.1676   27.1989    6.0344 C   0  0  0  0  0  0  0  0  0  0  0  0
   -2.3918   26.8118    5.7663 N   0  0  0  0  0  0  0  0  0  0  0  0
   -0.7969   28.0504    7.2830 C   0  0  0  0  0  0  0  0  0  0  0  0
    0.4604   28.8823    7.2622 C   0  0  0  0  0  0  0  0  0  0  0  0
   -0.8802   29.5535    7.1958 C   0  0  0  0  0  0  0  0  0  0  0  0
   -7.5894   24.6692    5.6800 O   0  0  0  0  0  0  0  0  0  0  0  0
   -6.8028   23.9430    4.7439 C   0  0  0  0  0  0  0  0  0  0  0  0
   -8.1496   25.2850    5.1758 H   0  0  0  0  0  0  0  0  0  0  0  0
 20 21  1  0  0  0
 21  1  1  0  0  0
  1  2  1  0  0  0
  2  3  1  0  0  0
  3 12  1  0  0  0
 12 13  2  0  0  0
 13 14  1  0  0  0
 14 15  1  0  0  0
 15 17  1  0  0  0
 17 18  1  0  0  0
 18 19  1  0  0  0
 15 16  2  0  0  0
  3  4  1  0  0  0
  4  5  1  0  0  0
  5  6  1  0  0  0
  6  7  2  0  0  0
  7  8  1  0  0  0
  8  9  2  0  0  0
  9 10  1  0  0  0
 10 11  2  0  0  0
  5  1  1  0  0  0
 11  6  1  0  0  0
 16 12  1  0  0  0
 19 17  1  0  0  0
 20 22  1  0  0  0
M  END
> <minimizedAffinity>
-8.42671

$$$$
OCNT-2312996


 24 25  0  0  0  0  0  0  0  0999 V2000
    0.4310   28.3320    7.6088 O   0  0  0  0  0  0  0  0  0  0  0  0
   -0.4614   28.9045    8.2263 C   0  0  0  0  0  0  0  0  0  0  0  0
   -1.7528   28.4273    8.3027 N   0  0  0  0  0  0  0  0  0  0  0  0
   -2.3982   28.8499    8.9616 H   0  0  0  0  0  0  0  0  0  0  0  0
   -0.2370   30.2009    8.9840 C   0  0  0  0  0  0  0  0  0  0  0  0
   -1.3799   31.1720    8.8114 C   0  0  0  0  0  0  0  0  0  0  0  0
   -2.0594   31.6945    9.9180 C   0  0  0  0  0  0  0  0  0  0  0  0
   -3.1253   32.5771    9.7326 C   0  0  0  0  0  0  0  0  0  0  0  0
   -3.5183   32.9358    8.4415 C   0  0  0  0  0  0  0  0  0  0  0  0
   -4.9612   34.1298    8.2002 Br  0  0  0  0  0  0  0  0  0  0  0  0
   -2.8584   32.4182    7.3334 C   0  0  0  0  0  0  0  0  0  0  0  0
   -1.7985   31.5409    7.5294 C   0  0  0  0  0  0  0  0  0  0  0  0
   -1.1680   31.0452    6.4579 F   0  0  0  0  0  0  0  0  0  0  0  0
   -2.1467   27.1836    7.6639 C   0  0  0  0  0  0  0  0  0  0  0  0
   -2.6559   27.4220    6.2439 C   0  0  0  0  0  0  0  0  0  0  0  0
   -3.6376   28.5956    6.1755 C   0  0  0  0  0  0  0  0  0  0  0  0
   -4.9230   28.1951    6.7418 N   0  0  0  0  0  0  0  0  0  0  0  0
   -4.9024   27.2423    7.1007 H   0  0  0  0  0  0  0  0  0  0  0  0
   -5.4194   29.0493    7.7393 C   0  0  0  0  0  0  0  0  0  0  0  0
   -6.2833   30.0725    7.3433 C   0  0  0  0  0  0  0  0  0  0  0  0
   -6.7661   30.9674    8.2940 C   0  0  0  0  0  0  0  0  0  0  0  0
   -6.3640   30.8310    9.6194 C   0  0  0  0  0  0  0  0  0  0  0  0
   -5.4966   29.7995    9.9309 C   0  0  0  0  0  0  0  0  0  0  0  0
   -5.0191   28.9173    9.0251 N   0  0  0  0  0  0  0  0  0  0  0  0
  1  2  2  0  0  0
  2  5  1  0  0  0
  5  6  1  0  0  0
  6  7  1  0  0  0
  7  8  2  0  0  0
  8  9  1  0  0  0
  9 10  1  0  0  0
  9 11  2  0  0  0
 11 12  1  0  0  0
 12 13  1  0  0  0
  2  3  1  0  0  0
  3 14  1  0  0  0
 14 15  1  0  0  0
 15 16  1  0  0  0
 16 17  1  0  0  0
 17 19  1  0  0  0
 19 20  2  0  0  0
 20 21  1  0  0  0
 21 22  2  0  0  0
 22 23  1  0  0  0
 23 24  2  0  0  0
 12  6  2  0  0  0
 24 19  1  0  0  0
  3  4  1  0  0  0
 17 18  1  0  0  0
M  END
> <minimizedAffinity>
-8.24495

$$$$
OCNT-2313019


 21 24  0  0  0  0  0  0  0  0999 V2000
   -7.3936   31.3014    7.4590 O   0  0  0  0  0  0  0  0  0  0  0  0
   -6.3200   30.8016    7.7815 C   0  0  0  0  0  0  0  0  0  0  0  0
   -5.2525   31.5397    8.4083 C   0  0  0  0  0  0  0  0  0  0  0  0
   -4.0912   30.8833    8.7348 C   0  0  0  0  0  0  0  0  0  0  0  0
   -3.7874   29.5750    8.5484 N   0  0  0  0  0  0  0  0  0  0  0  0
   -4.7559   28.9204    7.9776 C   0  0  0  0  0  0  0  0  0  0  0  0
   -5.9889   29.4484    7.5901 N   0  0  0  0  0  0  0  0  0  0  0  0
   -3.3232   31.8712    9.2874 N   0  0  0  0  0  0  0  0  0  0  0  0
   -3.9840   33.0481    9.3202 N   0  0  0  0  0  0  0  0  0  0  0  0
   -5.1815   32.8530    8.7661 N   0  0  0  0  0  0  0  0  0  0  0  0
   -1.9644   31.6880    9.8329 C   0  0  0  0  0  0  0  0  0  0  0  0
   -0.9331   30.8255    9.1429 C   0  0  0  0  0  0  0  0  0  0  0  0
   -0.7444   32.3122    9.1956 C   0  0  0  0  0  0  0  0  0  0  0  0
   -6.9645   28.5828    6.9495 C   0  0  0  0  0  0  0  0  0  0  0  0
   -6.5361   28.1892    5.5537 C   0  0  0  0  0  0  0  0  0  0  0  0
   -6.3463   29.1688    4.5666 C   0  0  0  0  0  0  0  0  0  0  0  0
   -5.9289   28.8138    3.2821 C   0  0  0  0  0  0  0  0  0  0  0  0
   -5.6937   27.4760    2.9689 C   0  0  0  0  0  0  0  0  0  0  0  0
   -5.8770   26.4979    3.9430 C   0  0  0  0  0  0  0  0  0  0  0  0
   -5.5856   24.8456    3.5613 Cl  0  0  0  0  0  0  0  0  0  0  0  0
   -6.2939   26.8456    5.2290 C   0  0  0  0  0  0  0  0  0  0  0  0
  1  2  2  0  0  0
  2  3  1  0  0  0
  3  4  2  0  0  0
  4  5  1  0  0  0
  5  6  2  0  0  0
  6  7  1  0  0  0
  7 14  1  0  0  0
 14 15  1  0  0  0
 15 16  2  0  0  0
 16 17  1  0  0  0
 17 18  2  0  0  0
 18 19  1  0  0  0
 19 20  1  0  0  0
 19 21  2  0  0  0
  4  8  1  0  0  0
  8 11  1  0  0  0
 11 12  1  0  0  0
 12 13  1  0  0  0
  8  9  1  0  0  0
  9 10  2  0  0  0
  7  2  1  0  0  0
 21 15  1  0  0  0
 13 11  1  0  0  0
 10  3  1  0  0  0
M  END
> <minimizedAffinity>
-8.44937

$$$$
OCNT-2313023


 33 35  0  0  0  0  0  0  0  0999 V2000
   -2.3835   27.5898    5.9182 C   0  0  0  0  0  0  0  0  0  0  0  0
   -3.4160   27.3191    5.0024 C   0  0  0  0  0  0  0  0  0  0  0  0
   -3.2901   26.2943    4.0556 C   0  0  0  0  0  0  0  0  0  0  0  0
   -2.1236   25.5397    3.9766 C   0  0  0  0  0  0  0  0  0  0  0  0
   -1.0976   25.7937    4.8816 C   0  0  0  0  0  0  0  0  0  0  0  0
   -1.2236   26.8029    5.8459 C   0  0  0  0  0  0  0  0  0  0  0  0
   -0.1303   26.9213    6.6525 O   0  0  0  0  0  0  0  0  0  0  0  0
   -0.2939   27.6331    7.3062 H   0  0  0  0  0  0  0  0  0  0  0  0
   -1.9120   29.7643    7.1375 C   0  0  0  0  0  0  0  0  0  0  0  0
   -0.7995   30.0069    6.6771 O   0  0  0  0  0  0  0  0  0  0  0  0
   -2.6578   28.6542    6.8118 N   0  0  0  0  0  0  0  0  0  0  0  0
   -3.5568   28.5922    7.2829 H   0  0  0  0  0  0  0  0  0  0  0  0
   -3.7837   31.2740    8.0476 C   0  0  0  0  0  0  0  0  0  0  0  0
   -4.2840   32.1446    8.9601 N   0  0  0  0  0  0  0  0  0  0  0  0
   -3.4819   32.4968    9.9870 C   0  0  0  0  0  0  0  0  0  0  0  0
   -2.1961   32.0184   10.1515 C   0  0  0  0  0  0  0  0  0  0  0  0
   -1.7028   31.1236    9.2055 C   0  0  0  0  0  0  0  0  0  0  0  0
   -2.5001   30.7285    8.1204 C   0  0  0  0  0  0  0  0  0  0  0  0
   -4.6015   30.9060    6.9946 O   0  0  0  0  0  0  0  0  0  0  0  0
   -6.3592   29.4265    6.3719 C   0  0  0  0  0  0  0  0  0  0  0  0
   -5.8978   30.4501    7.3945 C   0  0  0  0  0  0  0  0  0  0  0  0
   -4.6203   25.9950    2.9148 S   0  0  0  0  0  0  0  0  0  0  0  0
   -5.5313   27.1171    3.0113 O   0  0  0  0  0  0  0  0  0  0  0  0
   -4.0483   25.5995    1.6466 O   0  0  0  0  0  0  0  0  0  0  0  0
   -5.4266   24.6837    3.6087 N   0  0  0  0  0  0  0  0  0  0  0  0
   -5.1722   24.5461    4.5853 H   0  0  0  0  0  0  0  0  0  0  0  0
   -5.7199   23.5368    2.8199 C   0  0  0  0  0  0  0  0  0  0  0  0
   -5.2039   22.2846    3.1571 C   0  0  0  0  0  0  0  0  0  0  0  0
   -5.5272   21.1641    2.3897 C   0  0  0  0  0  0  0  0  0  0  0  0
   -6.3655   21.2972    1.2833 C   0  0  0  0  0  0  0  0  0  0  0  0
   -6.8737   22.5514    0.9487 C   0  0  0  0  0  0  0  0  0  0  0  0
   -7.9071   22.7166   -0.4172 Cl  0  0  0  0  0  0  0  0  0  0  0  0
   -6.5546   23.6746    1.7109 C   0  0  0  0  0  0  0  0  0  0  0  0
 20 21  1  0  0  0
 21 19  1  0  0  0
 19 13  1  0  0  0
 13 14  1  0  0  0
 14 15  2  0  0  0
 15 16  1  0  0  0
 16 17  2  0  0  0
 17 18  1  0  0  0
 18  9  1  0  0  0
  9 10  2  0  0  0
  9 11  1  0  0  0
 11  1  1  0  0  0
  1  2  1  0  0  0
  2  3  2  0  0  0
  3 22  1  0  0  0
 22 23  2  0  0  0
 22 24  2  0  0  0
 22 25  1  0  0  0
 25 27  1  0  0  0
 27 28  2  0  0  0
 28 29  1  0  0  0
 29 30  2  0  0  0
 30 31  1  0  0  0
 31 32  1  0  0  0
 31 33  2  0  0  0
  3  4  1  0  0  0
  4  5  2  0  0  0
  5  6  1  0  0  0
  6  7  1  0  0  0
 18 13  2  0  0  0
  6  1  2  0  0  0
 33 27  1  0  0  0
 11 12  1  0  0  0
 25 26  1  0  0  0
  7  8  1  0  0  0
M  END
> <minimizedAffinity>
-9.76404

$$$$
OCNT-2313024


 33 38  0  0  0  0  0  0  0  0999 V2000
   -2.8350   26.6617    4.9371 C   0  0  0  0  0  0  0  0  0  0  0  0
   -2.8230   27.7200    5.7200 N   0  0  0  0  0  0  0  0  0  0  0  0
   -1.6174   27.6157    6.3751 C   0  0  0  0  0  0  0  0  0  0  0  0
   -0.8957   26.5430    6.0134 N   0  0  0  0  0  0  0  0  0  0  0  0
   -1.6986   25.9095    5.0700 O   0  0  0  0  0  0  0  0  0  0  0  0
   -3.1954   24.0093    3.0542 C   0  0  0  0  0  0  0  0  0  0  0  0
   -4.1441   25.1319    3.2447 C   0  0  0  0  0  0  0  0  0  0  0  0
   -4.0047   26.2999    3.9717 C   0  0  0  0  0  0  0  0  0  0  0  0
   -5.0330   27.1470    3.6941 N   0  0  0  0  0  0  0  0  0  0  0  0
   -5.8209   26.5512    2.8140 N   0  0  0  0  0  0  0  0  0  0  0  0
   -5.3855   25.2720    2.6299 N   0  0  0  0  0  0  0  0  0  0  0  0
   -6.1694   24.3816    1.8471 C   0  0  0  0  0  0  0  0  0  0  0  0
   -6.4101   24.7475    0.5049 C   0  0  0  0  0  0  0  0  0  0  0  0
   -7.1441   23.9173   -0.3318 C   0  0  0  0  0  0  0  0  0  0  0  0
   -7.6628   22.7321    0.1707 C   0  0  0  0  0  0  0  0  0  0  0  0
   -7.4734   22.3850    1.5178 C   0  0  0  0  0  0  0  0  0  0  0  0
   -8.0514   21.2118    2.0219 C   0  0  0  0  0  0  0  0  0  0  0  0
   -7.9166   20.8888    3.3634 C   0  0  0  0  0  0  0  0  0  0  0  0
   -7.2059   21.7582    4.1592 C   0  0  0  0  0  0  0  0  0  0  0  0
   -6.6244   22.8900    3.7022 N   0  0  0  0  0  0  0  0  0  0  0  0
   -6.7263   23.2134    2.3919 C   0  0  0  0  0  0  0  0  0  0  0  0
   -1.1818   28.5978    7.3633 C   0  0  0  0  0  0  0  0  0  0  0  0
    0.1793   28.7359    7.6676 C   0  0  0  0  0  0  0  0  0  0  0  0
    0.6065   29.6741    8.6089 C   0  0  0  0  0  0  0  0  0  0  0  0
   -0.3219   30.4858    9.2597 C   0  0  0  0  0  0  0  0  0  0  0  0
   -1.6896   30.3660    8.9787 C   0  0  0  0  0  0  0  0  0  0  0  0
   -2.1075   29.4208    8.0251 C   0  0  0  0  0  0  0  0  0  0  0  0
   -2.6964   31.2479    9.6722 C   0  0  0  0  0  0  0  0  0  0  0  0
   -4.0360   31.0399    9.1534 N   0  0  0  0  0  0  0  0  0  0  0  0
   -4.9453   30.1177    9.5940 C   0  0  0  0  0  0  0  0  0  0  0  0
   -6.0726   30.3445    8.8391 C   0  0  0  0  0  0  0  0  0  0  0  0
   -5.8745   31.3843    7.9674 N   0  0  0  0  0  0  0  0  0  0  0  0
   -4.6393   31.7810    8.1770 C   0  0  0  0  0  0  0  0  0  0  0  0
  6  7  1  0  0  0
  7  8  2  0  0  0
  8  1  1  0  0  0
  1  2  2  0  0  0
  2  3  1  0  0  0
  3 22  1  0  0  0
 22 23  1  0  0  0
 23 24  2  0  0  0
 24 25  1  0  0  0
 25 26  2  0  0  0
 26 28  1  0  0  0
 28 29  1  0  0  0
 29 30  1  0  0  0
 30 31  2  0  0  0
 31 32  1  0  0  0
 32 33  2  0  0  0
 26 27  1  0  0  0
  3  4  2  0  0  0
  4  5  1  0  0  0
  8  9  1  0  0  0
  9 10  2  0  0  0
 10 11  1  0  0  0
 11 12  1  0  0  0
 12 13  1  0  0  0
 13 14  2  0  0  0
 14 15  1  0  0  0
 15 16  2  0  0  0
 16 17  1  0  0  0
 17 18  2  0  0  0
 18 19  1  0  0  0
 19 20  2  0  0  0
 20 21  1  0  0  0
 11  7  1  0  0  0
 21 12  2  0  0  0
  5  1  1  0  0  0
 21 16  1  0  0  0
 27 22  2  0  0  0
 33 29  1  0  0  0
M  END
> <minimizedAffinity>
-11.11816

$$$$
OCNT-2313032


 26 28  0  0  0  0  0  0  0  0999 V2000
   -6.4475   30.1746    6.3984 N   0  0  0  0  0  0  0  0  0  0  0  0
   -6.6234   31.1193    6.0665 H   0  0  0  0  0  0  0  0  0  0  0  0
   -5.6797   26.2896    2.2354 C   0  0  0  0  0  0  0  0  0  0  0  0
   -5.8789   27.2930    3.3361 C   0  0  0  0  0  0  0  0  0  0  0  0
   -5.9397   28.6556    3.0191 C   0  0  0  0  0  0  0  0  0  0  0  0
   -6.1290   29.6216    4.0159 C   0  0  0  0  0  0  0  0  0  0  0  0
   -6.3057   29.2615    5.3537 C   0  0  0  0  0  0  0  0  0  0  0  0
   -6.2127   27.8998    5.6721 C   0  0  0  0  0  0  0  0  0  0  0  0
   -6.0100   26.9199    4.6830 C   0  0  0  0  0  0  0  0  0  0  0  0
   -5.9528   25.4925    5.0988 C   0  0  0  0  0  0  0  0  0  0  0  0
   -4.7168   25.0102    5.4339 N   0  0  0  0  0  0  0  0  0  0  0  0
   -6.9405   24.7723    5.1235 O   0  0  0  0  0  0  0  0  0  0  0  0
   -3.8709   25.5037    5.1837 H   0  0  0  0  0  0  0  0  0  0  0  0
   -4.6533   24.0120    5.5877 H   0  0  0  0  0  0  0  0  0  0  0  0
   -5.5531   30.1776    7.5584 C   0  0  0  0  0  0  0  0  0  0  0  0
   -4.8666   31.4603    7.9070 C   0  0  0  0  0  0  0  0  0  0  0  0
   -5.4414   32.6818    8.2105 C   0  0  0  0  0  0  0  0  0  0  0  0
   -4.4213   33.5348    8.5001 N   0  0  0  0  0  0  0  0  0  0  0  0
   -3.2130   32.9629    8.4269 N   0  0  0  0  0  0  0  0  0  0  0  0
   -3.4697   31.7083    8.0367 C   0  0  0  0  0  0  0  0  0  0  0  0
   -4.4766   34.5132    8.7648 H   0  0  0  0  0  0  0  0  0  0  0  0
   -2.3840   30.7394    7.8335 C   0  0  0  0  0  0  0  0  0  0  0  0
   -2.1214   29.6849    8.6843 C   0  0  0  0  0  0  0  0  0  0  0  0
   -0.7926   28.7425    8.1628 S   0  0  0  0  0  0  0  0  0  0  0  0
   -0.5294   29.7644    6.8166 C   0  0  0  0  0  0  0  0  0  0  0  0
   -1.4423   30.7968    6.7621 C   0  0  0  0  0  0  0  0  0  0  0  0
  3  4  1  0  0  0
  4  5  1  0  0  0
  5  6  2  0  0  0
  6  7  1  0  0  0
  7  1  1  0  0  0
  1 15  1  0  0  0
 15 16  1  0  0  0
 16 17  2  0  0  0
 17 18  1  0  0  0
 18 19  1  0  0  0
 19 20  2  0  0  0
 20 22  1  0  0  0
 22 23  2  0  0  0
 23 24  1  0  0  0
 24 25  1  0  0  0
 25 26  2  0  0  0
  7  8  2  0  0  0
  8  9  1  0  0  0
  9 10  1  0  0  0
 10 11  1  0  0  0
 10 12  2  0  0  0
  9  4  2  0  0  0
 20 16  1  0  0  0
 26 22  1  0  0  0
  1  2  1  0  0  0
 18 21  1  0  0  0
 11 13  1  0  0  0
 11 14  1  0  0  0
M  END
> <minimizedAffinity>
-8.54501

$$$$
OCNT-2313035


 21 23  0  0  0  0  0  0  0  0999 V2000
   -5.3039   29.4228    5.6129 N   0  0  0  0  0  0  0  0  0  0  0  0
   -4.9730   27.9961    5.8343 C   0  0  0  0  0  0  0  0  0  0  0  0
   -5.9224   27.0547    5.0558 C   0  0  0  0  0  0  0  0  0  0  0  0
   -6.0514   27.3214    3.6057 N   0  0  0  0  0  0  0  0  0  0  0  0
   -5.8893   28.7695    3.3117 C   0  0  0  0  0  0  0  0  0  0  0  0
   -6.2416   29.6854    4.5055 C   0  0  0  0  0  0  0  0  0  0  0  0
   -3.0121   31.0490    6.3575 C   0  0  0  0  0  0  0  0  0  0  0  0
   -4.2642   30.9763    7.1971 C   0  0  0  0  0  0  0  0  0  0  0  0
   -4.3371   31.6765    8.4200 C   0  0  0  0  0  0  0  0  0  0  0  0
   -2.9969   32.5793    9.0425 Cl  0  0  0  0  0  0  0  0  0  0  0  0
   -5.5009   31.6633    9.1895 C   0  0  0  0  0  0  0  0  0  0  0  0
   -6.6059   30.9434    8.7579 C   0  0  0  0  0  0  0  0  0  0  0  0
   -6.5386   30.2197    7.5668 C   0  0  0  0  0  0  0  0  0  0  0  0
   -5.3757   30.2014    6.7746 C   0  0  0  0  0  0  0  0  0  0  0  0
   -5.0998   26.5058    2.8207 C   0  0  0  0  0  0  0  0  0  0  0  0
   -5.7811   25.3954    2.0849 C   0  0  0  0  0  0  0  0  0  0  0  0
   -6.0675   25.4279    0.7705 N   0  0  0  0  0  0  0  0  0  0  0  0
   -6.6475   24.2206    0.6364 N   0  0  0  0  0  0  0  0  0  0  0  0
   -7.1346   23.7389   -0.6268 C   0  0  0  0  0  0  0  0  0  0  0  0
   -6.6896   23.4643    1.7440 N   0  0  0  0  0  0  0  0  0  0  0  0
   -6.1398   24.2163    2.6877 N   0  0  0  0  0  0  0  0  0  0  0  0
  7  8  1  0  0  0
  8  9  2  0  0  0
  9 10  1  0  0  0
  9 11  1  0  0  0
 11 12  2  0  0  0
 12 13  1  0  0  0
 13 14  2  0  0  0
 14  1  1  0  0  0
  1  2  1  0  0  0
  2  3  1  0  0  0
  3  4  1  0  0  0
  4 15  1  0  0  0
 15 16  1  0  0  0
 16 17  2  0  0  0
 17 18  1  0  0  0
 18 19  1  0  0  0
 18 20  1  0  0  0
 20 21  2  0  0  0
  4  5  1  0  0  0
  5  6  1  0  0  0
 14  8  1  0  0  0
  6  1  1  0  0  0
 21 16  1  0  0  0
M  END
> <minimizedAffinity>
-7.96344

$$$$
OCNT-2313041


 23 25  0  0  0  0  0  0  0  0999 V2000
   -3.6680   27.4663    5.6807 N   0  0  0  0  0  0  0  0  0  0  0  0
   -5.1103   27.4643    5.4080 C   0  0  0  0  0  0  0  0  0  0  0  0
   -5.5869   26.1143    4.8424 C   0  0  0  0  0  0  0  0  0  0  0  0
   -4.8737   25.7363    3.5767 N   0  0  0  0  0  0  0  0  0  0  0  0
   -3.4625   26.2533    3.5324 C   0  0  0  0  0  0  0  0  0  0  0  0
   -2.8720   26.4817    4.9317 C   0  0  0  0  0  0  0  0  0  0  0  0
   -3.2407   31.9290    7.9838 C   0  0  0  0  0  0  0  0  0  0  0  0
   -2.8928   30.5393    7.7580 N   0  0  0  0  0  0  0  0  0  0  0  0
   -1.8672   29.9712    8.4729 C   0  0  0  0  0  0  0  0  0  0  0  0
   -1.4937   28.7092    8.2473 C   0  0  0  0  0  0  0  0  0  0  0  0
   -2.0674   27.8690    7.3357 N   0  0  0  0  0  0  0  0  0  0  0  0
   -3.0560   28.3224    6.6008 C   0  0  0  0  0  0  0  0  0  0  0  0
   -3.5314   29.8187    6.7508 C   0  0  0  0  0  0  0  0  0  0  0  0
   -4.3886   30.2840    6.0088 O   0  0  0  0  0  0  0  0  0  0  0  0
   -4.9995   24.0883    3.1448 S   0  0  0  0  0  0  0  0  0  0  0  0
   -5.7829   23.4365    4.1735 O   0  0  0  0  0  0  0  0  0  0  0  0
   -3.6768   23.6127    2.8003 O   0  0  0  0  0  0  0  0  0  0  0  0
   -5.9515   24.1433    1.6495 C   0  0  0  0  0  0  0  0  0  0  0  0
   -6.8057   23.0871    1.3214 C   0  0  0  0  0  0  0  0  0  0  0  0
   -7.5466   23.1491    0.1412 C   0  0  0  0  0  0  0  0  0  0  0  0
   -7.4273   24.2560   -0.7024 C   0  0  0  0  0  0  0  0  0  0  0  0
   -6.5651   25.3037   -0.3733 C   0  0  0  0  0  0  0  0  0  0  0  0
   -5.8208   25.2498    0.8045 C   0  0  0  0  0  0  0  0  0  0  0  0
  7  8  1  0  0  0
  8  9  1  0  0  0
  9 10  2  0  0  0
 10 11  1  0  0  0
 11 12  2  0  0  0
 12  1  1  0  0  0
  1  2  1  0  0  0
  2  3  1  0  0  0
  3  4  1  0  0  0
  4 15  1  0  0  0
 15 16  2  0  0  0
 15 17  2  0  0  0
 15 18  1  0  0  0
 18 19  2  0  0  0
 19 20  1  0  0  0
 20 21  2  0  0  0
 21 22  1  0  0  0
 22 23  2  0  0  0
  4  5  1  0  0  0
  5  6  1  0  0  0
 12 13  1  0  0  0
 13 14  2  0  0  0
 13  8  1  0  0  0
  6  1  1  0  0  0
 23 18  1  0  0  0
M  END
> <minimizedAffinity>
-8.76071

$$$$
OCNT-2313046


 26 28  0  0  0  0  0  0  0  0999 V2000
   -5.4573   24.8328    3.7905 C   0  0  0  0  0  0  0  0  0  0  0  0
   -4.2737   24.7256    4.3674 N   0  0  0  0  0  0  0  0  0  0  0  0
   -3.3921   25.6891    3.8955 C   0  0  0  0  0  0  0  0  0  0  0  0
   -3.9228   26.5105    2.9199 C   0  0  0  0  0  0  0  0  0  0  0  0
   -5.5542   26.0987    2.6225 S   0  0  0  0  0  0  0  0  0  0  0  0
   -8.7968   22.2246    4.6138 C   0  0  0  0  0  0  0  0  0  0  0  0
   -8.0505   22.1040    3.4385 C   0  0  0  0  0  0  0  0  0  0  0  0
   -6.9744   22.9629    3.1921 C   0  0  0  0  0  0  0  0  0  0  0  0
   -6.6077   23.9614    4.1109 C   0  0  0  0  0  0  0  0  0  0  0  0
   -7.3630   24.0696    5.2893 C   0  0  0  0  0  0  0  0  0  0  0  0
   -8.4414   23.2110    5.5391 C   0  0  0  0  0  0  0  0  0  0  0  0
  -10.9151   21.8687    5.9075 C   0  0  0  0  0  0  0  0  0  0  0  0
   -9.9437   21.2873    4.8919 C   0  0  0  0  0  0  0  0  0  0  0  0
   -1.9888   25.7340    4.4353 C   0  0  0  0  0  0  0  0  0  0  0  0
   -1.7624   26.7921    5.4328 N   0  0  0  0  0  0  0  0  0  0  0  0
   -2.1979   26.4677    6.7830 C   0  0  0  0  0  0  0  0  0  0  0  0
   -2.3294   27.7556    7.6036 C   0  0  0  0  0  0  0  0  0  0  0  0
   -1.2279   28.7815    7.2840 C   0  0  0  0  0  0  0  0  0  0  0  0
   -0.0126   28.1044    6.6618 C   0  0  0  0  0  0  0  0  0  0  0  0
   -0.4062   27.3547    5.3807 C   0  0  0  0  0  0  0  0  0  0  0  0
   -0.9336   29.6686    8.4537 N   0  0  0  0  0  0  0  0  0  0  0  0
    0.4736   29.6310    8.9055 C   0  0  0  0  0  0  0  0  0  0  0  0
   -1.8111   31.0586    8.8478 S   0  0  0  0  0  0  0  0  0  0  0  0
   -2.3288   31.6689    7.2579 C   0  0  0  0  0  0  0  0  0  0  0  0
   -2.9994   30.6899    9.5841 O   0  0  0  0  0  0  0  0  0  0  0  0
   -0.8830   32.0280    9.3941 O   0  0  0  0  0  0  0  0  0  0  0  0
 12 13  1  0  0  0
 13  6  1  0  0  0
  6  7  1  0  0  0
  7  8  2  0  0  0
  8  9  1  0  0  0
  9  1  1  0  0  0
  1  2  2  0  0  0
  2  3  1  0  0  0
  3 14  1  0  0  0
 14 15  1  0  0  0
 15 16  1  0  0  0
 16 17  1  0  0  0
 17 18  1  0  0  0
 18 21  1  0  0  0
 21 22  1  0  0  0
 21 23  1  0  0  0
 23 24  1  0  0  0
 23 25  2  0  0  0
 23 26  2  0  0  0
 18 19  1  0  0  0
 19 20  1  0  0  0
  3  4  2  0  0  0
  4  5  1  0  0  0
  9 10  2  0  0  0
 10 11  1  0  0  0
 11  6  2  0  0  0
  5  1  1  0  0  0
 20 15  1  0  0  0
M  END
> <minimizedAffinity>
-8.09235

$$$$
OCNT-2313053


 30 33  0  0  0  0  0  0  0  0999 V2000
   -3.6168   26.4388    4.3494 C   0  0  0  0  0  0  0  0  0  0  0  0
   -3.2311   25.6518    3.2770 C   0  0  0  0  0  0  0  0  0  0  0  0
   -4.1943   25.7929    2.3221 N   0  0  0  0  0  0  0  0  0  0  0  0
   -5.2227   26.5624    2.7182 N   0  0  0  0  0  0  0  0  0  0  0  0
   -4.8714   27.0023    3.9390 C   0  0  0  0  0  0  0  0  0  0  0  0
   -5.7592   27.8982    4.6705 C   0  0  0  0  0  0  0  0  0  0  0  0
   -6.4832   27.4431    5.7802 C   0  0  0  0  0  0  0  0  0  0  0  0
   -7.3322   28.3160    6.4593 C   0  0  0  0  0  0  0  0  0  0  0  0
   -7.4353   29.6227    5.9985 C   0  0  0  0  0  0  0  0  0  0  0  0
   -6.7611   30.1001    4.9260 N   0  0  0  0  0  0  0  0  0  0  0  0
   -5.9451   29.2241    4.2854 C   0  0  0  0  0  0  0  0  0  0  0  0
   -2.9137   26.5744    5.6605 C   0  0  0  0  0  0  0  0  0  0  0  0
   -2.4390   27.9450    5.8853 N   0  0  0  0  0  0  0  0  0  0  0  0
   -1.4469   27.9259    6.1191 H   0  0  0  0  0  0  0  0  0  0  0  0
   -3.1747   28.6472    6.9563 C   0  0  0  0  0  0  0  0  0  0  0  0
   -3.0333   30.8403    5.9677 O   0  0  0  0  0  0  0  0  0  0  0  0
   -2.6341   30.0994    7.1417 C   0  0  0  0  0  0  0  0  0  0  0  0
   -1.0908   30.1799    7.2285 C   0  0  0  0  0  0  0  0  0  0  0  0
   -0.6000   30.3712    8.6625 C   0  0  0  0  0  0  0  0  0  0  0  0
   -1.1316   31.6722    9.2648 C   0  0  0  0  0  0  0  0  0  0  0  0
   -2.5703   31.9915    8.8410 C   0  0  0  0  0  0  0  0  0  0  0  0
   -3.3237   30.7513    8.3589 C   0  0  0  0  0  0  0  0  0  0  0  0
   -2.9038   30.2049    5.2304 H   0  0  0  0  0  0  0  0  0  0  0  0
   -4.2152   25.1659    1.0050 C   0  0  0  0  0  0  0  0  0  0  0  0
   -5.4803   24.3691    0.7897 C   0  0  0  0  0  0  0  0  0  0  0  0
   -6.4688   24.8251   -0.0945 C   0  0  0  0  0  0  0  0  0  0  0  0
   -7.6373   24.0856   -0.2919 C   0  0  0  0  0  0  0  0  0  0  0  0
   -7.8263   22.8801    0.3842 C   0  0  0  0  0  0  0  0  0  0  0  0
   -6.8505   22.4135    1.2621 C   0  0  0  0  0  0  0  0  0  0  0  0
   -5.6837   23.1540    1.4646 C   0  0  0  0  0  0  0  0  0  0  0  0
 16 17  1  0  0  0
 17 15  1  0  0  0
 15 13  1  0  0  0
 13 12  1  0  0  0
 12  1  1  0  0  0
  1  2  2  0  0  0
  2  3  1  0  0  0
  3 24  1  0  0  0
 24 25  1  0  0  0
 25 26  2  0  0  0
 26 27  1  0  0  0
 27 28  2  0  0  0
 28 29  1  0  0  0
 29 30  2  0  0  0
  3  4  1  0  0  0
  4  5  2  0  0  0
  5  6  1  0  0  0
  6  7  1  0  0  0
  7  8  2  0  0  0
  8  9  1  0  0  0
  9 10  2  0  0  0
 10 11  1  0  0  0
 17 18  1  0  0  0
 18 19  1  0  0  0
 19 20  1  0  0  0
 20 21  1  0  0  0
 21 22  1  0  0  0
 22 17  1  0  0  0
  5  1  1  0  0  0
 11  6  2  0  0  0
 30 25  1  0  0  0
 16 23  1  0  0  0
 13 14  1  0  0  0
M  END
> <minimizedAffinity>
-9.89682

$$$$
OCNT-2313058


 24 26  0  0  0  0  0  0  0  0999 V2000
    0.5552   29.3384    6.1768 O   0  0  0  0  0  0  0  0  0  0  0  0
    0.0791   28.8588    7.1985 C   0  0  0  0  0  0  0  0  0  0  0  0
   -0.8707   27.8512    7.2719 N   0  0  0  0  0  0  0  0  0  0  0  0
   -1.1616   27.5714    8.2002 H   0  0  0  0  0  0  0  0  0  0  0  0
   -1.4819   27.1670    6.2016 C   0  0  0  0  0  0  0  0  0  0  0  0
   -0.7991   26.3519    5.3013 C   0  0  0  0  0  0  0  0  0  0  0  0
   -1.4803   25.7039    4.2603 C   0  0  0  0  0  0  0  0  0  0  0  0
   -2.8631   25.8619    4.1031 C   0  0  0  0  0  0  0  0  0  0  0  0
   -3.5508   26.6807    5.0075 C   0  0  0  0  0  0  0  0  0  0  0  0
   -2.8628   27.3248    6.0451 C   0  0  0  0  0  0  0  0  0  0  0  0
   -3.5534   25.2023    3.0442 N   0  0  0  0  0  0  0  0  0  0  0  0
   -3.8897   23.8665    2.9646 C   0  0  0  0  0  0  0  0  0  0  0  0
   -4.5421   23.7033    1.7657 C   0  0  0  0  0  0  0  0  0  0  0  0
   -4.6250   24.8875    1.0950 N   0  0  0  0  0  0  0  0  0  0  0  0
   -4.0299   25.7623    1.8764 C   0  0  0  0  0  0  0  0  0  0  0  0
    0.4837   29.3389    8.5864 C   0  0  0  0  0  0  0  0  0  0  0  0
   -0.2322   30.6298    8.9876 C   0  0  0  0  0  0  0  0  0  0  0  0
   -1.6952   30.6920    8.5134 C   0  0  0  0  0  0  0  0  0  0  0  0
   -2.6129   31.0760    9.6863 C   0  0  0  0  0  0  0  0  0  0  0  0
   -4.0631   31.2378    9.2345 C   0  0  0  0  0  0  0  0  0  0  0  0
   -4.1873   32.2182    8.1549 N   0  0  0  0  0  0  0  0  0  0  0  0
   -3.3817   31.8258    6.9991 C   0  0  0  0  0  0  0  0  0  0  0  0
   -1.9014   31.6799    7.3547 C   0  0  0  0  0  0  0  0  0  0  0  0
   -3.8633   33.1246    8.4938 H   0  0  0  0  0  0  0  0  0  0  0  0
  1  2  2  0  0  0
  2 16  1  0  0  0
 16 17  1  0  0  0
 17 18  1  0  0  0
 18 19  1  0  0  0
 19 20  1  0  0  0
 20 21  1  0  0  0
 21 22  1  0  0  0
 22 23  1  0  0  0
  2  3  1  0  0  0
  3  5  1  0  0  0
  5  6  1  0  0  0
  6  7  2  0  0  0
  7  8  1  0  0  0
  8 11  1  0  0  0
 11 12  1  0  0  0
 12 13  2  0  0  0
 13 14  1  0  0  0
 14 15  2  0  0  0
  8  9  2  0  0  0
  9 10  1  0  0  0
 23 18  1  0  0  0
 10  5  2  0  0  0
 15 11  1  0  0  0
 21 24  1  0  0  0
  3  4  1  0  0  0
M  END
> <minimizedAffinity>
-8.27691

$$$$
OCNT-2313062


 24 26  0  0  0  0  0  0  0  0999 V2000
   -1.3514   28.3147    8.4848 N   0  0  0  0  0  0  0  0  0  0  0  0
   -2.0398   27.7066    8.9430 H   0  0  0  0  0  0  0  0  0  0  0  0
   -1.7279   29.6607    8.6888 C   0  0  0  0  0  0  0  0  0  0  0  0
   -0.7904   30.6710    8.9082 C   0  0  0  0  0  0  0  0  0  0  0  0
   -1.2307   31.9614    9.1358 C   0  0  0  0  0  0  0  0  0  0  0  0
   -2.5267   32.3195    9.1839 N   0  0  0  0  0  0  0  0  0  0  0  0
   -3.4454   31.3580    9.0223 C   0  0  0  0  0  0  0  0  0  0  0  0
   -4.7788   31.7256    9.1031 C   0  0  0  0  0  0  0  0  0  0  0  0
   -5.7909   30.7854    8.9677 C   0  0  0  0  0  0  0  0  0  0  0  0
   -7.0700   31.1735    9.0546 F   0  0  0  0  0  0  0  0  0  0  0  0
   -5.4975   29.4512    8.7520 C   0  0  0  0  0  0  0  0  0  0  0  0
   -4.1634   29.0594    8.6636 C   0  0  0  0  0  0  0  0  0  0  0  0
   -3.1096   30.0010    8.7852 C   0  0  0  0  0  0  0  0  0  0  0  0
   -1.1007   27.8120    7.1327 C   0  0  0  0  0  0  0  0  0  0  0  0
   -2.0104   26.6217    6.8266 C   0  0  0  0  0  0  0  0  0  0  0  0
   -5.1196   24.5753    3.1020 C   0  0  0  0  0  0  0  0  0  0  0  0
   -4.7906   26.0332    2.7666 C   0  0  0  0  0  0  0  0  0  0  0  0
   -5.8421   26.9994    3.3250 C   0  0  0  0  0  0  0  0  0  0  0  0
   -5.7529   27.1224    4.8426 C   0  0  0  0  0  0  0  0  0  0  0  0
   -4.3399   27.4744    5.2956 C   0  0  0  0  0  0  0  0  0  0  0  0
   -3.3313   26.5814    4.7209 N   0  0  0  0  0  0  0  0  0  0  0  0
   -2.1061   26.3222    5.3407 C   0  0  0  0  0  0  0  0  0  0  0  0
   -1.1404   25.8707    4.7219 O   0  0  0  0  0  0  0  0  0  0  0  0
   -3.3906   26.4103    3.2675 C   0  0  0  0  0  0  0  0  0  0  0  0
 16 17  1  0  0  0
 17 18  1  0  0  0
 18 19  1  0  0  0
 19 20  1  0  0  0
 20 21  1  0  0  0
 21 22  1  0  0  0
 22 23  2  0  0  0
 22 15  1  0  0  0
 15 14  1  0  0  0
 14  1  1  0  0  0
  1  3  1  0  0  0
  3  4  2  0  0  0
  4  5  1  0  0  0
  5  6  2  0  0  0
  6  7  1  0  0  0
  7  8  2  0  0  0
  8  9  1  0  0  0
  9 10  1  0  0  0
  9 11  2  0  0  0
 11 12  1  0  0  0
 12 13  2  0  0  0
 21 24  1  0  0  0
 24 17  1  0  0  0
 13  3  1  0  0  0
 13  7  1  0  0  0
  1  2  1  0  0  0
M  END
> <minimizedAffinity>
-9.12216

$$$$
OCNT-2313080


 23 25  0  0  0  0  0  0  0  0999 V2000
   -2.7830   27.1280    5.7698 C   0  0  0  0  0  0  0  0  0  0  0  0
   -1.4998   26.6512    5.5883 C   0  0  0  0  0  0  0  0  0  0  0  0
   -0.4201   27.1437    6.2313 N   0  0  0  0  0  0  0  0  0  0  0  0
   -0.6048   28.1682    7.0732 C   0  0  0  0  0  0  0  0  0  0  0  0
    0.5199   28.6579    7.7262 C   0  0  0  0  0  0  0  0  0  0  0  0
    0.4479   29.7289    8.6153 C   0  0  0  0  0  0  0  0  0  0  0  0
   -0.7791   30.3214    8.8500 C   0  0  0  0  0  0  0  0  0  0  0  0
   -0.8710   31.3522    9.7030 F   0  0  0  0  0  0  0  0  0  0  0  0
   -1.9247   29.8542    8.2172 C   0  0  0  0  0  0  0  0  0  0  0  0
   -1.8742   28.7615    7.3160 C   0  0  0  0  0  0  0  0  0  0  0  0
   -3.0060   28.2155    6.6356 C   0  0  0  0  0  0  0  0  0  0  0  0
   -4.3140   28.7074    6.7656 N   0  0  0  0  0  0  0  0  0  0  0  0
   -4.6938   29.8400    5.9063 C   0  0  0  0  0  0  0  0  0  0  0  0
   -6.2324   30.0201    5.9132 C   0  0  0  0  0  0  0  0  0  0  0  0
   -6.8595   30.0922    7.2541 N   0  0  0  0  0  0  0  0  0  0  0  0
   -6.5611   31.3570    7.9214 C   0  0  0  0  0  0  0  0  0  0  0  0
   -6.4160   28.9284    8.0566 C   0  0  0  0  0  0  0  0  0  0  0  0
   -4.8835   28.7147    8.1224 C   0  0  0  0  0  0  0  0  0  0  0  0
   -3.8464   26.4728    4.9986 C   0  0  0  0  0  0  0  0  0  0  0  0
   -4.6616   25.7143    5.4965 O   0  0  0  0  0  0  0  0  0  0  0  0
   -3.8264   26.9232    3.7188 O   0  0  0  0  0  0  0  0  0  0  0  0
   -5.9280   27.8352    3.0483 C   0  0  0  0  0  0  0  0  0  0  0  0
   -5.0138   26.6266    2.9769 C   0  0  0  0  0  0  0  0  0  0  0  0
 22 23  1  0  0  0
 23 21  1  0  0  0
 21 19  1  0  0  0
 19 20  2  0  0  0
 19  1  1  0  0  0
  1  2  1  0  0  0
  2  3  2  0  0  0
  3  4  1  0  0  0
  4  5  2  0  0  0
  5  6  1  0  0  0
  6  7  2  0  0  0
  7  8  1  0  0  0
  7  9  1  0  0  0
  9 10  2  0  0  0
 10 11  1  0  0  0
 11 12  1  0  0  0
 12 13  1  0  0  0
 13 14  1  0  0  0
 14 15  1  0  0  0
 15 16  1  0  0  0
 15 17  1  0  0  0
 17 18  1  0  0  0
 11  1  2  0  0  0
 18 12  1  0  0  0
 10  4  1  0  0  0
M  END
> <minimizedAffinity>
-7.67011

$$$$
OCNT-2313085


 23 25  0  0  0  0  0  0  0  0999 V2000
   -3.2575   26.6395    4.8533 N   0  0  0  0  0  0  0  0  0  0  0  0
   -4.6817   26.2501    4.9343 C   0  0  0  0  0  0  0  0  0  0  0  0
   -5.0525   24.8950    4.2857 C   0  0  0  0  0  0  0  0  0  0  0  0
   -4.6235   24.8324    2.8782 N   0  0  0  0  0  0  0  0  0  0  0  0
   -3.5781   25.7894    2.4752 C   0  0  0  0  0  0  0  0  0  0  0  0
   -2.6133   26.0536    3.6562 C   0  0  0  0  0  0  0  0  0  0  0  0
   -5.3749   24.1413    1.9334 C   0  0  0  0  0  0  0  0  0  0  0  0
   -6.1843   24.8361    1.0144 C   0  0  0  0  0  0  0  0  0  0  0  0
   -6.9656   24.1755    0.0558 C   0  0  0  0  0  0  0  0  0  0  0  0
   -6.9651   22.7876   -0.0112 C   0  0  0  0  0  0  0  0  0  0  0  0
   -6.1854   22.0656    0.8837 C   0  0  0  0  0  0  0  0  0  0  0  0
   -5.4109   22.7343    1.8361 C   0  0  0  0  0  0  0  0  0  0  0  0
   -4.6668   21.9688    2.6516 F   0  0  0  0  0  0  0  0  0  0  0  0
   -2.5300   26.3395    6.1005 C   0  0  0  0  0  0  0  0  0  0  0  0
   -0.1175   26.7387    6.3645 O   0  0  0  0  0  0  0  0  0  0  0  0
   -1.4064   27.3530    6.4567 C   0  0  0  0  0  0  0  0  0  0  0  0
   -0.1376   25.9240    6.8952 H   0  0  0  0  0  0  0  0  0  0  0  0
   -1.5956   27.8862    7.8822 C   0  0  0  0  0  0  0  0  0  0  0  0
   -1.6065   29.4124    7.9694 C   0  0  0  0  0  0  0  0  0  0  0  0
   -0.4354   30.0448    8.7034 C   0  0  0  0  0  0  0  0  0  0  0  0
   -1.0362   31.3459    9.1734 C   0  0  0  0  0  0  0  0  0  0  0  0
   -2.4420   30.9270    9.5422 C   0  0  0  0  0  0  0  0  0  0  0  0
   -2.7866   29.8223    8.6935 O   0  0  0  0  0  0  0  0  0  0  0  0
 15 16  1  0  0  0
 16 18  1  0  0  0
 18 19  1  0  0  0
 19 20  1  0  0  0
 20 21  1  0  0  0
 21 22  1  0  0  0
 22 23  1  0  0  0
 16 14  1  0  0  0
 14  1  1  0  0  0
  1  2  1  0  0  0
  2  3  1  0  0  0
  3  4  1  0  0  0
  4  7  1  0  0  0
  7  8  2  0  0  0
  8  9  1  0  0  0
  9 10  2  0  0  0
 10 11  1  0  0  0
 11 12  2  0  0  0
 12 13  1  0  0  0
  4  5  1  0  0  0
  5  6  1  0  0  0
 23 19  1  0  0  0
  6  1  1  0  0  0
 12  7  1  0  0  0
 15 17  1  0  0  0
M  END
> <minimizedAffinity>
-8.76426

$$$$
OCNT-2313088


 26 29  0  0  0  0  0  0  0  0999 V2000
   -3.7188   27.1333    5.2869 C   0  0  0  0  0  0  0  0  0  0  0  0
   -5.0900   26.8447    5.2936 C   0  0  0  0  0  0  0  0  0  0  0  0
   -5.6129   25.8204    4.4950 C   0  0  0  0  0  0  0  0  0  0  0  0
   -4.7736   25.0678    3.6698 C   0  0  0  0  0  0  0  0  0  0  0  0
   -3.4030   25.3424    3.6801 C   0  0  0  0  0  0  0  0  0  0  0  0
   -2.8799   26.3708    4.4752 C   0  0  0  0  0  0  0  0  0  0  0  0
   -5.2848   23.9833    2.8325 C   0  0  0  0  0  0  0  0  0  0  0  0
   -5.1704   22.6963    3.1148 N   0  0  0  0  0  0  0  0  0  0  0  0
   -5.7771   22.0171    2.0915 C   0  0  0  0  0  0  0  0  0  0  0  0
   -6.2515   22.8904    1.1428 C   0  0  0  0  0  0  0  0  0  0  0  0
   -6.9314   22.6807   -0.1629 C   0  0  0  0  0  0  0  0  0  0  0  0
   -7.5389   23.9777   -0.7023 C   0  0  0  0  0  0  0  0  0  0  0  0
   -6.5570   25.1415   -0.5562 C   0  0  0  0  0  0  0  0  0  0  0  0
   -6.2068   25.3713    0.9141 C   0  0  0  0  0  0  0  0  0  0  0  0
   -5.9173   24.1365    1.6184 N   0  0  0  0  0  0  0  0  0  0  0  0
   -2.4991   28.0880    7.2664 C   0  0  0  0  0  0  0  0  0  0  0  0
   -2.0388   27.0399    7.7019 O   0  0  0  0  0  0  0  0  0  0  0  0
   -3.2814   28.1815    6.1266 N   0  0  0  0  0  0  0  0  0  0  0  0
   -3.5843   29.1027    5.8497 H   0  0  0  0  0  0  0  0  0  0  0  0
   -1.0025   29.8725    8.2081 N   0  0  0  0  0  0  0  0  0  0  0  0
   -1.0948   31.0713    8.8159 N   0  0  0  0  0  0  0  0  0  0  0  0
   -2.3780   31.3597    8.9477 N   0  0  0  0  0  0  0  0  0  0  0  0
   -3.0927   30.3267    8.4201 C   0  0  0  0  0  0  0  0  0  0  0  0
   -2.2459   29.3509    7.9251 C   0  0  0  0  0  0  0  0  0  0  0  0
    0.6782   29.3238    6.4868 C   0  0  0  0  0  0  0  0  0  0  0  0
    0.3126   29.3186    7.9612 C   0  0  0  0  0  0  0  0  0  0  0  0
 25 26  1  0  0  0
 26 20  1  0  0  0
 20 21  1  0  0  0
 21 22  2  0  0  0
 22 23  1  0  0  0
 23 24  2  0  0  0
 24 16  1  0  0  0
 16 17  2  0  0  0
 16 18  1  0  0  0
 18  1  1  0  0  0
  1  2  1  0  0  0
  2  3  2  0  0  0
  3  4  1  0  0  0
  4  7  1  0  0  0
  7  8  2  0  0  0
  8  9  1  0  0  0
  9 10  2  0  0  0
 10 11  1  0  0  0
 11 12  1  0  0  0
 12 13  1  0  0  0
 13 14  1  0  0  0
 14 15  1  0  0  0
  4  5  2  0  0  0
  5  6  1  0  0  0
 24 20  1  0  0  0
  6  1  2  0  0  0
 15  7  1  0  0  0
 15 10  1  0  0  0
 18 19  1  0  0  0
M  END
> <minimizedAffinity>
-9.48826

$$$$
OCNT-2313093


 24 26  0  0  0  0  0  0  0  0999 V2000
   -4.6577   34.3804    8.6355 C   0  0  0  0  0  0  0  0  0  0  0  0
   -4.4125   32.9274    8.3632 C   0  0  0  0  0  0  0  0  0  0  0  0
   -5.4709   32.0647    8.1935 C   0  0  0  0  0  0  0  0  0  0  0  0
   -5.1453   30.7525    7.9285 C   0  0  0  0  0  0  0  0  0  0  0  0
   -3.8627   30.3250    7.8371 N   0  0  0  0  0  0  0  0  0  0  0  0
   -2.8848   31.2253    8.0233 C   0  0  0  0  0  0  0  0  0  0  0  0
   -3.1296   32.5202    8.2829 N   0  0  0  0  0  0  0  0  0  0  0  0
   -1.5828   30.8101    7.9161 N   0  0  0  0  0  0  0  0  0  0  0  0
   -1.0947   30.2327    6.6748 C   0  0  0  0  0  0  0  0  0  0  0  0
   -0.0270   29.2325    7.1261 C   0  0  0  0  0  0  0  0  0  0  0  0
    0.4085   29.7557    8.4874 C   0  0  0  0  0  0  0  0  0  0  0  0
   -0.8995   30.2737    9.0786 C   0  0  0  0  0  0  0  0  0  0  0  0
   -6.2261   29.7209    7.6766 C   0  0  0  0  0  0  0  0  0  0  0  0
   -6.8813   29.9512    6.3842 N   0  0  0  0  0  0  0  0  0  0  0  0
   -7.8912   29.9519    6.5377 H   0  0  0  0  0  0  0  0  0  0  0  0
   -6.5727   29.0230    5.3805 C   0  0  0  0  0  0  0  0  0  0  0  0
   -6.2921   29.5054    4.1038 C   0  0  0  0  0  0  0  0  0  0  0  0
   -5.9516   28.6163    3.0837 C   0  0  0  0  0  0  0  0  0  0  0  0
   -5.8882   27.2562    3.3603 C   0  0  0  0  0  0  0  0  0  0  0  0
   -5.4734   26.1666    2.0936 Cl  0  0  0  0  0  0  0  0  0  0  0  0
   -6.1631   26.8494    4.6589 C   0  0  0  0  0  0  0  0  0  0  0  0
   -6.4897   27.7090    5.6649 N   0  0  0  0  0  0  0  0  0  0  0  0
   -6.1329   25.4687    5.0521 C   0  0  0  0  0  0  0  0  0  0  0  0
   -6.1029   24.3485    5.3615 N   0  0  0  0  0  0  0  0  0  0  0  0
  1  2  1  0  0  0
  2  3  2  0  0  0
  3  4  1  0  0  0
  4 13  1  0  0  0
 13 14  1  0  0  0
 14 16  1  0  0  0
 16 17  2  0  0  0
 17 18  1  0  0  0
 18 19  2  0  0  0
 19 20  1  0  0  0
 19 21  1  0  0  0
 21 23  1  0  0  0
 23 24  3  0  0  0
 21 22  2  0  0  0
  4  5  2  0  0  0
  5  6  1  0  0  0
  6  8  1  0  0  0
  8  9  1  0  0  0
  9 10  1  0  0  0
 10 11  1  0  0  0
 11 12  1  0  0  0
  6  7  2  0  0  0
  7  2  1  0  0  0
 22 16  1  0  0  0
 12  8  1  0  0  0
 14 15  1  0  0  0
M  END
> <minimizedAffinity>
-8.66346

$$$$
OCNT-2313100


 24 26  0  0  0  0  0  0  0  0999 V2000
   -4.2866   26.9316    4.7712 N   0  0  0  0  0  0  0  0  0  0  0  0
   -4.6363   27.7357    5.2919 H   0  0  0  0  0  0  0  0  0  0  0  0
   -4.3505   27.1010    3.3125 C   0  0  0  0  0  0  0  0  0  0  0  0
   -5.7876   26.7829    2.8484 C   0  0  0  0  0  0  0  0  0  0  0  0
   -5.3820   25.2846    2.7026 C   0  0  0  0  0  0  0  0  0  0  0  0
   -3.9102   25.7954    2.6180 C   0  0  0  0  0  0  0  0  0  0  0  0
   -6.0042   24.4392    1.4944 C   0  0  0  0  0  0  0  0  0  0  0  0
   -6.5629   25.0793    0.3652 C   0  0  0  0  0  0  0  0  0  0  0  0
   -7.1208   24.3724   -0.7031 C   0  0  0  0  0  0  0  0  0  0  0  0
   -7.1344   22.9861   -0.6820 C   0  0  0  0  0  0  0  0  0  0  0  0
   -6.5791   22.3121    0.4002 C   0  0  0  0  0  0  0  0  0  0  0  0
   -6.0034   23.0193    1.4723 C   0  0  0  0  0  0  0  0  0  0  0  0
   -5.4151   22.2304    2.6127 C   0  0  0  0  0  0  0  0  0  0  0  0
   -2.9122   26.6765    5.2128 C   0  0  0  0  0  0  0  0  0  0  0  0
   -2.7613   29.0135    8.1224 C   0  0  0  0  0  0  0  0  0  0  0  0
   -3.3775   28.5522    6.9710 C   0  0  0  0  0  0  0  0  0  0  0  0
   -2.6137   27.4681    6.4481 C   0  0  0  0  0  0  0  0  0  0  0  0
   -1.5383   27.3092    7.3029 C   0  0  0  0  0  0  0  0  0  0  0  0
   -1.6389   28.2374    8.3039 N   0  0  0  0  0  0  0  0  0  0  0  0
   -0.9901   28.3537    9.0733 H   0  0  0  0  0  0  0  0  0  0  0  0
   -3.1153   30.0749    9.0318 C   0  0  0  0  0  0  0  0  0  0  0  0
   -4.2600   30.3342    9.3806 O   0  0  0  0  0  0  0  0  0  0  0  0
   -2.2644   32.0209   10.0079 C   0  0  0  0  0  0  0  0  0  0  0  0
   -1.9995   30.7389    9.4407 O   0  0  0  0  0  0  0  0  0  0  0  0
 23 24  1  0  0  0
 24 21  1  0  0  0
 21 22  2  0  0  0
 21 15  1  0  0  0
 15 16  2  0  0  0
 16 17  1  0  0  0
 17 14  1  0  0  0
 14  1  1  0  0  0
  1  3  1  0  0  0
  3  4  1  0  0  0
  4  5  1  0  0  0
  5  7  1  0  0  0
  7  8  2  0  0  0
  8  9  1  0  0  0
  9 10  2  0  0  0
 10 11  1  0  0  0
 11 12  2  0  0  0
 12 13  1  0  0  0
  5  6  1  0  0  0
 17 18  2  0  0  0
 18 19  1  0  0  0
 19 15  1  0  0  0
  6  3  1  0  0  0
 12  7  1  0  0  0
  1  2  1  0  0  0
 19 20  1  0  0  0
M  END
> <minimizedAffinity>
-8.69603

$$$$
OCNT-2313101


 25 27  0  0  0  0  0  0  0  0999 V2000
   -3.7919   30.7903    7.8516 C   0  0  0  0  0  0  0  0  0  0  0  0
   -4.2051   31.6082    9.1104 C   0  0  0  0  0  0  0  0  0  0  0  0
   -3.1128   32.5200    9.6486 C   0  0  0  0  0  0  0  0  0  0  0  0
   -1.9091   31.6888   10.0585 C   0  0  0  0  0  0  0  0  0  0  0  0
   -1.4524   30.7594    8.9643 C   0  0  0  0  0  0  0  0  0  0  0  0
   -0.1219   30.3043    9.0027 C   0  0  0  0  0  0  0  0  0  0  0  0
    0.3678   29.4378    8.0295 C   0  0  0  0  0  0  0  0  0  0  0  0
   -0.4676   29.0098    7.0070 C   0  0  0  0  0  0  0  0  0  0  0  0
   -1.7943   29.4416    6.9649 C   0  0  0  0  0  0  0  0  0  0  0  0
   -2.3217   30.3102    7.9471 C   0  0  0  0  0  0  0  0  0  0  0  0
   -4.5817   32.9252    6.7660 O   0  0  0  0  0  0  0  0  0  0  0  0
   -3.9339   31.6716    6.5569 C   0  0  0  0  0  0  0  0  0  0  0  0
   -4.0720   33.4029    7.4463 H   0  0  0  0  0  0  0  0  0  0  0  0
   -4.6709   29.5902    7.7872 N   0  0  0  0  0  0  0  0  0  0  0  0
   -4.1798   28.8208    7.3403 H   0  0  0  0  0  0  0  0  0  0  0  0
   -5.9633   29.7587    7.1315 C   0  0  0  0  0  0  0  0  0  0  0  0
   -5.9723   29.0254    5.8095 C   0  0  0  0  0  0  0  0  0  0  0  0
   -6.1168   29.7356    4.6082 C   0  0  0  0  0  0  0  0  0  0  0  0
   -6.1392   29.0603    3.3911 C   0  0  0  0  0  0  0  0  0  0  0  0
   -6.2755   29.8051    2.2567 O   0  0  0  0  0  0  0  0  0  0  0  0
   -6.0272   27.6757    3.3399 C   0  0  0  0  0  0  0  0  0  0  0  0
   -5.8943   26.9656    4.5317 C   0  0  0  0  0  0  0  0  0  0  0  0
   -5.7618   25.2492    4.4891 Cl  0  0  0  0  0  0  0  0  0  0  0  0
   -5.8684   27.6276    5.7610 C   0  0  0  0  0  0  0  0  0  0  0  0
   -6.3011   29.2109    1.4887 H   0  0  0  0  0  0  0  0  0  0  0  0
 11 12  1  0  0  0
 12  1  1  0  0  0
  1 14  1  0  0  0
 14 16  1  0  0  0
 16 17  1  0  0  0
 17 18  1  0  0  0
 18 19  2  0  0  0
 19 20  1  0  0  0
 19 21  1  0  0  0
 21 22  2  0  0  0
 22 23  1  0  0  0
 22 24  1  0  0  0
  1  2  1  0  0  0
  2  3  1  0  0  0
  3  4  1  0  0  0
  4  5  1  0  0  0
  5  6  2  0  0  0
  6  7  1  0  0  0
  7  8  2  0  0  0
  8  9  1  0  0  0
  9 10  2  0  0  0
 10  1  1  0  0  0
 24 17  2  0  0  0
 10  5  1  0  0  0
 11 13  1  0  0  0
 14 15  1  0  0  0
 20 25  1  0  0  0
M  END
> <minimizedAffinity>
-9.36397

$$$$
OCNT-2313106


 28 31  0  0  0  0  0  0  0  0999 V2000
   -4.7568   27.4801    3.8210 C   0  0  0  0  0  0  0  0  0  0  0  0
   -3.5130   25.7367    1.9787 O   0  0  0  0  0  0  0  0  0  0  0  0
   -4.7086   25.6116    2.2136 C   0  0  0  0  0  0  0  0  0  0  0  0
   -5.3744   26.3229    3.1888 N   0  0  0  0  0  0  0  0  0  0  0  0
   -6.3813   26.2620    3.2393 H   0  0  0  0  0  0  0  0  0  0  0  0
   -5.5408   24.6638    1.4314 C   0  0  0  0  0  0  0  0  0  0  0  0
   -6.3417   25.1150    0.3700 C   0  0  0  0  0  0  0  0  0  0  0  0
   -7.1054   24.2089   -0.3840 C   0  0  0  0  0  0  0  0  0  0  0  0
   -7.0753   22.8429   -0.0968 C   0  0  0  0  0  0  0  0  0  0  0  0
   -6.2807   22.4051    0.9505 C   0  0  0  0  0  0  0  0  0  0  0  0
   -5.5158   23.3022    1.7089 C   0  0  0  0  0  0  0  0  0  0  0  0
   -4.7167   22.5657    2.7416 C   0  0  0  0  0  0  0  0  0  0  0  0
   -5.4555   21.2210    2.7948 C   0  0  0  0  0  0  0  0  0  0  0  0
   -6.0560   20.9953    1.4018 C   0  0  0  0  0  0  0  0  0  0  0  0
   -4.7593   27.3677    5.3771 C   0  0  0  0  0  0  0  0  0  0  0  0
   -5.6216   28.4392    6.0407 C   0  0  0  0  0  0  0  0  0  0  0  0
   -6.5549   29.1524    5.2661 C   0  0  0  0  0  0  0  0  0  0  0  0
   -7.3623   30.1396    5.8364 C   0  0  0  0  0  0  0  0  0  0  0  0
   -7.2513   30.4320    7.1937 C   0  0  0  0  0  0  0  0  0  0  0  0
   -6.3320   29.7358    7.9729 C   0  0  0  0  0  0  0  0  0  0  0  0
   -6.1938   30.0906    9.6516 Cl  0  0  0  0  0  0  0  0  0  0  0  0
   -5.5212   28.7496    7.4072 C   0  0  0  0  0  0  0  0  0  0  0  0
   -3.3778   27.2266    5.9167 N   0  0  0  0  0  0  0  0  0  0  0  0
   -2.8182   28.5049    6.3981 C   0  0  0  0  0  0  0  0  0  0  0  0
   -1.4566   28.2832    7.0773 C   0  0  0  0  0  0  0  0  0  0  0  0
   -0.5270   27.6489    6.1892 O   0  0  0  0  0  0  0  0  0  0  0  0
   -1.0518   26.3955    5.7342 C   0  0  0  0  0  0  0  0  0  0  0  0
   -2.4035   26.5795    5.0216 C   0  0  0  0  0  0  0  0  0  0  0  0
  2  3  2  0  0  0
  3  4  1  0  0  0
  4  1  1  0  0  0
  1 15  1  0  0  0
 15 16  1  0  0  0
 16 17  2  0  0  0
 17 18  1  0  0  0
 18 19  2  0  0  0
 19 20  1  0  0  0
 20 21  1  0  0  0
 20 22  2  0  0  0
 15 23  1  0  0  0
 23 24  1  0  0  0
 24 25  1  0  0  0
 25 26  1  0  0  0
 26 27  1  0  0  0
 27 28  1  0  0  0
  3  6  1  0  0  0
  6  7  1  0  0  0
  7  8  2  0  0  0
  8  9  1  0  0  0
  9 10  2  0  0  0
 10 11  1  0  0  0
 11 12  1  0  0  0
 12 13  1  0  0  0
 13 14  1  0  0  0
 22 16  1  0  0  0
 28 23  1  0  0  0
 11  6  2  0  0  0
 14 10  1  0  0  0
  4  5  1  0  0  0
M  END
> <minimizedAffinity>
-9.92367

$$$$
OCNT-2313107


 24 26  0  0  0  0  0  0  0  0999 V2000
   -4.0146   26.5305    5.1165 C   0  0  0  0  0  0  0  0  0  0  0  0
   -4.1746   28.6778    6.5317 C   0  0  0  0  0  0  0  0  0  0  0  0
   -4.6852   27.7848    5.5943 C   0  0  0  0  0  0  0  0  0  0  0  0
   -5.9689   28.2259    5.1175 C   0  0  0  0  0  0  0  0  0  0  0  0
   -6.3796   29.4029    5.6989 C   0  0  0  0  0  0  0  0  0  0  0  0
   -5.2386   29.9899    6.8208 S   0  0  0  0  0  0  0  0  0  0  0  0
   -2.4744   27.1954    8.2085 N   0  0  0  0  0  0  0  0  0  0  0  0
   -2.6875   28.7097    7.5071 S   0  0  0  0  0  0  0  0  0  0  0  0
   -2.9535   29.6107    8.6052 O   0  0  0  0  0  0  0  0  0  0  0  0
   -1.5896   28.9008    6.5888 O   0  0  0  0  0  0  0  0  0  0  0  0
   -1.6837   27.2364    8.8500 H   0  0  0  0  0  0  0  0  0  0  0  0
   -3.3455   26.9471    8.6968 H   0  0  0  0  0  0  0  0  0  0  0  0
   -3.3522   26.8246    3.8406 N   0  0  0  0  0  0  0  0  0  0  0  0
   -2.3414   26.7277    3.9756 H   0  0  0  0  0  0  0  0  0  0  0  0
   -3.7753   25.8935    2.7812 C   0  0  0  0  0  0  0  0  0  0  0  0
   -3.8508   24.4380    3.3122 C   0  0  0  0  0  0  0  0  0  0  0  0
   -4.8252   23.8228    2.3550 C   0  0  0  0  0  0  0  0  0  0  0  0
   -5.0562   22.4770    2.1226 C   0  0  0  0  0  0  0  0  0  0  0  0
   -6.0508   22.1247    1.2063 C   0  0  0  0  0  0  0  0  0  0  0  0
   -6.7991   23.1168    0.5545 C   0  0  0  0  0  0  0  0  0  0  0  0
   -8.0253   22.6552   -0.5632 Cl  0  0  0  0  0  0  0  0  0  0  0  0
   -6.5702   24.4715    0.8021 C   0  0  0  0  0  0  0  0  0  0  0  0
   -5.5732   24.8094    1.7026 C   0  0  0  0  0  0  0  0  0  0  0  0
   -5.1684   26.1764    2.1600 C   0  0  0  0  0  0  0  0  0  0  0  0
  7  8  1  0  0  0
  8  9  2  0  0  0
  8 10  2  0  0  0
  8  2  1  0  0  0
  2  3  2  0  0  0
  3  1  1  0  0  0
  1 13  1  0  0  0
 13 15  1  0  0  0
 15 16  1  0  0  0
 16 17  1  0  0  0
 17 18  1  0  0  0
 18 19  2  0  0  0
 19 20  1  0  0  0
 20 21  1  0  0  0
 20 22  2  0  0  0
 22 23  1  0  0  0
 23 24  1  0  0  0
  3  4  1  0  0  0
  4  5  2  0  0  0
  5  6  1  0  0  0
  6  2  1  0  0  0
 24 15  1  0  0  0
 23 17  2  0  0  0
  7 11  1  0  0  0
  7 12  1  0  0  0
 13 14  1  0  0  0
M  END
> <minimizedAffinity>
-8.50579

$$$$
OCNT-2313117


 26 28  0  0  0  0  0  0  0  0999 V2000
   -4.0280   27.5587    5.3620 C   0  0  0  0  0  0  0  0  0  0  0  0
   -3.9794   26.6535    4.3240 C   0  0  0  0  0  0  0  0  0  0  0  0
   -5.3246   26.3096    4.0175 C   0  0  0  0  0  0  0  0  0  0  0  0
   -6.1633   26.9689    4.8327 N   0  0  0  0  0  0  0  0  0  0  0  0
   -5.3693   27.7241    5.6121 N   0  0  0  0  0  0  0  0  0  0  0  0
   -5.8201   25.3813    2.9921 C   0  0  0  0  0  0  0  0  0  0  0  0
   -6.3924   24.1473    3.3394 C   0  0  0  0  0  0  0  0  0  0  0  0
   -6.8608   23.2718    2.3524 C   0  0  0  0  0  0  0  0  0  0  0  0
   -6.7611   23.6224    1.0086 C   0  0  0  0  0  0  0  0  0  0  0  0
   -7.3379   22.5454   -0.2022 Cl  0  0  0  0  0  0  0  0  0  0  0  0
   -6.1969   24.8401    0.6417 C   0  0  0  0  0  0  0  0  0  0  0  0
   -5.7293   25.7133    1.6295 C   0  0  0  0  0  0  0  0  0  0  0  0
   -2.1840   27.5743    6.9667 C   0  0  0  0  0  0  0  0  0  0  0  0
   -2.2325   26.3749    7.2244 O   0  0  0  0  0  0  0  0  0  0  0  0
   -3.0308   28.2131    6.0716 N   0  0  0  0  0  0  0  0  0  0  0  0
   -2.9154   29.2056    5.9324 H   0  0  0  0  0  0  0  0  0  0  0  0
   -2.8282   29.9519    8.8360 C   0  0  0  0  0  0  0  0  0  0  0  0
   -1.5131   29.5088    8.4354 N   0  0  0  0  0  0  0  0  0  0  0  0
   -0.3441   30.0912    8.8327 C   0  0  0  0  0  0  0  0  0  0  0  0
    0.6957   29.4829    8.3163 N   0  0  0  0  0  0  0  0  0  0  0  0
    0.1745   28.4686    7.5578 C   0  0  0  0  0  0  0  0  0  0  0  0
   -1.2113   28.4477    7.6011 C   0  0  0  0  0  0  0  0  0  0  0  0
   -5.9916   28.5662    6.6120 C   0  0  0  0  0  0  0  0  0  0  0  0
   -6.9911   29.5282    5.9905 C   0  0  0  0  0  0  0  0  0  0  0  0
   -6.4953   29.9787    4.7329 O   0  0  0  0  0  0  0  0  0  0  0  0
   -7.2025   30.5054    4.3184 H   0  0  0  0  0  0  0  0  0  0  0  0
 17 18  1  0  0  0
 18 19  1  0  0  0
 19 20  2  0  0  0
 20 21  1  0  0  0
 21 22  2  0  0  0
 22 13  1  0  0  0
 13 14  2  0  0  0
 13 15  1  0  0  0
 15  1  1  0  0  0
  1  2  2  0  0  0
  2  3  1  0  0  0
  3  6  1  0  0  0
  6  7  1  0  0  0
  7  8  2  0  0  0
  8  9  1  0  0  0
  9 10  1  0  0  0
  9 11  2  0  0  0
 11 12  1  0  0  0
  3  4  2  0  0  0
  4  5  1  0  0  0
  5 23  1  0  0  0
 23 24  1  0  0  0
 24 25  1  0  0  0
 22 18  1  0  0  0
  5  1  1  0  0  0
 12  6  2  0  0  0
 15 16  1  0  0  0
 25 26  1  0  0  0
M  END
> <minimizedAffinity>
-8.70373

$$$$
OCNT-2313122


 30 32  0  0  0  0  0  0  0  0999 V2000
   -3.2330   27.6472    5.9794 O   0  0  0  0  0  0  0  0  0  0  0  0
   -4.3635   28.1235    6.0226 C   0  0  0  0  0  0  0  0  0  0  0  0
   -4.8897   28.7178    7.1529 N   0  0  0  0  0  0  0  0  0  0  0  0
   -5.7112   29.2917    6.9872 H   0  0  0  0  0  0  0  0  0  0  0  0
   -5.3495   28.1186    4.8269 C   0  0  0  0  0  0  0  0  0  0  0  0
   -6.5842   28.7679    5.1605 O   0  0  0  0  0  0  0  0  0  0  0  0
   -7.2040   28.0669    5.4309 H   0  0  0  0  0  0  0  0  0  0  0  0
   -5.6631   26.7315    4.2965 C   0  0  0  0  0  0  0  0  0  0  0  0
   -6.2273   25.7358    5.1082 C   0  0  0  0  0  0  0  0  0  0  0  0
   -6.5470   24.4842    4.5806 C   0  0  0  0  0  0  0  0  0  0  0  0
   -6.3179   24.2123    3.2326 C   0  0  0  0  0  0  0  0  0  0  0  0
   -5.7620   25.1896    2.3956 C   0  0  0  0  0  0  0  0  0  0  0  0
   -5.4513   26.4493    2.9357 C   0  0  0  0  0  0  0  0  0  0  0  0
   -5.5412   24.9078    0.9293 C   0  0  0  0  0  0  0  0  0  0  0  0
   -6.2644   25.7238    0.1125 F   0  0  0  0  0  0  0  0  0  0  0  0
   -5.8911   23.6359    0.5910 F   0  0  0  0  0  0  0  0  0  0  0  0
   -4.2426   25.0532    0.5441 F   0  0  0  0  0  0  0  0  0  0  0  0
   -4.0500   29.0305    8.2816 C   0  0  0  0  0  0  0  0  0  0  0  0
   -3.9397   30.5233    8.4821 C   0  0  0  0  0  0  0  0  0  0  0  0
   -5.1139   31.2511    8.7524 C   0  0  0  0  0  0  0  0  0  0  0  0
   -5.0774   32.6341    8.9253 C   0  0  0  0  0  0  0  0  0  0  0  0
   -3.8691   33.3135    8.8230 C   0  0  0  0  0  0  0  0  0  0  0  0
   -2.6975   32.6096    8.5435 C   0  0  0  0  0  0  0  0  0  0  0  0
   -2.7101   31.2135    8.3659 C   0  0  0  0  0  0  0  0  0  0  0  0
   -1.4466   30.5307    8.0570 C   0  0  0  0  0  0  0  0  0  0  0  0
   -1.0892   30.2502    6.7342 C   0  0  0  0  0  0  0  0  0  0  0  0
    0.1091   29.5994    6.4909 C   0  0  0  0  0  0  0  0  0  0  0  0
    0.9664   29.2200    7.4611 N   0  0  0  0  0  0  0  0  0  0  0  0
    0.6114   29.5076    8.7309 C   0  0  0  0  0  0  0  0  0  0  0  0
   -0.5652   30.1534    9.0744 C   0  0  0  0  0  0  0  0  0  0  0  0
  1  2  2  0  0  0
  2  3  1  0  0  0
  3 18  1  0  0  0
 18 19  1  0  0  0
 19 20  2  0  0  0
 20 21  1  0  0  0
 21 22  2  0  0  0
 22 23  1  0  0  0
 23 24  2  0  0  0
 24 25  1  0  0  0
 25 26  2  0  0  0
 26 27  1  0  0  0
 27 28  2  0  0  0
 28 29  1  0  0  0
 29 30  2  0  0  0
  2  5  1  0  0  0
  5  6  1  0  0  0
  5  8  1  0  0  0
  8  9  2  0  0  0
  9 10  1  0  0  0
 10 11  2  0  0  0
 11 12  1  0  0  0
 12 14  1  0  0  0
 14 15  1  0  0  0
 14 16  1  0  0  0
 14 17  1  0  0  0
 12 13  2  0  0  0
 24 19  1  0  0  0
 30 25  1  0  0  0
 13  8  1  0  0  0
  3  4  1  0  0  0
  6  7  1  0  0  0
M  END
> <minimizedAffinity>
-10.53763

$$$$
OCNT-2313124


 27 29  0  0  0  0  0  0  0  0999 V2000
   -4.6749   31.7745    7.1342 N   0  0  0  0  0  0  0  0  0  0  0  0
   -4.8787   30.4475    7.4031 C   0  0  0  0  0  0  0  0  0  0  0  0
   -4.8134   29.9404    8.5134 O   0  0  0  0  0  0  0  0  0  0  0  0
   -5.1730   29.7512    6.2621 N   0  0  0  0  0  0  0  0  0  0  0  0
   -5.1210   32.1073    6.2925 H   0  0  0  0  0  0  0  0  0  0  0  0
   -4.7642   30.1175    5.4157 H   0  0  0  0  0  0  0  0  0  0  0  0
   -5.3475   28.3125    6.3330 C   0  0  0  0  0  0  0  0  0  0  0  0
   -6.2835   27.7551    5.2445 C   0  0  0  0  0  0  0  0  0  0  0  0
   -5.4831   27.3162    4.1155 O   0  0  0  0  0  0  0  0  0  0  0  0
   -4.2426   27.0836    4.6604 C   0  0  0  0  0  0  0  0  0  0  0  0
   -3.2119   26.4135    4.0120 C   0  0  0  0  0  0  0  0  0  0  0  0
   -3.3958   25.8857    2.6194 C   0  0  0  0  0  0  0  0  0  0  0  0
   -1.9882   26.2816    4.7055 C   0  0  0  0  0  0  0  0  0  0  0  0
   -0.8136   25.5726    4.0858 C   0  0  0  0  0  0  0  0  0  0  0  0
   -1.8598   26.8024    6.0137 C   0  0  0  0  0  0  0  0  0  0  0  0
   -2.9152   27.4722    6.6353 C   0  0  0  0  0  0  0  0  0  0  0  0
   -4.1019   27.6069    5.9387 C   0  0  0  0  0  0  0  0  0  0  0  0
   -4.4254   32.7427    8.2004 C   0  0  0  0  0  0  0  0  0  0  0  0
   -5.1219   34.0815    7.9436 C   0  0  0  0  0  0  0  0  0  0  0  0
   -2.9277   32.8867    8.5192 C   0  0  0  0  0  0  0  0  0  0  0  0
    0.4169   29.0012    8.0430 C   0  0  0  0  0  0  0  0  0  0  0  0
   -0.5386   30.1214    7.9051 C   0  0  0  0  0  0  0  0  0  0  0  0
   -1.2122   30.8811    8.8350 C   0  0  0  0  0  0  0  0  0  0  0  0
   -1.9919   31.7966    8.0863 C   0  0  0  0  0  0  0  0  0  0  0  0
   -1.8023   31.6162    6.7706 N   0  0  0  0  0  0  0  0  0  0  0  0
   -0.9310   30.6016    6.6892 N   0  0  0  0  0  0  0  0  0  0  0  0
   -0.6460   30.2875    5.7674 H   0  0  0  0  0  0  0  0  0  0  0  0
 21 22  1  0  0  0
 22 23  2  0  0  0
 23 24  1  0  0  0
 24 20  1  0  0  0
 20 18  1  0  0  0
 18 19  1  0  0  0
 18  1  1  0  0  0
  1  2  1  0  0  0
  2  3  2  0  0  0
  2  4  1  0  0  0
  4  7  1  0  0  0
  7  8  1  0  0  0
  8  9  1  0  0  0
  9 10  1  0  0  0
 10 11  1  0  0  0
 11 12  1  0  0  0
 11 13  2  0  0  0
 13 14  1  0  0  0
 13 15  1  0  0  0
 15 16  2  0  0  0
 16 17  1  0  0  0
 24 25  2  0  0  0
 25 26  1  0  0  0
 26 22  1  0  0  0
 17  7  1  0  0  0
 17 10  2  0  0  0
  1  5  1  0  0  0
  4  6  1  0  0  0
 26 27  1  0  0  0
M  END
> <minimizedAffinity>
-8.82370

$$$$
OCNT-2313143


 27 30  0  0  0  0  0  0  0  0999 V2000
   -5.6434   31.6452    7.9921 C   0  0  0  0  0  0  0  0  0  0  0  0
   -2.0645   30.3461    8.3201 C   0  0  0  0  0  0  0  0  0  0  0  0
   -1.5752   31.1864    9.3293 C   0  0  0  0  0  0  0  0  0  0  0  0
   -2.3909   32.1675    9.8966 C   0  0  0  0  0  0  0  0  0  0  0  0
   -3.7058   32.3217    9.4587 C   0  0  0  0  0  0  0  0  0  0  0  0
   -4.2152   31.5034    8.4423 C   0  0  0  0  0  0  0  0  0  0  0  0
   -3.3890   30.5129    7.8861 C   0  0  0  0  0  0  0  0  0  0  0  0
   -0.5218   26.5479    5.5768 C   0  0  0  0  0  0  0  0  0  0  0  0
   -0.6190   27.6757    6.5247 C   0  0  0  0  0  0  0  0  0  0  0  0
   -1.6640   28.4279    6.7864 N   0  0  0  0  0  0  0  0  0  0  0  0
   -1.2078   29.3165    7.7383 C   0  0  0  0  0  0  0  0  0  0  0  0
    0.0844   29.1389    8.0615 N   0  0  0  0  0  0  0  0  0  0  0  0
    0.4277   28.0996    7.2880 N   0  0  0  0  0  0  0  0  0  0  0  0
    1.3741   27.7393    7.3313 H   0  0  0  0  0  0  0  0  0  0  0  0
   -5.8828   30.8573    6.8090 N   0  0  0  0  0  0  0  0  0  0  0  0
   -6.3730   29.5830    6.8989 C   0  0  0  0  0  0  0  0  0  0  0  0
   -6.5791   28.9796    7.9416 O   0  0  0  0  0  0  0  0  0  0  0  0
   -5.8783   31.3206    5.9103 H   0  0  0  0  0  0  0  0  0  0  0  0
   -6.6916   28.9584    5.5935 C   0  0  0  0  0  0  0  0  0  0  0  0
   -6.2672   29.5768    4.2874 C   0  0  0  0  0  0  0  0  0  0  0  0
   -5.5577   28.3428    4.7880 C   0  0  0  0  0  0  0  0  0  0  0  0
   -5.7691   27.0042    4.1250 C   0  0  0  0  0  0  0  0  0  0  0  0
   -5.6387   26.8340    2.7420 C   0  0  0  0  0  0  0  0  0  0  0  0
   -5.8329   25.5772    2.1877 C   0  0  0  0  0  0  0  0  0  0  0  0
   -6.1406   24.4791    2.9069 N   0  0  0  0  0  0  0  0  0  0  0  0
   -6.2505   24.6476    4.2402 C   0  0  0  0  0  0  0  0  0  0  0  0
   -6.0744   25.8650    4.8801 C   0  0  0  0  0  0  0  0  0  0  0  0
  8  9  1  0  0  0
  9 10  2  0  0  0
 10 11  1  0  0  0
 11  2  1  0  0  0
  2  3  1  0  0  0
  3  4  2  0  0  0
  4  5  1  0  0  0
  5  6  2  0  0  0
  6  1  1  0  0  0
  1 15  1  0  0  0
 15 16  1  0  0  0
 16 17  2  0  0  0
 16 19  1  0  0  0
 19 20  1  0  0  0
 20 21  1  0  0  0
 21 22  1  0  0  0
 22 23  2  0  0  0
 23 24  1  0  0  0
 24 25  2  0  0  0
 25 26  1  0  0  0
 26 27  2  0  0  0
  6  7  1  0  0  0
 11 12  2  0  0  0
 12 13  1  0  0  0
 13  9  1  0  0  0
  7  2  2  0  0  0
 21 19  1  0  0  0
 27 22  1  0  0  0
 15 18  1  0  0  0
 13 14  1  0  0  0
M  END
> <minimizedAffinity>
-9.79310

$$$$
OCNT-2313155


 27 31  0  0  0  0  0  0  0  0999 V2000
   -4.2517   26.6351    4.4142 N   0  0  0  0  0  0  0  0  0  0  0  0
   -5.1355   25.6791    5.1014 C   0  0  0  0  0  0  0  0  0  0  0  0
   -6.0522   25.0152    4.0798 C   0  0  0  0  0  0  0  0  0  0  0  0
   -5.2200   24.1079    3.1446 C   0  0  0  0  0  0  0  0  0  0  0  0
   -3.7891   24.6744    2.9385 C   0  0  0  0  0  0  0  0  0  0  0  0
   -3.6974   26.1847    3.1268 C   0  0  0  0  0  0  0  0  0  0  0  0
   -4.9851   22.8582    3.8515 O   0  0  0  0  0  0  0  0  0  0  0  0
   -6.0114   21.8831    3.7087 C   0  0  0  0  0  0  0  0  0  0  0  0
   -6.0609   21.4232    2.2644 C   0  0  0  0  0  0  0  0  0  0  0  0
   -6.3274   22.6088    1.3790 C   0  0  0  0  0  0  0  0  0  0  0  0
   -6.9383   22.4163    0.1305 C   0  0  0  0  0  0  0  0  0  0  0  0
   -7.1958   23.5008   -0.7024 C   0  0  0  0  0  0  0  0  0  0  0  0
   -6.8421   24.7818   -0.2952 C   0  0  0  0  0  0  0  0  0  0  0  0
   -6.2184   24.9776    0.9394 C   0  0  0  0  0  0  0  0  0  0  0  0
   -5.9343   23.8973    1.7949 C   0  0  0  0  0  0  0  0  0  0  0  0
   -4.4813   29.0850    6.4891 C   0  0  0  0  0  0  0  0  0  0  0  0
   -4.0160   29.8885    7.5178 C   0  0  0  0  0  0  0  0  0  0  0  0
   -2.7574   29.4676    7.8552 N   0  0  0  0  0  0  0  0  0  0  0  0
   -2.3952   28.4118    7.0683 C   0  0  0  0  0  0  0  0  0  0  0  0
   -1.2129   27.7850    7.1451 N   0  0  0  0  0  0  0  0  0  0  0  0
   -1.1321   26.7925    6.2455 C   0  0  0  0  0  0  0  0  0  0  0  0
   -2.0609   26.3994    5.3539 N   0  0  0  0  0  0  0  0  0  0  0  0
   -3.2515   27.0525    5.3148 C   0  0  0  0  0  0  0  0  0  0  0  0
   -3.4458   28.1273    6.2085 C   0  0  0  0  0  0  0  0  0  0  0  0
   -2.1618   29.8660    8.5660 H   0  0  0  0  0  0  0  0  0  0  0  0
   -6.9361   28.5826    6.5956 C   0  0  0  0  0  0  0  0  0  0  0  0
   -5.8035   29.2182    5.8037 C   0  0  0  0  0  0  0  0  0  0  0  0
 26 27  1  0  0  0
 27 16  1  0  0  0
 16 17  2  0  0  0
 17 18  1  0  0  0
 18 19  1  0  0  0
 19 20  2  0  0  0
 20 21  1  0  0  0
 21 22  2  0  0  0
 22 23  1  0  0  0
 23  1  1  0  0  0
  1  2  1  0  0  0
  2  3  1  0  0  0
  3  4  1  0  0  0
  4  5  1  0  0  0
  5  6  1  0  0  0
  4  7  1  0  0  0
  7  8  1  0  0  0
  8  9  1  0  0  0
  9 10  1  0  0  0
 10 11  2  0  0  0
 11 12  1  0  0  0
 12 13  2  0  0  0
 13 14  1  0  0  0
 14 15  2  0  0  0
 23 24  2  0  0  0
 24 16  1  0  0  0
 24 19  1  0  0  0
  6  1  1  0  0  0
 15 10  1  0  0  0
 15  4  1  0  0  0
 18 25  1  0  0  0
M  END
> <minimizedAffinity>
-10.80516

$$$$
OCNT-2313159


 26 29  0  0  0  0  0  0  0  0999 V2000
   -5.4460   28.7049    5.4242 N   0  0  0  0  0  0  0  0  0  0  0  0
   -6.1594   27.9275    4.3683 C   0  0  0  0  0  0  0  0  0  0  0  0
   -5.7010   26.4721    4.5515 C   0  0  0  0  0  0  0  0  0  0  0  0
   -4.2484   26.6458    5.0051 C   0  0  0  0  0  0  0  0  0  0  0  0
   -3.4650   25.4258    5.5799 C   0  0  0  0  0  0  0  0  0  0  0  0
   -2.1831   26.0366    4.9783 C   0  0  0  0  0  0  0  0  0  0  0  0
   -3.0815   26.7805    3.9682 C   0  0  0  0  0  0  0  0  0  0  0  0
   -4.3467   27.8519    5.9606 C   0  0  0  0  0  0  0  0  0  0  0  0
   -5.8985   25.5366    3.3815 C   0  0  0  0  0  0  0  0  0  0  0  0
   -5.6865   26.0252    2.0805 C   0  0  0  0  0  0  0  0  0  0  0  0
   -5.8523   25.2027    0.9644 C   0  0  0  0  0  0  0  0  0  0  0  0
   -6.2345   23.8753    1.1290 C   0  0  0  0  0  0  0  0  0  0  0  0
   -6.4523   23.3731    2.4086 C   0  0  0  0  0  0  0  0  0  0  0  0
   -6.2860   24.1962    3.5260 C   0  0  0  0  0  0  0  0  0  0  0  0
   -6.4084   29.4524    6.6011 S   0  0  0  0  0  0  0  0  0  0  0  0
   -6.6580   28.4845    7.6477 O   0  0  0  0  0  0  0  0  0  0  0  0
   -7.4997   30.1287    5.9295 O   0  0  0  0  0  0  0  0  0  0  0  0
   -6.5378   30.7804    9.7615 C   0  0  0  0  0  0  0  0  0  0  0  0
   -5.6359   31.1135    8.6441 C   0  0  0  0  0  0  0  0  0  0  0  0
   -5.4916   30.6681    7.3529 C   0  0  0  0  0  0  0  0  0  0  0  0
   -4.4194   31.4105    6.8269 C   0  0  0  0  0  0  0  0  0  0  0  0
   -3.9056   31.2904    5.5876 N   0  0  0  0  0  0  0  0  0  0  0  0
   -3.9488   32.2697    7.7358 N   0  0  0  0  0  0  0  0  0  0  0  0
   -4.7123   32.0845    8.8737 O   0  0  0  0  0  0  0  0  0  0  0  0
   -4.4697   30.8600    4.8527 H   0  0  0  0  0  0  0  0  0  0  0  0
   -3.3288   32.0554    5.2511 H   0  0  0  0  0  0  0  0  0  0  0  0
 18 19  1  0  0  0
 19 20  2  0  0  0
 20 15  1  0  0  0
 15 16  2  0  0  0
 15 17  2  0  0  0
 15  1  1  0  0  0
  1  2  1  0  0  0
  2  3  1  0  0  0
  3  9  1  0  0  0
  9 10  2  0  0  0
 10 11  1  0  0  0
 11 12  2  0  0  0
 12 13  1  0  0  0
 13 14  2  0  0  0
  3  4  1  0  0  0
  4  5  1  0  0  0
  5  6  1  0  0  0
  6  7  1  0  0  0
  4  8  1  0  0  0
 20 21  1  0  0  0
 21 22  1  0  0  0
 21 23  2  0  0  0
 23 24  1  0  0  0
 24 19  1  0  0  0
  8  1  1  0  0  0
 14  9  1  0  0  0
  7  4  1  0  0  0
 22 25  1  0  0  0
 22 26  1  0  0  0
M  END
> <minimizedAffinity>
-8.81081

$$$$
OCNT-2313161


 23 25  0  0  0  0  0  0  0  0999 V2000
   -2.0162   27.8582    7.2516 N   0  0  0  0  0  0  0  0  0  0  0  0
   -2.4845   28.7608    7.2742 H   0  0  0  0  0  0  0  0  0  0  0  0
   -2.2213   27.2073    6.0368 C   0  0  0  0  0  0  0  0  0  0  0  0
   -1.2322   26.4487    5.4797 N   0  0  0  0  0  0  0  0  0  0  0  0
   -1.4473   25.7953    4.3127 C   0  0  0  0  0  0  0  0  0  0  0  0
   -2.6280   25.8156    3.5858 C   0  0  0  0  0  0  0  0  0  0  0  0
   -3.6334   26.5885    4.1577 C   0  0  0  0  0  0  0  0  0  0  0  0
   -3.4593   27.2742    5.3560 C   0  0  0  0  0  0  0  0  0  0  0  0
   -4.6183   27.9445    5.6690 N   0  0  0  0  0  0  0  0  0  0  0  0
   -5.5081   27.6999    4.7158 N   0  0  0  0  0  0  0  0  0  0  0  0
   -4.9215   26.8930    3.8126 N   0  0  0  0  0  0  0  0  0  0  0  0
   -5.6700   26.4614    2.6626 C   0  0  0  0  0  0  0  0  0  0  0  0
   -0.6599   27.8559    7.8005 C   0  0  0  0  0  0  0  0  0  0  0  0
    0.0452   29.2305    7.6317 C   0  0  0  0  0  0  0  0  0  0  0  0
    1.2858   29.3159    8.5507 C   0  0  0  0  0  0  0  0  0  0  0  0
    0.5357   29.4069    6.1778 C   0  0  0  0  0  0  0  0  0  0  0  0
   -3.9316   31.8289    6.4787 C   0  0  0  0  0  0  0  0  0  0  0  0
   -2.8619   31.5469    7.4898 C   0  0  0  0  0  0  0  0  0  0  0  0
   -2.8324   32.2440    8.6882 C   0  0  0  0  0  0  0  0  0  0  0  0
   -1.8235   31.9543    9.5965 C   0  0  0  0  0  0  0  0  0  0  0  0
   -0.8781   30.9793    9.2866 C   0  0  0  0  0  0  0  0  0  0  0  0
   -0.9628   30.3054    8.0691 C   0  0  0  0  0  0  0  0  0  0  0  0
   -1.9464   30.5997    7.1756 N   0  0  0  0  0  0  0  0  0  0  0  0
 17 18  1  0  0  0
 18 19  1  0  0  0
 19 20  2  0  0  0
 20 21  1  0  0  0
 21 22  2  0  0  0
 22 14  1  0  0  0
 14 15  1  0  0  0
 14 16  1  0  0  0
 14 13  1  0  0  0
 13  1  1  0  0  0
  1  3  1  0  0  0
  3  4  1  0  0  0
  4  5  2  0  0  0
  5  6  1  0  0  0
  6  7  2  0  0  0
  7  8  1  0  0  0
  8  9  1  0  0  0
  9 10  2  0  0  0
 10 11  1  0  0  0
 11 12  1  0  0  0
 22 23  1  0  0  0
 23 18  2  0  0  0
  8  3  2  0  0  0
 11  7  1  0  0  0
  1  2  1  0  0  0
M  END
> <minimizedAffinity>
-8.65421

$$$$
OCNT-2313164


 28 31  0  0  0  0  0  0  0  0999 V2000
   -6.8586   27.6524    5.8429 O   0  0  0  0  0  0  0  0  0  0  0  0
   -5.7994   27.2238    5.3837 C   0  0  0  0  0  0  0  0  0  0  0  0
   -4.5990   27.9182    5.5872 N   0  0  0  0  0  0  0  0  0  0  0  0
   -3.2734   27.3008    5.4837 C   0  0  0  0  0  0  0  0  0  0  0  0
   -2.2339   27.9743    6.3837 C   0  0  0  0  0  0  0  0  0  0  0  0
   -2.8188   28.2885    7.7613 C   0  0  0  0  0  0  0  0  0  0  0  0
   -4.1070   29.1450    7.6759 C   0  0  0  0  0  0  0  0  0  0  0  0
   -4.6461   29.2277    6.2342 C   0  0  0  0  0  0  0  0  0  0  0  0
   -3.9318   30.5344    8.2649 C   0  0  0  0  0  0  0  0  0  0  0  0
   -4.6365   31.6185    7.7165 C   0  0  0  0  0  0  0  0  0  0  0  0
   -4.4803   32.9025    8.2375 C   0  0  0  0  0  0  0  0  0  0  0  0
   -5.1958   33.9099    7.6605 O   0  0  0  0  0  0  0  0  0  0  0  0
   -3.6251   33.1407    9.3044 C   0  0  0  0  0  0  0  0  0  0  0  0
   -2.9233   32.0712    9.8451 C   0  0  0  0  0  0  0  0  0  0  0  0
   -2.0916   32.2845   10.8735 F   0  0  0  0  0  0  0  0  0  0  0  0
   -3.0644   30.7803    9.3397 C   0  0  0  0  0  0  0  0  0  0  0  0
   -4.9856   34.7448    8.1110 H   0  0  0  0  0  0  0  0  0  0  0  0
   -5.7704   25.9683    4.6673 C   0  0  0  0  0  0  0  0  0  0  0  0
   -6.1280   25.7126    3.3579 C   0  0  0  0  0  0  0  0  0  0  0  0
   -5.8975   24.3334    3.0105 C   0  0  0  0  0  0  0  0  0  0  0  0
   -5.3569   23.5989    3.9910 N   0  0  0  0  0  0  0  0  0  0  0  0
   -5.0828   24.5518    5.3129 S   0  0  0  0  0  0  0  0  0  0  0  0
   -6.1975   23.7342    1.7032 C   0  0  0  0  0  0  0  0  0  0  0  0
   -6.8577   24.4710    0.7221 C   0  0  0  0  0  0  0  0  0  0  0  0
   -7.1355   23.8607   -0.4989 C   0  0  0  0  0  0  0  0  0  0  0  0
   -6.7502   22.5411   -0.7034 C   0  0  0  0  0  0  0  0  0  0  0  0
   -6.1010   21.8808    0.3262 C   0  0  0  0  0  0  0  0  0  0  0  0
   -5.8225   22.4427    1.5217 N   0  0  0  0  0  0  0  0  0  0  0  0
  1  2  2  0  0  0
  2 18  1  0  0  0
 18 19  2  0  0  0
 19 20  1  0  0  0
 20 23  1  0  0  0
 23 24  2  0  0  0
 24 25  1  0  0  0
 25 26  2  0  0  0
 26 27  1  0  0  0
 27 28  2  0  0  0
 20 21  2  0  0  0
 21 22  1  0  0  0
  2  3  1  0  0  0
  3  4  1  0  0  0
  4  5  1  0  0  0
  5  6  1  0  0  0
  6  7  1  0  0  0
  7  9  1  0  0  0
  9 10  1  0  0  0
 10 11  2  0  0  0
 11 12  1  0  0  0
 11 13  1  0  0  0
 13 14  2  0  0  0
 14 15  1  0  0  0
 14 16  1  0  0  0
  7  8  1  0  0  0
 22 18  1  0  0  0
  8  3  1  0  0  0
 28 23  1  0  0  0
 16  9  2  0  0  0
 12 17  1  0  0  0
M  END
> <minimizedAffinity>
-10.05725

$$$$
OCNT-2313173


 27 31  0  0  0  0  0  0  0  0999 V2000
   -4.9014   24.2765    2.1773 C   0  0  0  0  0  0  0  0  0  0  0  0
   -3.9052   24.2713    3.0350 N   0  0  0  0  0  0  0  0  0  0  0  0
   -3.7651   25.6100    3.3458 C   0  0  0  0  0  0  0  0  0  0  0  0
   -4.6224   26.4062    2.6854 N   0  0  0  0  0  0  0  0  0  0  0  0
   -5.3731   25.5274    1.9123 O   0  0  0  0  0  0  0  0  0  0  0  0
   -2.7660   26.0891    4.2963 C   0  0  0  0  0  0  0  0  0  0  0  0
   -1.4012   25.8364    4.0661 C   0  0  0  0  0  0  0  0  0  0  0  0
   -0.4035   26.2744    4.9484 C   0  0  0  0  0  0  0  0  0  0  0  0
   -0.8340   26.9781    6.0720 C   0  0  0  0  0  0  0  0  0  0  0  0
   -0.1596   27.5434    7.1246 N   0  0  0  0  0  0  0  0  0  0  0  0
   -1.0800   28.1168    7.9556 C   0  0  0  0  0  0  0  0  0  0  0  0
   -2.3037   27.9574    7.5075 N   0  0  0  0  0  0  0  0  0  0  0  0
   -2.1714   27.2500    6.3373 C   0  0  0  0  0  0  0  0  0  0  0  0
   -3.1561   26.8029    5.4443 C   0  0  0  0  0  0  0  0  0  0  0  0
    0.8404   27.5370    7.2625 H   0  0  0  0  0  0  0  0  0  0  0  0
   -5.5217   23.1617    1.4421 C   0  0  0  0  0  0  0  0  0  0  0  0
   -7.9996   22.0875    3.6243 C   0  0  0  0  0  0  0  0  0  0  0  0
   -7.3039   23.1229    3.1176 N   0  0  0  0  0  0  0  0  0  0  0  0
   -6.4575   22.4681    2.2974 N   0  0  0  0  0  0  0  0  0  0  0  0
   -6.6283   21.1374    2.2311 N   0  0  0  0  0  0  0  0  0  0  0  0
   -7.6031   20.8809    3.0907 N   0  0  0  0  0  0  0  0  0  0  0  0
  -11.1124   22.4411    6.5216 C   0  0  0  0  0  0  0  0  0  0  0  0
  -10.2405   23.5050    6.2993 C   0  0  0  0  0  0  0  0  0  0  0  0
   -9.2213   23.3884    5.3500 C   0  0  0  0  0  0  0  0  0  0  0  0
   -9.0634   22.2050    4.6131 C   0  0  0  0  0  0  0  0  0  0  0  0
   -9.9490   21.1422    4.8473 C   0  0  0  0  0  0  0  0  0  0  0  0
  -10.9678   21.2600    5.7965 C   0  0  0  0  0  0  0  0  0  0  0  0
 22 23  2  0  0  0
 23 24  1  0  0  0
 24 25  2  0  0  0
 25 17  1  0  0  0
 17 18  2  0  0  0
 18 19  1  0  0  0
 19 16  1  0  0  0
 16  1  1  0  0  0
  1  2  2  0  0  0
  2  3  1  0  0  0
  3  6  1  0  0  0
  6  7  2  0  0  0
  7  8  1  0  0  0
  8  9  2  0  0  0
  9 10  1  0  0  0
 10 11  1  0  0  0
 11 12  2  0  0  0
 12 13  1  0  0  0
 13 14  2  0  0  0
  3  4  2  0  0  0
  4  5  1  0  0  0
 19 20  1  0  0  0
 20 21  2  0  0  0
 25 26  1  0  0  0
 26 27  2  0  0  0
 27 22  1  0  0  0
 21 17  1  0  0  0
  5  1  1  0  0  0
 14  6  1  0  0  0
 13  9  1  0  0  0
 10 15  1  0  0  0
M  END
> <minimizedAffinity>
-9.79109

$$$$
OCNT-2313175


 34 37  0  0  0  0  0  0  0  0999 V2000
   -4.8257   26.3341    2.7069 C   0  0  0  0  0  0  0  0  0  0  0  0
   -3.6941   25.8717    2.5959 O   0  0  0  0  0  0  0  0  0  0  0  0
   -5.8807   25.8800    1.9411 N   0  0  0  0  0  0  0  0  0  0  0  0
   -6.8155   26.2096    2.1267 H   0  0  0  0  0  0  0  0  0  0  0  0
   -4.9952   28.4022    5.6742 C   0  0  0  0  0  0  0  0  0  0  0  0
   -4.5906   27.3866    4.9487 N   0  0  0  0  0  0  0  0  0  0  0  0
   -5.1573   27.3923    3.6751 C   0  0  0  0  0  0  0  0  0  0  0  0
   -6.0003   28.4674    3.4542 C   0  0  0  0  0  0  0  0  0  0  0  0
   -6.0962   29.4512    4.8503 S   0  0  0  0  0  0  0  0  0  0  0  0
   -4.6632   28.6938    6.9533 N   0  0  0  0  0  0  0  0  0  0  0  0
   -5.4224   28.7135    7.6202 H   0  0  0  0  0  0  0  0  0  0  0  0
   -0.9396   29.8079    8.6605 C   0  0  0  0  0  0  0  0  0  0  0  0
   -1.1286   28.5065    8.1980 C   0  0  0  0  0  0  0  0  0  0  0  0
   -2.3471   28.1155    7.6272 C   0  0  0  0  0  0  0  0  0  0  0  0
   -3.4071   29.0175    7.4978 C   0  0  0  0  0  0  0  0  0  0  0  0
   -3.2037   30.3240    7.9748 C   0  0  0  0  0  0  0  0  0  0  0  0
   -1.9863   30.7190    8.5485 C   0  0  0  0  0  0  0  0  0  0  0  0
    1.3444   29.1720    8.8234 C   0  0  0  0  0  0  0  0  0  0  0  0
    0.2943   30.0563    9.1935 O   0  0  0  0  0  0  0  0  0  0  0  0
   -5.7109   24.8467    0.9346 C   0  0  0  0  0  0  0  0  0  0  0  0
   -6.5074   25.1711   -0.3313 C   0  0  0  0  0  0  0  0  0  0  0  0
   -6.1034   23.4940    1.5045 C   0  0  0  0  0  0  0  0  0  0  0  0
   -5.7449   22.3196    0.8355 C   0  0  0  0  0  0  0  0  0  0  0  0
   -6.1025   21.0800    1.3577 C   0  0  0  0  0  0  0  0  0  0  0  0
   -6.8145   20.9999    2.5589 C   0  0  0  0  0  0  0  0  0  0  0  0
   -7.1819   22.1551    3.2635 C   0  0  0  0  0  0  0  0  0  0  0  0
   -6.8264   23.3928    2.7112 C   0  0  0  0  0  0  0  0  0  0  0  0
   -7.8894   22.0615    4.4891 N   0  0  0  0  0  0  0  0  0  0  0  0
   -9.3279   21.8950    4.5632 C   0  0  0  0  0  0  0  0  0  0  0  0
   -9.6108   21.6763    6.0410 C   0  0  0  0  0  0  0  0  0  0  0  0
   -8.4158   22.1212    6.6886 N   0  0  0  0  0  0  0  0  0  0  0  0
   -7.3603   22.1997    5.7866 C   0  0  0  0  0  0  0  0  0  0  0  0
   -6.2050   22.3397    6.1533 O   0  0  0  0  0  0  0  0  0  0  0  0
   -8.2018   22.0139    7.6713 H   0  0  0  0  0  0  0  0  0  0  0  0
 18 19  1  0  0  0
 19 12  1  0  0  0
 12 13  1  0  0  0
 13 14  2  0  0  0
 14 15  1  0  0  0
 15 10  1  0  0  0
 10  5  1  0  0  0
  5  6  2  0  0  0
  6  7  1  0  0  0
  7  1  1  0  0  0
  1  2  2  0  0  0
  1  3  1  0  0  0
  3 20  1  0  0  0
 20 21  1  0  0  0
 20 22  1  0  0  0
 22 23  2  0  0  0
 23 24  1  0  0  0
 24 25  2  0  0  0
 25 26  1  0  0  0
 26 28  1  0  0  0
 28 29  1  0  0  0
 29 30  1  0  0  0
 30 31  1  0  0  0
 31 32  1  0  0  0
 32 33  2  0  0  0
 26 27  2  0  0  0
  7  8  2  0  0  0
  8  9  1  0  0  0
 15 16  2  0  0  0
 16 17  1  0  0  0
 17 12  2  0  0  0
  9  5  1  0  0  0
 27 22  1  0  0  0
 32 28  1  0  0  0
 10 11  1  0  0  0
  3  4  1  0  0  0
 31 34  1  0  0  0
M  END
> <minimizedAffinity>
-9.81203

$$$$
OCNT-2313184


 29 31  0  0  0  0  0  0  0  0999 V2000
   -3.9722   28.4457    7.2503 N   0  0  0  0  0  0  0  0  0  0  0  0
   -4.6775   27.9471    6.1723 C   0  0  0  0  0  0  0  0  0  0  0  0
   -5.8906   28.0711    6.0727 O   0  0  0  0  0  0  0  0  0  0  0  0
   -3.8327   27.3491    5.2733 N   0  0  0  0  0  0  0  0  0  0  0  0
   -3.1111   27.9724    7.4815 H   0  0  0  0  0  0  0  0  0  0  0  0
   -2.8413   27.4861    5.3834 H   0  0  0  0  0  0  0  0  0  0  0  0
   -4.1850   26.6878    4.1243 C   0  0  0  0  0  0  0  0  0  0  0  0
   -3.3250   26.4742    3.1528 N   0  0  0  0  0  0  0  0  0  0  0  0
   -3.8864   25.7668    2.1095 N   0  0  0  0  0  0  0  0  0  0  0  0
   -5.1558   25.4633    2.3301 C   0  0  0  0  0  0  0  0  0  0  0  0
   -5.7309   26.0374    3.8497 S   0  0  0  0  0  0  0  0  0  0  0  0
   -6.0152   24.7110    1.4045 C   0  0  0  0  0  0  0  0  0  0  0  0
   -6.3387   25.2318    0.1531 C   0  0  0  0  0  0  0  0  0  0  0  0
   -7.1501   24.4882   -0.7008 C   0  0  0  0  0  0  0  0  0  0  0  0
   -7.6196   23.2487   -0.2841 C   0  0  0  0  0  0  0  0  0  0  0  0
   -7.2544   22.8014    0.9731 C   0  0  0  0  0  0  0  0  0  0  0  0
   -6.4694   23.5009    1.8214 N   0  0  0  0  0  0  0  0  0  0  0  0
   -4.6729   28.9829    8.3986 C   0  0  0  0  0  0  0  0  0  0  0  0
   -4.6289   34.8059    8.6137 C   0  0  0  0  0  0  0  0  0  0  0  0
   -4.6221   33.3099    8.5023 C   0  0  0  0  0  0  0  0  0  0  0  0
   -5.7954   32.6155    8.1927 C   0  0  0  0  0  0  0  0  0  0  0  0
   -5.7996   31.2201    8.1463 C   0  0  0  0  0  0  0  0  0  0  0  0
   -4.6277   30.4900    8.3978 C   0  0  0  0  0  0  0  0  0  0  0  0
   -3.4507   31.1887    8.7024 C   0  0  0  0  0  0  0  0  0  0  0  0
   -3.4560   32.5852    8.7818 C   0  0  0  0  0  0  0  0  0  0  0  0
   -2.3347   30.4618    9.0291 O   0  0  0  0  0  0  0  0  0  0  0  0
   -1.1413   30.8645    8.3335 C   0  0  0  0  0  0  0  0  0  0  0  0
   -1.3170   30.6131    6.8367 C   0  0  0  0  0  0  0  0  0  0  0  0
    0.0022   30.0162    8.8874 C   0  0  0  0  0  0  0  0  0  0  0  0
 19 20  1  0  0  0
 20 21  1  0  0  0
 21 22  2  0  0  0
 22 23  1  0  0  0
 23 18  1  0  0  0
 18  1  1  0  0  0
  1  2  1  0  0  0
  2  3  2  0  0  0
  2  4  1  0  0  0
  4  7  1  0  0  0
  7  8  2  0  0  0
  8  9  1  0  0  0
  9 10  2  0  0  0
 10 12  1  0  0  0
 12 13  2  0  0  0
 13 14  1  0  0  0
 14 15  2  0  0  0
 15 16  1  0  0  0
 16 17  2  0  0  0
 10 11  1  0  0  0
 23 24  2  0  0  0
 24 26  1  0  0  0
 26 27  1  0  0  0
 27 28  1  0  0  0
 27 29  1  0  0  0
 24 25  1  0  0  0
 25 20  2  0  0  0
 11  7  1  0  0  0
 17 12  1  0  0  0
  1  5  1  0  0  0
  4  6  1  0  0  0
M  END
> <minimizedAffinity>
-9.92893

$$$$
OCNT-2313188


 30 32  0  0  0  0  0  0  0  0999 V2000
   -6.5585   29.1512    5.5866 C   0  0  0  0  0  0  0  0  0  0  0  0
   -6.2302   29.4129    4.2486 C   0  0  0  0  0  0  0  0  0  0  0  0
   -5.9061   28.3663    3.3796 C   0  0  0  0  0  0  0  0  0  0  0  0
   -5.8926   27.0458    3.8470 C   0  0  0  0  0  0  0  0  0  0  0  0
   -6.2293   26.7778    5.1777 C   0  0  0  0  0  0  0  0  0  0  0  0
   -6.5515   27.8249    6.0433 C   0  0  0  0  0  0  0  0  0  0  0  0
   -5.5556   25.9016    2.9534 C   0  0  0  0  0  0  0  0  0  0  0  0
   -4.7160   26.0730    2.0785 O   0  0  0  0  0  0  0  0  0  0  0  0
   -6.2769   24.7449    3.1938 N   0  0  0  0  0  0  0  0  0  0  0  0
   -7.0300   24.8064    3.8660 H   0  0  0  0  0  0  0  0  0  0  0  0
   -6.1413   23.5044    2.5328 C   0  0  0  0  0  0  0  0  0  0  0  0
   -6.6313   23.4144    1.2290 C   0  0  0  0  0  0  0  0  0  0  0  0
   -6.5173   22.2070    0.5579 C   0  0  0  0  0  0  0  0  0  0  0  0
   -5.9598   21.1029    1.0920 N   0  0  0  0  0  0  0  0  0  0  0  0
   -5.4953   21.2139    2.3546 C   0  0  0  0  0  0  0  0  0  0  0  0
   -5.5634   22.3767    3.1066 C   0  0  0  0  0  0  0  0  0  0  0  0
   -6.8951   30.2748    6.5348 C   0  0  0  0  0  0  0  0  0  0  0  0
   -4.9591   30.6092    8.0264 C   0  0  0  0  0  0  0  0  0  0  0  0
   -5.2910   29.7075    8.7865 O   0  0  0  0  0  0  0  0  0  0  0  0
   -5.7013   30.9879    6.9279 N   0  0  0  0  0  0  0  0  0  0  0  0
   -5.2893   31.6208    6.2568 H   0  0  0  0  0  0  0  0  0  0  0  0
   -3.6770   31.4156    8.1709 C   0  0  0  0  0  0  0  0  0  0  0  0
   -1.9715   31.9904    9.9407 C   0  0  0  0  0  0  0  0  0  0  0  0
   -2.7064   30.8470    9.2241 C   0  0  0  0  0  0  0  0  0  0  0  0
   -1.6928   29.8164    8.6417 C   0  0  0  0  0  0  0  0  0  0  0  0
   -0.2256   30.1094    9.0120 C   0  0  0  0  0  0  0  0  0  0  0  0
    0.7272   29.2224    8.2175 C   0  0  0  0  0  0  0  0  0  0  0  0
    0.6148   29.4521    6.7110 C   0  0  0  0  0  0  0  0  0  0  0  0
   -0.7041   30.0942    6.2873 C   0  0  0  0  0  0  0  0  0  0  0  0
   -1.8809   29.5984    7.1215 C   0  0  0  0  0  0  0  0  0  0  0  0
 23 24  1  0  0  0
 24 22  1  0  0  0
 22 18  1  0  0  0
 18 19  2  0  0  0
 18 20  1  0  0  0
 20 17  1  0  0  0
 17  1  1  0  0  0
  1  2  1  0  0  0
  2  3  2  0  0  0
  3  4  1  0  0  0
  4  7  1  0  0  0
  7  8  2  0  0  0
  7  9  1  0  0  0
  9 11  1  0  0  0
 11 12  2  0  0  0
 12 13  1  0  0  0
 13 14  2  0  0  0
 14 15  1  0  0  0
 15 16  2  0  0  0
  4  5  2  0  0  0
  5  6  1  0  0  0
 24 25  1  0  0  0
 25 26  1  0  0  0
 26 27  1  0  0  0
 27 28  1  0  0  0
 28 29  1  0  0  0
 29 30  1  0  0  0
  6  1  2  0  0  0
 30 25  1  0  0  0
 16 11  1  0  0  0
 20 21  1  0  0  0
  9 10  1  0  0  0
M  END
> <minimizedAffinity>
-10.55933

$$$$
OCNT-2313195


 26 29  0  0  0  0  0  0  0  0999 V2000
   -1.4730   25.8715    4.5329 C   0  0  0  0  0  0  0  0  0  0  0  0
   -2.8652   26.3257    4.4794 N   0  0  0  0  0  0  0  0  0  0  0  0
   -3.4582   26.4663    3.1465 C   0  0  0  0  0  0  0  0  0  0  0  0
   -4.9685   26.2020    3.3251 C   0  0  0  0  0  0  0  0  0  0  0  0
   -5.8571   27.2389    2.6103 C   0  0  0  0  0  0  0  0  0  0  0  0
   -5.9319   28.5819    3.3259 C   0  0  0  0  0  0  0  0  0  0  0  0
   -6.4042   28.3973    4.7608 C   0  0  0  0  0  0  0  0  0  0  0  0
   -5.4444   27.5011    5.5331 C   0  0  0  0  0  0  0  0  0  0  0  0
   -5.1637   26.1451    4.8509 C   0  0  0  0  0  0  0  0  0  0  0  0
   -6.3130   25.1525    5.0130 C   0  0  0  0  0  0  0  0  0  0  0  0
   -6.0172   24.1183    4.0201 N   0  0  0  0  0  0  0  0  0  0  0  0
   -7.1807   23.3265    3.6560 C   0  0  0  0  0  0  0  0  0  0  0  0
   -5.3723   24.7706    2.8667 C   0  0  0  0  0  0  0  0  0  0  0  0
   -3.8059   25.5850    5.3208 C   0  0  0  0  0  0  0  0  0  0  0  0
   -0.5048   26.5669    5.5268 C   0  0  0  0  0  0  0  0  0  0  0  0
    0.5761   27.2015    4.8262 O   0  0  0  0  0  0  0  0  0  0  0  0
    0.1788   27.9484    4.3388 H   0  0  0  0  0  0  0  0  0  0  0  0
   -1.2356   27.6444    6.3467 C   0  0  0  0  0  0  0  0  0  0  0  0
   -0.3723   28.7799    6.4714 O   0  0  0  0  0  0  0  0  0  0  0  0
    0.8868   29.2370    8.8943 C   0  0  0  0  0  0  0  0  0  0  0  0
   -0.2265   30.1175    8.3972 C   0  0  0  0  0  0  0  0  0  0  0  0
   -0.6490   31.2082    9.1724 C   0  0  0  0  0  0  0  0  0  0  0  0
   -1.6762   32.0376    8.7263 C   0  0  0  0  0  0  0  0  0  0  0  0
   -2.2906   31.7836    7.5033 C   0  0  0  0  0  0  0  0  0  0  0  0
   -1.8795   30.7005    6.7224 C   0  0  0  0  0  0  0  0  0  0  0  0
   -0.8470   29.8649    7.1597 C   0  0  0  0  0  0  0  0  0  0  0  0
 20 21  1  0  0  0
 21 22  2  0  0  0
 22 23  1  0  0  0
 23 24  2  0  0  0
 24 25  1  0  0  0
 25 26  2  0  0  0
 26 19  1  0  0  0
 19 18  1  0  0  0
 18 15  1  0  0  0
 15 16  1  0  0  0
 15  1  1  0  0  0
  1  2  1  0  0  0
  2  3  1  0  0  0
  3  4  1  0  0  0
  4  5  1  0  0  0
  5  6  1  0  0  0
  6  7  1  0  0  0
  7  8  1  0  0  0
  8  9  1  0  0  0
  9 10  1  0  0  0
 10 11  1  0  0  0
 11 12  1  0  0  0
 11 13  1  0  0  0
  9 14  1  0  0  0
 26 21  1  0  0  0
 14  2  1  0  0  0
  9  4  1  0  0  0
 13  4  1  0  0  0
 16 17  1  0  0  0
M  END
> <minimizedAffinity>
-9.51747

$$$$
OCNT-2313201


 33 35  0  0  0  0  0  0  0  0999 V2000
   -6.1313   27.6661    6.1898 N   0  0  0  0  0  0  0  0  0  0  0  0
   -5.1660   28.5246    6.6976 C   0  0  0  0  0  0  0  0  0  0  0  0
   -4.1081   28.7976    6.1438 O   0  0  0  0  0  0  0  0  0  0  0  0
   -5.5699   29.0448    7.9089 N   0  0  0  0  0  0  0  0  0  0  0  0
   -7.0352   27.7124    6.6383 H   0  0  0  0  0  0  0  0  0  0  0  0
   -6.3742   28.6791    8.3895 H   0  0  0  0  0  0  0  0  0  0  0  0
   -5.8856   25.4658    2.5986 C   0  0  0  0  0  0  0  0  0  0  0  0
   -5.7887   26.8600    2.5989 C   0  0  0  0  0  0  0  0  0  0  0  0
   -5.8765   27.5619    3.8054 C   0  0  0  0  0  0  0  0  0  0  0  0
   -6.0525   26.8828    5.0201 C   0  0  0  0  0  0  0  0  0  0  0  0
   -6.1644   25.4903    5.0063 C   0  0  0  0  0  0  0  0  0  0  0  0
   -6.0910   24.7847    3.8007 C   0  0  0  0  0  0  0  0  0  0  0  0
   -6.6536   23.5999    1.2568 N   0  0  0  0  0  0  0  0  0  0  0  0
   -5.8048   24.6819    1.3405 C   0  0  0  0  0  0  0  0  0  0  0  0
   -5.0324   25.0247    0.4541 O   0  0  0  0  0  0  0  0  0  0  0  0
   -7.2833   23.4024    2.0225 H   0  0  0  0  0  0  0  0  0  0  0  0
   -6.6421   22.6944    0.1157 C   0  0  0  0  0  0  0  0  0  0  0  0
   -8.0410   22.5937   -0.4921 C   0  0  0  0  0  0  0  0  0  0  0  0
   -5.8226   21.1157    1.9853 C   0  0  0  0  0  0  0  0  0  0  0  0
   -6.0591   21.3207    0.4925 C   0  0  0  0  0  0  0  0  0  0  0  0
   -4.8996   29.9992    8.6333 C   0  0  0  0  0  0  0  0  0  0  0  0
   -3.5638   30.0082    8.5939 N   0  0  0  0  0  0  0  0  0  0  0  0
   -3.2161   31.0090    9.4334 N   0  0  0  0  0  0  0  0  0  0  0  0
   -4.2915   31.6657    9.9584 C   0  0  0  0  0  0  0  0  0  0  0  0
   -5.4017   31.0189    9.4686 C   0  0  0  0  0  0  0  0  0  0  0  0
   -1.8106   31.3349    9.6469 C   0  0  0  0  0  0  0  0  0  0  0  0
   -0.9114   30.6239    8.6580 C   0  0  0  0  0  0  0  0  0  0  0  0
    0.0891   29.7697    9.1653 C   0  0  0  0  0  0  0  0  0  0  0  0
    0.9566   29.0894    8.3136 C   0  0  0  0  0  0  0  0  0  0  0  0
    0.8386   29.2478    6.9379 C   0  0  0  0  0  0  0  0  0  0  0  0
   -0.1417   30.0914    6.4153 C   0  0  0  0  0  0  0  0  0  0  0  0
   -1.0236   30.7892    7.2597 C   0  0  0  0  0  0  0  0  0  0  0  0
   -2.0580   31.6870    6.6339 C   0  0  0  0  0  0  0  0  0  0  0  0
 19 20  1  0  0  0
 20 17  1  0  0  0
 17 18  1  0  0  0
 17 13  1  0  0  0
 13 14  1  0  0  0
 14 15  2  0  0  0
 14  7  1  0  0  0
  7  8  1  0  0  0
  8  9  2  0  0  0
  9 10  1  0  0  0
 10  1  1  0  0  0
  1  2  1  0  0  0
  2  3  2  0  0  0
  2  4  1  0  0  0
  4 21  1  0  0  0
 21 22  2  0  0  0
 22 23  1  0  0  0
 23 26  1  0  0  0
 26 27  1  0  0  0
 27 28  2  0  0  0
 28 29  1  0  0  0
 29 30  2  0  0  0
 30 31  1  0  0  0
 31 32  2  0  0  0
 32 33  1  0  0  0
 23 24  1  0  0  0
 24 25  2  0  0  0
 10 11  2  0  0  0
 11 12  1  0  0  0
 12  7  2  0  0  0
 25 21  1  0  0  0
 32 27  1  0  0  0
 13 16  1  0  0  0
  1  5  1  0  0  0
  4  6  1  0  0  0
M  END
> <minimizedAffinity>
-10.55973

$$$$
OCNT-2313211


 29 31  0  0  0  0  0  0  0  0999 V2000
   -3.9994   25.5417    4.4524 C   0  0  0  0  0  0  0  0  0  0  0  0
   -4.0116   24.0692    4.0161 C   0  0  0  0  0  0  0  0  0  0  0  0
   -5.0819   24.0398    3.0104 N   0  0  0  0  0  0  0  0  0  0  0  0
   -6.1592   24.9044    3.5092 C   0  0  0  0  0  0  0  0  0  0  0  0
   -5.5076   25.8492    4.5355 C   0  0  0  0  0  0  0  0  0  0  0  0
   -5.8702   27.3095    4.3691 C   0  0  0  0  0  0  0  0  0  0  0  0
   -6.3461   28.0370    5.4704 C   0  0  0  0  0  0  0  0  0  0  0  0
   -6.6935   29.3835    5.3395 C   0  0  0  0  0  0  0  0  0  0  0  0
   -6.5662   30.0217    4.1093 C   0  0  0  0  0  0  0  0  0  0  0  0
   -6.0975   29.3117    3.0069 C   0  0  0  0  0  0  0  0  0  0  0  0
   -5.7562   27.9630    3.1331 C   0  0  0  0  0  0  0  0  0  0  0  0
   -2.1198   26.4911    5.7550 C   0  0  0  0  0  0  0  0  0  0  0  0
   -1.4375   26.7233    4.7613 O   0  0  0  0  0  0  0  0  0  0  0  0
   -3.3311   25.8244    5.7191 N   0  0  0  0  0  0  0  0  0  0  0  0
   -3.9559   26.0842    6.4728 H   0  0  0  0  0  0  0  0  0  0  0  0
   -1.6935   26.9089    7.1523 C   0  0  0  0  0  0  0  0  0  0  0  0
    0.5816   29.0856    6.3813 C   0  0  0  0  0  0  0  0  0  0  0  0
   -0.7583   29.3368    6.9716 C   0  0  0  0  0  0  0  0  0  0  0  0
   -1.1459   30.5890    7.2436 N   0  0  0  0  0  0  0  0  0  0  0  0
   -2.3817   30.4511    7.7376 N   0  0  0  0  0  0  0  0  0  0  0  0
   -2.8037   29.1543    7.8131 C   0  0  0  0  0  0  0  0  0  0  0  0
   -4.1466   28.8004    8.3234 C   0  0  0  0  0  0  0  0  0  0  0  0
   -1.7628   28.3886    7.3153 C   0  0  0  0  0  0  0  0  0  0  0  0
   -2.8842   31.2905    8.0040 H   0  0  0  0  0  0  0  0  0  0  0  0
   -5.5451   22.6757    2.6739 C   0  0  0  0  0  0  0  0  0  0  0  0
   -6.2163   22.4545    1.3037 C   0  0  0  0  0  0  0  0  0  0  0  0
   -5.9285   23.4879    0.4746 F   0  0  0  0  0  0  0  0  0  0  0  0
   -7.5614   22.3945    1.4121 F   0  0  0  0  0  0  0  0  0  0  0  0
   -5.7897   21.3247    0.7021 F   0  0  0  0  0  0  0  0  0  0  0  0
 17 18  1  0  0  0
 18 19  2  0  0  0
 19 20  1  0  0  0
 20 21  1  0  0  0
 21 22  1  0  0  0
 21 23  2  0  0  0
 23 16  1  0  0  0
 16 12  1  0  0  0
 12 13  2  0  0  0
 12 14  1  0  0  0
 14  1  1  0  0  0
  1  2  1  0  0  0
  2  3  1  0  0  0
  3 25  1  0  0  0
 25 26  1  0  0  0
 26 27  1  0  0  0
 26 28  1  0  0  0
 26 29  1  0  0  0
  3  4  1  0  0  0
  4  5  1  0  0  0
  5  6  1  0  0  0
  6  7  2  0  0  0
  7  8  1  0  0  0
  8  9  2  0  0  0
  9 10  1  0  0  0
 10 11  2  0  0  0
 23 18  1  0  0  0
  5  1  1  0  0  0
 11  6  1  0  0  0
 20 24  1  0  0  0
 14 15  1  0  0  0
M  END
> <minimizedAffinity>
-8.69052

$$$$
OCNT-2313233


 27 29  0  0  0  0  0  0  0  0999 V2000
   -1.5855   25.7956    4.4516 C   0  0  0  0  0  0  0  0  0  0  0  0
   -3.9762   25.3039    4.0889 C   0  0  0  0  0  0  0  0  0  0  0  0
   -3.7397   24.4618    3.2280 O   0  0  0  0  0  0  0  0  0  0  0  0
   -2.9925   26.0354    4.7196 N   0  0  0  0  0  0  0  0  0  0  0  0
   -3.2364   26.5753    5.5405 H   0  0  0  0  0  0  0  0  0  0  0  0
   -5.3856   25.6155    4.5592 C   0  0  0  0  0  0  0  0  0  0  0  0
   -6.3034   29.2003    5.5155 C   0  0  0  0  0  0  0  0  0  0  0  0
   -6.3334   29.8195    4.2626 C   0  0  0  0  0  0  0  0  0  0  0  0
   -6.0535   29.0810    3.1132 C   0  0  0  0  0  0  0  0  0  0  0  0
   -5.7463   27.7233    3.2121 C   0  0  0  0  0  0  0  0  0  0  0  0
   -5.7207   27.0853    4.4610 C   0  0  0  0  0  0  0  0  0  0  0  0
   -5.9962   27.8368    5.6132 C   0  0  0  0  0  0  0  0  0  0  0  0
   -6.8097   30.5674    7.6613 N   0  0  0  0  0  0  0  0  0  0  0  0
   -6.5881   29.9581    6.6988 C   0  0  0  0  0  0  0  0  0  0  0  0
   -0.6640   26.8632    5.0659 C   0  0  0  0  0  0  0  0  0  0  0  0
   -0.5959   26.6832    6.5178 N   0  0  0  0  0  0  0  0  0  0  0  0
   -1.4040   26.1547    6.8542 H   0  0  0  0  0  0  0  0  0  0  0  0
   -0.6920   27.8777    7.2375 C   0  0  0  0  0  0  0  0  0  0  0  0
    0.4232   28.6351    7.5644 C   0  0  0  0  0  0  0  0  0  0  0  0
    0.2508   29.8046    8.2971 C   0  0  0  0  0  0  0  0  0  0  0  0
   -1.0335   30.1866    8.6938 C   0  0  0  0  0  0  0  0  0  0  0  0
   -1.2635   31.3595    9.4351 C   0  0  0  0  0  0  0  0  0  0  0  0
   -2.5575   31.7071    9.8167 C   0  0  0  0  0  0  0  0  0  0  0  0
   -3.6217   30.8865    9.4609 C   0  0  0  0  0  0  0  0  0  0  0  0
   -3.3867   29.7212    8.7245 C   0  0  0  0  0  0  0  0  0  0  0  0
   -2.1078   29.3502    8.3299 C   0  0  0  0  0  0  0  0  0  0  0  0
   -1.9353   28.2191    7.6213 N   0  0  0  0  0  0  0  0  0  0  0  0
 13 14  3  0  0  0
 14  7  1  0  0  0
  7  8  1  0  0  0
  8  9  2  0  0  0
  9 10  1  0  0  0
 10 11  2  0  0  0
 11  6  1  0  0  0
  6  2  1  0  0  0
  2  3  2  0  0  0
  2  4  1  0  0  0
  4  1  1  0  0  0
  1 15  1  0  0  0
 15 16  1  0  0  0
 16 18  1  0  0  0
 18 19  1  0  0  0
 19 20  2  0  0  0
 20 21  1  0  0  0
 21 22  2  0  0  0
 22 23  1  0  0  0
 23 24  2  0  0  0
 24 25  1  0  0  0
 25 26  2  0  0  0
 26 27  1  0  0  0
 11 12  1  0  0  0
 12  7  2  0  0  0
 27 18  2  0  0  0
 26 21  1  0  0  0
  4  5  1  0  0  0
 16 17  1  0  0  0
M  END
> <minimizedAffinity>
-9.41179

$$$$
OCNT-2313237


 34 38  0  0  0  0  0  0  0  0999 V2000
   -5.2720   23.7698    3.1566 C   0  0  0  0  0  0  0  0  0  0  0  0
   -5.9498   23.9340    1.7868 C   0  0  0  0  0  0  0  0  0  0  0  0
   -5.9270   25.1335    1.0622 C   0  0  0  0  0  0  0  0  0  0  0  0
   -6.5780   25.2464   -0.1698 C   0  0  0  0  0  0  0  0  0  0  0  0
   -7.2595   24.1581   -0.7032 C   0  0  0  0  0  0  0  0  0  0  0  0
   -7.2825   22.9521   -0.0117 C   0  0  0  0  0  0  0  0  0  0  0  0
   -6.6286   22.8372    1.2174 C   0  0  0  0  0  0  0  0  0  0  0  0
   -4.6651   25.0245    3.6803 N   0  0  0  0  0  0  0  0  0  0  0  0
   -4.9061   25.3228    5.0988 C   0  0  0  0  0  0  0  0  0  0  0  0
   -3.6357   25.3037    5.9566 C   0  0  0  0  0  0  0  0  0  0  0  0
   -2.5850   26.2998    5.4295 C   0  0  0  0  0  0  0  0  0  0  0  0
   -2.6437   26.4197    3.8957 C   0  0  0  0  0  0  0  0  0  0  0  0
   -3.2717   25.1830    3.2612 C   0  0  0  0  0  0  0  0  0  0  0  0
   -2.7287   27.6507    6.0744 C   0  0  0  0  0  0  0  0  0  0  0  0
   -3.8094   28.4136    6.0705 N   0  0  0  0  0  0  0  0  0  0  0  0
   -3.5396   29.5571    6.7848 N   0  0  0  0  0  0  0  0  0  0  0  0
   -2.2974   29.4847    7.2058 C   0  0  0  0  0  0  0  0  0  0  0  0
   -1.4889   30.3614    7.9789 C   0  0  0  0  0  0  0  0  0  0  0  0
   -0.2170   30.0210    8.2549 C   0  0  0  0  0  0  0  0  0  0  0  0
    0.3524   28.7654    7.7851 C   0  0  0  0  0  0  0  0  0  0  0  0
   -0.4140   27.9286    7.0648 C   0  0  0  0  0  0  0  0  0  0  0  0
   -1.7287   28.2926    6.7766 N   0  0  0  0  0  0  0  0  0  0  0  0
   -7.4568   23.4541    4.2997 N   0  0  0  0  0  0  0  0  0  0  0  0
   -6.1393   23.0428    4.2421 C   0  0  0  0  0  0  0  0  0  0  0  0
   -5.6179   22.2428    5.0185 O   0  0  0  0  0  0  0  0  0  0  0  0
   -7.6310   24.3455    3.8482 H   0  0  0  0  0  0  0  0  0  0  0  0
  -10.5038   24.5073    7.9794 C   0  0  0  0  0  0  0  0  0  0  0  0
  -10.0389   23.5314    6.9334 C   0  0  0  0  0  0  0  0  0  0  0  0
  -10.6755   22.3034    6.7822 C   0  0  0  0  0  0  0  0  0  0  0  0
  -10.2641   21.4229    5.7830 C   0  0  0  0  0  0  0  0  0  0  0  0
   -9.2152   21.7450    4.8951 C   0  0  0  0  0  0  0  0  0  0  0  0
   -8.9477   20.7568    3.7951 C   0  0  0  0  0  0  0  0  0  0  0  0
   -8.5388   22.9650    5.0684 C   0  0  0  0  0  0  0  0  0  0  0  0
   -8.9892   23.8565    6.0661 C   0  0  0  0  0  0  0  0  0  0  0  0
 27 28  1  0  0  0
 28 29  1  0  0  0
 29 30  2  0  0  0
 30 31  1  0  0  0
 31 32  1  0  0  0
 31 33  2  0  0  0
 33 23  1  0  0  0
 23 24  1  0  0  0
 24 25  2  0  0  0
 24  1  1  0  0  0
  1  2  1  0  0  0
  2  3  2  0  0  0
  3  4  1  0  0  0
  4  5  2  0  0  0
  5  6  1  0  0  0
  6  7  2  0  0  0
  1  8  1  0  0  0
  8  9  1  0  0  0
  9 10  1  0  0  0
 10 11  1  0  0  0
 11 14  1  0  0  0
 14 15  2  0  0  0
 15 16  1  0  0  0
 16 17  2  0  0  0
 17 18  1  0  0  0
 18 19  2  0  0  0
 19 20  1  0  0  0
 20 21  2  0  0  0
 21 22  1  0  0  0
 11 12  1  0  0  0
 12 13  1  0  0  0
 33 34  1  0  0  0
 34 28  2  0  0  0
  7  2  1  0  0  0
 13  8  1  0  0  0
 22 14  1  0  0  0
 22 17  1  0  0  0
 23 26  1  0  0  0
M  END
> <minimizedAffinity>
-11.12778

$$$$
OCNT-2313239


 29 30  0  0  0  0  0  0  0  0999 V2000
   -5.2325   31.6444    8.1171 C   0  0  0  0  0  0  0  0  0  0  0  0
   -5.6897   31.4216    9.2373 O   0  0  0  0  0  0  0  0  0  0  0  0
   -5.6100   30.9385    6.9889 N   0  0  0  0  0  0  0  0  0  0  0  0
   -4.9590   30.9661    6.2128 H   0  0  0  0  0  0  0  0  0  0  0  0
   -4.7417   34.0621    8.5349 C   0  0  0  0  0  0  0  0  0  0  0  0
   -4.2500   32.7997    7.8421 C   0  0  0  0  0  0  0  0  0  0  0  0
   -2.9377   32.4113    8.3435 N   0  0  0  0  0  0  0  0  0  0  0  0
   -2.1242   31.6027    7.5702 C   0  0  0  0  0  0  0  0  0  0  0  0
   -2.3677   31.3516    6.3964 O   0  0  0  0  0  0  0  0  0  0  0  0
   -2.8925   32.2496    9.3438 H   0  0  0  0  0  0  0  0  0  0  0  0
   -0.9161   31.0891    8.3429 C   0  0  0  0  0  0  0  0  0  0  0  0
   -0.3935   29.6755    7.9908 C   0  0  0  0  0  0  0  0  0  0  0  0
    0.7919   29.3658    8.9302 C   0  0  0  0  0  0  0  0  0  0  0  0
   -1.4730   28.6044    8.2186 C   0  0  0  0  0  0  0  0  0  0  0  0
    0.1182   29.6071    6.5425 C   0  0  0  0  0  0  0  0  0  0  0  0
   -6.4447   29.7584    7.1162 C   0  0  0  0  0  0  0  0  0  0  0  0
   -6.7376   29.1215    5.7659 C   0  0  0  0  0  0  0  0  0  0  0  0
   -6.0283   29.7887    4.5895 C   0  0  0  0  0  0  0  0  0  0  0  0
   -6.0825   28.7133    3.5069 C   0  0  0  0  0  0  0  0  0  0  0  0
   -6.0062   27.4604    4.2549 N   0  0  0  0  0  0  0  0  0  0  0  0
   -6.2296   27.6767    5.6845 C   0  0  0  0  0  0  0  0  0  0  0  0
   -5.8361   26.2242    3.6771 C   0  0  0  0  0  0  0  0  0  0  0  0
   -6.2018   25.0388    4.3442 C   0  0  0  0  0  0  0  0  0  0  0  0
   -6.0334   23.7741    3.7648 C   0  0  0  0  0  0  0  0  0  0  0  0
   -5.4890   23.6734    2.4954 C   0  0  0  0  0  0  0  0  0  0  0  0
   -5.3279   22.4659    1.9375 F   0  0  0  0  0  0  0  0  0  0  0  0
   -5.1145   24.8189    1.8140 C   0  0  0  0  0  0  0  0  0  0  0  0
   -4.5877   24.7304    0.5844 F   0  0  0  0  0  0  0  0  0  0  0  0
   -5.2829   26.0765    2.3946 C   0  0  0  0  0  0  0  0  0  0  0  0
  5  6  1  0  0  0
  6  7  1  0  0  0
  7  8  1  0  0  0
  8  9  2  0  0  0
  8 11  1  0  0  0
 11 12  1  0  0  0
 12 13  1  0  0  0
 12 14  1  0  0  0
 12 15  1  0  0  0
  6  1  1  0  0  0
  1  2  2  0  0  0
  1  3  1  0  0  0
  3 16  1  0  0  0
 16 17  1  0  0  0
 17 18  1  0  0  0
 18 19  1  0  0  0
 19 20  1  0  0  0
 20 22  1  0  0  0
 22 23  1  0  0  0
 23 24  2  0  0  0
 24 25  1  0  0  0
 25 26  1  0  0  0
 25 27  2  0  0  0
 27 28  1  0  0  0
 27 29  1  0  0  0
 20 21  1  0  0  0
 21 17  1  0  0  0
 29 22  2  0  0  0
  7 10  1  0  0  0
  3  4  1  0  0  0
M  END
> <minimizedAffinity>
-9.65663

$$$$
OCNT-2313241


 27 29  0  0  0  0  0  0  0  0999 V2000
   -2.7532   26.0562    4.6503 C   0  0  0  0  0  0  0  0  0  0  0  0
   -1.5631   25.9096    3.9326 C   0  0  0  0  0  0  0  0  0  0  0  0
   -0.3600   26.3352    4.4900 C   0  0  0  0  0  0  0  0  0  0  0  0
   -0.3402   26.8954    5.7708 C   0  0  0  0  0  0  0  0  0  0  0  0
   -1.5168   27.0359    6.5161 C   0  0  0  0  0  0  0  0  0  0  0  0
   -2.7231   26.6043    5.9416 C   0  0  0  0  0  0  0  0  0  0  0  0
   -3.8809   25.0233    2.7739 N   0  0  0  0  0  0  0  0  0  0  0  0
   -4.0223   25.5864    4.0249 C   0  0  0  0  0  0  0  0  0  0  0  0
   -5.0627   25.7017    4.6616 O   0  0  0  0  0  0  0  0  0  0  0  0
   -2.9451   24.8726    2.4116 H   0  0  0  0  0  0  0  0  0  0  0  0
   -5.1747   23.1400    2.0167 C   0  0  0  0  0  0  0  0  0  0  0  0
   -6.1598   22.5750    1.2020 C   0  0  0  0  0  0  0  0  0  0  0  0
   -6.8553   23.3800    0.2997 C   0  0  0  0  0  0  0  0  0  0  0  0
   -8.0682   22.6820   -0.7034 Cl  0  0  0  0  0  0  0  0  0  0  0  0
   -6.5783   24.7402    0.1998 C   0  0  0  0  0  0  0  0  0  0  0  0
   -5.5949   25.3111    1.0107 C   0  0  0  0  0  0  0  0  0  0  0  0
   -4.8909   24.5216    1.9228 C   0  0  0  0  0  0  0  0  0  0  0  0
   -5.0352   21.3220    3.5595 C   0  0  0  0  0  0  0  0  0  0  0  0
   -4.4224   22.4468    2.9391 O   0  0  0  0  0  0  0  0  0  0  0  0
   -1.5528   27.5475    7.8249 N   0  0  0  0  0  0  0  0  0  0  0  0
   -2.0540   26.9528    8.4786 H   0  0  0  0  0  0  0  0  0  0  0  0
   -1.5950   28.8545    8.3127 C   0  0  0  0  0  0  0  0  0  0  0  0
   -0.4653   29.5823    8.6888 C   0  0  0  0  0  0  0  0  0  0  0  0
   -0.5103   30.8498    9.1765 N   0  0  0  0  0  0  0  0  0  0  0  0
   -1.7489   31.3678    9.2984 C   0  0  0  0  0  0  0  0  0  0  0  0
   -2.8810   30.6521    8.9540 C   0  0  0  0  0  0  0  0  0  0  0  0
   -2.8280   29.3900    8.4640 N   0  0  0  0  0  0  0  0  0  0  0  0
 18 19  1  0  0  0
 19 11  1  0  0  0
 11 12  1  0  0  0
 12 13  2  0  0  0
 13 14  1  0  0  0
 13 15  1  0  0  0
 15 16  2  0  0  0
 16 17  1  0  0  0
 17  7  1  0  0  0
  7  8  1  0  0  0
  8  9  2  0  0  0
  8  1  1  0  0  0
  1  2  1  0  0  0
  2  3  2  0  0  0
  3  4  1  0  0  0
  4  5  2  0  0  0
  5 20  1  0  0  0
 20 22  1  0  0  0
 22 23  2  0  0  0
 23 24  1  0  0  0
 24 25  2  0  0  0
 25 26  1  0  0  0
 26 27  2  0  0  0
  5  6  1  0  0  0
 17 11  2  0  0  0
  6  1  2  0  0  0
 27 22  1  0  0  0
  7 10  1  0  0  0
 20 21  1  0  0  0
M  END
> <minimizedAffinity>
-9.47269

$$$$
OCNT-2313250


 26 29  0  0  0  0  0  0  0  0999 V2000
   -4.0094   26.5010    4.8587 C   0  0  0  0  0  0  0  0  0  0  0  0
   -3.3444   26.5903    3.6335 C   0  0  0  0  0  0  0  0  0  0  0  0
   -3.5023   25.5953    2.6618 C   0  0  0  0  0  0  0  0  0  0  0  0
   -4.3172   24.4898    2.9156 C   0  0  0  0  0  0  0  0  0  0  0  0
   -5.0022   24.4042    4.1287 C   0  0  0  0  0  0  0  0  0  0  0  0
   -6.0430   23.0727    4.4810 Cl  0  0  0  0  0  0  0  0  0  0  0  0
   -4.8436   25.4006    5.0973 C   0  0  0  0  0  0  0  0  0  0  0  0
   -1.6227   27.4288    6.3724 O   0  0  0  0  0  0  0  0  0  0  0  0
   -2.7542   27.8599    6.5544 C   0  0  0  0  0  0  0  0  0  0  0  0
   -3.9030   27.4617    5.8867 N   0  0  0  0  0  0  0  0  0  0  0  0
   -4.7666   27.9102    6.1671 H   0  0  0  0  0  0  0  0  0  0  0  0
   -3.0619   28.9250    7.5998 C   0  0  0  0  0  0  0  0  0  0  0  0
   -2.1319   30.1318    7.5122 C   0  0  0  0  0  0  0  0  0  0  0  0
   -1.0315   30.1747    8.5875 C   0  0  0  0  0  0  0  0  0  0  0  0
   -1.2059   31.5781    9.1695 C   0  0  0  0  0  0  0  0  0  0  0  0
   -2.4448   31.6320   10.0621 C   0  0  0  0  0  0  0  0  0  0  0  0
   -3.5779   31.6032    9.0353 C   0  0  0  0  0  0  0  0  0  0  0  0
   -2.8126   31.4932    7.7175 C   0  0  0  0  0  0  0  0  0  0  0  0
   -1.6600   32.3198    8.0136 O   0  0  0  0  0  0  0  0  0  0  0  0
   -4.5170   23.5231    1.9563 O   0  0  0  0  0  0  0  0  0  0  0  0
   -5.5696   23.7051    1.0877 C   0  0  0  0  0  0  0  0  0  0  0  0
   -6.3643   22.5943    0.8280 C   0  0  0  0  0  0  0  0  0  0  0  0
   -7.4110   22.7415   -0.0638 C   0  0  0  0  0  0  0  0  0  0  0  0
   -7.6949   23.8974   -0.7026 N   0  0  0  0  0  0  0  0  0  0  0  0
   -6.8880   24.9503   -0.4470 C   0  0  0  0  0  0  0  0  0  0  0  0
   -5.8166   24.9054    0.4275 C   0  0  0  0  0  0  0  0  0  0  0  0
  8  9  2  0  0  0
  9 12  1  0  0  0
 12 13  1  0  0  0
 13 14  1  0  0  0
 14 15  1  0  0  0
 15 16  1  0  0  0
 16 17  1  0  0  0
 17 18  1  0  0  0
 18 19  1  0  0  0
  9 10  1  0  0  0
 10  1  1  0  0  0
  1  2  1  0  0  0
  2  3  2  0  0  0
  3  4  1  0  0  0
  4 20  1  0  0  0
 20 21  1  0  0  0
 21 22  2  0  0  0
 22 23  1  0  0  0
 23 24  2  0  0  0
 24 25  1  0  0  0
 25 26  2  0  0  0
  4  5  2  0  0  0
  5  6  1  0  0  0
  5  7  1  0  0  0
 18 13  1  0  0  0
  7  1  2  0  0  0
 19 15  1  0  0  0
 26 21  1  0  0  0
 10 11  1  0  0  0
M  END
> <minimizedAffinity>
-8.97936

$$$$
OCNT-2313251


 27 30  0  0  0  0  0  0  0  0999 V2000
   -3.0817   27.4661    6.5740 O   0  0  0  0  0  0  0  0  0  0  0  0
   -3.7916   28.3402    6.0942 C   0  0  0  0  0  0  0  0  0  0  0  0
   -4.6939   28.1605    5.0595 N   0  0  0  0  0  0  0  0  0  0  0  0
   -5.2769   28.9552    4.8261 H   0  0  0  0  0  0  0  0  0  0  0  0
   -4.9142   26.9937    4.2985 C   0  0  0  0  0  0  0  0  0  0  0  0
   -5.8861   26.1028    4.7677 C   0  0  0  0  0  0  0  0  0  0  0  0
   -6.1794   24.9214    4.0726 C   0  0  0  0  0  0  0  0  0  0  0  0
   -5.5009   24.6101    2.8855 C   0  0  0  0  0  0  0  0  0  0  0  0
   -4.5320   25.5068    2.4221 C   0  0  0  0  0  0  0  0  0  0  0  0
   -3.8380   25.2888    1.2961 F   0  0  0  0  0  0  0  0  0  0  0  0
   -4.2416   26.6849    3.1193 C   0  0  0  0  0  0  0  0  0  0  0  0
   -5.7940   23.4133    2.1731 N   0  0  0  0  0  0  0  0  0  0  0  0
   -5.4950   22.1137    2.5458 C   0  0  0  0  0  0  0  0  0  0  0  0
   -5.9656   21.2825    1.5571 C   0  0  0  0  0  0  0  0  0  0  0  0
   -6.5373   22.1484    0.6193 C   0  0  0  0  0  0  0  0  0  0  0  0
   -6.4391   23.4257    0.9814 N   0  0  0  0  0  0  0  0  0  0  0  0
   -3.7991   29.6774    6.6327 C   0  0  0  0  0  0  0  0  0  0  0  0
   -4.9118   30.4826    6.8058 C   0  0  0  0  0  0  0  0  0  0  0  0
   -4.4052   31.7337    7.1671 C   0  0  0  0  0  0  0  0  0  0  0  0
   -3.0768   31.7316    7.2512 N   0  0  0  0  0  0  0  0  0  0  0  0
   -2.7210   30.4260    7.0858 N   0  0  0  0  0  0  0  0  0  0  0  0
   -1.3804   30.0256    7.3706 C   0  0  0  0  0  0  0  0  0  0  0  0
   -0.4697   29.7073    6.3543 C   0  0  0  0  0  0  0  0  0  0  0  0
    0.8371   29.3269    6.6751 C   0  0  0  0  0  0  0  0  0  0  0  0
    1.2395   29.2457    8.0064 C   0  0  0  0  0  0  0  0  0  0  0  0
    0.3332   29.5315    9.0241 C   0  0  0  0  0  0  0  0  0  0  0  0
   -0.9735   29.9122    8.7104 C   0  0  0  0  0  0  0  0  0  0  0  0
  1  2  2  0  0  0
  2  3  1  0  0  0
  3  5  1  0  0  0
  5  6  1  0  0  0
  6  7  2  0  0  0
  7  8  1  0  0  0
  8 12  1  0  0  0
 12 13  1  0  0  0
 13 14  2  0  0  0
 14 15  1  0  0  0
 15 16  2  0  0  0
  8  9  2  0  0  0
  9 10  1  0  0  0
  9 11  1  0  0  0
  2 17  1  0  0  0
 17 18  2  0  0  0
 18 19  1  0  0  0
 19 20  2  0  0  0
 20 21  1  0  0  0
 21 22  1  0  0  0
 22 23  2  0  0  0
 23 24  1  0  0  0
 24 25  2  0  0  0
 25 26  1  0  0  0
 26 27  2  0  0  0
 11  5  2  0  0  0
 21 17  1  0  0  0
 27 22  1  0  0  0
 16 12  1  0  0  0
  3  4  1  0  0  0
M  END
> <minimizedAffinity>
-9.85981

$$$$
OCNT-2313255


 25 28  0  0  0  0  0  0  0  0999 V2000
   -5.4624   25.8082    3.8785 C   0  0  0  0  0  0  0  0  0  0  0  0
   -5.5261   27.3346    3.7703 C   0  0  0  0  0  0  0  0  0  0  0  0
   -4.8236   27.7885    5.0452 C   0  0  0  0  0  0  0  0  0  0  0  0
   -3.8649   26.7308    5.3428 N   0  0  0  0  0  0  0  0  0  0  0  0
   -2.7014   26.8343    6.0970 C   0  0  0  0  0  0  0  0  0  0  0  0
   -1.8427   25.9518    6.0225 O   0  0  0  0  0  0  0  0  0  0  0  0
   -4.0737   25.5832    4.4682 C   0  0  0  0  0  0  0  0  0  0  0  0
   -2.5009   28.0105    6.9267 C   0  0  0  0  0  0  0  0  0  0  0  0
   -1.3053   28.6406    7.2204 C   0  0  0  0  0  0  0  0  0  0  0  0
   -0.1082   28.2501    6.7120 N   0  0  0  0  0  0  0  0  0  0  0  0
   -1.4617   29.7597    8.1038 C   0  0  0  0  0  0  0  0  0  0  0  0
   -0.5549   30.7054    8.6328 C   0  0  0  0  0  0  0  0  0  0  0  0
   -1.0403   31.6901    9.4902 C   0  0  0  0  0  0  0  0  0  0  0  0
   -2.3910   31.6997    9.7900 C   0  0  0  0  0  0  0  0  0  0  0  0
   -3.3032   30.8257    9.3196 N   0  0  0  0  0  0  0  0  0  0  0  0
   -2.7908   29.8893    8.4925 C   0  0  0  0  0  0  0  0  0  0  0  0
   -3.7947   28.6947    7.8171 S   0  0  0  0  0  0  0  0  0  0  0  0
   -0.0291   27.3008    6.3377 H   0  0  0  0  0  0  0  0  0  0  0  0
    0.7540   28.5356    7.1673 H   0  0  0  0  0  0  0  0  0  0  0  0
   -6.2580   22.2181    0.4754 C   0  0  0  0  0  0  0  0  0  0  0  0
   -6.0473   23.5117    1.1608 C   0  0  0  0  0  0  0  0  0  0  0  0
   -5.8396   23.7453    2.5040 C   0  0  0  0  0  0  0  0  0  0  0  0
   -5.7002   25.0974    2.6465 N   0  0  0  0  0  0  0  0  0  0  0  0
   -5.8086   25.7627    1.4821 N   0  0  0  0  0  0  0  0  0  0  0  0
   -6.0185   24.7998    0.5825 C   0  0  0  0  0  0  0  0  0  0  0  0
 20 21  1  0  0  0
 21 22  2  0  0  0
 22 23  1  0  0  0
 23  1  1  0  0  0
  1  2  1  0  0  0
  2  3  1  0  0  0
  3  4  1  0  0  0
  4  5  1  0  0  0
  5  6  2  0  0  0
  5  8  1  0  0  0
  8  9  2  0  0  0
  9 10  1  0  0  0
  9 11  1  0  0  0
 11 12  1  0  0  0
 12 13  2  0  0  0
 13 14  1  0  0  0
 14 15  2  0  0  0
 15 16  1  0  0  0
 16 17  1  0  0  0
  4  7  1  0  0  0
 23 24  1  0  0  0
 24 25  2  0  0  0
 25 21  1  0  0  0
  7  1  1  0  0  0
 17  8  1  0  0  0
 16 11  2  0  0  0
 10 18  1  0  0  0
 10 19  1  0  0  0
M  END
> <minimizedAffinity>
-9.37935

$$$$
OCNT-2313260


 30 33  0  0  0  0  0  0  0  0999 V2000
   -5.2225   30.6824    7.1174 C   0  0  0  0  0  0  0  0  0  0  0  0
   -5.9008   31.4603    8.0389 C   0  0  0  0  0  0  0  0  0  0  0  0
   -7.2248   31.2720    7.8090 N   0  0  0  0  0  0  0  0  0  0  0  0
   -7.4762   30.4266    6.8028 N   0  0  0  0  0  0  0  0  0  0  0  0
   -6.2631   30.0107    6.3985 C   0  0  0  0  0  0  0  0  0  0  0  0
   -8.0124   31.6895    8.2944 H   0  0  0  0  0  0  0  0  0  0  0  0
   -6.1612   28.9901    5.3574 C   0  0  0  0  0  0  0  0  0  0  0  0
   -6.0101   29.3697    4.0154 C   0  0  0  0  0  0  0  0  0  0  0  0
   -5.8898   28.4024    3.0144 C   0  0  0  0  0  0  0  0  0  0  0  0
   -5.9254   27.0513    3.3494 C   0  0  0  0  0  0  0  0  0  0  0  0
   -5.7748   26.1570    2.3210 O   0  0  0  0  0  0  0  0  0  0  0  0
   -5.5038   24.8381    2.8096 C   0  0  0  0  0  0  0  0  0  0  0  0
   -6.4346   24.4880    3.9587 C   0  0  0  0  0  0  0  0  0  0  0  0
   -6.2041   25.3546    5.0754 O   0  0  0  0  0  0  0  0  0  0  0  0
   -6.1192   26.6653    4.6795 C   0  0  0  0  0  0  0  0  0  0  0  0
   -6.2270   27.6286    5.6821 C   0  0  0  0  0  0  0  0  0  0  0  0
   -3.1695   31.1803    6.0935 O   0  0  0  0  0  0  0  0  0  0  0  0
   -3.7717   30.6360    7.0144 C   0  0  0  0  0  0  0  0  0  0  0  0
   -3.1290   29.8913    7.9744 N   0  0  0  0  0  0  0  0  0  0  0  0
   -3.6687   29.3256    8.6152 H   0  0  0  0  0  0  0  0  0  0  0  0
   -1.6877   29.7115    7.9755 C   0  0  0  0  0  0  0  0  0  0  0  0
   -1.2608   28.2953    8.3951 C   0  0  0  0  0  0  0  0  0  0  0  0
   -2.1474   27.2681    7.8394 N   0  0  0  0  0  0  0  0  0  0  0  0
   -2.2304   26.4749    8.4707 H   0  0  0  0  0  0  0  0  0  0  0  0
   -1.8027   26.7975    6.5602 C   0  0  0  0  0  0  0  0  0  0  0  0
   -2.8110   26.3576    5.6938 C   0  0  0  0  0  0  0  0  0  0  0  0
   -2.5879   25.9014    4.4346 N   0  0  0  0  0  0  0  0  0  0  0  0
   -1.2965   25.9172    4.0498 C   0  0  0  0  0  0  0  0  0  0  0  0
   -0.2872   26.3645    4.8826 C   0  0  0  0  0  0  0  0  0  0  0  0
   -0.5191   26.8119    6.1404 N   0  0  0  0  0  0  0  0  0  0  0  0
 17 18  2  0  0  0
 18 19  1  0  0  0
 19 21  1  0  0  0
 21 22  1  0  0  0
 22 23  1  0  0  0
 23 25  1  0  0  0
 25 26  2  0  0  0
 26 27  1  0  0  0
 27 28  2  0  0  0
 28 29  1  0  0  0
 29 30  2  0  0  0
 18  1  1  0  0  0
  1  2  2  0  0  0
  2  3  1  0  0  0
  3  4  1  0  0  0
  4  5  2  0  0  0
  5  7  1  0  0  0
  7  8  1  0  0  0
  8  9  2  0  0  0
  9 10  1  0  0  0
 10 11  1  0  0  0
 11 12  1  0  0  0
 12 13  1  0  0  0
 13 14  1  0  0  0
 14 15  1  0  0  0
 15 16  1  0  0  0
 30 25  1  0  0  0
  5  1  1  0  0  0
 16  7  2  0  0  0
 15 10  2  0  0  0
 19 20  1  0  0  0
 23 24  1  0  0  0
  3  6  1  0  0  0
M  END
> <minimizedAffinity>
-8.65573

$$$$
OCNT-2313271


 25 26  0  0  0  0  0  0  0  0999 V2000
   -3.7438   30.5263    8.5667 C   0  0  0  0  0  0  0  0  0  0  0  0
   -3.8566   30.4951    9.7869 O   0  0  0  0  0  0  0  0  0  0  0  0
   -4.7479   30.2407    7.6755 N   0  0  0  0  0  0  0  0  0  0  0  0
   -4.5648   30.6058    6.7263 H   0  0  0  0  0  0  0  0  0  0  0  0
   -1.5407   29.7921    7.1802 C   0  0  0  0  0  0  0  0  0  0  0  0
   -2.3069   30.9010    6.4693 C   0  0  0  0  0  0  0  0  0  0  0  0
   -2.4015   30.7998    7.9716 C   0  0  0  0  0  0  0  0  0  0  0  0
    0.7127   29.1430    6.0705 C   0  0  0  0  0  0  0  0  0  0  0  0
   -0.0047   29.8705    7.2083 C   0  0  0  0  0  0  0  0  0  0  0  0
    0.5387   29.3811    8.5559 C   0  0  0  0  0  0  0  0  0  0  0  0
   -2.0812   28.4125    7.0557 C   0  0  0  0  0  0  0  0  0  0  0  0
   -1.7492   27.5487    7.9221 O   0  0  0  0  0  0  0  0  0  0  0  0
   -2.8498   28.2008    6.0613 O   0  0  0  0  0  0  0  0  0  0  0  0
   -6.1768   30.1387    8.0321 C   0  0  0  0  0  0  0  0  0  0  0  0
   -6.5244   31.3964    8.8557 C   0  0  0  0  0  0  0  0  0  0  0  0
   -6.3945   28.9018    8.9220 C   0  0  0  0  0  0  0  0  0  0  0  0
   -7.0489   30.0848    6.7386 C   0  0  0  0  0  0  0  0  0  0  0  0
   -6.6318   29.1046    5.6593 C   0  0  0  0  0  0  0  0  0  0  0  0
   -6.6052   27.7274    5.9176 C   0  0  0  0  0  0  0  0  0  0  0  0
   -6.2246   26.8257    4.9208 C   0  0  0  0  0  0  0  0  0  0  0  0
   -5.8707   27.2923    3.6514 C   0  0  0  0  0  0  0  0  0  0  0  0
   -5.9003   28.6638    3.3837 C   0  0  0  0  0  0  0  0  0  0  0  0
   -6.2813   29.5634    4.3821 C   0  0  0  0  0  0  0  0  0  0  0  0
   -5.4837   26.3670    2.6272 C   0  0  0  0  0  0  0  0  0  0  0  0
   -5.1724   25.6130    1.8007 N   0  0  0  0  0  0  0  0  0  0  0  0
  8  9  1  0  0  0
  9 10  1  0  0  0
  9  5  1  0  0  0
  5 11  1  0  0  0
 11 12  2  0  0  0
 11 13  1  0  0  0
  5  6  1  0  0  0
  6  7  1  0  0  0
  7  1  1  0  0  0
  1  2  2  0  0  0
  1  3  1  0  0  0
  3 14  1  0  0  0
 14 15  1  0  0  0
 14 16  1  0  0  0
 14 17  1  0  0  0
 17 18  1  0  0  0
 18 19  1  0  0  0
 19 20  2  0  0  0
 20 21  1  0  0  0
 21 24  1  0  0  0
 24 25  3  0  0  0
 21 22  2  0  0  0
 22 23  1  0  0  0
  7  5  1  0  0  0
 23 18  2  0  0  0
  3  4  1  0  0  0
M  CHG 1  13  -1
M  END
> <minimizedAffinity>
-8.78152

$$$$
OCNT-2313274


 25 27  0  0  0  0  0  0  0  0999 V2000
   -6.9333   30.4946    6.0544 O   0  0  0  0  0  0  0  0  0  0  0  0
   -6.0093   29.4166    5.8093 C   0  0  0  0  0  0  0  0  0  0  0  0
   -6.7628   31.1790    5.3805 H   0  0  0  0  0  0  0  0  0  0  0  0
   -4.5748   29.8405    6.2181 C   0  0  0  0  0  0  0  0  0  0  0  0
   -4.2216   31.2097    5.8043 N   0  0  0  0  0  0  0  0  0  0  0  0
   -3.5538   31.1469    5.0281 H   0  0  0  0  0  0  0  0  0  0  0  0
   -3.6114   32.0133    6.8795 C   0  0  0  0  0  0  0  0  0  0  0  0
   -2.3098   31.3506    7.3474 C   0  0  0  0  0  0  0  0  0  0  0  0
   -1.6758   32.1368    8.4962 C   0  0  0  0  0  0  0  0  0  0  0  0
   -2.6478   32.3311    9.6593 C   0  0  0  0  0  0  0  0  0  0  0  0
   -3.9639   32.9571    9.2062 C   0  0  0  0  0  0  0  0  0  0  0  0
   -4.5967   32.1619    8.0661 C   0  0  0  0  0  0  0  0  0  0  0  0
   -5.8013   32.8144    7.6549 O   0  0  0  0  0  0  0  0  0  0  0  0
   -5.6063   33.3305    6.8421 H   0  0  0  0  0  0  0  0  0  0  0  0
   -6.1040   29.0180    4.3264 C   0  0  0  0  0  0  0  0  0  0  0  0
   -6.0216   27.5329    4.0825 C   0  0  0  0  0  0  0  0  0  0  0  0
   -6.2104   26.6239    5.1281 C   0  0  0  0  0  0  0  0  0  0  0  0
   -6.1359   25.2491    4.8914 C   0  0  0  0  0  0  0  0  0  0  0  0
   -5.8681   24.7538    3.6055 C   0  0  0  0  0  0  0  0  0  0  0  0
   -5.7853   23.3749    3.3541 C   0  0  0  0  0  0  0  0  0  0  0  0
   -5.5152   22.8986    2.0697 C   0  0  0  0  0  0  0  0  0  0  0  0
   -5.3260   23.7938    1.0213 C   0  0  0  0  0  0  0  0  0  0  0  0
   -5.4063   25.1675    1.2550 C   0  0  0  0  0  0  0  0  0  0  0  0
   -5.6761   25.6632    2.5417 C   0  0  0  0  0  0  0  0  0  0  0  0
   -5.7568   27.0429    2.7945 C   0  0  0  0  0  0  0  0  0  0  0  0
  1  2  1  0  0  0
  2  4  1  0  0  0
  4  5  1  0  0  0
  5  7  1  0  0  0
  7  8  1  0  0  0
  8  9  1  0  0  0
  9 10  1  0  0  0
 10 11  1  0  0  0
 11 12  1  0  0  0
 12 13  1  0  0  0
  2 15  1  0  0  0
 15 16  1  0  0  0
 16 17  1  0  0  0
 17 18  2  0  0  0
 18 19  1  0  0  0
 19 20  2  0  0  0
 20 21  1  0  0  0
 21 22  2  0  0  0
 22 23  1  0  0  0
 23 24  2  0  0  0
 24 25  1  0  0  0
 12  7  1  0  0  0
 25 16  2  0  0  0
 24 19  1  0  0  0
  1  3  1  0  0  0
  5  6  1  0  0  0
 13 14  1  0  0  0
M  END
> <minimizedAffinity>
-10.00928

$$$$
OCNT-2313294


 28 30  0  0  0  0  0  0  0  0999 V2000
   -4.1231   27.2534    5.2838 N   0  0  0  0  0  0  0  0  0  0  0  0
   -4.6586   28.0899    5.5410 H   0  0  0  0  0  0  0  0  0  0  0  0
   -4.4044   26.8585    3.6664 S   0  0  0  0  0  0  0  0  0  0  0  0
   -5.1747   27.9532    3.1193 O   0  0  0  0  0  0  0  0  0  0  0  0
   -3.1355   26.4401    3.1139 O   0  0  0  0  0  0  0  0  0  0  0  0
   -5.7932   24.6910    2.6450 C   0  0  0  0  0  0  0  0  0  0  0  0
   -6.6377   23.5822    2.7856 C   0  0  0  0  0  0  0  0  0  0  0  0
   -7.1922   23.2680    4.0291 C   0  0  0  0  0  0  0  0  0  0  0  0
   -8.2283   21.9013    4.1788 Cl  0  0  0  0  0  0  0  0  0  0  0  0
   -6.9243   24.0520    5.1466 C   0  0  0  0  0  0  0  0  0  0  0  0
   -6.0819   25.1552    5.0237 C   0  0  0  0  0  0  0  0  0  0  0  0
   -5.5079   25.4655    3.7799 C   0  0  0  0  0  0  0  0  0  0  0  0
   -6.0994   25.1898    0.3226 C   0  0  0  0  0  0  0  0  0  0  0  0
   -5.2490   25.0888    1.4571 O   0  0  0  0  0  0  0  0  0  0  0  0
   -2.7185   27.3052    5.7305 C   0  0  0  0  0  0  0  0  0  0  0  0
   -2.3741   25.9530    6.3504 C   0  0  0  0  0  0  0  0  0  0  0  0
   -2.6243   28.3915    6.7651 C   0  0  0  0  0  0  0  0  0  0  0  0
   -3.6525   28.8955    7.4262 N   0  0  0  0  0  0  0  0  0  0  0  0
   -3.1330   29.8733    8.2337 C   0  0  0  0  0  0  0  0  0  0  0  0
   -3.7920   30.7199    9.1368 C   0  0  0  0  0  0  0  0  0  0  0  0
   -3.0397   31.6497    9.8627 C   0  0  0  0  0  0  0  0  0  0  0  0
   -1.6576   31.7340    9.6929 C   0  0  0  0  0  0  0  0  0  0  0  0
   -0.9817   30.8970    8.7965 C   0  0  0  0  0  0  0  0  0  0  0  0
   -1.7527   29.9726    8.0785 C   0  0  0  0  0  0  0  0  0  0  0  0
   -1.4527   29.0125    7.1375 N   0  0  0  0  0  0  0  0  0  0  0  0
   -0.1331   28.6670    6.6578 C   0  0  0  0  0  0  0  0  0  0  0  0
    0.4506   29.7429    6.0623 F   0  0  0  0  0  0  0  0  0  0  0  0
    0.6894   28.3004    7.6719 F   0  0  0  0  0  0  0  0  0  0  0  0
 13 14  1  0  0  0
 14  6  1  0  0  0
  6  7  1  0  0  0
  7  8  2  0  0  0
  8  9  1  0  0  0
  8 10  1  0  0  0
 10 11  2  0  0  0
 11 12  1  0  0  0
 12  3  1  0  0  0
  3  4  2  0  0  0
  3  5  2  0  0  0
  3  1  1  0  0  0
  1 15  1  0  0  0
 15 16  1  0  0  0
 15 17  1  0  0  0
 17 18  2  0  0  0
 18 19  1  0  0  0
 19 20  2  0  0  0
 20 21  1  0  0  0
 21 22  2  0  0  0
 22 23  1  0  0  0
 23 24  2  0  0  0
 24 25  1  0  0  0
 25 26  1  0  0  0
 26 27  1  0  0  0
 26 28  1  0  0  0
 12  6  2  0  0  0
 25 17  1  0  0  0
 24 19  1  0  0  0
  1  2  1  0  0  0
M  END
> <minimizedAffinity>
-9.22948

$$$$
OCNT-2313300


 23 25  0  0  0  0  0  0  0  0999 V2000
   -2.5035   27.8488    7.1003 C   0  0  0  0  0  0  0  0  0  0  0  0
   -2.0433   26.7477    7.3774 O   0  0  0  0  0  0  0  0  0  0  0  0
   -3.3709   28.1278    6.0630 N   0  0  0  0  0  0  0  0  0  0  0  0
   -3.7872   29.0472    6.0847 H   0  0  0  0  0  0  0  0  0  0  0  0
   -0.9674   29.5786    8.2506 C   0  0  0  0  0  0  0  0  0  0  0  0
   -2.2071   29.0166    7.9394 C   0  0  0  0  0  0  0  0  0  0  0  0
   -3.1826   29.7676    8.6629 C   0  0  0  0  0  0  0  0  0  0  0  0
   -2.5357   30.7742    9.3371 C   0  0  0  0  0  0  0  0  0  0  0  0
   -1.1991   30.6551    9.0811 N   0  0  0  0  0  0  0  0  0  0  0  0
   -0.4819   31.2488    9.4785 H   0  0  0  0  0  0  0  0  0  0  0  0
    0.7155   29.3115    6.4190 C   0  0  0  0  0  0  0  0  0  0  0  0
    0.4388   29.1896    7.9097 C   0  0  0  0  0  0  0  0  0  0  0  0
   -3.8178   27.2569    5.0518 C   0  0  0  0  0  0  0  0  0  0  0  0
   -5.1907   27.2316    4.7884 C   0  0  0  0  0  0  0  0  0  0  0  0
   -5.7185   26.3986    3.7930 C   0  0  0  0  0  0  0  0  0  0  0  0
   -4.8752   25.5742    3.0374 C   0  0  0  0  0  0  0  0  0  0  0  0
   -3.4991   25.6038    3.2984 C   0  0  0  0  0  0  0  0  0  0  0  0
   -2.9784   26.4404    4.2966 C   0  0  0  0  0  0  0  0  0  0  0  0
   -5.4065   24.7244    2.0235 N   0  0  0  0  0  0  0  0  0  0  0  0
   -5.3557   23.3463    1.9722 C   0  0  0  0  0  0  0  0  0  0  0  0
   -5.9997   22.9791    0.8145 C   0  0  0  0  0  0  0  0  0  0  0  0
   -6.4495   24.0764    0.1425 N   0  0  0  0  0  0  0  0  0  0  0  0
   -6.0834   25.1012    0.8815 C   0  0  0  0  0  0  0  0  0  0  0  0
 11 12  1  0  0  0
 12  5  1  0  0  0
  5  6  2  0  0  0
  6  1  1  0  0  0
  1  2  2  0  0  0
  1  3  1  0  0  0
  3 13  1  0  0  0
 13 14  1  0  0  0
 14 15  2  0  0  0
 15 16  1  0  0  0
 16 19  1  0  0  0
 19 20  1  0  0  0
 20 21  2  0  0  0
 21 22  1  0  0  0
 22 23  2  0  0  0
 16 17  2  0  0  0
 17 18  1  0  0  0
  6  7  1  0  0  0
  7  8  2  0  0  0
  8  9  1  0  0  0
  9  5  1  0  0  0
 18 13  2  0  0  0
 23 19  1  0  0  0
  3  4  1  0  0  0
  9 10  1  0  0  0
M  END
> <minimizedAffinity>
-8.08099

$$$$
OCNT-2313305


 24 25  0  0  0  0  0  0  0  0999 V2000
   -4.3463   28.7503    5.3314 N   0  0  0  0  0  0  0  0  0  0  0  0
   -4.2134   29.5005    6.4701 C   0  0  0  0  0  0  0  0  0  0  0  0
   -4.5752   29.1826    7.5956 O   0  0  0  0  0  0  0  0  0  0  0  0
   -3.6162   30.7126    6.1953 N   0  0  0  0  0  0  0  0  0  0  0  0
   -4.1617   29.1885    4.4362 H   0  0  0  0  0  0  0  0  0  0  0  0
   -3.0596   30.7570    5.3556 H   0  0  0  0  0  0  0  0  0  0  0  0
   -5.9165   23.3352    4.9315 C   0  0  0  0  0  0  0  0  0  0  0  0
   -5.5481   24.7857    5.0242 C   0  0  0  0  0  0  0  0  0  0  0  0
   -6.5452   25.7536    5.0850 C   0  0  0  0  0  0  0  0  0  0  0  0
   -6.1820   27.0948    5.1766 C   0  0  0  0  0  0  0  0  0  0  0  0
   -4.8344   27.4325    5.2016 C   0  0  0  0  0  0  0  0  0  0  0  0
   -3.8786   26.3934    5.1281 C   0  0  0  0  0  0  0  0  0  0  0  0
   -4.2285   25.0890    5.0433 N   0  0  0  0  0  0  0  0  0  0  0  0
   -2.4908   26.7647    5.1107 N   0  0  0  0  0  0  0  0  0  0  0  0
   -1.8542   26.0275    4.0101 C   0  0  0  0  0  0  0  0  0  0  0  0
   -1.8862   26.4615    6.4133 C   0  0  0  0  0  0  0  0  0  0  0  0
   -3.3112   31.6568    7.2442 C   0  0  0  0  0  0  0  0  0  0  0  0
   -1.8711   31.5339    7.6260 C   0  0  0  0  0  0  0  0  0  0  0  0
   -1.3775   32.0411    8.9606 C   0  0  0  0  0  0  0  0  0  0  0  0
   -1.4498   30.5518    8.7014 C   0  0  0  0  0  0  0  0  0  0  0  0
   -0.2376   29.7126    8.5340 C   0  0  0  0  0  0  0  0  0  0  0  0
   -0.5233   28.4086    8.7441 F   0  0  0  0  0  0  0  0  0  0  0  0
    0.7218   30.0797    9.4126 F   0  0  0  0  0  0  0  0  0  0  0  0
    0.2787   29.8252    7.2872 F   0  0  0  0  0  0  0  0  0  0  0  0
  7  8  1  0  0  0
  8  9  2  0  0  0
  9 10  1  0  0  0
 10 11  2  0  0  0
 11  1  1  0  0  0
  1  2  1  0  0  0
  2  3  2  0  0  0
  2  4  1  0  0  0
  4 17  1  0  0  0
 17 18  1  0  0  0
 18 19  1  0  0  0
 19 20  1  0  0  0
 20 21  1  0  0  0
 21 22  1  0  0  0
 21 23  1  0  0  0
 21 24  1  0  0  0
 11 12  1  0  0  0
 12 14  1  0  0  0
 14 15  1  0  0  0
 14 16  1  0  0  0
 12 13  2  0  0  0
 13  8  1  0  0  0
 20 18  1  0  0  0
  1  5  1  0  0  0
  4  6  1  0  0  0
M  END
> <minimizedAffinity>
-8.20502

$$$$
OCNT-2313325


 32 35  0  0  0  0  0  0  0  0999 V2000
   -6.2914   29.4165    4.7357 O   0  0  0  0  0  0  0  0  0  0  0  0
   -6.2113   28.3353    5.3150 C   0  0  0  0  0  0  0  0  0  0  0  0
   -6.3809   28.2267    6.6689 N   0  0  0  0  0  0  0  0  0  0  0  0
   -5.9628   27.1405    4.6623 N   0  0  0  0  0  0  0  0  0  0  0  0
   -5.7227   27.2134    3.2169 C   0  0  0  0  0  0  0  0  0  0  0  0
   -6.0399   25.8951    2.4942 C   0  0  0  0  0  0  0  0  0  0  0  0
   -5.3724   24.7613    3.1522 N   0  0  0  0  0  0  0  0  0  0  0  0
   -5.6097   24.6578    4.5988 C   0  0  0  0  0  0  0  0  0  0  0  0
   -5.3115   25.9909    5.3093 C   0  0  0  0  0  0  0  0  0  0  0  0
   -6.8053   27.3666    6.9817 H   0  0  0  0  0  0  0  0  0  0  0  0
   -5.5158   23.5479    2.4743 C   0  0  0  0  0  0  0  0  0  0  0  0
   -5.8959   23.5653    1.1848 N   0  0  0  0  0  0  0  0  0  0  0  0
   -6.0641   22.3857    0.5583 C   0  0  0  0  0  0  0  0  0  0  0  0
   -5.8721   21.1726    1.1637 C   0  0  0  0  0  0  0  0  0  0  0  0
   -5.4876   21.2388    2.4773 C   0  0  0  0  0  0  0  0  0  0  0  0
   -5.3040   22.3977    3.1403 N   0  0  0  0  0  0  0  0  0  0  0  0
   -6.7138   29.3995    7.4798 C   0  0  0  0  0  0  0  0  0  0  0  0
   -6.8602   29.0457    8.9594 C   0  0  0  0  0  0  0  0  0  0  0  0
   -5.4146   28.9685    9.4537 C   0  0  0  0  0  0  0  0  0  0  0  0
   -4.6780   29.8828    8.5778 N   0  0  0  0  0  0  0  0  0  0  0  0
   -5.5468   30.4021    7.5136 C   0  0  0  0  0  0  0  0  0  0  0  0
   -3.3918   30.3029    8.8158 C   0  0  0  0  0  0  0  0  0  0  0  0
   -3.1232   31.4591    9.5665 C   0  0  0  0  0  0  0  0  0  0  0  0
   -1.8181   31.8803    9.8355 C   0  0  0  0  0  0  0  0  0  0  0  0
   -0.7407   31.1480    9.3512 C   0  0  0  0  0  0  0  0  0  0  0  0
   -0.9616   30.0069    8.5823 C   0  0  0  0  0  0  0  0  0  0  0  0
   -2.2771   29.5940    8.3301 C   0  0  0  0  0  0  0  0  0  0  0  0
    0.1787   29.3861    8.1549 O   0  0  0  0  0  0  0  0  0  0  0  0
    0.4098   29.3313    6.7543 C   0  0  0  0  0  0  0  0  0  0  0  0
   -0.2659   30.3065    6.1062 F   0  0  0  0  0  0  0  0  0  0  0  0
    1.7297   29.5137    6.5239 F   0  0  0  0  0  0  0  0  0  0  0  0
    0.0619   28.1255    6.2463 F   0  0  0  0  0  0  0  0  0  0  0  0
  1  2  2  0  0  0
  2  3  1  0  0  0
  3 17  1  0  0  0
 17 18  1  0  0  0
 18 19  1  0  0  0
 19 20  1  0  0  0
 20 22  1  0  0  0
 22 23  2  0  0  0
 23 24  1  0  0  0
 24 25  2  0  0  0
 25 26  1  0  0  0
 26 28  1  0  0  0
 28 29  1  0  0  0
 29 30  1  0  0  0
 29 31  1  0  0  0
 29 32  1  0  0  0
 26 27  2  0  0  0
 20 21  1  0  0  0
  2  4  1  0  0  0
  4  5  1  0  0  0
  5  6  1  0  0  0
  6  7  1  0  0  0
  7 11  1  0  0  0
 11 12  2  0  0  0
 12 13  1  0  0  0
 13 14  2  0  0  0
 14 15  1  0  0  0
 15 16  2  0  0  0
  7  8  1  0  0  0
  8  9  1  0  0  0
 21 17  1  0  0  0
  9  4  1  0  0  0
 27 22  1  0  0  0
 16 11  1  0  0  0
  3 10  1  0  0  0
M  END
> <minimizedAffinity>
-10.43413

$$$$
OCNT-2313360


 25 28  0  0  0  0  0  0  0  0999 V2000
   -5.7171   26.6324    3.2867 C   0  0  0  0  0  0  0  0  0  0  0  0
   -5.7403   28.0028    3.0125 C   0  0  0  0  0  0  0  0  0  0  0  0
   -6.1087   28.9023    4.0151 C   0  0  0  0  0  0  0  0  0  0  0  0
   -6.4401   28.4414    5.2978 C   0  0  0  0  0  0  0  0  0  0  0  0
   -6.3819   27.0639    5.5653 C   0  0  0  0  0  0  0  0  0  0  0  0
   -6.0123   26.1604    4.5680 C   0  0  0  0  0  0  0  0  0  0  0  0
   -3.7810   25.5622    1.8987 O   0  0  0  0  0  0  0  0  0  0  0  0
   -5.2218   25.4862    2.0160 S   0  0  0  0  0  0  0  0  0  0  0  0
   -6.0800   25.7091    0.8711 O   0  0  0  0  0  0  0  0  0  0  0  0
   -5.6136   23.9771    2.6714 N   0  0  0  0  0  0  0  0  0  0  0  0
   -6.8511   23.2966    2.1992 C   0  0  0  0  0  0  0  0  0  0  0  0
   -6.5143   21.9568    1.5362 C   0  0  0  0  0  0  0  0  0  0  0  0
   -5.8287   21.0422    2.4037 O   0  0  0  0  0  0  0  0  0  0  0  0
   -5.0491   21.6906    3.4194 C   0  0  0  0  0  0  0  0  0  0  0  0
   -4.4927   23.0457    2.9704 C   0  0  0  0  0  0  0  0  0  0  0  0
   -6.8350   29.4110    6.3895 C   0  0  0  0  0  0  0  0  0  0  0  0
   -5.9484   30.5771    6.3912 N   0  0  0  0  0  0  0  0  0  0  0  0
   -6.5272   31.4063    6.5239 H   0  0  0  0  0  0  0  0  0  0  0  0
   -4.9072   30.4104    7.4147 C   0  0  0  0  0  0  0  0  0  0  0  0
   -3.5403   30.2003    6.6943 C   0  0  0  0  0  0  0  0  0  0  0  0
   -3.2997   31.7316    6.7653 C   0  0  0  0  0  0  0  0  0  0  0  0
   -4.3763   31.7632    7.8337 C   0  0  0  0  0  0  0  0  0  0  0  0
   -3.8992   31.9238    9.2692 C   0  0  0  0  0  0  0  0  0  0  0  0
   -4.3157   33.4106    9.1424 C   0  0  0  0  0  0  0  0  0  0  0  0
   -5.2426   32.9924    7.9729 C   0  0  0  0  0  0  0  0  0  0  0  0
  7  8  2  0  0  0
  8  9  2  0  0  0
  8  1  1  0  0  0
  1  2  1  0  0  0
  2  3  2  0  0  0
  3  4  1  0  0  0
  4 16  1  0  0  0
 16 17  1  0  0  0
 17 19  1  0  0  0
 19 20  1  0  0  0
 20 21  1  0  0  0
 21 22  1  0  0  0
 22 23  1  0  0  0
 23 24  1  0  0  0
 24 25  1  0  0  0
  4  5  2  0  0  0
  5  6  1  0  0  0
  8 10  1  0  0  0
 10 11  1  0  0  0
 11 12  1  0  0  0
 12 13  1  0  0  0
 13 14  1  0  0  0
 14 15  1  0  0  0
  6  1  2  0  0  0
 15 10  1  0  0  0
 22 19  1  0  0  0
 25 22  1  0  0  0
 17 18  1  0  0  0
M  END
> <minimizedAffinity>
-8.99333

$$$$
OCNT-2313362


 23 26  0  0  0  0  0  0  0  0999 V2000
   -7.6980   30.1013    5.9282 O   0  0  0  0  0  0  0  0  0  0  0  0
   -6.5784   29.3683    6.4751 S   0  0  0  0  0  0  0  0  0  0  0  0
   -6.6325   28.7303    7.7693 O   0  0  0  0  0  0  0  0  0  0  0  0
   -6.2872   28.0752    5.3160 C   0  0  0  0  0  0  0  0  0  0  0  0
   -6.0822   28.0924    3.9521 C   0  0  0  0  0  0  0  0  0  0  0  0
   -6.0504   29.4289    2.9096 Cl  0  0  0  0  0  0  0  0  0  0  0  0
   -5.9018   26.7443    3.5953 C   0  0  0  0  0  0  0  0  0  0  0  0
   -5.9974   25.9314    4.6482 N   0  0  0  0  0  0  0  0  0  0  0  0
   -6.2179   26.7673    5.7286 O   0  0  0  0  0  0  0  0  0  0  0  0
   -5.6504   26.2258    2.1529 C   0  0  0  0  0  0  0  0  0  0  0  0
   -4.4996   25.2850    1.8989 C   0  0  0  0  0  0  0  0  0  0  0  0
   -5.9090   24.7764    1.8274 C   0  0  0  0  0  0  0  0  0  0  0  0
   -5.2718   30.4337    6.4423 N   0  0  0  0  0  0  0  0  0  0  0  0
   -5.4685   31.1890    5.7825 H   0  0  0  0  0  0  0  0  0  0  0  0
   -4.6441   30.8847    7.7116 C   0  0  0  0  0  0  0  0  0  0  0  0
   -5.6960   31.5328    8.6355 C   0  0  0  0  0  0  0  0  0  0  0  0
   -5.0329   32.7710    9.2167 C   0  0  0  0  0  0  0  0  0  0  0  0
   -4.1877   33.2765    8.0635 C   0  0  0  0  0  0  0  0  0  0  0  0
   -3.6281   32.0164    7.3948 C   0  0  0  0  0  0  0  0  0  0  0  0
   -2.3038   31.5388    7.9975 C   0  0  0  0  0  0  0  0  0  0  0  0
   -2.6780   30.5589    9.0141 N   0  0  0  0  0  0  0  0  0  0  0  0
   -3.7808   29.8134    8.4024 C   0  0  0  0  0  0  0  0  0  0  0  0
   -1.8960   29.9383    9.2212 H   0  0  0  0  0  0  0  0  0  0  0  0
  1  2  2  0  0  0
  2  3  2  0  0  0
  2 13  1  0  0  0
 15 13  1  0  0  0
 15 16  1  0  0  0
 16 17  1  0  0  0
 17 18  1  0  0  0
 18 19  1  0  0  0
 19 20  1  0  0  0
 20 21  1  0  0  0
 21 22  1  0  0  0
  2  4  1  0  0  0
  4  5  2  0  0  0
  5  6  1  0  0  0
  5  7  1  0  0  0
  7 10  1  0  0  0
 10 11  1  0  0  0
 11 12  1  0  0  0
  7  8  2  0  0  0
  8  9  1  0  0  0
 19 15  1  0  0  0
  9  4  1  0  0  0
 22 15  1  0  0  0
 12 10  1  0  0  0
 13 14  1  0  0  0
 21 23  1  0  0  0
M  END
> <minimizedAffinity>
-7.85592

$$$$
OCNT-2313374


 28 31  0  0  0  0  0  0  0  0999 V2000
   -5.2465   26.2929    4.3301 N   0  0  0  0  0  0  0  0  0  0  0  0
   -4.0822   26.8048    4.8643 C   0  0  0  0  0  0  0  0  0  0  0  0
   -2.9380   26.4937    4.5601 O   0  0  0  0  0  0  0  0  0  0  0  0
   -4.3683   27.7340    5.8504 N   0  0  0  0  0  0  0  0  0  0  0  0
   -6.0820   26.4952    4.8585 H   0  0  0  0  0  0  0  0  0  0  0  0
   -5.1865   28.2907    5.6571 H   0  0  0  0  0  0  0  0  0  0  0  0
   -5.4011   23.0470    2.4584 C   0  0  0  0  0  0  0  0  0  0  0  0
   -5.6533   23.5354    1.1698 C   0  0  0  0  0  0  0  0  0  0  0  0
   -5.7534   24.9085    0.9419 C   0  0  0  0  0  0  0  0  0  0  0  0
   -5.6061   25.8021    2.0056 C   0  0  0  0  0  0  0  0  0  0  0  0
   -5.3635   25.3327    3.3018 C   0  0  0  0  0  0  0  0  0  0  0  0
   -5.2357   23.9552    3.5159 C   0  0  0  0  0  0  0  0  0  0  0  0
   -6.0015   20.7564    1.7789 N   0  0  0  0  0  0  0  0  0  0  0  0
   -5.3067   21.5671    2.6390 C   0  0  0  0  0  0  0  0  0  0  0  0
   -4.6192   21.0799    3.5300 O   0  0  0  0  0  0  0  0  0  0  0  0
   -5.8466   19.7586    1.8574 H   0  0  0  0  0  0  0  0  0  0  0  0
   -6.4854   21.0846    0.9474 H   0  0  0  0  0  0  0  0  0  0  0  0
   -3.2724   28.4233    6.5107 C   0  0  0  0  0  0  0  0  0  0  0  0
   -3.7423   29.6952    7.2375 C   0  0  0  0  0  0  0  0  0  0  0  0
   -3.2322   29.7345    8.7027 C   0  0  0  0  0  0  0  0  0  0  0  0
   -1.7043   29.9398    8.7439 C   0  0  0  0  0  0  0  0  0  0  0  0
   -1.3263   31.2601    8.0483 C   0  0  0  0  0  0  0  0  0  0  0  0
   -2.0153   32.4280    8.7753 C   0  0  0  0  0  0  0  0  0  0  0  0
   -3.5429   32.2426    8.7382 C   0  0  0  0  0  0  0  0  0  0  0  0
   -3.9041   30.9163    9.4311 C   0  0  0  0  0  0  0  0  0  0  0  0
   -4.0120   32.1942    7.2735 C   0  0  0  0  0  0  0  0  0  0  0  0
   -3.3337   31.0199    6.5342 C   0  0  0  0  0  0  0  0  0  0  0  0
   -1.8069   31.2268    6.5880 C   0  0  0  0  0  0  0  0  0  0  0  0
 13 14  1  0  0  0
 14 15  2  0  0  0
 14  7  1  0  0  0
  7  8  1  0  0  0
  8  9  2  0  0  0
  9 10  1  0  0  0
 10 11  2  0  0  0
 11  1  1  0  0  0
  1  2  1  0  0  0
  2  3  2  0  0  0
  2  4  1  0  0  0
  4 18  1  0  0  0
 18 19  1  0  0  0
 19 20  1  0  0  0
 20 21  1  0  0  0
 21 22  1  0  0  0
 22 23  1  0  0  0
 23 24  1  0  0  0
 24 25  1  0  0  0
 24 26  1  0  0  0
 26 27  1  0  0  0
 27 28  1  0  0  0
 11 12  1  0  0  0
 12  7  2  0  0  0
 27 19  1  0  0  0
 25 20  1  0  0  0
 28 22  1  0  0  0
 13 16  1  0  0  0
 13 17  1  0  0  0
  1  5  1  0  0  0
  4  6  1  0  0  0
M  END
> <minimizedAffinity>
-9.82211

$$$$
OCNT-2313383


 25 27  0  0  0  0  0  0  0  0999 V2000
   -4.1751   26.0965    5.2329 N   0  0  0  0  0  0  0  0  0  0  0  0
   -4.0238   25.6284    3.9430 C   0  0  0  0  0  0  0  0  0  0  0  0
   -3.3779   26.2130    3.0766 O   0  0  0  0  0  0  0  0  0  0  0  0
   -4.6518   24.3966    3.6976 N   0  0  0  0  0  0  0  0  0  0  0  0
   -4.4525   25.3991    5.9040 H   0  0  0  0  0  0  0  0  0  0  0  0
   -2.1908   30.8685    7.4456 C   0  0  0  0  0  0  0  0  0  0  0  0
   -2.7573   29.6622    6.8637 N   0  0  0  0  0  0  0  0  0  0  0  0
   -1.9443   28.5570    6.7089 C   0  0  0  0  0  0  0  0  0  0  0  0
   -2.4135   27.4201    6.1823 C   0  0  0  0  0  0  0  0  0  0  0  0
   -3.7951   27.3180    5.7529 C   0  0  0  0  0  0  0  0  0  0  0  0
   -4.6037   28.3777    5.9056 C   0  0  0  0  0  0  0  0  0  0  0  0
   -4.0995   29.6502    6.4909 C   0  0  0  0  0  0  0  0  0  0  0  0
   -4.8679   30.6002    6.6175 O   0  0  0  0  0  0  0  0  0  0  0  0
   -5.5410   23.6850    4.6638 C   0  0  0  0  0  0  0  0  0  0  0  0
   -7.0568   23.6782    4.2974 C   0  0  0  0  0  0  0  0  0  0  0  0
   -7.1232   22.2683    4.9125 C   0  0  0  0  0  0  0  0  0  0  0  0
   -5.6327   22.1346    4.5508 C   0  0  0  0  0  0  0  0  0  0  0  0
   -4.2315   23.6923    2.4812 C   0  0  0  0  0  0  0  0  0  0  0  0
   -5.2936   23.7438    1.4055 C   0  0  0  0  0  0  0  0  0  0  0  0
   -5.9349   22.5674    0.9822 C   0  0  0  0  0  0  0  0  0  0  0  0
   -6.9277   22.6075   -0.0004 C   0  0  0  0  0  0  0  0  0  0  0  0
   -7.2913   23.8251   -0.5709 C   0  0  0  0  0  0  0  0  0  0  0  0
   -6.6574   24.9896   -0.1557 C   0  0  0  0  0  0  0  0  0  0  0  0
   -7.0060   26.1614   -0.7035 F   0  0  0  0  0  0  0  0  0  0  0  0
   -5.6664   24.9614    0.8210 C   0  0  0  0  0  0  0  0  0  0  0  0
  6  7  1  0  0  0
  7  8  1  0  0  0
  8  9  2  0  0  0
  9 10  1  0  0  0
 10  1  1  0  0  0
  1  2  1  0  0  0
  2  3  2  0  0  0
  2  4  1  0  0  0
  4 18  1  0  0  0
 18 19  1  0  0  0
 19 20  2  0  0  0
 20 21  1  0  0  0
 21 22  2  0  0  0
 22 23  1  0  0  0
 23 24  1  0  0  0
 23 25  2  0  0  0
  4 14  1  0  0  0
 14 15  1  0  0  0
 15 16  1  0  0  0
 16 17  1  0  0  0
 10 11  2  0  0  0
 11 12  1  0  0  0
 12 13  2  0  0  0
 12  7  1  0  0  0
 25 19  1  0  0  0
 17 14  1  0  0  0
  1  5  1  0  0  0
M  END
> <minimizedAffinity>
-9.12371

$$$$
OCNT-2313386


 31 33  0  0  0  0  0  0  0  0999 V2000
   -6.5666   30.1384    5.7422 N   0  0  0  0  0  0  0  0  0  0  0  0
   -6.4491   28.7975    5.4408 C   0  0  0  0  0  0  0  0  0  0  0  0
   -6.7563   27.9058    6.2230 O   0  0  0  0  0  0  0  0  0  0  0  0
   -6.6063   30.7819    4.9594 H   0  0  0  0  0  0  0  0  0  0  0  0
   -7.2994   30.5562    6.9229 C   0  0  0  0  0  0  0  0  0  0  0  0
   -5.4667   32.1168    7.3413 N   0  0  0  0  0  0  0  0  0  0  0  0
   -6.3271   31.2070    7.9102 C   0  0  0  0  0  0  0  0  0  0  0  0
   -6.3572   30.9582    9.1148 O   0  0  0  0  0  0  0  0  0  0  0  0
   -5.5495   32.3357    6.3577 H   0  0  0  0  0  0  0  0  0  0  0  0
   -4.5429   32.8996    8.1289 C   0  0  0  0  0  0  0  0  0  0  0  0
   -0.8586   30.7091    8.6971 C   0  0  0  0  0  0  0  0  0  0  0  0
   -1.4394   31.3918    9.7657 C   0  0  0  0  0  0  0  0  0  0  0  0
   -2.6299   32.1057    9.5825 C   0  0  0  0  0  0  0  0  0  0  0  0
   -3.2512   32.1507    8.3279 C   0  0  0  0  0  0  0  0  0  0  0  0
   -2.6669   31.4569    7.2611 C   0  0  0  0  0  0  0  0  0  0  0  0
   -1.4803   30.7443    7.4472 C   0  0  0  0  0  0  0  0  0  0  0  0
    0.6054   29.1965    7.5923 C   0  0  0  0  0  0  0  0  0  0  0  0
    0.2946   29.9758    8.7405 O   0  0  0  0  0  0  0  0  0  0  0  0
   -5.8728   28.5552    4.0580 C   0  0  0  0  0  0  0  0  0  0  0  0
   -6.0634   27.1254    3.5570 C   0  0  0  0  0  0  0  0  0  0  0  0
   -4.8185   26.5815    2.8473 C   0  0  0  0  0  0  0  0  0  0  0  0
   -4.9836   25.1473    2.4526 C   0  0  0  0  0  0  0  0  0  0  0  0
   -4.3949   24.0605    3.0688 C   0  0  0  0  0  0  0  0  0  0  0  0
   -4.7878   22.9272    2.4109 N   0  0  0  0  0  0  0  0  0  0  0  0
   -5.6250   23.2475    1.3680 C   0  0  0  0  0  0  0  0  0  0  0  0
   -6.2593   22.4199    0.4333 C   0  0  0  0  0  0  0  0  0  0  0  0
   -7.0657   23.0305   -0.5314 C   0  0  0  0  0  0  0  0  0  0  0  0
   -7.2288   24.4135   -0.5584 C   0  0  0  0  0  0  0  0  0  0  0  0
   -6.5863   25.2260    0.3831 C   0  0  0  0  0  0  0  0  0  0  0  0
   -5.7680   24.6354    1.3686 C   0  0  0  0  0  0  0  0  0  0  0  0
   -4.5060   21.9873    2.6508 H   0  0  0  0  0  0  0  0  0  0  0  0
 17 18  1  0  0  0
 18 11  1  0  0  0
 11 12  1  0  0  0
 12 13  2  0  0  0
 13 14  1  0  0  0
 14 10  1  0  0  0
 10  6  1  0  0  0
  6  7  1  0  0  0
  7  8  2  0  0  0
  7  5  1  0  0  0
  5  1  1  0  0  0
  1  2  1  0  0  0
  2  3  2  0  0  0
  2 19  1  0  0  0
 19 20  1  0  0  0
 20 21  1  0  0  0
 21 22  1  0  0  0
 22 23  2  0  0  0
 23 24  1  0  0  0
 24 25  1  0  0  0
 25 26  2  0  0  0
 26 27  1  0  0  0
 27 28  2  0  0  0
 28 29  1  0  0  0
 29 30  2  0  0  0
 14 15  2  0  0  0
 15 16  1  0  0  0
 16 11  2  0  0  0
 30 22  1  0  0  0
 30 25  1  0  0  0
  6  9  1  0  0  0
  1  4  1  0  0  0
 24 31  1  0  0  0
M  END
> <minimizedAffinity>
-9.69530

$$$$
OCNT-2313388


 25 27  0  0  0  0  0  0  0  0999 V2000
   -3.4743   27.5895    5.9254 C   0  0  0  0  0  0  0  0  0  0  0  0
   -4.7540   28.2700    6.1107 N   0  0  0  0  0  0  0  0  0  0  0  0
   -5.9095   27.9512    5.3883 C   0  0  0  0  0  0  0  0  0  0  0  0
   -6.9105   28.6655    5.4485 O   0  0  0  0  0  0  0  0  0  0  0  0
   -5.9071   26.7597    4.5609 C   0  0  0  0  0  0  0  0  0  0  0  0
   -6.0640   25.4544    4.9721 C   0  0  0  0  0  0  0  0  0  0  0  0
   -5.9575   24.5035    3.8962 C   0  0  0  0  0  0  0  0  0  0  0  0
   -6.0746   23.1007    3.8456 C   0  0  0  0  0  0  0  0  0  0  0  0
   -6.4232   22.2779    5.2983 Cl  0  0  0  0  0  0  0  0  0  0  0  0
   -5.9127   22.4525    2.6363 C   0  0  0  0  0  0  0  0  0  0  0  0
   -5.6419   23.0912    1.4803 N   0  0  0  0  0  0  0  0  0  0  0  0
   -5.5149   24.4395    1.4938 C   0  0  0  0  0  0  0  0  0  0  0  0
   -5.6716   25.1528    2.6883 C   0  0  0  0  0  0  0  0  0  0  0  0
   -5.5409   26.8578    2.8992 S   0  0  0  0  0  0  0  0  0  0  0  0
   -4.7509   29.4152    7.0616 C   0  0  0  0  0  0  0  0  0  0  0  0
   -4.1455   30.7006    6.4439 C   0  0  0  0  0  0  0  0  0  0  0  0
   -4.5724   30.9575    5.1118 O   0  0  0  0  0  0  0  0  0  0  0  0
   -5.5519   30.8789    5.1012 H   0  0  0  0  0  0  0  0  0  0  0  0
   -4.1040   29.0788    8.4260 C   0  0  0  0  0  0  0  0  0  0  0  0
   -2.9967   30.0337    8.8132 C   0  0  0  0  0  0  0  0  0  0  0  0
   -3.2774   31.1860    9.5600 C   0  0  0  0  0  0  0  0  0  0  0  0
   -2.2488   32.0508    9.9365 C   0  0  0  0  0  0  0  0  0  0  0  0
   -0.9329   31.7722    9.5713 C   0  0  0  0  0  0  0  0  0  0  0  0
   -0.6436   30.6302    8.8270 C   0  0  0  0  0  0  0  0  0  0  0  0
   -1.6703   29.7644    8.4487 C   0  0  0  0  0  0  0  0  0  0  0  0
  1  2  1  0  0  0
  2  3  1  0  0  0
  3  4  2  0  0  0
  3  5  1  0  0  0
  5  6  2  0  0  0
  6  7  1  0  0  0
  7  8  2  0  0  0
  8  9  1  0  0  0
  8 10  1  0  0  0
 10 11  2  0  0  0
 11 12  1  0  0  0
 12 13  2  0  0  0
 13 14  1  0  0  0
  2 15  1  0  0  0
 15 16  1  0  0  0
 16 17  1  0  0  0
 15 19  1  0  0  0
 19 20  1  0  0  0
 20 21  2  0  0  0
 21 22  1  0  0  0
 22 23  2  0  0  0
 23 24  1  0  0  0
 24 25  2  0  0  0
 14  5  1  0  0  0
 25 20  1  0  0  0
 13  7  1  0  0  0
 17 18  1  0  0  0
M  END
> <minimizedAffinity>
-8.92918

$$$$
OCNT-2313389


 28 31  0  0  0  0  0  0  0  0999 V2000
   -3.6875   26.0915    3.9584 N   0  0  0  0  0  0  0  0  0  0  0  0
   -4.2089   27.1216    4.8754 C   0  0  0  0  0  0  0  0  0  0  0  0
   -3.2012   27.5807    5.9364 C   0  0  0  0  0  0  0  0  0  0  0  0
   -2.2422   26.4490    6.2886 C   0  0  0  0  0  0  0  0  0  0  0  0
   -1.4791   25.9923    5.0366 C   0  0  0  0  0  0  0  0  0  0  0  0
   -2.2483   26.2722    3.7399 C   0  0  0  0  0  0  0  0  0  0  0  0
   -5.7175   26.8936    2.6850 C   0  0  0  0  0  0  0  0  0  0  0  0
   -4.4543   26.0111    2.6881 C   0  0  0  0  0  0  0  0  0  0  0  0
   -4.8955   24.5829    2.3678 C   0  0  0  0  0  0  0  0  0  0  0  0
   -5.7412   24.3346    1.2751 C   0  0  0  0  0  0  0  0  0  0  0  0
   -6.1586   23.0349    0.9814 C   0  0  0  0  0  0  0  0  0  0  0  0
   -5.7393   21.9693    1.7756 C   0  0  0  0  0  0  0  0  0  0  0  0
   -4.9026   22.2005    2.8654 C   0  0  0  0  0  0  0  0  0  0  0  0
   -4.4844   23.4985    3.1613 C   0  0  0  0  0  0  0  0  0  0  0  0
   -1.2933   26.8821    7.3137 N   0  0  0  0  0  0  0  0  0  0  0  0
   -0.4062   26.3917    7.3052 H   0  0  0  0  0  0  0  0  0  0  0  0
   -1.3170   28.1315    7.8922 C   0  0  0  0  0  0  0  0  0  0  0  0
   -2.4580   28.6544    8.2572 N   0  0  0  0  0  0  0  0  0  0  0  0
   -2.3600   29.8968    8.8076 N   0  0  0  0  0  0  0  0  0  0  0  0
   -1.2160   30.6304    9.0282 C   0  0  0  0  0  0  0  0  0  0  0  0
   -1.5247   31.7755    9.5943 N   0  0  0  0  0  0  0  0  0  0  0  0
   -2.8939   31.8085    9.7469 N   0  0  0  0  0  0  0  0  0  0  0  0
   -3.3853   30.6789    9.2677 C   0  0  0  0  0  0  0  0  0  0  0  0
    0.0056   30.0547    8.6367 C   0  0  0  0  0  0  0  0  0  0  0  0
   -0.0044   28.8384    8.0784 C   0  0  0  0  0  0  0  0  0  0  0  0
   -4.7841   30.2276    9.1865 C   0  0  0  0  0  0  0  0  0  0  0  0
   -5.6501   31.2460    9.4521 F   0  0  0  0  0  0  0  0  0  0  0  0
   -5.0605   29.2572   10.1025 F   0  0  0  0  0  0  0  0  0  0  0  0
  7  8  1  0  0  0
  8  9  1  0  0  0
  9 10  2  0  0  0
 10 11  1  0  0  0
 11 12  2  0  0  0
 12 13  1  0  0  0
 13 14  2  0  0  0
  8  1  1  0  0  0
  1  2  1  0  0  0
  2  3  1  0  0  0
  3  4  1  0  0  0
  4 15  1  0  0  0
 15 17  1  0  0  0
 17 18  2  0  0  0
 18 19  1  0  0  0
 19 20  1  0  0  0
 20 21  2  0  0  0
 21 22  1  0  0  0
 22 23  2  0  0  0
 23 26  1  0  0  0
 26 27  1  0  0  0
 26 28  1  0  0  0
 20 24  1  0  0  0
 24 25  2  0  0  0
  4  5  1  0  0  0
  5  6  1  0  0  0
 14  9  1  0  0  0
  6  1  1  0  0  0
 25 17  1  0  0  0
 23 19  1  0  0  0
 15 16  1  0  0  0
M  END
> <minimizedAffinity>
-10.35597

$$$$
OCNT-2313400


 28 31  0  0  0  0  0  0  0  0999 V2000
   -7.1613   28.5363    6.5236 C   0  0  0  0  0  0  0  0  0  0  0  0
   -6.5045   27.8777    5.3356 C   0  0  0  0  0  0  0  0  0  0  0  0
   -6.2127   26.5056    5.3510 C   0  0  0  0  0  0  0  0  0  0  0  0
   -5.5976   25.8904    4.2549 C   0  0  0  0  0  0  0  0  0  0  0  0
   -5.2679   26.6390    3.1261 C   0  0  0  0  0  0  0  0  0  0  0  0
   -5.5615   28.0042    3.1044 C   0  0  0  0  0  0  0  0  0  0  0  0
   -6.1742   28.6224    4.1971 C   0  0  0  0  0  0  0  0  0  0  0  0
   -4.6675   26.1686    1.9920 O   0  0  0  0  0  0  0  0  0  0  0  0
   -4.4721   24.7589    1.8958 C   0  0  0  0  0  0  0  0  0  0  0  0
   -5.5609   24.1865    1.0241 C   0  0  0  0  0  0  0  0  0  0  0  0
   -5.8689   22.8231    1.0758 C   0  0  0  0  0  0  0  0  0  0  0  0
   -6.8692   22.3342    0.2507 C   0  0  0  0  0  0  0  0  0  0  0  0
   -7.5710   23.0985   -0.6126 N   0  0  0  0  0  0  0  0  0  0  0  0
   -7.2624   24.4121   -0.6452 C   0  0  0  0  0  0  0  0  0  0  0  0
   -6.2799   24.9956    0.1403 C   0  0  0  0  0  0  0  0  0  0  0  0
   -4.4601   29.5663    8.6492 C   0  0  0  0  0  0  0  0  0  0  0  0
   -4.9255   29.3761    7.3654 C   0  0  0  0  0  0  0  0  0  0  0  0
   -6.1900   28.8949    7.5403 N   0  0  0  0  0  0  0  0  0  0  0  0
   -6.4995   28.8006    8.8456 N   0  0  0  0  0  0  0  0  0  0  0  0
   -5.4422   29.2036    9.5359 N   0  0  0  0  0  0  0  0  0  0  0  0
   -0.8818   29.3494    8.4793 O   0  0  0  0  0  0  0  0  0  0  0  0
   -2.0676   30.0085    8.0168 C   0  0  0  0  0  0  0  0  0  0  0  0
   -1.6723   31.4072    7.5460 C   0  0  0  0  0  0  0  0  0  0  0  0
   -1.1519   32.2877    8.6848 C   0  0  0  0  0  0  0  0  0  0  0  0
   -1.8525   32.0391   10.0206 C   0  0  0  0  0  0  0  0  0  0  0  0
   -3.2298   31.4150    9.8356 C   0  0  0  0  0  0  0  0  0  0  0  0
   -3.1299   30.0405    9.1448 C   0  0  0  0  0  0  0  0  0  0  0  0
   -1.1226   28.4232    8.6621 H   0  0  0  0  0  0  0  0  0  0  0  0
 21 22  1  0  0  0
 22 23  1  0  0  0
 23 24  1  0  0  0
 24 25  1  0  0  0
 25 26  1  0  0  0
 26 27  1  0  0  0
 27 16  1  0  0  0
 16 17  2  0  0  0
 17 18  1  0  0  0
 18  1  1  0  0  0
  1  2  1  0  0  0
  2  3  1  0  0  0
  3  4  2  0  0  0
  4  5  1  0  0  0
  5  8  1  0  0  0
  8  9  1  0  0  0
  9 10  1  0  0  0
 10 11  2  0  0  0
 11 12  1  0  0  0
 12 13  2  0  0  0
 13 14  1  0  0  0
 14 15  2  0  0  0
  5  6  2  0  0  0
  6  7  1  0  0  0
 18 19  1  0  0  0
 19 20  2  0  0  0
 27 22  1  0  0  0
 20 16  1  0  0  0
  7  2  2  0  0  0
 15 10  1  0  0  0
 21 28  1  0  0  0
M  END
> <minimizedAffinity>
-9.89049

$$$$
OCNT-2313402


 22 24  0  0  0  0  0  0  0  0999 V2000
   -6.7823   31.1131    7.3845 C   0  0  0  0  0  0  0  0  0  0  0  0
   -7.9509   31.4053    7.1622 O   0  0  0  0  0  0  0  0  0  0  0  0
   -6.1006   30.1328    6.6877 N   0  0  0  0  0  0  0  0  0  0  0  0
   -5.0930   30.1004    6.7855 H   0  0  0  0  0  0  0  0  0  0  0  0
   -6.7147   29.4347    5.5639 C   0  0  0  0  0  0  0  0  0  0  0  0
   -6.7724   27.9210    5.8359 C   0  0  0  0  0  0  0  0  0  0  0  0
   -5.5730   27.1814    5.2481 C   0  0  0  0  0  0  0  0  0  0  0  0
   -5.4921   27.4068    3.7657 C   0  0  0  0  0  0  0  0  0  0  0  0
   -6.0811   28.6746    3.2190 C   0  0  0  0  0  0  0  0  0  0  0  0
   -5.9824   29.7897    4.2549 C   0  0  0  0  0  0  0  0  0  0  0  0
   -5.4588   26.2339    2.8873 N   0  0  0  0  0  0  0  0  0  0  0  0
   -4.3662   26.8001    3.0483 N   0  0  0  0  0  0  0  0  0  0  0  0
   -5.9213   31.7922    8.4332 C   0  0  0  0  0  0  0  0  0  0  0  0
   -4.9179   34.1218    8.2198 C   0  0  0  0  0  0  0  0  0  0  0  0
   -4.7914   32.6432    7.8296 C   0  0  0  0  0  0  0  0  0  0  0  0
   -3.4316   32.0931    8.2429 C   0  0  0  0  0  0  0  0  0  0  0  0
   -2.9220   32.2816    9.5394 C   0  0  0  0  0  0  0  0  0  0  0  0
   -1.6765   31.7606    9.8946 C   0  0  0  0  0  0  0  0  0  0  0  0
   -0.9376   31.0498    8.9578 C   0  0  0  0  0  0  0  0  0  0  0  0
    0.2568   30.5498    9.3009 F   0  0  0  0  0  0  0  0  0  0  0  0
   -1.4198   30.8498    7.6710 C   0  0  0  0  0  0  0  0  0  0  0  0
   -2.6648   31.3701    7.3133 C   0  0  0  0  0  0  0  0  0  0  0  0
 14 15  1  0  0  0
 15 13  1  0  0  0
 13  1  1  0  0  0
  1  2  2  0  0  0
  1  3  1  0  0  0
  3  5  1  0  0  0
  5  6  1  0  0  0
  6  7  1  0  0  0
  7  8  1  0  0  0
  8  9  1  0  0  0
  9 10  1  0  0  0
  8 11  1  0  0  0
 11 12  2  0  0  0
 15 16  1  0  0  0
 16 17  1  0  0  0
 17 18  2  0  0  0
 18 19  1  0  0  0
 19 20  1  0  0  0
 19 21  2  0  0  0
 21 22  1  0  0  0
 10  5  1  0  0  0
 22 16  2  0  0  0
 12  8  1  0  0  0
  3  4  1  0  0  0
M  END
> <minimizedAffinity>
-9.08805

$$$$
OCNT-2313423


 27 29  0  0  0  0  0  0  0  0999 V2000
   -5.2002   28.7846    7.5989 N   0  0  0  0  0  0  0  0  0  0  0  0
   -5.7876   28.2191    8.2095 H   0  0  0  0  0  0  0  0  0  0  0  0
   -1.3653   30.4026    9.2710 N   0  0  0  0  0  0  0  0  0  0  0  0
   -1.8325   31.8019    9.2216 C   0  0  0  0  0  0  0  0  0  0  0  0
   -3.2852   31.7155    8.8712 C   0  0  0  0  0  0  0  0  0  0  0  0
   -4.2482   32.7105    8.9015 C   0  0  0  0  0  0  0  0  0  0  0  0
   -5.5448   32.3857    8.5002 C   0  0  0  0  0  0  0  0  0  0  0  0
   -5.8529   31.0855    8.0678 C   0  0  0  0  0  0  0  0  0  0  0  0
   -4.8661   30.0964    8.0288 C   0  0  0  0  0  0  0  0  0  0  0  0
   -3.5878   30.4211    8.4481 C   0  0  0  0  0  0  0  0  0  0  0  0
   -2.3478   29.5899    8.5116 C   0  0  0  0  0  0  0  0  0  0  0  0
    0.0025   30.1870    8.8034 C   0  0  0  0  0  0  0  0  0  0  0  0
    0.6069   29.2756    6.4682 C   0  0  0  0  0  0  0  0  0  0  0  0
    0.1844   28.9630    7.8949 C   0  0  0  0  0  0  0  0  0  0  0  0
   -5.6112   28.5511    5.9768 S   0  0  0  0  0  0  0  0  0  0  0  0
   -6.7944   27.7173    5.9713 O   0  0  0  0  0  0  0  0  0  0  0  0
   -5.6161   29.8304    5.3007 O   0  0  0  0  0  0  0  0  0  0  0  0
   -4.2540   27.5765    5.3508 C   0  0  0  0  0  0  0  0  0  0  0  0
   -3.1429   27.4006    6.1925 C   0  0  0  0  0  0  0  0  0  0  0  0
   -2.0361   26.6610    5.7670 C   0  0  0  0  0  0  0  0  0  0  0  0
   -2.0253   26.0980    4.4932 C   0  0  0  0  0  0  0  0  0  0  0  0
   -3.1386   26.2857    3.6607 C   0  0  0  0  0  0  0  0  0  0  0  0
   -3.1214   25.7461    2.4298 F   0  0  0  0  0  0  0  0  0  0  0  0
   -4.2697   27.0133    4.0636 C   0  0  0  0  0  0  0  0  0  0  0  0
   -5.4019   27.1815    3.0922 C   0  0  0  0  0  0  0  0  0  0  0  0
   -1.0054   25.3564    3.9609 O   0  0  0  0  0  0  0  0  0  0  0  0
    0.2991   25.9198    3.9991 C   0  0  0  0  0  0  0  0  0  0  0  0
 13 14  1  0  0  0
 14 12  1  0  0  0
 12  3  1  0  0  0
  3  4  1  0  0  0
  4  5  1  0  0  0
  5  6  2  0  0  0
  6  7  1  0  0  0
  7  8  2  0  0  0
  8  9  1  0  0  0
  9  1  1  0  0  0
  1 15  1  0  0  0
 15 16  2  0  0  0
 15 17  2  0  0  0
 15 18  1  0  0  0
 18 19  1  0  0  0
 19 20  2  0  0  0
 20 21  1  0  0  0
 21 26  1  0  0  0
 26 27  1  0  0  0
 21 22  2  0  0  0
 22 23  1  0  0  0
 22 24  1  0  0  0
 24 25  1  0  0  0
  9 10  2  0  0  0
 10 11  1  0  0  0
 11  3  1  0  0  0
 10  5  1  0  0  0
 24 18  2  0  0  0
  1  2  1  0  0  0
M  END
> <minimizedAffinity>
-9.07527

$$$$
OCNT-2313433


 26 29  0  0  0  0  0  0  0  0999 V2000
   -5.1556   31.6259    7.7214 C   0  0  0  0  0  0  0  0  0  0  0  0
   -5.1520   32.3651    9.0781 C   0  0  0  0  0  0  0  0  0  0  0  0
   -3.7591   32.8661    9.4397 C   0  0  0  0  0  0  0  0  0  0  0  0
   -2.7555   31.7104    9.5273 C   0  0  0  0  0  0  0  0  0  0  0  0
   -3.0641   30.6458    8.5513 N   0  0  0  0  0  0  0  0  0  0  0  0
   -3.7490   31.1203    7.3410 C   0  0  0  0  0  0  0  0  0  0  0  0
   -1.9151   29.8922    8.2601 C   0  0  0  0  0  0  0  0  0  0  0  0
   -0.6791   30.3011    8.6281 N   0  0  0  0  0  0  0  0  0  0  0  0
    0.3849   29.5246    8.3283 C   0  0  0  0  0  0  0  0  0  0  0  0
    0.3999   28.3538    7.6806 N   0  0  0  0  0  0  0  0  0  0  0  0
   -0.8281   27.9695    7.2942 C   0  0  0  0  0  0  0  0  0  0  0  0
   -1.9711   28.6981    7.5597 C   0  0  0  0  0  0  0  0  0  0  0  0
   -2.9782   27.9854    6.9708 N   0  0  0  0  0  0  0  0  0  0  0  0
   -2.4232   26.8692    6.4099 C   0  0  0  0  0  0  0  0  0  0  0  0
   -1.1219   26.8289    6.5938 N   0  0  0  0  0  0  0  0  0  0  0  0
   -3.9504   28.2574    6.9414 H   0  0  0  0  0  0  0  0  0  0  0  0
   -6.1624   30.4600    7.7159 C   0  0  0  0  0  0  0  0  0  0  0  0
   -6.8785   30.4077    6.4402 N   0  0  0  0  0  0  0  0  0  0  0  0
   -7.8790   30.5660    6.5299 H   0  0  0  0  0  0  0  0  0  0  0  0
   -5.4757   26.1898    2.5077 Cl  0  0  0  0  0  0  0  0  0  0  0  0
   -5.8965   27.3977    3.6571 C   0  0  0  0  0  0  0  0  0  0  0  0
   -6.1817   27.0381    4.9697 C   0  0  0  0  0  0  0  0  0  0  0  0
   -6.5227   28.0229    5.9051 C   0  0  0  0  0  0  0  0  0  0  0  0
   -6.6118   29.3715    5.5385 C   0  0  0  0  0  0  0  0  0  0  0  0
   -6.2806   29.7106    4.2169 C   0  0  0  0  0  0  0  0  0  0  0  0
   -5.9382   28.7337    3.2762 C   0  0  0  0  0  0  0  0  0  0  0  0
 20 21  1  0  0  0
 21 22  1  0  0  0
 22 23  2  0  0  0
 23 24  1  0  0  0
 24 18  1  0  0  0
 18 17  1  0  0  0
 17  1  1  0  0  0
  1  2  1  0  0  0
  2  3  1  0  0  0
  3  4  1  0  0  0
  4  5  1  0  0  0
  5  7  1  0  0  0
  7  8  1  0  0  0
  8  9  2  0  0  0
  9 10  1  0  0  0
 10 11  2  0  0  0
 11 12  1  0  0  0
 12 13  1  0  0  0
 13 14  1  0  0  0
 14 15  2  0  0  0
  5  6  1  0  0  0
 24 25  2  0  0  0
 25 26  1  0  0  0
 26 21  2  0  0  0
  6  1  1  0  0  0
 12  7  2  0  0  0
 15 11  1  0  0  0
 18 19  1  0  0  0
 13 16  1  0  0  0
M  END
> <minimizedAffinity>
-9.64693

$$$$
OCNT-2313460


 23 25  0  0  0  0  0  0  0  0999 V2000
   -6.6088   29.2907    7.8516 C   0  0  0  0  0  0  0  0  0  0  0  0
   -5.9101   31.1553    9.3409 C   0  0  0  0  0  0  0  0  0  0  0  0
   -5.8073   29.6241    9.1453 C   0  0  0  0  0  0  0  0  0  0  0  0
   -6.4125   28.9246   10.3809 C   0  0  0  0  0  0  0  0  0  0  0  0
   -5.6205   27.8088   10.7785 O   0  0  0  0  0  0  0  0  0  0  0  0
   -6.1335   27.3215   11.4474 H   0  0  0  0  0  0  0  0  0  0  0  0
   -4.3274   29.1921    8.9297 C   0  0  0  0  0  0  0  0  0  0  0  0
   -3.3502   30.3133    8.6804 C   0  0  0  0  0  0  0  0  0  0  0  0
   -2.5951   31.0106    9.6040 C   0  0  0  0  0  0  0  0  0  0  0  0
   -1.7957   32.0239    9.0014 C   0  0  0  0  0  0  0  0  0  0  0  0
   -1.9813   32.0833    7.6392 C   0  0  0  0  0  0  0  0  0  0  0  0
   -3.1177   30.9290    7.0956 S   0  0  0  0  0  0  0  0  0  0  0  0
   -5.9956   28.1921    7.1040 N   0  0  0  0  0  0  0  0  0  0  0  0
   -6.3962   27.2912    7.3493 H   0  0  0  0  0  0  0  0  0  0  0  0
   -5.9902   28.3433    5.7105 C   0  0  0  0  0  0  0  0  0  0  0  0
   -6.1220   29.5700    5.1564 N   0  0  0  0  0  0  0  0  0  0  0  0
   -6.1058   29.6881    3.8194 C   0  0  0  0  0  0  0  0  0  0  0  0
   -5.9715   28.7161    2.9148 N   0  0  0  0  0  0  0  0  0  0  0  0
   -5.8287   27.5110    3.4893 C   0  0  0  0  0  0  0  0  0  0  0  0
   -5.8225   27.2380    4.8485 C   0  0  0  0  0  0  0  0  0  0  0  0
   -5.6308   25.8309    5.0793 C   0  0  0  0  0  0  0  0  0  0  0  0
   -5.5142   25.1108    3.9104 C   0  0  0  0  0  0  0  0  0  0  0  0
   -5.6289   26.1141    2.5312 S   0  0  0  0  0  0  0  0  0  0  0  0
  2  3  1  0  0  0
  3  4  1  0  0  0
  4  5  1  0  0  0
  3  1  1  0  0  0
  1 13  1  0  0  0
 13 15  1  0  0  0
 15 16  1  0  0  0
 16 17  2  0  0  0
 17 18  1  0  0  0
 18 19  2  0  0  0
 19 20  1  0  0  0
 20 21  1  0  0  0
 21 22  2  0  0  0
 22 23  1  0  0  0
  3  7  1  0  0  0
  7  8  1  0  0  0
  8  9  2  0  0  0
  9 10  1  0  0  0
 10 11  2  0  0  0
 11 12  1  0  0  0
 20 15  2  0  0  0
 12  8  1  0  0  0
 23 19  1  0  0  0
  5  6  1  0  0  0
 13 14  1  0  0  0
M  END
> <minimizedAffinity>
-7.96099

$$$$
OCNT-2313465


 27 29  0  0  0  0  0  0  0  0999 V2000
   -3.9907   29.8437    7.3412 C   0  0  0  0  0  0  0  0  0  0  0  0
   -6.3138   28.6925    6.3861 O   0  0  0  0  0  0  0  0  0  0  0  0
   -5.2663   28.3538    5.8384 C   0  0  0  0  0  0  0  0  0  0  0  0
   -4.0625   28.9154    6.2219 N   0  0  0  0  0  0  0  0  0  0  0  0
   -3.2018   28.4505    5.9558 H   0  0  0  0  0  0  0  0  0  0  0  0
   -5.1680   27.3515    4.7869 C   0  0  0  0  0  0  0  0  0  0  0  0
   -5.8259   27.2682    3.5745 C   0  0  0  0  0  0  0  0  0  0  0  0
   -5.4510   26.1191    2.7989 C   0  0  0  0  0  0  0  0  0  0  0  0
   -5.8885   25.6869    1.5237 C   0  0  0  0  0  0  0  0  0  0  0  0
   -5.3748   24.5154    0.9591 C   0  0  0  0  0  0  0  0  0  0  0  0
   -4.4312   23.7631    1.6447 C   0  0  0  0  0  0  0  0  0  0  0  0
   -3.9838   24.1638    2.9056 C   0  0  0  0  0  0  0  0  0  0  0  0
   -4.5042   25.3446    3.4701 C   0  0  0  0  0  0  0  0  0  0  0  0
   -4.1109   26.0237    4.9999 S   0  0  0  0  0  0  0  0  0  0  0  0
   -2.8411   30.8756    7.2144 C   0  0  0  0  0  0  0  0  0  0  0  0
   -2.8649   31.3044    5.8179 O   0  0  0  0  0  0  0  0  0  0  0  0
   -2.3171   30.6728    5.3164 H   0  0  0  0  0  0  0  0  0  0  0  0
   -1.4535   30.2778    7.4953 C   0  0  0  0  0  0  0  0  0  0  0  0
   -0.6027   29.9640    6.4158 C   0  0  0  0  0  0  0  0  0  0  0  0
    0.6675   29.4250    6.6277 C   0  0  0  0  0  0  0  0  0  0  0  0
    1.1179   29.1950    7.9231 C   0  0  0  0  0  0  0  0  0  0  0  0
    0.3016   29.5110    9.0051 C   0  0  0  0  0  0  0  0  0  0  0  0
   -0.9706   30.0517    8.7956 C   0  0  0  0  0  0  0  0  0  0  0  0
   -3.1224   32.0592    8.1822 C   0  0  0  0  0  0  0  0  0  0  0  0
   -4.1168   32.8560    7.7221 F   0  0  0  0  0  0  0  0  0  0  0  0
   -2.0296   32.8444    8.3515 F   0  0  0  0  0  0  0  0  0  0  0  0
   -3.4860   31.6346    9.4174 F   0  0  0  0  0  0  0  0  0  0  0  0
  2  3  2  0  0  0
  3  4  1  0  0  0
  4  1  1  0  0  0
  1 15  1  0  0  0
 15 16  1  0  0  0
 15 18  1  0  0  0
 18 19  2  0  0  0
 19 20  1  0  0  0
 20 21  2  0  0  0
 21 22  1  0  0  0
 22 23  2  0  0  0
 15 24  1  0  0  0
 24 25  1  0  0  0
 24 26  1  0  0  0
 24 27  1  0  0  0
  3  6  1  0  0  0
  6  7  2  0  0  0
  7  8  1  0  0  0
  8  9  2  0  0  0
  9 10  1  0  0  0
 10 11  2  0  0  0
 11 12  1  0  0  0
 12 13  2  0  0  0
 13 14  1  0  0  0
 23 18  1  0  0  0
 14  6  1  0  0  0
 13  8  1  0  0  0
  4  5  1  0  0  0
 16 17  1  0  0  0
M  END
> <minimizedAffinity>
-10.05870

$$$$
OCNT-2313489


 22 23  0  0  0  0  0  0  0  0999 V2000
   -2.2245   29.7746    6.9560 C   0  0  0  0  0  0  0  0  0  0  0  0
   -4.7986   34.5329    9.2201 C   0  0  0  0  0  0  0  0  0  0  0  0
   -4.1065   33.3376    8.6364 C   0  0  0  0  0  0  0  0  0  0  0  0
   -4.4803   32.8407    7.3852 C   0  0  0  0  0  0  0  0  0  0  0  0
   -3.8576   31.7055    6.8600 C   0  0  0  0  0  0  0  0  0  0  0  0
   -2.8577   31.0271    7.5787 C   0  0  0  0  0  0  0  0  0  0  0  0
   -2.4832   31.5397    8.8304 C   0  0  0  0  0  0  0  0  0  0  0  0
   -3.1103   32.6730    9.3577 C   0  0  0  0  0  0  0  0  0  0  0  0
   -0.8516   29.5749    7.4824 N   0  0  0  0  0  0  0  0  0  0  0  0
    0.1502   29.5245    6.4189 C   0  0  0  0  0  0  0  0  0  0  0  0
   -0.7189   28.4144    8.3618 C   0  0  0  0  0  0  0  0  0  0  0  0
   -3.1442   28.5157    6.9704 C   0  0  0  0  0  0  0  0  0  0  0  0
   -3.6047   28.1170    5.6423 N   0  0  0  0  0  0  0  0  0  0  0  0
   -3.2235   26.8969    5.1088 C   0  0  0  0  0  0  0  0  0  0  0  0
   -2.3181   26.2315    5.6189 O   0  0  0  0  0  0  0  0  0  0  0  0
   -4.4560   28.5547    5.3001 H   0  0  0  0  0  0  0  0  0  0  0  0
   -3.9638   26.4854    3.8332 C   0  0  0  0  0  0  0  0  0  0  0  0
   -4.3744   25.0011    3.6378 C   0  0  0  0  0  0  0  0  0  0  0  0
   -5.7316   25.4000    3.0236 C   0  0  0  0  0  0  0  0  0  0  0  0
   -5.6767   26.9211    3.9230 S   0  0  0  0  0  0  0  0  0  0  0  0
   -6.2417   26.7785    5.2476 O   0  0  0  0  0  0  0  0  0  0  0  0
   -5.9667   28.0555    3.0706 O   0  0  0  0  0  0  0  0  0  0  0  0
  2  3  1  0  0  0
  3  4  1  0  0  0
  4  5  2  0  0  0
  5  6  1  0  0  0
  6  1  1  0  0  0
  1 12  1  0  0  0
 12 13  1  0  0  0
 13 14  1  0  0  0
 14 15  2  0  0  0
 14 17  1  0  0  0
 17 18  1  0  0  0
 18 19  1  0  0  0
 19 20  1  0  0  0
 20 21  2  0  0  0
 20 22  2  0  0  0
  1  9  1  0  0  0
  9 10  1  0  0  0
  9 11  1  0  0  0
  6  7  2  0  0  0
  7  8  1  0  0  0
  8  3  2  0  0  0
 20 17  1  0  0  0
 13 16  1  0  0  0
M  END
> <minimizedAffinity>
-7.67093

$$$$
OCNT-2313504


 22 25  0  0  0  0  0  0  0  0999 V2000
   -6.1717   29.5423    4.4762 C   0  0  0  0  0  0  0  0  0  0  0  0
   -5.3671   24.2301    1.3375 C   0  0  0  0  0  0  0  0  0  0  0  0
   -5.4526   25.6073    1.5001 C   0  0  0  0  0  0  0  0  0  0  0  0
   -5.7182   26.1446    2.7667 C   0  0  0  0  0  0  0  0  0  0  0  0
   -5.8121   27.5328    2.9772 C   0  0  0  0  0  0  0  0  0  0  0  0
   -6.0787   28.0512    4.2519 C   0  0  0  0  0  0  0  0  0  0  0  0
   -6.2595   27.1561    5.3096 C   0  0  0  0  0  0  0  0  0  0  0  0
   -6.1639   25.7765    5.0956 C   0  0  0  0  0  0  0  0  0  0  0  0
   -5.8932   25.2482    3.8416 C   0  0  0  0  0  0  0  0  0  0  0  0
   -5.8077   23.9139    3.6883 N   0  0  0  0  0  0  0  0  0  0  0  0
   -5.5502   23.4340    2.4519 C   0  0  0  0  0  0  0  0  0  0  0  0
   -4.9798   30.0462    5.1373 N   0  0  0  0  0  0  0  0  0  0  0  0
   -4.1515   29.4814    5.0046 H   0  0  0  0  0  0  0  0  0  0  0  0
   -5.1107   30.5046    6.4474 C   0  0  0  0  0  0  0  0  0  0  0  0
   -4.0313   31.1100    7.1266 C   0  0  0  0  0  0  0  0  0  0  0  0
   -2.6771   31.4143    6.7471 C   0  0  0  0  0  0  0  0  0  0  0  0
   -1.9644   32.0211    7.7582 C   0  0  0  0  0  0  0  0  0  0  0  0
   -2.9122   32.2346    9.1647 S   0  0  0  0  0  0  0  0  0  0  0  0
   -4.2761   31.5247    8.4267 C   0  0  0  0  0  0  0  0  0  0  0  0
   -5.4328   31.4129    9.0988 N   0  0  0  0  0  0  0  0  0  0  0  0
   -6.3863   30.8410    8.3610 C   0  0  0  0  0  0  0  0  0  0  0  0
   -6.2871   30.3824    7.1031 N   0  0  0  0  0  0  0  0  0  0  0  0
  2  3  2  0  0  0
  3  4  1  0  0  0
  4  5  2  0  0  0
  5  6  1  0  0  0
  6  1  1  0  0  0
  1 12  1  0  0  0
 12 14  1  0  0  0
 14 15  2  0  0  0
 15 16  1  0  0  0
 16 17  2  0  0  0
 17 18  1  0  0  0
 18 19  1  0  0  0
 19 20  2  0  0  0
 20 21  1  0  0  0
 21 22  2  0  0  0
  6  7  2  0  0  0
  7  8  1  0  0  0
  8  9  2  0  0  0
  9 10  1  0  0  0
 10 11  2  0  0  0
 11  2  1  0  0  0
  9  4  1  0  0  0
 22 14  1  0  0  0
 19 15  1  0  0  0
 12 13  1  0  0  0
M  END
> <minimizedAffinity>
-8.78134

$$$$
OCNT-2313520


 30 33  0  0  0  0  0  0  0  0999 V2000
   -5.8295   29.8130    6.4188 C   0  0  0  0  0  0  0  0  0  0  0  0
   -6.5759   29.4799    7.3322 O   0  0  0  0  0  0  0  0  0  0  0  0
   -4.9313   30.8551    6.4304 N   0  0  0  0  0  0  0  0  0  0  0  0
   -4.4484   31.1318    5.5786 H   0  0  0  0  0  0  0  0  0  0  0  0
   -5.8988   26.9323    3.9739 C   0  0  0  0  0  0  0  0  0  0  0  0
   -6.0298   27.6679    2.7965 C   0  0  0  0  0  0  0  0  0  0  0  0
   -6.0851   29.0230    2.7349 N   0  0  0  0  0  0  0  0  0  0  0  0
   -6.0129   29.6856    3.9133 C   0  0  0  0  0  0  0  0  0  0  0  0
   -5.9076   29.0558    5.1457 C   0  0  0  0  0  0  0  0  0  0  0  0
   -5.8352   27.6579    5.1680 C   0  0  0  0  0  0  0  0  0  0  0  0
   -5.7565   22.1865    2.5068 C   0  0  0  0  0  0  0  0  0  0  0  0
   -5.7782   23.3873    3.3062 N   0  0  0  0  0  0  0  0  0  0  0  0
   -5.8618   24.6746    2.8572 C   0  0  0  0  0  0  0  0  0  0  0  0
   -5.8417   25.4815    3.9777 C   0  0  0  0  0  0  0  0  0  0  0  0
   -5.7391   24.5633    5.0508 C   0  0  0  0  0  0  0  0  0  0  0  0
   -5.7089   23.2916    4.6444 N   0  0  0  0  0  0  0  0  0  0  0  0
   -4.6127   31.7254    7.4945 C   0  0  0  0  0  0  0  0  0  0  0  0
   -5.4303   32.7672    7.9306 C   0  0  0  0  0  0  0  0  0  0  0  0
   -5.0242   33.5708    8.9980 C   0  0  0  0  0  0  0  0  0  0  0  0
   -3.8047   33.3364    9.6306 C   0  0  0  0  0  0  0  0  0  0  0  0
   -2.9823   32.2935    9.2010 C   0  0  0  0  0  0  0  0  0  0  0  0
   -3.3743   31.4732    8.1346 C   0  0  0  0  0  0  0  0  0  0  0  0
   -2.5713   30.4071    7.6544 N   0  0  0  0  0  0  0  0  0  0  0  0
   -2.7559   29.1554    8.4087 C   0  0  0  0  0  0  0  0  0  0  0  0
   -1.6953   28.1510    7.9816 C   0  0  0  0  0  0  0  0  0  0  0  0
   -0.3013   28.6558    8.3563 C   0  0  0  0  0  0  0  0  0  0  0  0
    0.6398   28.0818    7.4502 O   0  0  0  0  0  0  0  0  0  0  0  0
   -0.1879   30.1824    8.3392 C   0  0  0  0  0  0  0  0  0  0  0  0
   -1.1794   30.8074    7.3614 C   0  0  0  0  0  0  0  0  0  0  0  0
    1.5328   28.2984    7.7703 H   0  0  0  0  0  0  0  0  0  0  0  0
 11 12  1  0  0  0
 12 13  1  0  0  0
 13 14  2  0  0  0
 14  5  1  0  0  0
  5  6  2  0  0  0
  6  7  1  0  0  0
  7  8  2  0  0  0
  8  9  1  0  0  0
  9  1  1  0  0  0
  1  2  2  0  0  0
  1  3  1  0  0  0
  3 17  1  0  0  0
 17 18  2  0  0  0
 18 19  1  0  0  0
 19 20  2  0  0  0
 20 21  1  0  0  0
 21 22  2  0  0  0
 22 23  1  0  0  0
 23 24  1  0  0  0
 24 25  1  0  0  0
 25 26  1  0  0  0
 26 27  1  0  0  0
 26 28  1  0  0  0
 28 29  1  0  0  0
  9 10  2  0  0  0
 14 15  1  0  0  0
 15 16  2  0  0  0
 16 12  1  0  0  0
 10  5  1  0  0  0
 22 17  1  0  0  0
 29 23  1  0  0  0
  3  4  1  0  0  0
 27 30  1  0  0  0
M  END
> <minimizedAffinity>
-10.14202

$$$$
OCNT-2313522


 24 27  0  0  0  0  0  0  0  0999 V2000
   -7.8890   29.9898    6.0522 O   0  0  0  0  0  0  0  0  0  0  0  0
   -6.7632   29.4990    6.1095 C   0  0  0  0  0  0  0  0  0  0  0  0
   -5.8141   29.8755    7.0587 N   0  0  0  0  0  0  0  0  0  0  0  0
   -6.1337   31.0001    7.9318 C   0  0  0  0  0  0  0  0  0  0  0  0
   -4.8803   31.6232    8.5289 C   0  0  0  0  0  0  0  0  0  0  0  0
   -4.0769   30.6025    9.3548 C   0  0  0  0  0  0  0  0  0  0  0  0
   -4.2857   29.1576    8.8660 C   0  0  0  0  0  0  0  0  0  0  0  0
   -4.6068   29.1027    7.3759 C   0  0  0  0  0  0  0  0  0  0  0  0
   -6.4095   28.4618    5.1128 C   0  0  0  0  0  0  0  0  0  0  0  0
   -6.0731   28.8199    3.8038 C   0  0  0  0  0  0  0  0  0  0  0  0
   -5.7539   27.8434    2.8553 C   0  0  0  0  0  0  0  0  0  0  0  0
   -5.8010   26.5050    3.2649 C   0  0  0  0  0  0  0  0  0  0  0  0
   -5.5447   25.3513    2.5575 N   0  0  0  0  0  0  0  0  0  0  0  0
   -5.7253   24.2546    3.3577 C   0  0  0  0  0  0  0  0  0  0  0  0
   -6.1075   24.6998    4.6024 C   0  0  0  0  0  0  0  0  0  0  0  0
   -6.1572   26.1204    4.5588 C   0  0  0  0  0  0  0  0  0  0  0  0
   -6.4778   27.1159    5.5006 C   0  0  0  0  0  0  0  0  0  0  0  0
   -5.2681   25.3247    1.5858 H   0  0  0  0  0  0  0  0  0  0  0  0
   -2.6249   30.9750    9.3916 C   0  0  0  0  0  0  0  0  0  0  0  0
   -2.0405   32.1341    9.8564 C   0  0  0  0  0  0  0  0  0  0  0  0
   -0.6986   31.9678    9.6539 N   0  0  0  0  0  0  0  0  0  0  0  0
   -0.5175   30.7401    9.0854 C   0  0  0  0  0  0  0  0  0  0  0  0
   -1.6598   30.1163    8.9148 N   0  0  0  0  0  0  0  0  0  0  0  0
    0.0312   32.6295    9.8795 H   0  0  0  0  0  0  0  0  0  0  0  0
  1  2  2  0  0  0
  2  9  1  0  0  0
  9 10  2  0  0  0
 10 11  1  0  0  0
 11 12  2  0  0  0
 12 13  1  0  0  0
 13 14  1  0  0  0
 14 15  2  0  0  0
 15 16  1  0  0  0
 16 17  2  0  0  0
  2  3  1  0  0  0
  3  4  1  0  0  0
  4  5  1  0  0  0
  5  6  1  0  0  0
  6 19  1  0  0  0
 19 20  2  0  0  0
 20 21  1  0  0  0
 21 22  1  0  0  0
 22 23  2  0  0  0
  6  7  1  0  0  0
  7  8  1  0  0  0
 17  9  1  0  0  0
  8  3  1  0  0  0
 16 12  1  0  0  0
 23 19  1  0  0  0
 13 18  1  0  0  0
 21 24  1  0  0  0
M  END
> <minimizedAffinity>
-9.41540

$$$$
OCNT-2313533


 25 28  0  0  0  0  0  0  0  0999 V2000
   -7.2487   29.6857    6.0890 O   0  0  0  0  0  0  0  0  0  0  0  0
   -6.6430   28.8215    6.7191 C   0  0  0  0  0  0  0  0  0  0  0  0
   -6.1111   27.6784    6.1505 N   0  0  0  0  0  0  0  0  0  0  0  0
   -5.8897   26.9090    6.7747 H   0  0  0  0  0  0  0  0  0  0  0  0
   -6.3304   27.3505    4.7752 C   0  0  0  0  0  0  0  0  0  0  0  0
   -5.5053   27.9588    3.6830 C   0  0  0  0  0  0  0  0  0  0  0  0
   -5.3138   26.5038    4.0308 C   0  0  0  0  0  0  0  0  0  0  0  0
   -5.8056   25.3899    3.1283 C   0  0  0  0  0  0  0  0  0  0  0  0
   -5.7679   25.5283    1.7272 C   0  0  0  0  0  0  0  0  0  0  0  0
   -6.2015   24.5078    0.8746 C   0  0  0  0  0  0  0  0  0  0  0  0
   -6.6766   23.3119    1.4033 C   0  0  0  0  0  0  0  0  0  0  0  0
   -6.7162   23.1365    2.7842 C   0  0  0  0  0  0  0  0  0  0  0  0
   -6.2823   24.1615    3.6335 C   0  0  0  0  0  0  0  0  0  0  0  0
   -6.3338   23.8631    5.3397 Cl  0  0  0  0  0  0  0  0  0  0  0  0
   -6.4013   28.9293    8.2138 C   0  0  0  0  0  0  0  0  0  0  0  0
   -5.2420   29.8383    8.5548 C   0  0  0  0  0  0  0  0  0  0  0  0
   -5.4710   31.1812    8.8924 C   0  0  0  0  0  0  0  0  0  0  0  0
   -4.4104   32.0447    9.2022 C   0  0  0  0  0  0  0  0  0  0  0  0
   -3.0988   31.5415    9.1740 C   0  0  0  0  0  0  0  0  0  0  0  0
   -1.8035   32.0521    9.4127 C   0  0  0  0  0  0  0  0  0  0  0  0
   -0.8465   31.1353    9.2457 N   0  0  0  0  0  0  0  0  0  0  0  0
   -1.5315   30.0302    8.8980 N   0  0  0  0  0  0  0  0  0  0  0  0
   -2.8895   30.2090    8.8404 C   0  0  0  0  0  0  0  0  0  0  0  0
   -3.9307   29.3288    8.5284 C   0  0  0  0  0  0  0  0  0  0  0  0
   -1.0122   29.1800    8.7116 H   0  0  0  0  0  0  0  0  0  0  0  0
  1  2  2  0  0  0
  2 15  1  0  0  0
 15 16  1  0  0  0
 16 17  2  0  0  0
 17 18  1  0  0  0
 18 19  2  0  0  0
 19 20  1  0  0  0
 20 21  2  0  0  0
 21 22  1  0  0  0
 22 23  1  0  0  0
 23 24  2  0  0  0
  2  3  1  0  0  0
  3  5  1  0  0  0
  5  6  1  0  0  0
  6  7  1  0  0  0
  7  8  1  0  0  0
  8  9  2  0  0  0
  9 10  1  0  0  0
 10 11  2  0  0  0
 11 12  1  0  0  0
 12 13  2  0  0  0
 13 14  1  0  0  0
 24 16  1  0  0  0
  7  5  1  0  0  0
 13  8  1  0  0  0
 23 19  1  0  0  0
 22 25  1  0  0  0
  3  4  1  0  0  0
M  END
> <minimizedAffinity>
-9.20686

$$$$
OCNT-2313558


 25 27  0  0  0  0  0  0  0  0999 V2000
   -4.6052   30.5704    5.6558 N   0  0  0  0  0  0  0  0  0  0  0  0
   -5.0294   29.2606    5.5978 C   0  0  0  0  0  0  0  0  0  0  0  0
   -4.9504   28.4274    6.4893 O   0  0  0  0  0  0  0  0  0  0  0  0
   -5.6008   28.9859    4.3705 N   0  0  0  0  0  0  0  0  0  0  0  0
   -4.9788   31.1664    4.9343 H   0  0  0  0  0  0  0  0  0  0  0  0
   -5.3261   29.5700    3.5955 H   0  0  0  0  0  0  0  0  0  0  0  0
   -6.0455   31.4882    8.0312 C   0  0  0  0  0  0  0  0  0  0  0  0
   -4.5672   31.6481    7.8476 C   0  0  0  0  0  0  0  0  0  0  0  0
   -3.9214   32.2631    8.8691 N   0  0  0  0  0  0  0  0  0  0  0  0
   -2.5789   32.4595    8.8084 N   0  0  0  0  0  0  0  0  0  0  0  0
   -1.9043   32.0399    7.7233 C   0  0  0  0  0  0  0  0  0  0  0  0
   -2.5176   31.4119    6.6573 C   0  0  0  0  0  0  0  0  0  0  0  0
   -3.8905   31.1960    6.7081 C   0  0  0  0  0  0  0  0  0  0  0  0
   -6.1004   27.6579    4.0583 C   0  0  0  0  0  0  0  0  0  0  0  0
   -5.4359   27.0280    2.8307 C   0  0  0  0  0  0  0  0  0  0  0  0
   -5.5023   25.4927    2.8031 C   0  0  0  0  0  0  0  0  0  0  0  0
   -6.2130   25.0896    3.9894 O   0  0  0  0  0  0  0  0  0  0  0  0
   -6.5526   23.7008    4.0855 C   0  0  0  0  0  0  0  0  0  0  0  0
   -5.9945   22.8004    2.9810 C   0  0  0  0  0  0  0  0  0  0  0  0
   -6.3043   23.4419    1.6567 C   0  0  0  0  0  0  0  0  0  0  0  0
   -6.7786   22.7126    0.5642 C   0  0  0  0  0  0  0  0  0  0  0  0
   -7.0976   23.3755   -0.6176 C   0  0  0  0  0  0  0  0  0  0  0  0
   -6.9465   24.7588   -0.7035 C   0  0  0  0  0  0  0  0  0  0  0  0
   -6.4562   25.4872    0.3847 C   0  0  0  0  0  0  0  0  0  0  0  0
   -6.1092   24.8360    1.5720 C   0  0  0  0  0  0  0  0  0  0  0  0
  7  8  1  0  0  0
  8  9  1  0  0  0
  9 10  2  0  0  0
 10 11  1  0  0  0
 11 12  2  0  0  0
 12 13  1  0  0  0
 13  1  1  0  0  0
  1  2  1  0  0  0
  2  3  2  0  0  0
  2  4  1  0  0  0
  4 14  1  0  0  0
 14 15  1  0  0  0
 15 16  1  0  0  0
 16 17  1  0  0  0
 17 18  1  0  0  0
 18 19  1  0  0  0
 19 20  1  0  0  0
 20 21  2  0  0  0
 21 22  1  0  0  0
 22 23  2  0  0  0
 23 24  1  0  0  0
 24 25  2  0  0  0
 13  8  2  0  0  0
 25 16  1  0  0  0
 25 20  1  0  0  0
  1  5  1  0  0  0
  4  6  1  0  0  0
M  END
> <minimizedAffinity>
-9.43104

$$$$
OCNT-2313581


 25 26  0  0  0  0  0  0  0  0999 V2000
   -2.5605   26.2045    3.7637 N   0  0  0  0  0  0  0  0  0  0  0  0
   -2.1871   26.2458    5.0930 C   0  0  0  0  0  0  0  0  0  0  0  0
   -2.7863   25.6476    5.9819 O   0  0  0  0  0  0  0  0  0  0  0  0
   -1.8416   26.5091    3.1100 H   0  0  0  0  0  0  0  0  0  0  0  0
   -3.5968   25.2982    3.2917 C   0  0  0  0  0  0  0  0  0  0  0  0
   -4.8356   26.0312    2.6828 C   0  0  0  0  0  0  0  0  0  0  0  0
   -7.3331   29.9974    6.2089 C   0  0  0  0  0  0  0  0  0  0  0  0
   -6.6751   28.9784    5.3274 C   0  0  0  0  0  0  0  0  0  0  0  0
   -6.5565   27.6493    5.7447 C   0  0  0  0  0  0  0  0  0  0  0  0
   -5.9734   26.6894    4.9108 C   0  0  0  0  0  0  0  0  0  0  0  0
   -5.4928   27.0368    3.6392 C   0  0  0  0  0  0  0  0  0  0  0  0
   -5.6486   28.3682    3.2166 C   0  0  0  0  0  0  0  0  0  0  0  0
   -6.2321   29.3268    4.0489 C   0  0  0  0  0  0  0  0  0  0  0  0
   -5.8656   25.1554    2.0682 N   0  0  0  0  0  0  0  0  0  0  0  0
   -5.7883   23.7568    2.4801 C   0  0  0  0  0  0  0  0  0  0  0  0
   -5.8668   25.2599    0.6089 C   0  0  0  0  0  0  0  0  0  0  0  0
   -0.9222   27.0768    5.3573 C   0  0  0  0  0  0  0  0  0  0  0  0
   -0.5417   27.0070    6.7824 N   0  0  0  0  0  0  0  0  0  0  0  0
    0.4165   26.6686    6.8824 H   0  0  0  0  0  0  0  0  0  0  0  0
   -0.7576   28.1310    7.5908 C   0  0  0  0  0  0  0  0  0  0  0  0
    0.2577   28.9729    8.0469 C   0  0  0  0  0  0  0  0  0  0  0  0
   -0.0483   30.1198    8.7827 C   0  0  0  0  0  0  0  0  0  0  0  0
   -1.3778   30.4168    9.0232 C   0  0  0  0  0  0  0  0  0  0  0  0
   -2.3993   29.6637    8.5735 N   0  0  0  0  0  0  0  0  0  0  0  0
   -2.0628   28.5608    7.8600 C   0  0  0  0  0  0  0  0  0  0  0  0
  7  8  1  0  0  0
  8  9  1  0  0  0
  9 10  2  0  0  0
 10 11  1  0  0  0
 11  6  1  0  0  0
  6  5  1  0  0  0
  5  1  1  0  0  0
  1  2  1  0  0  0
  2  3  2  0  0  0
  2 17  1  0  0  0
 17 18  1  0  0  0
 18 20  1  0  0  0
 20 21  1  0  0  0
 21 22  2  0  0  0
 22 23  1  0  0  0
 23 24  2  0  0  0
 24 25  1  0  0  0
  6 14  1  0  0  0
 14 15  1  0  0  0
 14 16  1  0  0  0
 11 12  2  0  0  0
 12 13  1  0  0  0
 13  8  2  0  0  0
 25 20  2  0  0  0
  1  4  1  0  0  0
 18 19  1  0  0  0
M  END
> <minimizedAffinity>
-8.36954

$$$$
OCNT-2313630


 26 29  0  0  0  0  0  0  0  0999 V2000
   -2.5355   27.1022    6.0104 O   0  0  0  0  0  0  0  0  0  0  0  0
   -3.4324   27.9336    6.1060 C   0  0  0  0  0  0  0  0  0  0  0  0
   -4.5331   27.8863    5.2734 N   0  0  0  0  0  0  0  0  0  0  0  0
   -5.3482   28.4257    5.5261 H   0  0  0  0  0  0  0  0  0  0  0  0
   -4.7194   26.7861    4.3310 C   0  0  0  0  0  0  0  0  0  0  0  0
   -5.5126   27.2612    3.1107 C   0  0  0  0  0  0  0  0  0  0  0  0
   -5.6912   26.1481    2.0735 C   0  0  0  0  0  0  0  0  0  0  0  0
   -5.6267   24.7412    2.6736 C   0  0  0  0  0  0  0  0  0  0  0  0
   -6.1928   24.7753    4.0257 N   0  0  0  0  0  0  0  0  0  0  0  0
   -5.3973   25.5547    4.9951 C   0  0  0  0  0  0  0  0  0  0  0  0
   -6.9278   23.6738    4.4676 C   0  0  0  0  0  0  0  0  0  0  0  0
   -7.7666   22.9687    3.5825 C   0  0  0  0  0  0  0  0  0  0  0  0
   -8.5368   21.8721    3.9928 C   0  0  0  0  0  0  0  0  0  0  0  0
   -8.4956   21.4569    5.3166 C   0  0  0  0  0  0  0  0  0  0  0  0
   -7.6953   22.1504    6.2103 C   0  0  0  0  0  0  0  0  0  0  0  0
   -7.6594   21.7661    7.4934 F   0  0  0  0  0  0  0  0  0  0  0  0
   -6.9289   23.2429    5.8024 C   0  0  0  0  0  0  0  0  0  0  0  0
   -3.4492   28.9996    7.0809 C   0  0  0  0  0  0  0  0  0  0  0  0
   -4.4785   29.8448    7.4732 C   0  0  0  0  0  0  0  0  0  0  0  0
   -3.9341   30.6747    8.4636 C   0  0  0  0  0  0  0  0  0  0  0  0
   -2.6552   30.4010    8.6991 N   0  0  0  0  0  0  0  0  0  0  0  0
   -2.3631   29.4045    7.8354 N   0  0  0  0  0  0  0  0  0  0  0  0
   -1.0146   28.7896    7.7812 C   0  0  0  0  0  0  0  0  0  0  0  0
   -0.1012   29.4388    6.7086 C   0  0  0  0  0  0  0  0  0  0  0  0
    1.0613   29.2641    7.7081 C   0  0  0  0  0  0  0  0  0  0  0  0
    0.0017   29.3213    8.8287 C   0  0  0  0  0  0  0  0  0  0  0  0
  1  2  2  0  0  0
  2  3  1  0  0  0
  3  5  1  0  0  0
  5  6  1  0  0  0
  6  7  1  0  0  0
  7  8  1  0  0  0
  8  9  1  0  0  0
  9 11  1  0  0  0
 11 12  2  0  0  0
 12 13  1  0  0  0
 13 14  2  0  0  0
 14 15  1  0  0  0
 15 16  1  0  0  0
 15 17  2  0  0  0
  9 10  1  0  0  0
  2 18  1  0  0  0
 18 19  2  0  0  0
 19 20  1  0  0  0
 20 21  2  0  0  0
 21 22  1  0  0  0
 22 23  1  0  0  0
 23 24  1  0  0  0
 24 25  1  0  0  0
 25 26  1  0  0  0
 10  5  1  0  0  0
 22 18  1  0  0  0
 26 23  1  0  0  0
 17 11  1  0  0  0
  3  4  1  0  0  0
M  END
> <minimizedAffinity>
-8.79120

$$$$
OCNT-2313636


 27 30  0  0  0  0  0  0  0  0999 V2000
   -4.3736   25.5347    4.0132 C   0  0  0  0  0  0  0  0  0  0  0  0
   -3.4695   24.8615    3.5134 O   0  0  0  0  0  0  0  0  0  0  0  0
   -4.0780   26.6145    4.8401 N   0  0  0  0  0  0  0  0  0  0  0  0
   -2.6782   26.8576    5.2025 C   0  0  0  0  0  0  0  0  0  0  0  0
   -2.5259   27.3768    6.6443 C   0  0  0  0  0  0  0  0  0  0  0  0
   -3.3814   28.5534    6.9132 N   0  0  0  0  0  0  0  0  0  0  0  0
   -4.3917   28.8860    5.8984 C   0  0  0  0  0  0  0  0  0  0  0  0
   -5.0425   27.6120    5.3190 C   0  0  0  0  0  0  0  0  0  0  0  0
   -6.0173   22.1919    6.1151 C   0  0  0  0  0  0  0  0  0  0  0  0
   -5.9889   22.9529    4.8798 N   0  0  0  0  0  0  0  0  0  0  0  0
   -6.3880   24.3523    4.9398 C   0  0  0  0  0  0  0  0  0  0  0  0
   -5.8514   25.1906    3.7762 C   0  0  0  0  0  0  0  0  0  0  0  0
   -6.0851   24.4724    2.4642 C   0  0  0  0  0  0  0  0  0  0  0  0
   -6.1851   25.1983    1.2658 C   0  0  0  0  0  0  0  0  0  0  0  0
   -6.3844   24.5362    0.0536 C   0  0  0  0  0  0  0  0  0  0  0  0
   -6.4781   23.1465    0.0226 C   0  0  0  0  0  0  0  0  0  0  0  0
   -6.3702   22.4147    1.2052 C   0  0  0  0  0  0  0  0  0  0  0  0
   -6.1739   23.0711    2.4275 C   0  0  0  0  0  0  0  0  0  0  0  0
   -6.0552   22.2568    3.6726 C   0  0  0  0  0  0  0  0  0  0  0  0
   -6.0337   21.0314    3.6003 O   0  0  0  0  0  0  0  0  0  0  0  0
   -2.9885   29.4791    7.8728 C   0  0  0  0  0  0  0  0  0  0  0  0
   -3.8881   30.2104    8.6655 C   0  0  0  0  0  0  0  0  0  0  0  0
   -3.5590   31.1156    9.6272 N   0  0  0  0  0  0  0  0  0  0  0  0
   -2.2405   31.3153    9.8277 C   0  0  0  0  0  0  0  0  0  0  0  0
   -1.2624   30.6525    9.1156 C   0  0  0  0  0  0  0  0  0  0  0  0
    0.0337   30.8821    9.3613 F   0  0  0  0  0  0  0  0  0  0  0  0
   -1.6363   29.7334    8.1402 C   0  0  0  0  0  0  0  0  0  0  0  0
  9 10  1  0  0  0
 10 11  1  0  0  0
 11 12  1  0  0  0
 12  1  1  0  0  0
  1  2  2  0  0  0
  1  3  1  0  0  0
  3  4  1  0  0  0
  4  5  1  0  0  0
  5  6  1  0  0  0
  6 21  1  0  0  0
 21 22  2  0  0  0
 22 23  1  0  0  0
 23 24  2  0  0  0
 24 25  1  0  0  0
 25 26  1  0  0  0
 25 27  2  0  0  0
  6  7  1  0  0  0
  7  8  1  0  0  0
 12 13  1  0  0  0
 13 14  2  0  0  0
 14 15  1  0  0  0
 15 16  2  0  0  0
 16 17  1  0  0  0
 17 18  2  0  0  0
 18 19  1  0  0  0
 19 20  2  0  0  0
 19 10  1  0  0  0
  8  3  1  0  0  0
 18 13  1  0  0  0
 27 21  1  0  0  0
M  END
> <minimizedAffinity>
-10.13872

$$$$
OCNT-2313647


 27 30  0  0  0  0  0  0  0  0999 V2000
   -2.4860   28.2485    7.3680 C   0  0  0  0  0  0  0  0  0  0  0  0
   -2.4270   27.4655    8.3113 O   0  0  0  0  0  0  0  0  0  0  0  0
   -2.5963   27.8114    6.0715 N   0  0  0  0  0  0  0  0  0  0  0  0
   -2.6713   28.4704    5.3099 H   0  0  0  0  0  0  0  0  0  0  0  0
   -2.6031   26.3964    5.7520 C   0  0  0  0  0  0  0  0  0  0  0  0
   -3.6357   26.1069    4.7008 C   0  0  0  0  0  0  0  0  0  0  0  0
   -5.0132   26.0553    4.8519 C   0  0  0  0  0  0  0  0  0  0  0  0
   -5.7950   25.8096    3.7216 C   0  0  0  0  0  0  0  0  0  0  0  0
   -5.1974   25.6297    2.4644 C   0  0  0  0  0  0  0  0  0  0  0  0
   -3.8098   25.6905    2.3192 C   0  0  0  0  0  0  0  0  0  0  0  0
   -3.0407   25.9227    3.4468 C   0  0  0  0  0  0  0  0  0  0  0  0
   -1.5519   26.0536    3.5295 C   0  0  0  0  0  0  0  0  0  0  0  0
   -1.3028   25.8964    5.0421 C   0  0  0  0  0  0  0  0  0  0  0  0
   -0.1192   26.5914    5.4236 O   0  0  0  0  0  0  0  0  0  0  0  0
   -0.1166   26.6303    6.4028 H   0  0  0  0  0  0  0  0  0  0  0  0
   -0.0237   30.1602    8.4519 C   0  0  0  0  0  0  0  0  0  0  0  0
   -1.3998   30.4453    7.9975 C   0  0  0  0  0  0  0  0  0  0  0  0
   -2.4579   29.6827    7.5415 C   0  0  0  0  0  0  0  0  0  0  0  0
   -3.5186   30.6289    7.3686 C   0  0  0  0  0  0  0  0  0  0  0  0
   -3.0918   31.8655    7.6784 N   0  0  0  0  0  0  0  0  0  0  0  0
   -1.7783   31.7454    8.0612 O   0  0  0  0  0  0  0  0  0  0  0  0
   -4.8913   30.4284    6.9120 C   0  0  0  0  0  0  0  0  0  0  0  0
   -5.1568   29.7981    5.6911 C   0  0  0  0  0  0  0  0  0  0  0  0
   -6.4738   29.5932    5.2831 C   0  0  0  0  0  0  0  0  0  0  0  0
   -7.4934   30.0188    6.1174 C   0  0  0  0  0  0  0  0  0  0  0  0
   -7.2845   30.6205    7.3073 N   0  0  0  0  0  0  0  0  0  0  0  0
   -5.9913   30.8121    7.6732 C   0  0  0  0  0  0  0  0  0  0  0  0
 16 17  1  0  0  0
 17 18  2  0  0  0
 18  1  1  0  0  0
  1  2  2  0  0  0
  1  3  1  0  0  0
  3  5  1  0  0  0
  5  6  1  0  0  0
  6  7  2  0  0  0
  7  8  1  0  0  0
  8  9  2  0  0  0
  9 10  1  0  0  0
 10 11  2  0  0  0
 11 12  1  0  0  0
 12 13  1  0  0  0
 13 14  1  0  0  0
 18 19  1  0  0  0
 19 22  1  0  0  0
 22 23  1  0  0  0
 23 24  2  0  0  0
 24 25  1  0  0  0
 25 26  2  0  0  0
 26 27  1  0  0  0
 19 20  2  0  0  0
 20 21  1  0  0  0
 21 17  1  0  0  0
 13  5  1  0  0  0
 27 22  2  0  0  0
 11  6  1  0  0  0
  3  4  1  0  0  0
 14 15  1  0  0  0
M  END
> <minimizedAffinity>
-8.67248

$$$$
OCNT-2313652


 25 27  0  0  0  0  0  0  0  0999 V2000
   -3.3534   28.9840    7.9822 C   0  0  0  0  0  0  0  0  0  0  0  0
   -2.2118   28.3446    7.2243 C   0  0  0  0  0  0  0  0  0  0  0  0
   -2.2719   26.9871    6.8674 C   0  0  0  0  0  0  0  0  0  0  0  0
   -1.2459   26.4059    6.1235 C   0  0  0  0  0  0  0  0  0  0  0  0
   -0.1530   27.1728    5.7324 C   0  0  0  0  0  0  0  0  0  0  0  0
   -0.0873   28.5222    6.0787 C   0  0  0  0  0  0  0  0  0  0  0  0
   -1.1155   29.1114    6.8122 C   0  0  0  0  0  0  0  0  0  0  0  0
   -0.9527   30.4398    7.0955 O   0  0  0  0  0  0  0  0  0  0  0  0
   -2.0773   31.0983    7.6877 C   0  0  0  0  0  0  0  0  0  0  0  0
   -2.8098   30.2295    8.7002 C   0  0  0  0  0  0  0  0  0  0  0  0
   -5.7456   28.9603    7.2196 C   0  0  0  0  0  0  0  0  0  0  0  0
   -6.2163   28.7601    8.3344 O   0  0  0  0  0  0  0  0  0  0  0  0
   -4.4191   29.2360    7.0168 N   0  0  0  0  0  0  0  0  0  0  0  0
   -4.1172   29.5044    6.0819 H   0  0  0  0  0  0  0  0  0  0  0  0
   -6.6372   29.0022    5.9796 C   0  0  0  0  0  0  0  0  0  0  0  0
   -6.0814   29.6577    3.0671 C   0  0  0  0  0  0  0  0  0  0  0  0
   -6.0365   28.2444    3.5933 C   0  0  0  0  0  0  0  0  0  0  0  0
   -5.6892   27.2053    2.7143 C   0  0  0  0  0  0  0  0  0  0  0  0
   -5.6463   25.8805    3.1552 C   0  0  0  0  0  0  0  0  0  0  0  0
   -5.9543   25.5698    4.4792 C   0  0  0  0  0  0  0  0  0  0  0  0
   -6.2999   26.5883    5.3657 C   0  0  0  0  0  0  0  0  0  0  0  0
   -6.3414   27.9328    4.9421 C   0  0  0  0  0  0  0  0  0  0  0  0
   -3.8528   31.0205    9.4734 C   0  0  0  0  0  0  0  0  0  0  0  0
   -4.6881   30.1175   10.1909 O   0  0  0  0  0  0  0  0  0  0  0  0
   -5.5894   30.1203    9.7713 H   0  0  0  0  0  0  0  0  0  0  0  0
 16 17  1  0  0  0
 17 18  2  0  0  0
 18 19  1  0  0  0
 19 20  2  0  0  0
 20 21  1  0  0  0
 21 22  2  0  0  0
 22 15  1  0  0  0
 15 11  1  0  0  0
 11 12  2  0  0  0
 11 13  1  0  0  0
 13  1  1  0  0  0
  1  2  1  0  0  0
  2  3  2  0  0  0
  3  4  1  0  0  0
  4  5  2  0  0  0
  5  6  1  0  0  0
  6  7  2  0  0  0
  7  8  1  0  0  0
  8  9  1  0  0  0
  9 10  1  0  0  0
 10 23  1  0  0  0
 23 24  1  0  0  0
 22 17  1  0  0  0
 10  1  1  0  0  0
  7  2  1  0  0  0
 13 14  1  0  0  0
 24 25  1  0  0  0
M  END
> <minimizedAffinity>
-8.70354

$$$$
OCNT-2313654


 25 27  0  0  0  0  0  0  0  0999 V2000
   -2.4255   27.3444    6.5506 C   0  0  0  0  0  0  0  0  0  0  0  0
   -1.9937   26.2147    6.7682 O   0  0  0  0  0  0  0  0  0  0  0  0
   -3.3225   27.6118    5.5333 N   0  0  0  0  0  0  0  0  0  0  0  0
   -3.4478   28.5834    5.2772 H   0  0  0  0  0  0  0  0  0  0  0  0
   -2.8023   29.1248    8.2625 C   0  0  0  0  0  0  0  0  0  0  0  0
   -1.9918   28.5106    7.3102 C   0  0  0  0  0  0  0  0  0  0  0  0
   -0.7407   29.2253    7.1810 C   0  0  0  0  0  0  0  0  0  0  0  0
    0.3446   28.9571    6.1931 C   0  0  0  0  0  0  0  0  0  0  0  0
   -0.5553   30.2394    8.0239 N   0  0  0  0  0  0  0  0  0  0  0  0
   -1.9009   30.4155    8.9585 S   0  0  0  0  0  0  0  0  0  0  0  0
   -4.9242   29.6286    9.3957 C   0  0  0  0  0  0  0  0  0  0  0  0
   -4.0692   28.7530    8.6190 N   0  0  0  0  0  0  0  0  0  0  0  0
   -4.5833   28.2138    7.9151 H   0  0  0  0  0  0  0  0  0  0  0  0
   -3.8081   26.5519    4.6370 C   0  0  0  0  0  0  0  0  0  0  0  0
   -2.8658   26.2367    3.4545 C   0  0  0  0  0  0  0  0  0  0  0  0
   -4.1341   26.0909    2.5606 C   0  0  0  0  0  0  0  0  0  0  0  0
   -4.8413   27.0193    3.5871 C   0  0  0  0  0  0  0  0  0  0  0  0
   -4.6614   24.6073    2.2954 C   0  0  0  0  0  0  0  0  0  0  0  0
   -4.3364   23.4971    3.1020 C   0  0  0  0  0  0  0  0  0  0  0  0
   -4.8253   22.2159    2.8231 C   0  0  0  0  0  0  0  0  0  0  0  0
   -5.6524   22.0185    1.7265 C   0  0  0  0  0  0  0  0  0  0  0  0
   -6.1180   20.7913    1.4619 F   0  0  0  0  0  0  0  0  0  0  0  0
   -5.9993   23.0746    0.9034 C   0  0  0  0  0  0  0  0  0  0  0  0
   -5.5041   24.3418    1.1954 C   0  0  0  0  0  0  0  0  0  0  0  0
   -5.8440   25.3569    0.3858 F   0  0  0  0  0  0  0  0  0  0  0  0
 11 12  1  0  0  0
 12  5  1  0  0  0
  5  6  2  0  0  0
  6  1  1  0  0  0
  1  2  2  0  0  0
  1  3  1  0  0  0
  3 14  1  0  0  0
 14 15  1  0  0  0
 15 16  1  0  0  0
 16 18  1  0  0  0
 18 19  1  0  0  0
 19 20  2  0  0  0
 20 21  1  0  0  0
 21 22  1  0  0  0
 21 23  2  0  0  0
 23 24  1  0  0  0
 24 25  1  0  0  0
 16 17  1  0  0  0
  6  7  1  0  0  0
  7  8  1  0  0  0
  7  9  2  0  0  0
  9 10  1  0  0  0
 10  5  1  0  0  0
 17 14  1  0  0  0
 24 18  2  0  0  0
 12 13  1  0  0  0
  3  4  1  0  0  0
M  END
> <minimizedAffinity>
-9.24926

$$$$
OCNT-2313664


 27 30  0  0  0  0  0  0  0  0999 V2000
   -5.2798   25.3138    4.1298 S   0  0  0  0  0  0  0  0  0  0  0  0
   -5.7234   24.6623    5.3405 O   0  0  0  0  0  0  0  0  0  0  0  0
   -3.9062   25.2096    3.6882 O   0  0  0  0  0  0  0  0  0  0  0  0
   -5.9992   29.0091    5.6237 C   0  0  0  0  0  0  0  0  0  0  0  0
   -6.2137   29.7592    4.4587 C   0  0  0  0  0  0  0  0  0  0  0  0
   -6.1175   29.1585    3.2014 C   0  0  0  0  0  0  0  0  0  0  0  0
   -5.8267   27.7990    3.1006 C   0  0  0  0  0  0  0  0  0  0  0  0
   -5.6572   27.0418    4.2647 C   0  0  0  0  0  0  0  0  0  0  0  0
   -5.7250   27.6408    5.5274 C   0  0  0  0  0  0  0  0  0  0  0  0
   -6.5324   29.0881    7.9117 O   0  0  0  0  0  0  0  0  0  0  0  0
   -6.1035   29.6985    6.9387 C   0  0  0  0  0  0  0  0  0  0  0  0
   -5.7213   31.0268    6.9626 N   0  0  0  0  0  0  0  0  0  0  0  0
   -5.5526   31.5137    6.0914 H   0  0  0  0  0  0  0  0  0  0  0  0
   -5.7999   31.8117    8.1541 C   0  0  0  0  0  0  0  0  0  0  0  0
   -5.1279   33.1553    8.2311 C   0  0  0  0  0  0  0  0  0  0  0  0
   -4.5859   32.0002    9.0203 C   0  0  0  0  0  0  0  0  0  0  0  0
   -6.2056   24.7899    2.8442 N   0  0  0  0  0  0  0  0  0  0  0  0
   -7.2047   24.8079    3.0473 H   0  0  0  0  0  0  0  0  0  0  0  0
   -5.7532   23.9767    1.6960 C   0  0  0  0  0  0  0  0  0  0  0  0
   -5.1087   24.7608    0.5509 C   0  0  0  0  0  0  0  0  0  0  0  0
   -6.2930   25.3577   -0.1949 C   0  0  0  0  0  0  0  0  0  0  0  0
   -7.3160   24.2288   -0.2164 C   0  0  0  0  0  0  0  0  0  0  0  0
   -7.0122   23.3808    1.0219 C   0  0  0  0  0  0  0  0  0  0  0  0
   -6.6113   21.9464    0.7101 C   0  0  0  0  0  0  0  0  0  0  0  0
   -5.8053   21.5602    1.8717 N   0  0  0  0  0  0  0  0  0  0  0  0
   -4.9588   22.7365    2.1516 C   0  0  0  0  0  0  0  0  0  0  0  0
   -6.4290   21.4083    2.6657 H   0  0  0  0  0  0  0  0  0  0  0  0
 10 11  2  0  0  0
 11 12  1  0  0  0
 12 14  1  0  0  0
 14 15  1  0  0  0
 15 16  1  0  0  0
 11  4  1  0  0  0
  4  5  1  0  0  0
  5  6  2  0  0  0
  6  7  1  0  0  0
  7  8  2  0  0  0
  8  1  1  0  0  0
  1  2  2  0  0  0
  1  3  2  0  0  0
  1 17  1  0  0  0
 19 17  1  0  0  0
 19 20  1  0  0  0
 20 21  1  0  0  0
 21 22  1  0  0  0
 22 23  1  0  0  0
 23 24  1  0  0  0
 24 25  1  0  0  0
 25 26  1  0  0  0
  8  9  1  0  0  0
 16 14  1  0  0  0
  9  4  2  0  0  0
 23 19  1  0  0  0
 26 19  1  0  0  0
 12 13  1  0  0  0
 17 18  1  0  0  0
 25 27  1  0  0  0
M  END
> <minimizedAffinity>
-9.22065

$$$$
OCNT-2313666


 24 26  0  0  0  0  0  0  0  0999 V2000
   -2.3018   26.1008    7.0475 O   0  0  0  0  0  0  0  0  0  0  0  0
   -1.9982   26.6787    6.0075 C   0  0  0  0  0  0  0  0  0  0  0  0
   -0.9233   27.5384    5.9406 N   0  0  0  0  0  0  0  0  0  0  0  0
   -0.8367   28.1358    5.1303 H   0  0  0  0  0  0  0  0  0  0  0  0
   -2.7326   26.5164    4.7814 C   0  0  0  0  0  0  0  0  0  0  0  0
   -2.4371   25.8904    3.5732 C   0  0  0  0  0  0  0  0  0  0  0  0
   -3.4746   25.9856    2.6596 N   0  0  0  0  0  0  0  0  0  0  0  0
   -4.3921   26.6539    3.3041 C   0  0  0  0  0  0  0  0  0  0  0  0
   -5.7543   27.1499    3.0327 C   0  0  0  0  0  0  0  0  0  0  0  0
   -5.9559   28.1556    4.1944 C   0  0  0  0  0  0  0  0  0  0  0  0
   -4.9737   27.7318    5.3036 C   0  0  0  0  0  0  0  0  0  0  0  0
   -3.9863   26.9792    4.5590 N   0  0  0  0  0  0  0  0  0  0  0  0
   -0.2202   27.9487    7.1548 C   0  0  0  0  0  0  0  0  0  0  0  0
   -0.3306   29.4580    7.4336 C   0  0  0  0  0  0  0  0  0  0  0  0
    0.6768   29.7893    8.3031 F   0  0  0  0  0  0  0  0  0  0  0  0
   -0.0963   30.1735    6.3037 F   0  0  0  0  0  0  0  0  0  0  0  0
   -1.6788   29.8967    8.0668 C   0  0  0  0  0  0  0  0  0  0  0  0
   -2.3839   28.7280    8.5427 O   0  0  0  0  0  0  0  0  0  0  0  0
   -1.4465   30.8115    9.2959 C   0  0  0  0  0  0  0  0  0  0  0  0
   -1.5211   32.2925    8.9439 C   0  0  0  0  0  0  0  0  0  0  0  0
   -2.8982   32.6704    8.3971 C   0  0  0  0  0  0  0  0  0  0  0  0
   -3.5927   31.5238    7.6613 C   0  0  0  0  0  0  0  0  0  0  0  0
   -2.5833   30.5785    7.0153 C   0  0  0  0  0  0  0  0  0  0  0  0
   -1.8550   28.3478    9.2701 H   0  0  0  0  0  0  0  0  0  0  0  0
  1  2  2  0  0  0
  2  3  1  0  0  0
  3 13  1  0  0  0
 13 14  1  0  0  0
 14 15  1  0  0  0
 14 16  1  0  0  0
 14 17  1  0  0  0
 17 18  1  0  0  0
 17 19  1  0  0  0
 19 20  1  0  0  0
 20 21  1  0  0  0
 21 22  1  0  0  0
 22 23  1  0  0  0
  2  5  1  0  0  0
  5  6  2  0  0  0
  6  7  1  0  0  0
  7  8  2  0  0  0
  8  9  1  0  0  0
  9 10  1  0  0  0
 10 11  1  0  0  0
 11 12  1  0  0  0
 23 17  1  0  0  0
 12  5  1  0  0  0
 12  8  1  0  0  0
  3  4  1  0  0  0
 18 24  1  0  0  0
M  END
> <minimizedAffinity>
-8.89585

$$$$
OCNT-2313669


 25 27  0  0  0  0  0  0  0  0999 V2000
   -3.0851   26.3960    4.4137 C   0  0  0  0  0  0  0  0  0  0  0  0
   -2.6793   27.5393    6.5590 C   0  0  0  0  0  0  0  0  0  0  0  0
   -1.9941   26.5987    6.9552 O   0  0  0  0  0  0  0  0  0  0  0  0
   -3.2312   27.5483    5.2876 N   0  0  0  0  0  0  0  0  0  0  0  0
   -4.0602   28.1113    5.1436 H   0  0  0  0  0  0  0  0  0  0  0  0
   -0.1924   29.7138    6.7387 C   0  0  0  0  0  0  0  0  0  0  0  0
   -1.2293   30.2960    7.6942 C   0  0  0  0  0  0  0  0  0  0  0  0
   -2.0744   31.4067    7.0437 C   0  0  0  0  0  0  0  0  0  0  0  0
   -3.0125   30.8757    6.0452 N   0  0  0  0  0  0  0  0  0  0  0  0
   -3.8552   29.8560    6.6904 C   0  0  0  0  0  0  0  0  0  0  0  0
   -3.0765   28.7509    7.4480 C   0  0  0  0  0  0  0  0  0  0  0  0
   -2.0576   29.2886    8.2972 O   0  0  0  0  0  0  0  0  0  0  0  0
   -3.5983   31.6336    5.6966 H   0  0  0  0  0  0  0  0  0  0  0  0
   -4.2202   25.3827    4.5789 C   0  0  0  0  0  0  0  0  0  0  0  0
   -4.9178   25.0518    3.2922 C   0  0  0  0  0  0  0  0  0  0  0  0
   -5.3828   25.9598    2.3594 C   0  0  0  0  0  0  0  0  0  0  0  0
   -5.9491   25.2651    1.3259 N   0  0  0  0  0  0  0  0  0  0  0  0
   -5.8742   23.9124    1.5645 C   0  0  0  0  0  0  0  0  0  0  0  0
   -6.3194   22.8281    0.7994 C   0  0  0  0  0  0  0  0  0  0  0  0
   -7.1175   23.0679   -0.7033 Cl  0  0  0  0  0  0  0  0  0  0  0  0
   -6.1007   21.5383    1.2871 C   0  0  0  0  0  0  0  0  0  0  0  0
   -5.4524   21.3419    2.5043 C   0  0  0  0  0  0  0  0  0  0  0  0
   -5.0099   22.4340    3.2615 C   0  0  0  0  0  0  0  0  0  0  0  0
   -5.2245   23.7462    2.7886 C   0  0  0  0  0  0  0  0  0  0  0  0
   -6.3604   25.6711    0.4954 H   0  0  0  0  0  0  0  0  0  0  0  0
  6  7  1  0  0  0
  7  8  1  0  0  0
  8  9  1  0  0  0
  9 10  1  0  0  0
 10 11  1  0  0  0
 11  2  1  0  0  0
  2  3  2  0  0  0
  2  4  1  0  0  0
  4  1  1  0  0  0
  1 14  1  0  0  0
 14 15  1  0  0  0
 15 16  2  0  0  0
 16 17  1  0  0  0
 17 18  1  0  0  0
 18 19  2  0  0  0
 19 20  1  0  0  0
 19 21  1  0  0  0
 21 22  2  0  0  0
 22 23  1  0  0  0
 23 24  2  0  0  0
 11 12  1  0  0  0
 12  7  1  0  0  0
 24 15  1  0  0  0
 24 18  1  0  0  0
  9 13  1  0  0  0
  4  5  1  0  0  0
 17 25  1  0  0  0
M  END
> <minimizedAffinity>
-8.96035

$$$$
OCNT-2313683


 28 30  0  0  0  0  0  0  0  0999 V2000
   -5.4390   28.9862    4.9303 N   0  0  0  0  0  0  0  0  0  0  0  0
   -5.8728   27.7151    4.5665 C   0  0  0  0  0  0  0  0  0  0  0  0
   -6.4151   26.8963    5.3018 O   0  0  0  0  0  0  0  0  0  0  0  0
   -4.9817   29.5379    4.2173 H   0  0  0  0  0  0  0  0  0  0  0  0
   -6.7344   30.8194    9.4147 C   0  0  0  0  0  0  0  0  0  0  0  0
   -6.0207   30.2661    8.2394 C   0  0  0  0  0  0  0  0  0  0  0  0
   -4.7085   30.0271    8.2922 N   0  0  0  0  0  0  0  0  0  0  0  0
   -4.4055   29.5387    7.0736 N   0  0  0  0  0  0  0  0  0  0  0  0
   -5.4949   29.4628    6.2300 C   0  0  0  0  0  0  0  0  0  0  0  0
   -6.5534   29.9463    6.9724 C   0  0  0  0  0  0  0  0  0  0  0  0
   -3.0108   29.2494    6.7884 C   0  0  0  0  0  0  0  0  0  0  0  0
   -2.1535   30.5262    6.7395 C   0  0  0  0  0  0  0  0  0  0  0  0
   -0.7149   30.0562    6.5967 C   0  0  0  0  0  0  0  0  0  0  0  0
   -0.6128   28.5475    7.5508 S   0  0  0  0  0  0  0  0  0  0  0  0
    0.0315   28.8354    8.8141 O   0  0  0  0  0  0  0  0  0  0  0  0
   -0.1570   27.4915    6.6695 O   0  0  0  0  0  0  0  0  0  0  0  0
   -2.3591   28.3317    7.8210 C   0  0  0  0  0  0  0  0  0  0  0  0
   -5.5772   27.3878    3.0900 C   0  0  0  0  0  0  0  0  0  0  0  0
   -4.9970   26.0289    2.9197 N   0  0  0  0  0  0  0  0  0  0  0  0
   -3.5300   26.0223    2.8174 C   0  0  0  0  0  0  0  0  0  0  0  0
   -5.7206   25.1808    2.0711 C   0  0  0  0  0  0  0  0  0  0  0  0
   -5.9469   25.4652    0.7144 C   0  0  0  0  0  0  0  0  0  0  0  0
   -6.7166   24.6165   -0.0882 C   0  0  0  0  0  0  0  0  0  0  0  0
   -7.2672   23.4624    0.4556 C   0  0  0  0  0  0  0  0  0  0  0  0
   -8.0254   22.6738   -0.3199 F   0  0  0  0  0  0  0  0  0  0  0  0
   -7.0408   23.1414    1.7889 C   0  0  0  0  0  0  0  0  0  0  0  0
   -7.7191   21.7207    2.4878 Cl  0  0  0  0  0  0  0  0  0  0  0  0
   -6.2654   23.9881    2.5839 C   0  0  0  0  0  0  0  0  0  0  0  0
  5  6  1  0  0  0
  6  7  2  0  0  0
  7  8  1  0  0  0
  8 11  1  0  0  0
 11 12  1  0  0  0
 12 13  1  0  0  0
 13 14  1  0  0  0
 14 15  2  0  0  0
 14 16  2  0  0  0
 14 17  1  0  0  0
  8  9  1  0  0  0
  9  1  1  0  0  0
  1  2  1  0  0  0
  2  3  2  0  0  0
  2 18  1  0  0  0
 18 19  1  0  0  0
 19 20  1  0  0  0
 19 21  1  0  0  0
 21 22  1  0  0  0
 22 23  2  0  0  0
 23 24  1  0  0  0
 24 25  1  0  0  0
 24 26  2  0  0  0
 26 27  1  0  0  0
 26 28  1  0  0  0
  9 10  2  0  0  0
 10  6  1  0  0  0
 17 11  1  0  0  0
 28 21  2  0  0  0
  1  4  1  0  0  0
M  END
> <minimizedAffinity>
-9.65523

$$$$
OCNT-2313726


 23 25  0  0  0  0  0  0  0  0999 V2000
   -5.9950   28.4974    6.5098 C   0  0  0  0  0  0  0  0  0  0  0  0
   -7.0199   28.5792    7.1795 O   0  0  0  0  0  0  0  0  0  0  0  0
   -4.8201   29.1269    6.8513 N   0  0  0  0  0  0  0  0  0  0  0  0
   -4.0361   29.0080    6.2149 H   0  0  0  0  0  0  0  0  0  0  0  0
   -4.6732   29.8780    8.0772 C   0  0  0  0  0  0  0  0  0  0  0  0
   -3.2446   30.2036    8.4030 C   0  0  0  0  0  0  0  0  0  0  0  0
   -2.1368   29.3684    8.3603 C   0  0  0  0  0  0  0  0  0  0  0  0
   -0.8981   29.8826    8.7500 C   0  0  0  0  0  0  0  0  0  0  0  0
   -0.7822   31.2094    9.1905 C   0  0  0  0  0  0  0  0  0  0  0  0
   -1.9033   32.0391    9.2508 C   0  0  0  0  0  0  0  0  0  0  0  0
   -3.1263   31.5245    8.8513 C   0  0  0  0  0  0  0  0  0  0  0  0
   -4.4553   32.2140    8.8755 C   0  0  0  0  0  0  0  0  0  0  0  0
   -5.3135   31.2959    7.9883 C   0  0  0  0  0  0  0  0  0  0  0  0
   -6.6694   31.2960    8.4349 O   0  0  0  0  0  0  0  0  0  0  0  0
   -7.1078   30.5547    7.9594 H   0  0  0  0  0  0  0  0  0  0  0  0
   -5.7342   25.6568    1.5316 C   0  0  0  0  0  0  0  0  0  0  0  0
   -5.8075   26.3377    2.8665 C   0  0  0  0  0  0  0  0  0  0  0  0
   -5.7402   27.7294    2.9436 C   0  0  0  0  0  0  0  0  0  0  0  0
   -5.7968   28.4376    4.0924 N   0  0  0  0  0  0  0  0  0  0  0  0
   -5.9298   27.7117    5.2354 C   0  0  0  0  0  0  0  0  0  0  0  0
   -6.0056   26.3258    5.2716 C   0  0  0  0  0  0  0  0  0  0  0  0
   -5.9436   25.6174    4.0664 C   0  0  0  0  0  0  0  0  0  0  0  0
   -6.0243   24.1167    4.0819 C   0  0  0  0  0  0  0  0  0  0  0  0
 16 17  1  0  0  0
 17 18  1  0  0  0
 18 19  2  0  0  0
 19 20  1  0  0  0
 20  1  1  0  0  0
  1  2  2  0  0  0
  1  3  1  0  0  0
  3  5  1  0  0  0
  5  6  1  0  0  0
  6  7  2  0  0  0
  7  8  1  0  0  0
  8  9  2  0  0  0
  9 10  1  0  0  0
 10 11  2  0  0  0
 11 12  1  0  0  0
 12 13  1  0  0  0
 13 14  1  0  0  0
 20 21  2  0  0  0
 21 22  1  0  0  0
 22 23  1  0  0  0
 22 17  2  0  0  0
 13  5  1  0  0  0
 11  6  1  0  0  0
  3  4  1  0  0  0
 14 15  1  0  0  0
M  END
> <minimizedAffinity>
-9.13031

$$$$
OCNT-2313749


 28 31  0  0  0  0  0  0  0  0999 V2000
   -2.5886   25.5731    4.6639 O   0  0  0  0  0  0  0  0  0  0  0  0
   -3.7394   25.9860    4.5260 C   0  0  0  0  0  0  0  0  0  0  0  0
   -4.1978   27.0602    5.2608 N   0  0  0  0  0  0  0  0  0  0  0  0
   -5.3767   27.8733    5.0202 C   0  0  0  0  0  0  0  0  0  0  0  0
   -5.0348   29.2262    5.6360 C   0  0  0  0  0  0  0  0  0  0  0  0
   -4.1730   28.8542    6.8560 C   0  0  0  0  0  0  0  0  0  0  0  0
   -5.0596   28.3827    7.8822 O   0  0  0  0  0  0  0  0  0  0  0  0
   -3.3599   27.6634    6.2895 C   0  0  0  0  0  0  0  0  0  0  0  0
   -4.8020   28.7940    8.7252 H   0  0  0  0  0  0  0  0  0  0  0  0
   -4.6037   25.4236    3.5183 C   0  0  0  0  0  0  0  0  0  0  0  0
   -5.4102   24.3013    3.5032 C   0  0  0  0  0  0  0  0  0  0  0  0
   -5.6163   23.1417    4.7358 Cl  0  0  0  0  0  0  0  0  0  0  0  0
   -6.0433   24.2194    2.2270 C   0  0  0  0  0  0  0  0  0  0  0  0
   -6.9721   23.3355    1.6371 C   0  0  0  0  0  0  0  0  0  0  0  0
   -7.3785   23.5579    0.3182 C   0  0  0  0  0  0  0  0  0  0  0  0
   -8.5183   22.4880   -0.4057 Cl  0  0  0  0  0  0  0  0  0  0  0  0
   -6.8772   24.6266   -0.4203 C   0  0  0  0  0  0  0  0  0  0  0  0
   -5.9478   25.5089    0.1390 C   0  0  0  0  0  0  0  0  0  0  0  0
   -5.5537   25.2781    1.4621 C   0  0  0  0  0  0  0  0  0  0  0  0
   -4.6530   25.9555    2.2483 N   0  0  0  0  0  0  0  0  0  0  0  0
   -4.1001   26.7487    1.9496 H   0  0  0  0  0  0  0  0  0  0  0  0
   -3.3335   29.9814    7.4375 C   0  0  0  0  0  0  0  0  0  0  0  0
   -3.2003   30.1461    8.8289 C   0  0  0  0  0  0  0  0  0  0  0  0
   -2.4028   31.1636    9.3589 C   0  0  0  0  0  0  0  0  0  0  0  0
   -1.7192   32.0160    8.5038 C   0  0  0  0  0  0  0  0  0  0  0  0
   -0.9532   32.9893    9.0127 F   0  0  0  0  0  0  0  0  0  0  0  0
   -1.8110   31.8646    7.1276 C   0  0  0  0  0  0  0  0  0  0  0  0
   -2.6078   30.8474    6.5962 C   0  0  0  0  0  0  0  0  0  0  0  0
  1  2  2  0  0  0
  2 10  1  0  0  0
 10 11  2  0  0  0
 11 12  1  0  0  0
 11 13  1  0  0  0
 13 14  2  0  0  0
 14 15  1  0  0  0
 15 16  1  0  0  0
 15 17  2  0  0  0
 17 18  1  0  0  0
 18 19  2  0  0  0
 19 20  1  0  0  0
  2  3  1  0  0  0
  3  4  1  0  0  0
  4  5  1  0  0  0
  5  6  1  0  0  0
  6  7  1  0  0  0
  6 22  1  0  0  0
 22 23  1  0  0  0
 23 24  2  0  0  0
 24 25  1  0  0  0
 25 26  1  0  0  0
 25 27  2  0  0  0
 27 28  1  0  0  0
  6  8  1  0  0  0
 20 10  1  0  0  0
  8  3  1  0  0  0
 19 13  1  0  0  0
 28 22  2  0  0  0
 20 21  1  0  0  0
  7  9  1  0  0  0
M  END
> <minimizedAffinity>
-9.96433

$$$$
OCNT-2313756


 24 27  0  0  0  0  0  0  0  0999 V2000
   -1.6749   28.1216    7.8777 O   0  0  0  0  0  0  0  0  0  0  0  0
   -2.6092   28.4430    7.1387 C   0  0  0  0  0  0  0  0  0  0  0  0
   -2.9777   27.6182    6.0633 N   0  0  0  0  0  0  0  0  0  0  0  0
   -4.3754   27.4584    5.6508 C   0  0  0  0  0  0  0  0  0  0  0  0
   -4.4937   26.8913    4.2249 C   0  0  0  0  0  0  0  0  0  0  0  0
   -3.7425   25.6252    4.0549 N   0  0  0  0  0  0  0  0  0  0  0  0
   -2.3264   25.8567    4.4190 C   0  0  0  0  0  0  0  0  0  0  0  0
   -2.1645   26.4242    5.8423 C   0  0  0  0  0  0  0  0  0  0  0  0
   -3.3287   29.6868    7.3482 C   0  0  0  0  0  0  0  0  0  0  0  0
   -4.2785   30.0338    8.2766 C   0  0  0  0  0  0  0  0  0  0  0  0
   -5.0341   29.4286    9.3891 C   0  0  0  0  0  0  0  0  0  0  0  0
   -6.1347   30.5101    9.6516 C   0  0  0  0  0  0  0  0  0  0  0  0
   -5.6145   31.8578    9.0484 C   0  0  0  0  0  0  0  0  0  0  0  0
   -4.5980   31.3881    8.0901 C   0  0  0  0  0  0  0  0  0  0  0  0
   -3.8245   31.8449    7.0651 C   0  0  0  0  0  0  0  0  0  0  0  0
   -3.0351   30.8212    6.6096 O   0  0  0  0  0  0  0  0  0  0  0  0
   -3.8860   25.1415    2.6680 C   0  0  0  0  0  0  0  0  0  0  0  0
   -5.1450   25.6769    1.9645 C   0  0  0  0  0  0  0  0  0  0  0  0
   -5.7883   24.6224    1.0969 C   0  0  0  0  0  0  0  0  0  0  0  0
   -5.5617   23.2648    1.3365 C   0  0  0  0  0  0  0  0  0  0  0  0
   -6.1902   22.3329    0.5248 C   0  0  0  0  0  0  0  0  0  0  0  0
   -7.0191   22.6569   -0.4902 N   0  0  0  0  0  0  0  0  0  0  0  0
   -7.2269   23.9735   -0.7033 C   0  0  0  0  0  0  0  0  0  0  0  0
   -6.6454   24.9799    0.0529 C   0  0  0  0  0  0  0  0  0  0  0  0
  1  2  2  0  0  0
  2  9  1  0  0  0
  9 10  2  0  0  0
 10 11  1  0  0  0
 11 12  1  0  0  0
 12 13  1  0  0  0
 13 14  1  0  0  0
 14 15  2  0  0  0
 15 16  1  0  0  0
  2  3  1  0  0  0
  3  4  1  0  0  0
  4  5  1  0  0  0
  5  6  1  0  0  0
  6 17  1  0  0  0
 17 18  1  0  0  0
 18 19  1  0  0  0
 19 20  2  0  0  0
 20 21  1  0  0  0
 21 22  2  0  0  0
 22 23  1  0  0  0
 23 24  2  0  0  0
  6  7  1  0  0  0
  7  8  1  0  0  0
 16  9  1  0  0  0
  8  3  1  0  0  0
 14 10  1  0  0  0
 24 19  1  0  0  0
M  END
> <minimizedAffinity>
-8.83211

$$$$
OCNT-2313761


 27 30  0  0  0  0  0  0  0  0999 V2000
   -5.8767   30.0949    5.7172 C   0  0  0  0  0  0  0  0  0  0  0  0
   -6.0229   26.2519    3.6392 C   0  0  0  0  0  0  0  0  0  0  0  0
   -6.1666   26.3499    5.0317 C   0  0  0  0  0  0  0  0  0  0  0  0
   -6.1209   27.5806    5.7011 C   0  0  0  0  0  0  0  0  0  0  0  0
   -5.9362   28.7705    4.9932 C   0  0  0  0  0  0  0  0  0  0  0  0
   -5.7864   28.6979    3.6070 C   0  0  0  0  0  0  0  0  0  0  0  0
   -5.8332   27.4603    2.9494 C   0  0  0  0  0  0  0  0  0  0  0  0
   -5.7595   21.1364    1.7369 C   0  0  0  0  0  0  0  0  0  0  0  0
   -6.3461   22.4486    1.4807 N   0  0  0  0  0  0  0  0  0  0  0  0
   -5.2866   23.4525    1.2391 C   0  0  0  0  0  0  0  0  0  0  0  0
   -5.7047   24.9068    1.5584 C   0  0  0  0  0  0  0  0  0  0  0  0
   -6.0728   25.0363    2.9780 N   0  0  0  0  0  0  0  0  0  0  0  0
   -6.6353   23.8354    3.6187 C   0  0  0  0  0  0  0  0  0  0  0  0
   -7.2468   22.8719    2.5731 C   0  0  0  0  0  0  0  0  0  0  0  0
   -4.6789   30.8008    5.3150 N   0  0  0  0  0  0  0  0  0  0  0  0
   -4.8316   31.5761    4.6810 H   0  0  0  0  0  0  0  0  0  0  0  0
   -3.9111   31.2714    6.3647 C   0  0  0  0  0  0  0  0  0  0  0  0
   -4.3110   32.3293    7.0798 N   0  0  0  0  0  0  0  0  0  0  0  0
   -3.5223   32.7166    8.0965 C   0  0  0  0  0  0  0  0  0  0  0  0
   -2.3425   32.0950    8.4243 C   0  0  0  0  0  0  0  0  0  0  0  0
   -2.0021   31.0215    7.6294 C   0  0  0  0  0  0  0  0  0  0  0  0
   -2.7751   30.6068    6.5980 N   0  0  0  0  0  0  0  0  0  0  0  0
   -0.8014   30.2972    7.8680 N   0  0  0  0  0  0  0  0  0  0  0  0
   -0.1074   29.5596    6.9317 C   0  0  0  0  0  0  0  0  0  0  0  0
    0.9812   29.0400    7.5883 C   0  0  0  0  0  0  0  0  0  0  0  0
    0.9867   29.4298    8.8988 N   0  0  0  0  0  0  0  0  0  0  0  0
   -0.0880   30.1761    9.0387 C   0  0  0  0  0  0  0  0  0  0  0  0
  8  9  1  0  0  0
  9 10  1  0  0  0
 10 11  1  0  0  0
 11 12  1  0  0  0
 12  2  1  0  0  0
  2  3  1  0  0  0
  3  4  2  0  0  0
  4  5  1  0  0  0
  5  1  1  0  0  0
  1 15  1  0  0  0
 15 17  1  0  0  0
 17 18  2  0  0  0
 18 19  1  0  0  0
 19 20  2  0  0  0
 20 21  1  0  0  0
 21 23  1  0  0  0
 23 24  1  0  0  0
 24 25  2  0  0  0
 25 26  1  0  0  0
 26 27  2  0  0  0
 21 22  2  0  0  0
  5  6  2  0  0  0
  6  7  1  0  0  0
 12 13  1  0  0  0
 13 14  1  0  0  0
 14  9  1  0  0  0
  7  2  2  0  0  0
 22 17  1  0  0  0
 27 23  1  0  0  0
 15 16  1  0  0  0
M  END
> <minimizedAffinity>
-9.48685

$$$$
OCNT-2313767


 29 31  0  0  0  0  0  0  0  0999 V2000
   -4.2635   29.5241    5.9607 C   0  0  0  0  0  0  0  0  0  0  0  0
   -4.6724   30.4677    5.2890 O   0  0  0  0  0  0  0  0  0  0  0  0
   -3.1316   29.5893    6.7389 N   0  0  0  0  0  0  0  0  0  0  0  0
   -2.8214   28.7666    7.2398 H   0  0  0  0  0  0  0  0  0  0  0  0
   -2.2986   30.7708    6.7799 C   0  0  0  0  0  0  0  0  0  0  0  0
   -0.8078   30.4109    6.5530 C   0  0  0  0  0  0  0  0  0  0  0  0
   -0.1639   29.7266    7.7800 C   0  0  0  0  0  0  0  0  0  0  0  0
   -0.2221   30.6106    9.0418 C   0  0  0  0  0  0  0  0  0  0  0  0
   -1.5485   31.2657    9.1706 C   0  0  0  0  0  0  0  0  0  0  0  0
   -2.4616   31.3504    8.1392 C   0  0  0  0  0  0  0  0  0  0  0  0
   -3.5319   32.0528    8.6229 N   0  0  0  0  0  0  0  0  0  0  0  0
   -3.3697   32.4016    9.9214 N   0  0  0  0  0  0  0  0  0  0  0  0
   -2.1599   31.9339   10.2424 C   0  0  0  0  0  0  0  0  0  0  0  0
   -4.7617   32.4213    7.9236 C   0  0  0  0  0  0  0  0  0  0  0  0
   -5.0248   33.9227    8.0294 C   0  0  0  0  0  0  0  0  0  0  0  0
   -5.9583   31.6100    8.4259 C   0  0  0  0  0  0  0  0  0  0  0  0
   -4.9770   28.1857    6.0116 C   0  0  0  0  0  0  0  0  0  0  0  0
   -2.4869   26.1321    6.3036 C   0  0  0  0  0  0  0  0  0  0  0  0
   -3.3697   26.3402    5.1265 C   0  0  0  0  0  0  0  0  0  0  0  0
   -3.1723   25.6235    4.0179 N   0  0  0  0  0  0  0  0  0  0  0  0
   -4.1486   26.0116    3.1847 N   0  0  0  0  0  0  0  0  0  0  0  0
   -4.9086   27.0433    3.6834 C   0  0  0  0  0  0  0  0  0  0  0  0
   -5.9978   27.7088    2.9190 C   0  0  0  0  0  0  0  0  0  0  0  0
   -4.4556   27.2458    4.9785 C   0  0  0  0  0  0  0  0  0  0  0  0
   -4.2461   25.3570    1.8986 C   0  0  0  0  0  0  0  0  0  0  0  0
   -5.3376   24.3221    1.8835 C   0  0  0  0  0  0  0  0  0  0  0  0
   -4.8818   23.1830    1.2952 F   0  0  0  0  0  0  0  0  0  0  0  0
   -5.7769   23.9835    3.1134 F   0  0  0  0  0  0  0  0  0  0  0  0
   -6.4073   24.7279    1.1572 F   0  0  0  0  0  0  0  0  0  0  0  0
 18 19  1  0  0  0
 19 20  2  0  0  0
 20 21  1  0  0  0
 21 25  1  0  0  0
 25 26  1  0  0  0
 26 27  1  0  0  0
 26 28  1  0  0  0
 26 29  1  0  0  0
 21 22  1  0  0  0
 22 23  1  0  0  0
 22 24  2  0  0  0
 24 17  1  0  0  0
 17  1  1  0  0  0
  1  2  2  0  0  0
  1  3  1  0  0  0
  3  5  1  0  0  0
  5  6  1  0  0  0
  6  7  1  0  0  0
  7  8  1  0  0  0
  8  9  1  0  0  0
  9 10  2  0  0  0
 10 11  1  0  0  0
 11 14  1  0  0  0
 14 15  1  0  0  0
 14 16  1  0  0  0
 11 12  1  0  0  0
 12 13  2  0  0  0
 24 19  1  0  0  0
 10  5  1  0  0  0
 13  9  1  0  0  0
  3  4  1  0  0  0
M  END
> <minimizedAffinity>
-9.19593

$$$$
OCNT-2313769


 30 33  0  0  0  0  0  0  0  0999 V2000
   -4.6093   30.8811    6.5478 N   0  0  0  0  0  0  0  0  0  0  0  0
   -4.8792   31.1221    5.5921 H   0  0  0  0  0  0  0  0  0  0  0  0
   -5.7807   30.3210    7.2817 C   0  0  0  0  0  0  0  0  0  0  0  0
   -6.2818   31.3687    8.3138 C   0  0  0  0  0  0  0  0  0  0  0  0
   -6.6538   30.7222    9.6435 C   0  0  0  0  0  0  0  0  0  0  0  0
   -5.5383   30.0838   10.2676 O   0  0  0  0  0  0  0  0  0  0  0  0
   -4.5946   29.5025    9.3643 C   0  0  0  0  0  0  0  0  0  0  0  0
   -5.2372   29.0817    8.0479 C   0  0  0  0  0  0  0  0  0  0  0  0
   -6.8845   29.8976    6.2511 C   0  0  0  0  0  0  0  0  0  0  0  0
   -6.5021   28.9475    5.1349 C   0  0  0  0  0  0  0  0  0  0  0  0
   -6.3687   27.5713    5.3844 C   0  0  0  0  0  0  0  0  0  0  0  0
   -6.0039   26.6965    4.3598 C   0  0  0  0  0  0  0  0  0  0  0  0
   -5.7614   27.1958    3.0867 C   0  0  0  0  0  0  0  0  0  0  0  0
   -5.4075   26.3571    2.1046 F   0  0  0  0  0  0  0  0  0  0  0  0
   -5.8721   28.5545    2.8195 C   0  0  0  0  0  0  0  0  0  0  0  0
   -6.2365   29.4310    3.8431 C   0  0  0  0  0  0  0  0  0  0  0  0
   -3.9593   32.0525    7.1385 C   0  0  0  0  0  0  0  0  0  0  0  0
   -0.8139   30.4167    7.8308 C   0  0  0  0  0  0  0  0  0  0  0  0
   -0.8181   31.2539    8.9411 C   0  0  0  0  0  0  0  0  0  0  0  0
   -1.9964   32.0327    8.8914 C   0  0  0  0  0  0  0  0  0  0  0  0
   -2.6655   31.6422    7.7534 C   0  0  0  0  0  0  0  0  0  0  0  0
   -1.9617   30.6729    7.1057 O   0  0  0  0  0  0  0  0  0  0  0  0
    0.7762   29.6033    5.9688 O   0  0  0  0  0  0  0  0  0  0  0  0
    0.3803   29.1901    7.2999 S   0  0  0  0  0  0  0  0  0  0  0  0
    1.3395   29.1061    8.3810 O   0  0  0  0  0  0  0  0  0  0  0  0
   -0.4102   27.6953    7.1734 N   0  0  0  0  0  0  0  0  0  0  0  0
   -1.7724   27.6093    7.7530 C   0  0  0  0  0  0  0  0  0  0  0  0
   -2.4484   26.5124    6.9445 C   0  0  0  0  0  0  0  0  0  0  0  0
   -1.9016   26.7576    5.5530 C   0  0  0  0  0  0  0  0  0  0  0  0
   -0.4406   27.1053    5.8087 C   0  0  0  0  0  0  0  0  0  0  0  0
 23 24  2  0  0  0
 24 25  2  0  0  0
 24 18  1  0  0  0
 18 19  2  0  0  0
 19 20  1  0  0  0
 20 21  2  0  0  0
 21 17  1  0  0  0
 17  1  1  0  0  0
  1  3  1  0  0  0
  3  9  1  0  0  0
  9 10  1  0  0  0
 10 11  1  0  0  0
 11 12  2  0  0  0
 12 13  1  0  0  0
 13 14  1  0  0  0
 13 15  2  0  0  0
 15 16  1  0  0  0
  3  4  1  0  0  0
  4  5  1  0  0  0
  5  6  1  0  0  0
  6  7  1  0  0  0
  7  8  1  0  0  0
 21 22  1  0  0  0
 24 26  1  0  0  0
 26 27  1  0  0  0
 27 28  1  0  0  0
 28 29  1  0  0  0
 29 30  1  0  0  0
 22 18  1  0  0  0
 30 26  1  0  0  0
  8  3  1  0  0  0
 16 10  2  0  0  0
  1  2  1  0  0  0
M  END
> <minimizedAffinity>
-10.23323

$$$$
OCNT-2313778


 25 29  0  0  0  0  0  0  0  0999 V2000
   -5.6942   26.3753    2.1686 O   0  0  0  0  0  0  0  0  0  0  0  0
   -5.2860   25.5975    3.0271 C   0  0  0  0  0  0  0  0  0  0  0  0
   -5.8609   24.3600    3.2821 N   0  0  0  0  0  0  0  0  0  0  0  0
   -5.8458   23.7032    4.5847 C   0  0  0  0  0  0  0  0  0  0  0  0
   -7.2417   23.0906    4.7232 C   0  0  0  0  0  0  0  0  0  0  0  0
   -7.5630   22.7101    3.2802 C   0  0  0  0  0  0  0  0  0  0  0  0
   -6.9749   23.8750    2.4703 C   0  0  0  0  0  0  0  0  0  0  0  0
   -4.1151   26.0131    3.8400 C   0  0  0  0  0  0  0  0  0  0  0  0
   -2.8444   25.5664    3.4649 C   0  0  0  0  0  0  0  0  0  0  0  0
   -1.7251   25.9222    4.2211 C   0  0  0  0  0  0  0  0  0  0  0  0
   -1.8669   26.7155    5.3700 C   0  0  0  0  0  0  0  0  0  0  0  0
   -3.1501   27.1449    5.7478 C   0  0  0  0  0  0  0  0  0  0  0  0
   -4.2701   26.7867    4.9940 C   0  0  0  0  0  0  0  0  0  0  0  0
   -0.6577   27.1024    6.1873 C   0  0  0  0  0  0  0  0  0  0  0  0
   -0.8985   28.2929    6.9813 N   0  0  0  0  0  0  0  0  0  0  0  0
   -1.2838   28.3606    8.2846 C   0  0  0  0  0  0  0  0  0  0  0  0
   -1.3459   29.6178    8.6586 N   0  0  0  0  0  0  0  0  0  0  0  0
   -0.9857   30.2927    7.5271 C   0  0  0  0  0  0  0  0  0  0  0  0
   -0.6945   29.5256    6.4728 N   0  0  0  0  0  0  0  0  0  0  0  0
   -7.2965   22.0077    5.7602 C   0  0  0  0  0  0  0  0  0  0  0  0
   -7.8104   22.2259    7.1615 C   0  0  0  0  0  0  0  0  0  0  0  0
   -6.3447   21.9722    6.9292 C   0  0  0  0  0  0  0  0  0  0  0  0
   -6.4911   23.4015    1.1280 C   0  0  0  0  0  0  0  0  0  0  0  0
   -6.8381   24.1535   -0.1326 C   0  0  0  0  0  0  0  0  0  0  0  0
   -7.4666   22.8160    0.1357 C   0  0  0  0  0  0  0  0  0  0  0  0
  1  2  2  0  0  0
  2  8  1  0  0  0
  8  9  1  0  0  0
  9 10  2  0  0  0
 10 11  1  0  0  0
 11 14  1  0  0  0
 14 15  1  0  0  0
 15 16  1  0  0  0
 16 17  2  0  0  0
 17 18  1  0  0  0
 18 19  2  0  0  0
 11 12  2  0  0  0
 12 13  1  0  0  0
  2  3  1  0  0  0
  3  4  1  0  0  0
  4  5  1  0  0  0
  5 20  1  0  0  0
 20 21  1  0  0  0
 21 22  1  0  0  0
  5  6  1  0  0  0
  6  7  1  0  0  0
  7 23  1  0  0  0
 23 24  1  0  0  0
 24 25  1  0  0  0
 13  8  2  0  0  0
  7  3  1  0  0  0
 25 23  1  0  0  0
 19 15  1  0  0  0
 22 20  1  0  0  0
M  END
> <minimizedAffinity>
-8.97475

$$$$
OCNT-2313789


 25 28  0  0  0  0  0  0  0  0999 V2000
   -6.3043   25.2694    5.0218 O   0  0  0  0  0  0  0  0  0  0  0  0
   -6.1652   25.0002    3.8319 C   0  0  0  0  0  0  0  0  0  0  0  0
   -6.6959   23.7893    3.2277 C   0  0  0  0  0  0  0  0  0  0  0  0
   -6.5321   23.6304    1.8671 C   0  0  0  0  0  0  0  0  0  0  0  0
   -5.9134   24.4873    1.0172 N   0  0  0  0  0  0  0  0  0  0  0  0
   -5.4248   25.5404    1.5869 C   0  0  0  0  0  0  0  0  0  0  0  0
   -5.4868   25.8336    2.9377 N   0  0  0  0  0  0  0  0  0  0  0  0
   -7.2191   22.1754    1.3040 S   0  0  0  0  0  0  0  0  0  0  0  0
   -7.7388   21.7427    2.8740 C   0  0  0  0  0  0  0  0  0  0  0  0
   -7.4010   22.6897    3.8233 C   0  0  0  0  0  0  0  0  0  0  0  0
   -7.7481   22.4833    5.2220 C   0  0  0  0  0  0  0  0  0  0  0  0
   -6.7672   22.0934    6.1439 C   0  0  0  0  0  0  0  0  0  0  0  0
   -7.1008   21.9033    7.4876 C   0  0  0  0  0  0  0  0  0  0  0  0
   -8.4140   22.1033    7.9100 C   0  0  0  0  0  0  0  0  0  0  0  0
   -8.8238   21.8690    9.5645 Cl  0  0  0  0  0  0  0  0  0  0  0  0
   -9.3967   22.4920    7.0017 C   0  0  0  0  0  0  0  0  0  0  0  0
   -9.0639   22.6830    5.6579 C   0  0  0  0  0  0  0  0  0  0  0  0
   -4.9257   27.0816    3.4320 C   0  0  0  0  0  0  0  0  0  0  0  0
   -5.9580   28.1839    3.7066 C   0  0  0  0  0  0  0  0  0  0  0  0
   -5.7963   28.8975    5.0530 C   0  0  0  0  0  0  0  0  0  0  0  0
   -7.0564   28.7874    5.9136 C   0  0  0  0  0  0  0  0  0  0  0  0
   -6.5583   28.7667    7.3529 C   0  0  0  0  0  0  0  0  0  0  0  0
   -5.0948   28.8338    7.2901 N   0  0  0  0  0  0  0  0  0  0  0  0
   -4.7325   28.3093    5.9703 C   0  0  0  0  0  0  0  0  0  0  0  0
   -4.8124   29.8134    7.3427 H   0  0  0  0  0  0  0  0  0  0  0  0
  1  2  2  0  0  0
  2  3  1  0  0  0
  3  4  2  0  0  0
  4  5  1  0  0  0
  5  6  2  0  0  0
  6  7  1  0  0  0
  7 18  1  0  0  0
 18 19  1  0  0  0
 19 20  1  0  0  0
 20 21  1  0  0  0
 21 22  1  0  0  0
 22 23  1  0  0  0
 23 24  1  0  0  0
  4  8  1  0  0  0
  8  9  1  0  0  0
  9 10  2  0  0  0
 10 11  1  0  0  0
 11 12  1  0  0  0
 12 13  2  0  0  0
 13 14  1  0  0  0
 14 15  1  0  0  0
 14 16  2  0  0  0
 16 17  1  0  0  0
  7  2  1  0  0  0
 24 20  1  0  0  0
 17 11  2  0  0  0
 10  3  1  0  0  0
 23 25  1  0  0  0
M  END
> <minimizedAffinity>
-8.72057

$$$$
OCNT-2313799


 26 29  0  0  0  0  0  0  0  0999 V2000
   -4.2571   25.3322    4.9491 O   0  0  0  0  0  0  0  0  0  0  0  0
   -5.4174   25.7196    4.9384 C   0  0  0  0  0  0  0  0  0  0  0  0
   -6.5158   24.9159    5.1726 N   0  0  0  0  0  0  0  0  0  0  0  0
   -7.4310   25.2713    4.9266 H   0  0  0  0  0  0  0  0  0  0  0  0
   -5.7270   27.1267    4.6169 C   0  0  0  0  0  0  0  0  0  0  0  0
   -5.6556   27.5762    3.2913 C   0  0  0  0  0  0  0  0  0  0  0  0
   -5.9725   28.8960    2.9664 C   0  0  0  0  0  0  0  0  0  0  0  0
   -6.3595   29.8068    3.9596 C   0  0  0  0  0  0  0  0  0  0  0  0
   -6.4049   29.3769    5.2981 C   0  0  0  0  0  0  0  0  0  0  0  0
   -6.0826   28.0580    5.6009 C   0  0  0  0  0  0  0  0  0  0  0  0
   -6.1597   27.9731    6.9661 N   0  0  0  0  0  0  0  0  0  0  0  0
   -6.5847   29.1001    7.5625 N   0  0  0  0  0  0  0  0  0  0  0  0
   -6.7142   29.9588    6.5474 C   0  0  0  0  0  0  0  0  0  0  0  0
   -5.9375   27.1718    7.5481 H   0  0  0  0  0  0  0  0  0  0  0  0
   -6.3791   23.4992    5.4533 C   0  0  0  0  0  0  0  0  0  0  0  0
   -7.1629   22.6308    4.4384 C   0  0  0  0  0  0  0  0  0  0  0  0
   -8.6090   23.1191    4.0812 C   0  0  0  0  0  0  0  0  0  0  0  0
   -9.1205   21.6824    4.2859 C   0  0  0  0  0  0  0  0  0  0  0  0
   -7.8312   21.3572    5.0597 C   0  0  0  0  0  0  0  0  0  0  0  0
   -6.2058   22.3880    3.2355 C   0  0  0  0  0  0  0  0  0  0  0  0
   -6.5780   23.0573    1.9338 C   0  0  0  0  0  0  0  0  0  0  0  0
   -6.1011   24.3400    1.6284 C   0  0  0  0  0  0  0  0  0  0  0  0
   -6.4382   24.9564    0.4221 C   0  0  0  0  0  0  0  0  0  0  0  0
   -7.2483   24.2944   -0.4975 C   0  0  0  0  0  0  0  0  0  0  0  0
   -7.7168   23.0137   -0.2139 C   0  0  0  0  0  0  0  0  0  0  0  0
   -7.3801   22.3966    0.9924 C   0  0  0  0  0  0  0  0  0  0  0  0
  1  2  2  0  0  0
  2  3  1  0  0  0
  3 15  1  0  0  0
 15 16  1  0  0  0
 16 20  1  0  0  0
 20 21  1  0  0  0
 21 22  2  0  0  0
 22 23  1  0  0  0
 23 24  2  0  0  0
 24 25  1  0  0  0
 25 26  2  0  0  0
 16 17  1  0  0  0
 17 18  1  0  0  0
 18 19  1  0  0  0
  2  5  1  0  0  0
  5  6  1  0  0  0
  6  7  2  0  0  0
  7  8  1  0  0  0
  8  9  2  0  0  0
  9 10  1  0  0  0
 10 11  1  0  0  0
 11 12  1  0  0  0
 12 13  2  0  0  0
 19 16  1  0  0  0
 10  5  2  0  0  0
 26 21  1  0  0  0
 13  9  1  0  0  0
  3  4  1  0  0  0
 11 14  1  0  0  0
M  END
> <minimizedAffinity>
-9.64793

$$$$
OCNT-2313808


 25 28  0  0  0  0  0  0  0  0999 V2000
   -4.8263   27.0857    3.8935 O   0  0  0  0  0  0  0  0  0  0  0  0
   -4.3413   26.5396    4.8772 C   0  0  0  0  0  0  0  0  0  0  0  0
   -4.8139   25.3730    5.4315 N   0  0  0  0  0  0  0  0  0  0  0  0
   -4.3377   25.0535    6.2703 H   0  0  0  0  0  0  0  0  0  0  0  0
   -3.1864   27.0777    5.6016 C   0  0  0  0  0  0  0  0  0  0  0  0
   -1.8947   26.6064    5.4592 C   0  0  0  0  0  0  0  0  0  0  0  0
   -0.8294   27.4893    6.4661 S   0  0  0  0  0  0  0  0  0  0  0  0
   -2.1480   28.4374    7.0214 C   0  0  0  0  0  0  0  0  0  0  0  0
   -3.3221   28.1381    6.5054 N   0  0  0  0  0  0  0  0  0  0  0  0
   -1.9870   29.5830    8.0665 C   0  0  0  0  0  0  0  0  0  0  0  0
   -3.0181   30.0928    8.8199 C   0  0  0  0  0  0  0  0  0  0  0  0
   -2.5621   31.0796    9.6362 O   0  0  0  0  0  0  0  0  0  0  0  0
   -1.2287   31.1989    9.4012 C   0  0  0  0  0  0  0  0  0  0  0  0
   -0.8243   30.2985    8.4416 C   0  0  0  0  0  0  0  0  0  0  0  0
   -5.9838   24.6740    4.9456 C   0  0  0  0  0  0  0  0  0  0  0  0
   -5.4925   23.4847    4.1219 C   0  0  0  0  0  0  0  0  0  0  0  0
   -5.7419   22.0847    4.7475 C   0  0  0  0  0  0  0  0  0  0  0  0
   -6.1352   21.6589    3.3232 C   0  0  0  0  0  0  0  0  0  0  0  0
   -6.4421   23.0808    3.0463 N   0  0  0  0  0  0  0  0  0  0  0  0
   -6.0948   23.4904    1.6736 C   0  0  0  0  0  0  0  0  0  0  0  0
   -7.0199   22.8047    0.6471 C   0  0  0  0  0  0  0  0  0  0  0  0
   -7.9578   23.8078   -0.0038 C   0  0  0  0  0  0  0  0  0  0  0  0
   -7.2639   24.8411   -0.7027 O   0  0  0  0  0  0  0  0  0  0  0  0
   -5.9961   25.2016   -0.1557 C   0  0  0  0  0  0  0  0  0  0  0  0
   -5.9261   24.9903    1.3502 C   0  0  0  0  0  0  0  0  0  0  0  0
  1  2  2  0  0  0
  2  3  1  0  0  0
  3 15  1  0  0  0
 15 16  1  0  0  0
 16 17  1  0  0  0
 17 18  1  0  0  0
 18 19  1  0  0  0
 19 20  1  0  0  0
 20 21  1  0  0  0
 21 22  1  0  0  0
 22 23  1  0  0  0
 23 24  1  0  0  0
 24 25  1  0  0  0
  2  5  1  0  0  0
  5  6  2  0  0  0
  6  7  1  0  0  0
  7  8  1  0  0  0
  8 10  1  0  0  0
 10 11  2  0  0  0
 11 12  1  0  0  0
 12 13  1  0  0  0
 13 14  2  0  0  0
  8  9  2  0  0  0
 19 16  1  0  0  0
 25 20  1  0  0  0
  9  5  1  0  0  0
 14 10  1  0  0  0
  3  4  1  0  0  0
M  END
> <minimizedAffinity>
-8.34467

$$$$
OCNT-2313826


 24 26  0  0  0  0  0  0  0  0999 V2000
   -5.3346   30.3777    6.6401 C   0  0  0  0  0  0  0  0  0  0  0  0
   -6.2970   30.6424    7.3551 O   0  0  0  0  0  0  0  0  0  0  0  0
   -4.1451   31.0653    6.7495 N   0  0  0  0  0  0  0  0  0  0  0  0
   -3.3631   30.7311    6.2017 H   0  0  0  0  0  0  0  0  0  0  0  0
   -4.8962   27.3169    4.6411 C   0  0  0  0  0  0  0  0  0  0  0  0
   -5.8309   27.9852    3.8675 C   0  0  0  0  0  0  0  0  0  0  0  0
   -6.1249   29.2168    4.4868 C   0  0  0  0  0  0  0  0  0  0  0  0
   -5.3468   29.3261    5.6304 C   0  0  0  0  0  0  0  0  0  0  0  0
   -4.5417   28.1907    5.6586 N   0  0  0  0  0  0  0  0  0  0  0  0
   -3.4379   27.9986    6.5830 C   0  0  0  0  0  0  0  0  0  0  0  0
   -4.4072   25.9757    4.3829 C   0  0  0  0  0  0  0  0  0  0  0  0
   -4.6982   24.9865    5.0442 O   0  0  0  0  0  0  0  0  0  0  0  0
   -2.1601   25.9590    3.7305 C   0  0  0  0  0  0  0  0  0  0  0  0
   -3.5325   25.9697    3.3386 O   0  0  0  0  0  0  0  0  0  0  0  0
   -3.9380   32.1387    7.7372 C   0  0  0  0  0  0  0  0  0  0  0  0
   -4.3092   31.7467    9.1834 C   0  0  0  0  0  0  0  0  0  0  0  0
   -3.0592   32.5106    9.6544 C   0  0  0  0  0  0  0  0  0  0  0  0
   -2.4652   32.3300    8.2299 C   0  0  0  0  0  0  0  0  0  0  0  0
   -1.3990   31.1682    7.9424 C   0  0  0  0  0  0  0  0  0  0  0  0
   -1.0859   30.6971    6.6520 C   0  0  0  0  0  0  0  0  0  0  0  0
   -0.1253   29.7034    6.4368 C   0  0  0  0  0  0  0  0  0  0  0  0
    0.5564   29.1475    7.5132 C   0  0  0  0  0  0  0  0  0  0  0  0
    0.2753   29.5838    8.8021 C   0  0  0  0  0  0  0  0  0  0  0  0
   -0.6869   30.5765    9.0075 C   0  0  0  0  0  0  0  0  0  0  0  0
 13 14  1  0  0  0
 14 11  1  0  0  0
 11 12  2  0  0  0
 11  5  1  0  0  0
  5  6  2  0  0  0
  6  7  1  0  0  0
  7  8  2  0  0  0
  8  1  1  0  0  0
  1  2  2  0  0  0
  1  3  1  0  0  0
  3 15  1  0  0  0
 15 16  1  0  0  0
 16 17  1  0  0  0
 17 18  1  0  0  0
 18 19  1  0  0  0
 19 20  2  0  0  0
 20 21  1  0  0  0
 21 22  2  0  0  0
 22 23  1  0  0  0
 23 24  2  0  0  0
  8  9  1  0  0  0
  9 10  1  0  0  0
  9  5  1  0  0  0
 18 15  1  0  0  0
 24 19  1  0  0  0
  3  4  1  0  0  0
M  END
> <minimizedAffinity>
-8.85497

$$$$
OCNT-2313861


 24 25  0  0  0  0  0  0  0  0999 V2000
   -1.0823   29.7981    7.3476 N   0  0  0  0  0  0  0  0  0  0  0  0
   -1.4163   30.9579    6.4845 C   0  0  0  0  0  0  0  0  0  0  0  0
   -2.6147   31.7421    7.0462 C   0  0  0  0  0  0  0  0  0  0  0  0
   -2.3356   32.3187    8.3801 N   0  0  0  0  0  0  0  0  0  0  0  0
   -1.6353   31.3390    9.2465 C   0  0  0  0  0  0  0  0  0  0  0  0
   -1.6046   29.8841    8.7348 C   0  0  0  0  0  0  0  0  0  0  0  0
    0.4115   29.0798    7.1290 S   0  0  0  0  0  0  0  0  0  0  0  0
    0.9333   29.4766    5.8450 O   0  0  0  0  0  0  0  0  0  0  0  0
    1.1691   29.2086    8.3494 O   0  0  0  0  0  0  0  0  0  0  0  0
   -0.0795   27.4761    7.0369 N   0  0  0  0  0  0  0  0  0  0  0  0
    0.7524   26.8880    6.9895 H   0  0  0  0  0  0  0  0  0  0  0  0
   -0.4120   26.2776    4.8928 C   0  0  0  0  0  0  0  0  0  0  0  0
   -1.0580   27.1360    5.9741 C   0  0  0  0  0  0  0  0  0  0  0  0
   -2.2111   26.3846    6.6361 C   0  0  0  0  0  0  0  0  0  0  0  0
   -3.5745   32.8484    8.9918 C   0  0  0  0  0  0  0  0  0  0  0  0
   -4.8499   32.3853    8.2436 C   0  0  0  0  0  0  0  0  0  0  0  0
   -5.5381   33.5485    7.7675 O   0  0  0  0  0  0  0  0  0  0  0  0
   -5.4457   34.2012    8.4911 H   0  0  0  0  0  0  0  0  0  0  0  0
   -5.8165   31.5484    9.0891 C   0  0  0  0  0  0  0  0  0  0  0  0
   -6.3879   30.3404    8.3358 C   0  0  0  0  0  0  0  0  0  0  0  0
   -7.2560   30.7001    7.1305 C   0  0  0  0  0  0  0  0  0  0  0  0
   -7.2519   29.4469    6.2570 C   0  0  0  0  0  0  0  0  0  0  0  0
   -6.0543   28.6119    6.7081 C   0  0  0  0  0  0  0  0  0  0  0  0
   -5.2948   29.4825    7.6998 C   0  0  0  0  0  0  0  0  0  0  0  0
 12 13  1  0  0  0
 13 14  1  0  0  0
 13 10  1  0  0  0
 10  7  1  0  0  0
  7  8  2  0  0  0
  7  9  2  0  0  0
  7  1  1  0  0  0
  1  2  1  0  0  0
  2  3  1  0  0  0
  3  4  1  0  0  0
  4 15  1  0  0  0
 15 16  1  0  0  0
 16 17  1  0  0  0
 16 19  1  0  0  0
 19 20  1  0  0  0
 20 21  1  0  0  0
 21 22  1  0  0  0
 22 23  1  0  0  0
 23 24  1  0  0  0
  4  5  1  0  0  0
  5  6  1  0  0  0
  6  1  1  0  0  0
 24 20  1  0  0  0
 10 11  1  0  0  0
 17 18  1  0  0  0
M  END
> <minimizedAffinity>
-8.04526

$$$$
OCNT-2313871


 32 34  0  0  0  0  0  0  0  0999 V2000
   -4.9303   30.0811    7.5951 C   0  0  0  0  0  0  0  0  0  0  0  0
   -5.8077   29.6919    8.3631 O   0  0  0  0  0  0  0  0  0  0  0  0
   -5.1175   30.1625    6.2380 N   0  0  0  0  0  0  0  0  0  0  0  0
   -4.3256   30.4432    5.6586 H   0  0  0  0  0  0  0  0  0  0  0  0
   -3.3572   31.5785    8.9871 C   0  0  0  0  0  0  0  0  0  0  0  0
   -2.0502   31.8629    9.4053 C   0  0  0  0  0  0  0  0  0  0  0  0
   -0.9829   31.0429    9.0328 C   0  0  0  0  0  0  0  0  0  0  0  0
   -1.2195   29.9414    8.2138 C   0  0  0  0  0  0  0  0  0  0  0  0
   -2.5074   29.6632    7.7515 C   0  0  0  0  0  0  0  0  0  0  0  0
   -3.5883   30.4784    8.1332 C   0  0  0  0  0  0  0  0  0  0  0  0
    0.1253   28.8970    7.7120 S   0  0  0  0  0  0  0  0  0  0  0  0
    0.6047   29.5384    6.1277 C   0  0  0  0  0  0  0  0  0  0  0  0
   -0.4149   27.5665    7.4966 O   0  0  0  0  0  0  0  0  0  0  0  0
    1.2044   29.1196    8.6537 O   0  0  0  0  0  0  0  0  0  0  0  0
   -4.4029   32.3999    9.3064 O   0  0  0  0  0  0  0  0  0  0  0  0
   -4.8260   34.7349    9.9054 C   0  0  0  0  0  0  0  0  0  0  0  0
   -4.4635   33.7453    8.8036 C   0  0  0  0  0  0  0  0  0  0  0  0
   -5.2623   33.9509    7.5192 C   0  0  0  0  0  0  0  0  0  0  0  0
   -6.3517   29.7595    5.5901 C   0  0  0  0  0  0  0  0  0  0  0  0
   -6.0973   28.9209    4.3212 C   0  0  0  0  0  0  0  0  0  0  0  0
   -5.3225   27.6897    4.5696 N   0  0  0  0  0  0  0  0  0  0  0  0
   -4.7110   27.1831    3.3196 C   0  0  0  0  0  0  0  0  0  0  0  0
   -5.5660   26.1845    2.5027 C   0  0  0  0  0  0  0  0  0  0  0  0
   -6.0274   25.0697    3.3382 N   0  0  0  0  0  0  0  0  0  0  0  0
   -5.8385   25.1940    4.7819 C   0  0  0  0  0  0  0  0  0  0  0  0
   -6.1498   26.6436    5.2198 C   0  0  0  0  0  0  0  0  0  0  0  0
   -6.0048   23.8008    2.7935 C   0  0  0  0  0  0  0  0  0  0  0  0
   -6.3860   23.6349    1.5143 N   0  0  0  0  0  0  0  0  0  0  0  0
   -6.3394   22.3909    0.9993 C   0  0  0  0  0  0  0  0  0  0  0  0
   -5.9204   21.2943    1.7052 C   0  0  0  0  0  0  0  0  0  0  0  0
   -5.5395   21.5506    2.9949 C   0  0  0  0  0  0  0  0  0  0  0  0
   -5.5731   22.7764    3.5508 N   0  0  0  0  0  0  0  0  0  0  0  0
 16 17  1  0  0  0
 17 18  1  0  0  0
 17 15  1  0  0  0
 15  5  1  0  0  0
  5  6  1  0  0  0
  6  7  2  0  0  0
  7  8  1  0  0  0
  8 11  1  0  0  0
 11 12  1  0  0  0
 11 13  2  0  0  0
 11 14  2  0  0  0
  8  9  2  0  0  0
  9 10  1  0  0  0
 10  1  1  0  0  0
  1  2  2  0  0  0
  1  3  1  0  0  0
  3 19  1  0  0  0
 19 20  1  0  0  0
 20 21  1  0  0  0
 21 22  1  0  0  0
 22 23  1  0  0  0
 23 24  1  0  0  0
 24 27  1  0  0  0
 27 28  2  0  0  0
 28 29  1  0  0  0
 29 30  2  0  0  0
 30 31  1  0  0  0
 31 32  2  0  0  0
 24 25  1  0  0  0
 25 26  1  0  0  0
 10  5  2  0  0  0
 26 21  1  0  0  0
 32 27  1  0  0  0
  3  4  1  0  0  0
M  END
> <minimizedAffinity>
-9.35453

$$$$
OCNT-2313891


 28 30  0  0  0  0  0  0  0  0999 V2000
   -5.2331   29.4057    7.3225 C   0  0  0  0  0  0  0  0  0  0  0  0
   -6.5454   29.0593    6.9959 C   0  0  0  0  0  0  0  0  0  0  0  0
   -6.7757   28.0572    6.0503 C   0  0  0  0  0  0  0  0  0  0  0  0
   -5.7043   27.4015    5.4277 C   0  0  0  0  0  0  0  0  0  0  0  0
   -4.3964   27.7686    5.7566 C   0  0  0  0  0  0  0  0  0  0  0  0
   -4.1562   28.7732    6.7002 C   0  0  0  0  0  0  0  0  0  0  0  0
   -6.0223   26.4070    4.4903 N   0  0  0  0  0  0  0  0  0  0  0  0
   -5.4282   26.1474    3.2685 C   0  0  0  0  0  0  0  0  0  0  0  0
   -4.4906   26.7570    2.7628 O   0  0  0  0  0  0  0  0  0  0  0  0
   -6.7476   25.7329    4.7296 H   0  0  0  0  0  0  0  0  0  0  0  0
   -6.1190   24.9940    2.5206 C   0  0  0  0  0  0  0  0  0  0  0  0
   -5.4195   24.6877    1.2399 N   0  0  0  0  0  0  0  0  0  0  0  0
   -5.3818   23.2338    1.0040 C   0  0  0  0  0  0  0  0  0  0  0  0
   -6.7303   22.8701    0.4052 C   0  0  0  0  0  0  0  0  0  0  0  0
   -7.2167   24.1458   -0.2659 C   0  0  0  0  0  0  0  0  0  0  0  0
   -6.1799   25.2054    0.0839 C   0  0  0  0  0  0  0  0  0  0  0  0
   -4.9511   30.6908    8.5189 S   0  0  0  0  0  0  0  0  0  0  0  0
   -6.1788   31.4415    8.6703 O   0  0  0  0  0  0  0  0  0  0  0  0
   -4.3091   30.0672    9.6573 O   0  0  0  0  0  0  0  0  0  0  0  0
   -4.3435   32.8874    7.0768 C   0  0  0  0  0  0  0  0  0  0  0  0
   -3.8127   31.6743    7.7283 N   0  0  0  0  0  0  0  0  0  0  0  0
   -2.5367   31.8866    8.4555 C   0  0  0  0  0  0  0  0  0  0  0  0
   -1.4015   30.9526    8.1072 C   0  0  0  0  0  0  0  0  0  0  0  0
   -1.1878   30.5504    6.7814 C   0  0  0  0  0  0  0  0  0  0  0  0
   -0.1433   29.6810    6.4626 C   0  0  0  0  0  0  0  0  0  0  0  0
    0.7014   29.2063    7.4637 C   0  0  0  0  0  0  0  0  0  0  0  0
    0.5027   29.5999    8.7851 C   0  0  0  0  0  0  0  0  0  0  0  0
   -0.5428   30.4677    9.1062 C   0  0  0  0  0  0  0  0  0  0  0  0
 20 21  1  0  0  0
 21 22  1  0  0  0
 22 23  1  0  0  0
 23 24  2  0  0  0
 24 25  1  0  0  0
 25 26  2  0  0  0
 26 27  1  0  0  0
 27 28  2  0  0  0
 21 17  1  0  0  0
 17 18  2  0  0  0
 17 19  2  0  0  0
 17  1  1  0  0  0
  1  2  1  0  0  0
  2  3  2  0  0  0
  3  4  1  0  0  0
  4  7  1  0  0  0
  7  8  1  0  0  0
  8  9  2  0  0  0
  8 11  1  0  0  0
 11 12  1  0  0  0
 12 13  1  0  0  0
 13 14  1  0  0  0
 14 15  1  0  0  0
 15 16  1  0  0  0
  4  5  2  0  0  0
  5  6  1  0  0  0
 28 23  1  0  0  0
  6  1  2  0  0  0
 16 12  1  0  0  0
  7 10  1  0  0  0
M  END
> <minimizedAffinity>
-9.17730

$$$$
OCNT-2313919


 27 28  0  0  0  0  0  0  0  0999 V2000
   -1.0583   26.9217    6.3829 C   0  0  0  0  0  0  0  0  0  0  0  0
   -2.4318   26.9627    5.7931 C   0  0  0  0  0  0  0  0  0  0  0  0
   -3.3901   27.9363    6.0569 C   0  0  0  0  0  0  0  0  0  0  0  0
   -4.8369   27.6319    5.1856 S   0  0  0  0  0  0  0  0  0  0  0  0
   -4.2189   26.2367    4.4619 C   0  0  0  0  0  0  0  0  0  0  0  0
   -2.9283   25.9848    4.8657 C   0  0  0  0  0  0  0  0  0  0  0  0
   -3.2734   29.0957    6.9413 C   0  0  0  0  0  0  0  0  0  0  0  0
   -3.1674   29.0053    8.1632 O   0  0  0  0  0  0  0  0  0  0  0  0
   -3.2740   30.3302    6.3223 N   0  0  0  0  0  0  0  0  0  0  0  0
   -3.1354   30.3280    5.3178 H   0  0  0  0  0  0  0  0  0  0  0  0
   -2.9426   31.5370    7.0564 C   0  0  0  0  0  0  0  0  0  0  0  0
   -4.2030   32.2342    7.5410 C   0  0  0  0  0  0  0  0  0  0  0  0
   -4.2678   33.2195    8.2597 O   0  0  0  0  0  0  0  0  0  0  0  0
   -5.3267   31.6838    7.0367 O   0  0  0  0  0  0  0  0  0  0  0  0
   -6.0479   32.2187    7.4305 H   0  0  0  0  0  0  0  0  0  0  0  0
   -4.9493   25.4635    3.5780 N   0  0  0  0  0  0  0  0  0  0  0  0
   -4.6346   25.1847    2.2622 C   0  0  0  0  0  0  0  0  0  0  0  0
   -3.6679   25.5918    1.6272 O   0  0  0  0  0  0  0  0  0  0  0  0
   -5.7797   25.0339    3.9680 H   0  0  0  0  0  0  0  0  0  0  0  0
   -5.6222   24.3397    1.5241 C   0  0  0  0  0  0  0  0  0  0  0  0
   -6.3439   24.9836    0.4995 C   0  0  0  0  0  0  0  0  0  0  0  0
   -7.2930   24.2885   -0.2511 C   0  0  0  0  0  0  0  0  0  0  0  0
   -7.5186   22.9456    0.0142 C   0  0  0  0  0  0  0  0  0  0  0  0
   -8.4281   22.2750   -0.7034 F   0  0  0  0  0  0  0  0  0  0  0  0
   -6.8109   22.2835    1.0097 C   0  0  0  0  0  0  0  0  0  0  0  0
   -5.8573   22.9759    1.7652 C   0  0  0  0  0  0  0  0  0  0  0  0
   -4.9983   22.0547    2.9493 Cl  0  0  0  0  0  0  0  0  0  0  0  0
  1  2  1  0  0  0
  2  3  2  0  0  0
  3  7  1  0  0  0
  7  8  2  0  0  0
  7  9  1  0  0  0
  9 11  1  0  0  0
 11 12  1  0  0  0
 12 13  2  0  0  0
 12 14  1  0  0  0
  3  4  1  0  0  0
  4  5  1  0  0  0
  5 16  1  0  0  0
 16 17  1  0  0  0
 17 18  2  0  0  0
 17 20  1  0  0  0
 20 21  1  0  0  0
 21 22  2  0  0  0
 22 23  1  0  0  0
 23 24  1  0  0  0
 23 25  2  0  0  0
 25 26  1  0  0  0
 26 27  1  0  0  0
  5  6  2  0  0  0
  6  2  1  0  0  0
 26 20  2  0  0  0
  9 10  1  0  0  0
 14 15  1  0  0  0
 16 19  1  0  0  0
M  END
> <minimizedAffinity>
-8.91169

$$$$
OCNT-2313933


 24 28  0  0  0  0  0  0  0  0999 V2000
   -6.1581   28.5314    7.8790 N   0  0  0  0  0  0  0  0  0  0  0  0
   -5.9581   27.5363    7.8203 H   0  0  0  0  0  0  0  0  0  0  0  0
   -5.0355   29.2701    8.2526 C   0  0  0  0  0  0  0  0  0  0  0  0
   -5.1280   30.2342    9.2094 N   0  0  0  0  0  0  0  0  0  0  0  0
   -4.0182   30.9164    9.5689 C   0  0  0  0  0  0  0  0  0  0  0  0
   -2.7690   30.7840    9.0871 N   0  0  0  0  0  0  0  0  0  0  0  0
   -2.7236   29.8279    8.1403 C   0  0  0  0  0  0  0  0  0  0  0  0
   -3.7711   29.0491    7.6820 C   0  0  0  0  0  0  0  0  0  0  0  0
   -3.3205   28.1874    6.7119 N   0  0  0  0  0  0  0  0  0  0  0  0
   -2.0161   28.3985    6.5512 N   0  0  0  0  0  0  0  0  0  0  0  0
   -1.6626   29.3838    7.3997 N   0  0  0  0  0  0  0  0  0  0  0  0
   -0.2778   29.8816    7.5267 C   0  0  0  0  0  0  0  0  0  0  0  0
    0.8287   29.0545    8.1397 C   0  0  0  0  0  0  0  0  0  0  0  0
    0.8471   29.3493    6.6694 C   0  0  0  0  0  0  0  0  0  0  0  0
   -6.9207   29.0711    6.7697 C   0  0  0  0  0  0  0  0  0  0  0  0
   -6.2378   29.0924    4.3278 C   0  0  0  0  0  0  0  0  0  0  0  0
   -5.8769   28.4510    3.1389 C   0  0  0  0  0  0  0  0  0  0  0  0
   -5.8097   27.0755    3.1498 C   0  0  0  0  0  0  0  0  0  0  0  0
   -6.0873   26.3462    4.2817 C   0  0  0  0  0  0  0  0  0  0  0  0
   -6.4460   26.9499    5.4689 C   0  0  0  0  0  0  0  0  0  0  0  0
   -6.5184   28.3522    5.5015 C   0  0  0  0  0  0  0  0  0  0  0  0
   -5.9673   25.0067    4.0784 O   0  0  0  0  0  0  0  0  0  0  0  0
   -5.5839   24.9775    2.6877 C   0  0  0  0  0  0  0  0  0  0  0  0
   -5.4795   26.2871    2.0922 O   0  0  0  0  0  0  0  0  0  0  0  0
 16 17  2  0  0  0
 17 18  1  0  0  0
 18 19  2  0  0  0
 19 20  1  0  0  0
 20 21  2  0  0  0
 21 15  1  0  0  0
 15  1  1  0  0  0
  1  3  1  0  0  0
  3  4  1  0  0  0
  4  5  2  0  0  0
  5  6  1  0  0  0
  6  7  2  0  0  0
  7  8  1  0  0  0
  8  9  1  0  0  0
  9 10  2  0  0  0
 10 11  1  0  0  0
 11 12  1  0  0  0
 12 13  1  0  0  0
 13 14  1  0  0  0
 19 22  1  0  0  0
 22 23  1  0  0  0
 23 24  1  0  0  0
 21 16  1  0  0  0
  8  3  2  0  0  0
 14 12  1  0  0  0
 24 18  1  0  0  0
 11  7  1  0  0  0
  1  2  1  0  0  0
M  END
> <minimizedAffinity>
-8.82493

$$$$
OCNT-2313944


 35 38  0  0  0  0  0  0  0  0999 V2000
   -4.7455   28.9960    6.9324 C   0  0  0  0  0  0  0  0  0  0  0  0
   -3.2899   28.5808    6.8616 C   0  0  0  0  0  0  0  0  0  0  0  0
   -2.8198   27.5847    6.0181 C   0  0  0  0  0  0  0  0  0  0  0  0
   -1.4719   27.4577    6.1847 N   0  0  0  0  0  0  0  0  0  0  0  0
   -1.0242   28.3603    7.1180 C   0  0  0  0  0  0  0  0  0  0  0  0
    0.2776   28.5798    7.5877 C   0  0  0  0  0  0  0  0  0  0  0  0
    0.4660   29.5750    8.5476 C   0  0  0  0  0  0  0  0  0  0  0  0
   -0.6085   30.3235    9.0145 C   0  0  0  0  0  0  0  0  0  0  0  0
   -1.9032   30.0916    8.5314 C   0  0  0  0  0  0  0  0  0  0  0  0
   -2.1338   29.0872    7.5630 C   0  0  0  0  0  0  0  0  0  0  0  0
   -0.8813   26.8047    5.6879 H   0  0  0  0  0  0  0  0  0  0  0  0
   -4.7400   30.4168    7.5019 C   0  0  0  0  0  0  0  0  0  0  0  0
   -4.2711   31.4995    6.7254 C   0  0  0  0  0  0  0  0  0  0  0  0
   -4.2702   32.8063    7.2205 C   0  0  0  0  0  0  0  0  0  0  0  0
   -4.7399   33.0577    8.5046 C   0  0  0  0  0  0  0  0  0  0  0  0
   -4.7491   34.6671    9.1111 Cl  0  0  0  0  0  0  0  0  0  0  0  0
   -5.2051   32.0152    9.2983 C   0  0  0  0  0  0  0  0  0  0  0  0
   -5.2047   30.7049    8.8044 C   0  0  0  0  0  0  0  0  0  0  0  0
   -5.8168   29.4881    9.8745 Cl  0  0  0  0  0  0  0  0  0  0  0  0
   -5.5461   28.8160    5.6241 C   0  0  0  0  0  0  0  0  0  0  0  0
   -5.6283   23.5854    2.6458 C   0  0  0  0  0  0  0  0  0  0  0  0
   -4.1314   23.2442    2.6963 C   0  0  0  0  0  0  0  0  0  0  0  0
   -6.2912   23.3499    4.0181 C   0  0  0  0  0  0  0  0  0  0  0  0
   -5.9944   24.6221    4.7998 C   0  0  0  0  0  0  0  0  0  0  0  0
   -5.8489   25.6545    3.7881 N   0  0  0  0  0  0  0  0  0  0  0  0
   -5.7823   27.0123    3.9690 C   0  0  0  0  0  0  0  0  0  0  0  0
   -5.7452   27.8037    3.0317 O   0  0  0  0  0  0  0  0  0  0  0  0
   -5.7598   27.4158    5.2769 N   0  0  0  0  0  0  0  0  0  0  0  0
   -5.8614   25.0877    2.4495 C   0  0  0  0  0  0  0  0  0  0  0  0
   -5.4448   26.7325    5.9469 H   0  0  0  0  0  0  0  0  0  0  0  0
   -7.7652   22.8945   -0.4329 C   0  0  0  0  0  0  0  0  0  0  0  0
   -7.1288   23.5085    0.7056 N   0  0  0  0  0  0  0  0  0  0  0  0
   -6.3105   22.7782    1.5419 C   0  0  0  0  0  0  0  0  0  0  0  0
   -6.1185   21.5750    1.3887 O   0  0  0  0  0  0  0  0  0  0  0  0
   -7.1181   24.5204    0.7500 H   0  0  0  0  0  0  0  0  0  0  0  0
 31 32  1  0  0  0
 32 33  1  0  0  0
 33 34  2  0  0  0
 33 21  1  0  0  0
 21 22  1  0  0  0
 21 23  1  0  0  0
 23 24  1  0  0  0
 24 25  1  0  0  0
 25 26  1  0  0  0
 26 27  2  0  0  0
 26 28  1  0  0  0
 28 20  1  0  0  0
 20  1  1  0  0  0
  1 12  1  0  0  0
 12 13  1  0  0  0
 13 14  2  0  0  0
 14 15  1  0  0  0
 15 16  1  0  0  0
 15 17  2  0  0  0
 17 18  1  0  0  0
 18 19  1  0  0  0
  1  2  1  0  0  0
  2  3  2  0  0  0
  3  4  1  0  0  0
  4  5  1  0  0  0
  5  6  2  0  0  0
  6  7  1  0  0  0
  7  8  2  0  0  0
  8  9  1  0  0  0
  9 10  2  0  0  0
 25 29  1  0  0  0
 29 21  1  0  0  0
 18 12  2  0  0  0
 10  2  1  0  0  0
 10  5  1  0  0  0
 32 35  1  0  0  0
 28 30  1  0  0  0
  4 11  1  0  0  0
M  END
> <minimizedAffinity>
-11.34406

$$$$
OCNT-2313982


 26 27  0  0  0  0  0  0  0  0999 V2000
   -1.2199   28.7547    8.3066 C   0  0  0  0  0  0  0  0  0  0  0  0
   -0.3807   28.0886    7.2804 N   0  0  0  0  0  0  0  0  0  0  0  0
    0.5164   29.0345    6.5995 C   0  0  0  0  0  0  0  0  0  0  0  0
   -4.7796   27.5093    5.4162 C   0  0  0  0  0  0  0  0  0  0  0  0
   -3.3291   27.1338    5.3655 C   0  0  0  0  0  0  0  0  0  0  0  0
   -2.5390   27.7637    6.2791 N   0  0  0  0  0  0  0  0  0  0  0  0
   -1.2199   27.4784    6.3177 C   0  0  0  0  0  0  0  0  0  0  0  0
   -0.6388   26.5595    5.4449 C   0  0  0  0  0  0  0  0  0  0  0  0
   -1.4313   25.9127    4.5040 C   0  0  0  0  0  0  0  0  0  0  0  0
   -2.7976   26.2010    4.4739 C   0  0  0  0  0  0  0  0  0  0  0  0
   -3.6252   25.5221    3.4960 N   0  0  0  0  0  0  0  0  0  0  0  0
   -4.2296   24.5047    3.8581 O   0  0  0  0  0  0  0  0  0  0  0  0
   -3.6564   26.0026    2.3462 O   0  0  0  0  0  0  0  0  0  0  0  0
   -0.8447   30.2486    8.3954 C   0  0  0  0  0  0  0  0  0  0  0  0
   -1.9617   31.1440    8.0516 N   0  0  0  0  0  0  0  0  0  0  0  0
   -2.2000   31.3863    6.6322 C   0  0  0  0  0  0  0  0  0  0  0  0
   -2.4368   31.9760    9.0727 C   0  0  0  0  0  0  0  0  0  0  0  0
   -2.1221   31.7947   10.2510 O   0  0  0  0  0  0  0  0  0  0  0  0
   -3.4078   33.0832    8.6774 C   0  0  0  0  0  0  0  0  0  0  0  0
   -4.7871   32.8746    9.2982 C   0  0  0  0  0  0  0  0  0  0  0  0
   -5.4382   31.6241    8.7940 C   0  0  0  0  0  0  0  0  0  0  0  0
   -5.6010   30.4877    9.4470 N   0  0  0  0  0  0  0  0  0  0  0  0
   -6.1842   29.6279    8.5556 C   0  0  0  0  0  0  0  0  0  0  0  0
   -6.4540   30.2711    7.3665 C   0  0  0  0  0  0  0  0  0  0  0  0
   -5.9795   31.5420    7.5360 N   0  0  0  0  0  0  0  0  0  0  0  0
   -5.9854   32.2867    6.8490 H   0  0  0  0  0  0  0  0  0  0  0  0
  4  5  1  0  0  0
  5  6  1  0  0  0
  6  7  2  0  0  0
  7  2  1  0  0  0
  2  3  1  0  0  0
  2  1  1  0  0  0
  1 14  1  0  0  0
 14 15  1  0  0  0
 15 16  1  0  0  0
 15 17  1  0  0  0
 17 18  2  0  0  0
 17 19  1  0  0  0
 19 20  1  0  0  0
 20 21  1  0  0  0
 21 22  2  0  0  0
 22 23  1  0  0  0
 23 24  2  0  0  0
 24 25  1  0  0  0
  7  8  1  0  0  0
  8  9  2  0  0  0
  9 10  1  0  0  0
 10 11  1  0  0  0
 11 12  2  0  0  0
 11 13  1  0  0  0
 10  5  2  0  0  0
 25 21  1  0  0  0
 25 26  1  0  0  0
M  CHG 1  11   1
M  CHG 1  13  -1
M  END
> <minimizedAffinity>
-7.75555

$$$$
OCNT-2313984


 24 26  0  0  0  0  0  0  0  0999 V2000
   -4.8610   31.0762    6.2728 N   0  0  0  0  0  0  0  0  0  0  0  0
   -5.4432   31.5523    5.5806 H   0  0  0  0  0  0  0  0  0  0  0  0
   -5.7760   30.4034    7.2270 C   0  0  0  0  0  0  0  0  0  0  0  0
   -6.3573   31.4102    8.2413 C   0  0  0  0  0  0  0  0  0  0  0  0
   -5.0836   29.2676    8.0075 C   0  0  0  0  0  0  0  0  0  0  0  0
   -6.9375   29.7400    6.4068 C   0  0  0  0  0  0  0  0  0  0  0  0
   -5.4136   25.9619    2.2293 C   0  0  0  0  0  0  0  0  0  0  0  0
   -5.7798   26.9363    3.3088 C   0  0  0  0  0  0  0  0  0  0  0  0
   -5.8783   28.3032    3.0273 C   0  0  0  0  0  0  0  0  0  0  0  0
   -6.2514   29.2081    4.0243 C   0  0  0  0  0  0  0  0  0  0  0  0
   -6.5386   28.7618    5.3202 C   0  0  0  0  0  0  0  0  0  0  0  0
   -6.4606   27.3900    5.5931 C   0  0  0  0  0  0  0  0  0  0  0  0
   -6.0877   26.4854    4.5965 C   0  0  0  0  0  0  0  0  0  0  0  0
   -3.9273   32.0718    6.8233 C   0  0  0  0  0  0  0  0  0  0  0  0
   -2.6934   31.5003    7.5036 C   0  0  0  0  0  0  0  0  0  0  0  0
   -2.4201   31.8362    8.8350 C   0  0  0  0  0  0  0  0  0  0  0  0
   -1.2998   31.3009    9.4743 C   0  0  0  0  0  0  0  0  0  0  0  0
   -0.4913   30.4285    8.7338 C   0  0  0  0  0  0  0  0  0  0  0  0
    0.6968   29.6868    8.9760 C   0  0  0  0  0  0  0  0  0  0  0  0
    1.0034   28.9989    7.8198 C   0  0  0  0  0  0  0  0  0  0  0  0
    0.0422   29.2988    6.8877 N   0  0  0  0  0  0  0  0  0  0  0  0
   -0.8715   30.1640    7.4238 C   0  0  0  0  0  0  0  0  0  0  0  0
   -1.9372   30.6480    6.7621 N   0  0  0  0  0  0  0  0  0  0  0  0
   -0.0090   28.9506    5.9421 H   0  0  0  0  0  0  0  0  0  0  0  0
  7  8  1  0  0  0
  8  9  1  0  0  0
  9 10  2  0  0  0
 10 11  1  0  0  0
 11  6  1  0  0  0
  6  3  1  0  0  0
  3  4  1  0  0  0
  3  5  1  0  0  0
  3  1  1  0  0  0
  1 14  1  0  0  0
 14 15  1  0  0  0
 15 16  1  0  0  0
 16 17  2  0  0  0
 17 18  1  0  0  0
 18 19  1  0  0  0
 19 20  2  0  0  0
 20 21  1  0  0  0
 21 22  1  0  0  0
 22 23  1  0  0  0
 11 12  2  0  0  0
 12 13  1  0  0  0
 13  8  2  0  0  0
 23 15  2  0  0  0
 22 18  2  0  0  0
  1  2  1  0  0  0
 21 24  1  0  0  0
M  END
> <minimizedAffinity>
-9.62471

$$$$
OCNT-2313985


 28 31  0  0  0  0  0  0  0  0999 V2000
   -5.2015   27.2945    3.3744 O   0  0  0  0  0  0  0  0  0  0  0  0
   -5.7753   26.5521    4.1587 C   0  0  0  0  0  0  0  0  0  0  0  0
   -6.2089   26.8669    5.4284 N   0  0  0  0  0  0  0  0  0  0  0  0
   -6.1006   25.2421    3.8546 N   0  0  0  0  0  0  0  0  0  0  0  0
   -6.8584   26.2064    5.8274 H   0  0  0  0  0  0  0  0  0  0  0  0
   -5.9812   24.6211    4.6443 H   0  0  0  0  0  0  0  0  0  0  0  0
   -5.6785   24.6366    2.5858 C   0  0  0  0  0  0  0  0  0  0  0  0
   -5.8969   25.5655    1.3779 C   0  0  0  0  0  0  0  0  0  0  0  0
   -6.3151   24.6398    0.2426 C   0  0  0  0  0  0  0  0  0  0  0  0
   -7.2124   23.6251    0.9353 C   0  0  0  0  0  0  0  0  0  0  0  0
   -6.5426   23.3808    2.2867 C   0  0  0  0  0  0  0  0  0  0  0  0
   -5.5558   22.2140    2.2795 C   0  0  0  0  0  0  0  0  0  0  0  0
   -4.4579   22.6839    3.1223 N   0  0  0  0  0  0  0  0  0  0  0  0
   -4.2449   24.0707    2.6769 C   0  0  0  0  0  0  0  0  0  0  0  0
   -3.6165   22.1297    2.9597 H   0  0  0  0  0  0  0  0  0  0  0  0
   -6.0146   28.0751    6.1291 C   0  0  0  0  0  0  0  0  0  0  0  0
   -7.0121   29.0208    6.3259 C   0  0  0  0  0  0  0  0  0  0  0  0
   -6.7137   30.1803    7.0256 C   0  0  0  0  0  0  0  0  0  0  0  0
   -7.6736   31.0947    7.2241 F   0  0  0  0  0  0  0  0  0  0  0  0
   -5.4368   30.4190    7.5305 C   0  0  0  0  0  0  0  0  0  0  0  0
   -4.3984   29.4989    7.3466 C   0  0  0  0  0  0  0  0  0  0  0  0
   -4.7246   28.3278    6.6344 C   0  0  0  0  0  0  0  0  0  0  0  0
   -3.1265   29.7261    7.8426 N   0  0  0  0  0  0  0  0  0  0  0  0
   -1.9298   29.1246    7.2264 C   0  0  0  0  0  0  0  0  0  0  0  0
   -0.8483   28.8814    8.2945 C   0  0  0  0  0  0  0  0  0  0  0  0
   -0.4304   30.0658    8.9883 O   0  0  0  0  0  0  0  0  0  0  0  0
   -1.4507   31.0710    9.0614 C   0  0  0  0  0  0  0  0  0  0  0  0
   -2.8824   30.5092    9.0665 C   0  0  0  0  0  0  0  0  0  0  0  0
  1  2  2  0  0  0
  2  3  1  0  0  0
  3 16  1  0  0  0
 16 17  1  0  0  0
 17 18  2  0  0  0
 18 19  1  0  0  0
 18 20  1  0  0  0
 20 21  2  0  0  0
 21 23  1  0  0  0
 23 24  1  0  0  0
 24 25  1  0  0  0
 25 26  1  0  0  0
 26 27  1  0  0  0
 27 28  1  0  0  0
 21 22  1  0  0  0
  2  4  1  0  0  0
  7  4  1  0  0  0
  7  8  1  0  0  0
  8  9  1  0  0  0
  9 10  1  0  0  0
 10 11  1  0  0  0
 11 12  1  0  0  0
 12 13  1  0  0  0
 13 14  1  0  0  0
 22 16  2  0  0  0
 11  7  1  0  0  0
 28 23  1  0  0  0
 14  7  1  0  0  0
  3  5  1  0  0  0
  4  6  1  0  0  0
 13 15  1  0  0  0
M  END
> <minimizedAffinity>
-9.30670

$$$$
OCNT-2313994


 23 25  0  0  0  0  0  0  0  0999 V2000
   -4.2382   27.5701    4.7358 N   0  0  0  0  0  0  0  0  0  0  0  0
   -3.3227   26.4363    4.5278 C   0  0  0  0  0  0  0  0  0  0  0  0
   -3.3913   25.9869    3.0681 C   0  0  0  0  0  0  0  0  0  0  0  0
   -4.8282   25.6231    2.6608 C   0  0  0  0  0  0  0  0  0  0  0  0
   -5.7634   26.8040    2.9720 C   0  0  0  0  0  0  0  0  0  0  0  0
   -5.6421   27.2457    4.4313 C   0  0  0  0  0  0  0  0  0  0  0  0
   -2.7669   28.7482    7.8619 C   0  0  0  0  0  0  0  0  0  0  0  0
   -2.8484   28.1824    6.6124 C   0  0  0  0  0  0  0  0  0  0  0  0
   -4.0940   28.1562    6.0163 C   0  0  0  0  0  0  0  0  0  0  0  0
   -5.1702   28.6481    6.6574 N   0  0  0  0  0  0  0  0  0  0  0  0
   -4.9885   29.1940    7.8738 C   0  0  0  0  0  0  0  0  0  0  0  0
   -6.1982   29.7188    8.5806 C   0  0  0  0  0  0  0  0  0  0  0  0
   -3.8146   29.2660    8.5164 N   0  0  0  0  0  0  0  0  0  0  0  0
   -1.5097   28.7701    8.4358 O   0  0  0  0  0  0  0  0  0  0  0  0
    0.6043   29.2764    7.3518 C   0  0  0  0  0  0  0  0  0  0  0  0
   -0.4640   28.2309    7.6252 C   0  0  0  0  0  0  0  0  0  0  0  0
   -4.8721   25.2283    1.1747 C   0  0  0  0  0  0  0  0  0  0  0  0
   -6.0265   24.3515    0.8293 C   0  0  0  0  0  0  0  0  0  0  0  0
   -6.5060   23.2442    1.4961 C   0  0  0  0  0  0  0  0  0  0  0  0
   -7.5783   22.8186    0.7626 N   0  0  0  0  0  0  0  0  0  0  0  0
   -7.7103   23.6638   -0.3010 C   0  0  0  0  0  0  0  0  0  0  0  0
   -6.7893   24.5989   -0.2886 N   0  0  0  0  0  0  0  0  0  0  0  0
   -8.1712   22.0261    0.9664 H   0  0  0  0  0  0  0  0  0  0  0  0
 15 16  1  0  0  0
 16 14  1  0  0  0
 14  7  1  0  0  0
  7  8  2  0  0  0
  8  9  1  0  0  0
  9  1  1  0  0  0
  1  2  1  0  0  0
  2  3  1  0  0  0
  3  4  1  0  0  0
  4 17  1  0  0  0
 17 18  1  0  0  0
 18 19  2  0  0  0
 19 20  1  0  0  0
 20 21  1  0  0  0
 21 22  2  0  0  0
  4  5  1  0  0  0
  5  6  1  0  0  0
  9 10  2  0  0  0
 10 11  1  0  0  0
 11 12  1  0  0  0
 11 13  2  0  0  0
 13  7  1  0  0  0
  6  1  1  0  0  0
 22 18  1  0  0  0
 20 23  1  0  0  0
M  END
> <minimizedAffinity>
-7.81440

$$$$
OCNT-2313997


 27 30  0  0  0  0  0  0  0  0999 V2000
   -5.7965   23.9168    2.0073 C   0  0  0  0  0  0  0  0  0  0  0  0
   -6.8861   24.0195    1.4533 O   0  0  0  0  0  0  0  0  0  0  0  0
   -5.1523   24.9873    2.5862 N   0  0  0  0  0  0  0  0  0  0  0  0
   -3.8285   25.0130    3.1813 C   0  0  0  0  0  0  0  0  0  0  0  0
   -3.5150   26.4955    3.3503 C   0  0  0  0  0  0  0  0  0  0  0  0
   -4.8897   27.1312    3.5809 C   0  0  0  0  0  0  0  0  0  0  0  0
   -5.7819   26.2946    2.6439 C   0  0  0  0  0  0  0  0  0  0  0  0
   -4.2065   20.7602    3.6494 C   0  0  0  0  0  0  0  0  0  0  0  0
   -5.3776   21.5759    3.1517 C   0  0  0  0  0  0  0  0  0  0  0  0
   -5.8313   21.3353    1.7237 C   0  0  0  0  0  0  0  0  0  0  0  0
   -5.0914   22.6054    2.0592 C   0  0  0  0  0  0  0  0  0  0  0  0
   -6.4471   21.8321    4.2101 C   0  0  0  0  0  0  0  0  0  0  0  0
   -6.1209   22.3427    5.4783 C   0  0  0  0  0  0  0  0  0  0  0  0
   -7.0970   22.5532    6.4562 C   0  0  0  0  0  0  0  0  0  0  0  0
   -8.4283   22.2522    6.1891 C   0  0  0  0  0  0  0  0  0  0  0  0
   -8.7810   21.7342    4.9480 C   0  0  0  0  0  0  0  0  0  0  0  0
   -7.7995   21.5228    3.9758 C   0  0  0  0  0  0  0  0  0  0  0  0
   -5.2812   26.9709    4.9922 N   0  0  0  0  0  0  0  0  0  0  0  0
   -5.8877   26.1641    5.1495 H   0  0  0  0  0  0  0  0  0  0  0  0
   -5.5590   28.0772    5.8085 C   0  0  0  0  0  0  0  0  0  0  0  0
   -6.8241   28.6804    5.8385 C   0  0  0  0  0  0  0  0  0  0  0  0
   -7.0345   29.8172    6.6093 C   0  0  0  0  0  0  0  0  0  0  0  0
   -6.0753   30.4155    7.3388 N   0  0  0  0  0  0  0  0  0  0  0  0
   -4.8472   29.8569    7.2796 C   0  0  0  0  0  0  0  0  0  0  0  0
   -4.5395   28.7203    6.5369 C   0  0  0  0  0  0  0  0  0  0  0  0
   -3.1904   28.2502    6.5567 C   0  0  0  0  0  0  0  0  0  0  0  0
   -2.0950   27.8662    6.5589 N   0  0  0  0  0  0  0  0  0  0  0  0
  9  8  1  0  0  0
  9 12  1  0  0  0
 12 13  2  0  0  0
 13 14  1  0  0  0
 14 15  2  0  0  0
 15 16  1  0  0  0
 16 17  2  0  0  0
  9 10  1  0  0  0
 10 11  1  0  0  0
 11  1  1  0  0  0
  1  2  2  0  0  0
  1  3  1  0  0  0
  3  4  1  0  0  0
  4  5  1  0  0  0
  5  6  1  0  0  0
  6 18  1  0  0  0
 18 20  1  0  0  0
 20 21  2  0  0  0
 21 22  1  0  0  0
 22 23  2  0  0  0
 23 24  1  0  0  0
 24 25  2  0  0  0
 25 26  1  0  0  0
 26 27  3  0  0  0
  6  7  1  0  0  0
 11  9  1  0  0  0
  7  3  1  0  0  0
 17 12  1  0  0  0
 25 20  1  0  0  0
 18 19  1  0  0  0
M  END
> <minimizedAffinity>
-8.45668

$$$$
OCNT-2314003


 22 24  0  0  0  0  0  0  0  0999 V2000
   -2.7663   26.0853    3.1905 C   0  0  0  0  0  0  0  0  0  0  0  0
   -3.8681   26.6665    3.9435 N   0  0  0  0  0  0  0  0  0  0  0  0
   -3.7543   27.1963    5.2389 C   0  0  0  0  0  0  0  0  0  0  0  0
   -4.7507   27.6338    5.8215 O   0  0  0  0  0  0  0  0  0  0  0  0
   -2.4393   27.2384    5.9249 C   0  0  0  0  0  0  0  0  0  0  0  0
   -1.5292   26.2391    5.8947 N   0  0  0  0  0  0  0  0  0  0  0  0
   -0.4855   26.7163    6.5983 N   0  0  0  0  0  0  0  0  0  0  0  0
   -0.6687   27.9751    7.0787 C   0  0  0  0  0  0  0  0  0  0  0  0
    0.2137   28.6829    7.8091 N   0  0  0  0  0  0  0  0  0  0  0  0
   -0.2523   29.9169    8.1305 C   0  0  0  0  0  0  0  0  0  0  0  0
   -1.4926   30.4323    7.7689 C   0  0  0  0  0  0  0  0  0  0  0  0
   -1.9944   32.1739    8.2953 Br  0  0  0  0  0  0  0  0  0  0  0  0
   -2.3662   29.6509    7.0129 C   0  0  0  0  0  0  0  0  0  0  0  0
   -1.9296   28.3623    6.6550 C   0  0  0  0  0  0  0  0  0  0  0  0
    0.3379   26.1394    6.7178 H   0  0  0  0  0  0  0  0  0  0  0  0
   -5.1097   26.9039    3.2150 C   0  0  0  0  0  0  0  0  0  0  0  0
   -5.6921   25.6334    2.6461 C   0  0  0  0  0  0  0  0  0  0  0  0
   -5.8318   25.4586    1.2662 C   0  0  0  0  0  0  0  0  0  0  0  0
   -6.3864   24.2768    0.7989 C   0  0  0  0  0  0  0  0  0  0  0  0
   -6.8071   23.2749    1.5992 N   0  0  0  0  0  0  0  0  0  0  0  0
   -6.6691   23.4647    2.9288 C   0  0  0  0  0  0  0  0  0  0  0  0
   -6.1266   24.6085    3.4922 C   0  0  0  0  0  0  0  0  0  0  0  0
  1  2  1  0  0  0
  2 16  1  0  0  0
 16 17  1  0  0  0
 17 18  2  0  0  0
 18 19  1  0  0  0
 19 20  2  0  0  0
 20 21  1  0  0  0
 21 22  2  0  0  0
  2  3  1  0  0  0
  3  4  2  0  0  0
  3  5  1  0  0  0
  5  6  2  0  0  0
  6  7  1  0  0  0
  7  8  1  0  0  0
  8  9  1  0  0  0
  9 10  2  0  0  0
 10 11  1  0  0  0
 11 12  1  0  0  0
 11 13  2  0  0  0
 13 14  1  0  0  0
 22 17  1  0  0  0
 14  5  1  0  0  0
 14  8  2  0  0  0
  7 15  1  0  0  0
M  END
> <minimizedAffinity>
-8.21507

$$$$
OCNT-2314020


 25 27  0  0  0  0  0  0  0  0999 V2000
   -2.8138   30.1264    8.0348 C   0  0  0  0  0  0  0  0  0  0  0  0
   -4.2654   30.5328    7.6932 C   0  0  0  0  0  0  0  0  0  0  0  0
   -4.7022   30.2604    6.2523 C   0  0  0  0  0  0  0  0  0  0  0  0
   -4.7510   28.8504    5.8654 N   0  0  0  0  0  0  0  0  0  0  0  0
   -5.4910   28.5504    4.7161 C   0  0  0  0  0  0  0  0  0  0  0  0
   -6.0212   29.4039    4.0083 O   0  0  0  0  0  0  0  0  0  0  0  0
   -3.7174   27.9594    6.4063 C   0  0  0  0  0  0  0  0  0  0  0  0
   -2.2910   28.5262    6.3039 C   0  0  0  0  0  0  0  0  0  0  0  0
   -2.0878   29.8384    6.8376 O   0  0  0  0  0  0  0  0  0  0  0  0
   -5.6872   27.1336    4.3344 C   0  0  0  0  0  0  0  0  0  0  0  0
   -5.3459   26.7259    3.0440 C   0  0  0  0  0  0  0  0  0  0  0  0
   -5.5461   25.3966    2.6589 C   0  0  0  0  0  0  0  0  0  0  0  0
   -6.1016   24.4667    3.5517 C   0  0  0  0  0  0  0  0  0  0  0  0
   -6.4661   24.8993    4.8366 C   0  0  0  0  0  0  0  0  0  0  0  0
   -6.2672   26.2277    5.2267 C   0  0  0  0  0  0  0  0  0  0  0  0
   -6.3063   23.0885    3.1341 C   0  0  0  0  0  0  0  0  0  0  0  0
   -5.3131   22.2126    2.7465 C   0  0  0  0  0  0  0  0  0  0  0  0
   -5.9343   21.0400    2.4243 N   0  0  0  0  0  0  0  0  0  0  0  0
   -7.2677   21.0857    2.5645 N   0  0  0  0  0  0  0  0  0  0  0  0
   -7.4934   22.3286    2.9979 C   0  0  0  0  0  0  0  0  0  0  0  0
   -5.5144   20.1751    2.0991 H   0  0  0  0  0  0  0  0  0  0  0  0
   -0.5802   30.7136    9.1284 C   0  0  0  0  0  0  0  0  0  0  0  0
   -2.0196   31.1912    8.8612 C   0  0  0  0  0  0  0  0  0  0  0  0
   -1.9444   32.5029    8.0470 C   0  0  0  0  0  0  0  0  0  0  0  0
   -2.7097   31.5136   10.2011 C   0  0  0  0  0  0  0  0  0  0  0  0
 22 23  1  0  0  0
 23 24  1  0  0  0
 23 25  1  0  0  0
 23  1  1  0  0  0
  1  2  1  0  0  0
  2  3  1  0  0  0
  3  4  1  0  0  0
  4  5  1  0  0  0
  5  6  2  0  0  0
  5 10  1  0  0  0
 10 11  1  0  0  0
 11 12  2  0  0  0
 12 13  1  0  0  0
 13 16  1  0  0  0
 16 17  2  0  0  0
 17 18  1  0  0  0
 18 19  1  0  0  0
 19 20  2  0  0  0
 13 14  2  0  0  0
 14 15  1  0  0  0
  4  7  1  0  0  0
  7  8  1  0  0  0
  8  9  1  0  0  0
  9  1  1  0  0  0
 15 10  2  0  0  0
 20 16  1  0  0  0
 18 21  1  0  0  0
M  END
> <minimizedAffinity>
-9.27500

$$$$
OCNT-2314025


 29 32  0  0  0  0  0  0  0  0999 V2000
   -5.5626   29.6191    6.3688 N   0  0  0  0  0  0  0  0  0  0  0  0
   -6.0065   28.2431    6.6562 C   0  0  0  0  0  0  0  0  0  0  0  0
   -6.9052   27.6887    5.5575 C   0  0  0  0  0  0  0  0  0  0  0  0
   -6.2469   27.7493    4.1733 C   0  0  0  0  0  0  0  0  0  0  0  0
   -5.2916   28.9372    4.0112 C   0  0  0  0  0  0  0  0  0  0  0  0
   -5.6513   30.0653    4.9657 C   0  0  0  0  0  0  0  0  0  0  0  0
   -5.7960   31.4275    8.7021 C   0  0  0  0  0  0  0  0  0  0  0  0
   -4.5735   30.9117    8.1318 N   0  0  0  0  0  0  0  0  0  0  0  0
   -3.3047   31.1781    8.5988 C   0  0  0  0  0  0  0  0  0  0  0  0
   -2.8068   32.0231    9.6070 C   0  0  0  0  0  0  0  0  0  0  0  0
   -1.4165   32.0400    9.8035 C   0  0  0  0  0  0  0  0  0  0  0  0
   -0.5658   31.2403    9.0359 C   0  0  0  0  0  0  0  0  0  0  0  0
   -1.0887   30.4023    8.0446 C   0  0  0  0  0  0  0  0  0  0  0  0
   -0.2463   29.6501    7.3175 F   0  0  0  0  0  0  0  0  0  0  0  0
   -2.4781   30.3712    7.8160 C   0  0  0  0  0  0  0  0  0  0  0  0
   -3.2212   29.6538    6.9031 N   0  0  0  0  0  0  0  0  0  0  0  0
   -4.4702   30.0323    7.0731 C   0  0  0  0  0  0  0  0  0  0  0  0
   -5.5597   26.4348    3.8086 C   0  0  0  0  0  0  0  0  0  0  0  0
   -5.7185   25.4267    4.4963 O   0  0  0  0  0  0  0  0  0  0  0  0
   -4.7646   26.4645    2.6866 N   0  0  0  0  0  0  0  0  0  0  0  0
   -4.8437   27.2465    2.0508 H   0  0  0  0  0  0  0  0  0  0  0  0
   -4.2102   25.2515    2.1227 C   0  0  0  0  0  0  0  0  0  0  0  0
   -5.2660   24.5029    1.3420 C   0  0  0  0  0  0  0  0  0  0  0  0
   -5.5055   23.1436    1.6072 C   0  0  0  0  0  0  0  0  0  0  0  0
   -6.5011   22.4543    0.9157 C   0  0  0  0  0  0  0  0  0  0  0  0
   -7.2628   23.1260   -0.0414 C   0  0  0  0  0  0  0  0  0  0  0  0
   -8.2271   22.4699   -0.7006 F   0  0  0  0  0  0  0  0  0  0  0  0
   -7.0440   24.4720   -0.3165 C   0  0  0  0  0  0  0  0  0  0  0  0
   -6.0517   25.1639    0.3796 C   0  0  0  0  0  0  0  0  0  0  0  0
  7  8  1  0  0  0
  8  9  1  0  0  0
  9 10  2  0  0  0
 10 11  1  0  0  0
 11 12  2  0  0  0
 12 13  1  0  0  0
 13 14  1  0  0  0
 13 15  2  0  0  0
 15 16  1  0  0  0
 16 17  2  0  0  0
 17  1  1  0  0  0
  1  2  1  0  0  0
  2  3  1  0  0  0
  3  4  1  0  0  0
  4 18  1  0  0  0
 18 19  2  0  0  0
 18 20  1  0  0  0
 20 22  1  0  0  0
 22 23  1  0  0  0
 23 24  1  0  0  0
 24 25  2  0  0  0
 25 26  1  0  0  0
 26 27  1  0  0  0
 26 28  2  0  0  0
 28 29  1  0  0  0
  4  5  1  0  0  0
  5  6  1  0  0  0
 17  8  1  0  0  0
  6  1  1  0  0  0
 15  9  1  0  0  0
 29 23  2  0  0  0
 20 21  1  0  0  0
M  END
> <minimizedAffinity>
-10.13204

$$$$
OCNT-2314028


 31 35  0  0  0  0  0  0  0  0999 V2000
    0.7190   28.1349    5.0597 O   0  0  0  0  0  0  0  0  0  0  0  0
   -0.3145   28.0817    5.7212 C   0  0  0  0  0  0  0  0  0  0  0  0
   -1.3218   27.1408    5.5151 N   0  0  0  0  0  0  0  0  0  0  0  0
   -0.9964   26.0294    4.6278 C   0  0  0  0  0  0  0  0  0  0  0  0
   -2.2092   25.2866    4.1590 C   0  0  0  0  0  0  0  0  0  0  0  0
   -3.4716   25.5548    4.5342 C   0  0  0  0  0  0  0  0  0  0  0  0
   -3.7569   26.6560    5.5195 C   0  0  0  0  0  0  0  0  0  0  0  0
   -2.5193   27.0023    6.3488 C   0  0  0  0  0  0  0  0  0  0  0  0
   -4.6172   24.8385    4.0665 C   0  0  0  0  0  0  0  0  0  0  0  0
   -5.4355   24.0723    4.8686 C   0  0  0  0  0  0  0  0  0  0  0  0
   -6.4317   23.5535    4.0850 N   0  0  0  0  0  0  0  0  0  0  0  0
   -6.2715   23.9593    2.7796 C   0  0  0  0  0  0  0  0  0  0  0  0
   -7.0405   23.6698    1.6459 C   0  0  0  0  0  0  0  0  0  0  0  0
   -6.6273   24.2256    0.4363 C   0  0  0  0  0  0  0  0  0  0  0  0
   -7.3370   23.9692   -0.6713 F   0  0  0  0  0  0  0  0  0  0  0  0
   -5.5011   25.0318    0.3454 C   0  0  0  0  0  0  0  0  0  0  0  0
   -4.7432   25.3116    1.4882 C   0  0  0  0  0  0  0  0  0  0  0  0
   -5.1341   24.7719    2.7347 C   0  0  0  0  0  0  0  0  0  0  0  0
   -7.1797   22.9578    4.4131 H   0  0  0  0  0  0  0  0  0  0  0  0
   -0.4750   29.0784    6.7855 C   0  0  0  0  0  0  0  0  0  0  0  0
    0.1455   28.9360    8.0208 C   0  0  0  0  0  0  0  0  0  0  0  0
   -0.0427   29.9316    8.9785 C   0  0  0  0  0  0  0  0  0  0  0  0
   -0.8273   31.0474    8.6762 C   0  0  0  0  0  0  0  0  0  0  0  0
   -1.4232   31.1870    7.4726 N   0  0  0  0  0  0  0  0  0  0  0  0
   -1.2230   30.2162    6.5464 C   0  0  0  0  0  0  0  0  0  0  0  0
   -1.0186   32.0052    9.6851 N   0  0  0  0  0  0  0  0  0  0  0  0
   -0.7219   32.9129    9.3418 H   0  0  0  0  0  0  0  0  0  0  0  0
   -2.3725   32.0507   10.2208 C   0  0  0  0  0  0  0  0  0  0  0  0
   -3.2709   32.6404    9.1705 C   0  0  0  0  0  0  0  0  0  0  0  0
   -4.7137   32.2128    9.0659 C   0  0  0  0  0  0  0  0  0  0  0  0
   -4.3746   33.5947    9.5530 C   0  0  0  0  0  0  0  0  0  0  0  0
  1  2  2  0  0  0
  2 20  1  0  0  0
 20 21  2  0  0  0
 21 22  1  0  0  0
 22 23  2  0  0  0
 23 26  1  0  0  0
 26 28  1  0  0  0
 28 29  1  0  0  0
 29 30  1  0  0  0
 30 31  1  0  0  0
 23 24  1  0  0  0
 24 25  2  0  0  0
  2  3  1  0  0  0
  3  4  1  0  0  0
  4  5  1  0  0  0
  5  6  2  0  0  0
  6  9  1  0  0  0
  9 10  2  0  0  0
 10 11  1  0  0  0
 11 12  1  0  0  0
 12 13  2  0  0  0
 13 14  1  0  0  0
 14 15  1  0  0  0
 14 16  2  0  0  0
 16 17  1  0  0  0
 17 18  2  0  0  0
  6  7  1  0  0  0
  7  8  1  0  0  0
 25 20  1  0  0  0
  8  3  1  0  0  0
 31 29  1  0  0  0
 18  9  1  0  0  0
 18 12  1  0  0  0
 26 27  1  0  0  0
 11 19  1  0  0  0
M  END
> <minimizedAffinity>
-10.12330

$$$$
OCNT-2314054


 26 29  0  0  0  0  0  0  0  0999 V2000
   -4.9891   26.8424    4.7543 C   0  0  0  0  0  0  0  0  0  0  0  0
   -5.7420   26.2800    3.7888 C   0  0  0  0  0  0  0  0  0  0  0  0
   -5.0479   25.4355    2.7654 C   0  0  0  0  0  0  0  0  0  0  0  0
   -3.7735   25.1759    2.7612 N   0  0  0  0  0  0  0  0  0  0  0  0
   -3.0274   25.7446    3.7493 C   0  0  0  0  0  0  0  0  0  0  0  0
   -1.7322   25.6418    3.9571 N   0  0  0  0  0  0  0  0  0  0  0  0
   -1.5271   26.4022    5.0609 C   0  0  0  0  0  0  0  0  0  0  0  0
   -2.6035   26.9888    5.5783 N   0  0  0  0  0  0  0  0  0  0  0  0
   -3.5947   26.5703    4.7353 N   0  0  0  0  0  0  0  0  0  0  0  0
   -5.9060   24.8414    1.6988 C   0  0  0  0  0  0  0  0  0  0  0  0
   -6.5628   23.6326    1.9643 C   0  0  0  0  0  0  0  0  0  0  0  0
   -7.3723   23.0434    0.9916 C   0  0  0  0  0  0  0  0  0  0  0  0
   -7.5215   23.6524   -0.2532 C   0  0  0  0  0  0  0  0  0  0  0  0
   -6.8560   24.8461   -0.5309 C   0  0  0  0  0  0  0  0  0  0  0  0
   -6.0451   25.4399    0.4399 C   0  0  0  0  0  0  0  0  0  0  0  0
   -5.5766   27.6351    5.7381 N   0  0  0  0  0  0  0  0  0  0  0  0
   -6.1432   27.1547    6.4390 H   0  0  0  0  0  0  0  0  0  0  0  0
   -7.2047   29.3737    6.3289 C   0  0  0  0  0  0  0  0  0  0  0  0
   -5.8231   29.0768    5.7478 C   0  0  0  0  0  0  0  0  0  0  0  0
   -4.7590   29.7437    6.6261 C   0  0  0  0  0  0  0  0  0  0  0  0
   -4.4186   29.1851    7.8595 C   0  0  0  0  0  0  0  0  0  0  0  0
   -3.4366   29.8020    8.6344 C   0  0  0  0  0  0  0  0  0  0  0  0
   -2.8201   30.9526    8.1597 C   0  0  0  0  0  0  0  0  0  0  0  0
   -1.6073   31.7398    9.0834 Cl  0  0  0  0  0  0  0  0  0  0  0  0
   -3.2073   31.4458    6.9241 C   0  0  0  0  0  0  0  0  0  0  0  0
   -4.1573   30.8718    6.1449 N   0  0  0  0  0  0  0  0  0  0  0  0
 18 19  1  0  0  0
 19 16  1  0  0  0
 16  1  1  0  0  0
  1  2  2  0  0  0
  2  3  1  0  0  0
  3 10  1  0  0  0
 10 11  2  0  0  0
 11 12  1  0  0  0
 12 13  2  0  0  0
 13 14  1  0  0  0
 14 15  2  0  0  0
  3  4  2  0  0  0
  4  5  1  0  0  0
  5  6  2  0  0  0
  6  7  1  0  0  0
  7  8  2  0  0  0
  8  9  1  0  0  0
 19 20  1  0  0  0
 20 21  2  0  0  0
 21 22  1  0  0  0
 22 23  2  0  0  0
 23 24  1  0  0  0
 23 25  1  0  0  0
 25 26  2  0  0  0
  9  1  1  0  0  0
 26 20  1  0  0  0
 15 10  1  0  0  0
  9  5  1  0  0  0
 16 17  1  0  0  0
M  END
> <minimizedAffinity>
-9.84193

$$$$
OCNT-2314062


 29 32  0  0  0  0  0  0  0  0999 V2000
   -1.8002   27.1827    5.7403 C   0  0  0  0  0  0  0  0  0  0  0  0
   -2.9842   27.0187    5.1951 N   0  0  0  0  0  0  0  0  0  0  0  0
   -2.7641   26.0046    4.2852 C   0  0  0  0  0  0  0  0  0  0  0  0
   -1.4943   25.5644    4.2632 N   0  0  0  0  0  0  0  0  0  0  0  0
   -0.8567   26.3414    5.2264 O   0  0  0  0  0  0  0  0  0  0  0  0
   -3.8267   25.4782    3.4329 C   0  0  0  0  0  0  0  0  0  0  0  0
   -4.7219   26.3401    2.7827 C   0  0  0  0  0  0  0  0  0  0  0  0
   -5.7476   25.8542    1.9615 C   0  0  0  0  0  0  0  0  0  0  0  0
   -5.8508   24.4683    1.8097 C   0  0  0  0  0  0  0  0  0  0  0  0
   -6.7435   23.7180    1.0772 N   0  0  0  0  0  0  0  0  0  0  0  0
   -6.4693   22.3837    1.2210 C   0  0  0  0  0  0  0  0  0  0  0  0
   -5.3834   22.2649    2.0579 C   0  0  0  0  0  0  0  0  0  0  0  0
   -4.9830   23.5758    2.4370 C   0  0  0  0  0  0  0  0  0  0  0  0
   -3.9586   24.0882    3.2583 C   0  0  0  0  0  0  0  0  0  0  0  0
   -7.4907   24.1028    0.5160 H   0  0  0  0  0  0  0  0  0  0  0  0
   -1.8121   29.8454    8.4222 C   0  0  0  0  0  0  0  0  0  0  0  0
   -0.4587   29.9015    8.7621 C   0  0  0  0  0  0  0  0  0  0  0  0
    0.4409   29.0573    8.1167 C   0  0  0  0  0  0  0  0  0  0  0  0
   -0.0132   28.1718    7.1343 C   0  0  0  0  0  0  0  0  0  0  0  0
   -1.3708   28.1177    6.7742 C   0  0  0  0  0  0  0  0  0  0  0  0
   -2.2708   28.9713    7.4278 C   0  0  0  0  0  0  0  0  0  0  0  0
   -2.9745   30.9221    9.2276 S   0  0  0  0  0  0  0  0  0  0  0  0
   -2.2455   31.6757   10.2223 O   0  0  0  0  0  0  0  0  0  0  0  0
   -4.1479   30.1463    9.5594 O   0  0  0  0  0  0  0  0  0  0  0  0
   -3.3827   31.9901    8.0148 N   0  0  0  0  0  0  0  0  0  0  0  0
   -2.8495   31.9044    7.1531 H   0  0  0  0  0  0  0  0  0  0  0  0
   -4.7330   32.5206    7.9563 C   0  0  0  0  0  0  0  0  0  0  0  0
   -4.7585   34.9544    9.0521 C   0  0  0  0  0  0  0  0  0  0  0  0
   -4.7462   33.8597    8.5573 C   0  0  0  0  0  0  0  0  0  0  0  0
 28 29  3  0  0  0
 29 27  1  0  0  0
 27 25  1  0  0  0
 25 22  1  0  0  0
 22 23  2  0  0  0
 22 24  2  0  0  0
 22 16  1  0  0  0
 16 17  2  0  0  0
 17 18  1  0  0  0
 18 19  2  0  0  0
 19 20  1  0  0  0
 20  1  1  0  0  0
  1  2  2  0  0  0
  2  3  1  0  0  0
  3  6  1  0  0  0
  6  7  2  0  0  0
  7  8  1  0  0  0
  8  9  2  0  0  0
  9 10  1  0  0  0
 10 11  1  0  0  0
 11 12  2  0  0  0
 12 13  1  0  0  0
 13 14  2  0  0  0
  3  4  2  0  0  0
  4  5  1  0  0  0
 20 21  2  0  0  0
 21 16  1  0  0  0
  5  1  1  0  0  0
 14  6  1  0  0  0
 13  9  1  0  0  0
 25 26  1  0  0  0
 10 15  1  0  0  0
M  END
> <minimizedAffinity>
-9.69646

$$$$
OCNT-2314087


 33 38  0  0  0  0  0  0  0  0999 V2000
   -1.4699   27.5083    6.0770 C   0  0  0  0  0  0  0  0  0  0  0  0
   -0.4641   26.7829    5.5598 N   0  0  0  0  0  0  0  0  0  0  0  0
   -1.0988   25.9117    4.6789 O   0  0  0  0  0  0  0  0  0  0  0  0
   -2.4297   26.1909    4.7496 C   0  0  0  0  0  0  0  0  0  0  0  0
   -2.7121   27.1524    5.5954 N   0  0  0  0  0  0  0  0  0  0  0  0
   -2.1580   30.5053    8.2866 C   0  0  0  0  0  0  0  0  0  0  0  0
   -0.9257   30.6055    8.9491 C   0  0  0  0  0  0  0  0  0  0  0  0
    0.1119   29.7123    8.6792 C   0  0  0  0  0  0  0  0  0  0  0  0
   -0.0683   28.7004    7.7385 C   0  0  0  0  0  0  0  0  0  0  0  0
   -1.2871   28.5715    7.0599 C   0  0  0  0  0  0  0  0  0  0  0  0
   -2.3247   29.4796    7.3424 C   0  0  0  0  0  0  0  0  0  0  0  0
   -4.7444   34.7552    8.5934 C   0  0  0  0  0  0  0  0  0  0  0  0
   -4.3769   33.3356    8.7488 C   0  0  0  0  0  0  0  0  0  0  0  0
   -5.0671   32.3862    9.3376 N   0  0  0  0  0  0  0  0  0  0  0  0
   -4.3456   31.2193    9.2405 N   0  0  0  0  0  0  0  0  0  0  0  0
   -3.2174   31.4675    8.5995 C   0  0  0  0  0  0  0  0  0  0  0  0
   -3.2099   32.8019    8.2746 N   0  0  0  0  0  0  0  0  0  0  0  0
   -2.4874   33.2978    7.7784 H   0  0  0  0  0  0  0  0  0  0  0  0
   -3.3280   25.3732    3.9117 C   0  0  0  0  0  0  0  0  0  0  0  0
   -4.0567   26.1742    2.8475 C   0  0  0  0  0  0  0  0  0  0  0  0
   -5.3154   25.3716    2.6241 C   0  0  0  0  0  0  0  0  0  0  0  0
   -6.0033   25.5006    1.6249 O   0  0  0  0  0  0  0  0  0  0  0  0
   -5.5164   24.5582    3.7495 N   0  0  0  0  0  0  0  0  0  0  0  0
   -4.4594   24.7582    4.7149 C   0  0  0  0  0  0  0  0  0  0  0  0
   -6.6470   23.7324    4.0083 C   0  0  0  0  0  0  0  0  0  0  0  0
   -6.9521   22.6484    3.1503 C   0  0  0  0  0  0  0  0  0  0  0  0
   -8.0534   21.8116    3.3738 C   0  0  0  0  0  0  0  0  0  0  0  0
   -8.8628   22.0691    4.4607 C   0  0  0  0  0  0  0  0  0  0  0  0
  -10.0587   21.3045    4.9308 C   0  0  0  0  0  0  0  0  0  0  0  0
  -10.7030   22.3196    5.8864 C   0  0  0  0  0  0  0  0  0  0  0  0
   -9.5613   23.1766    6.4508 C   0  0  0  0  0  0  0  0  0  0  0  0
   -8.5802   23.1296    5.3207 C   0  0  0  0  0  0  0  0  0  0  0  0
   -7.4843   23.9567    5.1115 C   0  0  0  0  0  0  0  0  0  0  0  0
 12 13  1  0  0  0
 13 14  2  0  0  0
 14 15  1  0  0  0
 15 16  2  0  0  0
 16  6  1  0  0  0
  6  7  2  0  0  0
  7  8  1  0  0  0
  8  9  2  0  0  0
  9 10  1  0  0  0
 10  1  1  0  0  0
  1  2  2  0  0  0
  2  3  1  0  0  0
  3  4  1  0  0  0
  4 19  1  0  0  0
 19 20  1  0  0  0
 20 21  1  0  0  0
 21 22  2  0  0  0
 21 23  1  0  0  0
 23 25  1  0  0  0
 25 26  1  0  0  0
 26 27  2  0  0  0
 27 28  1  0  0  0
 28 29  1  0  0  0
 29 30  1  0  0  0
 30 31  1  0  0  0
 31 32  1  0  0  0
 32 33  1  0  0  0
 23 24  1  0  0  0
  4  5  2  0  0  0
 10 11  2  0  0  0
 16 17  1  0  0  0
 17 13  1  0  0  0
 11  6  1  0  0  0
  5  1  1  0  0  0
 24 19  1  0  0  0
 33 25  2  0  0  0
 32 28  2  0  0  0
 17 18  1  0  0  0
M  END
> <minimizedAffinity>
-11.88411

$$$$
OCNT-2314112


 27 29  0  0  0  0  0  0  0  0999 V2000
   -2.1767   25.7593    4.1252 C   0  0  0  0  0  0  0  0  0  0  0  0
   -2.0959   26.7477    5.2895 C   0  0  0  0  0  0  0  0  0  0  0  0
   -3.1947   27.3145    5.7128 N   0  0  0  0  0  0  0  0  0  0  0  0
   -3.0826   28.1777    6.7683 C   0  0  0  0  0  0  0  0  0  0  0  0
   -4.0008   28.9307    7.4653 C   0  0  0  0  0  0  0  0  0  0  0  0
   -3.2621   29.6118    8.4456 C   0  0  0  0  0  0  0  0  0  0  0  0
   -1.9569   29.3310    8.3974 N   0  0  0  0  0  0  0  0  0  0  0  0
   -1.8519   28.4463    7.3666 N   0  0  0  0  0  0  0  0  0  0  0  0
   -0.6777   27.8426    6.9007 C   0  0  0  0  0  0  0  0  0  0  0  0
    0.5277   28.1399    7.5157 O   0  0  0  0  0  0  0  0  0  0  0  0
   -0.7325   26.9912    5.8695 C   0  0  0  0  0  0  0  0  0  0  0  0
    0.3101   28.7727    8.2344 H   0  0  0  0  0  0  0  0  0  0  0  0
   -5.4018   28.9997    7.2335 C   0  0  0  0  0  0  0  0  0  0  0  0
   -6.5396   29.1050    7.0291 N   0  0  0  0  0  0  0  0  0  0  0  0
   -3.5666   25.2956    3.9918 N   0  0  0  0  0  0  0  0  0  0  0  0
   -3.5694   24.2793    3.9190 H   0  0  0  0  0  0  0  0  0  0  0  0
   -4.2535   25.8832    2.8110 C   0  0  0  0  0  0  0  0  0  0  0  0
   -6.1889   25.6776    4.5121 C   0  0  0  0  0  0  0  0  0  0  0  0
   -5.7086   26.2992    3.1977 C   0  0  0  0  0  0  0  0  0  0  0  0
   -5.9346   27.8145    3.2253 C   0  0  0  0  0  0  0  0  0  0  0  0
   -4.1520   24.8459    1.6529 C   0  0  0  0  0  0  0  0  0  0  0  0
   -5.4457   24.4543    0.9786 C   0  0  0  0  0  0  0  0  0  0  0  0
   -6.0306   25.2765    0.0050 C   0  0  0  0  0  0  0  0  0  0  0  0
   -7.2170   24.8966   -0.6251 C   0  0  0  0  0  0  0  0  0  0  0  0
   -7.8257   23.6870   -0.2977 C   0  0  0  0  0  0  0  0  0  0  0  0
   -7.2458   22.8533    0.6559 C   0  0  0  0  0  0  0  0  0  0  0  0
   -6.0596   23.2317    1.2869 C   0  0  0  0  0  0  0  0  0  0  0  0
 18 19  1  0  0  0
 19 20  1  0  0  0
 19 17  1  0  0  0
 17 21  1  0  0  0
 21 22  1  0  0  0
 22 23  2  0  0  0
 23 24  1  0  0  0
 24 25  2  0  0  0
 25 26  1  0  0  0
 26 27  2  0  0  0
 17 15  1  0  0  0
 15  1  1  0  0  0
  1  2  1  0  0  0
  2  3  2  0  0  0
  3  4  1  0  0  0
  4  5  2  0  0  0
  5 13  1  0  0  0
 13 14  3  0  0  0
  5  6  1  0  0  0
  6  7  2  0  0  0
  7  8  1  0  0  0
  8  9  1  0  0  0
  9 10  1  0  0  0
  9 11  2  0  0  0
 27 22  1  0  0  0
 11  2  1  0  0  0
  8  4  1  0  0  0
 15 16  1  0  0  0
 10 12  1  0  0  0
M  END
> <minimizedAffinity>
-9.21486

$$$$
OCNT-2314118


 28 30  0  0  0  0  0  0  0  0999 V2000
   -5.3597   27.5165    3.8234 C   0  0  0  0  0  0  0  0  0  0  0  0
   -6.1511   26.9367    5.0027 C   0  0  0  0  0  0  0  0  0  0  0  0
   -6.3249   27.9630    6.1193 C   0  0  0  0  0  0  0  0  0  0  0  0
   -6.9901   29.2460    5.6108 C   0  0  0  0  0  0  0  0  0  0  0  0
   -6.2058   29.8343    4.4305 C   0  0  0  0  0  0  0  0  0  0  0  0
   -6.0041   28.8110    3.3152 C   0  0  0  0  0  0  0  0  0  0  0  0
   -3.0087   26.1723    2.9806 O   0  0  0  0  0  0  0  0  0  0  0  0
   -4.0733   25.9137    2.4342 C   0  0  0  0  0  0  0  0  0  0  0  0
   -5.2636   26.5496    2.7387 N   0  0  0  0  0  0  0  0  0  0  0  0
   -6.1228   26.1394    2.3895 H   0  0  0  0  0  0  0  0  0  0  0  0
   -4.2383   24.8736    1.3383 C   0  0  0  0  0  0  0  0  0  0  0  0
   -5.6771   24.3643    1.1664 C   0  0  0  0  0  0  0  0  0  0  0  0
   -5.7504   22.8277    1.1786 C   0  0  0  0  0  0  0  0  0  0  0  0
   -7.1775   22.3330    0.9575 C   0  0  0  0  0  0  0  0  0  0  0  0
   -7.7687   22.8849   -0.3353 C   0  0  0  0  0  0  0  0  0  0  0  0
   -7.6873   24.4054   -0.3888 C   0  0  0  0  0  0  0  0  0  0  0  0
   -6.2672   24.9074   -0.1495 C   0  0  0  0  0  0  0  0  0  0  0  0
   -7.1112   30.2785    6.7268 C   0  0  0  0  0  0  0  0  0  0  0  0
   -8.0143   31.1063    6.7888 O   0  0  0  0  0  0  0  0  0  0  0  0
   -6.1279   30.1766    7.6794 N   0  0  0  0  0  0  0  0  0  0  0  0
   -5.2571   29.7181    7.4444 H   0  0  0  0  0  0  0  0  0  0  0  0
   -6.0379   31.1615    8.7311 C   0  0  0  0  0  0  0  0  0  0  0  0
   -4.5992   31.4187    9.0040 C   0  0  0  0  0  0  0  0  0  0  0  0
   -3.9351   32.6215    9.0932 C   0  0  0  0  0  0  0  0  0  0  0  0
   -2.6286   32.2996    9.3351 N   0  0  0  0  0  0  0  0  0  0  0  0
   -2.5485   30.9398    9.4145 C   0  0  0  0  0  0  0  0  0  0  0  0
   -3.7219   30.3772    9.2362 N   0  0  0  0  0  0  0  0  0  0  0  0
   -1.8612   32.9523    9.4425 H   0  0  0  0  0  0  0  0  0  0  0  0
  7  8  2  0  0  0
  8 11  1  0  0  0
 11 12  1  0  0  0
 12 13  1  0  0  0
 13 14  1  0  0  0
 14 15  1  0  0  0
 15 16  1  0  0  0
 16 17  1  0  0  0
  8  9  1  0  0  0
  9  1  1  0  0  0
  1  2  1  0  0  0
  2  3  1  0  0  0
  3  4  1  0  0  0
  4 18  1  0  0  0
 18 19  2  0  0  0
 18 20  1  0  0  0
 20 22  1  0  0  0
 22 23  1  0  0  0
 23 24  2  0  0  0
 24 25  1  0  0  0
 25 26  1  0  0  0
 26 27  2  0  0  0
  4  5  1  0  0  0
  5  6  1  0  0  0
 17 12  1  0  0  0
  6  1  1  0  0  0
 27 23  1  0  0  0
  9 10  1  0  0  0
 20 21  1  0  0  0
 25 28  1  0  0  0
M  END
> <minimizedAffinity>
-9.63832

$$$$
OCNT-2314120


 23 26  0  0  0  0  0  0  0  0999 V2000
   -2.6855   27.3963    7.2726 N   0  0  0  0  0  0  0  0  0  0  0  0
   -2.7084   26.6652    7.9754 H   0  0  0  0  0  0  0  0  0  0  0  0
   -4.6584   29.2754    8.2389 C   0  0  0  0  0  0  0  0  0  0  0  0
   -3.4043   29.9733    8.7000 C   0  0  0  0  0  0  0  0  0  0  0  0
   -3.5726   31.1412    9.4625 C   0  0  0  0  0  0  0  0  0  0  0  0
   -2.4713   31.8678    9.8837 C   0  0  0  0  0  0  0  0  0  0  0  0
   -1.1946   31.4356    9.5393 C   0  0  0  0  0  0  0  0  0  0  0  0
   -0.9794   30.2839    8.7974 C   0  0  0  0  0  0  0  0  0  0  0  0
    0.2934   29.9869    8.5289 N   0  0  0  0  0  0  0  0  0  0  0  0
    0.5169   28.8845    7.8150 C   0  0  0  0  0  0  0  0  0  0  0  0
   -0.4114   28.0434    7.3679 N   0  0  0  0  0  0  0  0  0  0  0  0
   -1.6949   28.3374    7.6564 C   0  0  0  0  0  0  0  0  0  0  0  0
   -2.0762   29.5063    8.3770 C   0  0  0  0  0  0  0  0  0  0  0  0
   -2.9493   26.8671    5.9857 C   0  0  0  0  0  0  0  0  0  0  0  0
   -1.9495   26.3010    5.1874 C   0  0  0  0  0  0  0  0  0  0  0  0
   -2.2013   25.8463    3.8855 C   0  0  0  0  0  0  0  0  0  0  0  0
   -3.4961   26.0041    3.3860 C   0  0  0  0  0  0  0  0  0  0  0  0
   -4.0278   25.6610    2.1637 N   0  0  0  0  0  0  0  0  0  0  0  0
   -5.3483   26.0213    2.1048 C   0  0  0  0  0  0  0  0  0  0  0  0
   -5.6788   26.6053    3.3065 C   0  0  0  0  0  0  0  0  0  0  0  0
   -4.5165   26.5964    4.1267 C   0  0  0  0  0  0  0  0  0  0  0  0
   -4.2322   27.0449    5.4331 C   0  0  0  0  0  0  0  0  0  0  0  0
   -3.5109   25.2115    1.4208 H   0  0  0  0  0  0  0  0  0  0  0  0
  3  4  1  0  0  0
  4  5  2  0  0  0
  5  6  1  0  0  0
  6  7  2  0  0  0
  7  8  1  0  0  0
  8  9  2  0  0  0
  9 10  1  0  0  0
 10 11  2  0  0  0
 11 12  1  0  0  0
 12  1  1  0  0  0
  1 14  1  0  0  0
 14 15  2  0  0  0
 15 16  1  0  0  0
 16 17  2  0  0  0
 17 18  1  0  0  0
 18 19  1  0  0  0
 19 20  2  0  0  0
 20 21  1  0  0  0
 21 22  2  0  0  0
 12 13  2  0  0  0
 13  4  1  0  0  0
 13  8  1  0  0  0
 22 14  1  0  0  0
 21 17  1  0  0  0
  1  2  1  0  0  0
 18 23  1  0  0  0
M  END
> <minimizedAffinity>
-9.26517

$$$$
OCNT-2314135


 24 26  0  0  0  0  0  0  0  0999 V2000
   -3.5754   26.7464    4.9536 C   0  0  0  0  0  0  0  0  0  0  0  0
   -2.6207   26.2273    4.0698 C   0  0  0  0  0  0  0  0  0  0  0  0
   -2.9419   25.1786    3.2021 C   0  0  0  0  0  0  0  0  0  0  0  0
   -4.2281   24.6271    3.2000 C   0  0  0  0  0  0  0  0  0  0  0  0
   -5.1818   25.1484    4.0822 C   0  0  0  0  0  0  0  0  0  0  0  0
   -4.8576   26.1979    4.9510 C   0  0  0  0  0  0  0  0  0  0  0  0
   -2.4126   27.7248    6.9524 C   0  0  0  0  0  0  0  0  0  0  0  0
   -1.9606   26.6917    7.4328 O   0  0  0  0  0  0  0  0  0  0  0  0
   -3.1648   27.8035    5.7931 N   0  0  0  0  0  0  0  0  0  0  0  0
   -3.4501   28.7247    5.5011 H   0  0  0  0  0  0  0  0  0  0  0  0
    0.2705   29.5142    6.7865 C   0  0  0  0  0  0  0  0  0  0  0  0
   -0.9843   29.8077    7.5289 C   0  0  0  0  0  0  0  0  0  0  0  0
   -1.0895   30.9419    8.2342 N   0  0  0  0  0  0  0  0  0  0  0  0
   -2.3165   30.8829    8.7662 N   0  0  0  0  0  0  0  0  0  0  0  0
   -2.7803   31.9689    9.5943 C   0  0  0  0  0  0  0  0  0  0  0  0
   -3.0048   29.7543    8.4277 C   0  0  0  0  0  0  0  0  0  0  0  0
   -2.1708   29.0151    7.6031 C   0  0  0  0  0  0  0  0  0  0  0  0
   -4.5784   23.4880    2.2704 C   0  0  0  0  0  0  0  0  0  0  0  0
   -5.6278   23.8362    1.2415 C   0  0  0  0  0  0  0  0  0  0  0  0
   -6.6811   22.9593    0.9680 C   0  0  0  0  0  0  0  0  0  0  0  0
   -7.6146   23.3216    0.0085 C   0  0  0  0  0  0  0  0  0  0  0  0
   -7.5725   24.4793   -0.6865 N   0  0  0  0  0  0  0  0  0  0  0  0
   -6.5479   25.3121   -0.4087 C   0  0  0  0  0  0  0  0  0  0  0  0
   -5.5649   25.0389    0.5289 C   0  0  0  0  0  0  0  0  0  0  0  0
 11 12  1  0  0  0
 12 13  2  0  0  0
 13 14  1  0  0  0
 14 15  1  0  0  0
 14 16  1  0  0  0
 16 17  2  0  0  0
 17  7  1  0  0  0
  7  8  2  0  0  0
  7  9  1  0  0  0
  9  1  1  0  0  0
  1  2  1  0  0  0
  2  3  2  0  0  0
  3  4  1  0  0  0
  4 18  1  0  0  0
 18 19  1  0  0  0
 19 20  2  0  0  0
 20 21  1  0  0  0
 21 22  2  0  0  0
 22 23  1  0  0  0
 23 24  2  0  0  0
  4  5  2  0  0  0
  5  6  1  0  0  0
 17 12  1  0  0  0
  6  1  2  0  0  0
 24 19  1  0  0  0
  9 10  1  0  0  0
M  END
> <minimizedAffinity>
-8.78465

$$$$
OCNT-2314136


 23 26  0  0  0  0  0  0  0  0999 V2000
   -4.5225   31.6897    8.4054 C   0  0  0  0  0  0  0  0  0  0  0  0
   -5.5583   31.7532    9.2097 N   0  0  0  0  0  0  0  0  0  0  0  0
   -6.6287   31.1878    8.5526 N   0  0  0  0  0  0  0  0  0  0  0  0
   -6.2151   30.7561    7.3819 C   0  0  0  0  0  0  0  0  0  0  0  0
   -4.8938   31.0804    7.2425 N   0  0  0  0  0  0  0  0  0  0  0  0
   -4.3330   30.9301    6.4198 H   0  0  0  0  0  0  0  0  0  0  0  0
   -0.3917   32.8029    9.3587 F   0  0  0  0  0  0  0  0  0  0  0  0
   -1.1107   31.6702    9.1769 C   0  0  0  0  0  0  0  0  0  0  0  0
   -0.2630   30.6341    9.3535 F   0  0  0  0  0  0  0  0  0  0  0  0
   -1.9645   31.6392    7.8887 C   0  0  0  0  0  0  0  0  0  0  0  0
   -3.1138   32.2387    8.7304 C   0  0  0  0  0  0  0  0  0  0  0  0
   -2.4381   31.6048    9.9662 C   0  0  0  0  0  0  0  0  0  0  0  0
   -6.9399   30.1962    6.3940 N   0  0  0  0  0  0  0  0  0  0  0  0
   -7.9492   30.2496    6.5110 H   0  0  0  0  0  0  0  0  0  0  0  0
   -6.5461   29.2651    5.4121 C   0  0  0  0  0  0  0  0  0  0  0  0
   -6.2389   29.6262    4.0803 C   0  0  0  0  0  0  0  0  0  0  0  0
   -5.9043   28.6622    3.1196 C   0  0  0  0  0  0  0  0  0  0  0  0
   -5.8891   27.3437    3.5128 C   0  0  0  0  0  0  0  0  0  0  0  0
   -5.5935   26.2788    2.7221 O   0  0  0  0  0  0  0  0  0  0  0  0
   -5.7298   25.1942    3.6647 C   0  0  0  0  0  0  0  0  0  0  0  0
   -6.1131   25.6302    4.9869 O   0  0  0  0  0  0  0  0  0  0  0  0
   -6.1835   26.9758    4.8023 C   0  0  0  0  0  0  0  0  0  0  0  0
   -6.5146   27.9055    5.7672 C   0  0  0  0  0  0  0  0  0  0  0  0
  7  8  1  0  0  0
  8  9  1  0  0  0
  8 10  1  0  0  0
 10 11  1  0  0  0
 11  1  1  0  0  0
  1  2  2  0  0  0
  2  3  1  0  0  0
  3  4  2  0  0  0
  4 13  1  0  0  0
 13 15  1  0  0  0
 15 16  1  0  0  0
 16 17  2  0  0  0
 17 18  1  0  0  0
 18 19  1  0  0  0
 19 20  1  0  0  0
 20 21  1  0  0  0
 21 22  1  0  0  0
 22 23  1  0  0  0
  4  5  1  0  0  0
 11 12  1  0  0  0
 12  8  1  0  0  0
  5  1  1  0  0  0
 23 15  2  0  0  0
 22 18  2  0  0  0
 13 14  1  0  0  0
  5  6  1  0  0  0
M  END
> <minimizedAffinity>
-9.09455

$$$$
OCNT-2314144


 27 30  0  0  0  0  0  0  0  0999 V2000
   -5.6150   29.4411    6.7136 C   0  0  0  0  0  0  0  0  0  0  0  0
   -5.1435   28.7432    5.7063 N   0  0  0  0  0  0  0  0  0  0  0  0
   -6.1252   27.7951    5.4944 C   0  0  0  0  0  0  0  0  0  0  0  0
   -7.1619   27.9005    6.3452 N   0  0  0  0  0  0  0  0  0  0  0  0
   -6.8264   28.9865    7.1482 O   0  0  0  0  0  0  0  0  0  0  0  0
   -6.0360   26.7811    4.4465 C   0  0  0  0  0  0  0  0  0  0  0  0
   -5.7655   27.1289    3.1247 C   0  0  0  0  0  0  0  0  0  0  0  0
   -5.6736   26.2206    2.1151 N   0  0  0  0  0  0  0  0  0  0  0  0
   -5.8598   24.9347    2.4814 C   0  0  0  0  0  0  0  0  0  0  0  0
   -6.1318   24.5750    3.7938 C   0  0  0  0  0  0  0  0  0  0  0  0
   -6.2258   25.4798    4.7999 N   0  0  0  0  0  0  0  0  0  0  0  0
   -5.7989   23.9308    1.5406 O   0  0  0  0  0  0  0  0  0  0  0  0
   -7.0818   23.3623    1.2430 C   0  0  0  0  0  0  0  0  0  0  0  0
   -7.3439   23.4793   -0.2480 C   0  0  0  0  0  0  0  0  0  0  0  0
   -8.3508   22.6425   -0.6065 F   0  0  0  0  0  0  0  0  0  0  0  0
   -7.7637   24.7365   -0.5470 F   0  0  0  0  0  0  0  0  0  0  0  0
   -4.1511   30.3425    8.6961 C   0  0  0  0  0  0  0  0  0  0  0  0
   -4.6284   31.7463    9.1690 C   0  0  0  0  0  0  0  0  0  0  0  0
   -5.7943   31.6097    8.1666 C   0  0  0  0  0  0  0  0  0  0  0  0
   -4.8883   30.6539    7.3559 C   0  0  0  0  0  0  0  0  0  0  0  0
    1.4952   29.2194    8.5461 F   0  0  0  0  0  0  0  0  0  0  0  0
    0.1812   29.4756    8.5765 C   0  0  0  0  0  0  0  0  0  0  0  0
   -0.2719   30.6793    9.0915 C   0  0  0  0  0  0  0  0  0  0  0  0
   -1.6447   30.9405    9.1208 C   0  0  0  0  0  0  0  0  0  0  0  0
   -2.5959   30.0148    8.6384 C   0  0  0  0  0  0  0  0  0  0  0  0
   -2.0845   28.8024    8.1276 C   0  0  0  0  0  0  0  0  0  0  0  0
   -0.7128   28.5326    8.0940 C   0  0  0  0  0  0  0  0  0  0  0  0
 21 22  1  0  0  0
 22 23  1  0  0  0
 23 24  2  0  0  0
 24 25  1  0  0  0
 25 17  1  0  0  0
 17 18  1  0  0  0
 18 19  1  0  0  0
 19 20  1  0  0  0
 20  1  1  0  0  0
  1  2  2  0  0  0
  2  3  1  0  0  0
  3  6  1  0  0  0
  6  7  1  0  0  0
  7  8  2  0  0  0
  8  9  1  0  0  0
  9 12  1  0  0  0
 12 13  1  0  0  0
 13 14  1  0  0  0
 14 15  1  0  0  0
 14 16  1  0  0  0
  9 10  2  0  0  0
 10 11  1  0  0  0
  3  4  2  0  0  0
  4  5  1  0  0  0
 25 26  2  0  0  0
 26 27  1  0  0  0
 27 22  2  0  0  0
 20 17  1  0  0  0
  5  1  1  0  0  0
 11  6  2  0  0  0
M  END
> <minimizedAffinity>
-9.84011

$$$$
OCNT-2314158


 22 25  0  0  0  0  0  0  0  0999 V2000
   -5.7624   28.3077    6.2711 C   0  0  0  0  0  0  0  0  0  0  0  0
   -6.8188   28.5845    6.8453 O   0  0  0  0  0  0  0  0  0  0  0  0
   -4.5376   28.7037    6.8354 N   0  0  0  0  0  0  0  0  0  0  0  0
   -3.2191   28.1954    6.5463 C   0  0  0  0  0  0  0  0  0  0  0  0
   -2.9714   26.9774    5.9166 C   0  0  0  0  0  0  0  0  0  0  0  0
   -1.6548   26.6078    5.6718 C   0  0  0  0  0  0  0  0  0  0  0  0
   -0.5792   27.3415    6.0252 N   0  0  0  0  0  0  0  0  0  0  0  0
   -0.8256   28.4899    6.6923 C   0  0  0  0  0  0  0  0  0  0  0  0
   -2.1038   28.9532    6.9933 C   0  0  0  0  0  0  0  0  0  0  0  0
   -2.2653   30.1663    7.7657 N   0  0  0  0  0  0  0  0  0  0  0  0
   -2.8199   31.2123    6.8565 C   0  0  0  0  0  0  0  0  0  0  0  0
   -4.3483   31.1585    7.0243 C   0  0  0  0  0  0  0  0  0  0  0  0
   -4.5798   29.8485    7.7836 C   0  0  0  0  0  0  0  0  0  0  0  0
   -3.3645   29.8560    8.7147 C   0  0  0  0  0  0  0  0  0  0  0  0
   -5.8105   25.9992    3.5950 C   0  0  0  0  0  0  0  0  0  0  0  0
   -5.8759   27.0508    2.8064 N   0  0  0  0  0  0  0  0  0  0  0  0
   -5.8906   28.1210    3.6745 C   0  0  0  0  0  0  0  0  0  0  0  0
   -6.0295   29.4971    3.1519 C   0  0  0  0  0  0  0  0  0  0  0  0
   -5.7811   27.6662    4.9777 C   0  0  0  0  0  0  0  0  0  0  0  0
   -5.7524   26.2936    4.9266 O   0  0  0  0  0  0  0  0  0  0  0  0
   -6.1080   24.3605    1.7576 C   0  0  0  0  0  0  0  0  0  0  0  0
   -5.7951   24.5617    3.2306 C   0  0  0  0  0  0  0  0  0  0  0  0
 21 22  1  0  0  0
 22 15  1  0  0  0
 15 16  2  0  0  0
 16 17  1  0  0  0
 17 18  1  0  0  0
 17 19  2  0  0  0
 19  1  1  0  0  0
  1  2  2  0  0  0
  1  3  1  0  0  0
  3  4  1  0  0  0
  4  5  2  0  0  0
  5  6  1  0  0  0
  6  7  2  0  0  0
  7  8  1  0  0  0
  8  9  2  0  0  0
  9 10  1  0  0  0
 10 11  1  0  0  0
 11 12  1  0  0  0
 12 13  1  0  0  0
 13 14  1  0  0  0
 19 20  1  0  0  0
 20 15  1  0  0  0
 13  3  1  0  0  0
  9  4  1  0  0  0
 14 10  1  0  0  0
M  END
> <minimizedAffinity>
-8.27615

$$$$
OCNT-2314160


 27 28  0  0  0  0  0  0  0  0999 V2000
   -5.6157   28.1858    6.5466 N   0  0  0  0  0  0  0  0  0  0  0  0
   -5.6589   27.6025    7.3868 H   0  0  0  0  0  0  0  0  0  0  0  0
   -5.7981   29.6397    6.7235 C   0  0  0  0  0  0  0  0  0  0  0  0
   -7.2580   29.9806    6.3768 C   0  0  0  0  0  0  0  0  0  0  0  0
   -4.8618   30.4753    5.8450 C   0  0  0  0  0  0  0  0  0  0  0  0
   -5.5763   29.9836    8.2315 C   0  0  0  0  0  0  0  0  0  0  0  0
   -4.1120   32.0156    8.7648 C   0  0  0  0  0  0  0  0  0  0  0  0
   -2.8617   32.5560    9.0842 C   0  0  0  0  0  0  0  0  0  0  0  0
   -1.7459   31.7274    9.2224 C   0  0  0  0  0  0  0  0  0  0  0  0
   -1.8688   30.3540    9.0414 C   0  0  0  0  0  0  0  0  0  0  0  0
   -3.1083   29.8049    8.7196 C   0  0  0  0  0  0  0  0  0  0  0  0
   -4.2421   30.6236    8.5805 C   0  0  0  0  0  0  0  0  0  0  0  0
   -5.1647   34.0045    7.9600 C   0  0  0  0  0  0  0  0  0  0  0  0
   -5.2633   32.7500    8.6259 O   0  0  0  0  0  0  0  0  0  0  0  0
   -5.4597   27.3439    5.1235 S   0  0  0  0  0  0  0  0  0  0  0  0
   -5.7786   28.2290    4.0264 O   0  0  0  0  0  0  0  0  0  0  0  0
   -6.1624   26.0941    5.3174 O   0  0  0  0  0  0  0  0  0  0  0  0
   -3.7510   26.9509    5.0522 C   0  0  0  0  0  0  0  0  0  0  0  0
   -3.2609   26.1838    4.0168 C   0  0  0  0  0  0  0  0  0  0  0  0
   -1.9494   25.8676    3.8888 N   0  0  0  0  0  0  0  0  0  0  0  0
   -1.1007   26.3261    4.8296 C   0  0  0  0  0  0  0  0  0  0  0  0
    0.2321   25.9658    4.6505 N   0  0  0  0  0  0  0  0  0  0  0  0
   -1.5128   27.0875    5.9274 C   0  0  0  0  0  0  0  0  0  0  0  0
   -0.5445   27.5695    6.9649 C   0  0  0  0  0  0  0  0  0  0  0  0
   -2.8715   27.4051    6.0303 C   0  0  0  0  0  0  0  0  0  0  0  0
    0.2772   25.4507    3.7742 H   0  0  0  0  0  0  0  0  0  0  0  0
    0.8374   26.7773    4.6389 H   0  0  0  0  0  0  0  0  0  0  0  0
 13 14  1  0  0  0
 14  7  1  0  0  0
  7  8  2  0  0  0
  8  9  1  0  0  0
  9 10  2  0  0  0
 10 11  1  0  0  0
 11 12  2  0  0  0
 12  6  1  0  0  0
  6  3  1  0  0  0
  3  4  1  0  0  0
  3  5  1  0  0  0
  3  1  1  0  0  0
  1 15  1  0  0  0
 15 16  2  0  0  0
 15 17  2  0  0  0
 15 18  1  0  0  0
 18 19  1  0  0  0
 19 20  2  0  0  0
 20 21  1  0  0  0
 21 22  1  0  0  0
 21 23  2  0  0  0
 23 24  1  0  0  0
 23 25  1  0  0  0
 12  7  1  0  0  0
 25 18  2  0  0  0
  1  2  1  0  0  0
 22 26  1  0  0  0
 22 27  1  0  0  0
M  END
> <minimizedAffinity>
-8.16785

$$$$
OCNT-2314169


 29 33  0  0  0  0  0  0  0  0999 V2000
   -1.9696   26.8212    7.3920 O   0  0  0  0  0  0  0  0  0  0  0  0
   -2.7559   27.6721    6.9827 C   0  0  0  0  0  0  0  0  0  0  0  0
   -3.2971   27.6210    5.6963 N   0  0  0  0  0  0  0  0  0  0  0  0
   -2.7971   26.5788    4.7939 C   0  0  0  0  0  0  0  0  0  0  0  0
   -3.7638   25.3818    4.7064 C   0  0  0  0  0  0  0  0  0  0  0  0
   -5.1643   25.8193    4.4464 N   0  0  0  0  0  0  0  0  0  0  0  0
   -5.3595   27.2721    4.2883 C   0  0  0  0  0  0  0  0  0  0  0  0
   -4.7009   28.0157    5.4703 C   0  0  0  0  0  0  0  0  0  0  0  0
   -3.1802   28.7618    7.8361 C   0  0  0  0  0  0  0  0  0  0  0  0
   -2.6562   30.0206    8.0572 C   0  0  0  0  0  0  0  0  0  0  0  0
   -1.4676   30.8027    7.6247 C   0  0  0  0  0  0  0  0  0  0  0  0
   -1.7275   32.2721    8.0438 C   0  0  0  0  0  0  0  0  0  0  0  0
   -2.9482   32.2316    9.3936 S   0  0  0  0  0  0  0  0  0  0  0  0
   -4.0808   33.0800    9.1025 O   0  0  0  0  0  0  0  0  0  0  0  0
   -2.3020   32.1243   10.6810 O   0  0  0  0  0  0  0  0  0  0  0  0
   -3.4644   30.6468    9.0195 C   0  0  0  0  0  0  0  0  0  0  0  0
   -4.4520   29.7962    9.4226 C   0  0  0  0  0  0  0  0  0  0  0  0
   -4.2420   28.6272    8.7251 N   0  0  0  0  0  0  0  0  0  0  0  0
   -4.7778   27.7738    8.8319 H   0  0  0  0  0  0  0  0  0  0  0  0
   -5.8613   24.9588    3.5739 C   0  0  0  0  0  0  0  0  0  0  0  0
   -5.7600   25.0959    2.1870 C   0  0  0  0  0  0  0  0  0  0  0  0
   -6.4183   24.1937    1.3736 C   0  0  0  0  0  0  0  0  0  0  0  0
   -7.1652   23.1723    1.8313 N   0  0  0  0  0  0  0  0  0  0  0  0
   -7.2870   23.0314    3.1599 C   0  0  0  0  0  0  0  0  0  0  0  0
   -8.0685   21.9868    3.6369 C   0  0  0  0  0  0  0  0  0  0  0  0
   -8.2671   21.7745    5.0027 C   0  0  0  0  0  0  0  0  0  0  0  0
   -7.6781   22.6296    5.9216 C   0  0  0  0  0  0  0  0  0  0  0  0
   -6.8872   23.6840    5.4671 C   0  0  0  0  0  0  0  0  0  0  0  0
   -6.6624   23.8988    4.0858 C   0  0  0  0  0  0  0  0  0  0  0  0
  1  2  2  0  0  0
  2  9  1  0  0  0
  9 10  2  0  0  0
 10 11  1  0  0  0
 11 12  1  0  0  0
 12 13  1  0  0  0
 13 14  2  0  0  0
 13 15  2  0  0  0
 13 16  1  0  0  0
 16 17  2  0  0  0
 17 18  1  0  0  0
  2  3  1  0  0  0
  3  4  1  0  0  0
  4  5  1  0  0  0
  5  6  1  0  0  0
  6 20  1  0  0  0
 20 21  2  0  0  0
 21 22  1  0  0  0
 22 23  2  0  0  0
 23 24  1  0  0  0
 24 25  2  0  0  0
 25 26  1  0  0  0
 26 27  2  0  0  0
 27 28  1  0  0  0
 28 29  2  0  0  0
  6  7  1  0  0  0
  7  8  1  0  0  0
 18  9  1  0  0  0
  8  3  1  0  0  0
 16 10  1  0  0  0
 29 20  1  0  0  0
 29 24  1  0  0  0
 18 19  1  0  0  0
M  END
> <minimizedAffinity>
-10.62970

$$$$
OCNT-2314176


 24 26  0  0  0  0  0  0  0  0999 V2000
   -5.7312   27.2907    3.3208 C   0  0  0  0  0  0  0  0  0  0  0  0
   -6.0195   26.7480    4.5758 C   0  0  0  0  0  0  0  0  0  0  0  0
   -6.4245   27.5629    5.6360 C   0  0  0  0  0  0  0  0  0  0  0  0
   -6.5510   28.9446    5.4543 C   0  0  0  0  0  0  0  0  0  0  0  0
   -6.2640   29.4858    4.1931 C   0  0  0  0  0  0  0  0  0  0  0  0
   -5.8577   28.6652    3.1339 C   0  0  0  0  0  0  0  0  0  0  0  0
   -5.3486   26.3713    2.3874 O   0  0  0  0  0  0  0  0  0  0  0  0
   -5.8674   25.0394    2.4683 C   0  0  0  0  0  0  0  0  0  0  0  0
   -5.2530   23.4671    0.8207 F   0  0  0  0  0  0  0  0  0  0  0  0
   -6.1698   24.4235    1.1097 C   0  0  0  0  0  0  0  0  0  0  0  0
   -6.1212   25.3306    0.1109 F   0  0  0  0  0  0  0  0  0  0  0  0
   -7.3848   23.8338    1.0822 F   0  0  0  0  0  0  0  0  0  0  0  0
   -6.9828   29.8368    6.5910 C   0  0  0  0  0  0  0  0  0  0  0  0
   -5.9591   29.9253    7.6156 N   0  0  0  0  0  0  0  0  0  0  0  0
   -4.8209   30.6773    7.6058 C   0  0  0  0  0  0  0  0  0  0  0  0
   -4.1900   30.3465    8.7877 C   0  0  0  0  0  0  0  0  0  0  0  0
   -4.9606   29.4314    9.4600 N   0  0  0  0  0  0  0  0  0  0  0  0
   -6.0374   29.1764    8.7305 N   0  0  0  0  0  0  0  0  0  0  0  0
   -2.9157   30.8303    9.3711 C   0  0  0  0  0  0  0  0  0  0  0  0
   -1.7863   30.0662    8.8724 N   0  0  0  0  0  0  0  0  0  0  0  0
   -1.8362   28.8513    8.2453 C   0  0  0  0  0  0  0  0  0  0  0  0
   -0.5238   28.5343    7.9839 C   0  0  0  0  0  0  0  0  0  0  0  0
    0.3152   29.5171    8.4439 N   0  0  0  0  0  0  0  0  0  0  0  0
   -0.4717   30.4217    8.9811 C   0  0  0  0  0  0  0  0  0  0  0  0
  9 10  1  0  0  0
 10 11  1  0  0  0
 10 12  1  0  0  0
 10  8  1  0  0  0
  8  7  1  0  0  0
  7  1  1  0  0  0
  1  2  1  0  0  0
  2  3  2  0  0  0
  3  4  1  0  0  0
  4 13  1  0  0  0
 13 14  1  0  0  0
 14 15  1  0  0  0
 15 16  2  0  0  0
 16 19  1  0  0  0
 19 20  1  0  0  0
 20 21  1  0  0  0
 21 22  2  0  0  0
 22 23  1  0  0  0
 23 24  2  0  0  0
 16 17  1  0  0  0
 17 18  2  0  0  0
  4  5  2  0  0  0
  5  6  1  0  0  0
  6  1  2  0  0  0
 18 14  1  0  0  0
 24 20  1  0  0  0
M  END
> <minimizedAffinity>
-8.48636

$$$$
OCNT-2314178


 23 26  0  0  0  0  0  0  0  0999 V2000
   -5.0753   24.8344    2.6134 C   0  0  0  0  0  0  0  0  0  0  0  0
   -3.8978   25.6727    2.1162 C   0  0  0  0  0  0  0  0  0  0  0  0
   -3.3997   26.3777    3.3822 C   0  0  0  0  0  0  0  0  0  0  0  0
   -4.5225   26.3351    4.3370 N   0  0  0  0  0  0  0  0  0  0  0  0
   -5.7026   25.7685    3.6584 C   0  0  0  0  0  0  0  0  0  0  0  0
   -4.7264   27.5087    5.0682 C   0  0  0  0  0  0  0  0  0  0  0  0
   -5.9172   28.1304    4.9722 N   0  0  0  0  0  0  0  0  0  0  0  0
   -6.0748   29.2846    5.6353 C   0  0  0  0  0  0  0  0  0  0  0  0
   -5.1605   29.8947    6.3948 N   0  0  0  0  0  0  0  0  0  0  0  0
   -3.9938   29.2404    6.5126 C   0  0  0  0  0  0  0  0  0  0  0  0
   -3.7277   28.0246    5.8892 C   0  0  0  0  0  0  0  0  0  0  0  0
   -2.3942   27.3825    6.1439 C   0  0  0  0  0  0  0  0  0  0  0  0
   -1.9825   27.4946    7.6165 C   0  0  0  0  0  0  0  0  0  0  0  0
   -2.2631   28.8547    8.2693 C   0  0  0  0  0  0  0  0  0  0  0  0
   -2.9073   29.8766    7.3374 C   0  0  0  0  0  0  0  0  0  0  0  0
   -6.6386   23.0340    1.6223 C   0  0  0  0  0  0  0  0  0  0  0  0
   -7.4787   22.6155    0.5816 C   0  0  0  0  0  0  0  0  0  0  0  0
   -7.6881   23.4247   -0.5362 C   0  0  0  0  0  0  0  0  0  0  0  0
   -7.0628   24.6613   -0.6241 C   0  0  0  0  0  0  0  0  0  0  0  0
   -6.2283   25.0894    0.4071 C   0  0  0  0  0  0  0  0  0  0  0  0
   -6.0013   24.2892    1.5450 C   0  0  0  0  0  0  0  0  0  0  0  0
   -5.5455   21.1625    2.6318 C   0  0  0  0  0  0  0  0  0  0  0  0
   -6.3973   22.2941    2.7481 O   0  0  0  0  0  0  0  0  0  0  0  0
 22 23  1  0  0  0
 23 16  1  0  0  0
 16 17  2  0  0  0
 17 18  1  0  0  0
 18 19  2  0  0  0
 19 20  1  0  0  0
 20 21  2  0  0  0
 21  1  1  0  0  0
  1  2  1  0  0  0
  2  3  1  0  0  0
  3  4  1  0  0  0
  4  6  1  0  0  0
  6  7  1  0  0  0
  7  8  2  0  0  0
  8  9  1  0  0  0
  9 10  2  0  0  0
 10 11  1  0  0  0
 11 12  1  0  0  0
 12 13  1  0  0  0
 13 14  1  0  0  0
 14 15  1  0  0  0
  4  5  1  0  0  0
 21 16  1  0  0  0
  5  1  1  0  0  0
 11  6  2  0  0  0
 15 10  1  0  0  0
M  END
> <minimizedAffinity>
-9.01570

$$$$
OCNT-2314182


 25 27  0  0  0  0  0  0  0  0999 V2000
   -5.8767   25.6416    3.5570 C   0  0  0  0  0  0  0  0  0  0  0  0
   -5.7244   26.7105    2.6598 C   0  0  0  0  0  0  0  0  0  0  0  0
   -5.8185   28.0373    3.0931 C   0  0  0  0  0  0  0  0  0  0  0  0
   -6.0743   28.3283    4.4380 C   0  0  0  0  0  0  0  0  0  0  0  0
   -6.2168   27.2685    5.3420 C   0  0  0  0  0  0  0  0  0  0  0  0
   -6.1225   25.9436    4.9055 C   0  0  0  0  0  0  0  0  0  0  0  0
   -6.0895   22.5616    1.3557 C   0  0  0  0  0  0  0  0  0  0  0  0
   -5.5943   21.5848    2.2208 C   0  0  0  0  0  0  0  0  0  0  0  0
   -5.1920   21.9202    3.5118 C   0  0  0  0  0  0  0  0  0  0  0  0
   -5.2837   23.2426    3.9460 C   0  0  0  0  0  0  0  0  0  0  0  0
   -5.7790   24.2461    3.0982 C   0  0  0  0  0  0  0  0  0  0  0  0
   -6.1800   23.8846    1.7972 C   0  0  0  0  0  0  0  0  0  0  0  0
   -7.2906   22.9358   -0.6622 C   0  0  0  0  0  0  0  0  0  0  0  0
   -6.4459   22.0994    0.1182 O   0  0  0  0  0  0  0  0  0  0  0  0
   -6.1545   29.7536    4.9192 C   0  0  0  0  0  0  0  0  0  0  0  0
   -4.9638   30.1185    5.6441 N   0  0  0  0  0  0  0  0  0  0  0  0
   -4.9560   30.3360    7.0038 C   0  0  0  0  0  0  0  0  0  0  0  0
   -5.9614   30.3754    7.7038 O   0  0  0  0  0  0  0  0  0  0  0  0
   -4.0568   29.9957    5.2045 H   0  0  0  0  0  0  0  0  0  0  0  0
   -3.5908   30.5167    7.5925 C   0  0  0  0  0  0  0  0  0  0  0  0
   -3.4629   30.7746    8.9403 C   0  0  0  0  0  0  0  0  0  0  0  0
   -2.1738   30.9207    9.3853 C   0  0  0  0  0  0  0  0  0  0  0  0
   -1.0965   30.8231    8.5830 N   0  0  0  0  0  0  0  0  0  0  0  0
   -1.3407   30.5678    7.2882 C   0  0  0  0  0  0  0  0  0  0  0  0
   -2.5465   30.4055    6.7317 N   0  0  0  0  0  0  0  0  0  0  0  0
 13 14  1  0  0  0
 14  7  1  0  0  0
  7  8  1  0  0  0
  8  9  2  0  0  0
  9 10  1  0  0  0
 10 11  2  0  0  0
 11  1  1  0  0  0
  1  2  1  0  0  0
  2  3  2  0  0  0
  3  4  1  0  0  0
  4 15  1  0  0  0
 15 16  1  0  0  0
 16 17  1  0  0  0
 17 18  2  0  0  0
 17 20  1  0  0  0
 20 21  1  0  0  0
 21 22  2  0  0  0
 22 23  1  0  0  0
 23 24  2  0  0  0
 24 25  1  0  0  0
  4  5  2  0  0  0
  5  6  1  0  0  0
 11 12  1  0  0  0
 12  7  2  0  0  0
  6  1  2  0  0  0
 25 20  2  0  0  0
 16 19  1  0  0  0
M  END
> <minimizedAffinity>
-9.41255

$$$$
OCNT-2314210


 23 25  0  0  0  0  0  0  0  0999 V2000
   -2.1470   27.3593    7.8750 N   0  0  0  0  0  0  0  0  0  0  0  0
   -2.1428   26.5772    8.5201 H   0  0  0  0  0  0  0  0  0  0  0  0
    0.3905   25.6446    4.1593 C   0  0  0  0  0  0  0  0  0  0  0  0
   -0.9356   26.0838    4.7021 C   0  0  0  0  0  0  0  0  0  0  0  0
   -0.9564   26.4951    5.9920 N   0  0  0  0  0  0  0  0  0  0  0  0
   -2.1150   26.9328    6.5450 C   0  0  0  0  0  0  0  0  0  0  0  0
   -3.2502   26.9514    5.7265 C   0  0  0  0  0  0  0  0  0  0  0  0
   -4.6089   27.3178    5.8226 C   0  0  0  0  0  0  0  0  0  0  0  0
   -5.2861   27.1157    4.6865 N   0  0  0  0  0  0  0  0  0  0  0  0
   -4.3412   26.6286    3.8478 N   0  0  0  0  0  0  0  0  0  0  0  0
   -4.7006   26.2955    2.4926 C   0  0  0  0  0  0  0  0  0  0  0  0
   -3.1052   26.5112    4.4240 C   0  0  0  0  0  0  0  0  0  0  0  0
   -1.9769   26.0650    3.8491 N   0  0  0  0  0  0  0  0  0  0  0  0
   -1.1919   28.4065    8.2066 C   0  0  0  0  0  0  0  0  0  0  0  0
   -1.9419   29.6643    8.5690 C   0  0  0  0  0  0  0  0  0  0  0  0
   -3.3316   29.7481    8.3864 C   0  0  0  0  0  0  0  0  0  0  0  0
   -4.0106   30.9203    8.7126 C   0  0  0  0  0  0  0  0  0  0  0  0
   -5.3383   30.9669    8.5304 F   0  0  0  0  0  0  0  0  0  0  0  0
   -3.3222   32.0223    9.2178 C   0  0  0  0  0  0  0  0  0  0  0  0
   -4.1587   33.4711    9.6218 Cl  0  0  0  0  0  0  0  0  0  0  0  0
   -1.9430   31.9556    9.3988 C   0  0  0  0  0  0  0  0  0  0  0  0
   -1.2677   30.7817    9.0719 C   0  0  0  0  0  0  0  0  0  0  0  0
    0.0595   30.7365    9.2516 F   0  0  0  0  0  0  0  0  0  0  0  0
  3  4  1  0  0  0
  4  5  2  0  0  0
  5  6  1  0  0  0
  6  1  1  0  0  0
  1 14  1  0  0  0
 14 15  1  0  0  0
 15 16  2  0  0  0
 16 17  1  0  0  0
 17 18  1  0  0  0
 17 19  2  0  0  0
 19 20  1  0  0  0
 19 21  1  0  0  0
 21 22  2  0  0  0
 22 23  1  0  0  0
  6  7  2  0  0  0
  7  8  1  0  0  0
  8  9  2  0  0  0
  9 10  1  0  0  0
 10 11  1  0  0  0
 10 12  1  0  0  0
 12 13  2  0  0  0
 13  4  1  0  0  0
 22 15  1  0  0  0
 12  7  1  0  0  0
  1  2  1  0  0  0
M  END
> <minimizedAffinity>
-9.04327

$$$$
OCNT-2314213


 33 35  0  0  0  0  0  0  0  0999 V2000
   -6.0441   27.2896    4.3706 C   0  0  0  0  0  0  0  0  0  0  0  0
   -5.7238   27.5763    3.0314 C   0  0  0  0  0  0  0  0  0  0  0  0
   -5.8725   28.8682    2.5323 C   0  0  0  0  0  0  0  0  0  0  0  0
   -6.3201   29.8838    3.3696 C   0  0  0  0  0  0  0  0  0  0  0  0
   -6.6278   29.6100    4.7042 C   0  0  0  0  0  0  0  0  0  0  0  0
   -6.5202   28.3056    5.2274 C   0  0  0  0  0  0  0  0  0  0  0  0
   -6.8902   25.0599    4.8223 N   0  0  0  0  0  0  0  0  0  0  0  0
   -5.8079   25.9080    4.8716 C   0  0  0  0  0  0  0  0  0  0  0  0
   -4.7058   25.5812    5.2936 O   0  0  0  0  0  0  0  0  0  0  0  0
   -7.7663   25.3759    4.4210 H   0  0  0  0  0  0  0  0  0  0  0  0
   -6.7755   23.6424    5.1160 C   0  0  0  0  0  0  0  0  0  0  0  0
   -5.4076   21.6282    4.4938 C   0  0  0  0  0  0  0  0  0  0  0  0
   -6.1618   22.8426    3.9611 C   0  0  0  0  0  0  0  0  0  0  0  0
   -7.2395   22.3895    2.9949 C   0  0  0  0  0  0  0  0  0  0  0  0
   -7.8172   21.3121    3.0488 O   0  0  0  0  0  0  0  0  0  0  0  0
   -7.4738   23.3688    2.0794 O   0  0  0  0  0  0  0  0  0  0  0  0
   -6.7076   23.4412    0.8495 C   0  0  0  0  0  0  0  0  0  0  0  0
   -5.6780   24.5747    0.9016 C   0  0  0  0  0  0  0  0  0  0  0  0
   -6.0602   22.0914    0.5202 C   0  0  0  0  0  0  0  0  0  0  0  0
   -7.7434   23.7682   -0.2366 C   0  0  0  0  0  0  0  0  0  0  0  0
   -6.8400   28.0269    6.6844 C   0  0  0  0  0  0  0  0  0  0  0  0
   -5.9095   28.6673    7.6052 N   0  0  0  0  0  0  0  0  0  0  0  0
   -4.6371   29.0936    7.3479 C   0  0  0  0  0  0  0  0  0  0  0  0
   -4.2170   29.6302    8.5450 C   0  0  0  0  0  0  0  0  0  0  0  0
   -5.2341   29.5193    9.4616 N   0  0  0  0  0  0  0  0  0  0  0  0
   -6.2694   28.9371    8.8725 N   0  0  0  0  0  0  0  0  0  0  0  0
   -2.9269   30.2291    8.8432 C   0  0  0  0  0  0  0  0  0  0  0  0
   -2.8145   31.4564    9.5155 C   0  0  0  0  0  0  0  0  0  0  0  0
   -1.5599   32.0099    9.7901 C   0  0  0  0  0  0  0  0  0  0  0  0
   -0.4021   31.3432    9.3951 C   0  0  0  0  0  0  0  0  0  0  0  0
   -0.5033   30.1256    8.7270 C   0  0  0  0  0  0  0  0  0  0  0  0
    0.9273   29.3024    8.2390 Cl  0  0  0  0  0  0  0  0  0  0  0  0
   -1.7525   29.5690    8.4506 C   0  0  0  0  0  0  0  0  0  0  0  0
 12 13  1  0  0  0
 13 11  1  0  0  0
 11  7  1  0  0  0
  7  8  1  0  0  0
  8  9  2  0  0  0
  8  1  1  0  0  0
  1  2  2  0  0  0
  2  3  1  0  0  0
  3  4  2  0  0  0
  4  5  1  0  0  0
  5  6  2  0  0  0
  6 21  1  0  0  0
 21 22  1  0  0  0
 22 23  1  0  0  0
 23 24  2  0  0  0
 24 27  1  0  0  0
 27 28  2  0  0  0
 28 29  1  0  0  0
 29 30  2  0  0  0
 30 31  1  0  0  0
 31 32  1  0  0  0
 31 33  2  0  0  0
 24 25  1  0  0  0
 25 26  2  0  0  0
 13 14  1  0  0  0
 14 15  2  0  0  0
 14 16  1  0  0  0
 16 17  1  0  0  0
 17 18  1  0  0  0
 17 19  1  0  0  0
 17 20  1  0  0  0
  6  1  1  0  0  0
 26 22  1  0  0  0
 33 27  1  0  0  0
  7 10  1  0  0  0
M  END
> <minimizedAffinity>
-9.80623

$$$$
OCNT-2314219


 22 24  0  0  0  0  0  0  0  0999 V2000
   -5.9526   28.3578    7.1027 N   0  0  0  0  0  0  0  0  0  0  0  0
   -5.4817   27.5222    7.4405 H   0  0  0  0  0  0  0  0  0  0  0  0
   -5.9644   28.2974    5.7101 C   0  0  0  0  0  0  0  0  0  0  0  0
   -6.0599   29.4975    5.0764 N   0  0  0  0  0  0  0  0  0  0  0  0
   -6.0602   29.5318    3.7259 C   0  0  0  0  0  0  0  0  0  0  0  0
   -5.9830   28.4982    2.8676 N   0  0  0  0  0  0  0  0  0  0  0  0
   -5.8917   27.3349    3.5342 C   0  0  0  0  0  0  0  0  0  0  0  0
   -5.8747   27.1463    4.9057 C   0  0  0  0  0  0  0  0  0  0  0  0
   -5.7743   25.8022    5.1738 N   0  0  0  0  0  0  0  0  0  0  0  0
   -5.7302   25.1485    4.0170 N   0  0  0  0  0  0  0  0  0  0  0  0
   -5.7945   26.0698    3.0330 N   0  0  0  0  0  0  0  0  0  0  0  0
   -5.7606   25.6610    1.6565 C   0  0  0  0  0  0  0  0  0  0  0  0
   -5.5399   29.6010    7.7439 C   0  0  0  0  0  0  0  0  0  0  0  0
   -4.7782   29.3089    9.0421 C   0  0  0  0  0  0  0  0  0  0  0  0
   -2.3651   27.9762    7.7581 C   0  0  0  0  0  0  0  0  0  0  0  0
   -2.2692   29.3220    8.4319 C   0  0  0  0  0  0  0  0  0  0  0  0
   -1.0262   29.9870    8.5144 C   0  0  0  0  0  0  0  0  0  0  0  0
    0.5756   29.2424    7.8019 Br  0  0  0  0  0  0  0  0  0  0  0  0
   -0.9097   31.2326    9.1396 C   0  0  0  0  0  0  0  0  0  0  0  0
   -2.0263   31.8354    9.7051 C   0  0  0  0  0  0  0  0  0  0  0  0
   -3.2570   31.1885    9.6562 C   0  0  0  0  0  0  0  0  0  0  0  0
   -3.3956   29.9302    9.0379 C   0  0  0  0  0  0  0  0  0  0  0  0
 15 16  1  0  0  0
 16 17  2  0  0  0
 17 18  1  0  0  0
 17 19  1  0  0  0
 19 20  2  0  0  0
 20 21  1  0  0  0
 21 22  2  0  0  0
 22 14  1  0  0  0
 14 13  1  0  0  0
 13  1  1  0  0  0
  1  3  1  0  0  0
  3  4  1  0  0  0
  4  5  2  0  0  0
  5  6  1  0  0  0
  6  7  2  0  0  0
  7  8  1  0  0  0
  8  9  1  0  0  0
  9 10  2  0  0  0
 10 11  1  0  0  0
 11 12  1  0  0  0
 22 16  1  0  0  0
  8  3  2  0  0  0
 11  7  1  0  0  0
  1  2  1  0  0  0
M  END
> <minimizedAffinity>
-8.48614

$$$$
OCNT-2314223


 23 25  0  0  0  0  0  0  0  0999 V2000
   -6.8260   28.8740    7.1168 C   0  0  0  0  0  0  0  0  0  0  0  0
   -5.9374   28.1715    6.2210 N   0  0  0  0  0  0  0  0  0  0  0  0
   -6.4821   27.1774    5.4841 N   0  0  0  0  0  0  0  0  0  0  0  0
   -5.5421   26.8337    4.5940 C   0  0  0  0  0  0  0  0  0  0  0  0
   -4.3797   27.6215    4.7924 C   0  0  0  0  0  0  0  0  0  0  0  0
   -4.6330   28.4415    5.8743 C   0  0  0  0  0  0  0  0  0  0  0  0
   -5.7804   25.7838    3.5971 C   0  0  0  0  0  0  0  0  0  0  0  0
   -6.1915   24.5013    3.9698 C   0  0  0  0  0  0  0  0  0  0  0  0
   -6.3988   23.5546    2.9779 C   0  0  0  0  0  0  0  0  0  0  0  0
   -6.2277   23.7927    1.6618 N   0  0  0  0  0  0  0  0  0  0  0  0
   -5.8307   25.0359    1.3201 C   0  0  0  0  0  0  0  0  0  0  0  0
   -5.5979   26.0480    2.2357 C   0  0  0  0  0  0  0  0  0  0  0  0
   -3.7316   29.3465    6.4141 N   0  0  0  0  0  0  0  0  0  0  0  0
   -2.6881   29.0438    7.2710 C   0  0  0  0  0  0  0  0  0  0  0  0
   -2.3678   27.9269    7.6562 O   0  0  0  0  0  0  0  0  0  0  0  0
   -3.7228   30.2652    5.9847 H   0  0  0  0  0  0  0  0  0  0  0  0
   -1.9076   30.2897    7.6805 C   0  0  0  0  0  0  0  0  0  0  0  0
   -2.5815   31.5840    7.1786 C   0  0  0  0  0  0  0  0  0  0  0  0
   -2.8481   32.4286    8.4214 C   0  0  0  0  0  0  0  0  0  0  0  0
   -1.7957   31.9495    9.3926 C   0  0  0  0  0  0  0  0  0  0  0  0
   -0.5909   32.4705    9.0620 F   0  0  0  0  0  0  0  0  0  0  0  0
   -2.0682   32.3047   10.6581 F   0  0  0  0  0  0  0  0  0  0  0  0
   -1.7805   30.4522    9.2016 C   0  0  0  0  0  0  0  0  0  0  0  0
  1  2  1  0  0  0
  2  3  1  0  0  0
  3  4  2  0  0  0
  4  7  1  0  0  0
  7  8  2  0  0  0
  8  9  1  0  0  0
  9 10  2  0  0  0
 10 11  1  0  0  0
 11 12  2  0  0  0
  4  5  1  0  0  0
  5  6  2  0  0  0
  6 13  1  0  0  0
 13 14  1  0  0  0
 14 15  2  0  0  0
 14 17  1  0  0  0
 17 18  1  0  0  0
 18 19  1  0  0  0
 19 20  1  0  0  0
 20 21  1  0  0  0
 20 22  1  0  0  0
 20 23  1  0  0  0
  6  2  1  0  0  0
 23 17  1  0  0  0
 12  7  1  0  0  0
 13 16  1  0  0  0
M  END
> <minimizedAffinity>
-8.61731

$$$$
OCNT-2314226


 28 30  0  0  0  0  0  0  0  0999 V2000
   -3.1839   27.1274    6.1134 N   0  0  0  0  0  0  0  0  0  0  0  0
   -2.9605   26.4311    4.9476 C   0  0  0  0  0  0  0  0  0  0  0  0
   -1.9402   26.4550    4.2711 O   0  0  0  0  0  0  0  0  0  0  0  0
   -4.1394   27.1243    6.4490 H   0  0  0  0  0  0  0  0  0  0  0  0
   -2.1836   29.9620    8.3017 C   0  0  0  0  0  0  0  0  0  0  0  0
   -0.8124   29.7325    8.4572 C   0  0  0  0  0  0  0  0  0  0  0  0
   -0.1943   28.6444    7.8378 C   0  0  0  0  0  0  0  0  0  0  0  0
   -0.9232   27.7578    7.0441 C   0  0  0  0  0  0  0  0  0  0  0  0
   -0.1756   26.7437    6.5221 O   0  0  0  0  0  0  0  0  0  0  0  0
   -2.2957   27.9438    6.8590 C   0  0  0  0  0  0  0  0  0  0  0  0
   -2.9006   29.0479    7.4974 C   0  0  0  0  0  0  0  0  0  0  0  0
   -0.7175   26.2545    5.8684 H   0  0  0  0  0  0  0  0  0  0  0  0
   -3.1879   32.3245    8.0014 C   0  0  0  0  0  0  0  0  0  0  0  0
   -2.9080   31.1477    8.9637 C   0  0  0  0  0  0  0  0  0  0  0  0
   -4.2702   30.6791    9.5191 C   0  0  0  0  0  0  0  0  0  0  0  0
   -2.0495   31.7011   10.1219 C   0  0  0  0  0  0  0  0  0  0  0  0
   -4.1098   25.6124    4.4830 C   0  0  0  0  0  0  0  0  0  0  0  0
   -5.3110   25.6759    5.1936 C   0  0  0  0  0  0  0  0  0  0  0  0
   -6.3964   24.9013    4.7885 C   0  0  0  0  0  0  0  0  0  0  0  0
   -6.2891   24.0790    3.6650 C   0  0  0  0  0  0  0  0  0  0  0  0
   -5.1008   24.0339    2.9191 C   0  0  0  0  0  0  0  0  0  0  0  0
   -4.0061   24.8059    3.3401 C   0  0  0  0  0  0  0  0  0  0  0  0
   -5.0042   23.1508    1.6986 C   0  0  0  0  0  0  0  0  0  0  0  0
   -6.0906   23.4096    0.7738 N   0  0  0  0  0  0  0  0  0  0  0  0
   -7.0377   22.5332    0.3419 C   0  0  0  0  0  0  0  0  0  0  0  0
   -7.8483   23.1394   -0.4941 N   0  0  0  0  0  0  0  0  0  0  0  0
   -7.3323   24.4036   -0.5587 C   0  0  0  0  0  0  0  0  0  0  0  0
   -6.2477   24.6154    0.1922 N   0  0  0  0  0  0  0  0  0  0  0  0
 13 14  1  0  0  0
 14 15  1  0  0  0
 14 16  1  0  0  0
 14  5  1  0  0  0
  5  6  1  0  0  0
  6  7  2  0  0  0
  7  8  1  0  0  0
  8  9  1  0  0  0
  8 10  2  0  0  0
 10  1  1  0  0  0
  1  2  1  0  0  0
  2  3  2  0  0  0
  2 17  1  0  0  0
 17 18  1  0  0  0
 18 19  2  0  0  0
 19 20  1  0  0  0
 20 21  2  0  0  0
 21 23  1  0  0  0
 23 24  1  0  0  0
 24 25  1  0  0  0
 25 26  2  0  0  0
 26 27  1  0  0  0
 27 28  2  0  0  0
 21 22  1  0  0  0
 10 11  1  0  0  0
 11  5  2  0  0  0
 22 17  2  0  0  0
 28 24  1  0  0  0
  9 12  1  0  0  0
  1  4  1  0  0  0
M  END
> <minimizedAffinity>
-9.82286

$$$$
OCNT-2314233


 26 28  0  0  0  0  0  0  0  0999 V2000
   -2.5016   28.6207    6.8670 C   0  0  0  0  0  0  0  0  0  0  0  0
   -3.9929   28.2235    6.7173 C   0  0  0  0  0  0  0  0  0  0  0  0
   -4.2025   27.2464    5.6406 N   0  0  0  0  0  0  0  0  0  0  0  0
   -5.4896   27.0876    5.1406 C   0  0  0  0  0  0  0  0  0  0  0  0
   -6.4720   27.6589    5.6075 O   0  0  0  0  0  0  0  0  0  0  0  0
   -3.0708   26.3618    5.3449 C   0  0  0  0  0  0  0  0  0  0  0  0
   -2.1242   26.2087    6.5489 C   0  0  0  0  0  0  0  0  0  0  0  0
   -1.5972   27.4624    7.1020 N   0  0  0  0  0  0  0  0  0  0  0  0
   -0.6932   27.6884    6.6897 H   0  0  0  0  0  0  0  0  0  0  0  0
   -1.0699   30.2501    8.2075 C   0  0  0  0  0  0  0  0  0  0  0  0
   -0.9443   31.2504    9.1789 C   0  0  0  0  0  0  0  0  0  0  0  0
   -2.0659   31.7135    9.8701 C   0  0  0  0  0  0  0  0  0  0  0  0
   -3.3215   31.1839    9.5958 C   0  0  0  0  0  0  0  0  0  0  0  0
   -3.4568   30.1839    8.6346 C   0  0  0  0  0  0  0  0  0  0  0  0
   -2.3367   29.6907    7.9383 C   0  0  0  0  0  0  0  0  0  0  0  0
    1.0889   29.2319    8.1892 C   0  0  0  0  0  0  0  0  0  0  0  0
   -0.0250   29.7502    7.4729 O   0  0  0  0  0  0  0  0  0  0  0  0
   -5.7018   26.1869    3.9846 C   0  0  0  0  0  0  0  0  0  0  0  0
   -6.1180   24.8745    4.2219 C   0  0  0  0  0  0  0  0  0  0  0  0
   -6.3448   24.0127    3.1472 C   0  0  0  0  0  0  0  0  0  0  0  0
   -6.1759   24.4619    1.8293 C   0  0  0  0  0  0  0  0  0  0  0  0
   -5.7770   25.7873    1.6015 C   0  0  0  0  0  0  0  0  0  0  0  0
   -5.5497   26.6515    2.6747 C   0  0  0  0  0  0  0  0  0  0  0  0
   -6.4075   23.5259    0.6709 C   0  0  0  0  0  0  0  0  0  0  0  0
   -7.0772   24.2218   -0.5022 C   0  0  0  0  0  0  0  0  0  0  0  0
   -8.4250   24.1941   -0.3161 F   0  0  0  0  0  0  0  0  0  0  0  0
 16 17  1  0  0  0
 17 10  1  0  0  0
 10 11  2  0  0  0
 11 12  1  0  0  0
 12 13  2  0  0  0
 13 14  1  0  0  0
 14 15  2  0  0  0
 15  1  1  0  0  0
  1  2  1  0  0  0
  2  3  1  0  0  0
  3  4  1  0  0  0
  4  5  2  0  0  0
  4 18  1  0  0  0
 18 19  1  0  0  0
 19 20  2  0  0  0
 20 21  1  0  0  0
 21 24  1  0  0  0
 24 25  1  0  0  0
 25 26  1  0  0  0
 21 22  2  0  0  0
 22 23  1  0  0  0
  3  6  1  0  0  0
  6  7  1  0  0  0
  7  8  1  0  0  0
 15 10  1  0  0  0
  8  1  1  0  0  0
 23 18  2  0  0  0
  8  9  1  0  0  0
M  END
> <minimizedAffinity>
-9.78174

$$$$
OCNT-2314235


 28 31  0  0  0  0  0  0  0  0999 V2000
   -5.2422   25.5224    2.8136 N   0  0  0  0  0  0  0  0  0  0  0  0
   -5.7663   26.8891    2.9277 C   0  0  0  0  0  0  0  0  0  0  0  0
   -5.4596   27.4261    4.3298 C   0  0  0  0  0  0  0  0  0  0  0  0
   -4.0335   27.1756    4.7814 C   0  0  0  0  0  0  0  0  0  0  0  0
   -3.5042   27.8124    5.9286 C   0  0  0  0  0  0  0  0  0  0  0  0
   -2.1855   27.5236    6.3275 C   0  0  0  0  0  0  0  0  0  0  0  0
   -1.4043   26.6169    5.6159 C   0  0  0  0  0  0  0  0  0  0  0  0
   -1.9326   25.9726    4.5010 C   0  0  0  0  0  0  0  0  0  0  0  0
   -3.2500   26.2265    4.0845 C   0  0  0  0  0  0  0  0  0  0  0  0
   -3.7745   25.5047    2.8513 C   0  0  0  0  0  0  0  0  0  0  0  0
   -5.5508   22.3485    2.3202 C   0  0  0  0  0  0  0  0  0  0  0  0
   -5.9685   21.2407    1.6000 C   0  0  0  0  0  0  0  0  0  0  0  0
   -6.5112   21.6750    0.4198 N   0  0  0  0  0  0  0  0  0  0  0  0
   -6.4481   23.0379    0.3543 C   0  0  0  0  0  0  0  0  0  0  0  0
   -6.8761   23.7602   -0.6904 N   0  0  0  0  0  0  0  0  0  0  0  0
   -6.6732   25.0699   -0.4879 C   0  0  0  0  0  0  0  0  0  0  0  0
   -6.1457   25.6731    0.5950 N   0  0  0  0  0  0  0  0  0  0  0  0
   -5.7503   24.9109    1.6508 C   0  0  0  0  0  0  0  0  0  0  0  0
   -5.8793   23.5077    1.5302 C   0  0  0  0  0  0  0  0  0  0  0  0
   -6.8917   21.0958   -0.3140 H   0  0  0  0  0  0  0  0  0  0  0  0
   -5.8275   22.5835    4.8031 C   0  0  0  0  0  0  0  0  0  0  0  0
   -4.8706   22.3134    3.6525 C   0  0  0  0  0  0  0  0  0  0  0  0
   -4.3095   28.7960    6.7525 C   0  0  0  0  0  0  0  0  0  0  0  0
   -3.8650   30.2363    6.5911 C   0  0  0  0  0  0  0  0  0  0  0  0
   -4.2868   30.8730    5.4572 N   0  0  0  0  0  0  0  0  0  0  0  0
   -3.1324   30.8097    7.3918 O   0  0  0  0  0  0  0  0  0  0  0  0
   -4.0714   31.8622    5.4201 H   0  0  0  0  0  0  0  0  0  0  0  0
   -5.1518   30.5841    5.0179 H   0  0  0  0  0  0  0  0  0  0  0  0
 21 22  1  0  0  0
 22 11  1  0  0  0
 11 12  2  0  0  0
 12 13  1  0  0  0
 13 14  1  0  0  0
 14 15  2  0  0  0
 15 16  1  0  0  0
 16 17  2  0  0  0
 17 18  1  0  0  0
 18  1  1  0  0  0
  1  2  1  0  0  0
  2  3  1  0  0  0
  3  4  1  0  0  0
  4  5  2  0  0  0
  5 23  1  0  0  0
 23 24  1  0  0  0
 24 25  1  0  0  0
 24 26  2  0  0  0
  5  6  1  0  0  0
  6  7  2  0  0  0
  7  8  1  0  0  0
  8  9  2  0  0  0
  9 10  1  0  0  0
 18 19  2  0  0  0
 19 11  1  0  0  0
 19 14  1  0  0  0
 10  1  1  0  0  0
  9  4  1  0  0  0
 13 20  1  0  0  0
 25 27  1  0  0  0
 25 28  1  0  0  0
M  END
> <minimizedAffinity>
-9.15270

$$$$
OCNT-2314237


 23 26  0  0  0  0  0  0  0  0999 V2000
   -4.8934   26.8342    4.5524 N   0  0  0  0  0  0  0  0  0  0  0  0
   -5.2528   25.4763    4.9364 C   0  0  0  0  0  0  0  0  0  0  0  0
   -4.6581   24.4653    3.9461 C   0  0  0  0  0  0  0  0  0  0  0  0
   -4.6265   24.9743    2.4890 C   0  0  0  0  0  0  0  0  0  0  0  0
   -5.6875   26.0628    2.2971 C   0  0  0  0  0  0  0  0  0  0  0  0
   -5.4713   27.2364    3.2649 C   0  0  0  0  0  0  0  0  0  0  0  0
   -5.0872   27.8391    5.6129 C   0  0  0  0  0  0  0  0  0  0  0  0
    0.4899   28.9712    7.8274 C   0  0  0  0  0  0  0  0  0  0  0  0
   -0.0715   29.8841    8.7144 C   0  0  0  0  0  0  0  0  0  0  0  0
   -1.4504   30.1176    8.7259 C   0  0  0  0  0  0  0  0  0  0  0  0
   -2.2530   29.4067    7.8179 C   0  0  0  0  0  0  0  0  0  0  0  0
   -3.9576   29.4712    7.5941 S   0  0  0  0  0  0  0  0  0  0  0  0
   -3.8411   28.3067    6.3316 C   0  0  0  0  0  0  0  0  0  0  0  0
   -2.6250   27.8619    6.0872 N   0  0  0  0  0  0  0  0  0  0  0  0
   -1.7119   28.4865    6.9191 C   0  0  0  0  0  0  0  0  0  0  0  0
   -0.3192   28.2686    6.9283 C   0  0  0  0  0  0  0  0  0  0  0  0
   -4.8155   23.8390    1.4695 C   0  0  0  0  0  0  0  0  0  0  0  0
   -5.7100   22.7521    1.9591 C   0  0  0  0  0  0  0  0  0  0  0  0
   -5.3799   21.5024    2.4395 C   0  0  0  0  0  0  0  0  0  0  0  0
   -6.5723   20.9100    2.7496 N   0  0  0  0  0  0  0  0  0  0  0  0
   -7.5631   21.8024    2.4588 C   0  0  0  0  0  0  0  0  0  0  0  0
   -7.0748   22.9240    1.9834 N   0  0  0  0  0  0  0  0  0  0  0  0
   -6.7038   19.9819    3.1266 H   0  0  0  0  0  0  0  0  0  0  0  0
  8  9  2  0  0  0
  9 10  1  0  0  0
 10 11  2  0  0  0
 11 12  1  0  0  0
 12 13  1  0  0  0
 13  7  1  0  0  0
  7  1  1  0  0  0
  1  2  1  0  0  0
  2  3  1  0  0  0
  3  4  1  0  0  0
  4 17  1  0  0  0
 17 18  1  0  0  0
 18 19  2  0  0  0
 19 20  1  0  0  0
 20 21  1  0  0  0
 21 22  2  0  0  0
  4  5  1  0  0  0
  5  6  1  0  0  0
 13 14  2  0  0  0
 14 15  1  0  0  0
 15 16  2  0  0  0
 16  8  1  0  0  0
 15 11  1  0  0  0
  6  1  1  0  0  0
 22 18  1  0  0  0
 20 23  1  0  0  0
M  END
> <minimizedAffinity>
-8.37690

$$$$
OCNT-2314242


 25 28  0  0  0  0  0  0  0  0999 V2000
   -3.8657   25.6773    3.8257 C   0  0  0  0  0  0  0  0  0  0  0  0
   -4.3807   26.4607    4.8659 C   0  0  0  0  0  0  0  0  0  0  0  0
   -3.5248   27.0228    5.8161 C   0  0  0  0  0  0  0  0  0  0  0  0
   -2.1463   26.8314    5.7047 C   0  0  0  0  0  0  0  0  0  0  0  0
   -1.6213   26.0602    4.6686 C   0  0  0  0  0  0  0  0  0  0  0  0
   -2.4794   25.4983    3.7208 C   0  0  0  0  0  0  0  0  0  0  0  0
   -5.4034   23.8736    2.9100 N   0  0  0  0  0  0  0  0  0  0  0  0
   -6.1690   23.7256    1.7638 C   0  0  0  0  0  0  0  0  0  0  0  0
   -7.0524   22.7333    1.3126 C   0  0  0  0  0  0  0  0  0  0  0  0
   -7.6539   22.9254    0.0627 C   0  0  0  0  0  0  0  0  0  0  0  0
   -7.3850   24.0596   -0.7027 C   0  0  0  0  0  0  0  0  0  0  0  0
   -6.5043   25.0407   -0.2354 C   0  0  0  0  0  0  0  0  0  0  0  0
   -5.8952   24.8647    1.0161 C   0  0  0  0  0  0  0  0  0  0  0  0
   -5.0194   25.6819    1.6722 N   0  0  0  0  0  0  0  0  0  0  0  0
   -4.7512   25.0934    2.8229 C   0  0  0  0  0  0  0  0  0  0  0  0
   -4.9452   21.4949    3.4499 C   0  0  0  0  0  0  0  0  0  0  0  0
   -5.3389   22.8746    3.9752 C   0  0  0  0  0  0  0  0  0  0  0  0
   -6.5756   22.8103    4.8733 C   0  0  0  0  0  0  0  0  0  0  0  0
   -1.2772   27.3158    6.6511 O   0  0  0  0  0  0  0  0  0  0  0  0
   -1.5628   28.5636    7.1904 C   0  0  0  0  0  0  0  0  0  0  0  0
   -1.1204   29.6718    6.4800 C   0  0  0  0  0  0  0  0  0  0  0  0
   -1.3526   30.9450    6.8869 N   0  0  0  0  0  0  0  0  0  0  0  0
   -2.0586   31.0569    8.0353 C   0  0  0  0  0  0  0  0  0  0  0  0
   -2.5081   29.9525    8.7420 C   0  0  0  0  0  0  0  0  0  0  0  0
   -2.2727   28.6839    8.3372 N   0  0  0  0  0  0  0  0  0  0  0  0
 16 17  1  0  0  0
 17 18  1  0  0  0
 17  7  1  0  0  0
  7  8  1  0  0  0
  8  9  2  0  0  0
  9 10  1  0  0  0
 10 11  2  0  0  0
 11 12  1  0  0  0
 12 13  2  0  0  0
 13 14  1  0  0  0
 14 15  2  0  0  0
 15  1  1  0  0  0
  1  2  1  0  0  0
  2  3  2  0  0  0
  3  4  1  0  0  0
  4 19  1  0  0  0
 19 20  1  0  0  0
 20 21  2  0  0  0
 21 22  1  0  0  0
 22 23  2  0  0  0
 23 24  1  0  0  0
 24 25  2  0  0  0
  4  5  2  0  0  0
  5  6  1  0  0  0
 15  7  1  0  0  0
  6  1  2  0  0  0
 13  8  1  0  0  0
 25 20  1  0  0  0
M  END
> <minimizedAffinity>
-9.11809

$$$$
OCNT-2314243


 26 29  0  0  0  0  0  0  0  0999 V2000
   -3.8219   28.5530    6.8650 N   0  0  0  0  0  0  0  0  0  0  0  0
   -2.7287   27.7272    6.2971 C   0  0  0  0  0  0  0  0  0  0  0  0
   -3.1733   26.7832    5.2239 C   0  0  0  0  0  0  0  0  0  0  0  0
   -4.4409   26.5254    4.7123 C   0  0  0  0  0  0  0  0  0  0  0  0
   -5.7249   27.0458    5.2742 C   0  0  0  0  0  0  0  0  0  0  0  0
   -5.8249   28.5956    5.3172 C   0  0  0  0  0  0  0  0  0  0  0  0
   -6.1908   29.1595    3.9306 C   0  0  0  0  0  0  0  0  0  0  0  0
   -6.9769   28.9515    6.2846 C   0  0  0  0  0  0  0  0  0  0  0  0
   -4.5136   29.2971    5.7878 C   0  0  0  0  0  0  0  0  0  0  0  0
   -4.2800   25.5803    3.6976 N   0  0  0  0  0  0  0  0  0  0  0  0
   -2.9901   25.1399    3.6594 N   0  0  0  0  0  0  0  0  0  0  0  0
   -2.3337   25.8998    4.5259 C   0  0  0  0  0  0  0  0  0  0  0  0
   -5.2013   25.0371    2.7498 C   0  0  0  0  0  0  0  0  0  0  0  0
   -5.9952   23.9399    3.1312 C   0  0  0  0  0  0  0  0  0  0  0  0
   -6.9069   23.3715    2.2381 C   0  0  0  0  0  0  0  0  0  0  0  0
   -7.0252   23.8793    0.9482 C   0  0  0  0  0  0  0  0  0  0  0  0
   -6.2231   24.9455    0.5488 C   0  0  0  0  0  0  0  0  0  0  0  0
   -5.3100   25.5176    1.4422 C   0  0  0  0  0  0  0  0  0  0  0  0
   -3.2180   29.4877    7.8418 C   0  0  0  0  0  0  0  0  0  0  0  0
   -5.1756   34.0365    7.9593 C   0  0  0  0  0  0  0  0  0  0  0  0
   -4.9565   32.5955    8.1904 C   0  0  0  0  0  0  0  0  0  0  0  0
   -5.7839   31.8460    8.9284 N   0  0  0  0  0  0  0  0  0  0  0  0
   -5.1994   30.6403    8.8432 N   0  0  0  0  0  0  0  0  0  0  0  0
   -4.0668   30.6875    8.0833 C   0  0  0  0  0  0  0  0  0  0  0  0
   -3.8904   31.9198    7.6540 N   0  0  0  0  0  0  0  0  0  0  0  0
   -5.6234   29.8351    9.2896 H   0  0  0  0  0  0  0  0  0  0  0  0
 20 21  1  0  0  0
 21 22  2  0  0  0
 22 23  1  0  0  0
 23 24  1  0  0  0
 24 19  1  0  0  0
 19  1  1  0  0  0
  1  2  1  0  0  0
  2  3  1  0  0  0
  3  4  2  0  0  0
  4  5  1  0  0  0
  5  6  1  0  0  0
  6  7  1  0  0  0
  6  8  1  0  0  0
  6  9  1  0  0  0
  4 10  1  0  0  0
 10 13  1  0  0  0
 13 14  2  0  0  0
 14 15  1  0  0  0
 15 16  2  0  0  0
 16 17  1  0  0  0
 17 18  2  0  0  0
 10 11  1  0  0  0
 11 12  2  0  0  0
 24 25  2  0  0  0
 25 21  1  0  0  0
  9  1  1  0  0  0
 18 13  1  0  0  0
 12  3  1  0  0  0
 23 26  1  0  0  0
M  END
> <minimizedAffinity>
-9.32453

$$$$
OCNT-2314254


 25 28  0  0  0  0  0  0  0  0999 V2000
   -6.8980   29.6276    5.8109 O   0  0  0  0  0  0  0  0  0  0  0  0
   -6.1204   28.6878    5.9505 C   0  0  0  0  0  0  0  0  0  0  0  0
   -5.2778   28.5816    7.0273 N   0  0  0  0  0  0  0  0  0  0  0  0
   -4.8096   27.7028    7.2066 H   0  0  0  0  0  0  0  0  0  0  0  0
   -6.0435   27.6043    4.9970 C   0  0  0  0  0  0  0  0  0  0  0  0
   -5.8381   27.5747    3.6275 C   0  0  0  0  0  0  0  0  0  0  0  0
   -5.8557   26.2175    3.1987 C   0  0  0  0  0  0  0  0  0  0  0  0
   -5.7034   25.5819    1.9516 C   0  0  0  0  0  0  0  0  0  0  0  0
   -5.7792   24.1858    1.8815 C   0  0  0  0  0  0  0  0  0  0  0  0
   -6.0036   23.4277    3.0290 C   0  0  0  0  0  0  0  0  0  0  0  0
   -6.1590   24.0379    4.2774 C   0  0  0  0  0  0  0  0  0  0  0  0
   -6.0796   25.4342    4.3281 C   0  0  0  0  0  0  0  0  0  0  0  0
   -6.1941   26.2927    5.3941 N   0  0  0  0  0  0  0  0  0  0  0  0
   -6.3653   26.0176    6.3525 H   0  0  0  0  0  0  0  0  0  0  0  0
   -5.3585   29.4929    8.1509 C   0  0  0  0  0  0  0  0  0  0  0  0
   -4.0204   29.5659    8.9064 C   0  0  0  0  0  0  0  0  0  0  0  0
   -3.3742   30.8979    8.8338 N   0  0  0  0  0  0  0  0  0  0  0  0
   -3.2564   31.4242    7.4501 C   0  0  0  0  0  0  0  0  0  0  0  0
   -2.3492   30.6060    6.5028 C   0  0  0  0  0  0  0  0  0  0  0  0
   -1.1330   30.1573    7.2465 C   0  0  0  0  0  0  0  0  0  0  0  0
   -0.9949   30.2513    8.6181 C   0  0  0  0  0  0  0  0  0  0  0  0
    0.2569   29.7082    9.0422 C   0  0  0  0  0  0  0  0  0  0  0  0
    1.0014   29.2284    7.9852 C   0  0  0  0  0  0  0  0  0  0  0  0
    0.1986   29.4306    6.4861 S   0  0  0  0  0  0  0  0  0  0  0  0
   -2.0441   30.8795    9.4929 C   0  0  0  0  0  0  0  0  0  0  0  0
  1  2  2  0  0  0
  2  3  1  0  0  0
  3 15  1  0  0  0
 15 16  1  0  0  0
 16 17  1  0  0  0
 17 18  1  0  0  0
 18 19  1  0  0  0
 19 20  1  0  0  0
 20 21  2  0  0  0
 21 22  1  0  0  0
 22 23  2  0  0  0
 23 24  1  0  0  0
 21 25  1  0  0  0
  2  5  1  0  0  0
  5  6  2  0  0  0
  6  7  1  0  0  0
  7  8  2  0  0  0
  8  9  1  0  0  0
  9 10  2  0  0  0
 10 11  1  0  0  0
 11 12  2  0  0  0
 12 13  1  0  0  0
 25 17  1  0  0  0
 13  5  1  0  0  0
 24 20  1  0  0  0
 12  7  1  0  0  0
  3  4  1  0  0  0
 13 14  1  0  0  0
M  END
> <minimizedAffinity>
-9.16252

$$$$
OCNT-2314255


 27 30  0  0  0  0  0  0  0  0999 V2000
   -1.4481   27.3216    5.2131 O   0  0  0  0  0  0  0  0  0  0  0  0
   -2.4496   26.8214    5.7074 C   0  0  0  0  0  0  0  0  0  0  0  0
   -2.7594   26.8771    7.0362 N   0  0  0  0  0  0  0  0  0  0  0  0
   -3.3908   26.1186    4.9988 N   0  0  0  0  0  0  0  0  0  0  0  0
   -3.7417   26.8808    7.2803 H   0  0  0  0  0  0  0  0  0  0  0  0
   -3.9964   25.5399    5.5637 H   0  0  0  0  0  0  0  0  0  0  0  0
   -3.2502   25.8732    3.5573 C   0  0  0  0  0  0  0  0  0  0  0  0
   -3.6167   24.4405    3.1033 C   0  0  0  0  0  0  0  0  0  0  0  0
   -4.2687   25.0810    1.8456 C   0  0  0  0  0  0  0  0  0  0  0  0
   -4.4444   26.3644    2.7062 C   0  0  0  0  0  0  0  0  0  0  0  0
   -5.5567   24.4055    1.2092 C   0  0  0  0  0  0  0  0  0  0  0  0
   -6.1517   24.8683    0.0170 C   0  0  0  0  0  0  0  0  0  0  0  0
   -7.2858   24.2640   -0.5360 C   0  0  0  0  0  0  0  0  0  0  0  0
   -7.8648   23.1669    0.0927 C   0  0  0  0  0  0  0  0  0  0  0  0
   -7.3050   22.6836    1.2690 C   0  0  0  0  0  0  0  0  0  0  0  0
   -8.0111   21.3259    2.0566 Cl  0  0  0  0  0  0  0  0  0  0  0  0
   -6.1724   23.2915    1.8169 C   0  0  0  0  0  0  0  0  0  0  0  0
   -1.9501   27.6769    7.9258 C   0  0  0  0  0  0  0  0  0  0  0  0
   -2.6332   28.9874    8.1244 C   0  0  0  0  0  0  0  0  0  0  0  0
   -3.9136   29.3627    7.7722 C   0  0  0  0  0  0  0  0  0  0  0  0
   -4.0294   30.6562    8.1851 N   0  0  0  0  0  0  0  0  0  0  0  0
   -5.2070   31.4949    8.0941 C   0  0  0  0  0  0  0  0  0  0  0  0
   -4.8884   32.9724    8.3251 C   0  0  0  0  0  0  0  0  0  0  0  0
   -3.9546   33.1455    9.5250 C   0  0  0  0  0  0  0  0  0  0  0  0
   -2.6317   32.4093    9.2991 C   0  0  0  0  0  0  0  0  0  0  0  0
   -2.8471   31.0327    8.7696 C   0  0  0  0  0  0  0  0  0  0  0  0
   -1.9805   30.0422    8.7450 N   0  0  0  0  0  0  0  0  0  0  0  0
  1  2  2  0  0  0
  2  3  1  0  0  0
  3 18  1  0  0  0
 18 19  1  0  0  0
 19 20  2  0  0  0
 20 21  1  0  0  0
 21 22  1  0  0  0
 22 23  1  0  0  0
 23 24  1  0  0  0
 24 25  1  0  0  0
 25 26  1  0  0  0
 26 27  2  0  0  0
  2  4  1  0  0  0
  4  7  1  0  0  0
  7  8  1  0  0  0
  8  9  1  0  0  0
  9 11  1  0  0  0
 11 12  2  0  0  0
 12 13  1  0  0  0
 13 14  2  0  0  0
 14 15  1  0  0  0
 15 16  1  0  0  0
 15 17  2  0  0  0
  9 10  1  0  0  0
 27 19  1  0  0  0
 10  7  1  0  0  0
 26 21  1  0  0  0
 17 11  1  0  0  0
  3  5  1  0  0  0
  4  6  1  0  0  0
M  END
> <minimizedAffinity>
-9.79352

$$$$
OCNT-2314261


 23 25  0  0  0  0  0  0  0  0999 V2000
   -3.1247   27.2703    6.0991 C   0  0  0  0  0  0  0  0  0  0  0  0
   -1.9990   26.2437    6.3365 C   0  0  0  0  0  0  0  0  0  0  0  0
   -0.8925   26.1619    5.2903 C   0  0  0  0  0  0  0  0  0  0  0  0
   -1.4110   26.1663    3.8626 C   0  0  0  0  0  0  0  0  0  0  0  0
   -2.6120   25.4023    3.7814 O   0  0  0  0  0  0  0  0  0  0  0  0
   -3.7338   26.1927    3.8143 C   0  0  0  0  0  0  0  0  0  0  0  0
   -4.6561   26.0361    2.7646 C   0  0  0  0  0  0  0  0  0  0  0  0
   -4.3422   24.8158    1.3413 Br  0  0  0  0  0  0  0  0  0  0  0  0
   -5.8289   26.7906    2.7274 C   0  0  0  0  0  0  0  0  0  0  0  0
   -6.0975   27.6969    3.7466 C   0  0  0  0  0  0  0  0  0  0  0  0
   -5.1983   27.8381    4.8039 C   0  0  0  0  0  0  0  0  0  0  0  0
   -4.0012   27.0896    4.8660 C   0  0  0  0  0  0  0  0  0  0  0  0
   -2.7276   28.6695    6.3552 N   0  0  0  0  0  0  0  0  0  0  0  0
   -3.1105   29.2619    5.6164 H   0  0  0  0  0  0  0  0  0  0  0  0
   -3.1423   29.2315    7.6553 C   0  0  0  0  0  0  0  0  0  0  0  0
   -3.0951   31.3730    6.5168 O   0  0  0  0  0  0  0  0  0  0  0  0
   -3.1501   30.7653    7.5813 C   0  0  0  0  0  0  0  0  0  0  0  0
   -3.2632   31.3719    8.8121 N   0  0  0  0  0  0  0  0  0  0  0  0
   -3.1329   30.7548    9.6082 H   0  0  0  0  0  0  0  0  0  0  0  0
   -3.1653   32.7964    8.9935 C   0  0  0  0  0  0  0  0  0  0  0  0
   -4.5401   33.3756    9.0953 C   0  0  0  0  0  0  0  0  0  0  0  0
   -5.1400   34.1497    7.9480 C   0  0  0  0  0  0  0  0  0  0  0  0
   -4.7359   34.8659    9.2074 C   0  0  0  0  0  0  0  0  0  0  0  0
 16 17  2  0  0  0
 17 15  1  0  0  0
 15 13  1  0  0  0
 13  1  1  0  0  0
  1  2  1  0  0  0
  2  3  1  0  0  0
  3  4  1  0  0  0
  4  5  1  0  0  0
  5  6  1  0  0  0
  6  7  2  0  0  0
  7  8  1  0  0  0
  7  9  1  0  0  0
  9 10  2  0  0  0
 10 11  1  0  0  0
 11 12  2  0  0  0
 17 18  1  0  0  0
 18 20  1  0  0  0
 20 21  1  0  0  0
 21 22  1  0  0  0
 22 23  1  0  0  0
 12  1  1  0  0  0
 23 21  1  0  0  0
 12  6  1  0  0  0
 13 14  1  0  0  0
 18 19  1  0  0  0
M  END
> <minimizedAffinity>
-8.23493

$$$$
OCNT-2314262


 25 28  0  0  0  0  0  0  0  0999 V2000
   -5.7333   24.4508    4.2489 N   0  0  0  0  0  0  0  0  0  0  0  0
   -4.8863   23.9879    3.2357 C   0  0  0  0  0  0  0  0  0  0  0  0
   -3.7277   24.3811    3.1171 O   0  0  0  0  0  0  0  0  0  0  0  0
   -5.4104   22.9928    2.3041 C   0  0  0  0  0  0  0  0  0  0  0  0
   -5.9904   23.2355    1.0631 C   0  0  0  0  0  0  0  0  0  0  0  0
   -6.2443   24.5024    0.3284 C   0  0  0  0  0  0  0  0  0  0  0  0
   -6.3188   22.0198    0.5103 N   0  0  0  0  0  0  0  0  0  0  0  0
   -5.9281   21.0088    1.3462 C   0  0  0  0  0  0  0  0  0  0  0  0
   -5.3400   21.5780    2.4516 C   0  0  0  0  0  0  0  0  0  0  0  0
   -6.7519   21.8887   -0.3950 H   0  0  0  0  0  0  0  0  0  0  0  0
   -7.0797   23.9345    4.4906 C   0  0  0  0  0  0  0  0  0  0  0  0
   -8.8563   21.8095    8.6909 C   0  0  0  0  0  0  0  0  0  0  0  0
   -7.9192   22.1995    7.6073 C   0  0  0  0  0  0  0  0  0  0  0  0
   -6.6734   21.7852    7.4954 N   0  0  0  0  0  0  0  0  0  0  0  0
   -6.1908   22.3533    6.3507 C   0  0  0  0  0  0  0  0  0  0  0  0
   -7.1507   23.1292    5.7373 C   0  0  0  0  0  0  0  0  0  0  0  0
   -8.2447   23.0464    6.5708 N   0  0  0  0  0  0  0  0  0  0  0  0
   -9.5089   23.7185    6.3787 C   0  0  0  0  0  0  0  0  0  0  0  0
   -5.3140   25.6587    4.9582 C   0  0  0  0  0  0  0  0  0  0  0  0
   -6.2516   26.8067    4.7206 C   0  0  0  0  0  0  0  0  0  0  0  0
   -5.8977   27.9382    3.7785 C   0  0  0  0  0  0  0  0  0  0  0  0
   -5.9125   28.1655    5.2554 C   0  0  0  0  0  0  0  0  0  0  0  0
   -6.8236   29.0784    5.9880 C   0  0  0  0  0  0  0  0  0  0  0  0
   -5.5429   29.8459    6.3596 C   0  0  0  0  0  0  0  0  0  0  0  0
   -4.7492   28.5562    6.0883 C   0  0  0  0  0  0  0  0  0  0  0  0
 12 13  1  0  0  0
 13 14  2  0  0  0
 14 15  1  0  0  0
 15 16  2  0  0  0
 16 11  1  0  0  0
 11  1  1  0  0  0
  1 19  1  0  0  0
 19 20  1  0  0  0
 20 21  1  0  0  0
 21 22  1  0  0  0
 22 23  1  0  0  0
 23 24  1  0  0  0
 24 25  1  0  0  0
  1  2  1  0  0  0
  2  3  2  0  0  0
  2  4  1  0  0  0
  4  5  2  0  0  0
  5  6  1  0  0  0
  5  7  1  0  0  0
  7  8  1  0  0  0
  8  9  2  0  0  0
 16 17  1  0  0  0
 17 18  1  0  0  0
 17 13  1  0  0  0
 22 20  1  0  0  0
  9  4  1  0  0  0
 25 22  1  0  0  0
  7 10  1  0  0  0
M  END
> <minimizedAffinity>
-8.07712

$$$$
OCNT-2314263


 23 25  0  0  0  0  0  0  0  0999 V2000
   -5.8699   28.3888    5.8272 C   0  0  0  0  0  0  0  0  0  0  0  0
   -6.1946   29.5751    5.1644 C   0  0  0  0  0  0  0  0  0  0  0  0
   -6.2423   29.6306    3.7690 C   0  0  0  0  0  0  0  0  0  0  0  0
   -5.9339   28.5031    3.0074 C   0  0  0  0  0  0  0  0  0  0  0  0
   -5.5587   27.3101    3.6346 C   0  0  0  0  0  0  0  0  0  0  0  0
   -5.5231   27.2783    5.0402 C   0  0  0  0  0  0  0  0  0  0  0  0
   -5.2042   26.1036    2.8850 C   0  0  0  0  0  0  0  0  0  0  0  0
   -4.3186   25.1856    3.2324 N   0  0  0  0  0  0  0  0  0  0  0  0
   -4.2770   24.2177    2.2559 N   0  0  0  0  0  0  0  0  0  0  0  0
   -5.1314   24.5626    1.3253 C   0  0  0  0  0  0  0  0  0  0  0  0
   -5.7329   25.7316    1.6733 N   0  0  0  0  0  0  0  0  0  0  0  0
   -6.4209   26.2348    1.1367 H   0  0  0  0  0  0  0  0  0  0  0  0
   -5.7372   28.2855    7.2168 N   0  0  0  0  0  0  0  0  0  0  0  0
   -6.6119   27.9872    7.6459 H   0  0  0  0  0  0  0  0  0  0  0  0
   -5.0980   29.3624    7.9616 C   0  0  0  0  0  0  0  0  0  0  0  0
    0.7863   29.4114    6.5964 Cl  0  0  0  0  0  0  0  0  0  0  0  0
   -0.8911   29.4141    6.9785 C   0  0  0  0  0  0  0  0  0  0  0  0
   -1.4670   28.2921    7.5657 C   0  0  0  0  0  0  0  0  0  0  0  0
   -2.8284   28.2963    7.8740 C   0  0  0  0  0  0  0  0  0  0  0  0
   -3.6319   29.4188    7.5929 C   0  0  0  0  0  0  0  0  0  0  0  0
   -3.0253   30.5447    7.0129 C   0  0  0  0  0  0  0  0  0  0  0  0
   -3.9102   31.9865    6.6627 Cl  0  0  0  0  0  0  0  0  0  0  0  0
   -1.6614   30.5404    6.7030 C   0  0  0  0  0  0  0  0  0  0  0  0
 16 17  1  0  0  0
 17 18  1  0  0  0
 18 19  2  0  0  0
 19 20  1  0  0  0
 20 15  1  0  0  0
 15 13  1  0  0  0
 13  1  1  0  0  0
  1  2  2  0  0  0
  2  3  1  0  0  0
  3  4  2  0  0  0
  4  5  1  0  0  0
  5  7  1  0  0  0
  7  8  2  0  0  0
  8  9  1  0  0  0
  9 10  2  0  0  0
 10 11  1  0  0  0
  5  6  2  0  0  0
 20 21  2  0  0  0
 21 22  1  0  0  0
 21 23  1  0  0  0
 23 17  2  0  0  0
  6  1  1  0  0  0
 11  7  1  0  0  0
 13 14  1  0  0  0
 11 12  1  0  0  0
M  END
> <minimizedAffinity>
-8.48415

$$$$
OCNT-2314266


 25 28  0  0  0  0  0  0  0  0999 V2000
   -4.7712   25.2924    4.5095 C   0  0  0  0  0  0  0  0  0  0  0  0
   -5.9504   25.3144    4.8457 O   0  0  0  0  0  0  0  0  0  0  0  0
   -4.2273   24.4586    3.5373 N   0  0  0  0  0  0  0  0  0  0  0  0
   -3.2726   24.6599    3.2879 H   0  0  0  0  0  0  0  0  0  0  0  0
   -4.8744   23.4455    2.7841 C   0  0  0  0  0  0  0  0  0  0  0  0
   -4.8787   22.1063    3.1939 C   0  0  0  0  0  0  0  0  0  0  0  0
   -5.5442   21.1253    2.4569 C   0  0  0  0  0  0  0  0  0  0  0  0
   -6.2255   21.4664    1.2969 C   0  0  0  0  0  0  0  0  0  0  0  0
   -6.2405   22.7946    0.8584 C   0  0  0  0  0  0  0  0  0  0  0  0
   -5.5382   23.7928    1.5786 C   0  0  0  0  0  0  0  0  0  0  0  0
   -5.5719   25.2226    1.0696 C   0  0  0  0  0  0  0  0  0  0  0  0
   -5.9589   25.3734   -0.3385 N   0  0  0  0  0  0  0  0  0  0  0  0
   -7.1985   24.6337   -0.5862 C   0  0  0  0  0  0  0  0  0  0  0  0
   -6.9769   23.1301   -0.4173 C   0  0  0  0  0  0  0  0  0  0  0  0
   -5.2192   24.9702   -0.9147 H   0  0  0  0  0  0  0  0  0  0  0  0
   -4.1155   30.0769    6.8538 C   0  0  0  0  0  0  0  0  0  0  0  0
   -2.8828   29.2386    6.7114 C   0  0  0  0  0  0  0  0  0  0  0  0
   -1.6683   29.6373    7.1413 C   0  0  0  0  0  0  0  0  0  0  0  0
   -0.5224   28.7624    6.9676 C   0  0  0  0  0  0  0  0  0  0  0  0
   -0.6391   27.5561    6.3840 C   0  0  0  0  0  0  0  0  0  0  0  0
   -1.9135   27.1248    5.9235 C   0  0  0  0  0  0  0  0  0  0  0  0
   -2.3807   25.9900    5.3090 C   0  0  0  0  0  0  0  0  0  0  0  0
   -3.7733   26.2046    5.1239 C   0  0  0  0  0  0  0  0  0  0  0  0
   -4.1356   27.4054    5.6061 N   0  0  0  0  0  0  0  0  0  0  0  0
   -3.0075   27.9752    6.0995 N   0  0  0  0  0  0  0  0  0  0  0  0
 16 17  1  0  0  0
 17 18  2  0  0  0
 18 19  1  0  0  0
 19 20  2  0  0  0
 20 21  1  0  0  0
 21 22  2  0  0  0
 22 23  1  0  0  0
 23  1  1  0  0  0
  1  2  2  0  0  0
  1  3  1  0  0  0
  3  5  1  0  0  0
  5  6  1  0  0  0
  6  7  2  0  0  0
  7  8  1  0  0  0
  8  9  2  0  0  0
  9 10  1  0  0  0
 10 11  1  0  0  0
 11 12  1  0  0  0
 12 13  1  0  0  0
 13 14  1  0  0  0
 23 24  2  0  0  0
 24 25  1  0  0  0
 25 17  1  0  0  0
 25 21  1  0  0  0
 10  5  2  0  0  0
 14  9  1  0  0  0
  3  4  1  0  0  0
 12 15  1  0  0  0
M  END
> <minimizedAffinity>
-9.69602

$$$$
OCNT-2314267


 27 30  0  0  0  0  0  0  0  0999 V2000
   -4.2374   26.5940    5.1687 C   0  0  0  0  0  0  0  0  0  0  0  0
   -5.1559   27.4166    4.6331 N   0  0  0  0  0  0  0  0  0  0  0  0
   -6.1559   26.5564    4.1892 O   0  0  0  0  0  0  0  0  0  0  0  0
   -5.7556   25.2947    4.5141 C   0  0  0  0  0  0  0  0  0  0  0  0
   -4.5981   25.2631    5.1373 N   0  0  0  0  0  0  0  0  0  0  0  0
   -1.8275   29.6759    8.2681 C   0  0  0  0  0  0  0  0  0  0  0  0
   -1.7769   28.5525    7.2742 C   0  0  0  0  0  0  0  0  0  0  0  0
   -2.9721   28.0953    6.6900 C   0  0  0  0  0  0  0  0  0  0  0  0
   -2.9793   27.0443    5.7564 C   0  0  0  0  0  0  0  0  0  0  0  0
   -1.7619   26.4450    5.4090 C   0  0  0  0  0  0  0  0  0  0  0  0
   -0.5681   26.8885    5.9808 C   0  0  0  0  0  0  0  0  0  0  0  0
   -0.5799   27.9305    6.9048 C   0  0  0  0  0  0  0  0  0  0  0  0
    0.6337   28.2936    7.4148 O   0  0  0  0  0  0  0  0  0  0  0  0
    0.5081   28.9854    8.0822 H   0  0  0  0  0  0  0  0  0  0  0  0
   -6.6961   24.1938    4.1670 C   0  0  0  0  0  0  0  0  0  0  0  0
   -7.6780   23.9237    5.3128 C   0  0  0  0  0  0  0  0  0  0  0  0
   -8.0293   22.4599    5.1182 C   0  0  0  0  0  0  0  0  0  0  0  0
   -6.6923   21.8368    4.7434 C   0  0  0  0  0  0  0  0  0  0  0  0
   -5.9888   22.8997    4.0064 N   0  0  0  0  0  0  0  0  0  0  0  0
   -5.2438   22.5440    2.5495 S   0  0  0  0  0  0  0  0  0  0  0  0
   -5.4340   21.1301    2.3004 O   0  0  0  0  0  0  0  0  0  0  0  0
   -3.9336   23.1532    2.5262 O   0  0  0  0  0  0  0  0  0  0  0  0
   -6.1708   23.3223    1.2317 C   0  0  0  0  0  0  0  0  0  0  0  0
   -7.3002   22.9125    0.5452 C   0  0  0  0  0  0  0  0  0  0  0  0
   -7.7152   23.8567   -0.4371 C   0  0  0  0  0  0  0  0  0  0  0  0
   -6.8875   24.9564   -0.4717 C   0  0  0  0  0  0  0  0  0  0  0  0
   -5.6223   24.8431    0.6736 S   0  0  0  0  0  0  0  0  0  0  0  0
  6  7  1  0  0  0
  7  8  1  0  0  0
  8  9  2  0  0  0
  9  1  1  0  0  0
  1  2  2  0  0  0
  2  3  1  0  0  0
  3  4  1  0  0  0
  4 15  1  0  0  0
 15 16  1  0  0  0
 16 17  1  0  0  0
 17 18  1  0  0  0
 18 19  1  0  0  0
 19 20  1  0  0  0
 20 21  2  0  0  0
 20 22  2  0  0  0
 20 23  1  0  0  0
 23 24  2  0  0  0
 24 25  1  0  0  0
 25 26  2  0  0  0
 26 27  1  0  0  0
  4  5  2  0  0  0
  9 10  1  0  0  0
 10 11  2  0  0  0
 11 12  1  0  0  0
 12 13  1  0  0  0
 12  7  2  0  0  0
  5  1  1  0  0  0
 19 15  1  0  0  0
 27 23  1  0  0  0
 13 14  1  0  0  0
M  END
> <minimizedAffinity>
-9.33224

$$$$
OCNT-2314271


 26 28  0  0  0  0  0  0  0  0999 V2000
   -5.1301   33.1497    8.0274 C   0  0  0  0  0  0  0  0  0  0  0  0
   -4.8289   31.7653    8.4120 N   0  0  0  0  0  0  0  0  0  0  0  0
   -3.8686   31.1479    7.4813 C   0  0  0  0  0  0  0  0  0  0  0  0
   -2.5187   30.9504    8.0838 C   0  0  0  0  0  0  0  0  0  0  0  0
   -1.9027   31.8023    8.9861 C   0  0  0  0  0  0  0  0  0  0  0  0
   -0.6979   31.1891    9.3173 C   0  0  0  0  0  0  0  0  0  0  0  0
   -0.5306   30.0375    8.6806 N   0  0  0  0  0  0  0  0  0  0  0  0
   -1.6331   29.8875    7.8803 N   0  0  0  0  0  0  0  0  0  0  0  0
   -1.6733   28.7377    7.0190 C   0  0  0  0  0  0  0  0  0  0  0  0
   -0.4493   28.1657    6.6070 C   0  0  0  0  0  0  0  0  0  0  0  0
   -0.4179   27.0470    5.7691 C   0  0  0  0  0  0  0  0  0  0  0  0
   -1.6088   26.4922    5.3303 C   0  0  0  0  0  0  0  0  0  0  0  0
   -1.5864   25.4212    4.5268 F   0  0  0  0  0  0  0  0  0  0  0  0
   -2.8257   27.0393    5.7107 C   0  0  0  0  0  0  0  0  0  0  0  0
   -2.8590   28.1616    6.5497 C   0  0  0  0  0  0  0  0  0  0  0  0
   -6.0639   30.9532    8.4583 C   0  0  0  0  0  0  0  0  0  0  0  0
   -5.9847   29.5731    7.7636 C   0  0  0  0  0  0  0  0  0  0  0  0
   -6.1118   28.5738    8.7878 O   0  0  0  0  0  0  0  0  0  0  0  0
   -5.9986   27.7104    8.3489 H   0  0  0  0  0  0  0  0  0  0  0  0
   -7.0984   29.3941    6.7165 C   0  0  0  0  0  0  0  0  0  0  0  0
   -6.5990   28.7245    5.4548 C   0  0  0  0  0  0  0  0  0  0  0  0
   -6.3002   29.4835    4.3151 C   0  0  0  0  0  0  0  0  0  0  0  0
   -5.8601   28.8601    3.1469 C   0  0  0  0  0  0  0  0  0  0  0  0
   -5.7145   27.4746    3.1070 C   0  0  0  0  0  0  0  0  0  0  0  0
   -6.0073   26.7111    4.2354 C   0  0  0  0  0  0  0  0  0  0  0  0
   -6.4480   27.3321    5.4047 C   0  0  0  0  0  0  0  0  0  0  0  0
  1  2  1  0  0  0
  2  3  1  0  0  0
  3  4  1  0  0  0
  4  5  2  0  0  0
  5  6  1  0  0  0
  6  7  2  0  0  0
  7  8  1  0  0  0
  8  9  1  0  0  0
  9 10  1  0  0  0
 10 11  2  0  0  0
 11 12  1  0  0  0
 12 13  1  0  0  0
 12 14  2  0  0  0
 14 15  1  0  0  0
  2 16  1  0  0  0
 16 17  1  0  0  0
 17 18  1  0  0  0
 17 20  1  0  0  0
 20 21  1  0  0  0
 21 22  2  0  0  0
 22 23  1  0  0  0
 23 24  2  0  0  0
 24 25  1  0  0  0
 25 26  2  0  0  0
  8  4  1  0  0  0
 15  9  2  0  0  0
 26 21  1  0  0  0
 18 19  1  0  0  0
M  END
> <minimizedAffinity>
-8.72404

$$$$
OCNT-2314275


 24 26  0  0  0  0  0  0  0  0999 V2000
   -4.5738   26.8643    3.8793 C   0  0  0  0  0  0  0  0  0  0  0  0
   -4.9111   25.6658    2.9961 C   0  0  0  0  0  0  0  0  0  0  0  0
   -4.4087   24.3973    3.3321 C   0  0  0  0  0  0  0  0  0  0  0  0
   -4.7186   23.2781    2.5555 C   0  0  0  0  0  0  0  0  0  0  0  0
   -5.5365   23.4165    1.4378 C   0  0  0  0  0  0  0  0  0  0  0  0
   -5.9198   22.0384    0.4819 Cl  0  0  0  0  0  0  0  0  0  0  0  0
   -6.0481   24.6639    1.0912 C   0  0  0  0  0  0  0  0  0  0  0  0
   -5.7391   25.7835    1.8682 C   0  0  0  0  0  0  0  0  0  0  0  0
   -5.7924   27.4562    4.6458 C   0  0  0  0  0  0  0  0  0  0  0  0
   -6.8016   29.4022    5.7228 C   0  0  0  0  0  0  0  0  0  0  0  0
   -5.8181   28.9308    4.7473 N   0  0  0  0  0  0  0  0  0  0  0  0
   -6.0992   29.5214    3.4361 C   0  0  0  0  0  0  0  0  0  0  0  0
   -3.4564   26.4616    4.8706 C   0  0  0  0  0  0  0  0  0  0  0  0
   -3.5734   27.1991    6.1299 N   0  0  0  0  0  0  0  0  0  0  0  0
   -4.4334   27.7427    6.1930 H   0  0  0  0  0  0  0  0  0  0  0  0
   -2.5148   27.7993    6.8174 C   0  0  0  0  0  0  0  0  0  0  0  0
   -1.2191   27.4689    6.6611 C   0  0  0  0  0  0  0  0  0  0  0  0
   -0.2309   28.2279    7.4707 C   0  0  0  0  0  0  0  0  0  0  0  0
   -0.4857   29.1764    8.3136 N   0  0  0  0  0  0  0  0  0  0  0  0
   -1.8024   29.4928    8.4696 C   0  0  0  0  0  0  0  0  0  0  0  0
   -2.3346   30.4071    9.2564 N   0  0  0  0  0  0  0  0  0  0  0  0
   -3.6866   30.3278    9.0727 C   0  0  0  0  0  0  0  0  0  0  0  0
   -4.0017   29.3567    8.1548 C   0  0  0  0  0  0  0  0  0  0  0  0
   -2.7980   28.8238    7.7513 N   0  0  0  0  0  0  0  0  0  0  0  0
 10 11  1  0  0  0
 11 12  1  0  0  0
 11  9  1  0  0  0
  9  1  1  0  0  0
  1 13  1  0  0  0
 13 14  1  0  0  0
 14 16  1  0  0  0
 16 17  2  0  0  0
 17 18  1  0  0  0
 18 19  2  0  0  0
 19 20  1  0  0  0
 20 21  2  0  0  0
 21 22  1  0  0  0
 22 23  2  0  0  0
 23 24  1  0  0  0
  1  2  1  0  0  0
  2  3  1  0  0  0
  3  4  2  0  0  0
  4  5  1  0  0  0
  5  6  1  0  0  0
  5  7  2  0  0  0
  7  8  1  0  0  0
 24 16  1  0  0  0
  8  2  2  0  0  0
 24 20  1  0  0  0
 14 15  1  0  0  0
M  END
> <minimizedAffinity>
-7.91354

$$$$
OCNT-2314296


 29 32  0  0  0  0  0  0  0  0999 V2000
   -2.6596   25.9242    4.0667 C   0  0  0  0  0  0  0  0  0  0  0  0
   -1.6240   26.1224    3.4393 O   0  0  0  0  0  0  0  0  0  0  0  0
   -2.7647   26.1478    5.4186 N   0  0  0  0  0  0  0  0  0  0  0  0
   -3.6573   26.0370    5.8725 H   0  0  0  0  0  0  0  0  0  0  0  0
   -5.8218   23.2661    1.3290 C   0  0  0  0  0  0  0  0  0  0  0  0
   -5.2487   24.2901    2.1684 N   0  0  0  0  0  0  0  0  0  0  0  0
   -3.9815   24.3371    2.6510 C   0  0  0  0  0  0  0  0  0  0  0  0
   -3.8840   25.4957    3.4027 C   0  0  0  0  0  0  0  0  0  0  0  0
   -5.2005   26.0568    3.3435 C   0  0  0  0  0  0  0  0  0  0  0  0
   -5.9999   25.3378    2.5374 N   0  0  0  0  0  0  0  0  0  0  0  0
   -5.7318   27.2435    4.0068 C   0  0  0  0  0  0  0  0  0  0  0  0
   -6.1568   27.1942    5.3352 C   0  0  0  0  0  0  0  0  0  0  0  0
   -6.6034   28.3653    5.9220 C   0  0  0  0  0  0  0  0  0  0  0  0
   -6.6458   29.5558    5.2838 N   0  0  0  0  0  0  0  0  0  0  0  0
   -6.2728   29.5667    3.9865 C   0  0  0  0  0  0  0  0  0  0  0  0
   -5.8124   28.4510    3.3115 C   0  0  0  0  0  0  0  0  0  0  0  0
   -1.6078   26.3975    6.2460 C   0  0  0  0  0  0  0  0  0  0  0  0
   -1.9162   27.5470    7.1457 C   0  0  0  0  0  0  0  0  0  0  0  0
   -1.0509   28.3288    7.7593 N   0  0  0  0  0  0  0  0  0  0  0  0
   -1.8009   29.2455    8.4489 C   0  0  0  0  0  0  0  0  0  0  0  0
   -3.1518   29.0080    8.2950 C   0  0  0  0  0  0  0  0  0  0  0  0
   -3.2021   27.9201    7.4547 N   0  0  0  0  0  0  0  0  0  0  0  0
   -4.0459   27.4835    7.1120 H   0  0  0  0  0  0  0  0  0  0  0  0
   -4.3268   29.6860    8.8250 C   0  0  0  0  0  0  0  0  0  0  0  0
   -4.5185   31.0592    8.6215 C   0  0  0  0  0  0  0  0  0  0  0  0
   -5.6506   31.7008    9.1302 C   0  0  0  0  0  0  0  0  0  0  0  0
   -6.6006   30.9770    9.8477 C   0  0  0  0  0  0  0  0  0  0  0  0
   -6.4231   29.6103   10.0520 C   0  0  0  0  0  0  0  0  0  0  0  0
   -5.2934   28.9673    9.5400 C   0  0  0  0  0  0  0  0  0  0  0  0
  5  6  1  0  0  0
  6  7  1  0  0  0
  7  8  2  0  0  0
  8  1  1  0  0  0
  1  2  2  0  0  0
  1  3  1  0  0  0
  3 17  1  0  0  0
 17 18  1  0  0  0
 18 19  2  0  0  0
 19 20  1  0  0  0
 20 21  2  0  0  0
 21 24  1  0  0  0
 24 25  2  0  0  0
 25 26  1  0  0  0
 26 27  2  0  0  0
 27 28  1  0  0  0
 28 29  2  0  0  0
 21 22  1  0  0  0
  8  9  1  0  0  0
  9 11  1  0  0  0
 11 12  2  0  0  0
 12 13  1  0  0  0
 13 14  2  0  0  0
 14 15  1  0  0  0
 15 16  2  0  0  0
  9 10  2  0  0  0
 10  6  1  0  0  0
 22 18  1  0  0  0
 16 11  1  0  0  0
 29 24  1  0  0  0
  3  4  1  0  0  0
 22 23  1  0  0  0
M  END
> <minimizedAffinity>
-9.60968

$$$$
OCNT-2314324


 28 30  0  0  0  0  0  0  0  0999 V2000
   -2.0901   27.3641    5.9169 C   0  0  0  0  0  0  0  0  0  0  0  0
   -0.9436   26.8148    5.3237 C   0  0  0  0  0  0  0  0  0  0  0  0
   -1.0655   25.7823    4.3903 C   0  0  0  0  0  0  0  0  0  0  0  0
   -2.3269   25.2881    4.0573 C   0  0  0  0  0  0  0  0  0  0  0  0
   -3.4650   25.8251    4.6686 C   0  0  0  0  0  0  0  0  0  0  0  0
   -3.3568   26.8690    5.5900 C   0  0  0  0  0  0  0  0  0  0  0  0
   -2.7151   29.5716    6.6383 N   0  0  0  0  0  0  0  0  0  0  0  0
   -1.9935   28.4410    6.9377 C   0  0  0  0  0  0  0  0  0  0  0  0
   -1.3197   28.2170    7.9343 O   0  0  0  0  0  0  0  0  0  0  0  0
   -3.3325   29.6037    5.8422 H   0  0  0  0  0  0  0  0  0  0  0  0
   -3.5522   32.5445    8.7137 C   0  0  0  0  0  0  0  0  0  0  0  0
   -2.1791   32.3906    8.7012 C   0  0  0  0  0  0  0  0  0  0  0  0
   -1.7031   31.3222    7.9688 N   0  0  0  0  0  0  0  0  0  0  0  0
   -2.7089   30.6778    7.4410 C   0  0  0  0  0  0  0  0  0  0  0  0
   -4.2656   31.3011    7.7682 S   0  0  0  0  0  0  0  0  0  0  0  0
   -4.9005   34.6237    8.4162 C   0  0  0  0  0  0  0  0  0  0  0  0
   -4.3800   33.5831    9.3961 C   0  0  0  0  0  0  0  0  0  0  0  0
   -5.0633   25.1932    4.2208 S   0  0  0  0  0  0  0  0  0  0  0  0
   -5.3227   23.9972    4.9927 O   0  0  0  0  0  0  0  0  0  0  0  0
   -5.9835   26.3107    4.2368 O   0  0  0  0  0  0  0  0  0  0  0  0
   -4.8337   24.7219    2.5991 N   0  0  0  0  0  0  0  0  0  0  0  0
   -4.7640   23.2412    2.3493 C   0  0  0  0  0  0  0  0  0  0  0  0
   -6.0654   22.7290    1.7086 C   0  0  0  0  0  0  0  0  0  0  0  0
   -6.0262   21.2202    1.5104 C   0  0  0  0  0  0  0  0  0  0  0  0
   -6.3137   23.3265    0.4233 O   0  0  0  0  0  0  0  0  0  0  0  0
   -5.8142   24.6701    0.3047 C   0  0  0  0  0  0  0  0  0  0  0  0
   -6.6974   25.3980   -0.6993 C   0  0  0  0  0  0  0  0  0  0  0  0
   -5.7771   25.4084    1.6536 C   0  0  0  0  0  0  0  0  0  0  0  0
 16 17  1  0  0  0
 17 11  1  0  0  0
 11 12  2  0  0  0
 12 13  1  0  0  0
 13 14  2  0  0  0
 14  7  1  0  0  0
  7  8  1  0  0  0
  8  9  2  0  0  0
  8  1  1  0  0  0
  1  2  1  0  0  0
  2  3  2  0  0  0
  3  4  1  0  0  0
  4  5  2  0  0  0
  5 18  1  0  0  0
 18 19  2  0  0  0
 18 20  2  0  0  0
 18 21  1  0  0  0
 21 22  1  0  0  0
 22 23  1  0  0  0
 23 24  1  0  0  0
 23 25  1  0  0  0
 25 26  1  0  0  0
 26 27  1  0  0  0
 26 28  1  0  0  0
  5  6  1  0  0  0
 14 15  1  0  0  0
 15 11  1  0  0  0
  6  1  2  0  0  0
 28 21  1  0  0  0
  7 10  1  0  0  0
M  END
> <minimizedAffinity>
-9.76305

$$$$
OCNT-2314329


 28 30  0  0  0  0  0  0  0  0999 V2000
   -5.9722   25.0606    3.6309 N   0  0  0  0  0  0  0  0  0  0  0  0
   -5.7550   26.4467    3.5590 C   0  0  0  0  0  0  0  0  0  0  0  0
   -5.8838   27.0406    2.4851 O   0  0  0  0  0  0  0  0  0  0  0  0
   -5.3891   27.2285    4.7575 C   0  0  0  0  0  0  0  0  0  0  0  0
   -6.3479   27.9031    5.5005 C   0  0  0  0  0  0  0  0  0  0  0  0
   -5.6361   28.7230    6.8207 S   0  0  0  0  0  0  0  0  0  0  0  0
   -4.0961   28.1830    6.3064 C   0  0  0  0  0  0  0  0  0  0  0  0
   -4.0889   27.4179    5.2311 N   0  0  0  0  0  0  0  0  0  0  0  0
   -2.8902   28.5345    6.9840 C   0  0  0  0  0  0  0  0  0  0  0  0
   -2.1344   29.5963    6.7960 N   0  0  0  0  0  0  0  0  0  0  0  0
   -1.0678   29.5153    7.6674 N   0  0  0  0  0  0  0  0  0  0  0  0
   -1.2008   28.4076    8.3590 C   0  0  0  0  0  0  0  0  0  0  0  0
   -2.3352   27.7662    7.9711 N   0  0  0  0  0  0  0  0  0  0  0  0
   -2.7034   26.8913    8.3125 H   0  0  0  0  0  0  0  0  0  0  0  0
   -6.3713   24.3937    2.3845 C   0  0  0  0  0  0  0  0  0  0  0  0
   -5.3044   23.4336    1.8399 C   0  0  0  0  0  0  0  0  0  0  0  0
   -5.9558   21.0333    1.4834 C   0  0  0  0  0  0  0  0  0  0  0  0
   -5.8653   22.4148    0.8307 C   0  0  0  0  0  0  0  0  0  0  0  0
   -7.2357   22.8250    0.2915 C   0  0  0  0  0  0  0  0  0  0  0  0
   -5.9864   24.2424    4.8455 C   0  0  0  0  0  0  0  0  0  0  0  0
   -7.2777   23.4822    5.0437 C   0  0  0  0  0  0  0  0  0  0  0  0
   -7.3939   22.1411    4.6553 C   0  0  0  0  0  0  0  0  0  0  0  0
   -8.5853   21.4405    4.8629 C   0  0  0  0  0  0  0  0  0  0  0  0
   -9.6787   22.0701    5.4621 C   0  0  0  0  0  0  0  0  0  0  0  0
  -11.1164   21.1409    5.6944 Cl  0  0  0  0  0  0  0  0  0  0  0  0
   -9.5786   23.4090    5.8498 C   0  0  0  0  0  0  0  0  0  0  0  0
  -10.8838   24.2583    6.5983 Cl  0  0  0  0  0  0  0  0  0  0  0  0
   -8.3850   24.1096    5.6382 C   0  0  0  0  0  0  0  0  0  0  0  0
 17 18  1  0  0  0
 18 19  1  0  0  0
 18 16  1  0  0  0
 16 15  1  0  0  0
 15  1  1  0  0  0
  1 20  1  0  0  0
 20 21  1  0  0  0
 21 22  1  0  0  0
 22 23  2  0  0  0
 23 24  1  0  0  0
 24 25  1  0  0  0
 24 26  2  0  0  0
 26 27  1  0  0  0
 26 28  1  0  0  0
  1  2  1  0  0  0
  2  3  2  0  0  0
  2  4  1  0  0  0
  4  5  2  0  0  0
  5  6  1  0  0  0
  6  7  1  0  0  0
  7  9  1  0  0  0
  9 10  2  0  0  0
 10 11  1  0  0  0
 11 12  2  0  0  0
 12 13  1  0  0  0
  7  8  2  0  0  0
 28 21  2  0  0  0
  8  4  1  0  0  0
 13  9  1  0  0  0
 13 14  1  0  0  0
M  END
> <minimizedAffinity>
-8.42628

$$$$
OCNT-2314338


 32 33  0  0  0  0  0  0  0  0999 V2000
   -0.7996   28.4245    8.1713 N   0  0  0  0  0  0  0  0  0  0  0  0
   -0.5614   27.9213    6.9167 C   0  0  0  0  0  0  0  0  0  0  0  0
    0.1765   28.4325    6.0868 O   0  0  0  0  0  0  0  0  0  0  0  0
   -1.2551   26.7624    6.7096 N   0  0  0  0  0  0  0  0  0  0  0  0
   -1.7389   28.2408    8.4951 H   0  0  0  0  0  0  0  0  0  0  0  0
   -1.6718   26.2937    7.5058 H   0  0  0  0  0  0  0  0  0  0  0  0
   -0.2547   29.7154    8.5489 C   0  0  0  0  0  0  0  0  0  0  0  0
   -3.2455   32.8413    8.6176 C   0  0  0  0  0  0  0  0  0  0  0  0
   -2.7649   32.3178    9.8260 C   0  0  0  0  0  0  0  0  0  0  0  0
   -1.7920   31.3094    9.8247 C   0  0  0  0  0  0  0  0  0  0  0  0
   -1.2747   30.8247    8.6115 C   0  0  0  0  0  0  0  0  0  0  0  0
   -1.7805   31.3501    7.4153 C   0  0  0  0  0  0  0  0  0  0  0  0
   -1.3435   30.8774    6.2358 F   0  0  0  0  0  0  0  0  0  0  0  0
   -2.7521   32.3508    7.4065 C   0  0  0  0  0  0  0  0  0  0  0  0
   -5.0524   34.7034    8.6235 N   0  0  0  0  0  0  0  0  0  0  0  0
   -4.2523   33.8605    8.6325 C   0  0  0  0  0  0  0  0  0  0  0  0
   -1.1703   26.0330    5.4570 C   0  0  0  0  0  0  0  0  0  0  0  0
   -2.3442   26.3701    4.5298 C   0  0  0  0  0  0  0  0  0  0  0  0
   -2.6262   25.2514    3.6732 O   0  0  0  0  0  0  0  0  0  0  0  0
   -3.4582   25.4769    3.2176 H   0  0  0  0  0  0  0  0  0  0  0  0
   -3.5994   26.7370    5.3277 C   0  0  0  0  0  0  0  0  0  0  0  0
   -3.5204   28.1436    5.6104 O   0  0  0  0  0  0  0  0  0  0  0  0
   -4.6033   28.7267    6.2083 C   0  0  0  0  0  0  0  0  0  0  0  0
   -5.6937   28.9385    5.3607 C   0  0  0  0  0  0  0  0  0  0  0  0
   -6.8559   29.5431    5.8357 C   0  0  0  0  0  0  0  0  0  0  0  0
   -6.9402   29.9451    7.1677 C   0  0  0  0  0  0  0  0  0  0  0  0
   -5.8602   29.7382    8.0340 C   0  0  0  0  0  0  0  0  0  0  0  0
   -4.6941   29.1126    7.5467 C   0  0  0  0  0  0  0  0  0  0  0  0
   -5.9433   30.1440    9.4852 C   0  0  0  0  0  0  0  0  0  0  0  0
   -6.9123   29.4583   10.1558 F   0  0  0  0  0  0  0  0  0  0  0  0
   -6.2202   31.4659    9.6703 F   0  0  0  0  0  0  0  0  0  0  0  0
   -4.7815   29.9092   10.1604 F   0  0  0  0  0  0  0  0  0  0  0  0
 15 16  3  0  0  0
 16  8  1  0  0  0
  8  9  1  0  0  0
  9 10  2  0  0  0
 10 11  1  0  0  0
 11  7  1  0  0  0
  7  1  1  0  0  0
  1  2  1  0  0  0
  2  3  2  0  0  0
  2  4  1  0  0  0
  4 17  1  0  0  0
 17 18  1  0  0  0
 18 19  1  0  0  0
 18 21  1  0  0  0
 21 22  1  0  0  0
 22 23  1  0  0  0
 23 24  1  0  0  0
 24 25  2  0  0  0
 25 26  1  0  0  0
 26 27  2  0  0  0
 27 29  1  0  0  0
 29 30  1  0  0  0
 29 31  1  0  0  0
 29 32  1  0  0  0
 27 28  1  0  0  0
 11 12  2  0  0  0
 12 13  1  0  0  0
 12 14  1  0  0  0
 14  8  2  0  0  0
 28 23  2  0  0  0
  1  5  1  0  0  0
  4  6  1  0  0  0
 19 20  1  0  0  0
M  END
> <minimizedAffinity>
-8.85097

$$$$
OCNT-2314342


 23 24  0  0  0  0  0  0  0  0999 V2000
   -4.8350   24.9365    3.9796 N   0  0  0  0  0  0  0  0  0  0  0  0
   -4.3110   26.2044    3.8574 C   0  0  0  0  0  0  0  0  0  0  0  0
   -4.7730   27.0490    3.0959 O   0  0  0  0  0  0  0  0  0  0  0  0
   -4.4581   24.3212    4.6899 H   0  0  0  0  0  0  0  0  0  0  0  0
   -3.0787   26.5125    4.6341 C   0  0  0  0  0  0  0  0  0  0  0  0
   -1.9051   25.8888    4.1706 C   0  0  0  0  0  0  0  0  0  0  0  0
   -0.6881   26.0837    4.8191 C   0  0  0  0  0  0  0  0  0  0  0  0
   -0.6290   26.9098    5.9365 C   0  0  0  0  0  0  0  0  0  0  0  0
   -1.7848   27.5496    6.4005 C   0  0  0  0  0  0  0  0  0  0  0  0
   -1.5782   28.6649    7.9309 Br  0  0  0  0  0  0  0  0  0  0  0  0
   -3.0199   27.3628    5.7519 C   0  0  0  0  0  0  0  0  0  0  0  0
   -4.4270   28.2130    6.3128 Cl  0  0  0  0  0  0  0  0  0  0  0  0
   -6.0419   24.5273    3.2835 C   0  0  0  0  0  0  0  0  0  0  0  0
   -5.8265   23.5431    2.0749 C   0  0  0  0  0  0  0  0  0  0  0  0
   -6.7900   23.9996    0.9516 C   0  0  0  0  0  0  0  0  0  0  0  0
   -6.0641   25.1412    0.2380 C   0  0  0  0  0  0  0  0  0  0  0  0
   -4.6591   25.0922    0.6587 N   0  0  0  0  0  0  0  0  0  0  0  0
   -4.4874   23.8118    1.3571 C   0  0  0  0  0  0  0  0  0  0  0  0
   -4.4966   25.8460    1.3428 H   0  0  0  0  0  0  0  0  0  0  0  0
   -6.0042   21.0900    1.2443 C   0  0  0  0  0  0  0  0  0  0  0  0
   -6.0354   22.0155    2.4850 C   0  0  0  0  0  0  0  0  0  0  0  0
   -7.3855   21.7928    3.2010 C   0  0  0  0  0  0  0  0  0  0  0  0
   -4.9427   21.4924    3.4533 C   0  0  0  0  0  0  0  0  0  0  0  0
 20 21  1  0  0  0
 21 22  1  0  0  0
 21 23  1  0  0  0
 21 14  1  0  0  0
 14 13  1  0  0  0
 13  1  1  0  0  0
  1  2  1  0  0  0
  2  3  2  0  0  0
  2  5  1  0  0  0
  5  6  2  0  0  0
  6  7  1  0  0  0
  7  8  2  0  0  0
  8  9  1  0  0  0
  9 10  1  0  0  0
  9 11  2  0  0  0
 11 12  1  0  0  0
 14 15  1  0  0  0
 15 16  1  0  0  0
 16 17  1  0  0  0
 17 18  1  0  0  0
 18 14  1  0  0  0
 11  5  1  0  0  0
  1  4  1  0  0  0
 17 19  1  0  0  0
M  END
> <minimizedAffinity>
-8.15175

$$$$
OCNT-2314356


 26 29  0  0  0  0  0  0  0  0999 V2000
   -5.5550   28.1011    4.0208 O   0  0  0  0  0  0  0  0  0  0  0  0
   -5.0917   27.0339    4.4092 C   0  0  0  0  0  0  0  0  0  0  0  0
   -4.2889   26.9124    5.5206 N   0  0  0  0  0  0  0  0  0  0  0  0
   -3.8909   26.0013    5.7289 H   0  0  0  0  0  0  0  0  0  0  0  0
   -5.3685   25.7629    3.6804 C   0  0  0  0  0  0  0  0  0  0  0  0
   -5.7764   25.7763    2.3577 C   0  0  0  0  0  0  0  0  0  0  0  0
   -6.0209   24.5563    1.7252 C   0  0  0  0  0  0  0  0  0  0  0  0
   -5.8155   23.3873    2.4590 C   0  0  0  0  0  0  0  0  0  0  0  0
   -6.0825   22.0284    1.8727 C   0  0  0  0  0  0  0  0  0  0  0  0
   -6.1186   22.0340    0.3459 C   0  0  0  0  0  0  0  0  0  0  0  0
   -6.9954   23.1745   -0.1596 C   0  0  0  0  0  0  0  0  0  0  0  0
   -6.4267   24.5249    0.2764 C   0  0  0  0  0  0  0  0  0  0  0  0
   -5.4194   23.4176    3.7546 N   0  0  0  0  0  0  0  0  0  0  0  0
   -5.1908   24.6135    4.3736 N   0  0  0  0  0  0  0  0  0  0  0  0
   -3.8611   28.0631    6.2719 C   0  0  0  0  0  0  0  0  0  0  0  0
   -2.4118   27.9118    6.5794 C   0  0  0  0  0  0  0  0  0  0  0  0
   -1.5683   26.9238    6.1054 C   0  0  0  0  0  0  0  0  0  0  0  0
   -0.3191   27.1356    6.6220 N   0  0  0  0  0  0  0  0  0  0  0  0
   -0.3220   28.2453    7.4346 C   0  0  0  0  0  0  0  0  0  0  0  0
    0.7209   28.8278    8.1673 C   0  0  0  0  0  0  0  0  0  0  0  0
    0.4216   29.9660    8.9200 C   0  0  0  0  0  0  0  0  0  0  0  0
   -0.8662   30.4859    8.9310 C   0  0  0  0  0  0  0  0  0  0  0  0
   -1.1230   31.5779    9.6644 F   0  0  0  0  0  0  0  0  0  0  0  0
   -1.8994   29.9014    8.1993 C   0  0  0  0  0  0  0  0  0  0  0  0
   -1.6229   28.7539    7.4293 C   0  0  0  0  0  0  0  0  0  0  0  0
    0.4922   26.5608    6.4396 H   0  0  0  0  0  0  0  0  0  0  0  0
  1  2  2  0  0  0
  2  3  1  0  0  0
  3 15  1  0  0  0
 15 16  1  0  0  0
 16 17  2  0  0  0
 17 18  1  0  0  0
 18 19  1  0  0  0
 19 20  2  0  0  0
 20 21  1  0  0  0
 21 22  2  0  0  0
 22 23  1  0  0  0
 22 24  1  0  0  0
 24 25  2  0  0  0
  2  5  1  0  0  0
  5  6  2  0  0  0
  6  7  1  0  0  0
  7  8  2  0  0  0
  8  9  1  0  0  0
  9 10  1  0  0  0
 10 11  1  0  0  0
 11 12  1  0  0  0
  8 13  1  0  0  0
 13 14  2  0  0  0
 25 16  1  0  0  0
 14  5  1  0  0  0
 25 19  1  0  0  0
 12  7  1  0  0  0
  3  4  1  0  0  0
 18 26  1  0  0  0
M  END
> <minimizedAffinity>
-10.35895

$$$$
OCNT-2314360


 31 34  0  0  0  0  0  0  0  0999 V2000
   -4.6649   30.7269    5.7992 C   0  0  0  0  0  0  0  0  0  0  0  0
   -4.5519   30.9393    7.3266 C   0  0  0  0  0  0  0  0  0  0  0  0
   -4.6263   29.5687    8.0375 C   0  0  0  0  0  0  0  0  0  0  0  0
   -5.0232   29.8794    9.4793 C   0  0  0  0  0  0  0  0  0  0  0  0
   -5.7639   31.2170    9.4345 C   0  0  0  0  0  0  0  0  0  0  0  0
   -5.7928   31.6278    7.9579 C   0  0  0  0  0  0  0  0  0  0  0  0
   -7.0161   31.1315    7.4189 O   0  0  0  0  0  0  0  0  0  0  0  0
   -7.1594   31.6012    6.5653 H   0  0  0  0  0  0  0  0  0  0  0  0
   -3.2718   31.7520    7.7142 C   0  0  0  0  0  0  0  0  0  0  0  0
   -1.9671   30.9904    7.8214 C   0  0  0  0  0  0  0  0  0  0  0  0
   -1.2974   30.8959    9.0520 C   0  0  0  0  0  0  0  0  0  0  0  0
   -0.0873   30.2060    9.1527 C   0  0  0  0  0  0  0  0  0  0  0  0
    0.4588   29.6140    8.0220 C   0  0  0  0  0  0  0  0  0  0  0  0
    1.6185   28.9539    8.1176 F   0  0  0  0  0  0  0  0  0  0  0  0
   -0.1754   29.7083    6.7902 C   0  0  0  0  0  0  0  0  0  0  0  0
   -1.3823   30.4024    6.6884 C   0  0  0  0  0  0  0  0  0  0  0  0
   -5.6923   28.9930    4.3432 C   0  0  0  0  0  0  0  0  0  0  0  0
   -6.2592   29.7947    3.6121 O   0  0  0  0  0  0  0  0  0  0  0  0
   -4.8871   29.3472    5.3988 N   0  0  0  0  0  0  0  0  0  0  0  0
   -4.6393   28.6278    6.0639 H   0  0  0  0  0  0  0  0  0  0  0  0
   -5.8022   25.1379    0.0676 C   0  0  0  0  0  0  0  0  0  0  0  0
   -5.9625   24.7819    1.4993 C   0  0  0  0  0  0  0  0  0  0  0  0
   -6.1561   23.5078    1.8635 N   0  0  0  0  0  0  0  0  0  0  0  0
   -6.2546   23.5651    3.2026 N   0  0  0  0  0  0  0  0  0  0  0  0
   -6.1507   24.8287    3.7205 C   0  0  0  0  0  0  0  0  0  0  0  0
   -6.2081   25.2996    5.0367 C   0  0  0  0  0  0  0  0  0  0  0  0
   -6.0598   26.6782    5.2237 C   0  0  0  0  0  0  0  0  0  0  0  0
   -5.8600   27.5350    4.1334 C   0  0  0  0  0  0  0  0  0  0  0  0
   -5.7855   27.0383    2.8231 C   0  0  0  0  0  0  0  0  0  0  0  0
   -5.9475   25.6561    2.6208 C   0  0  0  0  0  0  0  0  0  0  0  0
   -6.3951   22.6990    3.7082 H   0  0  0  0  0  0  0  0  0  0  0  0
 21 22  1  0  0  0
 22 23  2  0  0  0
 23 24  1  0  0  0
 24 25  1  0  0  0
 25 26  2  0  0  0
 26 27  1  0  0  0
 27 28  2  0  0  0
 28 17  1  0  0  0
 17 18  2  0  0  0
 17 19  1  0  0  0
 19  1  1  0  0  0
  1  2  1  0  0  0
  2  9  1  0  0  0
  9 10  1  0  0  0
 10 11  1  0  0  0
 11 12  2  0  0  0
 12 13  1  0  0  0
 13 14  1  0  0  0
 13 15  2  0  0  0
 15 16  1  0  0  0
  2  3  1  0  0  0
  3  4  1  0  0  0
  4  5  1  0  0  0
  5  6  1  0  0  0
  6  7  1  0  0  0
 28 29  1  0  0  0
 29 30  2  0  0  0
 30 22  1  0  0  0
 30 25  1  0  0  0
  6  2  1  0  0  0
 16 10  2  0  0  0
 24 31  1  0  0  0
 19 20  1  0  0  0
  7  8  1  0  0  0
M  END
> <minimizedAffinity>
-10.89435

$$$$
OCNT-2314371


 25 28  0  0  0  0  0  0  0  0999 V2000
   -6.2049   22.5174    4.4681 C   0  0  0  0  0  0  0  0  0  0  0  0
   -6.0699   21.4749    3.8338 O   0  0  0  0  0  0  0  0  0  0  0  0
   -5.6111   23.7182    4.1057 N   0  0  0  0  0  0  0  0  0  0  0  0
   -5.2191   24.7661    5.0423 C   0  0  0  0  0  0  0  0  0  0  0  0
   -3.8754   25.2534    4.5206 C   0  0  0  0  0  0  0  0  0  0  0  0
   -4.0282   25.1080    3.0134 C   0  0  0  0  0  0  0  0  0  0  0  0
   -4.8272   23.8027    2.8717 C   0  0  0  0  0  0  0  0  0  0  0  0
  -11.2990   24.3055    6.5855 C   0  0  0  0  0  0  0  0  0  0  0  0
  -10.2858   23.5273    7.3387 C   0  0  0  0  0  0  0  0  0  0  0  0
  -10.5152   23.1716    8.6113 N   0  0  0  0  0  0  0  0  0  0  0  0
   -9.3935   22.5056    8.9669 N   0  0  0  0  0  0  0  0  0  0  0  0
   -9.2746   21.9787   10.3028 C   0  0  0  0  0  0  0  0  0  0  0  0
   -8.4698   22.4037    7.9626 C   0  0  0  0  0  0  0  0  0  0  0  0
   -7.2650   21.7947    8.0202 N   0  0  0  0  0  0  0  0  0  0  0  0
   -6.5791   21.8812    6.8524 C   0  0  0  0  0  0  0  0  0  0  0  0
   -7.0382   22.4845    5.6855 C   0  0  0  0  0  0  0  0  0  0  0  0
   -8.2841   23.1192    5.6852 C   0  0  0  0  0  0  0  0  0  0  0  0
   -9.0265   23.0647    6.8745 C   0  0  0  0  0  0  0  0  0  0  0  0
   -5.6848   23.7893    1.6236 C   0  0  0  0  0  0  0  0  0  0  0  0
   -6.0665   22.5664    1.0469 C   0  0  0  0  0  0  0  0  0  0  0  0
   -6.8529   22.5327   -0.1089 C   0  0  0  0  0  0  0  0  0  0  0  0
   -7.2681   23.7220   -0.7032 C   0  0  0  0  0  0  0  0  0  0  0  0
   -6.8976   24.9338   -0.1347 C   0  0  0  0  0  0  0  0  0  0  0  0
   -7.2972   26.0794   -0.7035 F   0  0  0  0  0  0  0  0  0  0  0  0
   -6.1159   24.9790    1.0152 C   0  0  0  0  0  0  0  0  0  0  0  0
  8  9  1  0  0  0
  9 10  2  0  0  0
 10 11  1  0  0  0
 11 12  1  0  0  0
 11 13  1  0  0  0
 13 14  1  0  0  0
 14 15  2  0  0  0
 15 16  1  0  0  0
 16  1  1  0  0  0
  1  2  2  0  0  0
  1  3  1  0  0  0
  3  4  1  0  0  0
  4  5  1  0  0  0
  5  6  1  0  0  0
  6  7  1  0  0  0
  7 19  1  0  0  0
 19 20  2  0  0  0
 20 21  1  0  0  0
 21 22  2  0  0  0
 22 23  1  0  0  0
 23 24  1  0  0  0
 23 25  2  0  0  0
 16 17  2  0  0  0
 17 18  1  0  0  0
 18  9  1  0  0  0
 18 13  2  0  0  0
  7  3  1  0  0  0
 25 19  1  0  0  0
M  END
> <minimizedAffinity>
-9.68957

$$$$
OCNT-2314377


 26 30  0  0  0  0  0  0  0  0999 V2000
   -3.4450   25.1400    3.7012 O   0  0  0  0  0  0  0  0  0  0  0  0
   -4.3704   25.3492    4.4768 C   0  0  0  0  0  0  0  0  0  0  0  0
   -4.3384   26.2404    5.5272 N   0  0  0  0  0  0  0  0  0  0  0  0
   -5.5838   24.7029    4.3625 N   0  0  0  0  0  0  0  0  0  0  0  0
   -6.4884   24.2752    5.4322 C   0  0  0  0  0  0  0  0  0  0  0  0
   -6.8709   23.1357    4.5384 C   0  0  0  0  0  0  0  0  0  0  0  0
   -8.3301   22.9674    4.1676 C   0  0  0  0  0  0  0  0  0  0  0  0
   -8.0805   21.4398    4.2229 C   0  0  0  0  0  0  0  0  0  0  0  0
   -6.8379   21.7284    5.1014 C   0  0  0  0  0  0  0  0  0  0  0  0
   -5.8274   23.5136    3.5086 C   0  0  0  0  0  0  0  0  0  0  0  0
   -5.2242   26.4091    5.9799 H   0  0  0  0  0  0  0  0  0  0  0  0
   -3.2393   27.0196    5.9370 C   0  0  0  0  0  0  0  0  0  0  0  0
   -3.4348   28.3319    6.3179 C   0  0  0  0  0  0  0  0  0  0  0  0
   -2.4563   29.1633    6.7354 N   0  0  0  0  0  0  0  0  0  0  0  0
   -1.2046   28.6627    6.7840 C   0  0  0  0  0  0  0  0  0  0  0  0
   -0.9098   27.3951    6.4313 N   0  0  0  0  0  0  0  0  0  0  0  0
   -1.9284   26.6034    6.0171 C   0  0  0  0  0  0  0  0  0  0  0  0
   -0.0834   29.5636    7.2375 C   0  0  0  0  0  0  0  0  0  0  0  0
   -0.0484   30.0821    8.6583 C   0  0  0  0  0  0  0  0  0  0  0  0
    0.9511   29.0555    8.2172 C   0  0  0  0  0  0  0  0  0  0  0  0
   -6.2455   23.7804    1.9990 C   0  0  0  0  0  0  0  0  0  0  0  0
   -6.1237   25.0386    1.3738 C   0  0  0  0  0  0  0  0  0  0  0  0
   -6.5088   25.2509    0.0463 C   0  0  0  0  0  0  0  0  0  0  0  0
   -7.0303   24.2026   -0.7030 C   0  0  0  0  0  0  0  0  0  0  0  0
   -7.1631   22.9456   -0.1253 C   0  0  0  0  0  0  0  0  0  0  0  0
   -6.7746   22.7431    1.2025 C   0  0  0  0  0  0  0  0  0  0  0  0
  1  2  2  0  0  0
  2  3  1  0  0  0
  3 12  1  0  0  0
 12 13  2  0  0  0
 13 14  1  0  0  0
 14 15  2  0  0  0
 15 18  1  0  0  0
 18 19  1  0  0  0
 19 20  1  0  0  0
 15 16  1  0  0  0
 16 17  2  0  0  0
  2  4  1  0  0  0
  4  5  1  0  0  0
  5  6  1  0  0  0
  6  7  1  0  0  0
  7  8  1  0  0  0
  8  9  1  0  0  0
  6 10  1  0  0  0
 10 21  1  0  0  0
 21 22  2  0  0  0
 22 23  1  0  0  0
 23 24  2  0  0  0
 24 25  1  0  0  0
 25 26  2  0  0  0
 17 12  1  0  0  0
 10  4  1  0  0  0
 26 21  1  0  0  0
 20 18  1  0  0  0
  9  6  1  0  0  0
  3 11  1  0  0  0
M  END
> <minimizedAffinity>
-10.43694

$$$$
OCNT-2314380


 22 25  0  0  0  0  0  0  0  0999 V2000
   -4.9443   24.3713    3.2632 C   0  0  0  0  0  0  0  0  0  0  0  0
   -3.8106   23.9440    3.0388 O   0  0  0  0  0  0  0  0  0  0  0  0
   -6.0648   23.5713    3.1874 N   0  0  0  0  0  0  0  0  0  0  0  0
   -6.9736   23.9989    3.3040 H   0  0  0  0  0  0  0  0  0  0  0  0
   -5.6339   27.6317    4.1027 C   0  0  0  0  0  0  0  0  0  0  0  0
   -5.8104   26.9170    2.7282 C   0  0  0  0  0  0  0  0  0  0  0  0
   -5.2175   25.7934    3.6367 C   0  0  0  0  0  0  0  0  0  0  0  0
   -4.2558   26.9028    4.1632 C   0  0  0  0  0  0  0  0  0  0  0  0
   -6.2134   26.3206    4.7172 C   0  0  0  0  0  0  0  0  0  0  0  0
   -5.9747   29.0425    4.4564 C   0  0  0  0  0  0  0  0  0  0  0  0
   -6.2060   29.9296    3.6366 O   0  0  0  0  0  0  0  0  0  0  0  0
   -7.2569   29.7066    6.3073 C   0  0  0  0  0  0  0  0  0  0  0  0
   -6.0019   29.2410    5.8074 O   0  0  0  0  0  0  0  0  0  0  0  0
   -5.9986   22.1828    2.7824 C   0  0  0  0  0  0  0  0  0  0  0  0
   -6.7951   22.0568    1.4911 C   0  0  0  0  0  0  0  0  0  0  0  0
   -7.4419   23.3734    0.9659 C   0  0  0  0  0  0  0  0  0  0  0  0
   -7.1400   22.8710   -0.4591 C   0  0  0  0  0  0  0  0  0  0  0  0
   -5.9935   22.0449    0.1556 C   0  0  0  0  0  0  0  0  0  0  0  0
   -6.7531   21.3081    3.7861 C   0  0  0  0  0  0  0  0  0  0  0  0
   -8.1821   20.7571    3.5054 C   0  0  0  0  0  0  0  0  0  0  0  0
   -8.7537   21.8739    4.3953 C   0  0  0  0  0  0  0  0  0  0  0  0
   -7.3571   22.0397    5.0170 C   0  0  0  0  0  0  0  0  0  0  0  0
 12 13  1  0  0  0
 13 10  1  0  0  0
 10 11  2  0  0  0
 10  5  1  0  0  0
  5  6  1  0  0  0
  6  7  1  0  0  0
  7  1  1  0  0  0
  1  2  2  0  0  0
  1  3  1  0  0  0
  3 14  1  0  0  0
 14 15  1  0  0  0
 15 16  1  0  0  0
 16 17  1  0  0  0
 17 18  1  0  0  0
 14 19  1  0  0  0
 19 20  1  0  0  0
 20 21  1  0  0  0
 21 22  1  0  0  0
  7  8  1  0  0  0
  7  9  1  0  0  0
  8  5  1  0  0  0
  9  5  1  0  0  0
 18 15  1  0  0  0
 22 19  1  0  0  0
  3  4  1  0  0  0
M  END
> <minimizedAffinity>
-7.65010

$$$$
OCNT-2314381


 26 29  0  0  0  0  0  0  0  0999 V2000
   -4.0045   25.2730    3.9516 N   0  0  0  0  0  0  0  0  0  0  0  0
   -2.8735   25.7539    4.6170 C   0  0  0  0  0  0  0  0  0  0  0  0
   -2.9826   26.1704    5.8906 N   0  0  0  0  0  0  0  0  0  0  0  0
   -1.8932   26.6596    6.5099 C   0  0  0  0  0  0  0  0  0  0  0  0
   -0.6723   26.7633    5.9062 C   0  0  0  0  0  0  0  0  0  0  0  0
   -0.6419   26.3263    4.6059 C   0  0  0  0  0  0  0  0  0  0  0  0
   -1.7120   25.8263    3.9523 N   0  0  0  0  0  0  0  0  0  0  0  0
    0.5760   26.3815    3.8478 C   0  0  0  0  0  0  0  0  0  0  0  0
    1.5567   26.3864    3.2244 N   0  0  0  0  0  0  0  0  0  0  0  0
   -5.2657   25.5347    4.6554 C   0  0  0  0  0  0  0  0  0  0  0  0
   -7.2113   29.9921    5.9611 C   0  0  0  0  0  0  0  0  0  0  0  0
   -6.6125   28.8944    5.2421 N   0  0  0  0  0  0  0  0  0  0  0  0
   -6.3284   27.6507    5.7254 C   0  0  0  0  0  0  0  0  0  0  0  0
   -5.7654   26.9457    4.6786 C   0  0  0  0  0  0  0  0  0  0  0  0
   -5.7554   27.8736    3.6121 C   0  0  0  0  0  0  0  0  0  0  0  0
   -6.2718   29.0566    3.9526 N   0  0  0  0  0  0  0  0  0  0  0  0
   -3.9609   25.4255    2.4867 C   0  0  0  0  0  0  0  0  0  0  0  0
   -4.2886   24.1391    1.7090 C   0  0  0  0  0  0  0  0  0  0  0  0
   -4.5515   22.9574    2.6739 C   0  0  0  0  0  0  0  0  0  0  0  0
   -5.4272   21.9594    1.9064 C   0  0  0  0  0  0  0  0  0  0  0  0
   -6.2095   22.8862    1.0308 C   0  0  0  0  0  0  0  0  0  0  0  0
   -7.3876   22.6153    0.3541 C   0  0  0  0  0  0  0  0  0  0  0  0
   -7.9443   23.6223   -0.4354 C   0  0  0  0  0  0  0  0  0  0  0  0
   -7.3159   24.8714   -0.5454 C   0  0  0  0  0  0  0  0  0  0  0  0
   -6.1208   25.1305    0.1303 C   0  0  0  0  0  0  0  0  0  0  0  0
   -5.5753   24.1319    0.9215 C   0  0  0  0  0  0  0  0  0  0  0  0
 11 12  1  0  0  0
 12 13  1  0  0  0
 13 14  2  0  0  0
 14 10  1  0  0  0
 10  1  1  0  0  0
  1 17  1  0  0  0
 17 18  1  0  0  0
 18 19  1  0  0  0
 19 20  1  0  0  0
 20 21  1  0  0  0
 21 22  2  0  0  0
 22 23  1  0  0  0
 23 24  2  0  0  0
 24 25  1  0  0  0
 25 26  2  0  0  0
  1  2  1  0  0  0
  2  3  2  0  0  0
  3  4  1  0  0  0
  4  5  2  0  0  0
  5  6  1  0  0  0
  6  8  1  0  0  0
  8  9  3  0  0  0
  6  7  2  0  0  0
 14 15  1  0  0  0
 15 16  2  0  0  0
 16 12  1  0  0  0
 26 18  1  0  0  0
  7  2  1  0  0  0
 26 21  1  0  0  0
M  END
> <minimizedAffinity>
-9.61420

$$$$
OCNT-2314395


 23 26  0  0  0  0  0  0  0  0999 V2000
   -3.7153   26.3087    4.6064 N   0  0  0  0  0  0  0  0  0  0  0  0
   -4.5566   25.2219    5.1733 C   0  0  0  0  0  0  0  0  0  0  0  0
   -6.0466   25.4694    4.9195 C   0  0  0  0  0  0  0  0  0  0  0  0
   -6.3605   25.5340    3.5206 O   0  0  0  0  0  0  0  0  0  0  0  0
   -5.3945   26.2685    2.7369 C   0  0  0  0  0  0  0  0  0  0  0  0
   -4.4373   27.1249    3.5971 C   0  0  0  0  0  0  0  0  0  0  0  0
   -0.7939   26.1023    4.9313 C   0  0  0  0  0  0  0  0  0  0  0  0
   -1.6743   26.9823    5.6594 N   0  0  0  0  0  0  0  0  0  0  0  0
   -1.2898   27.8664    6.6402 C   0  0  0  0  0  0  0  0  0  0  0  0
   -0.0560   28.2367    7.1749 C   0  0  0  0  0  0  0  0  0  0  0  0
   -0.1241   29.1851    8.1876 C   0  0  0  0  0  0  0  0  0  0  0  0
   -1.2632   29.7412    8.6615 N   0  0  0  0  0  0  0  0  0  0  0  0
   -2.4514   29.3586    8.1211 C   0  0  0  0  0  0  0  0  0  0  0  0
   -2.4883   28.4108    7.0942 C   0  0  0  0  0  0  0  0  0  0  0  0
   -3.5565   27.8855    6.4074 N   0  0  0  0  0  0  0  0  0  0  0  0
   -3.0447   27.0496    5.5333 C   0  0  0  0  0  0  0  0  0  0  0  0
   -4.6189   25.2966    1.8237 C   0  0  0  0  0  0  0  0  0  0  0  0
   -5.5328   24.4139    1.0000 C   0  0  0  0  0  0  0  0  0  0  0  0
   -6.4005   24.9734    0.0518 C   0  0  0  0  0  0  0  0  0  0  0  0
   -7.2449   24.1573   -0.7034 C   0  0  0  0  0  0  0  0  0  0  0  0
   -7.2317   22.7763   -0.5179 C   0  0  0  0  0  0  0  0  0  0  0  0
   -6.3744   22.2098    0.4230 C   0  0  0  0  0  0  0  0  0  0  0  0
   -5.5289   23.0238    1.1780 C   0  0  0  0  0  0  0  0  0  0  0  0
  7  8  1  0  0  0
  8  9  1  0  0  0
  9 10  2  0  0  0
 10 11  1  0  0  0
 11 12  2  0  0  0
 12 13  1  0  0  0
 13 14  2  0  0  0
 14 15  1  0  0  0
 15 16  2  0  0  0
 16  1  1  0  0  0
  1  2  1  0  0  0
  2  3  1  0  0  0
  3  4  1  0  0  0
  4  5  1  0  0  0
  5 17  1  0  0  0
 17 18  1  0  0  0
 18 19  2  0  0  0
 19 20  1  0  0  0
 20 21  2  0  0  0
 21 22  1  0  0  0
 22 23  2  0  0  0
  5  6  1  0  0  0
 16  8  1  0  0  0
  6  1  1  0  0  0
 14  9  1  0  0  0
 23 18  1  0  0  0
M  END
> <minimizedAffinity>
-9.37004

$$$$
OCNT-2314397


 26 30  0  0  0  0  0  0  0  0999 V2000
   -2.5046   28.0951    7.1970 C   0  0  0  0  0  0  0  0  0  0  0  0
   -3.1425   28.2038    6.0512 N   0  0  0  0  0  0  0  0  0  0  0  0
   -2.9980   26.9460    5.5134 C   0  0  0  0  0  0  0  0  0  0  0  0
   -2.2712   26.1016    6.2603 N   0  0  0  0  0  0  0  0  0  0  0  0
   -1.9498   26.8603    7.3852 O   0  0  0  0  0  0  0  0  0  0  0  0
    0.1216   29.4870    7.4304 C   0  0  0  0  0  0  0  0  0  0  0  0
   -1.1627   30.1334    7.9551 C   0  0  0  0  0  0  0  0  0  0  0  0
   -1.6551   31.2483    6.9951 C   0  0  0  0  0  0  0  0  0  0  0  0
   -2.8322   32.0498    7.5812 C   0  0  0  0  0  0  0  0  0  0  0  0
   -3.8087   31.1601    8.2647 C   0  0  0  0  0  0  0  0  0  0  0  0
   -5.0123   31.5730    8.6668 N   0  0  0  0  0  0  0  0  0  0  0  0
   -5.5437   30.4823    9.2472 N   0  0  0  0  0  0  0  0  0  0  0  0
   -4.7035   29.4043    9.2574 C   0  0  0  0  0  0  0  0  0  0  0  0
   -3.5578   29.8126    8.6134 C   0  0  0  0  0  0  0  0  0  0  0  0
   -2.2841   29.0936    8.2896 C   0  0  0  0  0  0  0  0  0  0  0  0
   -6.4847   30.5482    9.6210 H   0  0  0  0  0  0  0  0  0  0  0  0
   -3.5748   26.5554    4.1916 C   0  0  0  0  0  0  0  0  0  0  0  0
   -4.9322   27.2210    3.9681 C   0  0  0  0  0  0  0  0  0  0  0  0
   -5.4085   26.9751    2.6365 O   0  0  0  0  0  0  0  0  0  0  0  0
   -5.2753   25.6525    2.2998 C   0  0  0  0  0  0  0  0  0  0  0  0
   -5.9862   25.2158    1.1837 C   0  0  0  0  0  0  0  0  0  0  0  0
   -5.9162   23.8770    0.7950 C   0  0  0  0  0  0  0  0  0  0  0  0
   -5.1337   22.9779    1.5215 C   0  0  0  0  0  0  0  0  0  0  0  0
   -4.4107   23.4183    2.6313 C   0  0  0  0  0  0  0  0  0  0  0  0
   -4.4692   24.7579    3.0110 C   0  0  0  0  0  0  0  0  0  0  0  0
   -3.7146   25.1227    4.0958 O   0  0  0  0  0  0  0  0  0  0  0  0
  6  7  1  0  0  0
  7  8  1  0  0  0
  8  9  1  0  0  0
  9 10  1  0  0  0
 10 11  2  0  0  0
 11 12  1  0  0  0
 12 13  1  0  0  0
 13 14  2  0  0  0
 14 15  1  0  0  0
 15  1  1  0  0  0
  1  2  2  0  0  0
  2  3  1  0  0  0
  3 17  1  0  0  0
 17 18  1  0  0  0
 18 19  1  0  0  0
 19 20  1  0  0  0
 20 21  2  0  0  0
 21 22  1  0  0  0
 22 23  2  0  0  0
 23 24  1  0  0  0
 24 25  2  0  0  0
 25 26  1  0  0  0
  3  4  2  0  0  0
  4  5  1  0  0  0
 15  7  1  0  0  0
  5  1  1  0  0  0
 14 10  1  0  0  0
 26 17  1  0  0  0
 25 20  1  0  0  0
 12 16  1  0  0  0
M  END
> <minimizedAffinity>
-9.97999

$$$$
OCNT-2314412


 27 30  0  0  0  0  0  0  0  0999 V2000
   -7.0949   29.5396    6.0626 S   0  0  0  0  0  0  0  0  0  0  0  0
   -6.4315   28.3196    4.9643 C   0  0  0  0  0  0  0  0  0  0  0  0
   -6.2142   27.0978    5.4757 N   0  0  0  0  0  0  0  0  0  0  0  0
   -5.7368   26.1616    4.6258 C   0  0  0  0  0  0  0  0  0  0  0  0
   -5.4854   26.3991    3.2924 C   0  0  0  0  0  0  0  0  0  0  0  0
   -5.7271   27.6902    2.8785 C   0  0  0  0  0  0  0  0  0  0  0  0
   -6.2037   28.6690    3.6823 N   0  0  0  0  0  0  0  0  0  0  0  0
   -4.9794   25.5104    2.3870 O   0  0  0  0  0  0  0  0  0  0  0  0
   -5.8709   24.8874    1.5479 C   0  0  0  0  0  0  0  0  0  0  0  0
   -6.1158   25.3676    0.2594 C   0  0  0  0  0  0  0  0  0  0  0  0
   -7.0069   24.6875   -0.5706 C   0  0  0  0  0  0  0  0  0  0  0  0
   -7.6344   23.5256   -0.1183 C   0  0  0  0  0  0  0  0  0  0  0  0
   -7.3661   23.0360    1.1610 C   0  0  0  0  0  0  0  0  0  0  0  0
   -6.4759   23.7132    1.9943 C   0  0  0  0  0  0  0  0  0  0  0  0
   -6.5322   28.8527    7.6469 C   0  0  0  0  0  0  0  0  0  0  0  0
   -0.9291   30.0290    8.9364 C   0  0  0  0  0  0  0  0  0  0  0  0
   -1.3978   31.2064    9.5192 C   0  0  0  0  0  0  0  0  0  0  0  0
   -2.7683   31.4838    9.5061 C   0  0  0  0  0  0  0  0  0  0  0  0
   -3.5983   30.5400    8.8945 C   0  0  0  0  0  0  0  0  0  0  0  0
   -4.9593   30.5050    8.7157 N   0  0  0  0  0  0  0  0  0  0  0  0
   -5.1993   29.3787    8.0646 C   0  0  0  0  0  0  0  0  0  0  0  0
   -4.0307   28.6866    7.8360 N   0  0  0  0  0  0  0  0  0  0  0  0
   -3.0004   29.4106    8.3536 C   0  0  0  0  0  0  0  0  0  0  0  0
   -1.6955   29.0851    8.3353 N   0  0  0  0  0  0  0  0  0  0  0  0
   -3.9539   27.8047    7.3461 H   0  0  0  0  0  0  0  0  0  0  0  0
    0.9758   29.1703    7.8729 C   0  0  0  0  0  0  0  0  0  0  0  0
    0.4433   29.8500    9.0044 O   0  0  0  0  0  0  0  0  0  0  0  0
 26 27  1  0  0  0
 27 16  1  0  0  0
 16 17  2  0  0  0
 17 18  1  0  0  0
 18 19  2  0  0  0
 19 20  1  0  0  0
 20 21  2  0  0  0
 21 15  1  0  0  0
 15  1  1  0  0  0
  1  2  1  0  0  0
  2  3  2  0  0  0
  3  4  1  0  0  0
  4  5  2  0  0  0
  5  8  1  0  0  0
  8  9  1  0  0  0
  9 10  2  0  0  0
 10 11  1  0  0  0
 11 12  2  0  0  0
 12 13  1  0  0  0
 13 14  2  0  0  0
  5  6  1  0  0  0
  6  7  2  0  0  0
 21 22  1  0  0  0
 22 23  1  0  0  0
 23 24  2  0  0  0
 24 16  1  0  0  0
 23 19  1  0  0  0
  7  2  1  0  0  0
 14  9  1  0  0  0
 22 25  1  0  0  0
M  END
> <minimizedAffinity>
-9.67090

$$$$
OCNT-2314426


 29 32  0  0  0  0  0  0  0  0999 V2000
   -0.4396   27.7266    6.8220 O   0  0  0  0  0  0  0  0  0  0  0  0
   -1.5094   28.2900    7.0207 C   0  0  0  0  0  0  0  0  0  0  0  0
   -2.7162   27.8391    6.5211 N   0  0  0  0  0  0  0  0  0  0  0  0
   -3.5547   28.1658    6.9847 H   0  0  0  0  0  0  0  0  0  0  0  0
   -1.5641   29.5119    7.8700 C   0  0  0  0  0  0  0  0  0  0  0  0
   -0.4570   29.9607    8.5933 C   0  0  0  0  0  0  0  0  0  0  0  0
   -0.5630   31.1137    9.3662 C   0  0  0  0  0  0  0  0  0  0  0  0
   -1.7761   31.8065    9.4285 C   0  0  0  0  0  0  0  0  0  0  0  0
   -2.9284   31.3706    8.7419 C   0  0  0  0  0  0  0  0  0  0  0  0
   -2.7793   30.2092    7.9548 C   0  0  0  0  0  0  0  0  0  0  0  0
   -4.3123   32.1679    8.8228 C   0  0  0  0  0  0  0  0  0  0  0  0
   -5.3615   31.3023    9.3481 O   0  0  0  0  0  0  0  0  0  0  0  0
   -4.2828   33.5933    9.4594 C   0  0  0  0  0  0  0  0  0  0  0  0
   -5.1085   34.1166    8.3832 O   0  0  0  0  0  0  0  0  0  0  0  0
   -4.7349   32.9798    7.5587 C   0  0  0  0  0  0  0  0  0  0  0  0
   -6.1498   31.8745    9.3826 H   0  0  0  0  0  0  0  0  0  0  0  0
   -2.7965   26.5692    5.8235 C   0  0  0  0  0  0  0  0  0  0  0  0
   -3.4593   26.7221    4.4638 C   0  0  0  0  0  0  0  0  0  0  0  0
   -4.6405   27.6880    4.4771 C   0  0  0  0  0  0  0  0  0  0  0  0
   -5.3987   27.3209    3.2027 C   0  0  0  0  0  0  0  0  0  0  0  0
   -5.1380   25.8926    3.0353 N   0  0  0  0  0  0  0  0  0  0  0  0
   -4.1044   25.4261    3.9597 C   0  0  0  0  0  0  0  0  0  0  0  0
   -5.8409   25.0744    2.1833 C   0  0  0  0  0  0  0  0  0  0  0  0
   -6.4496   23.8884    2.6278 C   0  0  0  0  0  0  0  0  0  0  0  0
   -7.1639   23.0483    1.7631 C   0  0  0  0  0  0  0  0  0  0  0  0
   -7.2822   23.3808    0.4208 C   0  0  0  0  0  0  0  0  0  0  0  0
   -8.1546   22.3540   -0.6474 Cl  0  0  0  0  0  0  0  0  0  0  0  0
   -6.6931   24.5427   -0.0580 C   0  0  0  0  0  0  0  0  0  0  0  0
   -5.9825   25.3744    0.8179 C   0  0  0  0  0  0  0  0  0  0  0  0
  1  2  2  0  0  0
  2  3  1  0  0  0
  3 17  1  0  0  0
 17 18  1  0  0  0
 18 19  1  0  0  0
 19 20  1  0  0  0
 20 21  1  0  0  0
 21 23  1  0  0  0
 23 24  1  0  0  0
 24 25  2  0  0  0
 25 26  1  0  0  0
 26 27  1  0  0  0
 26 28  2  0  0  0
 28 29  1  0  0  0
 21 22  1  0  0  0
  2  5  1  0  0  0
  5  6  1  0  0  0
  6  7  2  0  0  0
  7  8  1  0  0  0
  8  9  2  0  0  0
  9 11  1  0  0  0
 11 12  1  0  0  0
 11 13  1  0  0  0
 13 14  1  0  0  0
 14 15  1  0  0  0
  9 10  1  0  0  0
 22 18  1  0  0  0
 10  5  2  0  0  0
 29 23  2  0  0  0
 15 11  1  0  0  0
  3  4  1  0  0  0
 12 16  1  0  0  0
M  END
> <minimizedAffinity>
-9.60794

$$$$
OCNT-2314434


 28 31  0  0  0  0  0  0  0  0999 V2000
   -2.1746   26.2108    6.7453 O   0  0  0  0  0  0  0  0  0  0  0  0
   -1.5082   27.2220    6.5246 C   0  0  0  0  0  0  0  0  0  0  0  0
   -1.7523   28.4305    7.1847 N   0  0  0  0  0  0  0  0  0  0  0  0
   -0.8038   29.5471    7.1725 C   0  0  0  0  0  0  0  0  0  0  0  0
   -1.4696   30.8949    7.4959 C   0  0  0  0  0  0  0  0  0  0  0  0
   -2.4461   31.2955    6.3699 C   0  0  0  0  0  0  0  0  0  0  0  0
   -3.9122   31.3306    6.8025 C   0  0  0  0  0  0  0  0  0  0  0  0
   -4.2919   30.2021    7.6520 N   0  0  0  0  0  0  0  0  0  0  0  0
   -5.5533   29.6189    7.6899 C   0  0  0  0  0  0  0  0  0  0  0  0
   -5.8392   28.7471    8.5150 O   0  0  0  0  0  0  0  0  0  0  0  0
   -3.3154   29.7588    8.6712 C   0  0  0  0  0  0  0  0  0  0  0  0
   -2.1915   30.7836    8.8374 C   0  0  0  0  0  0  0  0  0  0  0  0
   -2.7009   28.3834    8.3119 C   0  0  0  0  0  0  0  0  0  0  0  0
   -0.4032   27.2245    5.4767 C   0  0  0  0  0  0  0  0  0  0  0  0
   -0.4075   25.9757    4.5932 C   0  0  0  0  0  0  0  0  0  0  0  0
    0.8683   25.7906    3.8412 C   0  0  0  0  0  0  0  0  0  0  0  0
    1.4403   26.6323    2.9099 C   0  0  0  0  0  0  0  0  0  0  0  0
    2.5922   26.0268    2.5007 N   0  0  0  0  0  0  0  0  0  0  0  0
    2.8220   24.8530    3.1064 N   0  0  0  0  0  0  0  0  0  0  0  0
    1.7712   24.7039    3.9171 C   0  0  0  0  0  0  0  0  0  0  0  0
    3.2671   26.3543    1.8180 H   0  0  0  0  0  0  0  0  0  0  0  0
   -6.6111   30.0808    6.7019 C   0  0  0  0  0  0  0  0  0  0  0  0
   -6.7260   29.1711    5.4692 C   0  0  0  0  0  0  0  0  0  0  0  0
   -6.1236   27.7810    5.7388 C   0  0  0  0  0  0  0  0  0  0  0  0
   -6.1648   26.8941    4.4963 C   0  0  0  0  0  0  0  0  0  0  0  0
   -5.4860   27.5611    3.3050 C   0  0  0  0  0  0  0  0  0  0  0  0
   -6.0749   28.9398    3.0261 C   0  0  0  0  0  0  0  0  0  0  0  0
   -6.0338   29.8306    4.2653 C   0  0  0  0  0  0  0  0  0  0  0  0
  1  2  2  0  0  0
  2 14  1  0  0  0
 14 15  1  0  0  0
 15 16  1  0  0  0
 16 17  2  0  0  0
 17 18  1  0  0  0
 18 19  1  0  0  0
 19 20  2  0  0  0
  2  3  1  0  0  0
  3  4  1  0  0  0
  4  5  1  0  0  0
  5  6  1  0  0  0
  6  7  1  0  0  0
  7  8  1  0  0  0
  8  9  1  0  0  0
  9 10  2  0  0  0
  9 22  1  0  0  0
 22 23  1  0  0  0
 23 24  1  0  0  0
 24 25  1  0  0  0
 25 26  1  0  0  0
 26 27  1  0  0  0
 27 28  1  0  0  0
  8 11  1  0  0  0
 11 12  1  0  0  0
 11 13  1  0  0  0
 20 16  1  0  0  0
 13  3  1  0  0  0
 12  5  1  0  0  0
 28 23  1  0  0  0
 18 21  1  0  0  0
M  END
> <minimizedAffinity>
-9.80819

$$$$
OCNT-2314445


 25 27  0  0  0  0  0  0  0  0999 V2000
   -5.0194   26.9907    4.7009 N   0  0  0  0  0  0  0  0  0  0  0  0
   -5.6103   25.7540    4.7410 C   0  0  0  0  0  0  0  0  0  0  0  0
   -6.5934   25.4638    5.4176 O   0  0  0  0  0  0  0  0  0  0  0  0
   -4.9921   24.7994    3.9100 N   0  0  0  0  0  0  0  0  0  0  0  0
   -3.6224   24.9345    3.4071 C   0  0  0  0  0  0  0  0  0  0  0  0
   -3.5315   25.5617    2.0120 C   0  0  0  0  0  0  0  0  0  0  0  0
   -3.8249   24.6012    0.8552 C   0  0  0  0  0  0  0  0  0  0  0  0
   -5.2985   24.3676    0.6054 C   0  0  0  0  0  0  0  0  0  0  0  0
   -5.9260   25.0818   -0.4336 C   0  0  0  0  0  0  0  0  0  0  0  0
   -7.2858   24.9179   -0.7034 C   0  0  0  0  0  0  0  0  0  0  0  0
   -8.0422   24.0412    0.0642 C   0  0  0  0  0  0  0  0  0  0  0  0
   -7.4389   23.3286    1.1011 C   0  0  0  0  0  0  0  0  0  0  0  0
   -6.0674   23.4771    1.3811 C   0  0  0  0  0  0  0  0  0  0  0  0
   -5.4820   22.7101    2.5458 C   0  0  0  0  0  0  0  0  0  0  0  0
   -5.6094   23.4676    3.8719 C   0  0  0  0  0  0  0  0  0  0  0  0
   -4.4609   27.2204    3.8991 H   0  0  0  0  0  0  0  0  0  0  0  0
   -4.3442   28.4956    6.4299 C   0  0  0  0  0  0  0  0  0  0  0  0
   -4.6321   29.5692    7.2713 C   0  0  0  0  0  0  0  0  0  0  0  0
   -5.8657   30.2111    7.1653 C   0  0  0  0  0  0  0  0  0  0  0  0
   -6.7817   29.7563    6.2249 C   0  0  0  0  0  0  0  0  0  0  0  0
   -8.1141   30.4286    6.0747 C   0  0  0  0  0  0  0  0  0  0  0  0
   -6.5275   28.7062    5.4147 N   0  0  0  0  0  0  0  0  0  0  0  0
   -5.3285   28.0954    5.5100 C   0  0  0  0  0  0  0  0  0  0  0  0
   -2.3100   27.9499    7.5450 C   0  0  0  0  0  0  0  0  0  0  0  0
   -3.1664   27.7866    6.4214 O   0  0  0  0  0  0  0  0  0  0  0  0
 24 25  1  0  0  0
 25 17  1  0  0  0
 17 18  2  0  0  0
 18 19  1  0  0  0
 19 20  2  0  0  0
 20 21  1  0  0  0
 20 22  1  0  0  0
 22 23  2  0  0  0
 23  1  1  0  0  0
  1  2  1  0  0  0
  2  3  2  0  0  0
  2  4  1  0  0  0
  4  5  1  0  0  0
  5  6  1  0  0  0
  6  7  1  0  0  0
  7  8  1  0  0  0
  8  9  2  0  0  0
  9 10  1  0  0  0
 10 11  2  0  0  0
 11 12  1  0  0  0
 12 13  2  0  0  0
 13 14  1  0  0  0
 14 15  1  0  0  0
 23 17  1  0  0  0
 15  4  1  0  0  0
 13  8  1  0  0  0
  1 16  1  0  0  0
M  END
> <minimizedAffinity>
-7.97821

$$$$
OCNT-2314459


 23 24  0  0  0  0  0  0  0  0999 V2000
   -5.3758   33.0067    8.0652 C   0  0  0  0  0  0  0  0  0  0  0  0
   -4.4094   31.8960    7.8668 C   0  0  0  0  0  0  0  0  0  0  0  0
   -3.2395   32.1415    7.2611 N   0  0  0  0  0  0  0  0  0  0  0  0
   -2.6198   30.9509    7.2197 N   0  0  0  0  0  0  0  0  0  0  0  0
   -1.3155   30.8712    6.6001 C   0  0  0  0  0  0  0  0  0  0  0  0
   -3.3487   29.9321    7.7789 C   0  0  0  0  0  0  0  0  0  0  0  0
   -4.5206   30.5336    8.2252 C   0  0  0  0  0  0  0  0  0  0  0  0
   -5.8664   29.7848    8.9914 S   0  0  0  0  0  0  0  0  0  0  0  0
   -5.2782   28.5980   10.0137 N   0  0  0  0  0  0  0  0  0  0  0  0
   -6.6176   29.1224    7.9540 O   0  0  0  0  0  0  0  0  0  0  0  0
   -6.4424   30.8182    9.8191 O   0  0  0  0  0  0  0  0  0  0  0  0
   -5.0285   28.9779   10.9340 H   0  0  0  0  0  0  0  0  0  0  0  0
   -5.9435   27.8278   10.0868 H   0  0  0  0  0  0  0  0  0  0  0  0
   -2.8808   28.5151    7.8313 C   0  0  0  0  0  0  0  0  0  0  0  0
   -3.1480   27.8286    6.5770 N   0  0  0  0  0  0  0  0  0  0  0  0
   -2.2893   26.9856    5.9339 C   0  0  0  0  0  0  0  0  0  0  0  0
   -2.8651   26.4244    4.8963 N   0  0  0  0  0  0  0  0  0  0  0  0
   -4.1236   26.9847    4.8084 C   0  0  0  0  0  0  0  0  0  0  0  0
   -4.3037   27.8792    5.8450 C   0  0  0  0  0  0  0  0  0  0  0  0
   -5.0598   26.5834    3.6890 C   0  0  0  0  0  0  0  0  0  0  0  0
   -4.2434   26.0209    2.5100 C   0  0  0  0  0  0  0  0  0  0  0  0
   -6.0376   25.4990    4.1849 C   0  0  0  0  0  0  0  0  0  0  0  0
   -5.8913   27.7776    3.1793 C   0  0  0  0  0  0  0  0  0  0  0  0
  1  2  1  0  0  0
  2  3  2  0  0  0
  3  4  1  0  0  0
  4  5  1  0  0  0
  4  6  1  0  0  0
  6 14  1  0  0  0
 14 15  1  0  0  0
 15 16  1  0  0  0
 16 17  2  0  0  0
 17 18  1  0  0  0
 18 20  1  0  0  0
 20 21  1  0  0  0
 20 22  1  0  0  0
 20 23  1  0  0  0
 18 19  2  0  0  0
  6  7  2  0  0  0
  7  8  1  0  0  0
  8  9  1  0  0  0
  8 10  2  0  0  0
  8 11  2  0  0  0
  7  2  1  0  0  0
 19 15  1  0  0  0
  9 12  1  0  0  0
  9 13  1  0  0  0
M  END
> <minimizedAffinity>
-7.43449

$$$$
OCNT-2314462


 23 25  0  0  0  0  0  0  0  0999 V2000
   -4.5345   25.5823    1.8995 N   0  0  0  0  0  0  0  0  0  0  0  0
   -3.5313   25.4212    1.8852 H   0  0  0  0  0  0  0  0  0  0  0  0
   -5.3814   24.6897    1.1914 C   0  0  0  0  0  0  0  0  0  0  0  0
   -6.1753   25.1527    0.1381 C   0  0  0  0  0  0  0  0  0  0  0  0
   -7.0510   24.2985   -0.5281 C   0  0  0  0  0  0  0  0  0  0  0  0
   -7.1639   22.9570   -0.1481 C   0  0  0  0  0  0  0  0  0  0  0  0
   -6.3862   22.4724    0.9216 C   0  0  0  0  0  0  0  0  0  0  0  0
   -5.5105   23.3462    1.5710 C   0  0  0  0  0  0  0  0  0  0  0  0
   -4.9047   22.6260    2.5780 N   0  0  0  0  0  0  0  0  0  0  0  0
   -5.3538   21.3328    2.5773 C   0  0  0  0  0  0  0  0  0  0  0  0
   -6.2711   21.2071    1.5603 C   0  0  0  0  0  0  0  0  0  0  0  0
   -4.2355   23.0043    3.2327 H   0  0  0  0  0  0  0  0  0  0  0  0
   -5.0838   26.2746    3.3358 S   0  0  0  0  0  0  0  0  0  0  0  0
   -5.5624   27.5945    2.9797 O   0  0  0  0  0  0  0  0  0  0  0  0
   -5.9279   25.3350    4.0404 O   0  0  0  0  0  0  0  0  0  0  0  0
    0.0758   25.4949    4.0558 C   0  0  0  0  0  0  0  0  0  0  0  0
   -1.2183   26.0666    4.5560 C   0  0  0  0  0  0  0  0  0  0  0  0
   -2.3941   25.9236    3.8094 C   0  0  0  0  0  0  0  0  0  0  0  0
   -3.5885   26.4879    4.2747 C   0  0  0  0  0  0  0  0  0  0  0  0
   -3.6188   27.2350    5.4544 C   0  0  0  0  0  0  0  0  0  0  0  0
   -2.4469   27.3799    6.1889 C   0  0  0  0  0  0  0  0  0  0  0  0
   -2.4716   28.3625    7.8035 Br  0  0  0  0  0  0  0  0  0  0  0  0
   -1.2527   26.8052    5.7474 C   0  0  0  0  0  0  0  0  0  0  0  0
 16 17  1  0  0  0
 17 18  2  0  0  0
 18 19  1  0  0  0
 19 13  1  0  0  0
 13 14  2  0  0  0
 13 15  2  0  0  0
 13  1  1  0  0  0
  1  3  1  0  0  0
  3  4  1  0  0  0
  4  5  2  0  0  0
  5  6  1  0  0  0
  6  7  2  0  0  0
  7  8  1  0  0  0
  8  9  1  0  0  0
  9 10  1  0  0  0
 10 11  2  0  0  0
 19 20  2  0  0  0
 20 21  1  0  0  0
 21 22  1  0  0  0
 21 23  2  0  0  0
 23 17  1  0  0  0
  8  3  2  0  0  0
 11  7  1  0  0  0
  1  2  1  0  0  0
  9 12  1  0  0  0
M  END
> <minimizedAffinity>
-9.38768

$$$$
OCNT-2314467


 24 26  0  0  0  0  0  0  0  0999 V2000
   -5.8630   27.6875    3.2345 C   0  0  0  0  0  0  0  0  0  0  0  0
   -4.6503   27.0515    3.8110 C   0  0  0  0  0  0  0  0  0  0  0  0
   -3.7990   26.1492    3.1946 C   0  0  0  0  0  0  0  0  0  0  0  0
   -2.5193   25.7497    4.2695 S   0  0  0  0  0  0  0  0  0  0  0  0
   -3.2100   26.7563    5.4794 C   0  0  0  0  0  0  0  0  0  0  0  0
   -4.3080   27.3756    5.1142 N   0  0  0  0  0  0  0  0  0  0  0  0
   -2.6206   26.8519    6.6928 N   0  0  0  0  0  0  0  0  0  0  0  0
   -3.2335   27.1304    7.4497 H   0  0  0  0  0  0  0  0  0  0  0  0
   -1.2929   27.4373    6.7782 C   0  0  0  0  0  0  0  0  0  0  0  0
   -1.1627   28.6108    7.6914 C   0  0  0  0  0  0  0  0  0  0  0  0
   -2.1724   29.3588    8.2660 C   0  0  0  0  0  0  0  0  0  0  0  0
   -1.5631   30.3209    9.0138 N   0  0  0  0  0  0  0  0  0  0  0  0
   -2.2069   31.3592    9.7819 C   0  0  0  0  0  0  0  0  0  0  0  0
   -0.2187   30.2511    8.9814 N   0  0  0  0  0  0  0  0  0  0  0  0
    0.0216   29.2210    8.1661 C   0  0  0  0  0  0  0  0  0  0  0  0
   -3.8472   25.5667    1.8125 C   0  0  0  0  0  0  0  0  0  0  0  0
   -4.8454   24.4449    1.6749 C   0  0  0  0  0  0  0  0  0  0  0  0
   -6.0661   24.6414    1.0239 C   0  0  0  0  0  0  0  0  0  0  0  0
   -6.3442   25.8317    0.4727 F   0  0  0  0  0  0  0  0  0  0  0  0
   -7.0144   23.6235    0.9250 C   0  0  0  0  0  0  0  0  0  0  0  0
   -6.7497   22.3744    1.4837 C   0  0  0  0  0  0  0  0  0  0  0  0
   -5.5333   22.1543    2.1314 C   0  0  0  0  0  0  0  0  0  0  0  0
   -4.5966   23.1833    2.2202 C   0  0  0  0  0  0  0  0  0  0  0  0
   -3.4345   22.9423    2.8443 F   0  0  0  0  0  0  0  0  0  0  0  0
  1  2  1  0  0  0
  2  3  2  0  0  0
  3 16  1  0  0  0
 16 17  1  0  0  0
 17 18  2  0  0  0
 18 19  1  0  0  0
 18 20  1  0  0  0
 20 21  2  0  0  0
 21 22  1  0  0  0
 22 23  2  0  0  0
 23 24  1  0  0  0
  3  4  1  0  0  0
  4  5  1  0  0  0
  5  7  1  0  0  0
  7  9  1  0  0  0
  9 10  1  0  0  0
 10 11  2  0  0  0
 11 12  1  0  0  0
 12 13  1  0  0  0
 12 14  1  0  0  0
 14 15  2  0  0  0
  5  6  2  0  0  0
  6  2  1  0  0  0
 23 17  1  0  0  0
 15 10  1  0  0  0
  7  8  1  0  0  0
M  END
> <minimizedAffinity>
-8.72639

$$$$
OCNT-2314468


 27 31  0  0  0  0  0  0  0  0999 V2000
    1.7956   29.3432    8.4533 F   0  0  0  0  0  0  0  0  0  0  0  0
    0.4620   29.3523    8.3207 C   0  0  0  0  0  0  0  0  0  0  0  0
   -0.1397   28.4317    7.4753 C   0  0  0  0  0  0  0  0  0  0  0  0
   -1.5312   28.4220    7.3193 C   0  0  0  0  0  0  0  0  0  0  0  0
   -2.3237   29.3525    8.0306 C   0  0  0  0  0  0  0  0  0  0  0  0
   -1.6713   30.2670    8.8678 C   0  0  0  0  0  0  0  0  0  0  0  0
   -0.2812   30.2898    9.0341 C   0  0  0  0  0  0  0  0  0  0  0  0
   -2.6407   31.0638    9.4284 N   0  0  0  0  0  0  0  0  0  0  0  0
   -3.8765   30.6955    8.9836 C   0  0  0  0  0  0  0  0  0  0  0  0
   -5.0148   31.3001    9.3506 N   0  0  0  0  0  0  0  0  0  0  0  0
   -6.0760   30.7367    8.7556 C   0  0  0  0  0  0  0  0  0  0  0  0
   -6.0925   29.6936    7.9055 N   0  0  0  0  0  0  0  0  0  0  0  0
   -4.9205   29.0990    7.5650 C   0  0  0  0  0  0  0  0  0  0  0  0
   -3.7328   29.6230    8.1169 C   0  0  0  0  0  0  0  0  0  0  0  0
   -2.4820   31.8231   10.0729 H   0  0  0  0  0  0  0  0  0  0  0  0
   -4.9258   28.0199    6.6905 N   0  0  0  0  0  0  0  0  0  0  0  0
   -4.9351   27.1172    7.1639 H   0  0  0  0  0  0  0  0  0  0  0  0
   -5.7665   28.0937    5.5037 C   0  0  0  0  0  0  0  0  0  0  0  0
   -5.4742   29.3521    4.6860 C   0  0  0  0  0  0  0  0  0  0  0  0
   -5.9542   29.0331    3.2714 C   0  0  0  0  0  0  0  0  0  0  0  0
   -6.1327   27.5144    3.2009 C   0  0  0  0  0  0  0  0  0  0  0  0
   -5.5228   26.9548    4.4921 C   0  0  0  0  0  0  0  0  0  0  0  0
   -4.1322   26.5378    4.3866 N   0  0  0  0  0  0  0  0  0  0  0  0
   -3.3239   26.4877    3.2857 C   0  0  0  0  0  0  0  0  0  0  0  0
   -2.1071   26.0156    3.7175 C   0  0  0  0  0  0  0  0  0  0  0  0
   -2.2719   25.8142    5.0970 C   0  0  0  0  0  0  0  0  0  0  0  0
   -3.4963   26.1410    5.5164 N   0  0  0  0  0  0  0  0  0  0  0  0
  1  2  1  0  0  0
  2  3  2  0  0  0
  3  4  1  0  0  0
  4  5  2  0  0  0
  5  6  1  0  0  0
  6  7  2  0  0  0
  6  8  1  0  0  0
  8  9  1  0  0  0
  9 10  2  0  0  0
 10 11  1  0  0  0
 11 12  2  0  0  0
 12 13  1  0  0  0
 13 16  1  0  0  0
 16 18  1  0  0  0
 18 19  1  0  0  0
 19 20  1  0  0  0
 20 21  1  0  0  0
 21 22  1  0  0  0
 22 23  1  0  0  0
 23 24  1  0  0  0
 24 25  2  0  0  0
 25 26  1  0  0  0
 26 27  2  0  0  0
 13 14  2  0  0  0
  7  2  1  0  0  0
 14  9  1  0  0  0
 14  5  1  0  0  0
 22 18  1  0  0  0
 27 23  1  0  0  0
  8 15  1  0  0  0
 16 17  1  0  0  0
M  END
> <minimizedAffinity>
-9.61789

$$$$
OCNT-2314473


 24 27  0  0  0  0  0  0  0  0999 V2000
   -4.7163   24.4442    2.3491 N   0  0  0  0  0  0  0  0  0  0  0  0
   -5.0701   24.1322    3.7356 C   0  0  0  0  0  0  0  0  0  0  0  0
   -5.9767   25.1843    4.3714 C   0  0  0  0  0  0  0  0  0  0  0  0
   -5.5490   26.6186    4.0845 C   0  0  0  0  0  0  0  0  0  0  0  0
   -4.1234   26.8166    4.2897 N   0  0  0  0  0  0  0  0  0  0  0  0
   -3.1655   26.2438    3.3157 C   0  0  0  0  0  0  0  0  0  0  0  0
   -3.7946   25.5678    2.0729 C   0  0  0  0  0  0  0  0  0  0  0  0
   -3.5629   27.2598    5.4842 C   0  0  0  0  0  0  0  0  0  0  0  0
   -2.5224   26.5236    5.9845 N   0  0  0  0  0  0  0  0  0  0  0  0
   -1.9060   26.8939    7.1199 C   0  0  0  0  0  0  0  0  0  0  0  0
   -2.1812   27.9460    7.8959 N   0  0  0  0  0  0  0  0  0  0  0  0
   -3.2085   28.6501    7.4050 C   0  0  0  0  0  0  0  0  0  0  0  0
   -3.9417   28.3976    6.2485 C   0  0  0  0  0  0  0  0  0  0  0  0
   -4.9310   29.4316    6.2040 C   0  0  0  0  0  0  0  0  0  0  0  0
   -4.7568   30.2598    7.2933 C   0  0  0  0  0  0  0  0  0  0  0  0
   -3.7016   29.7718    8.0110 N   0  0  0  0  0  0  0  0  0  0  0  0
   -3.3275   30.1534    8.8675 H   0  0  0  0  0  0  0  0  0  0  0  0
   -5.4057   21.7065    1.8015 F   0  0  0  0  0  0  0  0  0  0  0  0
   -5.9442   22.7141    1.0958 C   0  0  0  0  0  0  0  0  0  0  0  0
   -6.8569   22.3805    0.0974 C   0  0  0  0  0  0  0  0  0  0  0  0
   -7.4503   23.3903   -0.6421 C   0  0  0  0  0  0  0  0  0  0  0  0
   -7.1004   24.6920   -0.3419 C   0  0  0  0  0  0  0  0  0  0  0  0
   -6.2144   25.0345    0.6226 N   0  0  0  0  0  0  0  0  0  0  0  0
   -5.6176   24.0572    1.3538 C   0  0  0  0  0  0  0  0  0  0  0  0
 18 19  1  0  0  0
 19 20  1  0  0  0
 20 21  2  0  0  0
 21 22  1  0  0  0
 22 23  2  0  0  0
 23 24  1  0  0  0
 24  1  1  0  0  0
  1  2  1  0  0  0
  2  3  1  0  0  0
  3  4  1  0  0  0
  4  5  1  0  0  0
  5  8  1  0  0  0
  8  9  1  0  0  0
  9 10  2  0  0  0
 10 11  1  0  0  0
 11 12  2  0  0  0
 12 13  1  0  0  0
 13 14  1  0  0  0
 14 15  2  0  0  0
 15 16  1  0  0  0
  5  6  1  0  0  0
  6  7  1  0  0  0
 24 19  2  0  0  0
  7  1  1  0  0  0
 13  8  2  0  0  0
 16 12  1  0  0  0
 16 17  1  0  0  0
M  END
> <minimizedAffinity>
-8.95501

$$$$
OCNT-2314478


 33 36  0  0  0  0  0  0  0  0999 V2000
   -2.1820   28.6070    6.0748 N   0  0  0  0  0  0  0  0  0  0  0  0
   -2.1174   27.2413    6.3397 C   0  0  0  0  0  0  0  0  0  0  0  0
   -2.0270   26.7494    7.4598 O   0  0  0  0  0  0  0  0  0  0  0  0
   -1.7654   28.8997    5.1985 H   0  0  0  0  0  0  0  0  0  0  0  0
   -1.3014   32.1042    9.6245 C   0  0  0  0  0  0  0  0  0  0  0  0
   -1.9632   31.1878    8.6497 C   0  0  0  0  0  0  0  0  0  0  0  0
   -3.3041   31.2061    8.2851 C   0  0  0  0  0  0  0  0  0  0  0  0
   -4.3834   32.0966    8.8106 C   0  0  0  0  0  0  0  0  0  0  0  0
   -3.5266   30.1520    7.4035 N   0  0  0  0  0  0  0  0  0  0  0  0
   -2.2971   29.5597    7.0924 C   0  0  0  0  0  0  0  0  0  0  0  0
   -1.3507   30.1113    7.9429 C   0  0  0  0  0  0  0  0  0  0  0  0
   -4.7877   29.7433    6.8816 C   0  0  0  0  0  0  0  0  0  0  0  0
   -5.6649   29.0110    7.6940 C   0  0  0  0  0  0  0  0  0  0  0  0
   -6.9000   28.6021    7.1900 C   0  0  0  0  0  0  0  0  0  0  0  0
   -7.2593   28.9202    5.8812 C   0  0  0  0  0  0  0  0  0  0  0  0
   -6.3873   29.6501    5.0734 C   0  0  0  0  0  0  0  0  0  0  0  0
   -5.1507   30.0658    5.5709 C   0  0  0  0  0  0  0  0  0  0  0  0
   -0.0031   29.6529    8.1387 C   0  0  0  0  0  0  0  0  0  0  0  0
    1.0481   29.1844    8.2917 N   0  0  0  0  0  0  0  0  0  0  0  0
   -2.1029   26.4071    5.0444 C   0  0  0  0  0  0  0  0  0  0  0  0
   -3.4605   26.1322    4.5366 N   0  0  0  0  0  0  0  0  0  0  0  0
   -3.4445   25.7179    3.1165 C   0  0  0  0  0  0  0  0  0  0  0  0
   -4.8580   25.4174    2.5839 C   0  0  0  0  0  0  0  0  0  0  0  0
   -5.5665   24.4425    3.4235 N   0  0  0  0  0  0  0  0  0  0  0  0
   -6.6897   23.7413    2.9585 C   0  0  0  0  0  0  0  0  0  0  0  0
   -7.6203   23.4759    3.7224 O   0  0  0  0  0  0  0  0  0  0  0  0
   -5.5422   24.7741    4.8477 C   0  0  0  0  0  0  0  0  0  0  0  0
   -4.1212   25.0910    5.3471 C   0  0  0  0  0  0  0  0  0  0  0  0
   -6.7238   23.3074    1.5715 C   0  0  0  0  0  0  0  0  0  0  0  0
   -7.5694   23.6822    0.5419 C   0  0  0  0  0  0  0  0  0  0  0  0
   -7.2114   22.9115   -0.5902 C   0  0  0  0  0  0  0  0  0  0  0  0
   -6.1883   22.0917   -0.1813 C   0  0  0  0  0  0  0  0  0  0  0  0
   -5.8961   22.3093    1.1262 O   0  0  0  0  0  0  0  0  0  0  0  0
  5  6  1  0  0  0
  6  7  2  0  0  0
  7  8  1  0  0  0
  7  9  1  0  0  0
  9 12  1  0  0  0
 12 13  2  0  0  0
 13 14  1  0  0  0
 14 15  2  0  0  0
 15 16  1  0  0  0
 16 17  2  0  0  0
  9 10  1  0  0  0
 10  1  1  0  0  0
  1  2  1  0  0  0
  2  3  2  0  0  0
  2 20  1  0  0  0
 20 21  1  0  0  0
 21 22  1  0  0  0
 22 23  1  0  0  0
 23 24  1  0  0  0
 24 25  1  0  0  0
 25 26  2  0  0  0
 25 29  1  0  0  0
 29 30  2  0  0  0
 30 31  1  0  0  0
 31 32  2  0  0  0
 32 33  1  0  0  0
 24 27  1  0  0  0
 27 28  1  0  0  0
 10 11  2  0  0  0
 11 18  1  0  0  0
 18 19  3  0  0  0
 11  6  1  0  0  0
 17 12  1  0  0  0
 28 21  1  0  0  0
 33 29  1  0  0  0
  1  4  1  0  0  0
M  END
> <minimizedAffinity>
-9.72726

$$$$
OCNT-2314480


 26 29  0  0  0  0  0  0  0  0999 V2000
   -4.4292   26.6654    5.7282 C   0  0  0  0  0  0  0  0  0  0  0  0
   -3.9969   28.0788    5.7054 N   0  0  0  0  0  0  0  0  0  0  0  0
   -5.0893   29.0030    6.0690 C   0  0  0  0  0  0  0  0  0  0  0  0
   -4.6200   30.3512    6.6534 C   0  0  0  0  0  0  0  0  0  0  0  0
   -3.7677   30.1810    7.8380 N   0  0  0  0  0  0  0  0  0  0  0  0
   -3.3688   31.2040    8.7206 C   0  0  0  0  0  0  0  0  0  0  0  0
   -2.4920   30.9818    9.5630 O   0  0  0  0  0  0  0  0  0  0  0  0
   -3.0883   28.8825    7.9282 C   0  0  0  0  0  0  0  0  0  0  0  0
   -2.8006   28.2858    6.5427 C   0  0  0  0  0  0  0  0  0  0  0  0
   -3.9660   32.5316    8.6421 C   0  0  0  0  0  0  0  0  0  0  0  0
   -4.2377   33.4446    9.6609 C   0  0  0  0  0  0  0  0  0  0  0  0
   -4.8869   34.5474    9.0762 C   0  0  0  0  0  0  0  0  0  0  0  0
   -4.9843   34.2510    7.7366 C   0  0  0  0  0  0  0  0  0  0  0  0
   -4.4387   33.0376    7.4668 O   0  0  0  0  0  0  0  0  0  0  0  0
   -1.8039   25.9557    3.7264 C   0  0  0  0  0  0  0  0  0  0  0  0
   -3.2669   25.7836    3.5797 C   0  0  0  0  0  0  0  0  0  0  0  0
   -4.3730   26.0417    4.3705 C   0  0  0  0  0  0  0  0  0  0  0  0
   -5.5230   25.6524    3.6977 N   0  0  0  0  0  0  0  0  0  0  0  0
   -5.0848   25.1665    2.5533 C   0  0  0  0  0  0  0  0  0  0  0  0
   -3.7151   25.2192    2.4162 O   0  0  0  0  0  0  0  0  0  0  0  0
   -5.8451   24.6012    1.4384 C   0  0  0  0  0  0  0  0  0  0  0  0
   -6.2466   25.3830    0.3433 C   0  0  0  0  0  0  0  0  0  0  0  0
   -6.9851   24.8265   -0.7024 C   0  0  0  0  0  0  0  0  0  0  0  0
   -7.3285   23.4791   -0.6676 C   0  0  0  0  0  0  0  0  0  0  0  0
   -6.9349   22.6844    0.4097 C   0  0  0  0  0  0  0  0  0  0  0  0
   -6.1994   23.2423    1.4559 C   0  0  0  0  0  0  0  0  0  0  0  0
 15 16  1  0  0  0
 16 17  2  0  0  0
 17  1  1  0  0  0
  1  2  1  0  0  0
  2  3  1  0  0  0
  3  4  1  0  0  0
  4  5  1  0  0  0
  5  6  1  0  0  0
  6  7  2  0  0  0
  6 10  1  0  0  0
 10 11  2  0  0  0
 11 12  1  0  0  0
 12 13  2  0  0  0
 13 14  1  0  0  0
  5  8  1  0  0  0
  8  9  1  0  0  0
 17 18  1  0  0  0
 18 19  2  0  0  0
 19 21  1  0  0  0
 21 22  2  0  0  0
 22 23  1  0  0  0
 23 24  2  0  0  0
 24 25  1  0  0  0
 25 26  2  0  0  0
 19 20  1  0  0  0
 20 16  1  0  0  0
  9  2  1  0  0  0
 26 21  1  0  0  0
 14 10  1  0  0  0
M  END
> <minimizedAffinity>
-9.87779

$$$$
OCNT-2314484


 31 33  0  0  0  0  0  0  0  0999 V2000
   -4.7242   25.5991    3.2584 C   0  0  0  0  0  0  0  0  0  0  0  0
   -5.7874   26.5036    3.2564 C   0  0  0  0  0  0  0  0  0  0  0  0
   -5.8100   27.5382    4.1936 C   0  0  0  0  0  0  0  0  0  0  0  0
   -4.7692   27.6823    5.1230 C   0  0  0  0  0  0  0  0  0  0  0  0
   -4.9392   28.9646    6.2695 Cl  0  0  0  0  0  0  0  0  0  0  0  0
   -3.6854   26.7898    5.1048 C   0  0  0  0  0  0  0  0  0  0  0  0
   -3.6698   25.7451    4.1635 C   0  0  0  0  0  0  0  0  0  0  0  0
   -2.5252   26.8431    6.0354 C   0  0  0  0  0  0  0  0  0  0  0  0
   -2.3353   25.9170    6.8158 O   0  0  0  0  0  0  0  0  0  0  0  0
   -1.6825   27.9196    5.9206 N   0  0  0  0  0  0  0  0  0  0  0  0
   -1.8169   28.5659    5.1458 H   0  0  0  0  0  0  0  0  0  0  0  0
   -0.3894   27.9785    6.5789 C   0  0  0  0  0  0  0  0  0  0  0  0
    0.1369   29.4132    6.6718 C   0  0  0  0  0  0  0  0  0  0  0  0
   -0.8975   30.3253    7.2692 C   0  0  0  0  0  0  0  0  0  0  0  0
   -1.8989   30.8425    6.5875 N   0  0  0  0  0  0  0  0  0  0  0  0
   -2.6911   31.6140    7.4214 C   0  0  0  0  0  0  0  0  0  0  0  0
   -3.8511   32.3176    7.0394 C   0  0  0  0  0  0  0  0  0  0  0  0
   -4.5627   33.0543    7.9918 C   0  0  0  0  0  0  0  0  0  0  0  0
   -4.1326   33.0971    9.3147 C   0  0  0  0  0  0  0  0  0  0  0  0
   -2.9844   32.4080    9.7182 C   0  0  0  0  0  0  0  0  0  0  0  0
   -2.2774   31.6714    8.7530 C   0  0  0  0  0  0  0  0  0  0  0  0
   -0.8485   30.7285    8.9362 S   0  0  0  0  0  0  0  0  0  0  0  0
   -4.6947   24.2991    2.0516 S   0  0  0  0  0  0  0  0  0  0  0  0
   -4.0436   23.1458    2.6262 O   0  0  0  0  0  0  0  0  0  0  0  0
   -4.2157   24.8902    0.8200 O   0  0  0  0  0  0  0  0  0  0  0  0
   -6.3064   23.9644    1.7887 N   0  0  0  0  0  0  0  0  0  0  0  0
   -6.9351   24.6352    2.2286 H   0  0  0  0  0  0  0  0  0  0  0  0
   -7.8238   23.3641    0.0098 C   0  0  0  0  0  0  0  0  0  0  0  0
   -6.8960   22.7992    1.1017 C   0  0  0  0  0  0  0  0  0  0  0  0
   -5.8611   21.8975    0.4296 C   0  0  0  0  0  0  0  0  0  0  0  0
   -7.7438   21.9983    2.0950 C   0  0  0  0  0  0  0  0  0  0  0  0
 28 29  1  0  0  0
 29 30  1  0  0  0
 29 31  1  0  0  0
 29 26  1  0  0  0
 26 23  1  0  0  0
 23 24  2  0  0  0
 23 25  2  0  0  0
 23  1  1  0  0  0
  1  2  1  0  0  0
  2  3  2  0  0  0
  3  4  1  0  0  0
  4  5  1  0  0  0
  4  6  2  0  0  0
  6  8  1  0  0  0
  8  9  2  0  0  0
  8 10  1  0  0  0
 10 12  1  0  0  0
 12 13  1  0  0  0
 13 14  1  0  0  0
 14 15  2  0  0  0
 15 16  1  0  0  0
 16 17  2  0  0  0
 17 18  1  0  0  0
 18 19  2  0  0  0
 19 20  1  0  0  0
 20 21  2  0  0  0
 21 22  1  0  0  0
  6  7  1  0  0  0
  7  1  2  0  0  0
 22 14  1  0  0  0
 21 16  1  0  0  0
 26 27  1  0  0  0
 10 11  1  0  0  0
M  END
> <minimizedAffinity>
-9.78864

$$$$
OCNT-2314494


 26 29  0  0  0  0  0  0  0  0999 V2000
   -6.2679   28.2647    6.2303 O   0  0  0  0  0  0  0  0  0  0  0  0
   -5.0818   28.4447    5.9774 C   0  0  0  0  0  0  0  0  0  0  0  0
   -4.3222   27.7137    5.0742 N   0  0  0  0  0  0  0  0  0  0  0  0
   -3.3572   28.0004    4.9615 H   0  0  0  0  0  0  0  0  0  0  0  0
   -4.7309   26.5996    4.3119 C   0  0  0  0  0  0  0  0  0  0  0  0
   -5.6863   25.6714    4.7286 C   0  0  0  0  0  0  0  0  0  0  0  0
   -6.0384   24.5878    3.9110 C   0  0  0  0  0  0  0  0  0  0  0  0
   -5.4344   24.4181    2.6575 C   0  0  0  0  0  0  0  0  0  0  0  0
   -4.4813   25.3469    2.2466 C   0  0  0  0  0  0  0  0  0  0  0  0
   -3.8652   25.2454    1.0615 F   0  0  0  0  0  0  0  0  0  0  0  0
   -4.1309   26.4260    3.0610 C   0  0  0  0  0  0  0  0  0  0  0  0
   -5.7998   23.3215    1.8460 N   0  0  0  0  0  0  0  0  0  0  0  0
   -5.5521   21.9793    1.9934 C   0  0  0  0  0  0  0  0  0  0  0  0
   -6.0859   21.3218    0.9890 N   0  0  0  0  0  0  0  0  0  0  0  0
   -6.6783   22.2681    0.1988 N   0  0  0  0  0  0  0  0  0  0  0  0
   -6.5132   23.4814    0.7047 N   0  0  0  0  0  0  0  0  0  0  0  0
   -4.2974   29.5952    6.5822 C   0  0  0  0  0  0  0  0  0  0  0  0
   -3.2215   29.0759    7.5330 C   0  0  0  0  0  0  0  0  0  0  0  0
   -2.1752   28.5168    6.6896 O   0  0  0  0  0  0  0  0  0  0  0  0
   -0.9940   28.1574    7.4224 C   0  0  0  0  0  0  0  0  0  0  0  0
   -0.2651   29.4243    7.8876 C   0  0  0  0  0  0  0  0  0  0  0  0
   -1.2365   30.3297    8.5742 C   0  0  0  0  0  0  0  0  0  0  0  0
   -2.5977   30.1655    8.3829 C   0  0  0  0  0  0  0  0  0  0  0  0
   -3.5055   31.2641    9.3212 S   0  0  0  0  0  0  0  0  0  0  0  0
   -2.0899   32.0110    9.9261 C   0  0  0  0  0  0  0  0  0  0  0  0
   -0.9434   31.4113    9.4532 C   0  0  0  0  0  0  0  0  0  0  0  0
  1  2  2  0  0  0
  2 17  1  0  0  0
 17 18  1  0  0  0
 18 19  1  0  0  0
 19 20  1  0  0  0
 20 21  1  0  0  0
 21 22  1  0  0  0
 22 23  2  0  0  0
 23 24  1  0  0  0
 24 25  1  0  0  0
 25 26  2  0  0  0
  2  3  1  0  0  0
  3  5  1  0  0  0
  5  6  1  0  0  0
  6  7  2  0  0  0
  7  8  1  0  0  0
  8 12  1  0  0  0
 12 13  1  0  0  0
 13 14  2  0  0  0
 14 15  1  0  0  0
 15 16  2  0  0  0
  8  9  2  0  0  0
  9 10  1  0  0  0
  9 11  1  0  0  0
 23 18  1  0  0  0
 11  5  2  0  0  0
 26 22  1  0  0  0
 16 12  1  0  0  0
  3  4  1  0  0  0
M  END
> <minimizedAffinity>
-9.21568

$$$$
OCNT-2314500


 27 29  0  0  0  0  0  0  0  0999 V2000
   -5.2911   29.9298    7.0380 C   0  0  0  0  0  0  0  0  0  0  0  0
   -4.1361   29.9168    6.3286 N   0  0  0  0  0  0  0  0  0  0  0  0
   -2.9963   30.3801    6.8922 C   0  0  0  0  0  0  0  0  0  0  0  0
   -2.9482   30.8610    8.1777 C   0  0  0  0  0  0  0  0  0  0  0  0
   -4.1293   30.9264    8.9068 C   0  0  0  0  0  0  0  0  0  0  0  0
   -5.3292   30.4656    8.3305 C   0  0  0  0  0  0  0  0  0  0  0  0
   -5.2290   25.2404    1.4433 C   0  0  0  0  0  0  0  0  0  0  0  0
   -5.5929   25.9437    2.7170 C   0  0  0  0  0  0  0  0  0  0  0  0
   -5.7781   25.2215    3.8984 C   0  0  0  0  0  0  0  0  0  0  0  0
   -6.0792   25.8832    5.0904 C   0  0  0  0  0  0  0  0  0  0  0  0
   -6.1893   27.2827    5.1305 C   0  0  0  0  0  0  0  0  0  0  0  0
   -6.5408   27.9495    6.4447 C   0  0  0  0  0  0  0  0  0  0  0  0
   -6.4411   29.4198    6.4381 N   0  0  0  0  0  0  0  0  0  0  0  0
   -6.8434   30.0510    5.1720 C   0  0  0  0  0  0  0  0  0  0  0  0
   -6.0915   29.5138    3.9527 C   0  0  0  0  0  0  0  0  0  0  0  0
   -6.0096   28.0105    3.9445 C   0  0  0  0  0  0  0  0  0  0  0  0
   -5.6947   27.3391    2.7522 C   0  0  0  0  0  0  0  0  0  0  0  0
   -1.4335   31.4467    8.8417 S   0  0  0  0  0  0  0  0  0  0  0  0
   -1.8660   31.8400   10.4191 N   0  0  0  0  0  0  0  0  0  0  0  0
   -0.5204   30.3337    8.9557 O   0  0  0  0  0  0  0  0  0  0  0  0
   -1.0878   32.6688    8.1576 O   0  0  0  0  0  0  0  0  0  0  0  0
   -1.3384   31.2536   11.0694 H   0  0  0  0  0  0  0  0  0  0  0  0
   -2.8677   31.8085   10.6033 H   0  0  0  0  0  0  0  0  0  0  0  0
   -6.6236   30.6039    9.0812 C   0  0  0  0  0  0  0  0  0  0  0  0
   -7.1669   29.4216    9.4801 F   0  0  0  0  0  0  0  0  0  0  0  0
   -6.5182   31.3782   10.1988 F   0  0  0  0  0  0  0  0  0  0  0  0
   -7.5979   31.2068    8.3343 F   0  0  0  0  0  0  0  0  0  0  0  0
  7  8  1  0  0  0
  8  9  1  0  0  0
  9 10  2  0  0  0
 10 11  1  0  0  0
 11 12  1  0  0  0
 12 13  1  0  0  0
 13  1  1  0  0  0
  1  2  1  0  0  0
  2  3  2  0  0  0
  3  4  1  0  0  0
  4 18  1  0  0  0
 18 19  1  0  0  0
 18 20  2  0  0  0
 18 21  2  0  0  0
  4  5  2  0  0  0
  5  6  1  0  0  0
  6 24  1  0  0  0
 24 25  1  0  0  0
 24 26  1  0  0  0
 24 27  1  0  0  0
 13 14  1  0  0  0
 14 15  1  0  0  0
 15 16  1  0  0  0
 16 17  1  0  0  0
 17  8  2  0  0  0
 16 11  2  0  0  0
  6  1  2  0  0  0
 19 22  1  0  0  0
 19 23  1  0  0  0
M  END
> <minimizedAffinity>
-9.21344

$$$$
OCNT-2314509


 27 29  0  0  0  0  0  0  0  0999 V2000
   -4.8417   27.7016    5.9136 C   0  0  0  0  0  0  0  0  0  0  0  0
   -5.7281   28.3865    6.4202 O   0  0  0  0  0  0  0  0  0  0  0  0
   -3.5271   27.7577    6.3531 N   0  0  0  0  0  0  0  0  0  0  0  0
   -2.3810   27.4282    5.5177 C   0  0  0  0  0  0  0  0  0  0  0  0
   -0.8896   27.6546    6.5161 S   0  0  0  0  0  0  0  0  0  0  0  0
   -1.8239   27.8799    8.0619 C   0  0  0  0  0  0  0  0  0  0  0  0
   -3.1725   28.4617    7.6038 C   0  0  0  0  0  0  0  0  0  0  0  0
   -5.7533   25.1304    2.5775 C   0  0  0  0  0  0  0  0  0  0  0  0
   -5.7231   26.5337    2.4270 C   0  0  0  0  0  0  0  0  0  0  0  0
   -5.4302   27.3796    3.5015 C   0  0  0  0  0  0  0  0  0  0  0  0
   -5.1941   26.8370    4.7643 C   0  0  0  0  0  0  0  0  0  0  0  0
   -5.1984   25.4526    4.9383 C   0  0  0  0  0  0  0  0  0  0  0  0
   -5.4799   24.6097    3.8562 C   0  0  0  0  0  0  0  0  0  0  0  0
   -4.9444   23.2111    1.1378 C   0  0  0  0  0  0  0  0  0  0  0  0
   -6.0839   24.2296    1.3702 C   0  0  0  0  0  0  0  0  0  0  0  0
   -6.2470   25.1124    0.1103 C   0  0  0  0  0  0  0  0  0  0  0  0
   -7.3896   23.4123    1.5340 C   0  0  0  0  0  0  0  0  0  0  0  0
   -3.1043   30.0193    7.5050 C   0  0  0  0  0  0  0  0  0  0  0  0
   -2.1592   30.5904    6.9624 O   0  0  0  0  0  0  0  0  0  0  0  0
   -4.1085   30.6638    8.2021 N   0  0  0  0  0  0  0  0  0  0  0  0
   -4.7131   30.0607    8.7528 H   0  0  0  0  0  0  0  0  0  0  0  0
   -4.3451   32.0487    8.3076 C   0  0  0  0  0  0  0  0  0  0  0  0
   -4.1157   32.6412    9.5533 C   0  0  0  0  0  0  0  0  0  0  0  0
   -4.3630   33.9970    9.7021 C   0  0  0  0  0  0  0  0  0  0  0  0
   -4.8203   34.7855    8.7093 N   0  0  0  0  0  0  0  0  0  0  0  0
   -5.0217   34.1897    7.5124 C   0  0  0  0  0  0  0  0  0  0  0  0
   -4.8046   32.8425    7.2654 C   0  0  0  0  0  0  0  0  0  0  0  0
 14 15  1  0  0  0
 15 16  1  0  0  0
 15 17  1  0  0  0
 15  8  1  0  0  0
  8  9  1  0  0  0
  9 10  2  0  0  0
 10 11  1  0  0  0
 11  1  1  0  0  0
  1  2  2  0  0  0
  1  3  1  0  0  0
  3  4  1  0  0  0
  4  5  1  0  0  0
  5  6  1  0  0  0
  6  7  1  0  0  0
  7 18  1  0  0  0
 18 19  2  0  0  0
 18 20  1  0  0  0
 20 22  1  0  0  0
 22 23  2  0  0  0
 23 24  1  0  0  0
 24 25  2  0  0  0
 25 26  1  0  0  0
 26 27  2  0  0  0
 11 12  2  0  0  0
 12 13  1  0  0  0
 13  8  2  0  0  0
  7  3  1  0  0  0
 27 22  1  0  0  0
 20 21  1  0  0  0
M  END
> <minimizedAffinity>
-8.65225

$$$$
OCNT-2314526


 31 34  0  0  0  0  0  0  0  0999 V2000
   -4.5519   28.2768    7.4003 N   0  0  0  0  0  0  0  0  0  0  0  0
   -5.0867   27.8199    8.1315 H   0  0  0  0  0  0  0  0  0  0  0  0
   -3.5672   29.1208    7.9190 C   0  0  0  0  0  0  0  0  0  0  0  0
   -2.2595   28.7090    7.8590 C   0  0  0  0  0  0  0  0  0  0  0  0
   -1.3294   29.5983    8.3372 C   0  0  0  0  0  0  0  0  0  0  0  0
   -1.6237   30.8201    8.8342 N   0  0  0  0  0  0  0  0  0  0  0  0
   -2.9224   31.1583    8.8369 C   0  0  0  0  0  0  0  0  0  0  0  0
   -3.8932   30.3369    8.3868 N   0  0  0  0  0  0  0  0  0  0  0  0
    0.1177   29.2244    8.3227 C   0  0  0  0  0  0  0  0  0  0  0  0
    0.5259   28.4995    7.2359 N   0  0  0  0  0  0  0  0  0  0  0  0
    0.8921   29.5426    9.2157 O   0  0  0  0  0  0  0  0  0  0  0  0
   -0.1452   28.2427    6.5212 H   0  0  0  0  0  0  0  0  0  0  0  0
    1.4882   28.2024    7.1672 H   0  0  0  0  0  0  0  0  0  0  0  0
   -3.3420   32.5129    9.3666 C   0  0  0  0  0  0  0  0  0  0  0  0
   -3.8655   33.5768    8.4283 C   0  0  0  0  0  0  0  0  0  0  0  0
   -4.7973   32.9205    9.4056 C   0  0  0  0  0  0  0  0  0  0  0  0
   -6.8681   28.8718    6.7866 C   0  0  0  0  0  0  0  0  0  0  0  0
   -5.4064   28.7918    6.3287 C   0  0  0  0  0  0  0  0  0  0  0  0
   -5.1881   27.8902    5.1160 C   0  0  0  0  0  0  0  0  0  0  0  0
   -5.9708   28.1107    3.9664 C   0  0  0  0  0  0  0  0  0  0  0  0
   -5.8031   27.3323    2.8191 C   0  0  0  0  0  0  0  0  0  0  0  0
   -4.8512   26.3141    2.8100 C   0  0  0  0  0  0  0  0  0  0  0  0
   -4.0393   26.1044    3.9221 C   0  0  0  0  0  0  0  0  0  0  0  0
   -4.2074   26.8859    5.0691 C   0  0  0  0  0  0  0  0  0  0  0  0
   -4.6153   25.5388    1.6994 O   0  0  0  0  0  0  0  0  0  0  0  0
   -5.6852   24.8727    1.1557 C   0  0  0  0  0  0  0  0  0  0  0  0
   -6.3061   23.7731    1.7370 C   0  0  0  0  0  0  0  0  0  0  0  0
   -7.3414   23.1053    1.1716 N   0  0  0  0  0  0  0  0  0  0  0  0
   -7.7600   23.5488   -0.0341 C   0  0  0  0  0  0  0  0  0  0  0  0
   -7.1907   24.6223   -0.7017 C   0  0  0  0  0  0  0  0  0  0  0  0
   -6.1296   25.2898   -0.0954 C   0  0  0  0  0  0  0  0  0  0  0  0
 17 18  1  0  0  0
 18  1  1  0  0  0
  1  3  1  0  0  0
  3  4  1  0  0  0
  4  5  2  0  0  0
  5  9  1  0  0  0
  9 10  1  0  0  0
  9 11  2  0  0  0
  5  6  1  0  0  0
  6  7  2  0  0  0
  7 14  1  0  0  0
 14 15  1  0  0  0
 15 16  1  0  0  0
  7  8  1  0  0  0
 18 19  1  0  0  0
 19 20  1  0  0  0
 20 21  2  0  0  0
 21 22  1  0  0  0
 22 25  1  0  0  0
 25 26  1  0  0  0
 26 27  2  0  0  0
 27 28  1  0  0  0
 28 29  2  0  0  0
 29 30  1  0  0  0
 30 31  2  0  0  0
 22 23  2  0  0  0
 23 24  1  0  0  0
  8  3  2  0  0  0
 24 19  2  0  0  0
 16 14  1  0  0  0
 31 26  1  0  0  0
  1  2  1  0  0  0
 10 12  1  0  0  0
 10 13  1  0  0  0
M  END
> <minimizedAffinity>
-9.98674

$$$$
OCNT-2314528


 24 27  0  0  0  0  0  0  0  0999 V2000
   -5.7142   29.7555    6.7459 C   0  0  0  0  0  0  0  0  0  0  0  0
   -2.7844   30.4967    7.6901 N   0  0  0  0  0  0  0  0  0  0  0  0
   -3.2667   31.6854    6.9928 C   0  0  0  0  0  0  0  0  0  0  0  0
   -4.6611   31.9110    7.5739 C   0  0  0  0  0  0  0  0  0  0  0  0
   -5.1355   30.5074    7.9556 C   0  0  0  0  0  0  0  0  0  0  0  0
   -3.8432   29.8695    8.4791 C   0  0  0  0  0  0  0  0  0  0  0  0
    1.2429   29.2329    7.6910 C   0  0  0  0  0  0  0  0  0  0  0  0
    0.5786   29.4608    6.4930 C   0  0  0  0  0  0  0  0  0  0  0  0
   -0.7577   29.8814    6.4996 C   0  0  0  0  0  0  0  0  0  0  0  0
   -1.4707   30.0885    7.6919 C   0  0  0  0  0  0  0  0  0  0  0  0
   -0.7686   29.8457    8.8837 C   0  0  0  0  0  0  0  0  0  0  0  0
    0.5680   29.4255    8.8893 C   0  0  0  0  0  0  0  0  0  0  0  0
   -5.2825   28.3546    6.7769 N   0  0  0  0  0  0  0  0  0  0  0  0
   -4.4318   28.2386    7.3224 H   0  0  0  0  0  0  0  0  0  0  0  0
   -5.0278   27.7880    5.5015 C   0  0  0  0  0  0  0  0  0  0  0  0
   -5.9807   27.8569    4.5562 N   0  0  0  0  0  0  0  0  0  0  0  0
   -5.6864   27.3215    3.3670 C   0  0  0  0  0  0  0  0  0  0  0  0
   -4.5399   26.7243    3.0259 N   0  0  0  0  0  0  0  0  0  0  0  0
   -3.6050   26.6427    3.9767 C   0  0  0  0  0  0  0  0  0  0  0  0
   -2.4006   26.0181    3.6737 C   0  0  0  0  0  0  0  0  0  0  0  0
   -1.3783   25.8833    4.6170 C   0  0  0  0  0  0  0  0  0  0  0  0
   -1.5569   26.3783    5.9011 C   0  0  0  0  0  0  0  0  0  0  0  0
   -2.7543   27.0105    6.2283 C   0  0  0  0  0  0  0  0  0  0  0  0
   -3.7885   27.1580    5.2678 C   0  0  0  0  0  0  0  0  0  0  0  0
  7  8  2  0  0  0
  8  9  1  0  0  0
  9 10  2  0  0  0
 10  2  1  0  0  0
  2  3  1  0  0  0
  3  4  1  0  0  0
  4  5  1  0  0  0
  5  1  1  0  0  0
  1 13  1  0  0  0
 13 15  1  0  0  0
 15 16  1  0  0  0
 16 17  2  0  0  0
 17 18  1  0  0  0
 18 19  2  0  0  0
 19 20  1  0  0  0
 20 21  2  0  0  0
 21 22  1  0  0  0
 22 23  2  0  0  0
 23 24  1  0  0  0
  5  6  1  0  0  0
 10 11  1  0  0  0
 11 12  2  0  0  0
 12  7  1  0  0  0
  6  2  1  0  0  0
 24 15  2  0  0  0
 24 19  1  0  0  0
 13 14  1  0  0  0
M  END
> <minimizedAffinity>
-8.94984

$$$$
OCNT-2314548


 35 39  0  0  0  0  0  0  0  0999 V2000
   -5.7333   25.5128    3.4807 C   0  0  0  0  0  0  0  0  0  0  0  0
   -5.6172   26.1176    4.8932 C   0  0  0  0  0  0  0  0  0  0  0  0
   -4.4254   27.0614    4.9963 C   0  0  0  0  0  0  0  0  0  0  0  0
   -3.1724   26.3339    4.7799 N   0  0  0  0  0  0  0  0  0  0  0  0
   -1.9314   26.6747    5.3274 C   0  0  0  0  0  0  0  0  0  0  0  0
   -0.8810   26.1976    4.9011 O   0  0  0  0  0  0  0  0  0  0  0  0
   -3.1862   25.2972    3.7469 C   0  0  0  0  0  0  0  0  0  0  0  0
   -4.3628   25.4165    2.7804 C   0  0  0  0  0  0  0  0  0  0  0  0
   -1.8889   27.6145    6.4321 C   0  0  0  0  0  0  0  0  0  0  0  0
   -2.6005   28.7962    6.5150 C   0  0  0  0  0  0  0  0  0  0  0  0
   -2.2373   29.4210    7.6868 N   0  0  0  0  0  0  0  0  0  0  0  0
   -1.3005   28.6985    8.3565 N   0  0  0  0  0  0  0  0  0  0  0  0
   -1.0716   27.6419    7.5764 C   0  0  0  0  0  0  0  0  0  0  0  0
   -2.7164   30.6519    8.2100 C   0  0  0  0  0  0  0  0  0  0  0  0
   -3.6264   31.4080    7.4640 C   0  0  0  0  0  0  0  0  0  0  0  0
   -4.0753   32.6044    7.9951 C   0  0  0  0  0  0  0  0  0  0  0  0
   -3.6854   33.0858    9.1943 N   0  0  0  0  0  0  0  0  0  0  0  0
   -2.8090   32.3366    9.8956 C   0  0  0  0  0  0  0  0  0  0  0  0
   -2.2980   31.1255    9.4552 C   0  0  0  0  0  0  0  0  0  0  0  0
   -5.9268   23.1000    2.5517 C   0  0  0  0  0  0  0  0  0  0  0  0
   -6.5351   24.1813    3.4465 C   0  0  0  0  0  0  0  0  0  0  0  0
   -6.7261   23.6487    4.7914 N   0  0  0  0  0  0  0  0  0  0  0  0
   -7.8564   22.9278    5.1454 C   0  0  0  0  0  0  0  0  0  0  0  0
   -8.7706   22.7133    4.3529 O   0  0  0  0  0  0  0  0  0  0  0  0
   -5.9418   23.6354    5.4297 H   0  0  0  0  0  0  0  0  0  0  0  0
   -7.8527   22.4279    6.5318 C   0  0  0  0  0  0  0  0  0  0  0  0
   -6.7226   21.9658    7.1001 N   0  0  0  0  0  0  0  0  0  0  0  0
   -7.0903   21.6133    8.3387 N   0  0  0  0  0  0  0  0  0  0  0  0
   -8.4121   21.8226    8.6165 C   0  0  0  0  0  0  0  0  0  0  0  0
   -9.1624   21.5867    9.7731 C   0  0  0  0  0  0  0  0  0  0  0  0
  -10.5259   21.8915    9.7228 C   0  0  0  0  0  0  0  0  0  0  0  0
  -11.1062   22.4018    8.5631 C   0  0  0  0  0  0  0  0  0  0  0  0
  -10.3345   22.6309    7.4163 C   0  0  0  0  0  0  0  0  0  0  0  0
   -8.9534   22.3461    7.4472 C   0  0  0  0  0  0  0  0  0  0  0  0
   -6.3848   21.2283    8.9548 H   0  0  0  0  0  0  0  0  0  0  0  0
 20 21  1  0  0  0
 21 22  1  0  0  0
 22 23  1  0  0  0
 23 24  2  0  0  0
 23 26  1  0  0  0
 26 27  2  0  0  0
 27 28  1  0  0  0
 28 29  1  0  0  0
 29 30  2  0  0  0
 30 31  1  0  0  0
 31 32  2  0  0  0
 32 33  1  0  0  0
 33 34  2  0  0  0
 21  1  1  0  0  0
  1  2  1  0  0  0
  2  3  1  0  0  0
  3  4  1  0  0  0
  4  5  1  0  0  0
  5  6  2  0  0  0
  5  9  1  0  0  0
  9 10  2  0  0  0
 10 11  1  0  0  0
 11 14  1  0  0  0
 14 15  2  0  0  0
 15 16  1  0  0  0
 16 17  2  0  0  0
 17 18  1  0  0  0
 18 19  2  0  0  0
 11 12  1  0  0  0
 12 13  2  0  0  0
  4  7  1  0  0  0
  7  8  1  0  0  0
 34 26  1  0  0  0
  8  1  1  0  0  0
 34 29  1  0  0  0
 13  9  1  0  0  0
 19 14  1  0  0  0
 22 25  1  0  0  0
 28 35  1  0  0  0
M  END
> <minimizedAffinity>
-10.02652

$$$$
OCNT-2314551


 32 35  0  0  0  0  0  0  0  0999 V2000
   -6.9667   29.9135    6.6785 C   0  0  0  0  0  0  0  0  0  0  0  0
   -6.4347   30.6425    7.9152 C   0  0  0  0  0  0  0  0  0  0  0  0
   -6.5022   30.1743    9.0489 O   0  0  0  0  0  0  0  0  0  0  0  0
   -5.8616   31.8668    7.6381 N   0  0  0  0  0  0  0  0  0  0  0  0
   -5.6147   32.0853    6.6794 H   0  0  0  0  0  0  0  0  0  0  0  0
   -5.1811   32.6269    8.6736 C   0  0  0  0  0  0  0  0  0  0  0  0
   -3.6638   32.4714    8.5817 C   0  0  0  0  0  0  0  0  0  0  0  0
   -3.2792   31.3635    9.4032 O   0  0  0  0  0  0  0  0  0  0  0  0
   -2.4165   30.4517    8.8575 C   0  0  0  0  0  0  0  0  0  0  0  0
   -1.0160   30.4586    8.9994 C   0  0  0  0  0  0  0  0  0  0  0  0
   -0.2319   29.4686    8.3926 C   0  0  0  0  0  0  0  0  0  0  0  0
   -0.8753   28.4971    7.6581 C   0  0  0  0  0  0  0  0  0  0  0  0
   -0.2779   27.4650    7.0058 O   0  0  0  0  0  0  0  0  0  0  0  0
   -1.4262   26.8047    6.4338 C   0  0  0  0  0  0  0  0  0  0  0  0
   -2.6766   27.4508    6.7521 O   0  0  0  0  0  0  0  0  0  0  0  0
   -2.2410   28.4890    7.5149 C   0  0  0  0  0  0  0  0  0  0  0  0
   -3.0365   29.4505    8.1005 C   0  0  0  0  0  0  0  0  0  0  0  0
   -5.9795   29.0866    6.0638 O   0  0  0  0  0  0  0  0  0  0  0  0
   -6.0806   29.0193    4.7137 C   0  0  0  0  0  0  0  0  0  0  0  0
   -6.1978   29.9694    3.9567 O   0  0  0  0  0  0  0  0  0  0  0  0
   -5.7859   23.7381    3.0912 N   0  0  0  0  0  0  0  0  0  0  0  0
   -5.5470   23.7761    1.7558 N   0  0  0  0  0  0  0  0  0  0  0  0
   -5.4973   25.0842    1.4855 C   0  0  0  0  0  0  0  0  0  0  0  0
   -5.7037   25.8894    2.6248 C   0  0  0  0  0  0  0  0  0  0  0  0
   -5.7589   27.2597    2.9225 C   0  0  0  0  0  0  0  0  0  0  0  0
   -5.9959   27.6156    4.2568 C   0  0  0  0  0  0  0  0  0  0  0  0
   -6.1531   26.6058    5.2048 C   0  0  0  0  0  0  0  0  0  0  0  0
   -6.1134   25.2698    4.9603 N   0  0  0  0  0  0  0  0  0  0  0  0
   -5.8863   24.9832    3.6609 C   0  0  0  0  0  0  0  0  0  0  0  0
   -7.3442   21.9379    3.7452 C   0  0  0  0  0  0  0  0  0  0  0  0
   -5.9080   22.4603    3.7825 C   0  0  0  0  0  0  0  0  0  0  0  0
   -4.9273   21.4310    3.2227 C   0  0  0  0  0  0  0  0  0  0  0  0
 30 31  1  0  0  0
 31 32  1  0  0  0
 31 21  1  0  0  0
 21 22  1  0  0  0
 22 23  2  0  0  0
 23 24  1  0  0  0
 24 25  1  0  0  0
 25 26  2  0  0  0
 26 19  1  0  0  0
 19 20  2  0  0  0
 19 18  1  0  0  0
 18  1  1  0  0  0
  1  2  1  0  0  0
  2  3  2  0  0  0
  2  4  1  0  0  0
  4  6  1  0  0  0
  6  7  1  0  0  0
  7  8  1  0  0  0
  8  9  1  0  0  0
  9 10  1  0  0  0
 10 11  2  0  0  0
 11 12  1  0  0  0
 12 13  1  0  0  0
 13 14  1  0  0  0
 14 15  1  0  0  0
 15 16  1  0  0  0
 16 17  1  0  0  0
 26 27  1  0  0  0
 27 28  2  0  0  0
 28 29  1  0  0  0
 29 21  1  0  0  0
 29 24  2  0  0  0
 17  9  2  0  0  0
 16 12  2  0  0  0
  4  5  1  0  0  0
M  END
> <minimizedAffinity>
-9.40227

$$$$
OCNT-2314559


 31 35  0  0  0  0  0  0  0  0999 V2000
   -4.0343   25.4838    3.9504 C   0  0  0  0  0  0  0  0  0  0  0  0
   -4.7862   24.7938    4.8132 N   0  0  0  0  0  0  0  0  0  0  0  0
   -5.8329   24.0867    4.3315 C   0  0  0  0  0  0  0  0  0  0  0  0
   -6.1412   24.0212    2.9678 C   0  0  0  0  0  0  0  0  0  0  0  0
   -7.1931   23.2682    2.3807 C   0  0  0  0  0  0  0  0  0  0  0  0
   -7.4030   23.2886    1.0041 C   0  0  0  0  0  0  0  0  0  0  0  0
   -6.5676   24.0520    0.2014 C   0  0  0  0  0  0  0  0  0  0  0  0
   -5.5258   24.7806    0.7818 C   0  0  0  0  0  0  0  0  0  0  0  0
   -5.2945   24.7737    2.1526 C   0  0  0  0  0  0  0  0  0  0  0  0
   -4.2686   25.4852    2.6305 N   0  0  0  0  0  0  0  0  0  0  0  0
   -1.6306   27.2318    6.2141 C   0  0  0  0  0  0  0  0  0  0  0  0
   -2.7837   26.2605    5.8895 C   0  0  0  0  0  0  0  0  0  0  0  0
   -2.9539   26.1954    4.4346 N   0  0  0  0  0  0  0  0  0  0  0  0
   -1.7240   26.2137    3.6348 C   0  0  0  0  0  0  0  0  0  0  0  0
   -0.4994   25.9413    4.5254 C   0  0  0  0  0  0  0  0  0  0  0  0
   -0.3663   26.8639    5.6165 O   0  0  0  0  0  0  0  0  0  0  0  0
   -1.4553   27.4993    7.7258 C   0  0  0  0  0  0  0  0  0  0  0  0
    0.4455   29.1276    7.4508 C   0  0  0  0  0  0  0  0  0  0  0  0
   -0.8218   28.7775    8.0843 N   0  0  0  0  0  0  0  0  0  0  0  0
   -1.5472   29.8449    8.6060 C   0  0  0  0  0  0  0  0  0  0  0  0
   -0.9454   31.0365    8.9961 C   0  0  0  0  0  0  0  0  0  0  0  0
   -1.7103   32.0860    9.5030 C   0  0  0  0  0  0  0  0  0  0  0  0
   -3.0718   31.9158    9.5953 C   0  0  0  0  0  0  0  0  0  0  0  0
   -3.6670   30.7779    9.2106 N   0  0  0  0  0  0  0  0  0  0  0  0
   -2.8954   29.7502    8.7101 N   0  0  0  0  0  0  0  0  0  0  0  0
   -6.6083   23.4025    5.3797 C   0  0  0  0  0  0  0  0  0  0  0  0
   -5.9795   22.5079    6.2617 C   0  0  0  0  0  0  0  0  0  0  0  0
   -6.7044   21.8558    7.2623 C   0  0  0  0  0  0  0  0  0  0  0  0
   -8.0698   22.0950    7.4019 C   0  0  0  0  0  0  0  0  0  0  0  0
   -8.7094   22.9904    6.5475 C   0  0  0  0  0  0  0  0  0  0  0  0
   -7.9831   23.6429    5.5478 C   0  0  0  0  0  0  0  0  0  0  0  0
 18 19  1  0  0  0
 19 17  1  0  0  0
 17 11  1  0  0  0
 11 12  1  0  0  0
 12 13  1  0  0  0
 13  1  1  0  0  0
  1  2  2  0  0  0
  2  3  1  0  0  0
  3 26  1  0  0  0
 26 27  2  0  0  0
 27 28  1  0  0  0
 28 29  2  0  0  0
 29 30  1  0  0  0
 30 31  2  0  0  0
  3  4  2  0  0  0
  4  5  1  0  0  0
  5  6  2  0  0  0
  6  7  1  0  0  0
  7  8  2  0  0  0
  8  9  1  0  0  0
  9 10  2  0  0  0
 13 14  1  0  0  0
 14 15  1  0  0  0
 15 16  1  0  0  0
 19 20  1  0  0  0
 20 21  2  0  0  0
 21 22  1  0  0  0
 22 23  2  0  0  0
 23 24  1  0  0  0
 24 25  2  0  0  0
 16 11  1  0  0  0
 25 20  1  0  0  0
 10  1  1  0  0  0
 31 26  1  0  0  0
  9  4  1  0  0  0
M  END
> <minimizedAffinity>
-11.43110

$$$$
OCNT-2314584


 27 29  0  0  0  0  0  0  0  0999 V2000
   -2.7589   28.4735    6.1725 N   0  0  0  0  0  0  0  0  0  0  0  0
   -2.5224   27.1192    6.2912 C   0  0  0  0  0  0  0  0  0  0  0  0
   -2.0854   26.6217    7.3232 O   0  0  0  0  0  0  0  0  0  0  0  0
   -3.3601   28.7548    5.4112 H   0  0  0  0  0  0  0  0  0  0  0  0
   -1.5129   30.2773    7.4725 C   0  0  0  0  0  0  0  0  0  0  0  0
   -1.9846   31.5158    6.6867 C   0  0  0  0  0  0  0  0  0  0  0  0
   -3.4013   31.5536    6.8873 N   0  0  0  0  0  0  0  0  0  0  0  0
   -3.9219   30.3102    7.1882 C   0  0  0  0  0  0  0  0  0  0  0  0
   -5.1127   30.0483    7.1778 O   0  0  0  0  0  0  0  0  0  0  0  0
   -2.7532   29.3305    7.3539 C   0  0  0  0  0  0  0  0  0  0  0  0
   -4.0215   32.2957    6.5839 H   0  0  0  0  0  0  0  0  0  0  0  0
   -1.1240   32.1102    9.3009 C   0  0  0  0  0  0  0  0  0  0  0  0
   -1.3144   30.6310    8.9819 C   0  0  0  0  0  0  0  0  0  0  0  0
   -0.2228   29.7032    6.8359 C   0  0  0  0  0  0  0  0  0  0  0  0
    0.7767   29.1190    7.8274 C   0  0  0  0  0  0  0  0  0  0  0  0
   -2.8226   26.3487    5.1061 C   0  0  0  0  0  0  0  0  0  0  0  0
   -4.0292   25.9334    4.5666 C   0  0  0  0  0  0  0  0  0  0  0  0
   -3.7225   25.2171    3.3782 C   0  0  0  0  0  0  0  0  0  0  0  0
   -2.3956   25.1860    3.1935 N   0  0  0  0  0  0  0  0  0  0  0  0
   -1.8798   25.8758    4.2277 N   0  0  0  0  0  0  0  0  0  0  0  0
   -0.4436   26.0224    4.3197 C   0  0  0  0  0  0  0  0  0  0  0  0
   -4.6415   24.5742    2.4327 C   0  0  0  0  0  0  0  0  0  0  0  0
   -5.4116   25.3226    1.5387 C   0  0  0  0  0  0  0  0  0  0  0  0
   -6.2622   24.6533    0.6719 C   0  0  0  0  0  0  0  0  0  0  0  0
   -6.3974   23.3122    0.6351 N   0  0  0  0  0  0  0  0  0  0  0  0
   -5.6437   22.6055    1.5028 C   0  0  0  0  0  0  0  0  0  0  0  0
   -4.7659   23.1813    2.4053 C   0  0  0  0  0  0  0  0  0  0  0  0
 12 13  1  0  0  0
 13  5  1  0  0  0
  5 14  1  0  0  0
 14 15  1  0  0  0
  5  6  1  0  0  0
  6  7  1  0  0  0
  7  8  1  0  0  0
  8  9  2  0  0  0
  8 10  1  0  0  0
 10  1  1  0  0  0
  1  2  1  0  0  0
  2  3  2  0  0  0
  2 16  1  0  0  0
 16 17  2  0  0  0
 17 18  1  0  0  0
 18 22  1  0  0  0
 22 23  2  0  0  0
 23 24  1  0  0  0
 24 25  2  0  0  0
 25 26  1  0  0  0
 26 27  2  0  0  0
 18 19  2  0  0  0
 19 20  1  0  0  0
 20 21  1  0  0  0
 10  5  1  0  0  0
 20 16  1  0  0  0
 27 22  1  0  0  0
  7 11  1  0  0  0
  1  4  1  0  0  0
M  END
> <minimizedAffinity>
-9.09956

$$$$
OCNT-2314588


 27 30  0  0  0  0  0  0  0  0999 V2000
   -4.2718   31.4335    6.8280 N   0  0  0  0  0  0  0  0  0  0  0  0
   -4.6183   32.2333    7.3550 H   0  0  0  0  0  0  0  0  0  0  0  0
   -4.5480   30.2154    7.5891 C   0  0  0  0  0  0  0  0  0  0  0  0
   -6.0204   30.0456    7.9432 C   0  0  0  0  0  0  0  0  0  0  0  0
   -6.5170   30.5819    9.2853 C   0  0  0  0  0  0  0  0  0  0  0  0
   -6.3619   29.1090    9.0986 C   0  0  0  0  0  0  0  0  0  0  0  0
   -6.9879   30.1177    6.7698 C   0  0  0  0  0  0  0  0  0  0  0  0
   -5.5722   26.6598    2.5328 F   0  0  0  0  0  0  0  0  0  0  0  0
   -5.9071   27.4794    3.5378 C   0  0  0  0  0  0  0  0  0  0  0  0
   -5.9900   28.8464    3.3081 C   0  0  0  0  0  0  0  0  0  0  0  0
   -6.3384   29.7011    4.3554 C   0  0  0  0  0  0  0  0  0  0  0  0
   -6.6072   29.1900    5.6352 C   0  0  0  0  0  0  0  0  0  0  0  0
   -6.5104   27.8045    5.8442 C   0  0  0  0  0  0  0  0  0  0  0  0
   -6.1634   26.9506    4.7960 C   0  0  0  0  0  0  0  0  0  0  0  0
   -2.8666   31.6446    6.4921 C   0  0  0  0  0  0  0  0  0  0  0  0
   -1.9646   31.4221    7.6617 C   0  0  0  0  0  0  0  0  0  0  0  0
   -1.7159   32.3222    8.6808 C   0  0  0  0  0  0  0  0  0  0  0  0
   -0.8344   31.7219    9.5227 N   0  0  0  0  0  0  0  0  0  0  0  0
   -0.4751   30.4956    9.1310 N   0  0  0  0  0  0  0  0  0  0  0  0
   -1.1819   30.2714    8.0112 C   0  0  0  0  0  0  0  0  0  0  0  0
   -0.4317   32.0891   10.3792 H   0  0  0  0  0  0  0  0  0  0  0  0
   -1.0574   28.9967    7.3145 C   0  0  0  0  0  0  0  0  0  0  0  0
   -1.9381   27.9360    7.5358 C   0  0  0  0  0  0  0  0  0  0  0  0
   -1.7813   26.7467    6.8251 C   0  0  0  0  0  0  0  0  0  0  0  0
   -0.7409   26.6545    5.9147 C   0  0  0  0  0  0  0  0  0  0  0  0
    0.1378   27.6509    5.6792 N   0  0  0  0  0  0  0  0  0  0  0  0
   -0.0344   28.7930    6.3927 C   0  0  0  0  0  0  0  0  0  0  0  0
  8  9  1  0  0  0
  9 10  1  0  0  0
 10 11  2  0  0  0
 11 12  1  0  0  0
 12  7  1  0  0  0
  7  4  1  0  0  0
  4  3  1  0  0  0
  3  1  1  0  0  0
  1 15  1  0  0  0
 15 16  1  0  0  0
 16 17  2  0  0  0
 17 18  1  0  0  0
 18 19  1  0  0  0
 19 20  2  0  0  0
 20 22  1  0  0  0
 22 23  1  0  0  0
 23 24  2  0  0  0
 24 25  1  0  0  0
 25 26  2  0  0  0
 26 27  1  0  0  0
  4  5  1  0  0  0
  5  6  1  0  0  0
 12 13  2  0  0  0
 13 14  1  0  0  0
 14  9  2  0  0  0
  6  4  1  0  0  0
 20 16  1  0  0  0
 27 22  2  0  0  0
  1  2  1  0  0  0
 18 21  1  0  0  0
M  END
> <minimizedAffinity>
-9.03124

$$$$
OCNT-2314592


 25 27  0  0  0  0  0  0  0  0999 V2000
   -3.9873   25.9690    3.9656 C   0  0  0  0  0  0  0  0  0  0  0  0
   -5.1340   25.2928    3.5817 C   0  0  0  0  0  0  0  0  0  0  0  0
   -4.9480   25.0182    2.2331 N   0  0  0  0  0  0  0  0  0  0  0  0
   -3.8217   25.6555    1.8142 N   0  0  0  0  0  0  0  0  0  0  0  0
   -3.2130   26.1892    2.8618 N   0  0  0  0  0  0  0  0  0  0  0  0
   -5.7005   24.2237    1.3226 C   0  0  0  0  0  0  0  0  0  0  0  0
   -6.5890   24.8569    0.4367 C   0  0  0  0  0  0  0  0  0  0  0  0
   -7.3417   24.1086   -0.4712 C   0  0  0  0  0  0  0  0  0  0  0  0
   -7.2109   22.7245   -0.5117 C   0  0  0  0  0  0  0  0  0  0  0  0
   -6.3200   22.0889    0.3484 C   0  0  0  0  0  0  0  0  0  0  0  0
   -5.5640   22.8332    1.2595 C   0  0  0  0  0  0  0  0  0  0  0  0
   -6.3241   24.9400    4.5159 C   0  0  0  0  0  0  0  0  0  0  0  0
   -6.2105   23.7487    5.4348 C   0  0  0  0  0  0  0  0  0  0  0  0
   -7.1306   23.6914    4.2585 C   0  0  0  0  0  0  0  0  0  0  0  0
   -3.5370   26.4650    5.2994 C   0  0  0  0  0  0  0  0  0  0  0  0
   -3.7610   27.9128    5.4385 N   0  0  0  0  0  0  0  0  0  0  0  0
   -3.5596   28.3575    4.5448 H   0  0  0  0  0  0  0  0  0  0  0  0
   -5.1344   28.2364    5.8832 C   0  0  0  0  0  0  0  0  0  0  0  0
   -5.9263   28.7902    4.6905 C   0  0  0  0  0  0  0  0  0  0  0  0
   -5.0188   29.2741    7.0114 C   0  0  0  0  0  0  0  0  0  0  0  0
   -1.7819   31.1537    6.5170 C   0  0  0  0  0  0  0  0  0  0  0  0
   -3.1487   30.6994    6.4735 N   0  0  0  0  0  0  0  0  0  0  0  0
   -3.5894   29.6886    7.3060 C   0  0  0  0  0  0  0  0  0  0  0  0
   -2.8896   29.1771    8.1747 O   0  0  0  0  0  0  0  0  0  0  0  0
   -3.7033   30.9271    5.6581 H   0  0  0  0  0  0  0  0  0  0  0  0
 21 22  1  0  0  0
 22 23  1  0  0  0
 23 24  2  0  0  0
 23 20  1  0  0  0
 20 18  1  0  0  0
 18 19  1  0  0  0
 18 16  1  0  0  0
 16 15  1  0  0  0
 15  1  1  0  0  0
  1  2  2  0  0  0
  2 12  1  0  0  0
 12 13  1  0  0  0
 13 14  1  0  0  0
  2  3  1  0  0  0
  3  6  1  0  0  0
  6  7  2  0  0  0
  7  8  1  0  0  0
  8  9  2  0  0  0
  9 10  1  0  0  0
 10 11  2  0  0  0
  3  4  1  0  0  0
  4  5  2  0  0  0
  5  1  1  0  0  0
 14 12  1  0  0  0
 11  6  1  0  0  0
 22 25  1  0  0  0
 16 17  1  0  0  0
M  END
> <minimizedAffinity>
-7.93811

$$$$
OCNT-2314594


 25 26  0  0  0  0  0  0  0  0999 V2000
   -3.3108   27.1027    5.2413 N   0  0  0  0  0  0  0  0  0  0  0  0
   -2.6561   25.9544    4.6303 C   0  0  0  0  0  0  0  0  0  0  0  0
   -2.7442   27.5947    6.4263 C   0  0  0  0  0  0  0  0  0  0  0  0
   -1.7556   27.0529    6.9261 O   0  0  0  0  0  0  0  0  0  0  0  0
   -4.6729   27.4178    4.7914 C   0  0  0  0  0  0  0  0  0  0  0  0
   -5.6743   26.2585    4.9243 C   0  0  0  0  0  0  0  0  0  0  0  0
   -6.1436   23.8746    1.3438 C   0  0  0  0  0  0  0  0  0  0  0  0
   -5.8448   25.2378    1.2542 C   0  0  0  0  0  0  0  0  0  0  0  0
   -5.6918   26.0076    2.4103 C   0  0  0  0  0  0  0  0  0  0  0  0
   -5.8390   25.4282    3.6742 C   0  0  0  0  0  0  0  0  0  0  0  0
   -6.1451   24.0619    3.7646 C   0  0  0  0  0  0  0  0  0  0  0  0
   -6.2874   23.2789    2.6121 C   0  0  0  0  0  0  0  0  0  0  0  0
   -7.4283   23.2636   -0.5768 C   0  0  0  0  0  0  0  0  0  0  0  0
   -6.3055   23.0427    0.2636 O   0  0  0  0  0  0  0  0  0  0  0  0
   -6.5752   21.9359    2.6210 O   0  0  0  0  0  0  0  0  0  0  0  0
   -7.8997   21.5520    2.9634 C   0  0  0  0  0  0  0  0  0  0  0  0
   -3.4114   28.8441    7.0406 C   0  0  0  0  0  0  0  0  0  0  0  0
   -2.6937   29.3318    8.2275 N   0  0  0  0  0  0  0  0  0  0  0  0
   -3.6096   30.0315    9.1401 C   0  0  0  0  0  0  0  0  0  0  0  0
   -2.9344   31.3897    8.8292 C   0  0  0  0  0  0  0  0  0  0  0  0
   -2.4757   32.1413   10.0836 C   0  0  0  0  0  0  0  0  0  0  0  0
   -3.8329   32.3110    7.9920 C   0  0  0  0  0  0  0  0  0  0  0  0
   -1.8394   30.5385    8.0574 C   0  0  0  0  0  0  0  0  0  0  0  0
   -1.5114   31.0042    6.6351 C   0  0  0  0  0  0  0  0  0  0  0  0
   -0.5174   30.2927    8.8107 C   0  0  0  0  0  0  0  0  0  0  0  0
 13 14  1  0  0  0
 14  7  1  0  0  0
  7  8  1  0  0  0
  8  9  2  0  0  0
  9 10  1  0  0  0
 10  6  1  0  0  0
  6  5  1  0  0  0
  5  1  1  0  0  0
  1  2  1  0  0  0
  1  3  1  0  0  0
  3  4  2  0  0  0
  3 17  1  0  0  0
 17 18  1  0  0  0
 18 19  1  0  0  0
 19 20  1  0  0  0
 20 21  1  0  0  0
 20 22  1  0  0  0
 20 23  1  0  0  0
 23 24  1  0  0  0
 23 25  1  0  0  0
 10 11  2  0  0  0
 11 12  1  0  0  0
 12 15  1  0  0  0
 15 16  1  0  0  0
 12  7  2  0  0  0
 23 18  1  0  0  0
M  END
> <minimizedAffinity>
-8.40697

$$$$
OCNT-2314601


 25 26  0  0  0  0  0  0  0  0999 V2000
   -5.8352   26.7595    3.2698 C   0  0  0  0  0  0  0  0  0  0  0  0
   -5.8224   28.1078    2.8884 C   0  0  0  0  0  0  0  0  0  0  0  0
   -6.0677   29.1311    3.8129 C   0  0  0  0  0  0  0  0  0  0  0  0
   -6.3332   28.8336    5.1437 C   0  0  0  0  0  0  0  0  0  0  0  0
   -6.3568   27.4910    5.5341 C   0  0  0  0  0  0  0  0  0  0  0  0
   -6.1140   26.4456    4.6115 C   0  0  0  0  0  0  0  0  0  0  0  0
   -6.1685   25.1113    5.1025 N   0  0  0  0  0  0  0  0  0  0  0  0
   -5.1811   24.2111    5.4214 C   0  0  0  0  0  0  0  0  0  0  0  0
   -5.7223   23.0862    5.8342 N   0  0  0  0  0  0  0  0  0  0  0  0
   -7.0726   23.2798    5.7782 N   0  0  0  0  0  0  0  0  0  0  0  0
   -7.3589   24.4949    5.3373 N   0  0  0  0  0  0  0  0  0  0  0  0
   -6.5867   29.8020    6.1368 N   0  0  0  0  0  0  0  0  0  0  0  0
   -5.8267   30.0724    7.2651 C   0  0  0  0  0  0  0  0  0  0  0  0
   -4.7886   29.5101    7.5935 O   0  0  0  0  0  0  0  0  0  0  0  0
   -7.4191   30.3654    6.0071 H   0  0  0  0  0  0  0  0  0  0  0  0
   -6.4414   31.1943    8.0938 C   0  0  0  0  0  0  0  0  0  0  0  0
   -5.4135   31.8622    9.0114 C   0  0  0  0  0  0  0  0  0  0  0  0
   -4.4074   32.8064    8.3092 C   0  0  0  0  0  0  0  0  0  0  0  0
   -4.9619   34.2298    8.2377 C   0  0  0  0  0  0  0  0  0  0  0  0
   -3.0069   32.7172    8.9692 C   0  0  0  0  0  0  0  0  0  0  0  0
   -1.9647   31.8813    8.3636 N   0  0  0  0  0  0  0  0  0  0  0  0
   -1.6861   30.6561    9.1020 C   0  0  0  0  0  0  0  0  0  0  0  0
   -2.1298   31.6332    6.9394 C   0  0  0  0  0  0  0  0  0  0  0  0
   -4.2401   25.4581    2.0419 C   0  0  0  0  0  0  0  0  0  0  0  0
   -5.5911   25.7391    2.3953 O   0  0  0  0  0  0  0  0  0  0  0  0
 24 25  1  0  0  0
 25  1  1  0  0  0
  1  2  1  0  0  0
  2  3  2  0  0  0
  3  4  1  0  0  0
  4 12  1  0  0  0
 12 13  1  0  0  0
 13 14  2  0  0  0
 13 16  1  0  0  0
 16 17  1  0  0  0
 17 18  1  0  0  0
 18 19  1  0  0  0
 18 20  1  0  0  0
 20 21  1  0  0  0
 21 22  1  0  0  0
 21 23  1  0  0  0
  4  5  2  0  0  0
  5  6  1  0  0  0
  6  7  1  0  0  0
  7  8  1  0  0  0
  8  9  2  0  0  0
  9 10  1  0  0  0
 10 11  2  0  0  0
  6  1  2  0  0  0
 11  7  1  0  0  0
 12 15  1  0  0  0
M  END
> <minimizedAffinity>
-7.65625

$$$$
OCNT-2314602


 27 30  0  0  0  0  0  0  0  0999 V2000
   -4.7995   27.7435    5.4618 C   0  0  0  0  0  0  0  0  0  0  0  0
   -5.4381   28.7609    5.2165 O   0  0  0  0  0  0  0  0  0  0  0  0
   -3.7544   27.6239    6.3591 N   0  0  0  0  0  0  0  0  0  0  0  0
   -3.3515   26.6933    6.4196 H   0  0  0  0  0  0  0  0  0  0  0  0
   -3.1900   28.6160    7.1837 C   0  0  0  0  0  0  0  0  0  0  0  0
   -1.8359   28.4730    7.5040 C   0  0  0  0  0  0  0  0  0  0  0  0
   -1.1756   29.4055    8.3161 C   0  0  0  0  0  0  0  0  0  0  0  0
   -1.8895   30.5071    8.8213 C   0  0  0  0  0  0  0  0  0  0  0  0
   -1.5433   31.6104    9.6478 C   0  0  0  0  0  0  0  0  0  0  0  0
   -2.6699   32.3844    9.8083 C   0  0  0  0  0  0  0  0  0  0  0  0
   -3.6894   31.7899    9.1124 N   0  0  0  0  0  0  0  0  0  0  0  0
   -5.0418   32.2962    9.0348 C   0  0  0  0  0  0  0  0  0  0  0  0
   -3.2401   30.6400    8.4953 C   0  0  0  0  0  0  0  0  0  0  0  0
   -3.9103   29.7082    7.6798 C   0  0  0  0  0  0  0  0  0  0  0  0
   -3.1404   26.2312    3.0710 C   0  0  0  0  0  0  0  0  0  0  0  0
   -4.3805   25.8446    3.7817 C   0  0  0  0  0  0  0  0  0  0  0  0
   -5.0892   26.4735    4.7940 C   0  0  0  0  0  0  0  0  0  0  0  0
   -6.1800   25.7005    5.1240 N   0  0  0  0  0  0  0  0  0  0  0  0
   -6.1694   24.6176    4.3641 N   0  0  0  0  0  0  0  0  0  0  0  0
   -5.0845   24.6861    3.5670 N   0  0  0  0  0  0  0  0  0  0  0  0
   -4.8296   23.6115    2.6204 C   0  0  0  0  0  0  0  0  0  0  0  0
   -5.7788   23.6447    1.4490 C   0  0  0  0  0  0  0  0  0  0  0  0
   -5.9309   24.8069    0.6857 C   0  0  0  0  0  0  0  0  0  0  0  0
   -6.8341   24.8001   -0.3673 C   0  0  0  0  0  0  0  0  0  0  0  0
   -7.5869   23.7324   -0.7032 N   0  0  0  0  0  0  0  0  0  0  0  0
   -7.4304   22.6199    0.0435 C   0  0  0  0  0  0  0  0  0  0  0  0
   -6.5571   22.5292    1.1165 C   0  0  0  0  0  0  0  0  0  0  0  0
 15 16  1  0  0  0
 16 17  2  0  0  0
 17  1  1  0  0  0
  1  2  2  0  0  0
  1  3  1  0  0  0
  3  5  1  0  0  0
  5  6  2  0  0  0
  6  7  1  0  0  0
  7  8  2  0  0  0
  8  9  1  0  0  0
  9 10  2  0  0  0
 10 11  1  0  0  0
 11 12  1  0  0  0
 11 13  1  0  0  0
 13 14  2  0  0  0
 17 18  1  0  0  0
 18 19  2  0  0  0
 19 20  1  0  0  0
 20 21  1  0  0  0
 21 22  1  0  0  0
 22 23  2  0  0  0
 23 24  1  0  0  0
 24 25  2  0  0  0
 25 26  1  0  0  0
 26 27  2  0  0  0
 20 16  1  0  0  0
 27 22  1  0  0  0
 14  5  1  0  0  0
 13  8  1  0  0  0
  3  4  1  0  0  0
M  END
> <minimizedAffinity>
-9.49450

$$$$
OCNT-2314603


 28 31  0  0  0  0  0  0  0  0999 V2000
   -4.8825   27.0315    4.5599 C   0  0  0  0  0  0  0  0  0  0  0  0
   -5.6988   26.4860    3.5701 C   0  0  0  0  0  0  0  0  0  0  0  0
   -5.1515   25.5492    2.7135 C   0  0  0  0  0  0  0  0  0  0  0  0
   -3.8548   25.1608    2.8087 N   0  0  0  0  0  0  0  0  0  0  0  0
   -3.0660   25.7060    3.7482 C   0  0  0  0  0  0  0  0  0  0  0  0
   -1.7399   25.2991    3.8050 C   0  0  0  0  0  0  0  0  0  0  0  0
   -0.8404   25.8323    4.7301 C   0  0  0  0  0  0  0  0  0  0  0  0
   -1.2672   26.8064    5.6199 C   0  0  0  0  0  0  0  0  0  0  0  0
   -2.5944   27.2295    5.5869 C   0  0  0  0  0  0  0  0  0  0  0  0
   -3.5195   26.6746    4.6640 C   0  0  0  0  0  0  0  0  0  0  0  0
   -5.9454   24.9375    1.6382 C   0  0  0  0  0  0  0  0  0  0  0  0
   -6.1030   25.5676    0.4035 C   0  0  0  0  0  0  0  0  0  0  0  0
   -6.8729   24.9490   -0.5786 C   0  0  0  0  0  0  0  0  0  0  0  0
   -7.4661   23.7239   -0.3048 C   0  0  0  0  0  0  0  0  0  0  0  0
   -7.2662   23.1646    0.9461 C   0  0  0  0  0  0  0  0  0  0  0  0
   -6.5308   23.7427    1.9202 N   0  0  0  0  0  0  0  0  0  0  0  0
   -4.8376   29.1603    5.7007 N   0  0  0  0  0  0  0  0  0  0  0  0
   -5.5354   27.9976    5.4696 C   0  0  0  0  0  0  0  0  0  0  0  0
   -6.5943   27.7033    6.0082 O   0  0  0  0  0  0  0  0  0  0  0  0
   -3.9064   29.2665    5.3164 H   0  0  0  0  0  0  0  0  0  0  0  0
   -5.3201   30.1841    6.6141 C   0  0  0  0  0  0  0  0  0  0  0  0
   -2.8579   30.8677    6.4953 C   0  0  0  0  0  0  0  0  0  0  0  0
   -4.2734   31.2872    6.9181 C   0  0  0  0  0  0  0  0  0  0  0  0
   -4.3804   31.7154    8.3350 N   0  0  0  0  0  0  0  0  0  0  0  0
   -3.7578   30.7964    9.2879 C   0  0  0  0  0  0  0  0  0  0  0  0
   -3.9388   33.1049    8.5536 C   0  0  0  0  0  0  0  0  0  0  0  0
   -4.8103   34.2385    8.0846 C   0  0  0  0  0  0  0  0  0  0  0  0
   -4.6841   33.9533    9.5507 C   0  0  0  0  0  0  0  0  0  0  0  0
 22 23  1  0  0  0
 23 21  1  0  0  0
 21 17  1  0  0  0
 17 18  1  0  0  0
 18 19  2  0  0  0
 18  1  1  0  0  0
  1  2  2  0  0  0
  2  3  1  0  0  0
  3 11  1  0  0  0
 11 12  2  0  0  0
 12 13  1  0  0  0
 13 14  2  0  0  0
 14 15  1  0  0  0
 15 16  2  0  0  0
  3  4  2  0  0  0
  4  5  1  0  0  0
  5  6  2  0  0  0
  6  7  1  0  0  0
  7  8  2  0  0  0
  8  9  1  0  0  0
  9 10  2  0  0  0
 23 24  1  0  0  0
 24 25  1  0  0  0
 24 26  1  0  0  0
 26 27  1  0  0  0
 27 28  1  0  0  0
 10  1  1  0  0  0
 28 26  1  0  0  0
 16 11  1  0  0  0
 10  5  1  0  0  0
 17 20  1  0  0  0
M  END
> <minimizedAffinity>
-9.59576

$$$$
OCNT-2314607


 25 27  0  0  0  0  0  0  0  0999 V2000
   -5.6349   25.4238    3.9239 N   0  0  0  0  0  0  0  0  0  0  0  0
   -6.4135   28.4419    5.6908 C   0  0  0  0  0  0  0  0  0  0  0  0
   -6.3780   29.4256    4.7747 N   0  0  0  0  0  0  0  0  0  0  0  0
   -6.0890   29.0392    3.5255 C   0  0  0  0  0  0  0  0  0  0  0  0
   -5.8344   27.7326    3.1679 C   0  0  0  0  0  0  0  0  0  0  0  0
   -5.8908   26.7697    4.1594 C   0  0  0  0  0  0  0  0  0  0  0  0
   -6.1808   27.1407    5.4207 N   0  0  0  0  0  0  0  0  0  0  0  0
   -6.7204   28.8241    7.1249 C   0  0  0  0  0  0  0  0  0  0  0  0
   -5.8823   29.0712    9.3349 C   0  0  0  0  0  0  0  0  0  0  0  0
   -5.5591   28.9869    7.9533 O   0  0  0  0  0  0  0  0  0  0  0  0
   -5.4118   24.4868    5.0337 C   0  0  0  0  0  0  0  0  0  0  0  0
   -6.5888   23.6512    5.4588 C   0  0  0  0  0  0  0  0  0  0  0  0
   -7.8465   23.8415    5.1032 N   0  0  0  0  0  0  0  0  0  0  0  0
   -8.5725   22.8541    5.7241 C   0  0  0  0  0  0  0  0  0  0  0  0
  -10.0381   22.7744    5.5469 C   0  0  0  0  0  0  0  0  0  0  0  0
   -7.7403   22.0475    6.4679 C   0  0  0  0  0  0  0  0  0  0  0  0
   -6.4861   22.5623    6.2934 N   0  0  0  0  0  0  0  0  0  0  0  0
   -5.2798   22.0588    6.9050 C   0  0  0  0  0  0  0  0  0  0  0  0
   -5.0873   25.0703    2.5989 C   0  0  0  0  0  0  0  0  0  0  0  0
   -6.1437   24.4721    1.6448 C   0  0  0  0  0  0  0  0  0  0  0  0
   -5.9993   22.9462    1.4824 C   0  0  0  0  0  0  0  0  0  0  0  0
   -6.6024   22.4011    0.1839 C   0  0  0  0  0  0  0  0  0  0  0  0
   -7.7122   23.2911   -0.3539 C   0  0  0  0  0  0  0  0  0  0  0  0
   -7.2069   24.7024   -0.6525 C   0  0  0  0  0  0  0  0  0  0  0  0
   -6.0749   25.1573    0.2730 C   0  0  0  0  0  0  0  0  0  0  0  0
  9 10  1  0  0  0
 10  8  1  0  0  0
  8  2  1  0  0  0
  2  3  2  0  0  0
  3  4  1  0  0  0
  4  5  2  0  0  0
  5  6  1  0  0  0
  6  1  1  0  0  0
  1 11  1  0  0  0
 11 12  1  0  0  0
 12 13  2  0  0  0
 13 14  1  0  0  0
 14 15  1  0  0  0
 14 16  2  0  0  0
 16 17  1  0  0  0
 17 18  1  0  0  0
  1 19  1  0  0  0
 19 20  1  0  0  0
 20 21  1  0  0  0
 21 22  1  0  0  0
 22 23  1  0  0  0
 23 24  1  0  0  0
 24 25  1  0  0  0
  6  7  2  0  0  0
  7  2  1  0  0  0
 17 12  1  0  0  0
 25 20  1  0  0  0
M  END
> <minimizedAffinity>
-8.48066

$$$$
OCNT-2314611


 22 25  0  0  0  0  0  0  0  0999 V2000
   -3.6663   26.5611    3.0809 O   0  0  0  0  0  0  0  0  0  0  0  0
   -4.4262   25.9611    3.8339 C   0  0  0  0  0  0  0  0  0  0  0  0
   -4.8606   24.6551    3.6177 N   0  0  0  0  0  0  0  0  0  0  0  0
   -4.9202   26.6507    5.0558 C   0  0  0  0  0  0  0  0  0  0  0  0
   -4.7006   28.1455    5.2155 C   0  0  0  0  0  0  0  0  0  0  0  0
   -4.7169   28.8041    6.5532 C   0  0  0  0  0  0  0  0  0  0  0  0
   -5.9549   28.3102    7.1758 N   0  0  0  0  0  0  0  0  0  0  0  0
   -6.9189   28.0060    6.1105 C   0  0  0  0  0  0  0  0  0  0  0  0
   -6.0639   27.6452    4.9429 C   0  0  0  0  0  0  0  0  0  0  0  0
   -6.3327   29.0053    7.8146 H   0  0  0  0  0  0  0  0  0  0  0  0
   -4.4081   23.9826    2.4006 C   0  0  0  0  0  0  0  0  0  0  0  0
   -5.4659   23.8633    1.3247 C   0  0  0  0  0  0  0  0  0  0  0  0
   -5.8332   25.0132    0.5998 C   0  0  0  0  0  0  0  0  0  0  0  0
   -6.8036   24.9525   -0.4021 C   0  0  0  0  0  0  0  0  0  0  0  0
   -7.4271   23.7436   -0.6946 C   0  0  0  0  0  0  0  0  0  0  0  0
   -7.0813   22.5958    0.0171 C   0  0  0  0  0  0  0  0  0  0  0  0
   -6.1090   22.6522    1.0220 C   0  0  0  0  0  0  0  0  0  0  0  0
   -5.7499   21.1845    1.8586 Cl  0  0  0  0  0  0  0  0  0  0  0  0
   -5.5587   23.8790    4.6394 C   0  0  0  0  0  0  0  0  0  0  0  0
   -7.0551   24.0319    4.6094 C   0  0  0  0  0  0  0  0  0  0  0  0
   -7.9314   22.8573    4.2420 C   0  0  0  0  0  0  0  0  0  0  0  0
   -8.0050   23.4344    5.6253 C   0  0  0  0  0  0  0  0  0  0  0  0
  1  2  2  0  0  0
  2  4  1  0  0  0
  4  5  1  0  0  0
  5  6  1  0  0  0
  6  7  1  0  0  0
  7  8  1  0  0  0
  8  9  1  0  0  0
  2  3  1  0  0  0
  3 11  1  0  0  0
 11 12  1  0  0  0
 12 13  2  0  0  0
 13 14  1  0  0  0
 14 15  2  0  0  0
 15 16  1  0  0  0
 16 17  2  0  0  0
 17 18  1  0  0  0
  3 19  1  0  0  0
 19 20  1  0  0  0
 20 21  1  0  0  0
 21 22  1  0  0  0
  9  4  1  0  0  0
 17 12  1  0  0  0
 22 20  1  0  0  0
  9  5  1  0  0  0
  7 10  1  0  0  0
M  END
> <minimizedAffinity>
-8.03679

$$$$
OCNT-2314615


 26 28  0  0  0  0  0  0  0  0999 V2000
   -1.3786   25.8757    4.9126 C   0  0  0  0  0  0  0  0  0  0  0  0
   -0.1888   26.3228    4.0664 C   0  0  0  0  0  0  0  0  0  0  0  0
   -4.3110   25.3661    2.9045 C   0  0  0  0  0  0  0  0  0  0  0  0
   -3.0925   24.8829    3.3316 C   0  0  0  0  0  0  0  0  0  0  0  0
   -2.6219   25.8575    4.1608 N   0  0  0  0  0  0  0  0  0  0  0  0
   -3.4844   26.8894    4.2448 N   0  0  0  0  0  0  0  0  0  0  0  0
   -4.5255   26.5958    3.4803 N   0  0  0  0  0  0  0  0  0  0  0  0
   -8.0145   22.7202   -0.6579 C   0  0  0  0  0  0  0  0  0  0  0  0
   -7.0758   23.4231    0.2772 C   0  0  0  0  0  0  0  0  0  0  0  0
   -6.5241   22.7459    1.3683 C   0  0  0  0  0  0  0  0  0  0  0  0
   -5.6240   23.3920    2.2219 C   0  0  0  0  0  0  0  0  0  0  0  0
   -5.2487   24.7243    1.9988 C   0  0  0  0  0  0  0  0  0  0  0  0
   -5.7933   25.3930    0.8941 C   0  0  0  0  0  0  0  0  0  0  0  0
   -6.6937   24.7469    0.0390 C   0  0  0  0  0  0  0  0  0  0  0  0
   -1.5044   26.7331    6.1709 C   0  0  0  0  0  0  0  0  0  0  0  0
   -2.0876   26.2813    7.1554 O   0  0  0  0  0  0  0  0  0  0  0  0
   -0.8732   27.9651    6.1013 N   0  0  0  0  0  0  0  0  0  0  0  0
   -0.5332   28.2424    5.1790 H   0  0  0  0  0  0  0  0  0  0  0  0
   -0.7577   28.9382    7.1143 C   0  0  0  0  0  0  0  0  0  0  0  0
    0.2691   28.9651    8.0599 C   0  0  0  0  0  0  0  0  0  0  0  0
    0.3157   29.9704    9.0311 C   0  0  0  0  0  0  0  0  0  0  0  0
   -0.6642   30.9607    9.0639 C   0  0  0  0  0  0  0  0  0  0  0  0
   -1.6950   30.9467    8.1222 C   0  0  0  0  0  0  0  0  0  0  0  0
   -1.7391   29.9379    7.1510 C   0  0  0  0  0  0  0  0  0  0  0  0
   -2.7047   31.9638    8.1473 C   0  0  0  0  0  0  0  0  0  0  0  0
   -3.5221   32.7872    8.1712 N   0  0  0  0  0  0  0  0  0  0  0  0
  8  9  1  0  0  0
  9 10  1  0  0  0
 10 11  2  0  0  0
 11 12  1  0  0  0
 12  3  1  0  0  0
  3  4  2  0  0  0
  4  5  1  0  0  0
  5  1  1  0  0  0
  1  2  1  0  0  0
  1 15  1  0  0  0
 15 16  2  0  0  0
 15 17  1  0  0  0
 17 19  1  0  0  0
 19 20  2  0  0  0
 20 21  1  0  0  0
 21 22  2  0  0  0
 22 23  1  0  0  0
 23 25  1  0  0  0
 25 26  3  0  0  0
 23 24  2  0  0  0
  5  6  1  0  0  0
  6  7  2  0  0  0
 12 13  2  0  0  0
 13 14  1  0  0  0
 14  9  2  0  0  0
  7  3  1  0  0  0
 24 19  1  0  0  0
 17 18  1  0  0  0
M  END
> <minimizedAffinity>
-9.43590

$$$$
OCNT-2314616


 26 27  0  0  0  0  0  0  0  0999 V2000
   -6.2315   30.6232    7.2665 N   0  0  0  0  0  0  0  0  0  0  0  0
   -5.5416   31.2844    6.8908 H   0  0  0  0  0  0  0  0  0  0  0  0
   -5.8999   30.0894    8.8113 S   0  0  0  0  0  0  0  0  0  0  0  0
   -6.4357   28.7521    8.9210 O   0  0  0  0  0  0  0  0  0  0  0  0
   -6.2547   31.1324    9.7476 O   0  0  0  0  0  0  0  0  0  0  0  0
    0.0960   29.9004    8.7971 C   0  0  0  0  0  0  0  0  0  0  0  0
   -1.4065   29.8806    8.7571 C   0  0  0  0  0  0  0  0  0  0  0  0
   -2.0321   30.8564    9.4704 N   0  0  0  0  0  0  0  0  0  0  0  0
   -3.3874   30.8811    9.4614 C   0  0  0  0  0  0  0  0  0  0  0  0
   -4.1484   29.9545    8.7780 C   0  0  0  0  0  0  0  0  0  0  0  0
   -3.5097   28.9619    8.0378 C   0  0  0  0  0  0  0  0  0  0  0  0
   -2.1124   28.9178    8.0278 C   0  0  0  0  0  0  0  0  0  0  0  0
   -1.4403   27.8971    7.2827 C   0  0  0  0  0  0  0  0  0  0  0  0
   -0.8998   27.0630    6.6843 N   0  0  0  0  0  0  0  0  0  0  0  0
   -6.7519   29.6724    6.2705 C   0  0  0  0  0  0  0  0  0  0  0  0
   -5.7658   29.6147    5.0848 C   0  0  0  0  0  0  0  0  0  0  0  0
   -5.5256   28.2349    4.6070 N   0  0  0  0  0  0  0  0  0  0  0  0
   -5.8262   28.1410    3.1695 C   0  0  0  0  0  0  0  0  0  0  0  0
   -5.8163   26.7330    2.6393 C   0  0  0  0  0  0  0  0  0  0  0  0
   -5.8529   25.6241    3.4077 C   0  0  0  0  0  0  0  0  0  0  0  0
   -5.9408   25.8136    4.9141 C   0  0  0  0  0  0  0  0  0  0  0  0
   -6.3263   27.2426    5.3397 C   0  0  0  0  0  0  0  0  0  0  0  0
   -5.8068   24.1800    2.8683 C   0  0  0  0  0  0  0  0  0  0  0  0
   -6.7037   23.2001    3.6609 C   0  0  0  0  0  0  0  0  0  0  0  0
   -4.3632   23.6431    2.9435 C   0  0  0  0  0  0  0  0  0  0  0  0
   -6.2833   24.1413    1.4013 C   0  0  0  0  0  0  0  0  0  0  0  0
  6  7  1  0  0  0
  7  8  1  0  0  0
  8  9  2  0  0  0
  9 10  1  0  0  0
 10  3  1  0  0  0
  3  4  2  0  0  0
  3  5  2  0  0  0
  3  1  1  0  0  0
  1 15  1  0  0  0
 15 16  1  0  0  0
 16 17  1  0  0  0
 17 18  1  0  0  0
 18 19  1  0  0  0
 19 20  2  0  0  0
 20 23  1  0  0  0
 23 24  1  0  0  0
 23 25  1  0  0  0
 23 26  1  0  0  0
 20 21  1  0  0  0
 21 22  1  0  0  0
 10 11  2  0  0  0
 11 12  1  0  0  0
 12 13  1  0  0  0
 13 14  3  0  0  0
 12  7  2  0  0  0
 22 17  1  0  0  0
  1  2  1  0  0  0
M  END
> <minimizedAffinity>
-8.36325

$$$$
OCNT-2314618


 28 31  0  0  0  0  0  0  0  0999 V2000
   -4.7368   32.1750    8.2050 N   0  0  0  0  0  0  0  0  0  0  0  0
   -3.9580   31.8944    6.9908 C   0  0  0  0  0  0  0  0  0  0  0  0
   -2.4493   32.1658    7.1518 C   0  0  0  0  0  0  0  0  0  0  0  0
   -1.8889   31.3305    8.2393 N   0  0  0  0  0  0  0  0  0  0  0  0
   -2.6652   31.4125    9.5020 C   0  0  0  0  0  0  0  0  0  0  0  0
   -3.9125   32.3256    9.4084 C   0  0  0  0  0  0  0  0  0  0  0  0
   -1.1872   30.1494    7.9163 C   0  0  0  0  0  0  0  0  0  0  0  0
   -1.7970   29.1365    7.2540 C   0  0  0  0  0  0  0  0  0  0  0  0
   -3.0932   28.8293    6.7399 C   0  0  0  0  0  0  0  0  0  0  0  0
   -2.9745   27.6072    6.1960 C   0  0  0  0  0  0  0  0  0  0  0  0
   -1.7126   27.0353    6.2915 N   0  0  0  0  0  0  0  0  0  0  0  0
   -1.0047   27.9281    6.9291 C   0  0  0  0  0  0  0  0  0  0  0  0
    0.2911   27.9019    7.3173 N   0  0  0  0  0  0  0  0  0  0  0  0
    0.8066   28.9591    7.9985 C   0  0  0  0  0  0  0  0  0  0  0  0
    0.1588   30.0417    8.3051 N   0  0  0  0  0  0  0  0  0  0  0  0
    0.8319   27.0736    7.1221 H   0  0  0  0  0  0  0  0  0  0  0  0
   -5.9685   31.3921    8.3498 C   0  0  0  0  0  0  0  0  0  0  0  0
   -6.0710   29.9682    7.7319 C   0  0  0  0  0  0  0  0  0  0  0  0
   -5.4844   28.9421    9.8228 C   0  0  0  0  0  0  0  0  0  0  0  0
   -6.4551   29.0681    8.7922 O   0  0  0  0  0  0  0  0  0  0  0  0
   -7.0007   29.8454    6.5028 C   0  0  0  0  0  0  0  0  0  0  0  0
   -6.5527   28.9759    5.3433 C   0  0  0  0  0  0  0  0  0  0  0  0
   -6.4969   27.5808    5.5137 C   0  0  0  0  0  0  0  0  0  0  0  0
   -6.1167   26.7456    4.4622 C   0  0  0  0  0  0  0  0  0  0  0  0
   -5.8048   27.2999    3.2287 C   0  0  0  0  0  0  0  0  0  0  0  0
   -5.4403   26.5000    2.2176 F   0  0  0  0  0  0  0  0  0  0  0  0
   -5.8724   28.6717    3.0274 C   0  0  0  0  0  0  0  0  0  0  0  0
   -6.2533   29.5074    4.0802 C   0  0  0  0  0  0  0  0  0  0  0  0
 19 20  1  0  0  0
 20 18  1  0  0  0
 18 21  1  0  0  0
 21 22  1  0  0  0
 22 23  1  0  0  0
 23 24  2  0  0  0
 24 25  1  0  0  0
 25 26  1  0  0  0
 25 27  2  0  0  0
 27 28  1  0  0  0
 18 17  1  0  0  0
 17  1  1  0  0  0
  1  2  1  0  0  0
  2  3  1  0  0  0
  3  4  1  0  0  0
  4  7  1  0  0  0
  7  8  2  0  0  0
  8  9  1  0  0  0
  9 10  2  0  0  0
 10 11  1  0  0  0
 11 12  2  0  0  0
 12 13  1  0  0  0
 13 14  1  0  0  0
 14 15  2  0  0  0
  4  5  1  0  0  0
  5  6  1  0  0  0
 28 22  2  0  0  0
  6  1  1  0  0  0
 15  7  1  0  0  0
 12  8  1  0  0  0
 13 16  1  0  0  0
M  END
> <minimizedAffinity>
-9.35362

$$$$
OCNT-2314625


 26 29  0  0  0  0  0  0  0  0999 V2000
   -3.6681   26.5437    4.9549 N   0  0  0  0  0  0  0  0  0  0  0  0
   -3.1501   26.0393    3.7786 C   0  0  0  0  0  0  0  0  0  0  0  0
   -1.9977   26.1848    3.3861 O   0  0  0  0  0  0  0  0  0  0  0  0
   -4.6394   26.3454    5.1392 H   0  0  0  0  0  0  0  0  0  0  0  0
   -4.0912   31.4609    6.2840 C   0  0  0  0  0  0  0  0  0  0  0  0
   -3.4117   30.7633    7.3701 N   0  0  0  0  0  0  0  0  0  0  0  0
   -2.4823   31.5782    8.1642 C   0  0  0  0  0  0  0  0  0  0  0  0
   -1.9550   30.7612    9.3366 C   0  0  0  0  0  0  0  0  0  0  0  0
   -1.1893   29.6431    8.8800 O   0  0  0  0  0  0  0  0  0  0  0  0
   -1.8399   28.9430    7.8877 C   0  0  0  0  0  0  0  0  0  0  0  0
   -1.3330   27.6656    7.6454 C   0  0  0  0  0  0  0  0  0  0  0  0
   -1.9121   26.8497    6.6741 C   0  0  0  0  0  0  0  0  0  0  0  0
   -3.0044   27.3060    5.9414 C   0  0  0  0  0  0  0  0  0  0  0  0
   -3.4962   28.6028    6.1834 C   0  0  0  0  0  0  0  0  0  0  0  0
   -2.9176   29.4619    7.1358 C   0  0  0  0  0  0  0  0  0  0  0  0
   -4.1004   25.2838    2.9783 C   0  0  0  0  0  0  0  0  0  0  0  0
   -5.0814   25.6514    2.0714 C   0  0  0  0  0  0  0  0  0  0  0  0
   -5.7134   24.4706    1.5865 C   0  0  0  0  0  0  0  0  0  0  0  0
   -6.7522   24.2234    0.6703 C   0  0  0  0  0  0  0  0  0  0  0  0
   -7.1269   22.9020    0.4269 C   0  0  0  0  0  0  0  0  0  0  0  0
   -8.1151   22.6557   -0.4444 F   0  0  0  0  0  0  0  0  0  0  0  0
   -6.5034   21.8356    1.0630 C   0  0  0  0  0  0  0  0  0  0  0  0
   -5.4699   22.0596    1.9766 C   0  0  0  0  0  0  0  0  0  0  0  0
   -5.0997   23.3891    2.2152 C   0  0  0  0  0  0  0  0  0  0  0  0
   -4.1357   23.9057    3.0463 N   0  0  0  0  0  0  0  0  0  0  0  0
   -3.5199   23.3642    3.6400 H   0  0  0  0  0  0  0  0  0  0  0  0
  5  6  1  0  0  0
  6  7  1  0  0  0
  7  8  1  0  0  0
  8  9  1  0  0  0
  9 10  1  0  0  0
 10 11  1  0  0  0
 11 12  2  0  0  0
 12 13  1  0  0  0
 13  1  1  0  0  0
  1  2  1  0  0  0
  2  3  2  0  0  0
  2 16  1  0  0  0
 16 17  2  0  0  0
 17 18  1  0  0  0
 18 19  2  0  0  0
 19 20  1  0  0  0
 20 21  1  0  0  0
 20 22  2  0  0  0
 22 23  1  0  0  0
 23 24  2  0  0  0
 24 25  1  0  0  0
 13 14  2  0  0  0
 14 15  1  0  0  0
 15  6  1  0  0  0
 15 10  2  0  0  0
 25 16  1  0  0  0
 24 18  1  0  0  0
  1  4  1  0  0  0
 25 26  1  0  0  0
M  END
> <minimizedAffinity>
-9.87381

$$$$
OCNT-2314630


 24 27  0  0  0  0  0  0  0  0999 V2000
   -4.3767   28.2487    6.3651 C   0  0  0  0  0  0  0  0  0  0  0  0
   -4.7610   27.5285    5.2851 N   0  0  0  0  0  0  0  0  0  0  0  0
   -3.8885   26.7268    4.6380 C   0  0  0  0  0  0  0  0  0  0  0  0
   -2.5970   26.5630    4.9661 N   0  0  0  0  0  0  0  0  0  0  0  0
   -2.2235   27.3097    6.0145 C   0  0  0  0  0  0  0  0  0  0  0  0
   -3.0216   28.1657    6.7540 C   0  0  0  0  0  0  0  0  0  0  0  0
   -2.2431   28.8216    7.7713 C   0  0  0  0  0  0  0  0  0  0  0  0
   -0.9264   28.4176    7.7828 C   0  0  0  0  0  0  0  0  0  0  0  0
   -0.6090   27.2623    6.5649 S   0  0  0  0  0  0  0  0  0  0  0  0
   -5.5228   32.7656    7.9911 C   0  0  0  0  0  0  0  0  0  0  0  0
   -5.9570   31.2885    7.9797 C   0  0  0  0  0  0  0  0  0  0  0  0
   -6.0549   30.7976    9.4360 C   0  0  0  0  0  0  0  0  0  0  0  0
   -4.8749   30.4584    7.2082 C   0  0  0  0  0  0  0  0  0  0  0  0
   -5.3117   29.0619    7.0163 N   0  0  0  0  0  0  0  0  0  0  0  0
   -6.7055   28.8974    6.5606 C   0  0  0  0  0  0  0  0  0  0  0  0
   -7.3968   30.2516    6.2868 C   0  0  0  0  0  0  0  0  0  0  0  0
   -7.3284   31.2005    7.4081 N   0  0  0  0  0  0  0  0  0  0  0  0
   -7.6421   32.1147    7.0866 H   0  0  0  0  0  0  0  0  0  0  0  0
   -4.3955   25.9560    3.4685 C   0  0  0  0  0  0  0  0  0  0  0  0
   -5.4413   26.4319    2.6698 C   0  0  0  0  0  0  0  0  0  0  0  0
   -5.8839   25.6763    1.5847 C   0  0  0  0  0  0  0  0  0  0  0  0
   -5.2775   24.4589    1.3123 C   0  0  0  0  0  0  0  0  0  0  0  0
   -4.2494   24.0456    2.1390 C   0  0  0  0  0  0  0  0  0  0  0  0
   -3.8005   24.7569    3.1957 N   0  0  0  0  0  0  0  0  0  0  0  0
 10 11  1  0  0  0
 11 12  1  0  0  0
 11 13  1  0  0  0
 13 14  1  0  0  0
 14  1  1  0  0  0
  1  2  1  0  0  0
  2  3  2  0  0  0
  3 19  1  0  0  0
 19 20  2  0  0  0
 20 21  1  0  0  0
 21 22  2  0  0  0
 22 23  1  0  0  0
 23 24  2  0  0  0
  3  4  1  0  0  0
  4  5  2  0  0  0
  5  6  1  0  0  0
  6  7  1  0  0  0
  7  8  2  0  0  0
  8  9  1  0  0  0
 14 15  1  0  0  0
 15 16  1  0  0  0
 16 17  1  0  0  0
 17 11  1  0  0  0
  6  1  2  0  0  0
 24 19  1  0  0  0
  9  5  1  0  0  0
 17 18  1  0  0  0
M  END
> <minimizedAffinity>
-8.62024

$$$$
OCNT-2314632


 22 24  0  0  0  0  0  0  0  0999 V2000
   -1.8716   30.2243    7.8284 C   0  0  0  0  0  0  0  0  0  0  0  0
   -2.3812   29.3728    6.6466 C   0  0  0  0  0  0  0  0  0  0  0  0
   -3.5826   29.1049    7.4286 N   0  0  0  0  0  0  0  0  0  0  0  0
   -4.9081   29.1866    7.0540 C   0  0  0  0  0  0  0  0  0  0  0  0
   -5.7720   29.5428    7.8552 O   0  0  0  0  0  0  0  0  0  0  0  0
   -3.0250   29.6409    8.6659 C   0  0  0  0  0  0  0  0  0  0  0  0
   -5.2658   28.8600    5.6861 C   0  0  0  0  0  0  0  0  0  0  0  0
   -5.1543   27.6720    4.9831 C   0  0  0  0  0  0  0  0  0  0  0  0
   -4.6767   26.4311    5.3205 N   0  0  0  0  0  0  0  0  0  0  0  0
   -4.7420   25.5168    4.3988 C   0  0  0  0  0  0  0  0  0  0  0  0
   -5.2797   25.6875    3.0163 C   0  0  0  0  0  0  0  0  0  0  0  0
   -5.2699   24.5253    2.0893 C   0  0  0  0  0  0  0  0  0  0  0  0
   -5.7384   26.9191    2.7476 C   0  0  0  0  0  0  0  0  0  0  0  0
   -5.6917   27.9212    3.7117 N   0  0  0  0  0  0  0  0  0  0  0  0
   -6.1321   29.1935    3.5858 N   0  0  0  0  0  0  0  0  0  0  0  0
   -5.8996   29.7377    4.7791 C   0  0  0  0  0  0  0  0  0  0  0  0
   -0.5092   29.7459    8.3001 C   0  0  0  0  0  0  0  0  0  0  0  0
   -0.0346   30.5283    9.2986 F   0  0  0  0  0  0  0  0  0  0  0  0
    0.4093   29.7528    7.3038 F   0  0  0  0  0  0  0  0  0  0  0  0
   -0.5778   28.4750    8.7687 F   0  0  0  0  0  0  0  0  0  0  0  0
   -2.6431   32.4808    8.4909 C   0  0  0  0  0  0  0  0  0  0  0  0
   -1.9275   31.6693    7.5680 O   0  0  0  0  0  0  0  0  0  0  0  0
 21 22  1  0  0  0
 22  1  1  0  0  0
  1 17  1  0  0  0
 17 18  1  0  0  0
 17 19  1  0  0  0
 17 20  1  0  0  0
  1  2  1  0  0  0
  2  3  1  0  0  0
  3  4  1  0  0  0
  4  5  2  0  0  0
  4  7  1  0  0  0
  7  8  2  0  0  0
  8  9  1  0  0  0
  9 10  2  0  0  0
 10 11  1  0  0  0
 11 12  1  0  0  0
 11 13  2  0  0  0
 13 14  1  0  0  0
 14 15  1  0  0  0
 15 16  2  0  0  0
  3  6  1  0  0  0
  6  1  1  0  0  0
 16  7  1  0  0  0
 14  8  1  0  0  0
M  END
> <minimizedAffinity>
-7.90369

$$$$
OCNT-2314637


 25 28  0  0  0  0  0  0  0  0999 V2000
   -3.0383   29.1645    7.5661 C   0  0  0  0  0  0  0  0  0  0  0  0
   -3.4517   28.2522    6.6661 N   0  0  0  0  0  0  0  0  0  0  0  0
   -2.5250   27.4737    6.0540 C   0  0  0  0  0  0  0  0  0  0  0  0
   -1.1963   27.5425    6.2682 N   0  0  0  0  0  0  0  0  0  0  0  0
   -0.8290   28.4608    7.1636 C   0  0  0  0  0  0  0  0  0  0  0  0
   -1.6991   29.2886    7.8415 C   0  0  0  0  0  0  0  0  0  0  0  0
   -0.9610   30.2589    8.6995 C   0  0  0  0  0  0  0  0  0  0  0  0
    0.4124   29.5774    8.8033 C   0  0  0  0  0  0  0  0  0  0  0  0
    0.5982   28.7772    7.5082 C   0  0  0  0  0  0  0  0  0  0  0  0
   -5.4969   31.9912    8.0619 C   0  0  0  0  0  0  0  0  0  0  0  0
   -4.2333   31.2644    7.4906 C   0  0  0  0  0  0  0  0  0  0  0  0
   -3.9681   29.9940    8.2136 N   0  0  0  0  0  0  0  0  0  0  0  0
   -5.2158   29.2727    8.5304 C   0  0  0  0  0  0  0  0  0  0  0  0
   -6.0755   30.1313    9.4926 C   0  0  0  0  0  0  0  0  0  0  0  0
   -5.8000   31.5861    9.4581 N   0  0  0  0  0  0  0  0  0  0  0  0
   -4.9296   31.7194    9.9803 H   0  0  0  0  0  0  0  0  0  0  0  0
   -5.3511   33.5231    8.0183 C   0  0  0  0  0  0  0  0  0  0  0  0
   -4.9422   35.2348    9.8240 C   0  0  0  0  0  0  0  0  0  0  0  0
   -4.3612   34.0559    9.0585 C   0  0  0  0  0  0  0  0  0  0  0  0
   -3.0085   26.4840    5.0809 C   0  0  0  0  0  0  0  0  0  0  0  0
   -2.2334   26.0473    3.9946 C   0  0  0  0  0  0  0  0  0  0  0  0
   -2.7312   25.1057    3.0937 C   0  0  0  0  0  0  0  0  0  0  0  0
   -4.0073   24.6137    3.2984 C   0  0  0  0  0  0  0  0  0  0  0  0
   -4.7966   24.9949    4.3221 N   0  0  0  0  0  0  0  0  0  0  0  0
   -4.2788   25.9142    5.1798 C   0  0  0  0  0  0  0  0  0  0  0  0
 18 19  1  0  0  0
 19 17  1  0  0  0
 17 10  1  0  0  0
 10 11  1  0  0  0
 11 12  1  0  0  0
 12  1  1  0  0  0
  1  2  1  0  0  0
  2  3  2  0  0  0
  3 20  1  0  0  0
 20 21  1  0  0  0
 21 22  2  0  0  0
 22 23  1  0  0  0
 23 24  2  0  0  0
 24 25  1  0  0  0
  3  4  1  0  0  0
  4  5  2  0  0  0
  5  6  1  0  0  0
  6  7  1  0  0  0
  7  8  1  0  0  0
  8  9  1  0  0  0
 12 13  1  0  0  0
 13 14  1  0  0  0
 14 15  1  0  0  0
 15 10  1  0  0  0
  6  1  2  0  0  0
 25 20  2  0  0  0
  9  5  1  0  0  0
 15 16  1  0  0  0
M  END
> <minimizedAffinity>
-8.63722

$$$$
OCNT-2314639


 25 27  0  0  0  0  0  0  0  0999 V2000
   -5.3130   30.2937    7.2350 N   0  0  0  0  0  0  0  0  0  0  0  0
   -4.7445   29.7834    8.3815 C   0  0  0  0  0  0  0  0  0  0  0  0
   -5.2952   28.9700    9.1143 O   0  0  0  0  0  0  0  0  0  0  0  0
   -4.7271   30.7633    6.5599 H   0  0  0  0  0  0  0  0  0  0  0  0
   -3.3654   30.2473    8.6998 C   0  0  0  0  0  0  0  0  0  0  0  0
   -3.2179   31.4031    9.4812 C   0  0  0  0  0  0  0  0  0  0  0  0
   -1.9477   31.8856    9.8053 C   0  0  0  0  0  0  0  0  0  0  0  0
   -0.8117   31.2208    9.3445 C   0  0  0  0  0  0  0  0  0  0  0  0
   -0.9583   30.0745    8.5513 C   0  0  0  0  0  0  0  0  0  0  0  0
   -2.2300   29.5837    8.2205 C   0  0  0  0  0  0  0  0  0  0  0  0
    0.2357   29.3774    8.0574 N   0  0  0  0  0  0  0  0  0  0  0  0
    1.2212   29.3276    8.8072 O   0  0  0  0  0  0  0  0  0  0  0  0
    0.1893   28.8858    6.9213 O   0  0  0  0  0  0  0  0  0  0  0  0
   -6.5777   29.7956    6.7376 C   0  0  0  0  0  0  0  0  0  0  0  0
   -5.5840   23.9060    2.1334 C   0  0  0  0  0  0  0  0  0  0  0  0
   -5.7659   25.1531    2.9142 C   0  0  0  0  0  0  0  0  0  0  0  0
   -6.0027   25.3526    4.2588 C   0  0  0  0  0  0  0  0  0  0  0  0
   -6.0989   26.7528    4.4863 C   0  0  0  0  0  0  0  0  0  0  0  0
   -6.3254   27.5461    5.6272 C   0  0  0  0  0  0  0  0  0  0  0  0
   -6.3647   28.9479    5.5091 C   0  0  0  0  0  0  0  0  0  0  0  0
   -6.1652   29.5426    4.2564 C   0  0  0  0  0  0  0  0  0  0  0  0
   -5.9400   28.7727    3.1093 C   0  0  0  0  0  0  0  0  0  0  0  0
   -5.9129   27.3820    3.2574 C   0  0  0  0  0  0  0  0  0  0  0  0
   -5.7158   26.3915    2.3221 N   0  0  0  0  0  0  0  0  0  0  0  0
   -5.5571   26.5599    1.3385 H   0  0  0  0  0  0  0  0  0  0  0  0
 15 16  1  0  0  0
 16 17  2  0  0  0
 17 18  1  0  0  0
 18 19  2  0  0  0
 19 20  1  0  0  0
 20 14  1  0  0  0
 14  1  1  0  0  0
  1  2  1  0  0  0
  2  3  2  0  0  0
  2  5  1  0  0  0
  5  6  1  0  0  0
  6  7  2  0  0  0
  7  8  1  0  0  0
  8  9  2  0  0  0
  9 11  1  0  0  0
 11 12  2  0  0  0
 11 13  1  0  0  0
  9 10  1  0  0  0
 20 21  2  0  0  0
 21 22  1  0  0  0
 22 23  2  0  0  0
 23 24  1  0  0  0
 24 16  1  0  0  0
 23 18  1  0  0  0
 10  5  2  0  0  0
  1  4  1  0  0  0
 24 25  1  0  0  0
M  CHG 1  11   1
M  CHG 1  13  -1
M  END
> <minimizedAffinity>
-9.82777

$$$$
OCNT-2314641


 27 30  0  0  0  0  0  0  0  0999 V2000
   -6.1847   27.6641    3.4878 O   0  0  0  0  0  0  0  0  0  0  0  0
   -5.4937   26.6924    3.7803 C   0  0  0  0  0  0  0  0  0  0  0  0
   -4.6710   26.6810    4.8804 N   0  0  0  0  0  0  0  0  0  0  0  0
   -4.0167   25.9152    4.9872 H   0  0  0  0  0  0  0  0  0  0  0  0
   -5.5383   25.4586    2.9352 C   0  0  0  0  0  0  0  0  0  0  0  0
   -5.7718   25.6348    1.5606 C   0  0  0  0  0  0  0  0  0  0  0  0
   -5.8368   24.5380    0.6969 C   0  0  0  0  0  0  0  0  0  0  0  0
   -5.6718   23.2478    1.1948 C   0  0  0  0  0  0  0  0  0  0  0  0
   -5.4295   23.0542    2.5533 C   0  0  0  0  0  0  0  0  0  0  0  0
   -5.3407   24.1552    3.4173 C   0  0  0  0  0  0  0  0  0  0  0  0
   -5.1229   23.9161    4.7543 O   0  0  0  0  0  0  0  0  0  0  0  0
   -6.1744   23.4264    5.5021 C   0  0  0  0  0  0  0  0  0  0  0  0
   -5.8348   22.4590    6.4513 C   0  0  0  0  0  0  0  0  0  0  0  0
   -6.8247   21.8702    7.2390 C   0  0  0  0  0  0  0  0  0  0  0  0
   -8.1582   22.2400    7.0716 C   0  0  0  0  0  0  0  0  0  0  0  0
   -8.5026   23.1930    6.1134 C   0  0  0  0  0  0  0  0  0  0  0  0
   -7.5136   23.7833    5.3231 C   0  0  0  0  0  0  0  0  0  0  0  0
   -4.4028   27.8824    5.6255 C   0  0  0  0  0  0  0  0  0  0  0  0
   -3.0382   27.7629    6.1822 C   0  0  0  0  0  0  0  0  0  0  0  0
   -2.0413   26.8382    5.9474 C   0  0  0  0  0  0  0  0  0  0  0  0
   -0.9242   27.1132    6.6923 N   0  0  0  0  0  0  0  0  0  0  0  0
   -1.2162   28.1964    7.3796 C   0  0  0  0  0  0  0  0  0  0  0  0
   -0.3460   28.8924    8.3690 C   0  0  0  0  0  0  0  0  0  0  0  0
   -0.8349   30.3134    8.6550 C   0  0  0  0  0  0  0  0  0  0  0  0
   -2.3444   30.3284    8.8970 C   0  0  0  0  0  0  0  0  0  0  0  0
   -3.0986   29.8103    7.6719 C   0  0  0  0  0  0  0  0  0  0  0  0
   -2.4935   28.6202    7.1045 N   0  0  0  0  0  0  0  0  0  0  0  0
  1  2  2  0  0  0
  2  3  1  0  0  0
  3 18  1  0  0  0
 18 19  1  0  0  0
 19 20  2  0  0  0
 20 21  1  0  0  0
 21 22  2  0  0  0
 22 23  1  0  0  0
 23 24  1  0  0  0
 24 25  1  0  0  0
 25 26  1  0  0  0
 26 27  1  0  0  0
  2  5  1  0  0  0
  5  6  2  0  0  0
  6  7  1  0  0  0
  7  8  2  0  0  0
  8  9  1  0  0  0
  9 10  2  0  0  0
 10 11  1  0  0  0
 11 12  1  0  0  0
 12 13  2  0  0  0
 13 14  1  0  0  0
 14 15  2  0  0  0
 15 16  1  0  0  0
 16 17  2  0  0  0
 27 19  1  0  0  0
 10  5  1  0  0  0
 17 12  1  0  0  0
 27 22  1  0  0  0
  3  4  1  0  0  0
M  END
> <minimizedAffinity>
-9.62287

$$$$
OCNT-2314646


 25 27  0  0  0  0  0  0  0  0999 V2000
   -4.9430   31.2663    7.5847 N   0  0  0  0  0  0  0  0  0  0  0  0
   -6.3465   31.2149    7.9983 C   0  0  0  0  0  0  0  0  0  0  0  0
   -6.9737   30.3550    6.9113 C   0  0  0  0  0  0  0  0  0  0  0  0
   -5.9645   29.2146    6.7520 C   0  0  0  0  0  0  0  0  0  0  0  0
   -6.2492   28.2600    7.7950 O   0  0  0  0  0  0  0  0  0  0  0  0
   -4.6152   29.9140    7.0797 C   0  0  0  0  0  0  0  0  0  0  0  0
   -6.8072   27.5633    7.4082 H   0  0  0  0  0  0  0  0  0  0  0  0
   -5.9821   28.4525    5.4358 C   0  0  0  0  0  0  0  0  0  0  0  0
   -5.9879   29.1672    4.2205 C   0  0  0  0  0  0  0  0  0  0  0  0
   -5.9766   28.5022    2.9927 C   0  0  0  0  0  0  0  0  0  0  0  0
   -5.9463   27.1156    2.9674 C   0  0  0  0  0  0  0  0  0  0  0  0
   -5.9327   26.4754    1.7912 F   0  0  0  0  0  0  0  0  0  0  0  0
   -5.9193   26.3837    4.1464 C   0  0  0  0  0  0  0  0  0  0  0  0
   -5.9300   27.0488    5.3759 C   0  0  0  0  0  0  0  0  0  0  0  0
   -4.0231   31.6995    8.6484 C   0  0  0  0  0  0  0  0  0  0  0  0
   -1.8092   32.7456    8.3952 O   0  0  0  0  0  0  0  0  0  0  0  0
   -2.5264   31.5078    8.3035 C   0  0  0  0  0  0  0  0  0  0  0  0
   -1.8727   33.0222    9.3327 H   0  0  0  0  0  0  0  0  0  0  0  0
   -1.8121   30.4621    9.1772 C   0  0  0  0  0  0  0  0  0  0  0  0
   -1.0025   29.4254    8.3880 C   0  0  0  0  0  0  0  0  0  0  0  0
   -1.5618   28.1030    8.5832 O   0  0  0  0  0  0  0  0  0  0  0  0
   -0.6592   29.7741    6.9073 C   0  0  0  0  0  0  0  0  0  0  0  0
    0.7580   29.2332    7.1653 C   0  0  0  0  0  0  0  0  0  0  0  0
    0.5316   29.5198    8.6593 C   0  0  0  0  0  0  0  0  0  0  0  0
   -1.3331   27.8698    9.5029 H   0  0  0  0  0  0  0  0  0  0  0  0
 16 17  1  0  0  0
 17 15  1  0  0  0
 15  1  1  0  0  0
  1  2  1  0  0  0
  2  3  1  0  0  0
  3  4  1  0  0  0
  4  5  1  0  0  0
  4  8  1  0  0  0
  8  9  1  0  0  0
  9 10  2  0  0  0
 10 11  1  0  0  0
 11 12  1  0  0  0
 11 13  2  0  0  0
 13 14  1  0  0  0
  4  6  1  0  0  0
 17 19  1  0  0  0
 19 20  1  0  0  0
 20 21  1  0  0  0
 20 22  1  0  0  0
 22 23  1  0  0  0
 23 24  1  0  0  0
  6  1  1  0  0  0
 24 20  1  0  0  0
 14  8  2  0  0  0
 16 18  1  0  0  0
  5  7  1  0  0  0
 21 25  1  0  0  0
M  END
> <minimizedAffinity>
-9.12887

$$$$
OCNT-2314654


 21 23  0  0  0  0  0  0  0  0999 V2000
   -6.3156   28.7254    5.8443 C   0  0  0  0  0  0  0  0  0  0  0  0
   -7.3063   29.6318    5.8024 N   0  0  0  0  0  0  0  0  0  0  0  0
   -7.0723   30.4363    6.9131 O   0  0  0  0  0  0  0  0  0  0  0  0
   -5.9577   29.9427    7.5213 C   0  0  0  0  0  0  0  0  0  0  0  0
   -5.4575   28.8924    6.9132 N   0  0  0  0  0  0  0  0  0  0  0  0
   -5.8155   25.5898    2.9706 C   0  0  0  0  0  0  0  0  0  0  0  0
   -6.0786   25.2813    4.3045 C   0  0  0  0  0  0  0  0  0  0  0  0
   -6.2430   26.3064    5.2461 C   0  0  0  0  0  0  0  0  0  0  0  0
   -6.1467   27.6537    4.8685 C   0  0  0  0  0  0  0  0  0  0  0  0
   -5.8824   27.9537    3.5263 C   0  0  0  0  0  0  0  0  0  0  0  0
   -5.7188   26.9292    2.5884 C   0  0  0  0  0  0  0  0  0  0  0  0
   -4.4236   24.7908    1.2173 C   0  0  0  0  0  0  0  0  0  0  0  0
   -5.6348   24.6914    1.9561 O   0  0  0  0  0  0  0  0  0  0  0  0
   -5.4798   30.6082    8.7658 C   0  0  0  0  0  0  0  0  0  0  0  0
   -6.6071   30.8852    9.7607 C   0  0  0  0  0  0  0  0  0  0  0  0
   -4.2962   29.8480    9.3838 C   0  0  0  0  0  0  0  0  0  0  0  0
   -3.0072   30.4970    9.2619 N   0  0  0  0  0  0  0  0  0  0  0  0
   -2.6727   31.7340    9.7356 C   0  0  0  0  0  0  0  0  0  0  0  0
   -1.3466   31.8922    9.4070 C   0  0  0  0  0  0  0  0  0  0  0  0
   -0.8669   30.7760    8.7719 N   0  0  0  0  0  0  0  0  0  0  0  0
   -1.8844   29.9478    8.7112 C   0  0  0  0  0  0  0  0  0  0  0  0
 12 13  1  0  0  0
 13  6  1  0  0  0
  6  7  1  0  0  0
  7  8  2  0  0  0
  8  9  1  0  0  0
  9  1  1  0  0  0
  1  2  2  0  0  0
  2  3  1  0  0  0
  3  4  1  0  0  0
  4 14  1  0  0  0
 14 15  1  0  0  0
 14 16  1  0  0  0
 16 17  1  0  0  0
 17 18  1  0  0  0
 18 19  2  0  0  0
 19 20  1  0  0  0
 20 21  2  0  0  0
  4  5  2  0  0  0
  9 10  2  0  0  0
 10 11  1  0  0  0
 11  6  2  0  0  0
  5  1  1  0  0  0
 21 17  1  0  0  0
M  END
> <minimizedAffinity>
-7.63070

$$$$
OCNT-2314665


 27 30  0  0  0  0  0  0  0  0999 V2000
   -2.7255   27.9998    6.1884 C   0  0  0  0  0  0  0  0  0  0  0  0
   -1.9968   26.6446    6.1576 C   0  0  0  0  0  0  0  0  0  0  0  0
   -2.2293   26.1538    4.7343 C   0  0  0  0  0  0  0  0  0  0  0  0
   -3.5198   26.7050    4.3621 N   0  0  0  0  0  0  0  0  0  0  0  0
   -4.3084   26.3524    3.2860 C   0  0  0  0  0  0  0  0  0  0  0  0
   -5.4256   26.8435    3.1261 O   0  0  0  0  0  0  0  0  0  0  0  0
   -3.9770   27.6732    5.3464 C   0  0  0  0  0  0  0  0  0  0  0  0
   -3.9513   30.6607    9.4211 N   0  0  0  0  0  0  0  0  0  0  0  0
   -4.7209   29.4277    9.1336 C   0  0  0  0  0  0  0  0  0  0  0  0
   -4.4258   28.7961    7.7513 C   0  0  0  0  0  0  0  0  0  0  0  0
   -2.9902   28.5015    7.5466 N   0  0  0  0  0  0  0  0  0  0  0  0
   -2.1769   29.6936    7.8686 C   0  0  0  0  0  0  0  0  0  0  0  0
   -2.5236   30.3062    9.2477 C   0  0  0  0  0  0  0  0  0  0  0  0
   -5.9048   31.8704    8.4287 C   0  0  0  0  0  0  0  0  0  0  0  0
   -4.3778   31.8303    8.6148 C   0  0  0  0  0  0  0  0  0  0  0  0
   -3.9631   33.1583    9.2723 C   0  0  0  0  0  0  0  0  0  0  0  0
   -3.7218   25.3139    2.3366 C   0  0  0  0  0  0  0  0  0  0  0  0
   -4.5615   24.0582    2.1936 C   0  0  0  0  0  0  0  0  0  0  0  0
   -4.2924   22.9798    3.0564 C   0  0  0  0  0  0  0  0  0  0  0  0
   -5.0196   21.7967    2.9691 C   0  0  0  0  0  0  0  0  0  0  0  0
   -6.0290   21.6727    2.0199 C   0  0  0  0  0  0  0  0  0  0  0  0
   -6.3271   22.7355    1.1522 C   0  0  0  0  0  0  0  0  0  0  0  0
   -7.3411   22.6336    0.1955 C   0  0  0  0  0  0  0  0  0  0  0  0
   -7.6886   23.6117   -0.6708 N   0  0  0  0  0  0  0  0  0  0  0  0
   -6.9966   24.7610   -0.5741 C   0  0  0  0  0  0  0  0  0  0  0  0
   -5.9692   24.9730    0.3343 C   0  0  0  0  0  0  0  0  0  0  0  0
   -5.6029   23.9467    1.2286 C   0  0  0  0  0  0  0  0  0  0  0  0
 14 15  1  0  0  0
 15 16  1  0  0  0
 15  8  1  0  0  0
  8  9  1  0  0  0
  9 10  1  0  0  0
 10 11  1  0  0  0
 11  1  1  0  0  0
  1  2  1  0  0  0
  2  3  1  0  0  0
  3  4  1  0  0  0
  4  5  1  0  0  0
  5  6  2  0  0  0
  5 17  1  0  0  0
 17 18  1  0  0  0
 18 19  2  0  0  0
 19 20  1  0  0  0
 20 21  2  0  0  0
 21 22  1  0  0  0
 22 23  2  0  0  0
 23 24  1  0  0  0
 24 25  2  0  0  0
 25 26  1  0  0  0
 26 27  2  0  0  0
  4  7  1  0  0  0
 11 12  1  0  0  0
 12 13  1  0  0  0
 13  8  1  0  0  0
  7  1  1  0  0  0
 27 18  1  0  0  0
 27 22  1  0  0  0
M  END
> <minimizedAffinity>
-10.16175

$$$$
OCNT-2314682


 25 28  0  0  0  0  0  0  0  0999 V2000
   -0.5754   26.4144    5.4347 C   0  0  0  0  0  0  0  0  0  0  0  0
   -1.5779   27.2974    5.9814 N   0  0  0  0  0  0  0  0  0  0  0  0
   -1.3382   28.3768    6.8007 C   0  0  0  0  0  0  0  0  0  0  0  0
   -0.1725   28.9377    7.3348 C   0  0  0  0  0  0  0  0  0  0  0  0
   -0.3232   30.0675    8.1496 C   0  0  0  0  0  0  0  0  0  0  0  0
   -1.5862   30.6161    8.4282 C   0  0  0  0  0  0  0  0  0  0  0  0
   -2.7362   30.0331    7.8643 C   0  0  0  0  0  0  0  0  0  0  0  0
   -2.6019   28.9026    7.0456 C   0  0  0  0  0  0  0  0  0  0  0  0
   -3.5710   28.1826    6.3995 N   0  0  0  0  0  0  0  0  0  0  0  0
   -2.9359   27.2220    5.7526 C   0  0  0  0  0  0  0  0  0  0  0  0
   -1.7129   31.8466    9.2902 C   0  0  0  0  0  0  0  0  0  0  0  0
   -2.5729   32.7737    8.7838 F   0  0  0  0  0  0  0  0  0  0  0  0
   -2.1643   31.5729   10.5471 F   0  0  0  0  0  0  0  0  0  0  0  0
   -0.5235   32.4888    9.4545 F   0  0  0  0  0  0  0  0  0  0  0  0
   -3.5904   26.1840    4.8841 C   0  0  0  0  0  0  0  0  0  0  0  0
   -3.6672   26.5965    3.4679 N   0  0  0  0  0  0  0  0  0  0  0  0
   -4.9641   27.2244    3.1547 C   0  0  0  0  0  0  0  0  0  0  0  0
   -5.9065   26.1116    2.7015 C   0  0  0  0  0  0  0  0  0  0  0  0
   -5.0237   24.8748    2.5279 C   0  0  0  0  0  0  0  0  0  0  0  0
   -3.6045   25.4375    2.5644 C   0  0  0  0  0  0  0  0  0  0  0  0
   -5.3293   24.0701    1.2656 C   0  0  0  0  0  0  0  0  0  0  0  0
   -6.5965   24.4860    0.5446 C   0  0  0  0  0  0  0  0  0  0  0  0
   -6.8820   23.2682   -0.3090 C   0  0  0  0  0  0  0  0  0  0  0  0
   -6.3900   22.1302    0.4132 O   0  0  0  0  0  0  0  0  0  0  0  0
   -5.6072   22.5963    1.5210 C   0  0  0  0  0  0  0  0  0  0  0  0
  1  2  1  0  0  0
  2  3  1  0  0  0
  3  4  2  0  0  0
  4  5  1  0  0  0
  5  6  2  0  0  0
  6 11  1  0  0  0
 11 12  1  0  0  0
 11 13  1  0  0  0
 11 14  1  0  0  0
  6  7  1  0  0  0
  7  8  2  0  0  0
  8  9  1  0  0  0
  9 10  2  0  0  0
 10 15  1  0  0  0
 15 16  1  0  0  0
 16 17  1  0  0  0
 17 18  1  0  0  0
 18 19  1  0  0  0
 19 21  1  0  0  0
 21 22  1  0  0  0
 22 23  1  0  0  0
 23 24  1  0  0  0
 24 25  1  0  0  0
 19 20  1  0  0  0
 10  2  1  0  0  0
 20 16  1  0  0  0
  8  3  1  0  0  0
 25 21  1  0  0  0
M  END
> <minimizedAffinity>
-9.69845

$$$$
OCNT-2314691


 30 33  0  0  0  0  0  0  0  0999 V2000
   -4.2636   27.5987    6.0478 O   0  0  0  0  0  0  0  0  0  0  0  0
   -5.2727   28.3051    6.0741 C   0  0  0  0  0  0  0  0  0  0  0  0
   -5.4711   29.2824    7.0528 N   0  0  0  0  0  0  0  0  0  0  0  0
   -6.4695   30.3503    6.9281 C   0  0  0  0  0  0  0  0  0  0  0  0
   -6.9829   30.8339    8.2797 C   0  0  0  0  0  0  0  0  0  0  0  0
   -5.8417   31.1926    9.2216 C   0  0  0  0  0  0  0  0  0  0  0  0
   -4.8873   30.0120    9.3561 C   0  0  0  0  0  0  0  0  0  0  0  0
   -4.3550   29.5235    7.9972 C   0  0  0  0  0  0  0  0  0  0  0  0
   -6.3642   28.1373    5.0349 C   0  0  0  0  0  0  0  0  0  0  0  0
   -5.8030   28.2440    3.6199 C   0  0  0  0  0  0  0  0  0  0  0  0
   -5.3306   26.9246    3.1441 C   0  0  0  0  0  0  0  0  0  0  0  0
   -6.0030   25.8130    2.9601 N   0  0  0  0  0  0  0  0  0  0  0  0
   -5.0309   24.9481    2.5005 C   0  0  0  0  0  0  0  0  0  0  0  0
   -3.8137   25.5076    2.3931 N   0  0  0  0  0  0  0  0  0  0  0  0
   -4.0111   26.8181    2.8214 O   0  0  0  0  0  0  0  0  0  0  0  0
   -5.3242   23.5616    2.1604 C   0  0  0  0  0  0  0  0  0  0  0  0
   -5.8440   23.2405    0.9029 C   0  0  0  0  0  0  0  0  0  0  0  0
   -6.1084   21.9125    0.6156 C   0  0  0  0  0  0  0  0  0  0  0  0
   -5.8923   20.9013    1.4825 N   0  0  0  0  0  0  0  0  0  0  0  0
   -5.3920   21.2316    2.6920 C   0  0  0  0  0  0  0  0  0  0  0  0
   -5.0950   22.5289    3.0738 C   0  0  0  0  0  0  0  0  0  0  0  0
   -3.2983   30.4676    7.3699 C   0  0  0  0  0  0  0  0  0  0  0  0
   -1.8714   30.0662    7.6587 C   0  0  0  0  0  0  0  0  0  0  0  0
   -1.2221   30.5127    8.8177 C   0  0  0  0  0  0  0  0  0  0  0  0
    0.0945   30.1305    9.0796 C   0  0  0  0  0  0  0  0  0  0  0  0
    0.7639   29.3047    8.1853 C   0  0  0  0  0  0  0  0  0  0  0  0
    2.0484   28.9561    8.4811 O   0  0  0  0  0  0  0  0  0  0  0  0
    0.1389   28.8526    7.0283 C   0  0  0  0  0  0  0  0  0  0  0  0
   -1.1783   29.2349    6.7659 C   0  0  0  0  0  0  0  0  0  0  0  0
    2.3840   28.3876    7.7687 H   0  0  0  0  0  0  0  0  0  0  0  0
  1  2  2  0  0  0
  2  9  1  0  0  0
  9 10  1  0  0  0
 10 11  1  0  0  0
 11 12  2  0  0  0
 12 13  1  0  0  0
 13 16  1  0  0  0
 16 17  2  0  0  0
 17 18  1  0  0  0
 18 19  2  0  0  0
 19 20  1  0  0  0
 20 21  2  0  0  0
 13 14  2  0  0  0
 14 15  1  0  0  0
  2  3  1  0  0  0
  3  4  1  0  0  0
  4  5  1  0  0  0
  5  6  1  0  0  0
  6  7  1  0  0  0
  7  8  1  0  0  0
  8 22  1  0  0  0
 22 23  1  0  0  0
 23 24  1  0  0  0
 24 25  2  0  0  0
 25 26  1  0  0  0
 26 27  1  0  0  0
 26 28  2  0  0  0
 28 29  1  0  0  0
 15 11  1  0  0  0
  8  3  1  0  0  0
 29 23  2  0  0  0
 21 16  1  0  0  0
 27 30  1  0  0  0
M  END
> <minimizedAffinity>
-10.17436

$$$$
OCNT-2314695


 25 27  0  0  0  0  0  0  0  0999 V2000
   -1.5240   29.4626    7.4005 C   0  0  0  0  0  0  0  0  0  0  0  0
   -2.3397   28.5063    6.8236 C   0  0  0  0  0  0  0  0  0  0  0  0
   -3.6769   28.8113    6.6804 C   0  0  0  0  0  0  0  0  0  0  0  0
   -4.1760   29.9808    7.1048 N   0  0  0  0  0  0  0  0  0  0  0  0
   -3.3289   30.8711    7.6495 C   0  0  0  0  0  0  0  0  0  0  0  0
   -2.0112   30.6605    7.8076 N   0  0  0  0  0  0  0  0  0  0  0  0
   -3.8782   32.1576    8.0967 C   0  0  0  0  0  0  0  0  0  0  0  0
   -3.7323   32.6286    9.4115 C   0  0  0  0  0  0  0  0  0  0  0  0
   -4.2663   33.8597    9.7928 C   0  0  0  0  0  0  0  0  0  0  0  0
   -4.9414   34.6038    8.8430 C   0  0  0  0  0  0  0  0  0  0  0  0
   -5.1137   34.2025    7.5679 N   0  0  0  0  0  0  0  0  0  0  0  0
   -4.5828   32.9969    7.2323 C   0  0  0  0  0  0  0  0  0  0  0  0
    0.7328   29.6939    6.5607 F   0  0  0  0  0  0  0  0  0  0  0  0
   -0.0426   29.1676    7.5510 C   0  0  0  0  0  0  0  0  0  0  0  0
    0.4755   29.6504    8.7191 F   0  0  0  0  0  0  0  0  0  0  0  0
    0.2221   27.8290    7.5610 F   0  0  0  0  0  0  0  0  0  0  0  0
   -4.5217   27.8319    6.1514 N   0  0  0  0  0  0  0  0  0  0  0  0
   -4.0018   26.9996    5.8645 H   0  0  0  0  0  0  0  0  0  0  0  0
   -5.4860   28.2739    5.1504 C   0  0  0  0  0  0  0  0  0  0  0  0
   -6.0614   27.1022    4.3191 C   0  0  0  0  0  0  0  0  0  0  0  0
   -5.4054   26.9850    2.9365 C   0  0  0  0  0  0  0  0  0  0  0  0
   -3.9835   26.4328    2.9896 C   0  0  0  0  0  0  0  0  0  0  0  0
   -3.7011   25.7521    4.2147 O   0  0  0  0  0  0  0  0  0  0  0  0
   -4.7812   24.9122    4.6242 C   0  0  0  0  0  0  0  0  0  0  0  0
   -5.9988   25.7432    5.0361 C   0  0  0  0  0  0  0  0  0  0  0  0
 13 14  1  0  0  0
 14 15  1  0  0  0
 14 16  1  0  0  0
 14  1  1  0  0  0
  1  2  1  0  0  0
  2  3  2  0  0  0
  3 17  1  0  0  0
 17 19  1  0  0  0
 19 20  1  0  0  0
 20 21  1  0  0  0
 21 22  1  0  0  0
 22 23  1  0  0  0
 23 24  1  0  0  0
 24 25  1  0  0  0
  3  4  1  0  0  0
  4  5  2  0  0  0
  5  7  1  0  0  0
  7  8  1  0  0  0
  8  9  2  0  0  0
  9 10  1  0  0  0
 10 11  2  0  0  0
 11 12  1  0  0  0
  5  6  1  0  0  0
  6  1  2  0  0  0
 25 20  1  0  0  0
 12  7  2  0  0  0
 17 18  1  0  0  0
M  END
> <minimizedAffinity>
-8.58694

$$$$
OCNT-2314714


 28 30  0  0  0  0  0  0  0  0999 V2000
   -4.9065   25.2630    4.6776 N   0  0  0  0  0  0  0  0  0  0  0  0
   -4.8975   26.6073    4.4428 C   0  0  0  0  0  0  0  0  0  0  0  0
   -4.4258   27.1343    3.4467 O   0  0  0  0  0  0  0  0  0  0  0  0
   -5.4685   27.2988    5.4812 N   0  0  0  0  0  0  0  0  0  0  0  0
   -5.5955   24.9180    5.3309 H   0  0  0  0  0  0  0  0  0  0  0  0
   -5.3721   26.8365    6.3785 H   0  0  0  0  0  0  0  0  0  0  0  0
   -5.3395   28.7519    5.5397 C   0  0  0  0  0  0  0  0  0  0  0  0
   -6.7174   29.4132    5.5755 C   0  0  0  0  0  0  0  0  0  0  0  0
   -6.9039   29.8845    7.0180 C   0  0  0  0  0  0  0  0  0  0  0  0
   -5.8554   29.1858    7.7702 N   0  0  0  0  0  0  0  0  0  0  0  0
   -4.6953   29.1934    6.8617 C   0  0  0  0  0  0  0  0  0  0  0  0
   -5.6124   29.6436    9.1531 C   0  0  0  0  0  0  0  0  0  0  0  0
   -6.4654   30.9040    9.4174 C   0  0  0  0  0  0  0  0  0  0  0  0
   -4.1328   30.0623    9.3075 C   0  0  0  0  0  0  0  0  0  0  0  0
   -5.9439   28.5991   10.2388 C   0  0  0  0  0  0  0  0  0  0  0  0
   -4.4276   24.3154    3.6974 C   0  0  0  0  0  0  0  0  0  0  0  0
   -6.0934   22.4196    3.8247 C   0  0  0  0  0  0  0  0  0  0  0  0
   -7.1626   21.6959    3.2977 C   0  0  0  0  0  0  0  0  0  0  0  0
   -7.7140   22.0433    2.0682 C   0  0  0  0  0  0  0  0  0  0  0  0
   -7.2060   23.1126    1.3273 C   0  0  0  0  0  0  0  0  0  0  0  0
   -7.7690   23.4279    0.0813 C   0  0  0  0  0  0  0  0  0  0  0  0
   -7.2759   24.4815   -0.6813 C   0  0  0  0  0  0  0  0  0  0  0  0
   -6.2089   25.2291   -0.2090 C   0  0  0  0  0  0  0  0  0  0  0  0
   -5.6406   24.9254    1.0283 C   0  0  0  0  0  0  0  0  0  0  0  0
   -6.1226   23.8688    1.8356 C   0  0  0  0  0  0  0  0  0  0  0  0
   -5.5792   23.5252    3.1131 C   0  0  0  0  0  0  0  0  0  0  0  0
   -6.2477   22.2579    6.2037 C   0  0  0  0  0  0  0  0  0  0  0  0
   -5.4747   22.1229    5.0141 O   0  0  0  0  0  0  0  0  0  0  0  0
 27 28  1  0  0  0
 28 17  1  0  0  0
 17 18  1  0  0  0
 18 19  2  0  0  0
 19 20  1  0  0  0
 20 21  2  0  0  0
 21 22  1  0  0  0
 22 23  2  0  0  0
 23 24  1  0  0  0
 24 25  2  0  0  0
 25 26  1  0  0  0
 26 16  1  0  0  0
 16  1  1  0  0  0
  1  2  1  0  0  0
  2  3  2  0  0  0
  2  4  1  0  0  0
  4  7  1  0  0  0
  7  8  1  0  0  0
  8  9  1  0  0  0
  9 10  1  0  0  0
 10 12  1  0  0  0
 12 13  1  0  0  0
 12 14  1  0  0  0
 12 15  1  0  0  0
 10 11  1  0  0  0
 26 17  2  0  0  0
 11  7  1  0  0  0
 25 20  1  0  0  0
  1  5  1  0  0  0
  4  6  1  0  0  0
M  END
> <minimizedAffinity>
-9.52893

$$$$
OCNT-2314717


 28 30  0  0  0  0  0  0  0  0999 V2000
   -5.3168   27.9342    6.3602 N   0  0  0  0  0  0  0  0  0  0  0  0
   -4.7958   29.1636    6.0560 C   0  0  0  0  0  0  0  0  0  0  0  0
   -5.3864   29.9570    5.3289 O   0  0  0  0  0  0  0  0  0  0  0  0
   -3.5797   29.4572    6.6534 N   0  0  0  0  0  0  0  0  0  0  0  0
   -2.8136   28.5172    7.4702 C   0  0  0  0  0  0  0  0  0  0  0  0
   -1.5347   29.1183    8.0490 C   0  0  0  0  0  0  0  0  0  0  0  0
   -1.8180   30.4995    8.6485 C   0  0  0  0  0  0  0  0  0  0  0  0
   -0.5594   31.0703    9.3058 C   0  0  0  0  0  0  0  0  0  0  0  0
   -2.3767   31.4656    7.5695 C   0  0  0  0  0  0  0  0  0  0  0  0
   -2.9405   30.7353    6.3320 C   0  0  0  0  0  0  0  0  0  0  0  0
   -4.6709   27.2091    6.6202 H   0  0  0  0  0  0  0  0  0  0  0  0
   -3.3366   32.4021    8.1510 N   0  0  0  0  0  0  0  0  0  0  0  0
   -4.3315   33.0512    7.4694 C   0  0  0  0  0  0  0  0  0  0  0  0
   -4.9422   33.8508    8.4063 C   0  0  0  0  0  0  0  0  0  0  0  0
   -4.3465   33.7061    9.6308 N   0  0  0  0  0  0  0  0  0  0  0  0
   -3.3933   32.8191    9.4514 C   0  0  0  0  0  0  0  0  0  0  0  0
   -6.5506   27.4818    5.7530 C   0  0  0  0  0  0  0  0  0  0  0  0
   -5.8766   24.6097    2.6736 C   0  0  0  0  0  0  0  0  0  0  0  0
   -5.6528   25.9559    2.3919 C   0  0  0  0  0  0  0  0  0  0  0  0
   -5.8628   26.9085    3.3862 C   0  0  0  0  0  0  0  0  0  0  0  0
   -6.2838   26.4990    4.6509 C   0  0  0  0  0  0  0  0  0  0  0  0
   -6.4845   25.1367    4.8429 C   0  0  0  0  0  0  0  0  0  0  0  0
   -6.2890   24.1947    3.8900 N   0  0  0  0  0  0  0  0  0  0  0  0
   -5.6487   23.6698    1.6294 N   0  0  0  0  0  0  0  0  0  0  0  0
   -5.8136   21.2229    1.8194 C   0  0  0  0  0  0  0  0  0  0  0  0
   -5.0365   22.4674    2.2312 C   0  0  0  0  0  0  0  0  0  0  0  0
   -6.9299   23.3906    0.9457 C   0  0  0  0  0  0  0  0  0  0  0  0
   -7.0311   24.1496   -0.3721 C   0  0  0  0  0  0  0  0  0  0  0  0
 25 26  1  0  0  0
 26 24  1  0  0  0
 24 27  1  0  0  0
 27 28  1  0  0  0
 24 18  1  0  0  0
 18 19  2  0  0  0
 19 20  1  0  0  0
 20 21  2  0  0  0
 21 17  1  0  0  0
 17  1  1  0  0  0
  1  2  1  0  0  0
  2  3  2  0  0  0
  2  4  1  0  0  0
  4  5  1  0  0  0
  5  6  1  0  0  0
  6  7  1  0  0  0
  7  8  1  0  0  0
  7  9  1  0  0  0
  9 12  1  0  0  0
 12 13  1  0  0  0
 13 14  2  0  0  0
 14 15  1  0  0  0
 15 16  2  0  0  0
  9 10  1  0  0  0
 21 22  1  0  0  0
 22 23  2  0  0  0
 23 18  1  0  0  0
 10  4  1  0  0  0
 16 12  1  0  0  0
  1 11  1  0  0  0
M  END
> <minimizedAffinity>
-9.13823

$$$$
OCNT-2314724


 22 25  0  0  0  0  0  0  0  0999 V2000
   -2.8655   25.9675    3.0774 C   0  0  0  0  0  0  0  0  0  0  0  0
   -4.2647   25.3918    2.9042 C   0  0  0  0  0  0  0  0  0  0  0  0
   -4.2793   23.8920    3.1916 C   0  0  0  0  0  0  0  0  0  0  0  0
   -5.6501   23.3943    3.0294 N   0  0  0  0  0  0  0  0  0  0  0  0
   -6.1904   22.6292    4.0552 C   0  0  0  0  0  0  0  0  0  0  0  0
   -5.4576   22.0734    4.8799 O   0  0  0  0  0  0  0  0  0  0  0  0
   -6.2346   23.7719    1.7859 C   0  0  0  0  0  0  0  0  0  0  0  0
   -7.2278   23.0190    1.1514 C   0  0  0  0  0  0  0  0  0  0  0  0
   -7.7637   23.4254   -0.0759 C   0  0  0  0  0  0  0  0  0  0  0  0
   -7.2892   24.5728   -0.7034 C   0  0  0  0  0  0  0  0  0  0  0  0
   -6.2586   25.3010   -0.1172 C   0  0  0  0  0  0  0  0  0  0  0  0
   -5.7270   24.9013    1.1117 C   0  0  0  0  0  0  0  0  0  0  0  0
   -4.6837   25.6743    1.5622 O   0  0  0  0  0  0  0  0  0  0  0  0
   -7.7089   22.5986    4.2573 C   0  0  0  0  0  0  0  0  0  0  0  0
   -8.1957   21.1600    4.5583 C   0  0  0  0  0  0  0  0  0  0  0  0
   -9.7180   21.1090    4.7180 C   0  0  0  0  0  0  0  0  0  0  0  0
  -10.2043   22.2062    5.5893 C   0  0  0  0  0  0  0  0  0  0  0  0
  -11.3750   22.3377    6.1726 N   0  0  0  0  0  0  0  0  0  0  0  0
  -11.3754   23.5407    6.8481 N   0  0  0  0  0  0  0  0  0  0  0  0
  -10.2072   24.1103    6.6559 C   0  0  0  0  0  0  0  0  0  0  0  0
   -9.4478   23.3080    5.8708 N   0  0  0  0  0  0  0  0  0  0  0  0
   -8.0906   23.5221    5.4245 C   0  0  0  0  0  0  0  0  0  0  0  0
  1  2  1  0  0  0
  2  3  1  0  0  0
  3  4  1  0  0  0
  4  5  1  0  0  0
  5  6  2  0  0  0
  5 14  1  0  0  0
 14 15  1  0  0  0
 15 16  1  0  0  0
 16 17  1  0  0  0
 17 18  2  0  0  0
 18 19  1  0  0  0
 19 20  2  0  0  0
 20 21  1  0  0  0
 21 22  1  0  0  0
  4  7  1  0  0  0
  7  8  2  0  0  0
  8  9  1  0  0  0
  9 10  2  0  0  0
 10 11  1  0  0  0
 11 12  2  0  0  0
 12 13  1  0  0  0
 13  2  1  0  0  0
 22 14  1  0  0  0
 12  7  1  0  0  0
 21 17  1  0  0  0
M  END
> <minimizedAffinity>
-9.28998

$$$$
OCNT-2314757


 24 27  0  0  0  0  0  0  0  0999 V2000
   -1.4846   30.4819    7.9774 C   0  0  0  0  0  0  0  0  0  0  0  0
   -0.9501   31.2474    9.0176 C   0  0  0  0  0  0  0  0  0  0  0  0
   -1.7907   31.9572    9.8968 C   0  0  0  0  0  0  0  0  0  0  0  0
   -3.1782   31.9152    9.7532 C   0  0  0  0  0  0  0  0  0  0  0  0
   -3.7019   31.1553    8.7237 C   0  0  0  0  0  0  0  0  0  0  0  0
   -2.8648   30.4498    7.8494 C   0  0  0  0  0  0  0  0  0  0  0  0
   -3.6831   29.7163    6.8365 C   0  0  0  0  0  0  0  0  0  0  0  0
   -5.0670   30.0302    7.2153 N   0  0  0  0  0  0  0  0  0  0  0  0
   -6.2050   29.7705    6.4810 C   0  0  0  0  0  0  0  0  0  0  0  0
   -7.3000   30.2622    6.7409 O   0  0  0  0  0  0  0  0  0  0  0  0
   -5.1334   30.9508    8.3477 C   0  0  0  0  0  0  0  0  0  0  0  0
   -6.1082   28.8755    5.3169 C   0  0  0  0  0  0  0  0  0  0  0  0
   -6.0063   29.3467    4.0143 C   0  0  0  0  0  0  0  0  0  0  0  0
   -5.8998   28.4237    2.9729 C   0  0  0  0  0  0  0  0  0  0  0  0
   -5.8766   27.0517    3.2497 C   0  0  0  0  0  0  0  0  0  0  0  0
   -5.9646   26.6009    4.5171 N   0  0  0  0  0  0  0  0  0  0  0  0
   -6.0579   27.5086    5.5211 C   0  0  0  0  0  0  0  0  0  0  0  0
   -5.8023   26.1736    2.1381 N   0  0  0  0  0  0  0  0  0  0  0  0
   -5.1224   26.5565    1.4858 H   0  0  0  0  0  0  0  0  0  0  0  0
   -5.7685   24.7075    2.2220 C   0  0  0  0  0  0  0  0  0  0  0  0
   -6.4647   23.7918    1.2602 C   0  0  0  0  0  0  0  0  0  0  0  0
   -4.9598   23.8068    1.3385 C   0  0  0  0  0  0  0  0  0  0  0  0
    0.5046   29.2949    7.4636 C   0  0  0  0  0  0  0  0  0  0  0  0
   -0.7823   29.7511    7.0647 O   0  0  0  0  0  0  0  0  0  0  0  0
 23 24  1  0  0  0
 24  1  1  0  0  0
  1  2  1  0  0  0
  2  3  2  0  0  0
  3  4  1  0  0  0
  4  5  2  0  0  0
  5  6  1  0  0  0
  6  7  1  0  0  0
  7  8  1  0  0  0
  8  9  1  0  0  0
  9 10  2  0  0  0
  9 12  1  0  0  0
 12 13  2  0  0  0
 13 14  1  0  0  0
 14 15  2  0  0  0
 15 18  1  0  0  0
 18 20  1  0  0  0
 20 21  1  0  0  0
 21 22  1  0  0  0
 15 16  1  0  0  0
 16 17  2  0  0  0
  8 11  1  0  0  0
  6  1  2  0  0  0
 17 12  1  0  0  0
 11  5  1  0  0  0
 22 20  1  0  0  0
 18 19  1  0  0  0
M  END
> <minimizedAffinity>
-9.13083

$$$$
OCNT-2314762


 23 26  0  0  0  0  0  0  0  0999 V2000
   -3.4854   25.7489    3.7899 C   0  0  0  0  0  0  0  0  0  0  0  0
   -3.9076   26.6019    4.7791 C   0  0  0  0  0  0  0  0  0  0  0  0
   -2.7536   26.9381    5.4194 N   0  0  0  0  0  0  0  0  0  0  0  0
   -1.6855   26.3362    4.8671 N   0  0  0  0  0  0  0  0  0  0  0  0
   -2.1280   25.5989    3.8562 N   0  0  0  0  0  0  0  0  0  0  0  0
   -6.9029   22.6439   -0.2662 C   0  0  0  0  0  0  0  0  0  0  0  0
   -7.2249   23.9350   -0.6800 C   0  0  0  0  0  0  0  0  0  0  0  0
   -6.6784   25.0540   -0.0443 C   0  0  0  0  0  0  0  0  0  0  0  0
   -5.7985   24.8270    1.0201 C   0  0  0  0  0  0  0  0  0  0  0  0
   -5.1194   25.7184    1.8188 N   0  0  0  0  0  0  0  0  0  0  0  0
   -4.3654   25.0465    2.7421 C   0  0  0  0  0  0  0  0  0  0  0  0
   -4.5508   23.6978    2.5449 C   0  0  0  0  0  0  0  0  0  0  0  0
   -5.4571   23.5457    1.4569 C   0  0  0  0  0  0  0  0  0  0  0  0
   -6.0206   22.4346    0.8004 C   0  0  0  0  0  0  0  0  0  0  0  0
   -5.1635   26.7254    1.7420 H   0  0  0  0  0  0  0  0  0  0  0  0
   -2.5880   27.8297    6.5481 C   0  0  0  0  0  0  0  0  0  0  0  0
   -1.1571   27.8117    7.0861 C   0  0  0  0  0  0  0  0  0  0  0  0
   -0.4043   29.1129    6.8146 C   0  0  0  0  0  0  0  0  0  0  0  0
   -0.8774   30.2368    7.5930 N   0  0  0  0  0  0  0  0  0  0  0  0
   -1.6505   31.2676    7.1400 C   0  0  0  0  0  0  0  0  0  0  0  0
   -1.8259   32.0839    8.2331 C   0  0  0  0  0  0  0  0  0  0  0  0
   -1.1901   31.5667    9.3323 N   0  0  0  0  0  0  0  0  0  0  0  0
   -0.6387   30.4482    8.9204 C   0  0  0  0  0  0  0  0  0  0  0  0
  6  7  2  0  0  0
  7  8  1  0  0  0
  8  9  2  0  0  0
  9 10  1  0  0  0
 10 11  1  0  0  0
 11  1  1  0  0  0
  1  2  2  0  0  0
  2  3  1  0  0  0
  3 16  1  0  0  0
 16 17  1  0  0  0
 17 18  1  0  0  0
 18 19  1  0  0  0
 19 20  1  0  0  0
 20 21  2  0  0  0
 21 22  1  0  0  0
 22 23  2  0  0  0
  3  4  1  0  0  0
  4  5  2  0  0  0
 11 12  2  0  0  0
 12 13  1  0  0  0
 13 14  2  0  0  0
 14  6  1  0  0  0
 13  9  1  0  0  0
  5  1  1  0  0  0
 23 19  1  0  0  0
 10 15  1  0  0  0
M  END
> <minimizedAffinity>
-8.40068

$$$$
OCNT-2314763


 28 30  0  0  0  0  0  0  0  0999 V2000
   -0.6479   29.8455    7.8886 C   0  0  0  0  0  0  0  0  0  0  0  0
   -0.8127   30.6769    9.1741 C   0  0  0  0  0  0  0  0  0  0  0  0
   -1.4638   32.0483    8.9560 C   0  0  0  0  0  0  0  0  0  0  0  0
   -2.5906   32.0121    7.9203 C   0  0  0  0  0  0  0  0  0  0  0  0
   -2.0942   31.4829    6.5638 C   0  0  0  0  0  0  0  0  0  0  0  0
   -0.7685   30.7144    6.6340 C   0  0  0  0  0  0  0  0  0  0  0  0
   -1.2976   27.7309    6.8685 N   0  0  0  0  0  0  0  0  0  0  0  0
   -1.6342   28.6760    7.8093 C   0  0  0  0  0  0  0  0  0  0  0  0
   -2.6603   28.6175    8.4815 O   0  0  0  0  0  0  0  0  0  0  0  0
   -0.3902   27.7826    6.4234 H   0  0  0  0  0  0  0  0  0  0  0  0
   -2.0503   26.5071    6.7022 C   0  0  0  0  0  0  0  0  0  0  0  0
   -0.7817   25.5661    4.1060 C   0  0  0  0  0  0  0  0  0  0  0  0
   -2.1938   26.0642    4.1842 C   0  0  0  0  0  0  0  0  0  0  0  0
   -2.9757   26.1068    3.0300 C   0  0  0  0  0  0  0  0  0  0  0  0
   -4.2567   26.5340    2.9862 N   0  0  0  0  0  0  0  0  0  0  0  0
   -4.7975   26.9413    4.1497 C   0  0  0  0  0  0  0  0  0  0  0  0
   -4.1113   26.9495    5.3519 C   0  0  0  0  0  0  0  0  0  0  0  0
   -2.7784   26.5147    5.3809 C   0  0  0  0  0  0  0  0  0  0  0  0
   -3.7118   31.2196    8.4096 N   0  0  0  0  0  0  0  0  0  0  0  0
   -4.8620   31.8132    8.8897 C   0  0  0  0  0  0  0  0  0  0  0  0
   -5.0754   33.0193    8.8307 O   0  0  0  0  0  0  0  0  0  0  0  0
   -3.5128   30.2782    8.7524 H   0  0  0  0  0  0  0  0  0  0  0  0
   -5.8214   30.8107    9.5078 C   0  0  0  0  0  0  0  0  0  0  0  0
   -6.7863   30.2016    8.4925 C   0  0  0  0  0  0  0  0  0  0  0  0
   -6.2728   28.8828    7.9107 C   0  0  0  0  0  0  0  0  0  0  0  0
   -7.0076   28.7199    6.5810 C   0  0  0  0  0  0  0  0  0  0  0  0
   -7.6058   30.0863    6.2485 C   0  0  0  0  0  0  0  0  0  0  0  0
   -6.9785   31.0556    7.2397 C   0  0  0  0  0  0  0  0  0  0  0  0
 12 13  1  0  0  0
 13 14  2  0  0  0
 14 15  1  0  0  0
 15 16  2  0  0  0
 16 17  1  0  0  0
 17 18  2  0  0  0
 18 11  1  0  0  0
 11  7  1  0  0  0
  7  8  1  0  0  0
  8  9  2  0  0  0
  8  1  1  0  0  0
  1  2  1  0  0  0
  2  3  1  0  0  0
  3  4  1  0  0  0
  4 19  1  0  0  0
 19 20  1  0  0  0
 20 21  2  0  0  0
 20 23  1  0  0  0
 23 24  1  0  0  0
 24 25  1  0  0  0
 25 26  1  0  0  0
 26 27  1  0  0  0
 27 28  1  0  0  0
  4  5  1  0  0  0
  5  6  1  0  0  0
 18 13  1  0  0  0
  6  1  1  0  0  0
 28 24  1  0  0  0
  7 10  1  0  0  0
 19 22  1  0  0  0
M  END
> <minimizedAffinity>
-9.00527

$$$$
OCNT-2314770


 22 25  0  0  0  0  0  0  0  0999 V2000
   -2.2738   28.4747    7.7102 N   0  0  0  0  0  0  0  0  0  0  0  0
   -3.4742   28.6320    8.5355 C   0  0  0  0  0  0  0  0  0  0  0  0
   -3.6351   30.1644    8.6045 C   0  0  0  0  0  0  0  0  0  0  0  0
   -2.6908   30.7491    9.6752 C   0  0  0  0  0  0  0  0  0  0  0  0
   -2.3334   32.2110    9.4414 C   0  0  0  0  0  0  0  0  0  0  0  0
   -1.7470   32.3997    8.0496 C   0  0  0  0  0  0  0  0  0  0  0  0
   -2.7625   32.0049    6.9856 C   0  0  0  0  0  0  0  0  0  0  0  0
   -3.3092   30.5723    7.1539 C   0  0  0  0  0  0  0  0  0  0  0  0
   -4.6924   30.4489    6.4829 C   0  0  0  0  0  0  0  0  0  0  0  0
   -5.5878   31.0151    7.4937 N   0  0  0  0  0  0  0  0  0  0  0  0
   -6.9872   30.6990    7.2596 C   0  0  0  0  0  0  0  0  0  0  0  0
   -5.1059   30.5706    8.8100 C   0  0  0  0  0  0  0  0  0  0  0  0
   -2.3357   29.4916    6.6495 C   0  0  0  0  0  0  0  0  0  0  0  0
   -2.0649   27.1186    7.1870 C   0  0  0  0  0  0  0  0  0  0  0  0
   -4.1527   26.7353    4.1993 C   0  0  0  0  0  0  0  0  0  0  0  0
   -3.1091   26.3000    3.4856 N   0  0  0  0  0  0  0  0  0  0  0  0
   -1.7955   26.2988    4.5122 S   0  0  0  0  0  0  0  0  0  0  0  0
   -2.7040   26.8876    5.8476 C   0  0  0  0  0  0  0  0  0  0  0  0
   -3.9742   27.0638    5.5389 N   0  0  0  0  0  0  0  0  0  0  0  0
   -5.6335   26.0739    2.2835 C   0  0  0  0  0  0  0  0  0  0  0  0
   -5.5147   26.8711    3.5834 C   0  0  0  0  0  0  0  0  0  0  0  0
   -5.8910   28.3362    3.3565 C   0  0  0  0  0  0  0  0  0  0  0  0
 20 21  1  0  0  0
 21 22  1  0  0  0
 21 15  1  0  0  0
 15 16  2  0  0  0
 16 17  1  0  0  0
 17 18  1  0  0  0
 18 14  1  0  0  0
 14  1  1  0  0  0
  1  2  1  0  0  0
  2  3  1  0  0  0
  3  4  1  0  0  0
  4  5  1  0  0  0
  5  6  1  0  0  0
  6  7  1  0  0  0
  7  8  1  0  0  0
  8  9  1  0  0  0
  9 10  1  0  0  0
 10 11  1  0  0  0
 10 12  1  0  0  0
  8 13  1  0  0  0
 18 19  2  0  0  0
 19 15  1  0  0  0
 13  1  1  0  0  0
  8  3  1  0  0  0
 12  3  1  0  0  0
M  END
> <minimizedAffinity>
-8.12644

$$$$
OCNT-2314771


 26 28  0  0  0  0  0  0  0  0999 V2000
   -5.2177   30.1684    7.3091 C   0  0  0  0  0  0  0  0  0  0  0  0
   -4.9241   29.2382    6.4185 N   0  0  0  0  0  0  0  0  0  0  0  0
   -6.0758   28.7226    5.8360 C   0  0  0  0  0  0  0  0  0  0  0  0
   -7.2454   29.3041    6.2788 C   0  0  0  0  0  0  0  0  0  0  0  0
   -6.9052   30.4821    7.4717 S   0  0  0  0  0  0  0  0  0  0  0  0
   -5.9920   27.6905    4.8042 C   0  0  0  0  0  0  0  0  0  0  0  0
   -6.1883   26.3533    5.1920 C   0  0  0  0  0  0  0  0  0  0  0  0
   -6.1219   25.3157    4.2598 C   0  0  0  0  0  0  0  0  0  0  0  0
   -5.8639   25.6063    2.9277 C   0  0  0  0  0  0  0  0  0  0  0  0
   -5.8064   24.5617    2.0533 O   0  0  0  0  0  0  0  0  0  0  0  0
   -5.6756   26.9193    2.5076 C   0  0  0  0  0  0  0  0  0  0  0  0
   -5.7440   27.9568    3.4459 C   0  0  0  0  0  0  0  0  0  0  0  0
   -5.5826   29.2463    3.0096 O   0  0  0  0  0  0  0  0  0  0  0  0
   -5.6158   24.8996    1.1633 H   0  0  0  0  0  0  0  0  0  0  0  0
   -5.5427   29.2572    2.0395 H   0  0  0  0  0  0  0  0  0  0  0  0
   -1.9086   30.9045    9.0021 C   0  0  0  0  0  0  0  0  0  0  0  0
   -2.1667   32.1287    9.6137 C   0  0  0  0  0  0  0  0  0  0  0  0
   -3.4193   32.7309    9.4816 C   0  0  0  0  0  0  0  0  0  0  0  0
   -4.4273   32.1131    8.7374 C   0  0  0  0  0  0  0  0  0  0  0  0
   -4.2006   30.8790    8.1125 C   0  0  0  0  0  0  0  0  0  0  0  0
   -2.9277   30.2928    8.2575 C   0  0  0  0  0  0  0  0  0  0  0  0
    1.3586   29.0804    8.5178 C   0  0  0  0  0  0  0  0  0  0  0  0
    0.1040   29.7657    8.0358 C   0  0  0  0  0  0  0  0  0  0  0  0
   -0.1442   29.8466    6.8382 O   0  0  0  0  0  0  0  0  0  0  0  0
   -0.6750   30.2251    9.0820 N   0  0  0  0  0  0  0  0  0  0  0  0
   -0.3295   30.0505   10.0177 H   0  0  0  0  0  0  0  0  0  0  0  0
 22 23  1  0  0  0
 23 24  2  0  0  0
 23 25  1  0  0  0
 25 16  1  0  0  0
 16 17  2  0  0  0
 17 18  1  0  0  0
 18 19  2  0  0  0
 19 20  1  0  0  0
 20  1  1  0  0  0
  1  2  2  0  0  0
  2  3  1  0  0  0
  3  6  1  0  0  0
  6  7  1  0  0  0
  7  8  2  0  0  0
  8  9  1  0  0  0
  9 10  1  0  0  0
  9 11  2  0  0  0
 11 12  1  0  0  0
 12 13  1  0  0  0
  3  4  2  0  0  0
  4  5  1  0  0  0
 20 21  2  0  0  0
 21 16  1  0  0  0
  5  1  1  0  0  0
 12  6  2  0  0  0
 25 26  1  0  0  0
 10 14  1  0  0  0
 13 15  1  0  0  0
M  END
> <minimizedAffinity>
-9.35887

$$$$
OCNT-2314773


 22 23  0  0  0  0  0  0  0  0999 V2000
   -4.9598   30.7168    6.3656 C   0  0  0  0  0  0  0  0  0  0  0  0
   -5.5921   30.4390    7.3809 O   0  0  0  0  0  0  0  0  0  0  0  0
   -5.3521   30.3553    5.0977 N   0  0  0  0  0  0  0  0  0  0  0  0
   -4.7194   30.6185    4.3476 H   0  0  0  0  0  0  0  0  0  0  0  0
   -3.6048   31.4415    6.4104 C   0  0  0  0  0  0  0  0  0  0  0  0
   -1.1952   28.3303    8.3533 C   0  0  0  0  0  0  0  0  0  0  0  0
   -0.5684   29.6195    7.8131 C   0  0  0  0  0  0  0  0  0  0  0  0
   -0.1860   30.5844    8.9362 C   0  0  0  0  0  0  0  0  0  0  0  0
   -1.4143   31.2445    9.5514 C   0  0  0  0  0  0  0  0  0  0  0  0
   -2.3403   31.8775    8.4900 C   0  0  0  0  0  0  0  0  0  0  0  0
   -3.5536   32.4631    9.2297 C   0  0  0  0  0  0  0  0  0  0  0  0
   -2.7167   30.8710    7.4655 N   0  0  0  0  0  0  0  0  0  0  0  0
   -1.4972   30.3288    6.8174 C   0  0  0  0  0  0  0  0  0  0  0  0
   -6.5237   29.5676    4.8228 C   0  0  0  0  0  0  0  0  0  0  0  0
   -6.1412   28.1671    4.4168 C   0  0  0  0  0  0  0  0  0  0  0  0
   -5.7955   27.8903    3.0858 C   0  0  0  0  0  0  0  0  0  0  0  0
   -5.4620   26.5917    2.6937 C   0  0  0  0  0  0  0  0  0  0  0  0
   -5.4770   25.5529    3.6286 C   0  0  0  0  0  0  0  0  0  0  0  0
   -5.8300   25.8189    4.9556 C   0  0  0  0  0  0  0  0  0  0  0  0
   -6.1640   27.1185    5.3467 C   0  0  0  0  0  0  0  0  0  0  0  0
   -5.1373   24.2189    3.2285 C   0  0  0  0  0  0  0  0  0  0  0  0
   -4.8647   23.1372    2.9078 N   0  0  0  0  0  0  0  0  0  0  0  0
  6  7  1  0  0  0
  7  8  1  0  0  0
  8  9  1  0  0  0
  9 10  1  0  0  0
 10 11  1  0  0  0
 10 12  1  0  0  0
 12  5  1  0  0  0
  5  1  1  0  0  0
  1  2  2  0  0  0
  1  3  1  0  0  0
  3 14  1  0  0  0
 14 15  1  0  0  0
 15 16  1  0  0  0
 16 17  2  0  0  0
 17 18  1  0  0  0
 18 21  1  0  0  0
 21 22  3  0  0  0
 18 19  2  0  0  0
 19 20  1  0  0  0
 12 13  1  0  0  0
 13  7  1  0  0  0
 20 15  2  0  0  0
  3  4  1  0  0  0
M  END
> <minimizedAffinity>
-8.53237

$$$$
OCNT-2314777


 22 25  0  0  0  0  0  0  0  0999 V2000
   -1.4941   28.7323    6.9012 N   0  0  0  0  0  0  0  0  0  0  0  0
   -0.2770   28.2061    7.5265 C   0  0  0  0  0  0  0  0  0  0  0  0
    0.5646   29.3156    8.1625 C   0  0  0  0  0  0  0  0  0  0  0  0
   -0.3197   30.2516    8.9770 C   0  0  0  0  0  0  0  0  0  0  0  0
   -1.4409   30.8773    8.1198 C   0  0  0  0  0  0  0  0  0  0  0  0
   -1.5786   30.1848    6.7494 C   0  0  0  0  0  0  0  0  0  0  0  0
   -6.5533   27.9602    5.8605 C   0  0  0  0  0  0  0  0  0  0  0  0
   -5.9145   28.8977    6.6510 C   0  0  0  0  0  0  0  0  0  0  0  0
   -4.5842   28.9859    6.8383 N   0  0  0  0  0  0  0  0  0  0  0  0
   -3.8172   28.0591    6.1798 C   0  0  0  0  0  0  0  0  0  0  0  0
   -4.3998   27.0855    5.3653 C   0  0  0  0  0  0  0  0  0  0  0  0
   -5.7870   27.0160    5.1889 C   0  0  0  0  0  0  0  0  0  0  0  0
   -3.1529   26.1205    4.7170 S   0  0  0  0  0  0  0  0  0  0  0  0
   -1.9043   26.9054    5.4388 N   0  0  0  0  0  0  0  0  0  0  0  0
   -2.3533   27.9125    6.1955 C   0  0  0  0  0  0  0  0  0  0  0  0
   -2.7966   30.8781    8.8598 C   0  0  0  0  0  0  0  0  0  0  0  0
   -3.5951   32.1397    8.6551 C   0  0  0  0  0  0  0  0  0  0  0  0
   -4.1435   32.4544    7.4147 C   0  0  0  0  0  0  0  0  0  0  0  0
   -4.8632   33.5708    7.1610 N   0  0  0  0  0  0  0  0  0  0  0  0
   -5.0522   34.4159    8.1961 C   0  0  0  0  0  0  0  0  0  0  0  0
   -4.5554   34.1968    9.4699 C   0  0  0  0  0  0  0  0  0  0  0  0
   -3.8167   33.0400    9.6999 C   0  0  0  0  0  0  0  0  0  0  0  0
  7  8  2  0  0  0
  8  9  1  0  0  0
  9 10  2  0  0  0
 10 11  1  0  0  0
 11 12  2  0  0  0
 11 13  1  0  0  0
 13 14  1  0  0  0
 14 15  2  0  0  0
 15  1  1  0  0  0
  1  2  1  0  0  0
  2  3  1  0  0  0
  3  4  1  0  0  0
  4  5  1  0  0  0
  5 16  1  0  0  0
 16 17  1  0  0  0
 17 18  2  0  0  0
 18 19  1  0  0  0
 19 20  2  0  0  0
 20 21  1  0  0  0
 21 22  2  0  0  0
  5  6  1  0  0  0
 12  7  1  0  0  0
  6  1  1  0  0  0
 15 10  1  0  0  0
 22 17  1  0  0  0
M  END
> <minimizedAffinity>
-8.79893

$$$$
OCNT-2314781


 26 30  0  0  0  0  0  0  0  0999 V2000
   -3.9442   27.4557    3.4154 O   0  0  0  0  0  0  0  0  0  0  0  0
   -4.9084   26.9192    3.9646 C   0  0  0  0  0  0  0  0  0  0  0  0
   -5.5907   25.8790    3.3628 N   0  0  0  0  0  0  0  0  0  0  0  0
   -6.2498   24.8019    4.1125 C   0  0  0  0  0  0  0  0  0  0  0  0
   -6.1489   23.4193    3.4593 C   0  0  0  0  0  0  0  0  0  0  0  0
   -6.5908   23.5047    2.0253 C   0  0  0  0  0  0  0  0  0  0  0  0
   -7.3534   22.5045    1.4173 C   0  0  0  0  0  0  0  0  0  0  0  0
   -7.7231   22.6316    0.0785 C   0  0  0  0  0  0  0  0  0  0  0  0
   -7.3219   23.7474   -0.6567 C   0  0  0  0  0  0  0  0  0  0  0  0
   -6.5462   24.7406   -0.0571 C   0  0  0  0  0  0  0  0  0  0  0  0
   -6.1815   24.6289    1.2887 C   0  0  0  0  0  0  0  0  0  0  0  0
   -5.2847   25.6463    1.9495 C   0  0  0  0  0  0  0  0  0  0  0  0
   -5.3425   27.3543    5.1974 N   0  0  0  0  0  0  0  0  0  0  0  0
   -6.7220   27.3392    5.6710 C   0  0  0  0  0  0  0  0  0  0  0  0
   -6.8514   28.5677    6.5658 C   0  0  0  0  0  0  0  0  0  0  0  0
   -5.4294   28.7381    7.1074 C   0  0  0  0  0  0  0  0  0  0  0  0
   -4.5798   28.3889    5.8881 C   0  0  0  0  0  0  0  0  0  0  0  0
   -5.1500   30.0272    7.6892 N   0  0  0  0  0  0  0  0  0  0  0  0
   -6.0056   31.0993    7.7413 C   0  0  0  0  0  0  0  0  0  0  0  0
   -5.4731   32.1286    8.3648 N   0  0  0  0  0  0  0  0  0  0  0  0
   -4.2252   31.7118    8.7228 C   0  0  0  0  0  0  0  0  0  0  0  0
   -3.9936   30.4196    8.3064 C   0  0  0  0  0  0  0  0  0  0  0  0
   -2.7464   29.6476    8.5368 C   0  0  0  0  0  0  0  0  0  0  0  0
   -1.6176   30.6054    8.9749 C   0  0  0  0  0  0  0  0  0  0  0  0
   -2.0937   31.6589    9.9972 C   0  0  0  0  0  0  0  0  0  0  0  0
   -3.2286   32.5436    9.4414 C   0  0  0  0  0  0  0  0  0  0  0  0
  1  2  2  0  0  0
  2  3  1  0  0  0
  3  4  1  0  0  0
  4  5  1  0  0  0
  5  6  1  0  0  0
  6  7  2  0  0  0
  7  8  1  0  0  0
  8  9  2  0  0  0
  9 10  1  0  0  0
 10 11  2  0  0  0
 11 12  1  0  0  0
  2 13  1  0  0  0
 13 14  1  0  0  0
 14 15  1  0  0  0
 15 16  1  0  0  0
 16 18  1  0  0  0
 18 19  1  0  0  0
 19 20  2  0  0  0
 20 21  1  0  0  0
 21 22  2  0  0  0
 22 23  1  0  0  0
 23 24  1  0  0  0
 24 25  1  0  0  0
 25 26  1  0  0  0
 16 17  1  0  0  0
 12  3  1  0  0  0
 17 13  1  0  0  0
 11  6  1  0  0  0
 22 18  1  0  0  0
 26 21  1  0  0  0
M  END
> <minimizedAffinity>
-11.29043

$$$$
OCNT-2314790


 25 27  0  0  0  0  0  0  0  0999 V2000
   -4.1251   27.4198    4.5348 N   0  0  0  0  0  0  0  0  0  0  0  0
   -5.5381   27.4476    4.1118 C   0  0  0  0  0  0  0  0  0  0  0  0
   -5.7422   27.1994    2.5989 C   0  0  0  0  0  0  0  0  0  0  0  0
   -5.1786   25.9039    2.1853 N   0  0  0  0  0  0  0  0  0  0  0  0
   -4.2261   25.2868    3.1214 C   0  0  0  0  0  0  0  0  0  0  0  0
   -3.3653   26.3682    3.8165 C   0  0  0  0  0  0  0  0  0  0  0  0
   -5.9657   25.0303    1.4463 C   0  0  0  0  0  0  0  0  0  0  0  0
   -6.2878   25.3107    0.1129 C   0  0  0  0  0  0  0  0  0  0  0  0
   -7.0618   24.4174   -0.6300 C   0  0  0  0  0  0  0  0  0  0  0  0
   -7.4914   23.2531   -0.0260 C   0  0  0  0  0  0  0  0  0  0  0  0
   -8.2336   22.3685   -0.7031 F   0  0  0  0  0  0  0  0  0  0  0  0
   -7.1318   23.0210    1.2849 C   0  0  0  0  0  0  0  0  0  0  0  0
   -6.3821   23.8771    2.0221 N   0  0  0  0  0  0  0  0  0  0  0  0
   -4.0206   27.2954    6.0033 C   0  0  0  0  0  0  0  0  0  0  0  0
   -3.5508   29.5164    7.0799 N   0  0  0  0  0  0  0  0  0  0  0  0
   -2.1119   29.2878    6.9802 C   0  0  0  0  0  0  0  0  0  0  0  0
   -4.5184   28.5521    6.7539 C   0  0  0  0  0  0  0  0  0  0  0  0
   -5.7064   28.7191    7.0416 O   0  0  0  0  0  0  0  0  0  0  0  0
   -4.5776   34.5591    9.7196 C   0  0  0  0  0  0  0  0  0  0  0  0
   -4.5067   33.1423    9.1542 C   0  0  0  0  0  0  0  0  0  0  0  0
   -3.1578   32.4887    9.4606 C   0  0  0  0  0  0  0  0  0  0  0  0
   -3.1198   31.0238    9.0140 C   0  0  0  0  0  0  0  0  0  0  0  0
   -4.0125   30.7266    7.7915 C   0  0  0  0  0  0  0  0  0  0  0  0
   -4.1512   31.9648    6.8967 C   0  0  0  0  0  0  0  0  0  0  0  0
   -4.7889   33.1424    7.6419 C   0  0  0  0  0  0  0  0  0  0  0  0
 19 20  1  0  0  0
 20 21  1  0  0  0
 21 22  1  0  0  0
 22 23  1  0  0  0
 23 15  1  0  0  0
 15 16  1  0  0  0
 15 17  1  0  0  0
 17 18  2  0  0  0
 17 14  1  0  0  0
 14  1  1  0  0  0
  1  2  1  0  0  0
  2  3  1  0  0  0
  3  4  1  0  0  0
  4  7  1  0  0  0
  7  8  2  0  0  0
  8  9  1  0  0  0
  9 10  2  0  0  0
 10 11  1  0  0  0
 10 12  1  0  0  0
 12 13  2  0  0  0
  4  5  1  0  0  0
  5  6  1  0  0  0
 23 24  1  0  0  0
 24 25  1  0  0  0
 25 20  1  0  0  0
  6  1  1  0  0  0
 13  7  1  0  0  0
M  END
> <minimizedAffinity>
-9.24343

$$$$
OCNT-2314795


 25 27  0  0  0  0  0  0  0  0999 V2000
   -5.3482   29.1005    6.6466 C   0  0  0  0  0  0  0  0  0  0  0  0
   -6.3888   28.5661    7.0129 O   0  0  0  0  0  0  0  0  0  0  0  0
   -4.5484   28.6553    5.6050 N   0  0  0  0  0  0  0  0  0  0  0  0
   -3.6700   29.1362    5.4586 H   0  0  0  0  0  0  0  0  0  0  0  0
   -4.8102   27.5635    4.7505 C   0  0  0  0  0  0  0  0  0  0  0  0
   -5.5392   27.8110    3.5864 C   0  0  0  0  0  0  0  0  0  0  0  0
   -5.8378   26.7687    2.7029 C   0  0  0  0  0  0  0  0  0  0  0  0
   -5.3967   25.4856    3.0096 C   0  0  0  0  0  0  0  0  0  0  0  0
   -4.6896   25.2186    4.1358 N   0  0  0  0  0  0  0  0  0  0  0  0
   -4.4119   26.2512    4.9747 C   0  0  0  0  0  0  0  0  0  0  0  0
   -5.6760   24.3928    2.1421 N   0  0  0  0  0  0  0  0  0  0  0  0
   -5.3847   23.0690    2.3973 C   0  0  0  0  0  0  0  0  0  0  0  0
   -5.8237   22.3655    1.3027 C   0  0  0  0  0  0  0  0  0  0  0  0
   -6.3774   23.2064    0.3770 N   0  0  0  0  0  0  0  0  0  0  0  0
   -6.2755   24.4083    0.9034 C   0  0  0  0  0  0  0  0  0  0  0  0
   -3.8829   31.1431    6.3850 C   0  0  0  0  0  0  0  0  0  0  0  0
   -4.7893   30.3524    7.3299 C   0  0  0  0  0  0  0  0  0  0  0  0
   -4.1056   30.0315    8.6737 C   0  0  0  0  0  0  0  0  0  0  0  0
   -2.6087   29.8297    8.6200 C   0  0  0  0  0  0  0  0  0  0  0  0
   -2.0603   28.6585    8.0744 C   0  0  0  0  0  0  0  0  0  0  0  0
   -0.6764   28.4830    8.0234 C   0  0  0  0  0  0  0  0  0  0  0  0
    0.1601   29.4745    8.5199 C   0  0  0  0  0  0  0  0  0  0  0  0
    1.4878   29.3036    8.4727 F   0  0  0  0  0  0  0  0  0  0  0  0
   -0.3609   30.6398    9.0667 C   0  0  0  0  0  0  0  0  0  0  0  0
   -1.7442   30.8183    9.1174 C   0  0  0  0  0  0  0  0  0  0  0  0
 16 17  1  0  0  0
 17 18  1  0  0  0
 18 19  1  0  0  0
 19 20  1  0  0  0
 20 21  2  0  0  0
 21 22  1  0  0  0
 22 23  1  0  0  0
 22 24  2  0  0  0
 24 25  1  0  0  0
 17  1  1  0  0  0
  1  2  2  0  0  0
  1  3  1  0  0  0
  3  5  1  0  0  0
  5  6  2  0  0  0
  6  7  1  0  0  0
  7  8  2  0  0  0
  8 11  1  0  0  0
 11 12  1  0  0  0
 12 13  2  0  0  0
 13 14  1  0  0  0
 14 15  2  0  0  0
  8  9  1  0  0  0
  9 10  2  0  0  0
 25 19  2  0  0  0
 10  5  1  0  0  0
 15 11  1  0  0  0
  3  4  1  0  0  0
M  END
> <minimizedAffinity>
-8.90608

$$$$
OCNT-2314796


 31 35  0  0  0  0  0  0  0  0999 V2000
   -5.1333   29.3283    6.6866 N   0  0  0  0  0  0  0  0  0  0  0  0
   -5.9486   29.6185    7.2296 H   0  0  0  0  0  0  0  0  0  0  0  0
   -5.4854   28.1660    5.8546 C   0  0  0  0  0  0  0  0  0  0  0  0
   -4.2198   27.3665    5.5514 C   0  0  0  0  0  0  0  0  0  0  0  0
   -4.5856   26.0744    4.8196 C   0  0  0  0  0  0  0  0  0  0  0  0
   -5.6098   26.2926    3.7790 N   0  0  0  0  0  0  0  0  0  0  0  0
   -5.8223   27.6764    3.3554 C   0  0  0  0  0  0  0  0  0  0  0  0
   -6.1935   28.5614    4.5484 C   0  0  0  0  0  0  0  0  0  0  0  0
   -5.7056   25.2591    2.8312 C   0  0  0  0  0  0  0  0  0  0  0  0
   -5.8370   25.5042    1.4418 C   0  0  0  0  0  0  0  0  0  0  0  0
   -5.9402   24.4649    0.5051 C   0  0  0  0  0  0  0  0  0  0  0  0
   -5.9173   23.1747    0.9754 C   0  0  0  0  0  0  0  0  0  0  0  0
   -6.0075   22.0473    0.2225 O   0  0  0  0  0  0  0  0  0  0  0  0
   -5.9411   21.0339    1.2471 C   0  0  0  0  0  0  0  0  0  0  0  0
   -5.8041   21.5715    2.5787 O   0  0  0  0  0  0  0  0  0  0  0  0
   -5.7992   22.9064    2.3145 C   0  0  0  0  0  0  0  0  0  0  0  0
   -5.6953   23.9146    3.2530 C   0  0  0  0  0  0  0  0  0  0  0  0
   -4.0169   29.0438    7.6137 C   0  0  0  0  0  0  0  0  0  0  0  0
   -2.8552   30.1036    7.5435 C   0  0  0  0  0  0  0  0  0  0  0  0
   -4.9445   35.0602    9.3439 F   0  0  0  0  0  0  0  0  0  0  0  0
   -4.4442   33.8915    8.9214 C   0  0  0  0  0  0  0  0  0  0  0  0
   -4.5515   33.5473    7.5792 C   0  0  0  0  0  0  0  0  0  0  0  0
   -4.0325   32.3300    7.1362 C   0  0  0  0  0  0  0  0  0  0  0  0
   -3.4047   31.4529    8.0387 C   0  0  0  0  0  0  0  0  0  0  0  0
   -3.3090   31.8240    9.3927 C   0  0  0  0  0  0  0  0  0  0  0  0
   -3.8278   33.0423    9.8318 C   0  0  0  0  0  0  0  0  0  0  0  0
   -1.6454   29.7090    8.3267 N   0  0  0  0  0  0  0  0  0  0  0  0
   -1.3153   28.2761    8.2404 C   0  0  0  0  0  0  0  0  0  0  0  0
   -0.5578   28.0989    6.9340 C   0  0  0  0  0  0  0  0  0  0  0  0
    0.0719   29.4579    6.6682 C   0  0  0  0  0  0  0  0  0  0  0  0
   -0.4157   30.3450    7.8061 C   0  0  0  0  0  0  0  0  0  0  0  0
 20 21  1  0  0  0
 21 22  1  0  0  0
 22 23  2  0  0  0
 23 24  1  0  0  0
 24 19  1  0  0  0
 19 18  1  0  0  0
 18  1  1  0  0  0
  1  3  1  0  0  0
  3  4  1  0  0  0
  4  5  1  0  0  0
  5  6  1  0  0  0
  6  9  1  0  0  0
  9 10  1  0  0  0
 10 11  2  0  0  0
 11 12  1  0  0  0
 12 13  1  0  0  0
 13 14  1  0  0  0
 14 15  1  0  0  0
 15 16  1  0  0  0
 16 17  1  0  0  0
  6  7  1  0  0  0
  7  8  1  0  0  0
 19 27  1  0  0  0
 27 28  1  0  0  0
 28 29  1  0  0  0
 29 30  1  0  0  0
 30 31  1  0  0  0
 24 25  2  0  0  0
 25 26  1  0  0  0
 26 21  2  0  0  0
  8  3  1  0  0  0
 31 27  1  0  0  0
 17  9  2  0  0  0
 16 12  2  0  0  0
  1  2  1  0  0  0
M  END
> <minimizedAffinity>
-10.21931

$$$$
OCNT-2314799


 29 32  0  0  0  0  0  0  0  0999 V2000
   -5.7331   26.9794    4.5904 C   0  0  0  0  0  0  0  0  0  0  0  0
   -5.4168   27.7899    3.7298 O   0  0  0  0  0  0  0  0  0  0  0  0
   -6.0733   27.2285    5.9050 N   0  0  0  0  0  0  0  0  0  0  0  0
   -6.2465   26.4205    6.4909 H   0  0  0  0  0  0  0  0  0  0  0  0
   -5.6832   22.5169    6.1755 O   0  0  0  0  0  0  0  0  0  0  0  0
   -5.7385   23.2507    5.1960 C   0  0  0  0  0  0  0  0  0  0  0  0
   -5.6743   24.7172    5.3460 C   0  0  0  0  0  0  0  0  0  0  0  0
   -5.7440   25.5235    4.2759 C   0  0  0  0  0  0  0  0  0  0  0  0
   -5.8447   24.9657    2.9167 C   0  0  0  0  0  0  0  0  0  0  0  0
   -5.8382   25.7633    1.7634 C   0  0  0  0  0  0  0  0  0  0  0  0
   -5.9440   25.1823    0.4970 C   0  0  0  0  0  0  0  0  0  0  0  0
   -6.0477   23.7983    0.3660 C   0  0  0  0  0  0  0  0  0  0  0  0
   -6.0341   22.9909    1.5034 C   0  0  0  0  0  0  0  0  0  0  0  0
   -6.1578   21.1108    1.2744 Br  0  0  0  0  0  0  0  0  0  0  0  0
   -5.9264   23.5697    2.7753 C   0  0  0  0  0  0  0  0  0  0  0  0
   -5.8824   22.7678    3.9277 N   0  0  0  0  0  0  0  0  0  0  0  0
   -5.9226   21.7594    3.8341 H   0  0  0  0  0  0  0  0  0  0  0  0
   -6.1857   28.4834    6.5413 C   0  0  0  0  0  0  0  0  0  0  0  0
   -7.2894   29.2725    6.1953 C   0  0  0  0  0  0  0  0  0  0  0  0
   -7.4701   30.5287    6.7726 C   0  0  0  0  0  0  0  0  0  0  0  0
   -6.5450   31.0026    7.6994 C   0  0  0  0  0  0  0  0  0  0  0  0
   -5.4382   30.2300    8.0564 C   0  0  0  0  0  0  0  0  0  0  0  0
   -5.2639   28.9708    7.4745 C   0  0  0  0  0  0  0  0  0  0  0  0
   -4.6139   30.8212    8.9733 O   0  0  0  0  0  0  0  0  0  0  0  0
   -3.3062   31.2075    8.5697 C   0  0  0  0  0  0  0  0  0  0  0  0
   -2.3243   30.1023    8.9549 C   0  0  0  0  0  0  0  0  0  0  0  0
   -0.9667   30.7918    8.9816 C   0  0  0  0  0  0  0  0  0  0  0  0
   -1.2538   32.2709    9.2416 C   0  0  0  0  0  0  0  0  0  0  0  0
   -2.7671   32.3870    9.3737 C   0  0  0  0  0  0  0  0  0  0  0  0
  5  6  2  0  0  0
  6  7  1  0  0  0
  7  8  2  0  0  0
  8  1  1  0  0  0
  1  2  2  0  0  0
  1  3  1  0  0  0
  3 18  1  0  0  0
 18 19  2  0  0  0
 19 20  1  0  0  0
 20 21  2  0  0  0
 21 22  1  0  0  0
 22 24  1  0  0  0
 24 25  1  0  0  0
 25 26  1  0  0  0
 26 27  1  0  0  0
 27 28  1  0  0  0
 28 29  1  0  0  0
 22 23  2  0  0  0
  8  9  1  0  0  0
  9 10  2  0  0  0
 10 11  1  0  0  0
 11 12  2  0  0  0
 12 13  1  0  0  0
 13 14  1  0  0  0
 13 15  2  0  0  0
 15 16  1  0  0  0
 16  6  1  0  0  0
 23 18  1  0  0  0
 15  9  1  0  0  0
 29 25  1  0  0  0
  3  4  1  0  0  0
 16 17  1  0  0  0
M  END
> <minimizedAffinity>
-10.31583

$$$$
OCNT-2314801


 24 26  0  0  0  0  0  0  0  0999 V2000
   -1.9638   27.2759    7.4673 C   0  0  0  0  0  0  0  0  0  0  0  0
   -1.2573   26.3629    5.3599 O   0  0  0  0  0  0  0  0  0  0  0  0
   -2.1997   26.7325    6.0545 C   0  0  0  0  0  0  0  0  0  0  0  0
   -3.5375   26.7275    5.6997 N   0  0  0  0  0  0  0  0  0  0  0  0
   -4.1734   27.0302    6.4317 H   0  0  0  0  0  0  0  0  0  0  0  0
   -4.1124   26.3207    4.4827 C   0  0  0  0  0  0  0  0  0  0  0  0
   -3.7756   25.1404    3.8165 C   0  0  0  0  0  0  0  0  0  0  0  0
   -4.3926   24.8094    2.6044 C   0  0  0  0  0  0  0  0  0  0  0  0
   -5.3492   25.6587    2.0558 C   0  0  0  0  0  0  0  0  0  0  0  0
   -6.1058   25.2507    0.5665 Cl  0  0  0  0  0  0  0  0  0  0  0  0
   -5.6943   26.8373    2.7087 C   0  0  0  0  0  0  0  0  0  0  0  0
   -5.0759   27.1674    3.9183 C   0  0  0  0  0  0  0  0  0  0  0  0
   -2.8997   28.3125    7.8031 O   0  0  0  0  0  0  0  0  0  0  0  0
   -2.2857   29.3996    8.3644 C   0  0  0  0  0  0  0  0  0  0  0  0
   -0.8856   29.3805    8.4539 C   0  0  0  0  0  0  0  0  0  0  0  0
   -0.1982   30.4736    8.9727 C   0  0  0  0  0  0  0  0  0  0  0  0
   -0.9055   31.5874    9.4101 C   0  0  0  0  0  0  0  0  0  0  0  0
   -2.3034   31.5999    9.3555 C   0  0  0  0  0  0  0  0  0  0  0  0
   -3.0174   30.4952    8.8551 C   0  0  0  0  0  0  0  0  0  0  0  0
   -4.4457   30.5267    8.8753 N   0  0  0  0  0  0  0  0  0  0  0  0
   -5.2721   30.0083    9.8554 C   0  0  0  0  0  0  0  0  0  0  0  0
   -6.5619   30.2539    9.4490 C   0  0  0  0  0  0  0  0  0  0  0  0
   -6.5741   30.8964    8.2484 N   0  0  0  0  0  0  0  0  0  0  0  0
   -5.3062   31.0368    7.9247 C   0  0  0  0  0  0  0  0  0  0  0  0
  2  3  2  0  0  0
  3  1  1  0  0  0
  1 13  1  0  0  0
 13 14  1  0  0  0
 14 15  2  0  0  0
 15 16  1  0  0  0
 16 17  2  0  0  0
 17 18  1  0  0  0
 18 19  2  0  0  0
 19 20  1  0  0  0
 20 21  1  0  0  0
 21 22  2  0  0  0
 22 23  1  0  0  0
 23 24  2  0  0  0
  3  4  1  0  0  0
  4  6  1  0  0  0
  6  7  1  0  0  0
  7  8  2  0  0  0
  8  9  1  0  0  0
  9 10  1  0  0  0
  9 11  2  0  0  0
 11 12  1  0  0  0
 19 14  1  0  0  0
 24 20  1  0  0  0
 12  6  2  0  0  0
  4  5  1  0  0  0
M  END
> <minimizedAffinity>
-8.59946

$$$$
OCNT-2314802


 28 31  0  0  0  0  0  0  0  0999 V2000
   -3.6546   27.4910    5.2267 N   0  0  0  0  0  0  0  0  0  0  0  0
   -5.0006   27.7429    5.4272 C   0  0  0  0  0  0  0  0  0  0  0  0
   -5.9001   26.9284    5.2474 O   0  0  0  0  0  0  0  0  0  0  0  0
   -3.1241   28.3374    5.0328 H   0  0  0  0  0  0  0  0  0  0  0  0
   -3.1955   26.2802    4.5490 C   0  0  0  0  0  0  0  0  0  0  0  0
   -1.6906   26.0622    4.7188 C   0  0  0  0  0  0  0  0  0  0  0  0
   -3.5181   26.3294    3.0374 C   0  0  0  0  0  0  0  0  0  0  0  0
   -7.6650   20.9049    3.1619 C   0  0  0  0  0  0  0  0  0  0  0  0
   -6.4937   21.0997    2.2005 C   0  0  0  0  0  0  0  0  0  0  0  0
   -5.1954   21.5034    2.9202 C   0  0  0  0  0  0  0  0  0  0  0  0
   -5.1675   22.9473    2.5974 C   0  0  0  0  0  0  0  0  0  0  0  0
   -4.3262   23.9381    3.0756 C   0  0  0  0  0  0  0  0  0  0  0  0
   -4.4407   25.2349    2.5459 C   0  0  0  0  0  0  0  0  0  0  0  0
   -5.4087   25.4971    1.5497 C   0  0  0  0  0  0  0  0  0  0  0  0
   -6.2509   24.4831    1.0811 C   0  0  0  0  0  0  0  0  0  0  0  0
   -6.1096   23.2223    1.6218 C   0  0  0  0  0  0  0  0  0  0  0  0
   -6.8472   22.1320    1.2411 O   0  0  0  0  0  0  0  0  0  0  0  0
   -5.2931   29.1637    5.8573 C   0  0  0  0  0  0  0  0  0  0  0  0
   -4.0742   29.7123    6.5850 C   0  0  0  0  0  0  0  0  0  0  0  0
   -4.0409   31.2506    6.5671 C   0  0  0  0  0  0  0  0  0  0  0  0
   -2.7922   31.7843    7.1349 N   0  0  0  0  0  0  0  0  0  0  0  0
   -2.3001   30.8775    8.1973 C   0  0  0  0  0  0  0  0  0  0  0  0
   -1.0165   30.1523    7.6949 C   0  0  0  0  0  0  0  0  0  0  0  0
   -0.3355   30.5691    9.0183 C   0  0  0  0  0  0  0  0  0  0  0  0
   -1.3715   31.7098    9.1266 C   0  0  0  0  0  0  0  0  0  0  0  0
   -3.3698   30.0250    8.8722 C   0  0  0  0  0  0  0  0  0  0  0  0
   -4.1128   29.2217    7.9360 O   0  0  0  0  0  0  0  0  0  0  0  0
   -2.1262   31.9455    6.3790 H   0  0  0  0  0  0  0  0  0  0  0  0
  8  9  1  0  0  0
  9 10  1  0  0  0
 10 11  1  0  0  0
 11 12  1  0  0  0
 12 13  2  0  0  0
 13  7  1  0  0  0
  7  5  1  0  0  0
  5  6  1  0  0  0
  5  1  1  0  0  0
  1  2  1  0  0  0
  2  3  2  0  0  0
  2 18  1  0  0  0
 18 19  1  0  0  0
 19 20  1  0  0  0
 20 21  1  0  0  0
 21 22  1  0  0  0
 22 23  1  0  0  0
 23 24  1  0  0  0
 24 25  1  0  0  0
 22 26  1  0  0  0
 26 27  1  0  0  0
 13 14  1  0  0  0
 14 15  2  0  0  0
 15 16  1  0  0  0
 16 17  1  0  0  0
 17  9  1  0  0  0
 16 11  2  0  0  0
 27 19  1  0  0  0
 25 22  1  0  0  0
  1  4  1  0  0  0
 21 28  1  0  0  0
M  END
> <minimizedAffinity>
-9.94413

$$$$
OCNT-2314804


 25 27  0  0  0  0  0  0  0  0999 V2000
   -5.8273   27.6809    5.6258 C   0  0  0  0  0  0  0  0  0  0  0  0
   -4.8494   28.4319    6.0792 N   0  0  0  0  0  0  0  0  0  0  0  0
   -5.4606   29.1819    7.0602 C   0  0  0  0  0  0  0  0  0  0  0  0
   -6.7653   28.9065    7.2168 N   0  0  0  0  0  0  0  0  0  0  0  0
   -7.0102   27.9168    6.2694 O   0  0  0  0  0  0  0  0  0  0  0  0
   -5.8664   24.7259    2.5193 C   0  0  0  0  0  0  0  0  0  0  0  0
   -5.9666   24.3369    3.8542 C   0  0  0  0  0  0  0  0  0  0  0  0
   -5.9540   25.3000    4.8741 C   0  0  0  0  0  0  0  0  0  0  0  0
   -5.8411   26.6689    4.5785 C   0  0  0  0  0  0  0  0  0  0  0  0
   -5.7420   27.0354    3.2331 C   0  0  0  0  0  0  0  0  0  0  0  0
   -5.6301   28.3244    2.8779 F   0  0  0  0  0  0  0  0  0  0  0  0
   -5.7538   26.0816    2.2154 C   0  0  0  0  0  0  0  0  0  0  0  0
   -6.6627   24.2805    0.3226 C   0  0  0  0  0  0  0  0  0  0  0  0
   -5.8661   23.8938    1.4358 O   0  0  0  0  0  0  0  0  0  0  0  0
   -4.7316   30.1732    7.8449 C   0  0  0  0  0  0  0  0  0  0  0  0
   -3.6583   29.7756    8.6572 C   0  0  0  0  0  0  0  0  0  0  0  0
   -2.9455   30.7117    9.4100 C   0  0  0  0  0  0  0  0  0  0  0  0
   -3.3019   32.0595    9.3666 C   0  0  0  0  0  0  0  0  0  0  0  0
   -4.3783   32.4723    8.5721 C   0  0  0  0  0  0  0  0  0  0  0  0
   -5.0815   31.5311    7.8061 C   0  0  0  0  0  0  0  0  0  0  0  0
   -4.7933   33.8979    8.4918 C   0  0  0  0  0  0  0  0  0  0  0  0
   -5.3219   34.3348    7.3084 N   0  0  0  0  0  0  0  0  0  0  0  0
   -4.6395   34.6679    9.4306 O   0  0  0  0  0  0  0  0  0  0  0  0
   -5.1919   33.8279    6.4451 H   0  0  0  0  0  0  0  0  0  0  0  0
   -5.4695   35.3341    7.2398 H   0  0  0  0  0  0  0  0  0  0  0  0
 13 14  1  0  0  0
 14  6  1  0  0  0
  6  7  1  0  0  0
  7  8  2  0  0  0
  8  9  1  0  0  0
  9  1  1  0  0  0
  1  2  2  0  0  0
  2  3  1  0  0  0
  3 15  1  0  0  0
 15 16  2  0  0  0
 16 17  1  0  0  0
 17 18  2  0  0  0
 18 19  1  0  0  0
 19 21  1  0  0  0
 21 22  1  0  0  0
 21 23  2  0  0  0
 19 20  2  0  0  0
  3  4  2  0  0  0
  4  5  1  0  0  0
  9 10  2  0  0  0
 10 11  1  0  0  0
 10 12  1  0  0  0
 12  6  2  0  0  0
  5  1  1  0  0  0
 20 15  1  0  0  0
 22 24  1  0  0  0
 22 25  1  0  0  0
M  END
> <minimizedAffinity>
-9.01537

$$$$
OCNT-2314807


 23 25  0  0  0  0  0  0  0  0999 V2000
   -0.3438   27.4796    7.0096 N   0  0  0  0  0  0  0  0  0  0  0  0
    0.1956   26.7842    7.5214 H   0  0  0  0  0  0  0  0  0  0  0  0
   -1.0231   26.9414    5.9642 C   0  0  0  0  0  0  0  0  0  0  0  0
   -0.4162   26.3217    4.9749 N   0  0  0  0  0  0  0  0  0  0  0  0
   -1.2890   25.8407    4.0198 N   0  0  0  0  0  0  0  0  0  0  0  0
   -2.5440   26.0935    4.3229 C   0  0  0  0  0  0  0  0  0  0  0  0
   -2.7400   26.9540    5.7943 S   0  0  0  0  0  0  0  0  0  0  0  0
   -3.7484   25.6479    3.4142 C   0  0  0  0  0  0  0  0  0  0  0  0
   -3.9004   24.3847    2.9938 N   0  0  0  0  0  0  0  0  0  0  0  0
   -5.0536   24.3769    2.2295 O   0  0  0  0  0  0  0  0  0  0  0  0
   -5.5798   25.6247    2.1977 C   0  0  0  0  0  0  0  0  0  0  0  0
   -4.7929   26.4725    2.9321 C   0  0  0  0  0  0  0  0  0  0  0  0
    0.3362   28.7526    6.8799 C   0  0  0  0  0  0  0  0  0  0  0  0
   -2.2665   31.4336    7.5214 C   0  0  0  0  0  0  0  0  0  0  0  0
   -1.5471   30.4424    6.8698 C   0  0  0  0  0  0  0  0  0  0  0  0
   -0.4871   29.8283    7.5427 C   0  0  0  0  0  0  0  0  0  0  0  0
   -0.2010   30.2435    8.8471 C   0  0  0  0  0  0  0  0  0  0  0  0
   -0.9836   31.2347    9.4165 C   0  0  0  0  0  0  0  0  0  0  0  0
   -2.0180   31.8309    8.7850 N   0  0  0  0  0  0  0  0  0  0  0  0
   -3.3183   31.9799    6.8266 O   0  0  0  0  0  0  0  0  0  0  0  0
   -4.7767   33.6325    7.2991 F   0  0  0  0  0  0  0  0  0  0  0  0
   -4.3611   32.3990    7.6847 C   0  0  0  0  0  0  0  0  0  0  0  0
   -5.4115   31.5629    7.4557 F   0  0  0  0  0  0  0  0  0  0  0  0
 21 22  1  0  0  0
 22 23  1  0  0  0
 22 20  1  0  0  0
 20 14  1  0  0  0
 14 15  2  0  0  0
 15 16  1  0  0  0
 16 13  1  0  0  0
 13  1  1  0  0  0
  1  3  1  0  0  0
  3  4  2  0  0  0
  4  5  1  0  0  0
  5  6  2  0  0  0
  6  8  1  0  0  0
  8  9  2  0  0  0
  9 10  1  0  0  0
 10 11  1  0  0  0
 11 12  2  0  0  0
  6  7  1  0  0  0
 16 17  2  0  0  0
 17 18  1  0  0  0
 18 19  2  0  0  0
 19 14  1  0  0  0
  7  3  1  0  0  0
 12  8  1  0  0  0
  1  2  1  0  0  0
M  END
> <minimizedAffinity>
-7.68591

$$$$
OCNT-2314812


 22 25  0  0  0  0  0  0  0  0999 V2000
   -2.4016   26.7896    7.0767 N   0  0  0  0  0  0  0  0  0  0  0  0
   -2.2835   25.8664    7.4860 H   0  0  0  0  0  0  0  0  0  0  0  0
   -6.0717   28.2039    4.9376 C   0  0  0  0  0  0  0  0  0  0  0  0
   -5.0667   27.9038    5.8309 C   0  0  0  0  0  0  0  0  0  0  0  0
   -3.9825   27.1738    5.2265 C   0  0  0  0  0  0  0  0  0  0  0  0
   -2.7729   26.6481    5.7289 C   0  0  0  0  0  0  0  0  0  0  0  0
   -1.9469   26.0030    4.8718 N   0  0  0  0  0  0  0  0  0  0  0  0
   -2.3150   25.8782    3.5876 C   0  0  0  0  0  0  0  0  0  0  0  0
   -3.4356   26.3188    3.0097 N   0  0  0  0  0  0  0  0  0  0  0  0
   -4.2308   26.9612    3.8792 C   0  0  0  0  0  0  0  0  0  0  0  0
   -5.7218   27.6156    3.3688 S   0  0  0  0  0  0  0  0  0  0  0  0
   -1.1356   27.5149    7.2430 C   0  0  0  0  0  0  0  0  0  0  0  0
   -1.2375   28.8218    7.9888 C   0  0  0  0  0  0  0  0  0  0  0  0
   -2.4349   29.2751    8.3981 N   0  0  0  0  0  0  0  0  0  0  0  0
   -2.1415   30.4064    9.0709 N   0  0  0  0  0  0  0  0  0  0  0  0
   -0.8089   30.7025    9.0701 C   0  0  0  0  0  0  0  0  0  0  0  0
   -0.1922   29.6898    8.3775 C   0  0  0  0  0  0  0  0  0  0  0  0
   -3.1942   31.1729    9.7162 C   0  0  0  0  0  0  0  0  0  0  0  0
   -3.1801   32.6629    9.3354 C   0  0  0  0  0  0  0  0  0  0  0  0
   -4.4202   32.8608    8.4744 C   0  0  0  0  0  0  0  0  0  0  0  0
   -5.4269   31.9043    9.0894 C   0  0  0  0  0  0  0  0  0  0  0  0
   -4.6027   30.6566    9.3690 C   0  0  0  0  0  0  0  0  0  0  0  0
  3  4  2  0  0  0
  4  5  1  0  0  0
  5  6  2  0  0  0
  6  1  1  0  0  0
  1 12  1  0  0  0
 12 13  1  0  0  0
 13 14  2  0  0  0
 14 15  1  0  0  0
 15 18  1  0  0  0
 18 19  1  0  0  0
 19 20  1  0  0  0
 20 21  1  0  0  0
 21 22  1  0  0  0
 15 16  1  0  0  0
 16 17  2  0  0  0
  6  7  1  0  0  0
  7  8  2  0  0  0
  8  9  1  0  0  0
  9 10  2  0  0  0
 10 11  1  0  0  0
 11  3  1  0  0  0
 10  5  1  0  0  0
 17 13  1  0  0  0
 22 18  1  0  0  0
  1  2  1  0  0  0
M  END
> <minimizedAffinity>
-8.20366

$$$$
OCNT-2314816


 22 24  0  0  0  0  0  0  0  0999 V2000
   -0.1600   27.5870    6.9690 N   0  0  0  0  0  0  0  0  0  0  0  0
    0.6607   27.0338    7.2141 H   0  0  0  0  0  0  0  0  0  0  0  0
   -2.9338   26.3880    4.9015 C   0  0  0  0  0  0  0  0  0  0  0  0
   -2.2821   25.8116    3.8667 N   0  0  0  0  0  0  0  0  0  0  0  0
   -0.9418   25.8554    3.9210 C   0  0  0  0  0  0  0  0  0  0  0  0
   -0.2007   26.4009    4.8999 N   0  0  0  0  0  0  0  0  0  0  0  0
   -0.8700   26.9488    5.9336 C   0  0  0  0  0  0  0  0  0  0  0  0
   -2.2603   26.9702    5.9593 C   0  0  0  0  0  0  0  0  0  0  0  0
   -2.9275   27.5194    6.9865 F   0  0  0  0  0  0  0  0  0  0  0  0
   -5.0003   27.0658    3.6624 C   0  0  0  0  0  0  0  0  0  0  0  0
   -4.4372   26.3474    4.8787 C   0  0  0  0  0  0  0  0  0  0  0  0
    0.2277   28.9654    6.6770 C   0  0  0  0  0  0  0  0  0  0  0  0
   -0.6595   29.9117    7.4630 C   0  0  0  0  0  0  0  0  0  0  0  0
   -0.3199   30.2760    8.7613 C   0  0  0  0  0  0  0  0  0  0  0  0
   -1.1342   31.1774    9.4386 C   0  0  0  0  0  0  0  0  0  0  0  0
   -2.2585   31.7117    8.8045 C   0  0  0  0  0  0  0  0  0  0  0  0
   -3.1647   32.6543    9.5496 C   0  0  0  0  0  0  0  0  0  0  0  0
   -4.1203   33.4216    8.6370 C   0  0  0  0  0  0  0  0  0  0  0  0
   -4.7679   32.4804    7.6285 C   0  0  0  0  0  0  0  0  0  0  0  0
   -3.7036   31.8538    6.7312 C   0  0  0  0  0  0  0  0  0  0  0  0
   -2.5323   31.2969    7.4985 C   0  0  0  0  0  0  0  0  0  0  0  0
   -1.7428   30.4245    6.8231 N   0  0  0  0  0  0  0  0  0  0  0  0
 10 11  1  0  0  0
 11  3  1  0  0  0
  3  4  2  0  0  0
  4  5  1  0  0  0
  5  6  2  0  0  0
  6  7  1  0  0  0
  7  1  1  0  0  0
  1 12  1  0  0  0
 12 13  1  0  0  0
 13 14  1  0  0  0
 14 15  2  0  0  0
 15 16  1  0  0  0
 16 17  1  0  0  0
 17 18  1  0  0  0
 18 19  1  0  0  0
 19 20  1  0  0  0
 20 21  1  0  0  0
 21 22  1  0  0  0
  7  8  2  0  0  0
  8  9  1  0  0  0
  8  3  1  0  0  0
 22 13  2  0  0  0
 21 16  2  0  0  0
  1  2  1  0  0  0
M  END
> <minimizedAffinity>
-8.64495

$$$$
OCNT-2314824


 27 30  0  0  0  0  0  0  0  0999 V2000
   -5.3854   23.0366    1.4317 C   0  0  0  0  0  0  0  0  0  0  0  0
   -6.5081   23.8581    1.5934 C   0  0  0  0  0  0  0  0  0  0  0  0
   -6.4747   24.9994    2.4088 C   0  0  0  0  0  0  0  0  0  0  0  0
   -5.2788   25.3098    3.0800 C   0  0  0  0  0  0  0  0  0  0  0  0
   -4.1869   24.4774    2.8917 C   0  0  0  0  0  0  0  0  0  0  0  0
   -4.1873   23.3376    2.0865 C   0  0  0  0  0  0  0  0  0  0  0  0
   -3.1205   24.9316    3.5978 O   0  0  0  0  0  0  0  0  0  0  0  0
   -3.5067   26.0637    4.2726 C   0  0  0  0  0  0  0  0  0  0  0  0
   -4.8350   26.3423    3.9613 C   0  0  0  0  0  0  0  0  0  0  0  0
   -5.5787   27.4906    4.4404 C   0  0  0  0  0  0  0  0  0  0  0  0
   -6.2018   27.4454    5.6928 C   0  0  0  0  0  0  0  0  0  0  0  0
   -6.8877   28.5622    6.1733 C   0  0  0  0  0  0  0  0  0  0  0  0
   -6.9572   29.7234    5.4043 C   0  0  0  0  0  0  0  0  0  0  0  0
   -6.3481   29.7695    4.1509 C   0  0  0  0  0  0  0  0  0  0  0  0
   -5.6628   28.6546    3.6662 C   0  0  0  0  0  0  0  0  0  0  0  0
   -2.5011   26.6908    5.1136 C   0  0  0  0  0  0  0  0  0  0  0  0
   -1.3459   26.2808    5.2129 O   0  0  0  0  0  0  0  0  0  0  0  0
   -2.9181   27.7987    5.8357 N   0  0  0  0  0  0  0  0  0  0  0  0
   -3.9034   28.0306    5.8059 H   0  0  0  0  0  0  0  0  0  0  0  0
   -2.0065   28.5552    6.7055 C   0  0  0  0  0  0  0  0  0  0  0  0
   -2.3602   30.0504    6.8668 C   0  0  0  0  0  0  0  0  0  0  0  0
   -1.9804   29.9200    8.3671 C   0  0  0  0  0  0  0  0  0  0  0  0
   -0.2418   30.2745    8.7481 Cl  0  0  0  0  0  0  0  0  0  0  0  0
   -3.0443   30.8199    9.5112 Cl  0  0  0  0  0  0  0  0  0  0  0  0
   -2.3114   28.4092    8.2120 C   0  0  0  0  0  0  0  0  0  0  0  0
   -6.0291   20.7566    1.2092 C   0  0  0  0  0  0  0  0  0  0  0  0
   -5.5883   21.9651    0.6014 O   0  0  0  0  0  0  0  0  0  0  0  0
 26 27  1  0  0  0
 27  1  1  0  0  0
  1  2  2  0  0  0
  2  3  1  0  0  0
  3  4  2  0  0  0
  4  5  1  0  0  0
  5  6  2  0  0  0
  5  7  1  0  0  0
  7  8  1  0  0  0
  8 16  1  0  0  0
 16 17  2  0  0  0
 16 18  1  0  0  0
 18 20  1  0  0  0
 20 21  1  0  0  0
 21 22  1  0  0  0
 22 23  1  0  0  0
 22 24  1  0  0  0
 22 25  1  0  0  0
  8  9  2  0  0  0
  9 10  1  0  0  0
 10 11  2  0  0  0
 11 12  1  0  0  0
 12 13  2  0  0  0
 13 14  1  0  0  0
 14 15  2  0  0  0
  6  1  1  0  0  0
 25 20  1  0  0  0
 15 10  1  0  0  0
  9  4  1  0  0  0
 18 19  1  0  0  0
M  END
> <minimizedAffinity>
-9.19688

$$$$
OCNT-2314827


 28 31  0  0  0  0  0  0  0  0999 V2000
   -6.5349   23.7621    5.3025 C   0  0  0  0  0  0  0  0  0  0  0  0
   -7.4106   24.6187    5.4168 O   0  0  0  0  0  0  0  0  0  0  0  0
   -6.8136   22.3910    5.4576 N   0  0  0  0  0  0  0  0  0  0  0  0
   -5.9283   21.5593    6.2593 C   0  0  0  0  0  0  0  0  0  0  0  0
   -6.2534   21.7595    7.7385 C   0  0  0  0  0  0  0  0  0  0  0  0
   -7.7406   21.8102    8.0307 C   0  0  0  0  0  0  0  0  0  0  0  0
   -8.1212   21.7829    9.3847 C   0  0  0  0  0  0  0  0  0  0  0  0
   -9.4614   21.8308    9.7367 C   0  0  0  0  0  0  0  0  0  0  0  0
   -9.9144   21.7881   11.3948 Cl  0  0  0  0  0  0  0  0  0  0  0  0
  -10.4349   21.8882    8.7519 C   0  0  0  0  0  0  0  0  0  0  0  0
  -10.0745   21.9191    7.3957 C   0  0  0  0  0  0  0  0  0  0  0  0
  -11.4115   21.8681    6.3031 Cl  0  0  0  0  0  0  0  0  0  0  0  0
   -8.7195   21.9271    6.9977 C   0  0  0  0  0  0  0  0  0  0  0  0
   -8.2286   21.9432    5.5411 C   0  0  0  0  0  0  0  0  0  0  0  0
   -9.0794   22.5903    4.4371 C   0  0  0  0  0  0  0  0  0  0  0  0
   -5.4665   28.4038    5.0882 C   0  0  0  0  0  0  0  0  0  0  0  0
   -5.7925   27.6888    3.7942 C   0  0  0  0  0  0  0  0  0  0  0  0
   -6.3402   28.3440    2.9083 O   0  0  0  0  0  0  0  0  0  0  0  0
   -5.4431   26.3323    3.7282 N   0  0  0  0  0  0  0  0  0  0  0  0
   -4.8436   25.6371    4.8732 C   0  0  0  0  0  0  0  0  0  0  0  0
   -5.0864   24.1340    4.8889 C   0  0  0  0  0  0  0  0  0  0  0  0
   -4.6708   23.5304    3.6692 O   0  0  0  0  0  0  0  0  0  0  0  0
   -5.0872   24.1983    2.5445 C   0  0  0  0  0  0  0  0  0  0  0  0
   -5.0599   23.4195    1.3810 C   0  0  0  0  0  0  0  0  0  0  0  0
   -5.4690   23.9580    0.1674 C   0  0  0  0  0  0  0  0  0  0  0  0
   -5.8995   25.2774    0.1202 C   0  0  0  0  0  0  0  0  0  0  0  0
   -5.9113   26.0618    1.2819 C   0  0  0  0  0  0  0  0  0  0  0  0
   -5.4976   25.5475    2.5191 C   0  0  0  0  0  0  0  0  0  0  0  0
 16 17  1  0  0  0
 17 18  2  0  0  0
 17 19  1  0  0  0
 19 20  1  0  0  0
 20 21  1  0  0  0
 21  1  1  0  0  0
  1  2  2  0  0  0
  1  3  1  0  0  0
  3  4  1  0  0  0
  4  5  1  0  0  0
  5  6  1  0  0  0
  6  7  2  0  0  0
  7  8  1  0  0  0
  8  9  1  0  0  0
  8 10  2  0  0  0
 10 11  1  0  0  0
 11 12  1  0  0  0
 11 13  2  0  0  0
 13 14  1  0  0  0
 14 15  1  0  0  0
 21 22  1  0  0  0
 22 23  1  0  0  0
 23 24  2  0  0  0
 24 25  1  0  0  0
 25 26  2  0  0  0
 26 27  1  0  0  0
 27 28  2  0  0  0
 28 19  1  0  0  0
 14  3  1  0  0  0
 28 23  1  0  0  0
 13  6  1  0  0  0
M  END
> <minimizedAffinity>
-8.72088

$$$$
OCNT-2314844


 25 27  0  0  0  0  0  0  0  0999 V2000
   -4.2754   28.7759    6.8141 S   0  0  0  0  0  0  0  0  0  0  0  0
   -5.6935   28.5438    6.9843 O   0  0  0  0  0  0  0  0  0  0  0  0
   -3.7719   30.0037    6.2330 O   0  0  0  0  0  0  0  0  0  0  0  0
   -3.7044   27.5604    5.7265 C   0  0  0  0  0  0  0  0  0  0  0  0
   -2.5201   26.8640    5.8849 C   0  0  0  0  0  0  0  0  0  0  0  0
   -2.4014   25.9974    4.8353 N   0  0  0  0  0  0  0  0  0  0  0  0
   -3.4861   26.1178    3.9941 C   0  0  0  0  0  0  0  0  0  0  0  0
   -3.7787   25.4281    2.8093 C   0  0  0  0  0  0  0  0  0  0  0  0
   -4.9619   25.7592    2.1442 C   0  0  0  0  0  0  0  0  0  0  0  0
   -5.3651   24.9342    0.6863 Cl  0  0  0  0  0  0  0  0  0  0  0  0
   -5.8185   26.7379    2.6362 C   0  0  0  0  0  0  0  0  0  0  0  0
   -5.5108   27.4164    3.8228 C   0  0  0  0  0  0  0  0  0  0  0  0
   -4.3250   27.1054    4.5255 C   0  0  0  0  0  0  0  0  0  0  0  0
   -1.6282   25.3618    4.6888 H   0  0  0  0  0  0  0  0  0  0  0  0
   -3.4756   28.6026    8.3039 N   0  0  0  0  0  0  0  0  0  0  0  0
   -2.8915   27.7665    8.2311 H   0  0  0  0  0  0  0  0  0  0  0  0
   -1.3267   29.8362    8.6056 C   0  0  0  0  0  0  0  0  0  0  0  0
   -0.6609   30.9661    9.1018 C   0  0  0  0  0  0  0  0  0  0  0  0
   -1.3710   31.9966    9.7303 C   0  0  0  0  0  0  0  0  0  0  0  0
   -2.7538   31.9119    9.8634 C   0  0  0  0  0  0  0  0  0  0  0  0
   -3.4166   30.7965    9.3658 C   0  0  0  0  0  0  0  0  0  0  0  0
   -4.7502   30.7167    9.4982 F   0  0  0  0  0  0  0  0  0  0  0  0
   -2.7238   29.7614    8.7261 C   0  0  0  0  0  0  0  0  0  0  0  0
    0.2836   29.1517    6.9950 C   0  0  0  0  0  0  0  0  0  0  0  0
   -0.7038   28.8024    7.9582 O   0  0  0  0  0  0  0  0  0  0  0  0
 24 25  1  0  0  0
 25 17  1  0  0  0
 17 18  2  0  0  0
 18 19  1  0  0  0
 19 20  2  0  0  0
 20 21  1  0  0  0
 21 22  1  0  0  0
 21 23  2  0  0  0
 23 15  1  0  0  0
 15  1  1  0  0  0
  1  2  2  0  0  0
  1  3  2  0  0  0
  1  4  1  0  0  0
  4  5  2  0  0  0
  5  6  1  0  0  0
  6  7  1  0  0  0
  7  8  2  0  0  0
  8  9  1  0  0  0
  9 10  1  0  0  0
  9 11  2  0  0  0
 11 12  1  0  0  0
 12 13  2  0  0  0
 23 17  1  0  0  0
 13  4  1  0  0  0
 13  7  1  0  0  0
 15 16  1  0  0  0
  6 14  1  0  0  0
M  END
> <minimizedAffinity>
-9.03177

$$$$
OCNT-2314853


 26 28  0  0  0  0  0  0  0  0999 V2000
   -4.5493   27.4543    5.7011 C   0  0  0  0  0  0  0  0  0  0  0  0
   -3.0892   27.5448    5.6072 N   0  0  0  0  0  0  0  0  0  0  0  0
   -2.6463   26.6453    5.7922 H   0  0  0  0  0  0  0  0  0  0  0  0
   -2.5010   28.4129    6.5186 C   0  0  0  0  0  0  0  0  0  0  0  0
   -1.1855   28.3571    6.7521 N   0  0  0  0  0  0  0  0  0  0  0  0
   -0.6691   29.2270    7.6464 C   0  0  0  0  0  0  0  0  0  0  0  0
    0.8106   29.1147    7.8734 C   0  0  0  0  0  0  0  0  0  0  0  0
   -1.4518   30.1715    8.3179 C   0  0  0  0  0  0  0  0  0  0  0  0
   -0.9750   31.1131    9.2644 C   0  0  0  0  0  0  0  0  0  0  0  0
   -1.8477   32.0119    9.8735 C   0  0  0  0  0  0  0  0  0  0  0  0
   -3.1963   31.9798    9.5460 C   0  0  0  0  0  0  0  0  0  0  0  0
   -3.6612   31.0492    8.6124 C   0  0  0  0  0  0  0  0  0  0  0  0
   -2.8117   30.1418    7.9908 C   0  0  0  0  0  0  0  0  0  0  0  0
   -3.3278   29.2811    7.1070 N   0  0  0  0  0  0  0  0  0  0  0  0
   -5.2383   27.6269    4.3044 C   0  0  0  0  0  0  0  0  0  0  0  0
   -5.8087   24.9114    1.6549 C   0  0  0  0  0  0  0  0  0  0  0  0
   -6.3253   23.8656    2.4162 C   0  0  0  0  0  0  0  0  0  0  0  0
   -6.4977   24.0235    3.7927 C   0  0  0  0  0  0  0  0  0  0  0  0
   -6.1546   25.2251    4.4156 C   0  0  0  0  0  0  0  0  0  0  0  0
   -5.6309   26.2919    3.6719 C   0  0  0  0  0  0  0  0  0  0  0  0
   -5.4665   26.1121    2.2856 C   0  0  0  0  0  0  0  0  0  0  0  0
   -6.6492   25.3598   -0.5228 C   0  0  0  0  0  0  0  0  0  0  0  0
   -5.5909   24.8938    0.3045 O   0  0  0  0  0  0  0  0  0  0  0  0
   -6.3176   28.6580    4.3438 N   0  0  0  0  0  0  0  0  0  0  0  0
   -6.1597   29.7551    3.3952 C   0  0  0  0  0  0  0  0  0  0  0  0
   -6.5463   29.1728    5.6928 C   0  0  0  0  0  0  0  0  0  0  0  0
 22 23  1  0  0  0
 23 16  1  0  0  0
 16 17  1  0  0  0
 17 18  2  0  0  0
 18 19  1  0  0  0
 19 20  2  0  0  0
 20 15  1  0  0  0
 15  1  1  0  0  0
  1  2  1  0  0  0
  2  4  1  0  0  0
  4  5  2  0  0  0
  5  6  1  0  0  0
  6  7  1  0  0  0
  6  8  2  0  0  0
  8  9  1  0  0  0
  9 10  2  0  0  0
 10 11  1  0  0  0
 11 12  2  0  0  0
 12 13  1  0  0  0
 13 14  2  0  0  0
 15 24  1  0  0  0
 24 25  1  0  0  0
 24 26  1  0  0  0
 20 21  1  0  0  0
 21 16  2  0  0  0
 14  4  1  0  0  0
 13  8  1  0  0  0
  2  3  1  0  0  0
M  END
> <minimizedAffinity>
-9.10742

$$$$
OCNT-2314864


 30 34  0  0  0  0  0  0  0  0999 V2000
   -1.4229   26.9924    5.8080 C   0  0  0  0  0  0  0  0  0  0  0  0
   -2.4641   26.1972    5.0619 C   0  0  0  0  0  0  0  0  0  0  0  0
   -3.7433   26.0236    5.6041 C   0  0  0  0  0  0  0  0  0  0  0  0
   -4.7238   25.3056    4.9118 C   0  0  0  0  0  0  0  0  0  0  0  0
   -4.4396   24.7444    3.6627 C   0  0  0  0  0  0  0  0  0  0  0  0
   -3.1668   24.9380    3.1044 C   0  0  0  0  0  0  0  0  0  0  0  0
   -2.1883   25.6559    3.8012 C   0  0  0  0  0  0  0  0  0  0  0  0
   -5.4320   24.0170    2.9418 N   0  0  0  0  0  0  0  0  0  0  0  0
   -6.0473   22.8631    3.3870 C   0  0  0  0  0  0  0  0  0  0  0  0
   -6.8643   22.3391    2.5044 N   0  0  0  0  0  0  0  0  0  0  0  0
   -6.8289   23.1999    1.4434 C   0  0  0  0  0  0  0  0  0  0  0  0
   -7.5396   23.1240    0.2346 C   0  0  0  0  0  0  0  0  0  0  0  0
   -7.3989   24.1500   -0.7035 C   0  0  0  0  0  0  0  0  0  0  0  0
   -6.5778   25.2422   -0.4359 C   0  0  0  0  0  0  0  0  0  0  0  0
   -5.8581   25.3331    0.7623 C   0  0  0  0  0  0  0  0  0  0  0  0
   -5.9703   24.2760    1.6836 C   0  0  0  0  0  0  0  0  0  0  0  0
   -0.8753   28.2171    8.2544 O   0  0  0  0  0  0  0  0  0  0  0  0
   -1.6639   28.7663    7.4925 C   0  0  0  0  0  0  0  0  0  0  0  0
   -1.9587   28.2640    6.2423 N   0  0  0  0  0  0  0  0  0  0  0  0
   -2.8187   28.5555    5.8060 H   0  0  0  0  0  0  0  0  0  0  0  0
   -2.3800   29.9750    7.8420 C   0  0  0  0  0  0  0  0  0  0  0  0
   -2.3235   30.6738    9.0377 C   0  0  0  0  0  0  0  0  0  0  0  0
   -3.1784   31.8046    8.9462 C   0  0  0  0  0  0  0  0  0  0  0  0
   -3.5318   32.8420    9.8170 C   0  0  0  0  0  0  0  0  0  0  0  0
   -4.3975   33.8080    9.4200 N   0  0  0  0  0  0  0  0  0  0  0  0
   -4.9073   33.7535    8.1698 C   0  0  0  0  0  0  0  0  0  0  0  0
   -4.6184   32.7716    7.2334 C   0  0  0  0  0  0  0  0  0  0  0  0
   -3.7317   31.7889    7.6678 C   0  0  0  0  0  0  0  0  0  0  0  0
   -3.2236   30.6884    7.0188 N   0  0  0  0  0  0  0  0  0  0  0  0
   -3.4157   30.4598    6.0542 H   0  0  0  0  0  0  0  0  0  0  0  0
 17 18  2  0  0  0
 18 19  1  0  0  0
 19  1  1  0  0  0
  1  2  1  0  0  0
  2  3  1  0  0  0
  3  4  2  0  0  0
  4  5  1  0  0  0
  5  8  1  0  0  0
  8  9  1  0  0  0
  9 10  2  0  0  0
 10 11  1  0  0  0
 11 12  2  0  0  0
 12 13  1  0  0  0
 13 14  2  0  0  0
 14 15  1  0  0  0
 15 16  2  0  0  0
  5  6  2  0  0  0
  6  7  1  0  0  0
 18 21  1  0  0  0
 21 22  2  0  0  0
 22 23  1  0  0  0
 23 24  2  0  0  0
 24 25  1  0  0  0
 25 26  2  0  0  0
 26 27  1  0  0  0
 27 28  2  0  0  0
 28 29  1  0  0  0
  7  2  2  0  0  0
 29 21  1  0  0  0
 16  8  1  0  0  0
 28 23  1  0  0  0
 16 11  1  0  0  0
 19 20  1  0  0  0
 29 30  1  0  0  0
M  END
> <minimizedAffinity>
-10.01451

$$$$
OCNT-2314865


 25 26  0  0  0  0  0  0  0  0999 V2000
   -0.8107   27.2710    6.3070 C   0  0  0  0  0  0  0  0  0  0  0  0
   -0.6032   27.8995    7.6453 N   0  0  0  0  0  0  0  0  0  0  0  0
   -1.5069   28.1730    8.0396 H   0  0  0  0  0  0  0  0  0  0  0  0
    0.3451   29.3107    7.6002 S   0  0  0  0  0  0  0  0  0  0  0  0
    1.2949   29.2866    8.6877 O   0  0  0  0  0  0  0  0  0  0  0  0
    0.7502   29.4585    6.2191 O   0  0  0  0  0  0  0  0  0  0  0  0
   -3.8668   33.4991    8.8315 C   0  0  0  0  0  0  0  0  0  0  0  0
   -2.8012   32.4865    8.5273 C   0  0  0  0  0  0  0  0  0  0  0  0
   -1.9834   31.9877    9.5511 C   0  0  0  0  0  0  0  0  0  0  0  0
   -1.0152   31.0195    9.2766 C   0  0  0  0  0  0  0  0  0  0  0  0
   -0.8712   30.5449    7.9718 C   0  0  0  0  0  0  0  0  0  0  0  0
   -1.6924   31.0168    6.9446 C   0  0  0  0  0  0  0  0  0  0  0  0
   -2.6573   31.9849    7.2259 C   0  0  0  0  0  0  0  0  0  0  0  0
   -1.9959   26.2856    6.3930 C   0  0  0  0  0  0  0  0  0  0  0  0
   -3.1851   26.6066    5.5713 N   0  0  0  0  0  0  0  0  0  0  0  0
   -2.8557   26.4004    4.1551 C   0  0  0  0  0  0  0  0  0  0  0  0
   -3.6586   27.9968    5.7603 C   0  0  0  0  0  0  0  0  0  0  0  0
   -5.1309   28.0480    6.0336 C   0  0  0  0  0  0  0  0  0  0  0  0
   -5.9523   27.2152    5.3790 N   0  0  0  0  0  0  0  0  0  0  0  0
   -7.2237   27.5062    5.8285 O   0  0  0  0  0  0  0  0  0  0  0  0
   -7.1592   28.4850    6.7588 C   0  0  0  0  0  0  0  0  0  0  0  0
   -5.8516   28.8678    6.9543 C   0  0  0  0  0  0  0  0  0  0  0  0
   -5.3177   29.9073    7.8927 C   0  0  0  0  0  0  0  0  0  0  0  0
   -4.6611   29.2836    9.1274 C   0  0  0  0  0  0  0  0  0  0  0  0
   -6.4080   30.8953    8.3130 C   0  0  0  0  0  0  0  0  0  0  0  0
  7  8  1  0  0  0
  8  9  1  0  0  0
  9 10  2  0  0  0
 10 11  1  0  0  0
 11  4  1  0  0  0
  4  5  2  0  0  0
  4  6  2  0  0  0
  4  2  1  0  0  0
  2  1  1  0  0  0
  1 14  1  0  0  0
 14 15  1  0  0  0
 15 16  1  0  0  0
 15 17  1  0  0  0
 17 18  1  0  0  0
 18 19  2  0  0  0
 19 20  1  0  0  0
 20 21  1  0  0  0
 21 22  2  0  0  0
 22 23  1  0  0  0
 23 24  1  0  0  0
 23 25  1  0  0  0
 11 12  2  0  0  0
 12 13  1  0  0  0
 13  8  2  0  0  0
 22 18  1  0  0  0
  2  3  1  0  0  0
M  END
> <minimizedAffinity>
-7.73933

$$$$
OCNT-2314866


 22 24  0  0  0  0  0  0  0  0999 V2000
   -3.0501   27.5179    5.9245 O   0  0  0  0  0  0  0  0  0  0  0  0
   -4.1202   27.4217    5.3305 C   0  0  0  0  0  0  0  0  0  0  0  0
   -5.2614   28.1237    5.6441 N   0  0  0  0  0  0  0  0  0  0  0  0
   -4.2622   26.5641    4.2584 N   0  0  0  0  0  0  0  0  0  0  0  0
   -3.1573   25.7123    3.8489 C   0  0  0  0  0  0  0  0  0  0  0  0
   -3.7593   24.7607    2.8248 C   0  0  0  0  0  0  0  0  0  0  0  0
   -4.8362   25.6258    2.1592 C   0  0  0  0  0  0  0  0  0  0  0  0
   -5.3887   26.4372    3.3393 C   0  0  0  0  0  0  0  0  0  0  0  0
   -6.1082   27.7977    5.2069 H   0  0  0  0  0  0  0  0  0  0  0  0
   -5.8606   24.8612    1.3617 C   0  0  0  0  0  0  0  0  0  0  0  0
   -6.5130   23.7307    1.8681 C   0  0  0  0  0  0  0  0  0  0  0  0
   -6.2391   23.2951    3.1060 F   0  0  0  0  0  0  0  0  0  0  0  0
   -7.4555   23.0328    1.1171 C   0  0  0  0  0  0  0  0  0  0  0  0
   -7.7646   23.4584   -0.1718 C   0  0  0  0  0  0  0  0  0  0  0  0
   -7.1271   24.5793   -0.7002 C   0  0  0  0  0  0  0  0  0  0  0  0
   -6.1817   25.2754    0.0593 C   0  0  0  0  0  0  0  0  0  0  0  0
   -5.4067   29.1292    6.6262 C   0  0  0  0  0  0  0  0  0  0  0  0
   -4.7364   30.3332    6.4518 C   0  0  0  0  0  0  0  0  0  0  0  0
   -4.7966   31.3569    7.3326 N   0  0  0  0  0  0  0  0  0  0  0  0
   -5.5463   31.2180    8.4516 N   0  0  0  0  0  0  0  0  0  0  0  0
   -6.2108   30.0621    8.6591 C   0  0  0  0  0  0  0  0  0  0  0  0
   -6.1664   28.9968    7.7784 C   0  0  0  0  0  0  0  0  0  0  0  0
  1  2  2  0  0  0
  2  3  1  0  0  0
  3 17  1  0  0  0
 17 18  2  0  0  0
 18 19  1  0  0  0
 19 20  2  0  0  0
 20 21  1  0  0  0
 21 22  2  0  0  0
  2  4  1  0  0  0
  4  5  1  0  0  0
  5  6  1  0  0  0
  6  7  1  0  0  0
  7 10  1  0  0  0
 10 11  1  0  0  0
 11 12  1  0  0  0
 11 13  2  0  0  0
 13 14  1  0  0  0
 14 15  2  0  0  0
 15 16  1  0  0  0
  7  8  1  0  0  0
 22 17  1  0  0  0
  8  4  1  0  0  0
 16 10  2  0  0  0
  3  9  1  0  0  0
M  END
> <minimizedAffinity>
-8.70445

$$$$
OCNT-2314885


 32 34  0  0  0  0  0  0  0  0999 V2000
   -3.3996   26.5387    4.8744 N   0  0  0  0  0  0  0  0  0  0  0  0
   -2.0747   26.5146    5.2645 C   0  0  0  0  0  0  0  0  0  0  0  0
   -1.2114   25.7335    4.8839 O   0  0  0  0  0  0  0  0  0  0  0  0
   -3.9821   27.2349    5.3253 H   0  0  0  0  0  0  0  0  0  0  0  0
   -1.7627   27.5866    6.2733 C   0  0  0  0  0  0  0  0  0  0  0  0
   -0.4736   27.8876    6.4843 C   0  0  0  0  0  0  0  0  0  0  0  0
   -0.1332   28.9283    7.4643 C   0  0  0  0  0  0  0  0  0  0  0  0
    1.0296   29.2309    7.6926 O   0  0  0  0  0  0  0  0  0  0  0  0
   -1.2582   29.5793    8.1507 C   0  0  0  0  0  0  0  0  0  0  0  0
   -1.0283   30.5835    9.0961 C   0  0  0  0  0  0  0  0  0  0  0  0
   -2.1191   31.1742    9.7235 C   0  0  0  0  0  0  0  0  0  0  0  0
   -1.9571   32.1575   10.6528 O   0  0  0  0  0  0  0  0  0  0  0  0
   -3.4200   30.7786    9.4218 C   0  0  0  0  0  0  0  0  0  0  0  0
   -3.6416   29.7750    8.4766 C   0  0  0  0  0  0  0  0  0  0  0  0
   -2.5558   29.1745    7.8402 C   0  0  0  0  0  0  0  0  0  0  0  0
   -2.8302   28.1937    6.9207 O   0  0  0  0  0  0  0  0  0  0  0  0
   -1.0078   32.3376   10.7632 H   0  0  0  0  0  0  0  0  0  0  0  0
   -5.5712   23.9492    3.2810 C   0  0  0  0  0  0  0  0  0  0  0  0
   -5.2259   24.1148    1.9388 C   0  0  0  0  0  0  0  0  0  0  0  0
   -4.2773   25.0736    1.5965 C   0  0  0  0  0  0  0  0  0  0  0  0
   -3.6872   25.8588    2.5919 C   0  0  0  0  0  0  0  0  0  0  0  0
   -4.0383   25.6987    3.9407 C   0  0  0  0  0  0  0  0  0  0  0  0
   -4.9815   24.7311    4.2831 C   0  0  0  0  0  0  0  0  0  0  0  0
   -6.7795   22.7346    3.7373 S   0  0  0  0  0  0  0  0  0  0  0  0
   -6.0548   21.6318    4.3290 O   0  0  0  0  0  0  0  0  0  0  0  0
   -7.6815   22.5359    2.6254 O   0  0  0  0  0  0  0  0  0  0  0  0
   -7.6139   23.4674    4.9885 N   0  0  0  0  0  0  0  0  0  0  0  0
   -7.1346   24.2995    5.3333 H   0  0  0  0  0  0  0  0  0  0  0  0
   -9.5427   23.8798    6.3804 C   0  0  0  0  0  0  0  0  0  0  0  0
   -8.5633   22.7949    5.8968 C   0  0  0  0  0  0  0  0  0  0  0  0
   -7.8050   22.2396    7.1070 C   0  0  0  0  0  0  0  0  0  0  0  0
   -9.3698   21.6931    5.2059 C   0  0  0  0  0  0  0  0  0  0  0  0
 29 30  1  0  0  0
 30 31  1  0  0  0
 30 32  1  0  0  0
 30 27  1  0  0  0
 27 24  1  0  0  0
 24 25  2  0  0  0
 24 26  2  0  0  0
 24 18  1  0  0  0
 18 19  2  0  0  0
 19 20  1  0  0  0
 20 21  2  0  0  0
 21 22  1  0  0  0
 22  1  1  0  0  0
  1  2  1  0  0  0
  2  3  2  0  0  0
  2  5  1  0  0  0
  5  6  2  0  0  0
  6  7  1  0  0  0
  7  8  2  0  0  0
  7  9  1  0  0  0
  9 10  1  0  0  0
 10 11  2  0  0  0
 11 12  1  0  0  0
 11 13  1  0  0  0
 13 14  2  0  0  0
 14 15  1  0  0  0
 15 16  1  0  0  0
 22 23  2  0  0  0
 23 18  1  0  0  0
 16  5  1  0  0  0
 15  9  2  0  0  0
 27 28  1  0  0  0
  1  4  1  0  0  0
 12 17  1  0  0  0
M  END
> <minimizedAffinity>
-9.95205

$$$$
OCNT-2314906


 24 24  0  0  0  0  0  0  0  0999 V2000
   -3.6449   29.0325    6.0715 N   0  0  0  0  0  0  0  0  0  0  0  0
   -4.9930   28.9062    6.4694 C   0  0  0  0  0  0  0  0  0  0  0  0
   -5.3163   28.8339    7.6487 O   0  0  0  0  0  0  0  0  0  0  0  0
   -3.3950   28.7958    5.1201 H   0  0  0  0  0  0  0  0  0  0  0  0
   -2.3788   28.7243    7.0832 S   0  0  0  0  0  0  0  0  0  0  0  0
   -1.2007   29.2754    6.4568 O   0  0  0  0  0  0  0  0  0  0  0  0
   -2.4247   27.3996    7.6389 O   0  0  0  0  0  0  0  0  0  0  0  0
   -2.7739   29.8166    8.2958 N   0  0  0  0  0  0  0  0  0  0  0  0
   -3.7127   30.1622    8.0848 H   0  0  0  0  0  0  0  0  0  0  0  0
   -0.4373   30.4709    8.9985 C   0  0  0  0  0  0  0  0  0  0  0  0
   -1.8664   30.9329    8.7067 C   0  0  0  0  0  0  0  0  0  0  0  0
   -1.8761   32.0398    7.6448 C   0  0  0  0  0  0  0  0  0  0  0  0
   -2.4665   31.4986   10.0092 C   0  0  0  0  0  0  0  0  0  0  0  0
   -6.0507   28.8010    5.3338 C   0  0  0  0  0  0  0  0  0  0  0  0
   -7.4134   28.9640    6.0531 C   0  0  0  0  0  0  0  0  0  0  0  0
   -5.9501   29.9413    4.2982 C   0  0  0  0  0  0  0  0  0  0  0  0
   -5.9199   27.4629    4.5768 C   0  0  0  0  0  0  0  0  0  0  0  0
   -5.7390   27.4412    3.1797 C   0  0  0  0  0  0  0  0  0  0  0  0
   -5.6445   26.2362    2.4769 C   0  0  0  0  0  0  0  0  0  0  0  0
   -5.7398   25.0211    3.1510 C   0  0  0  0  0  0  0  0  0  0  0  0
   -5.9326   25.0105    4.5322 C   0  0  0  0  0  0  0  0  0  0  0  0
   -6.0265   26.2222    5.2355 C   0  0  0  0  0  0  0  0  0  0  0  0
   -6.0399   23.7630    5.2334 C   0  0  0  0  0  0  0  0  0  0  0  0
   -6.1182   22.7529    5.8028 N   0  0  0  0  0  0  0  0  0  0  0  0
 10 11  1  0  0  0
 11 12  1  0  0  0
 11 13  1  0  0  0
 11  8  1  0  0  0
  8  5  1  0  0  0
  5  6  2  0  0  0
  5  7  2  0  0  0
  5  1  1  0  0  0
  1  2  1  0  0  0
  2  3  2  0  0  0
  2 14  1  0  0  0
 14 15  1  0  0  0
 14 16  1  0  0  0
 14 17  1  0  0  0
 17 18  2  0  0  0
 18 19  1  0  0  0
 19 20  2  0  0  0
 20 21  1  0  0  0
 21 23  1  0  0  0
 23 24  3  0  0  0
 21 22  2  0  0  0
 22 17  1  0  0  0
  8  9  1  0  0  0
  1  4  1  0  0  0
M  END
> <minimizedAffinity>
-8.07847

$$$$
OCNT-2314919


 27 29  0  0  0  0  0  0  0  0999 V2000
   -5.8955   30.3391    7.4305 C   0  0  0  0  0  0  0  0  0  0  0  0
   -6.3625   31.6908    8.0121 C   0  0  0  0  0  0  0  0  0  0  0  0
   -5.6866   29.3263    8.5985 C   0  0  0  0  0  0  0  0  0  0  0  0
   -4.4968   28.5550    8.4478 O   0  0  0  0  0  0  0  0  0  0  0  0
   -3.7693   29.0548    8.8571 H   0  0  0  0  0  0  0  0  0  0  0  0
   -4.6473   30.4851    6.6397 N   0  0  0  0  0  0  0  0  0  0  0  0
   -4.8865   30.4143    5.6481 H   0  0  0  0  0  0  0  0  0  0  0  0
   -3.9026   31.7234    6.8235 C   0  0  0  0  0  0  0  0  0  0  0  0
   -2.7643   31.4490    7.7447 C   0  0  0  0  0  0  0  0  0  0  0  0
   -1.6561   30.6293    7.5975 C   0  0  0  0  0  0  0  0  0  0  0  0
   -1.2908   29.7392    6.4630 C   0  0  0  0  0  0  0  0  0  0  0  0
    0.4520   29.1972    6.5137 S   0  0  0  0  0  0  0  0  0  0  0  0
    0.5933   28.8738    8.3102 C   0  0  0  0  0  0  0  0  0  0  0  0
    0.3590   30.1351    9.1415 C   0  0  0  0  0  0  0  0  0  0  0  0
   -0.9344   30.7896    8.8058 C   0  0  0  0  0  0  0  0  0  0  0  0
   -1.5331   31.6333    9.6487 N   0  0  0  0  0  0  0  0  0  0  0  0
   -2.6497   32.0060    8.9947 N   0  0  0  0  0  0  0  0  0  0  0  0
   -3.5792   32.9010    9.6438 C   0  0  0  0  0  0  0  0  0  0  0  0
   -7.0122   29.7625    6.4893 C   0  0  0  0  0  0  0  0  0  0  0  0
   -5.6807   27.2148    3.2444 C   0  0  0  0  0  0  0  0  0  0  0  0
   -5.9466   26.6785    4.5054 C   0  0  0  0  0  0  0  0  0  0  0  0
   -6.3833   27.4955    5.5503 C   0  0  0  0  0  0  0  0  0  0  0  0
   -6.5546   28.8708    5.3514 C   0  0  0  0  0  0  0  0  0  0  0  0
   -6.2953   29.4034    4.0823 C   0  0  0  0  0  0  0  0  0  0  0  0
   -5.8592   28.5819    3.0361 C   0  0  0  0  0  0  0  0  0  0  0  0
   -5.8330   25.0072    2.3770 C   0  0  0  0  0  0  0  0  0  0  0  0
   -5.2581   26.3061    2.3140 O   0  0  0  0  0  0  0  0  0  0  0  0
 26 27  1  0  0  0
 27 20  1  0  0  0
 20 21  1  0  0  0
 21 22  2  0  0  0
 22 23  1  0  0  0
 23 19  1  0  0  0
 19  1  1  0  0  0
  1  2  1  0  0  0
  1  3  1  0  0  0
  3  4  1  0  0  0
  1  6  1  0  0  0
  6  8  1  0  0  0
  8  9  1  0  0  0
  9 10  2  0  0  0
 10 11  1  0  0  0
 11 12  1  0  0  0
 12 13  1  0  0  0
 13 14  1  0  0  0
 14 15  1  0  0  0
 15 16  2  0  0  0
 16 17  1  0  0  0
 17 18  1  0  0  0
 23 24  2  0  0  0
 24 25  1  0  0  0
 25 20  2  0  0  0
 17  9  1  0  0  0
 15 10  1  0  0  0
  4  5  1  0  0  0
  6  7  1  0  0  0
M  END
> <minimizedAffinity>
-8.51840

$$$$
OCNT-2314930


 27 30  0  0  0  0  0  0  0  0999 V2000
   -3.6012   26.9883    5.8670 N   0  0  0  0  0  0  0  0  0  0  0  0
   -2.2587   27.0530    6.2038 C   0  0  0  0  0  0  0  0  0  0  0  0
   -1.3727   26.9930    5.3587 O   0  0  0  0  0  0  0  0  0  0  0  0
   -4.2697   26.7818    6.5987 H   0  0  0  0  0  0  0  0  0  0  0  0
   -4.9886   25.2340    2.9690 N   0  0  0  0  0  0  0  0  0  0  0  0
   -5.7867   26.4592    2.9254 C   0  0  0  0  0  0  0  0  0  0  0  0
   -5.4369   27.1903    4.2203 C   0  0  0  0  0  0  0  0  0  0  0  0
   -4.0026   26.7581    4.4880 C   0  0  0  0  0  0  0  0  0  0  0  0
   -4.0240   25.2761    4.0701 C   0  0  0  0  0  0  0  0  0  0  0  0
   -5.7445   24.0431    0.9448 C   0  0  0  0  0  0  0  0  0  0  0  0
   -6.1632   22.8611    0.3149 C   0  0  0  0  0  0  0  0  0  0  0  0
   -6.1387   21.6561    1.0046 C   0  0  0  0  0  0  0  0  0  0  0  0
   -5.6980   21.6382    2.3205 C   0  0  0  0  0  0  0  0  0  0  0  0
   -5.3060   22.8280    2.9497 C   0  0  0  0  0  0  0  0  0  0  0  0
   -5.3453   24.0774    2.3009 C   0  0  0  0  0  0  0  0  0  0  0  0
   -6.8872   25.1452   -0.7030 C   0  0  0  0  0  0  0  0  0  0  0  0
   -5.7504   25.1789    0.1637 O   0  0  0  0  0  0  0  0  0  0  0  0
   -2.0225   27.1962    7.6968 C   0  0  0  0  0  0  0  0  0  0  0  0
   -1.4261   28.5028    8.0797 C   0  0  0  0  0  0  0  0  0  0  0  0
   -0.0941   28.6624    8.0385 N   0  0  0  0  0  0  0  0  0  0  0  0
    0.1449   29.9471    8.4982 O   0  0  0  0  0  0  0  0  0  0  0  0
   -1.0315   30.5424    8.8212 C   0  0  0  0  0  0  0  0  0  0  0  0
   -1.1895   31.8257    9.3344 C   0  0  0  0  0  0  0  0  0  0  0  0
   -2.5016   32.2255    9.6056 C   0  0  0  0  0  0  0  0  0  0  0  0
   -3.5822   31.3721    9.3667 C   0  0  0  0  0  0  0  0  0  0  0  0
   -3.3845   30.0832    8.8488 C   0  0  0  0  0  0  0  0  0  0  0  0
   -2.0718   29.6664    8.5735 C   0  0  0  0  0  0  0  0  0  0  0  0
 16 17  1  0  0  0
 17 10  1  0  0  0
 10 11  2  0  0  0
 11 12  1  0  0  0
 12 13  2  0  0  0
 13 14  1  0  0  0
 14 15  2  0  0  0
 15  5  1  0  0  0
  5  6  1  0  0  0
  6  7  1  0  0  0
  7  8  1  0  0  0
  8  1  1  0  0  0
  1  2  1  0  0  0
  2  3  2  0  0  0
  2 18  1  0  0  0
 18 19  1  0  0  0
 19 20  2  0  0  0
 20 21  1  0  0  0
 21 22  1  0  0  0
 22 23  2  0  0  0
 23 24  1  0  0  0
 24 25  2  0  0  0
 25 26  1  0  0  0
 26 27  2  0  0  0
  8  9  1  0  0  0
 15 10  1  0  0  0
  9  5  1  0  0  0
 27 19  1  0  0  0
 27 22  1  0  0  0
  1  4  1  0  0  0
M  END
> <minimizedAffinity>
-10.07240

$$$$
OCNT-2314947


 27 31  0  0  0  0  0  0  0  0999 V2000
   -5.1163   26.7829    4.8388 C   0  0  0  0  0  0  0  0  0  0  0  0
   -4.4584   26.0347    3.9797 N   0  0  0  0  0  0  0  0  0  0  0  0
   -5.2700   24.9309    3.8555 C   0  0  0  0  0  0  0  0  0  0  0  0
   -6.4036   24.9918    4.5677 N   0  0  0  0  0  0  0  0  0  0  0  0
   -6.3074   26.2230    5.2198 O   0  0  0  0  0  0  0  0  0  0  0  0
   -3.8523   31.8268    6.5486 O   0  0  0  0  0  0  0  0  0  0  0  0
   -4.0984   30.6696    6.2297 C   0  0  0  0  0  0  0  0  0  0  0  0
   -5.1958   30.3317    5.4816 N   0  0  0  0  0  0  0  0  0  0  0  0
   -5.5119   29.0847    5.0457 N   0  0  0  0  0  0  0  0  0  0  0  0
   -4.7471   28.0785    5.3726 C   0  0  0  0  0  0  0  0  0  0  0  0
   -3.5464   28.2515    6.2442 C   0  0  0  0  0  0  0  0  0  0  0  0
   -2.7367   27.2019    6.7035 C   0  0  0  0  0  0  0  0  0  0  0  0
   -1.6268   27.4599    7.5169 C   0  0  0  0  0  0  0  0  0  0  0  0
   -1.3155   28.7643    7.8896 C   0  0  0  0  0  0  0  0  0  0  0  0
   -2.1213   29.8138    7.4574 C   0  0  0  0  0  0  0  0  0  0  0  0
   -3.2339   29.5531    6.6441 C   0  0  0  0  0  0  0  0  0  0  0  0
   -5.8071   31.0872    5.1848 H   0  0  0  0  0  0  0  0  0  0  0  0
   -4.9394   23.7623    2.9785 C   0  0  0  0  0  0  0  0  0  0  0  0
   -5.1499   22.4441    3.7419 C   0  0  0  0  0  0  0  0  0  0  0  0
   -5.2639   21.2667    2.7862 C   0  0  0  0  0  0  0  0  0  0  0  0
   -6.4851   21.4487    1.8909 C   0  0  0  0  0  0  0  0  0  0  0  0
   -6.4967   22.7902    1.1996 C   0  0  0  0  0  0  0  0  0  0  0  0
   -7.2615   22.9346    0.0303 C   0  0  0  0  0  0  0  0  0  0  0  0
   -7.2877   24.1449   -0.6592 C   0  0  0  0  0  0  0  0  0  0  0  0
   -6.5463   25.2233   -0.1914 C   0  0  0  0  0  0  0  0  0  0  0  0
   -5.7944   25.0977    0.9772 C   0  0  0  0  0  0  0  0  0  0  0  0
   -5.7843   23.8950    1.7131 C   0  0  0  0  0  0  0  0  0  0  0  0
  6  7  2  0  0  0
  7  8  1  0  0  0
  8  9  1  0  0  0
  9 10  2  0  0  0
 10  1  1  0  0  0
  1  2  2  0  0  0
  2  3  1  0  0  0
  3 18  1  0  0  0
 18 19  1  0  0  0
 19 20  1  0  0  0
 20 21  1  0  0  0
 21 22  1  0  0  0
 22 23  2  0  0  0
 23 24  1  0  0  0
 24 25  2  0  0  0
 25 26  1  0  0  0
 26 27  2  0  0  0
  3  4  2  0  0  0
  4  5  1  0  0  0
 10 11  1  0  0  0
 11 12  2  0  0  0
 12 13  1  0  0  0
 13 14  2  0  0  0
 14 15  1  0  0  0
 15 16  2  0  0  0
 16  7  1  0  0  0
  5  1  1  0  0  0
 16 11  1  0  0  0
 27 18  1  0  0  0
 27 22  1  0  0  0
  8 17  1  0  0  0
M  END
> <minimizedAffinity>
-11.22634

$$$$
OCNT-2314951


 23 24  0  0  0  0  0  0  0  0999 V2000
   -5.0431   28.7802    6.4529 C   0  0  0  0  0  0  0  0  0  0  0  0
   -1.5879   26.4672    5.2166 C   0  0  0  0  0  0  0  0  0  0  0  0
   -2.7980   26.3173    4.5331 C   0  0  0  0  0  0  0  0  0  0  0  0
   -3.9258   27.0554    4.9121 C   0  0  0  0  0  0  0  0  0  0  0  0
   -5.5235   26.7576    3.9253 Br  0  0  0  0  0  0  0  0  0  0  0  0
   -3.8617   27.9635    5.9775 C   0  0  0  0  0  0  0  0  0  0  0  0
   -2.6414   28.1008    6.6669 C   0  0  0  0  0  0  0  0  0  0  0  0
   -1.5089   27.3652    6.2973 C   0  0  0  0  0  0  0  0  0  0  0  0
    0.3086   26.2087    3.7815 C   0  0  0  0  0  0  0  0  0  0  0  0
   -0.4355   25.7846    4.9144 O   0  0  0  0  0  0  0  0  0  0  0  0
   -0.2899   27.4509    6.9223 O   0  0  0  0  0  0  0  0  0  0  0  0
    0.0806   28.7018    7.4839 C   0  0  0  0  0  0  0  0  0  0  0  0
   -5.3569   29.9406    5.5012 C   0  0  0  0  0  0  0  0  0  0  0  0
   -4.3838   31.0224    5.6206 N   0  0  0  0  0  0  0  0  0  0  0  0
   -3.6446   31.0021    4.9178 H   0  0  0  0  0  0  0  0  0  0  0  0
   -3.9466   31.5225    6.8531 C   0  0  0  0  0  0  0  0  0  0  0  0
   -4.7749   32.0073    7.8722 C   0  0  0  0  0  0  0  0  0  0  0  0
   -6.1120   31.9471    7.7819 F   0  0  0  0  0  0  0  0  0  0  0  0
   -4.2162   32.5522    9.0239 C   0  0  0  0  0  0  0  0  0  0  0  0
   -2.8859   32.6697    9.2426 N   0  0  0  0  0  0  0  0  0  0  0  0
   -2.0887   32.2262    8.2455 C   0  0  0  0  0  0  0  0  0  0  0  0
   -2.5672   31.6702    7.0666 C   0  0  0  0  0  0  0  0  0  0  0  0
   -1.6967   31.2552    6.1322 F   0  0  0  0  0  0  0  0  0  0  0  0
  9 10  1  0  0  0
 10  2  1  0  0  0
  2  3  1  0  0  0
  3  4  2  0  0  0
  4  5  1  0  0  0
  4  6  1  0  0  0
  6  1  1  0  0  0
  1 13  1  0  0  0
 13 14  1  0  0  0
 14 16  1  0  0  0
 16 17  2  0  0  0
 17 18  1  0  0  0
 17 19  1  0  0  0
 19 20  2  0  0  0
 20 21  1  0  0  0
 21 22  2  0  0  0
 22 23  1  0  0  0
  6  7  2  0  0  0
  7  8  1  0  0  0
  8 11  1  0  0  0
 11 12  1  0  0  0
  8  2  2  0  0  0
 22 16  1  0  0  0
 14 15  1  0  0  0
M  END
> <minimizedAffinity>
-7.49768

$$$$
OCNT-2314960


 23 24  0  0  0  0  0  0  0  0999 V2000
   -1.8266   26.8273    6.3376 C   0  0  0  0  0  0  0  0  0  0  0  0
   -3.9257   26.8496    5.0284 C   0  0  0  0  0  0  0  0  0  0  0  0
   -3.3579   26.6448    3.9590 O   0  0  0  0  0  0  0  0  0  0  0  0
   -3.2772   26.8015    6.2618 N   0  0  0  0  0  0  0  0  0  0  0  0
   -3.7775   27.2917    7.0020 H   0  0  0  0  0  0  0  0  0  0  0  0
   -6.9853   28.3044    6.6263 C   0  0  0  0  0  0  0  0  0  0  0  0
   -5.6592   28.3022    6.0309 N   0  0  0  0  0  0  0  0  0  0  0  0
   -5.3819   29.5685    5.3328 C   0  0  0  0  0  0  0  0  0  0  0  0
   -6.1305   29.7283    4.0076 C   0  0  0  0  0  0  0  0  0  0  0  0
   -5.8476   28.5541    3.0947 C   0  0  0  0  0  0  0  0  0  0  0  0
   -6.1412   27.2270    3.7922 C   0  0  0  0  0  0  0  0  0  0  0  0
   -5.4473   27.1195    5.1622 C   0  0  0  0  0  0  0  0  0  0  0  0
   -1.3224   28.1314    6.9792 C   0  0  0  0  0  0  0  0  0  0  0  0
   -1.8687   28.2894    8.3332 N   0  0  0  0  0  0  0  0  0  0  0  0
   -2.5143   27.5463    8.5870 H   0  0  0  0  0  0  0  0  0  0  0  0
   -2.4290   29.5320    8.6612 C   0  0  0  0  0  0  0  0  0  0  0  0
   -3.7723   29.6870    8.5929 N   0  0  0  0  0  0  0  0  0  0  0  0
   -4.2898   30.9209    8.8722 C   0  0  0  0  0  0  0  0  0  0  0  0
   -3.5218   32.0314    9.2105 C   0  0  0  0  0  0  0  0  0  0  0  0
   -4.2523   33.5431    9.5064 Cl  0  0  0  0  0  0  0  0  0  0  0  0
   -2.1439   31.8807    9.2802 C   0  0  0  0  0  0  0  0  0  0  0  0
   -1.5901   30.6199    9.0006 C   0  0  0  0  0  0  0  0  0  0  0  0
    0.1296   30.4365    9.0880 Cl  0  0  0  0  0  0  0  0  0  0  0  0
  6  7  1  0  0  0
  7  8  1  0  0  0
  8  9  1  0  0  0
  9 10  1  0  0  0
 10 11  1  0  0  0
 11 12  1  0  0  0
 12  2  1  0  0  0
  2  3  2  0  0  0
  2  4  1  0  0  0
  4  1  1  0  0  0
  1 13  1  0  0  0
 13 14  1  0  0  0
 14 16  1  0  0  0
 16 17  1  0  0  0
 17 18  2  0  0  0
 18 19  1  0  0  0
 19 20  1  0  0  0
 19 21  2  0  0  0
 21 22  1  0  0  0
 22 23  1  0  0  0
 12  7  1  0  0  0
 22 16  2  0  0  0
  4  5  1  0  0  0
 14 15  1  0  0  0
M  END
> <minimizedAffinity>
-8.02861

$$$$
OCNT-2314961


 27 29  0  0  0  0  0  0  0  0999 V2000
   -5.0109   27.7775    5.0871 C   0  0  0  0  0  0  0  0  0  0  0  0
   -7.0289   28.9214    6.1869 C   0  0  0  0  0  0  0  0  0  0  0  0
   -5.7776   29.1356    5.3081 C   0  0  0  0  0  0  0  0  0  0  0  0
   -6.2394   29.7671    3.9790 C   0  0  0  0  0  0  0  0  0  0  0  0
   -4.8722   30.1480    6.0427 C   0  0  0  0  0  0  0  0  0  0  0  0
   -3.9620   27.5473    6.0908 N   0  0  0  0  0  0  0  0  0  0  0  0
   -2.7635   26.9337    5.7759 C   0  0  0  0  0  0  0  0  0  0  0  0
   -2.4303   26.6678    4.6242 O   0  0  0  0  0  0  0  0  0  0  0  0
   -4.3223   27.3688    7.0247 H   0  0  0  0  0  0  0  0  0  0  0  0
   -1.8916   26.6339    7.0081 C   0  0  0  0  0  0  0  0  0  0  0  0
   -2.2580   27.4529    8.1719 N   0  0  0  0  0  0  0  0  0  0  0  0
   -2.0833   26.9210    9.0240 H   0  0  0  0  0  0  0  0  0  0  0  0
   -1.5040   28.6974    8.2258 C   0  0  0  0  0  0  0  0  0  0  0  0
   -0.1337   28.4107    7.6973 C   0  0  0  0  0  0  0  0  0  0  0  0
    1.0397   29.2342    8.1601 C   0  0  0  0  0  0  0  0  0  0  0  0
    0.5470   29.3608    6.7464 C   0  0  0  0  0  0  0  0  0  0  0  0
   -5.9563   26.5317    5.0586 C   0  0  0  0  0  0  0  0  0  0  0  0
   -5.6051   25.5294    4.0211 N   0  0  0  0  0  0  0  0  0  0  0  0
   -5.7666   26.0772    2.6610 C   0  0  0  0  0  0  0  0  0  0  0  0
   -5.2647   25.0787    1.6046 C   0  0  0  0  0  0  0  0  0  0  0  0
   -5.7852   23.6825    1.8228 C   0  0  0  0  0  0  0  0  0  0  0  0
   -5.6786   22.7231    0.8071 C   0  0  0  0  0  0  0  0  0  0  0  0
   -6.1283   21.4200    1.0186 C   0  0  0  0  0  0  0  0  0  0  0  0
   -6.6802   21.0641    2.2458 C   0  0  0  0  0  0  0  0  0  0  0  0
   -6.7804   22.0105    3.2660 C   0  0  0  0  0  0  0  0  0  0  0  0
   -6.3224   23.3222    3.0693 C   0  0  0  0  0  0  0  0  0  0  0  0
   -6.4842   24.3479    4.1702 C   0  0  0  0  0  0  0  0  0  0  0  0
  2  3  1  0  0  0
  3  4  1  0  0  0
  3  5  1  0  0  0
  3  1  1  0  0  0
  1 17  1  0  0  0
 17 18  1  0  0  0
 18 19  1  0  0  0
 19 20  1  0  0  0
 20 21  1  0  0  0
 21 22  2  0  0  0
 22 23  1  0  0  0
 23 24  2  0  0  0
 24 25  1  0  0  0
 25 26  2  0  0  0
 26 27  1  0  0  0
  1  6  1  0  0  0
  6  7  1  0  0  0
  7  8  2  0  0  0
  7 10  1  0  0  0
 10 11  1  0  0  0
 11 13  1  0  0  0
 13 14  1  0  0  0
 14 15  1  0  0  0
 15 16  1  0  0  0
 27 18  1  0  0  0
 16 14  1  0  0  0
 26 21  1  0  0  0
  6  9  1  0  0  0
 11 12  1  0  0  0
M  END
> <minimizedAffinity>
-9.11290

$$$$
OCNT-2314962


 26 28  0  0  0  0  0  0  0  0999 V2000
   -6.0954   28.0157    4.1879 C   0  0  0  0  0  0  0  0  0  0  0  0
   -6.2329   27.0047    5.1516 C   0  0  0  0  0  0  0  0  0  0  0  0
   -6.0536   25.6653    4.8015 C   0  0  0  0  0  0  0  0  0  0  0  0
   -5.7479   25.3332    3.4788 C   0  0  0  0  0  0  0  0  0  0  0  0
   -5.6040   26.3262    2.5081 C   0  0  0  0  0  0  0  0  0  0  0  0
   -5.7865   27.6635    2.8643 C   0  0  0  0  0  0  0  0  0  0  0  0
   -5.5072   23.6291    3.0484 S   0  0  0  0  0  0  0  0  0  0  0  0
   -5.6053   22.8483    4.2626 O   0  0  0  0  0  0  0  0  0  0  0  0
   -4.3649   23.5334    2.1648 O   0  0  0  0  0  0  0  0  0  0  0  0
   -6.8788   23.3529    2.0750 N   0  0  0  0  0  0  0  0  0  0  0  0
   -7.5715   24.0646    2.3185 H   0  0  0  0  0  0  0  0  0  0  0  0
   -6.6029   23.3265    0.6300 C   0  0  0  0  0  0  0  0  0  0  0  0
   -7.6623   22.8767   -0.3364 C   0  0  0  0  0  0  0  0  0  0  0  0
   -7.2345   24.3165   -0.3053 C   0  0  0  0  0  0  0  0  0  0  0  0
   -6.3161   29.4629    4.5554 C   0  0  0  0  0  0  0  0  0  0  0  0
   -0.6692   31.8568    9.4216 C   0  0  0  0  0  0  0  0  0  0  0  0
   -1.8096   31.5999    8.7623 C   0  0  0  0  0  0  0  0  0  0  0  0
   -2.0228   32.0119    7.3249 C   0  0  0  0  0  0  0  0  0  0  0  0
   -2.9297   31.0253    6.5789 C   0  0  0  0  0  0  0  0  0  0  0  0
   -4.2113   30.7868    7.2570 N   0  0  0  0  0  0  0  0  0  0  0  0
   -5.3746   30.3882    6.6207 C   0  0  0  0  0  0  0  0  0  0  0  0
   -6.4730   30.4038    7.1693 O   0  0  0  0  0  0  0  0  0  0  0  0
   -5.2051   29.9793    5.3236 N   0  0  0  0  0  0  0  0  0  0  0  0
   -4.2877   31.1337    8.6795 C   0  0  0  0  0  0  0  0  0  0  0  0
   -2.9665   30.8742    9.4125 C   0  0  0  0  0  0  0  0  0  0  0  0
   -4.3096   29.5682    5.1179 H   0  0  0  0  0  0  0  0  0  0  0  0
 16 17  2  0  0  0
 17 18  1  0  0  0
 18 19  1  0  0  0
 19 20  1  0  0  0
 20 21  1  0  0  0
 21 22  2  0  0  0
 21 23  1  0  0  0
 23 15  1  0  0  0
 15  1  1  0  0  0
  1  2  1  0  0  0
  2  3  2  0  0  0
  3  4  1  0  0  0
  4  7  1  0  0  0
  7  8  2  0  0  0
  7  9  2  0  0  0
  7 10  1  0  0  0
 10 12  1  0  0  0
 12 13  1  0  0  0
 13 14  1  0  0  0
  4  5  2  0  0  0
  5  6  1  0  0  0
 20 24  1  0  0  0
 24 25  1  0  0  0
 25 17  1  0  0  0
  6  1  2  0  0  0
 14 12  1  0  0  0
 23 26  1  0  0  0
 10 11  1  0  0  0
M  END
> <minimizedAffinity>
-9.66529

$$$$
OCNT-2314969


 24 26  0  0  0  0  0  0  0  0999 V2000
   -2.7624   31.6564    9.2124 C   0  0  0  0  0  0  0  0  0  0  0  0
   -1.3993   31.1387    8.7040 C   0  0  0  0  0  0  0  0  0  0  0  0
   -2.0561   29.7373    8.6160 C   0  0  0  0  0  0  0  0  0  0  0  0
   -3.4233   30.5056    8.3358 C   0  0  0  0  0  0  0  0  0  0  0  0
   -4.6218   29.8383    9.0427 C   0  0  0  0  0  0  0  0  0  0  0  0
   -5.9412   30.4208    8.5516 C   0  0  0  0  0  0  0  0  0  0  0  0
   -6.1538   30.1608    7.0603 C   0  0  0  0  0  0  0  0  0  0  0  0
   -4.8501   30.1146    6.2625 C   0  0  0  0  0  0  0  0  0  0  0  0
   -3.7642   30.9756    6.8974 C   0  0  0  0  0  0  0  0  0  0  0  0
   -1.5673   28.9961    7.4367 N   0  0  0  0  0  0  0  0  0  0  0  0
   -0.1078   29.0939    7.3255 C   0  0  0  0  0  0  0  0  0  0  0  0
   -2.0026   27.5785    7.4824 C   0  0  0  0  0  0  0  0  0  0  0  0
   -2.4213   26.9890    6.1249 C   0  0  0  0  0  0  0  0  0  0  0  0
   -1.5832   26.6644    5.2885 O   0  0  0  0  0  0  0  0  0  0  0  0
   -3.7923   26.8914    5.9993 N   0  0  0  0  0  0  0  0  0  0  0  0
   -4.3908   27.2018    6.7517 H   0  0  0  0  0  0  0  0  0  0  0  0
   -4.4985   26.4255    4.9216 C   0  0  0  0  0  0  0  0  0  0  0  0
   -4.7392   27.2056    3.8931 N   0  0  0  0  0  0  0  0  0  0  0  0
   -5.4606   26.5067    2.9440 C   0  0  0  0  0  0  0  0  0  0  0  0
   -5.7551   25.2006    3.2680 C   0  0  0  0  0  0  0  0  0  0  0  0
   -5.1109   24.8405    4.8136 S   0  0  0  0  0  0  0  0  0  0  0  0
   -3.0619   33.0293    8.8783 O   0  0  0  0  0  0  0  0  0  0  0  0
   -5.0030   34.2559    8.2087 C   0  0  0  0  0  0  0  0  0  0  0  0
   -4.3018   33.5482    9.3495 C   0  0  0  0  0  0  0  0  0  0  0  0
 23 24  1  0  0  0
 24 22  1  0  0  0
 22  1  1  0  0  0
  1  2  1  0  0  0
  2  3  1  0  0  0
  3 10  1  0  0  0
 10 11  1  0  0  0
 10 12  1  0  0  0
 12 13  1  0  0  0
 13 14  2  0  0  0
 13 15  1  0  0  0
 15 17  1  0  0  0
 17 18  2  0  0  0
 18 19  1  0  0  0
 19 20  2  0  0  0
 20 21  1  0  0  0
  3  4  1  0  0  0
  4  5  1  0  0  0
  5  6  1  0  0  0
  6  7  1  0  0  0
  7  8  1  0  0  0
  8  9  1  0  0  0
  4  1  1  0  0  0
 21 17  1  0  0  0
  9  4  1  0  0  0
 15 16  1  0  0  0
M  END
> <minimizedAffinity>
-7.59178

$$$$
OCNT-2314976


 25 27  0  0  0  0  0  0  0  0999 V2000
   -3.2179   28.0077    5.8685 N   0  0  0  0  0  0  0  0  0  0  0  0
   -2.8267   26.8412    5.2612 C   0  0  0  0  0  0  0  0  0  0  0  0
   -1.8519   26.1819    5.6037 O   0  0  0  0  0  0  0  0  0  0  0  0
   -4.1570   28.3479    5.6982 H   0  0  0  0  0  0  0  0  0  0  0  0
   -3.7178   26.3760    4.1527 C   0  0  0  0  0  0  0  0  0  0  0  0
   -3.5196   25.1988    3.5279 C   0  0  0  0  0  0  0  0  0  0  0  0
   -4.3924   24.7968    2.5202 N   0  0  0  0  0  0  0  0  0  0  0  0
   -4.3503   23.6651    1.7753 N   0  0  0  0  0  0  0  0  0  0  0  0
   -5.4100   23.8102    0.9785 C   0  0  0  0  0  0  0  0  0  0  0  0
   -6.1361   24.9502    1.1510 N   0  0  0  0  0  0  0  0  0  0  0  0
   -5.4927   25.5598    2.1203 C   0  0  0  0  0  0  0  0  0  0  0  0
   -5.7224   26.7903    2.7932 C   0  0  0  0  0  0  0  0  0  0  0  0
   -4.8790   27.1801    3.7682 C   0  0  0  0  0  0  0  0  0  0  0  0
   -2.5662   28.5054    7.0776 C   0  0  0  0  0  0  0  0  0  0  0  0
   -1.7304   29.8078    6.8455 C   0  0  0  0  0  0  0  0  0  0  0  0
   -4.6895   34.2320    9.2836 C   0  0  0  0  0  0  0  0  0  0  0  0
   -3.9397   33.0877    8.6682 C   0  0  0  0  0  0  0  0  0  0  0  0
   -4.2619   32.6391    7.3828 C   0  0  0  0  0  0  0  0  0  0  0  0
   -3.5421   31.5964    6.7946 C   0  0  0  0  0  0  0  0  0  0  0  0
   -2.4803   30.9861    7.4801 C   0  0  0  0  0  0  0  0  0  0  0  0
   -2.1479   31.4535    8.7608 C   0  0  0  0  0  0  0  0  0  0  0  0
   -2.8674   32.4975    9.3459 C   0  0  0  0  0  0  0  0  0  0  0  0
   -0.3257   29.7283    7.3421 N   0  0  0  0  0  0  0  0  0  0  0  0
   -0.1635   28.7389    8.4113 C   0  0  0  0  0  0  0  0  0  0  0  0
    0.6019   29.3984    6.2497 C   0  0  0  0  0  0  0  0  0  0  0  0
 16 17  1  0  0  0
 17 18  1  0  0  0
 18 19  2  0  0  0
 19 20  1  0  0  0
 20 15  1  0  0  0
 15 14  1  0  0  0
 14  1  1  0  0  0
  1  2  1  0  0  0
  2  3  2  0  0  0
  2  5  1  0  0  0
  5  6  2  0  0  0
  6  7  1  0  0  0
  7  8  1  0  0  0
  8  9  2  0  0  0
  9 10  1  0  0  0
 10 11  2  0  0  0
 11 12  1  0  0  0
 12 13  2  0  0  0
 15 23  1  0  0  0
 23 24  1  0  0  0
 23 25  1  0  0  0
 20 21  2  0  0  0
 21 22  1  0  0  0
 22 17  2  0  0  0
 13  5  1  0  0  0
 11  7  1  0  0  0
  1  4  1  0  0  0
M  END
> <minimizedAffinity>
-9.12167

$$$$
OCNT-2314989


 28 31  0  0  0  0  0  0  0  0999 V2000
   -3.8956   27.1916    5.3224 C   0  0  0  0  0  0  0  0  0  0  0  0
   -4.4313   28.1947    5.9955 N   0  0  0  0  0  0  0  0  0  0  0  0
   -3.4106   28.7793    6.6934 C   0  0  0  0  0  0  0  0  0  0  0  0
   -3.4472   29.8932    7.5411 C   0  0  0  0  0  0  0  0  0  0  0  0
   -2.2443   30.3125    8.1235 C   0  0  0  0  0  0  0  0  0  0  0  0
   -1.0417   29.6349    7.8961 C   0  0  0  0  0  0  0  0  0  0  0  0
   -1.0018   28.5142    7.0595 C   0  0  0  0  0  0  0  0  0  0  0  0
   -2.2090   28.1152    6.4706 C   0  0  0  0  0  0  0  0  0  0  0  0
   -2.5514   27.0813    5.6268 N   0  0  0  0  0  0  0  0  0  0  0  0
   -1.6607   26.0301    5.1937 C   0  0  0  0  0  0  0  0  0  0  0  0
   -6.7785   23.7700    1.7569 N   0  0  0  0  0  0  0  0  0  0  0  0
   -7.2664   22.4929    2.2876 C   0  0  0  0  0  0  0  0  0  0  0  0
   -7.8925   22.6895    3.6561 C   0  0  0  0  0  0  0  0  0  0  0  0
   -6.8335   23.2102    4.6110 C   0  0  0  0  0  0  0  0  0  0  0  0
   -6.0806   24.3764    4.0195 C   0  0  0  0  0  0  0  0  0  0  0  0
   -5.3604   25.2097    4.8998 C   0  0  0  0  0  0  0  0  0  0  0  0
   -4.6391   26.3063    4.4249 C   0  0  0  0  0  0  0  0  0  0  0  0
   -4.6155   26.5376    3.0517 C   0  0  0  0  0  0  0  0  0  0  0  0
   -5.3218   25.7046    2.1734 C   0  0  0  0  0  0  0  0  0  0  0  0
   -6.0597   24.5976    2.6233 C   0  0  0  0  0  0  0  0  0  0  0  0
   -7.7344   23.1216   -0.4384 C   0  0  0  0  0  0  0  0  0  0  0  0
   -6.6137   23.8397    0.3000 C   0  0  0  0  0  0  0  0  0  0  0  0
   -2.2632   31.7284    9.1884 S   0  0  0  0  0  0  0  0  0  0  0  0
   -0.6214   31.9293    9.5083 N   0  0  0  0  0  0  0  0  0  0  0  0
   -2.9097   31.3663   10.4274 O   0  0  0  0  0  0  0  0  0  0  0  0
   -2.6593   32.8807    8.4130 O   0  0  0  0  0  0  0  0  0  0  0  0
   -0.3172   32.8209    9.1126 H   0  0  0  0  0  0  0  0  0  0  0  0
   -0.0492   31.1532    9.1774 H   0  0  0  0  0  0  0  0  0  0  0  0
 21 22  1  0  0  0
 22 11  1  0  0  0
 11 12  1  0  0  0
 12 13  1  0  0  0
 13 14  1  0  0  0
 14 15  1  0  0  0
 15 16  1  0  0  0
 16 17  2  0  0  0
 17  1  1  0  0  0
  1  2  2  0  0  0
  2  3  1  0  0  0
  3  4  2  0  0  0
  4  5  1  0  0  0
  5 23  1  0  0  0
 23 24  1  0  0  0
 23 25  2  0  0  0
 23 26  2  0  0  0
  5  6  2  0  0  0
  6  7  1  0  0  0
  7  8  2  0  0  0
  8  9  1  0  0  0
  9 10  1  0  0  0
 17 18  1  0  0  0
 18 19  2  0  0  0
 19 20  1  0  0  0
 20 11  1  0  0  0
 20 15  2  0  0  0
  9  1  1  0  0  0
  8  3  1  0  0  0
 24 27  1  0  0  0
 24 28  1  0  0  0
M  END
> <minimizedAffinity>
-9.82898

$$$$
OCNT-2314990


 24 26  0  0  0  0  0  0  0  0999 V2000
   -5.0884   24.8513    4.8265 O   0  0  0  0  0  0  0  0  0  0  0  0
   -6.1320   25.4939    4.8935 C   0  0  0  0  0  0  0  0  0  0  0  0
   -7.3406   24.9520    5.2821 N   0  0  0  0  0  0  0  0  0  0  0  0
   -8.1716   25.4233    4.9468 H   0  0  0  0  0  0  0  0  0  0  0  0
   -6.1182   26.9247    4.5033 C   0  0  0  0  0  0  0  0  0  0  0  0
   -5.8546   27.3416    3.1931 C   0  0  0  0  0  0  0  0  0  0  0  0
   -5.8502   28.7026    2.8935 C   0  0  0  0  0  0  0  0  0  0  0  0
   -6.1164   29.6009    3.9131 C   0  0  0  0  0  0  0  0  0  0  0  0
   -6.3905   29.2327    5.1811 N   0  0  0  0  0  0  0  0  0  0  0  0
   -6.3982   27.9096    5.4520 C   0  0  0  0  0  0  0  0  0  0  0  0
   -6.7046   27.6254    6.7537 O   0  0  0  0  0  0  0  0  0  0  0  0
   -6.8179   26.6546    6.8233 H   0  0  0  0  0  0  0  0  0  0  0  0
   -7.4917   23.5108    5.4711 C   0  0  0  0  0  0  0  0  0  0  0  0
   -8.3565   23.0955    6.6659 C   0  0  0  0  0  0  0  0  0  0  0  0
   -8.7103   21.7023    6.3755 N   0  0  0  0  0  0  0  0  0  0  0  0
   -8.8983   21.6049    4.9242 C   0  0  0  0  0  0  0  0  0  0  0  0
   -8.2575   22.8586    4.3055 C   0  0  0  0  0  0  0  0  0  0  0  0
   -9.5520   21.4281    6.8799 H   0  0  0  0  0  0  0  0  0  0  0  0
   -7.4167   22.6023    3.0739 C   0  0  0  0  0  0  0  0  0  0  0  0
   -6.6903   21.4070    2.9593 C   0  0  0  0  0  0  0  0  0  0  0  0
   -5.9185   21.1484    1.8249 C   0  0  0  0  0  0  0  0  0  0  0  0
   -5.8617   22.0804    0.7916 C   0  0  0  0  0  0  0  0  0  0  0  0
   -6.5738   23.2728    0.8930 C   0  0  0  0  0  0  0  0  0  0  0  0
   -7.3454   23.5334    2.0267 C   0  0  0  0  0  0  0  0  0  0  0  0
  1  2  2  0  0  0
  2  3  1  0  0  0
  3 13  1  0  0  0
 13 14  1  0  0  0
 14 15  1  0  0  0
 15 16  1  0  0  0
 16 17  1  0  0  0
 17 19  1  0  0  0
 19 20  2  0  0  0
 20 21  1  0  0  0
 21 22  2  0  0  0
 22 23  1  0  0  0
 23 24  2  0  0  0
  2  5  1  0  0  0
  5  6  1  0  0  0
  6  7  2  0  0  0
  7  8  1  0  0  0
  8  9  2  0  0  0
  9 10  1  0  0  0
 10 11  1  0  0  0
 17 13  1  0  0  0
 24 19  1  0  0  0
 10  5  2  0  0  0
  3  4  1  0  0  0
 15 18  1  0  0  0
 11 12  1  0  0  0
M  END
> <minimizedAffinity>
-8.33258

$$$$
OCNT-2315001


 22 24  0  0  0  0  0  0  0  0999 V2000
   -5.2000   28.6860    7.4191 N   0  0  0  0  0  0  0  0  0  0  0  0
   -6.2141   28.8132    6.5063 C   0  0  0  0  0  0  0  0  0  0  0  0
   -7.1296   29.6215    6.6010 O   0  0  0  0  0  0  0  0  0  0  0  0
   -4.3910   28.1270    7.1840 H   0  0  0  0  0  0  0  0  0  0  0  0
   -6.0958   27.9379    5.3131 C   0  0  0  0  0  0  0  0  0  0  0  0
   -6.1641   26.6023    5.3984 C   0  0  0  0  0  0  0  0  0  0  0  0
   -6.0759   25.8501    4.1531 C   0  0  0  0  0  0  0  0  0  0  0  0
   -6.2836   24.4664    4.1343 C   0  0  0  0  0  0  0  0  0  0  0  0
   -6.1637   23.7545    2.9382 C   0  0  0  0  0  0  0  0  0  0  0  0
   -5.8280   24.4194    1.7594 C   0  0  0  0  0  0  0  0  0  0  0  0
   -5.6159   25.7978    1.7739 C   0  0  0  0  0  0  0  0  0  0  0  0
   -5.7498   26.5121    2.9645 C   0  0  0  0  0  0  0  0  0  0  0  0
   -5.5022   27.8562    2.8978 O   0  0  0  0  0  0  0  0  0  0  0  0
   -5.9748   28.6526    4.0000 C   0  0  0  0  0  0  0  0  0  0  0  0
   -5.6918   28.8419    9.8333 C   0  0  0  0  0  0  0  0  0  0  0  0
   -5.1125   29.5349    8.5960 C   0  0  0  0  0  0  0  0  0  0  0  0
   -3.6707   29.9689    8.7986 C   0  0  0  0  0  0  0  0  0  0  0  0
   -3.3885   31.1023    9.5774 C   0  0  0  0  0  0  0  0  0  0  0  0
   -2.0731   31.5343    9.7579 C   0  0  0  0  0  0  0  0  0  0  0  0
   -1.0229   30.8442    9.1573 C   0  0  0  0  0  0  0  0  0  0  0  0
   -1.2866   29.7242    8.3723 C   0  0  0  0  0  0  0  0  0  0  0  0
   -2.6015   29.2908    8.1902 C   0  0  0  0  0  0  0  0  0  0  0  0
 15 16  1  0  0  0
 16  1  1  0  0  0
  1  2  1  0  0  0
  2  3  2  0  0  0
  2  5  1  0  0  0
  5  6  2  0  0  0
  6  7  1  0  0  0
  7  8  2  0  0  0
  8  9  1  0  0  0
  9 10  2  0  0  0
 10 11  1  0  0  0
 11 12  2  0  0  0
 12 13  1  0  0  0
 13 14  1  0  0  0
 16 17  1  0  0  0
 17 18  2  0  0  0
 18 19  1  0  0  0
 19 20  2  0  0  0
 20 21  1  0  0  0
 21 22  2  0  0  0
 14  5  1  0  0  0
 22 17  1  0  0  0
 12  7  1  0  0  0
  1  4  1  0  0  0
M  END
> <minimizedAffinity>
-9.12472

$$$$
OCNT-2315017


 27 29  0  0  0  0  0  0  0  0999 V2000
   -4.5713   26.2197    2.8343 C   0  0  0  0  0  0  0  0  0  0  0  0
   -5.8460   26.8274    2.5826 O   0  0  0  0  0  0  0  0  0  0  0  0
   -5.7679   27.3283    1.7504 H   0  0  0  0  0  0  0  0  0  0  0  0
   -4.5474   25.6693    4.2713 C   0  0  0  0  0  0  0  0  0  0  0  0
   -1.7608   28.8433    7.6949 N   0  0  0  0  0  0  0  0  0  0  0  0
   -2.6257   29.8641    7.9028 N   0  0  0  0  0  0  0  0  0  0  0  0
   -3.7258   29.6133    7.1924 N   0  0  0  0  0  0  0  0  0  0  0  0
   -3.5282   28.4327    6.5429 C   0  0  0  0  0  0  0  0  0  0  0  0
   -2.2921   27.9181    6.8452 C   0  0  0  0  0  0  0  0  0  0  0  0
   -1.7326   26.7644    6.4117 N   0  0  0  0  0  0  0  0  0  0  0  0
   -2.5116   26.1174    5.5924 C   0  0  0  0  0  0  0  0  0  0  0  0
   -3.7748   26.5317    5.1622 N   0  0  0  0  0  0  0  0  0  0  0  0
   -4.3892   27.6980    5.6520 C   0  0  0  0  0  0  0  0  0  0  0  0
   -5.5367   28.0333    5.3707 O   0  0  0  0  0  0  0  0  0  0  0  0
    0.6461   29.2507    7.4056 C   0  0  0  0  0  0  0  0  0  0  0  0
   -0.4707   28.8265    8.3422 C   0  0  0  0  0  0  0  0  0  0  0  0
   -4.2552   25.1530    1.7635 C   0  0  0  0  0  0  0  0  0  0  0  0
   -5.4544   24.5055    1.0882 C   0  0  0  0  0  0  0  0  0  0  0  0
   -6.0876   25.1942    0.0364 C   0  0  0  0  0  0  0  0  0  0  0  0
   -7.1906   24.6532   -0.6235 C   0  0  0  0  0  0  0  0  0  0  0  0
   -7.6790   23.4076   -0.2527 C   0  0  0  0  0  0  0  0  0  0  0  0
   -7.0600   22.7002    0.7758 C   0  0  0  0  0  0  0  0  0  0  0  0
   -5.9445   23.2285    1.4574 C   0  0  0  0  0  0  0  0  0  0  0  0
   -5.3103   22.3993    2.5553 C   0  0  0  0  0  0  0  0  0  0  0  0
   -5.4751   21.0627    2.3510 F   0  0  0  0  0  0  0  0  0  0  0  0
   -3.9668   22.5880    2.6821 F   0  0  0  0  0  0  0  0  0  0  0  0
   -5.8380   22.6631    3.7823 F   0  0  0  0  0  0  0  0  0  0  0  0
 15 16  1  0  0  0
 16  5  1  0  0  0
  5  6  1  0  0  0
  6  7  2  0  0  0
  7  8  1  0  0  0
  8  9  2  0  0  0
  9 10  1  0  0  0
 10 11  2  0  0  0
 11 12  1  0  0  0
 12  4  1  0  0  0
  4  1  1  0  0  0
  1  2  1  0  0  0
  1 17  1  0  0  0
 17 18  1  0  0  0
 18 19  2  0  0  0
 19 20  1  0  0  0
 20 21  2  0  0  0
 21 22  1  0  0  0
 22 23  2  0  0  0
 23 24  1  0  0  0
 24 25  1  0  0  0
 24 26  1  0  0  0
 24 27  1  0  0  0
 12 13  1  0  0  0
 13 14  2  0  0  0
  9  5  1  0  0  0
 23 18  1  0  0  0
 13  8  1  0  0  0
  2  3  1  0  0  0
M  END
> <minimizedAffinity>
-9.50012

$$$$
OCNT-2315024


 25 28  0  0  0  0  0  0  0  0999 V2000
   -1.7551   29.3475    7.3959 N   0  0  0  0  0  0  0  0  0  0  0  0
   -2.3842   30.4996    7.7537 N   0  0  0  0  0  0  0  0  0  0  0  0
   -3.6364   30.3325    7.3104 C   0  0  0  0  0  0  0  0  0  0  0  0
   -3.8039   29.1033    6.6674 C   0  0  0  0  0  0  0  0  0  0  0  0
   -2.5817   28.4818    6.7272 C   0  0  0  0  0  0  0  0  0  0  0  0
   -2.2601   27.2597    6.2392 N   0  0  0  0  0  0  0  0  0  0  0  0
   -3.2628   26.6674    5.6611 C   0  0  0  0  0  0  0  0  0  0  0  0
   -4.5413   27.1939    5.5001 N   0  0  0  0  0  0  0  0  0  0  0  0
   -4.9001   28.4397    6.0233 C   0  0  0  0  0  0  0  0  0  0  0  0
   -6.0204   28.9324    5.9326 O   0  0  0  0  0  0  0  0  0  0  0  0
    0.5673   29.3482    6.5345 C   0  0  0  0  0  0  0  0  0  0  0  0
   -0.3503   29.1672    7.7429 C   0  0  0  0  0  0  0  0  0  0  0  0
    0.0712   30.0568    8.9117 C   0  0  0  0  0  0  0  0  0  0  0  0
   -5.5727   26.4074    4.8438 C   0  0  0  0  0  0  0  0  0  0  0  0
   -5.4348   26.5084    3.3202 C   0  0  0  0  0  0  0  0  0  0  0  0
   -5.9852   27.4181    2.6947 O   0  0  0  0  0  0  0  0  0  0  0  0
   -4.7063   25.5178    2.6734 N   0  0  0  0  0  0  0  0  0  0  0  0
   -4.6295   25.5533    1.2029 C   0  0  0  0  0  0  0  0  0  0  0  0
   -5.6532   24.5853    0.5839 C   0  0  0  0  0  0  0  0  0  0  0  0
   -5.6042   23.2852    1.3335 C   0  0  0  0  0  0  0  0  0  0  0  0
   -5.0072   23.1225    2.5729 C   0  0  0  0  0  0  0  0  0  0  0  0
   -5.1450   21.7760    3.0323 C   0  0  0  0  0  0  0  0  0  0  0  0
   -5.8377   20.9886    2.1367 C   0  0  0  0  0  0  0  0  0  0  0  0
   -6.3204   21.8623    0.7459 S   0  0  0  0  0  0  0  0  0  0  0  0
   -4.2993   24.2435    3.2838 C   0  0  0  0  0  0  0  0  0  0  0  0
 11 12  1  0  0  0
 12 13  1  0  0  0
 12  1  1  0  0  0
  1  2  1  0  0  0
  2  3  2  0  0  0
  3  4  1  0  0  0
  4  5  2  0  0  0
  5  6  1  0  0  0
  6  7  2  0  0  0
  7  8  1  0  0  0
  8 14  1  0  0  0
 14 15  1  0  0  0
 15 16  2  0  0  0
 15 17  1  0  0  0
 17 18  1  0  0  0
 18 19  1  0  0  0
 19 20  1  0  0  0
 20 21  2  0  0  0
 21 22  1  0  0  0
 22 23  2  0  0  0
 23 24  1  0  0  0
 21 25  1  0  0  0
  8  9  1  0  0  0
  9 10  2  0  0  0
  5  1  1  0  0  0
 25 17  1  0  0  0
  9  4  1  0  0  0
 24 20  1  0  0  0
M  END
> <minimizedAffinity>
-8.89122

$$$$
OCNT-2315030


 28 31  0  0  0  0  0  0  0  0999 V2000
   -5.7292   27.4896    5.6506 O   0  0  0  0  0  0  0  0  0  0  0  0
   -5.1115   26.8027    4.8415 C   0  0  0  0  0  0  0  0  0  0  0  0
   -5.7647   26.2248    3.7790 N   0  0  0  0  0  0  0  0  0  0  0  0
   -5.1647   25.4377    2.8169 C   0  0  0  0  0  0  0  0  0  0  0  0
   -3.8410   25.2181    2.9245 C   0  0  0  0  0  0  0  0  0  0  0  0
   -3.0764   25.7878    4.0110 C   0  0  0  0  0  0  0  0  0  0  0  0
   -3.6469   26.5573    4.9571 C   0  0  0  0  0  0  0  0  0  0  0  0
   -6.7534   26.4227    3.7483 H   0  0  0  0  0  0  0  0  0  0  0  0
   -5.9578   24.8511    1.6963 C   0  0  0  0  0  0  0  0  0  0  0  0
   -6.0720   25.4609    0.4462 C   0  0  0  0  0  0  0  0  0  0  0  0
   -6.8331   24.8474   -0.5503 C   0  0  0  0  0  0  0  0  0  0  0  0
   -7.4644   23.6417   -0.2838 C   0  0  0  0  0  0  0  0  0  0  0  0
   -7.3077   23.0960    0.9751 C   0  0  0  0  0  0  0  0  0  0  0  0
   -6.5769   23.6692    1.9567 N   0  0  0  0  0  0  0  0  0  0  0  0
   -2.7764   27.1056    6.0466 C   0  0  0  0  0  0  0  0  0  0  0  0
   -2.0521   26.3459    6.6874 O   0  0  0  0  0  0  0  0  0  0  0  0
   -2.8697   28.4629    6.2394 N   0  0  0  0  0  0  0  0  0  0  0  0
   -3.5103   29.0007    5.6433 H   0  0  0  0  0  0  0  0  0  0  0  0
   -2.1832   29.2740    7.1814 C   0  0  0  0  0  0  0  0  0  0  0  0
   -0.8304   29.1058    7.4988 C   0  0  0  0  0  0  0  0  0  0  0  0
   -0.2167   29.9373    8.4338 C   0  0  0  0  0  0  0  0  0  0  0  0
   -0.9504   30.9412    9.0566 C   0  0  0  0  0  0  0  0  0  0  0  0
   -2.3070   31.1198    8.7469 C   0  0  0  0  0  0  0  0  0  0  0  0
   -3.0655   32.1250    9.3624 C   0  0  0  0  0  0  0  0  0  0  0  0
   -4.4067   32.2794    9.0370 C   0  0  0  0  0  0  0  0  0  0  0  0
   -4.9475   31.4197    8.1025 C   0  0  0  0  0  0  0  0  0  0  0  0
   -4.2490   30.4405    7.4890 N   0  0  0  0  0  0  0  0  0  0  0  0
   -2.9412   30.2837    7.8010 C   0  0  0  0  0  0  0  0  0  0  0  0
  1  2  2  0  0  0
  2  3  1  0  0  0
  3  4  1  0  0  0
  4  9  1  0  0  0
  9 10  2  0  0  0
 10 11  1  0  0  0
 11 12  2  0  0  0
 12 13  1  0  0  0
 13 14  2  0  0  0
  4  5  2  0  0  0
  5  6  1  0  0  0
  6  7  2  0  0  0
  7 15  1  0  0  0
 15 16  2  0  0  0
 15 17  1  0  0  0
 17 19  1  0  0  0
 19 20  1  0  0  0
 20 21  2  0  0  0
 21 22  1  0  0  0
 22 23  2  0  0  0
 23 24  1  0  0  0
 24 25  2  0  0  0
 25 26  1  0  0  0
 26 27  2  0  0  0
 27 28  1  0  0  0
  7  2  1  0  0  0
 28 19  2  0  0  0
 14  9  1  0  0  0
 28 23  1  0  0  0
  3  8  1  0  0  0
 17 18  1  0  0  0
M  END
> <minimizedAffinity>
-10.72448

$$$$
OCNT-2315032


 26 28  0  0  0  0  0  0  0  0999 V2000
   -4.2573   29.9656    5.9327 N   0  0  0  0  0  0  0  0  0  0  0  0
   -3.8367   29.7189    5.0376 H   0  0  0  0  0  0  0  0  0  0  0  0
   -3.9261   31.3642    6.2182 C   0  0  0  0  0  0  0  0  0  0  0  0
   -1.9973   30.9803    7.8466 C   0  0  0  0  0  0  0  0  0  0  0  0
   -1.4000   31.2104    9.0907 C   0  0  0  0  0  0  0  0  0  0  0  0
   -2.0306   32.0176   10.0411 C   0  0  0  0  0  0  0  0  0  0  0  0
   -3.2595   32.6037    9.7570 C   0  0  0  0  0  0  0  0  0  0  0  0
   -3.8615   32.3842    8.5199 C   0  0  0  0  0  0  0  0  0  0  0  0
   -3.2414   31.5731    7.5530 C   0  0  0  0  0  0  0  0  0  0  0  0
   -1.4509   30.2129    6.8507 O   0  0  0  0  0  0  0  0  0  0  0  0
   -0.8992   28.9447    7.2185 C   0  0  0  0  0  0  0  0  0  0  0  0
    1.3049   29.3915    7.9314 F   0  0  0  0  0  0  0  0  0  0  0  0
    0.5826   28.9271    6.8788 C   0  0  0  0  0  0  0  0  0  0  0  0
    0.8218   29.7774    5.8466 F   0  0  0  0  0  0  0  0  0  0  0  0
   -5.7031   29.7208    5.8854 C   0  0  0  0  0  0  0  0  0  0  0  0
   -6.1728   29.3340    4.4727 C   0  0  0  0  0  0  0  0  0  0  0  0
   -6.0562   27.8562    4.1747 C   0  0  0  0  0  0  0  0  0  0  0  0
   -6.2114   26.9113    5.1959 C   0  0  0  0  0  0  0  0  0  0  0  0
   -6.1136   25.5378    4.9466 C   0  0  0  0  0  0  0  0  0  0  0  0
   -5.8551   25.1353    3.6326 C   0  0  0  0  0  0  0  0  0  0  0  0
   -5.7112   23.8739    3.1005 N   0  0  0  0  0  0  0  0  0  0  0  0
   -5.4662   23.9524    1.7549 C   0  0  0  0  0  0  0  0  0  0  0  0
   -5.4524   25.2842    1.4077 C   0  0  0  0  0  0  0  0  0  0  0  0
   -5.6974   26.0425    2.5862 C   0  0  0  0  0  0  0  0  0  0  0  0
   -5.8013   27.4207    2.8613 C   0  0  0  0  0  0  0  0  0  0  0  0
   -5.7790   23.0181    3.6331 H   0  0  0  0  0  0  0  0  0  0  0  0
 12 13  1  0  0  0
 13 14  1  0  0  0
 13 11  1  0  0  0
 11 10  1  0  0  0
 10  4  1  0  0  0
  4  5  2  0  0  0
  5  6  1  0  0  0
  6  7  2  0  0  0
  7  8  1  0  0  0
  8  9  2  0  0  0
  9  3  1  0  0  0
  3  1  1  0  0  0
  1 15  1  0  0  0
 15 16  1  0  0  0
 16 17  1  0  0  0
 17 18  2  0  0  0
 18 19  1  0  0  0
 19 20  2  0  0  0
 20 21  1  0  0  0
 21 22  1  0  0  0
 22 23  2  0  0  0
 23 24  1  0  0  0
 24 25  2  0  0  0
  9  4  1  0  0  0
 25 17  1  0  0  0
 24 20  1  0  0  0
  1  2  1  0  0  0
 21 26  1  0  0  0
M  END
> <minimizedAffinity>
-9.20807

$$$$
OCNT-2315035


 35 39  0  0  0  0  0  0  0  0999 V2000
   -5.2174   25.7874    4.2662 C   0  0  0  0  0  0  0  0  0  0  0  0
   -4.6041   24.9270    4.9144 O   0  0  0  0  0  0  0  0  0  0  0  0
   -5.2880   27.0881    4.7292 N   0  0  0  0  0  0  0  0  0  0  0  0
   -5.6202   28.2641    3.9321 C   0  0  0  0  0  0  0  0  0  0  0  0
   -6.6566   29.1355    4.6332 C   0  0  0  0  0  0  0  0  0  0  0  0
   -6.2999   29.3962    6.0727 C   0  0  0  0  0  0  0  0  0  0  0  0
   -6.9358   30.4436    6.7564 C   0  0  0  0  0  0  0  0  0  0  0  0
   -6.6681   30.6753    8.1034 C   0  0  0  0  0  0  0  0  0  0  0  0
   -5.7726   29.8565    8.7824 C   0  0  0  0  0  0  0  0  0  0  0  0
   -5.1446   28.8047    8.1154 C   0  0  0  0  0  0  0  0  0  0  0  0
   -5.3949   28.5612    6.7532 C   0  0  0  0  0  0  0  0  0  0  0  0
   -4.7010   27.3919    6.0596 C   0  0  0  0  0  0  0  0  0  0  0  0
   -7.6770   23.7054   -0.0879 C   0  0  0  0  0  0  0  0  0  0  0  0
   -6.3619   23.7145    0.5505 N   0  0  0  0  0  0  0  0  0  0  0  0
   -5.7532   25.0509    0.4948 C   0  0  0  0  0  0  0  0  0  0  0  0
   -4.9455   25.4142    1.7413 C   0  0  0  0  0  0  0  0  0  0  0  0
   -5.8720   25.3523    2.9558 C   0  0  0  0  0  0  0  0  0  0  0  0
   -6.6755   24.0484    3.0382 C   0  0  0  0  0  0  0  0  0  0  0  0
   -6.3833   23.0941    1.8765 C   0  0  0  0  0  0  0  0  0  0  0  0
   -3.1618   27.6134    5.9787 C   0  0  0  0  0  0  0  0  0  0  0  0
   -2.7669   28.9879    6.2416 N   0  0  0  0  0  0  0  0  0  0  0  0
   -1.4957   29.3227    6.6537 C   0  0  0  0  0  0  0  0  0  0  0  0
   -0.6203   28.4826    6.8410 O   0  0  0  0  0  0  0  0  0  0  0  0
   -3.4312   29.7231    5.9923 H   0  0  0  0  0  0  0  0  0  0  0  0
   -1.2913   30.8227    6.7973 C   0  0  0  0  0  0  0  0  0  0  0  0
   -1.8929   31.4156    8.0549 C   0  0  0  0  0  0  0  0  0  0  0  0
   -1.2870   31.0967    9.2856 C   0  0  0  0  0  0  0  0  0  0  0  0
   -1.7795   31.6161   10.4776 C   0  0  0  0  0  0  0  0  0  0  0  0
   -2.8881   32.4586   10.4590 C   0  0  0  0  0  0  0  0  0  0  0  0
   -3.5210   32.7929    9.2515 C   0  0  0  0  0  0  0  0  0  0  0  0
   -4.6409   33.6432    9.2577 C   0  0  0  0  0  0  0  0  0  0  0  0
   -5.2877   33.9906    8.0714 C   0  0  0  0  0  0  0  0  0  0  0  0
   -4.8229   33.4881    6.8630 C   0  0  0  0  0  0  0  0  0  0  0  0
   -3.7112   32.6402    6.8405 C   0  0  0  0  0  0  0  0  0  0  0  0
   -3.0307   32.2714    8.0261 C   0  0  0  0  0  0  0  0  0  0  0  0
 13 14  1  0  0  0
 14 15  1  0  0  0
 15 16  1  0  0  0
 16 17  1  0  0  0
 17  1  1  0  0  0
  1  2  2  0  0  0
  1  3  1  0  0  0
  3  4  1  0  0  0
  4  5  1  0  0  0
  5  6  1  0  0  0
  6  7  2  0  0  0
  7  8  1  0  0  0
  8  9  2  0  0  0
  9 10  1  0  0  0
 10 11  2  0  0  0
 11 12  1  0  0  0
 12 20  1  0  0  0
 20 21  1  0  0  0
 21 22  1  0  0  0
 22 23  2  0  0  0
 22 25  1  0  0  0
 25 26  1  0  0  0
 26 27  2  0  0  0
 27 28  1  0  0  0
 28 29  2  0  0  0
 29 30  1  0  0  0
 30 31  2  0  0  0
 31 32  1  0  0  0
 32 33  2  0  0  0
 33 34  1  0  0  0
 34 35  2  0  0  0
 17 18  1  0  0  0
 18 19  1  0  0  0
 19 14  1  0  0  0
 12  3  1  0  0  0
 35 26  1  0  0  0
 11  6  1  0  0  0
 35 30  1  0  0  0
 21 24  1  0  0  0
M  END
> <minimizedAffinity>
-10.29003

$$$$
OCNT-2315045


 24 26  0  0  0  0  0  0  0  0999 V2000
   -2.2988   28.9777    6.9078 C   0  0  0  0  0  0  0  0  0  0  0  0
   -3.1251   30.0320    7.5508 N   0  0  0  0  0  0  0  0  0  0  0  0
   -3.7814   29.7249    8.8250 C   0  0  0  0  0  0  0  0  0  0  0  0
   -4.8128   30.7627    9.2369 C   0  0  0  0  0  0  0  0  0  0  0  0
   -4.1674   32.1344    9.2252 C   0  0  0  0  0  0  0  0  0  0  0  0
   -3.6655   32.4418    7.8285 C   0  0  0  0  0  0  0  0  0  0  0  0
   -2.8035   31.3490    7.2261 C   0  0  0  0  0  0  0  0  0  0  0  0
   -1.9309   31.6368    6.4063 O   0  0  0  0  0  0  0  0  0  0  0  0
   -3.1614   27.9957    6.1762 C   0  0  0  0  0  0  0  0  0  0  0  0
   -4.4247   28.0769    5.8133 N   0  0  0  0  0  0  0  0  0  0  0  0
   -4.6375   26.8512    5.2320 C   0  0  0  0  0  0  0  0  0  0  0  0
   -3.5628   26.0502    5.1969 N   0  0  0  0  0  0  0  0  0  0  0  0
   -2.5773   26.8097    5.8301 O   0  0  0  0  0  0  0  0  0  0  0  0
   -5.9586   26.4405    4.6815 C   0  0  0  0  0  0  0  0  0  0  0  0
   -5.8384   25.6292    3.4331 C   0  0  0  0  0  0  0  0  0  0  0  0
   -5.6071   26.0245    2.1304 C   0  0  0  0  0  0  0  0  0  0  0  0
   -5.5653   24.9477    1.2865 N   0  0  0  0  0  0  0  0  0  0  0  0
   -5.7803   23.9019    2.0501 C   0  0  0  0  0  0  0  0  0  0  0  0
   -5.9515   24.2605    3.3578 N   0  0  0  0  0  0  0  0  0  0  0  0
   -6.2171   23.3377    4.4345 C   0  0  0  0  0  0  0  0  0  0  0  0
   -1.3667   28.2879    7.9291 C   0  0  0  0  0  0  0  0  0  0  0  0
    0.5723   29.2458    6.5659 C   0  0  0  0  0  0  0  0  0  0  0  0
    0.0887   28.8053    7.9482 C   0  0  0  0  0  0  0  0  0  0  0  0
    0.2048   29.9750    8.9302 C   0  0  0  0  0  0  0  0  0  0  0  0
 22 23  1  0  0  0
 23 24  1  0  0  0
 23 21  1  0  0  0
 21  1  1  0  0  0
  1  9  1  0  0  0
  9 10  2  0  0  0
 10 11  1  0  0  0
 11 14  1  0  0  0
 14 15  1  0  0  0
 15 16  2  0  0  0
 16 17  1  0  0  0
 17 18  2  0  0  0
 18 19  1  0  0  0
 19 20  1  0  0  0
 11 12  2  0  0  0
 12 13  1  0  0  0
  1  2  1  0  0  0
  2  3  1  0  0  0
  3  4  1  0  0  0
  4  5  1  0  0  0
  5  6  1  0  0  0
  6  7  1  0  0  0
  7  8  2  0  0  0
 13  9  1  0  0  0
  7  2  1  0  0  0
 19 15  1  0  0  0
M  END
> <minimizedAffinity>
-8.04987

$$$$
OCNT-2315056


 28 31  0  0  0  0  0  0  0  0999 V2000
   -5.6412   28.6712    6.2106 C   0  0  0  0  0  0  0  0  0  0  0  0
   -6.6556   29.2929    6.5464 O   0  0  0  0  0  0  0  0  0  0  0  0
   -4.4165   28.9726    6.8355 N   0  0  0  0  0  0  0  0  0  0  0  0
   -3.1288   28.4627    6.3624 C   0  0  0  0  0  0  0  0  0  0  0  0
   -1.9120   28.8985    7.1482 C   0  0  0  0  0  0  0  0  0  0  0  0
   -0.6405   28.4916    6.7134 C   0  0  0  0  0  0  0  0  0  0  0  0
    0.5044   28.8522    7.4239 C   0  0  0  0  0  0  0  0  0  0  0  0
    0.3921   29.6188    8.5803 C   0  0  0  0  0  0  0  0  0  0  0  0
   -0.8641   30.0298    9.0237 C   0  0  0  0  0  0  0  0  0  0  0  0
   -2.0169   29.6834    8.3056 C   0  0  0  0  0  0  0  0  0  0  0  0
   -3.3734   30.1096    8.7928 C   0  0  0  0  0  0  0  0  0  0  0  0
   -4.3931   30.1932    7.6536 C   0  0  0  0  0  0  0  0  0  0  0  0
   -6.0060   23.9859    0.3819 C   0  0  0  0  0  0  0  0  0  0  0  0
   -6.0083   24.5482    1.7798 C   0  0  0  0  0  0  0  0  0  0  0  0
   -5.8050   25.9347    1.9515 C   0  0  0  0  0  0  0  0  0  0  0  0
   -5.8021   26.4772    3.2473 C   0  0  0  0  0  0  0  0  0  0  0  0
   -6.0010   25.6257    4.3204 C   0  0  0  0  0  0  0  0  0  0  0  0
   -6.2070   24.2544    4.2023 C   0  0  0  0  0  0  0  0  0  0  0  0
   -6.2111   23.7133    2.9025 C   0  0  0  0  0  0  0  0  0  0  0  0
   -6.4274   22.2310    2.7408 C   0  0  0  0  0  0  0  0  0  0  0  0
   -5.9655   26.3202    5.4886 O   0  0  0  0  0  0  0  0  0  0  0  0
   -5.7415   27.6360    5.1878 C   0  0  0  0  0  0  0  0  0  0  0  0
   -5.6361   27.7668    3.8106 C   0  0  0  0  0  0  0  0  0  0  0  0
   -4.1668   31.4451    6.7738 C   0  0  0  0  0  0  0  0  0  0  0  0
   -4.3895   31.2748    5.4324 N   0  0  0  0  0  0  0  0  0  0  0  0
   -3.8267   32.5470    7.1963 O   0  0  0  0  0  0  0  0  0  0  0  0
   -4.2689   30.3632    5.0117 H   0  0  0  0  0  0  0  0  0  0  0  0
   -4.1276   32.0696    4.8612 H   0  0  0  0  0  0  0  0  0  0  0  0
 13 14  1  0  0  0
 14 15  1  0  0  0
 15 16  2  0  0  0
 16 17  1  0  0  0
 17 18  2  0  0  0
 18 19  1  0  0  0
 19 20  1  0  0  0
 17 21  1  0  0  0
 21 22  1  0  0  0
 22  1  1  0  0  0
  1  2  2  0  0  0
  1  3  1  0  0  0
  3  4  1  0  0  0
  4  5  1  0  0  0
  5  6  2  0  0  0
  6  7  1  0  0  0
  7  8  2  0  0  0
  8  9  1  0  0  0
  9 10  2  0  0  0
 10 11  1  0  0  0
 11 12  1  0  0  0
 12 24  1  0  0  0
 24 25  1  0  0  0
 24 26  2  0  0  0
 22 23  2  0  0  0
 19 14  2  0  0  0
 12  3  1  0  0  0
 23 16  1  0  0  0
 10  5  1  0  0  0
 25 27  1  0  0  0
 25 28  1  0  0  0
M  END
> <minimizedAffinity>
-11.33279

$$$$
OCNT-2315064


 26 29  0  0  0  0  0  0  0  0999 V2000
   -4.3596   25.0764    3.9036 C   0  0  0  0  0  0  0  0  0  0  0  0
   -3.3815   26.2413    4.1036 C   0  0  0  0  0  0  0  0  0  0  0  0
   -3.8072   27.1358    5.2585 C   0  0  0  0  0  0  0  0  0  0  0  0
   -5.1526   27.6867    5.0524 N   0  0  0  0  0  0  0  0  0  0  0  0
   -5.5456   28.9674    5.4432 C   0  0  0  0  0  0  0  0  0  0  0  0
   -6.5427   29.5317    4.9988 O   0  0  0  0  0  0  0  0  0  0  0  0
   -6.0268   26.9682    4.1262 C   0  0  0  0  0  0  0  0  0  0  0  0
   -5.8119   25.4631    4.2086 C   0  0  0  0  0  0  0  0  0  0  0  0
   -4.7380   29.7074    6.4301 C   0  0  0  0  0  0  0  0  0  0  0  0
   -4.9953   29.4951    7.7860 C   0  0  0  0  0  0  0  0  0  0  0  0
   -4.3423   30.0924    8.8205 N   0  0  0  0  0  0  0  0  0  0  0  0
   -3.3654   30.9180    8.3908 C   0  0  0  0  0  0  0  0  0  0  0  0
   -2.9955   31.1911    7.0801 C   0  0  0  0  0  0  0  0  0  0  0  0
   -3.6942   30.5587    6.0464 C   0  0  0  0  0  0  0  0  0  0  0  0
   -1.9555   32.0816    7.0753 N   0  0  0  0  0  0  0  0  0  0  0  0
   -1.6625   32.3807    8.3387 N   0  0  0  0  0  0  0  0  0  0  0  0
   -2.5006   31.6752    9.1280 N   0  0  0  0  0  0  0  0  0  0  0  0
   -2.4115   31.7764   10.5580 C   0  0  0  0  0  0  0  0  0  0  0  0
   -4.2649   24.6796    2.5229 O   0  0  0  0  0  0  0  0  0  0  0  0
   -6.1685   24.6587    0.3952 C   0  0  0  0  0  0  0  0  0  0  0  0
   -5.8663   23.4675    1.2456 C   0  0  0  0  0  0  0  0  0  0  0  0
   -6.5032   22.2526    1.0254 C   0  0  0  0  0  0  0  0  0  0  0  0
   -6.2757   21.1311    1.7459 N   0  0  0  0  0  0  0  0  0  0  0  0
   -5.3727   21.2218    2.7467 C   0  0  0  0  0  0  0  0  0  0  0  0
   -4.6685   22.3735    3.0425 C   0  0  0  0  0  0  0  0  0  0  0  0
   -4.9066   23.4990    2.2586 C   0  0  0  0  0  0  0  0  0  0  0  0
 20 21  1  0  0  0
 21 22  2  0  0  0
 22 23  1  0  0  0
 23 24  2  0  0  0
 24 25  1  0  0  0
 25 26  2  0  0  0
 26 19  1  0  0  0
 19  1  1  0  0  0
  1  2  1  0  0  0
  2  3  1  0  0  0
  3  4  1  0  0  0
  4  5  1  0  0  0
  5  6  2  0  0  0
  5  9  1  0  0  0
  9 10  2  0  0  0
 10 11  1  0  0  0
 11 12  2  0  0  0
 12 13  1  0  0  0
 13 14  2  0  0  0
 13 15  1  0  0  0
 15 16  2  0  0  0
 16 17  1  0  0  0
 17 18  1  0  0  0
  4  7  1  0  0  0
  7  8  1  0  0  0
 26 21  1  0  0  0
  8  1  1  0  0  0
 14  9  1  0  0  0
 17 12  1  0  0  0
M  END
> <minimizedAffinity>
-8.80152

$$$$
OCNT-2315065


 23 25  0  0  0  0  0  0  0  0999 V2000
   -4.0436   26.3950    4.9238 O   0  0  0  0  0  0  0  0  0  0  0  0
   -4.9036   27.1587    4.4860 C   0  0  0  0  0  0  0  0  0  0  0  0
   -5.3226   28.2667    5.1957 N   0  0  0  0  0  0  0  0  0  0  0  0
   -6.5140   29.0558    4.9189 C   0  0  0  0  0  0  0  0  0  0  0  0
   -6.8991   29.6396    6.2682 C   0  0  0  0  0  0  0  0  0  0  0  0
   -5.5501   29.8504    6.9385 C   0  0  0  0  0  0  0  0  0  0  0  0
   -4.7365   28.6234    6.4951 C   0  0  0  0  0  0  0  0  0  0  0  0
   -5.5926   26.9170    3.1514 C   0  0  0  0  0  0  0  0  0  0  0  0
   -4.8733   25.8804    2.2860 C   0  0  0  0  0  0  0  0  0  0  0  0
   -5.8272   25.0217    1.4815 C   0  0  0  0  0  0  0  0  0  0  0  0
   -6.1343   25.4039    0.1640 C   0  0  0  0  0  0  0  0  0  0  0  0
   -7.0187   24.6550   -0.6145 C   0  0  0  0  0  0  0  0  0  0  0  0
   -7.6128   23.5114   -0.0894 C   0  0  0  0  0  0  0  0  0  0  0  0
   -7.3236   23.1183    1.2165 C   0  0  0  0  0  0  0  0  0  0  0  0
   -6.4389   23.8676    1.9992 C   0  0  0  0  0  0  0  0  0  0  0  0
   -6.1403   23.3186    3.6110 Cl  0  0  0  0  0  0  0  0  0  0  0  0
   -3.2183   28.9307    6.4338 C   0  0  0  0  0  0  0  0  0  0  0  0
   -2.5930   29.1041    7.7600 N   0  0  0  0  0  0  0  0  0  0  0  0
   -2.0533   30.4762    7.8946 C   0  0  0  0  0  0  0  0  0  0  0  0
   -0.9776   30.5597    8.9870 C   0  0  0  0  0  0  0  0  0  0  0  0
    0.1821   29.7715    8.6848 O   0  0  0  0  0  0  0  0  0  0  0  0
   -0.1066   28.6516    7.8368 C   0  0  0  0  0  0  0  0  0  0  0  0
   -1.5318   28.1050    8.0241 C   0  0  0  0  0  0  0  0  0  0  0  0
  1  2  2  0  0  0
  2  8  1  0  0  0
  8  9  1  0  0  0
  9 10  1  0  0  0
 10 11  2  0  0  0
 11 12  1  0  0  0
 12 13  2  0  0  0
 13 14  1  0  0  0
 14 15  2  0  0  0
 15 16  1  0  0  0
  2  3  1  0  0  0
  3  4  1  0  0  0
  4  5  1  0  0  0
  5  6  1  0  0  0
  6  7  1  0  0  0
  7 17  1  0  0  0
 17 18  1  0  0  0
 18 19  1  0  0  0
 19 20  1  0  0  0
 20 21  1  0  0  0
 21 22  1  0  0  0
 22 23  1  0  0  0
 15 10  1  0  0  0
  7  3  1  0  0  0
 23 18  1  0  0  0
M  END
> <minimizedAffinity>
-8.67294

$$$$
OCNT-2315079


 28 30  0  0  0  0  0  0  0  0999 V2000
   -3.4252   26.8101    3.7562 N   0  0  0  0  0  0  0  0  0  0  0  0
   -3.0563   26.5086    5.0409 C   0  0  0  0  0  0  0  0  0  0  0  0
   -3.5944   25.6654    5.7431 O   0  0  0  0  0  0  0  0  0  0  0  0
   -1.9907   27.2752    5.4343 N   0  0  0  0  0  0  0  0  0  0  0  0
   -3.2237   27.7565    3.4707 H   0  0  0  0  0  0  0  0  0  0  0  0
   -1.3704   27.5266    4.6787 H   0  0  0  0  0  0  0  0  0  0  0  0
   -4.5732   26.1663    3.1250 C   0  0  0  0  0  0  0  0  0  0  0  0
   -5.7048   27.1807    2.9402 C   0  0  0  0  0  0  0  0  0  0  0  0
   -4.2074   25.5203    1.7580 C   0  0  0  0  0  0  0  0  0  0  0  0
   -7.7959   22.8259   -0.3950 C   0  0  0  0  0  0  0  0  0  0  0  0
   -6.3615   22.8475    0.1364 C   0  0  0  0  0  0  0  0  0  0  0  0
   -6.1207   21.6991    1.1342 C   0  0  0  0  0  0  0  0  0  0  0  0
   -5.8645   22.2168    2.5439 C   0  0  0  0  0  0  0  0  0  0  0  0
   -4.7318   23.2493    2.5637 C   0  0  0  0  0  0  0  0  0  0  0  0
   -4.7632   24.1935    1.4438 N   0  0  0  0  0  0  0  0  0  0  0  0
   -6.0416   24.2302    0.7374 C   0  0  0  0  0  0  0  0  0  0  0  0
   -1.3635   27.0051    6.7062 C   0  0  0  0  0  0  0  0  0  0  0  0
   -1.1670   28.2825    7.4736 C   0  0  0  0  0  0  0  0  0  0  0  0
    0.0862   28.6199    7.9905 C   0  0  0  0  0  0  0  0  0  0  0  0
    0.2099   29.7866    8.7267 C   0  0  0  0  0  0  0  0  0  0  0  0
   -0.8166   30.6239    8.9877 N   0  0  0  0  0  0  0  0  0  0  0  0
   -2.0375   30.2843    8.4896 C   0  0  0  0  0  0  0  0  0  0  0  0
   -2.2497   29.1307    7.7353 C   0  0  0  0  0  0  0  0  0  0  0  0
   -3.1435   31.1449    8.7633 N   0  0  0  0  0  0  0  0  0  0  0  0
   -3.0877   32.5114    8.9456 C   0  0  0  0  0  0  0  0  0  0  0  0
   -4.3713   32.9425    9.1773 C   0  0  0  0  0  0  0  0  0  0  0  0
   -5.1478   31.7754    9.1239 C   0  0  0  0  0  0  0  0  0  0  0  0
   -4.4212   30.6816    8.8841 N   0  0  0  0  0  0  0  0  0  0  0  0
 10 11  1  0  0  0
 11 12  1  0  0  0
 12 13  1  0  0  0
 13 14  1  0  0  0
 14 15  1  0  0  0
 15  9  1  0  0  0
  9  7  1  0  0  0
  7  8  1  0  0  0
  7  1  1  0  0  0
  1  2  1  0  0  0
  2  3  2  0  0  0
  2  4  1  0  0  0
  4 17  1  0  0  0
 17 18  1  0  0  0
 18 19  2  0  0  0
 19 20  1  0  0  0
 20 21  2  0  0  0
 21 22  1  0  0  0
 22 24  1  0  0  0
 24 25  1  0  0  0
 25 26  2  0  0  0
 26 27  1  0  0  0
 27 28  2  0  0  0
 22 23  2  0  0  0
 15 16  1  0  0  0
 16 11  1  0  0  0
 23 18  1  0  0  0
 28 24  1  0  0  0
  1  5  1  0  0  0
  4  6  1  0  0  0
M  END
> <minimizedAffinity>
-9.43762

$$$$
OCNT-2315085


 23 25  0  0  0  0  0  0  0  0999 V2000
   -4.5752   32.1383    7.3517 C   0  0  0  0  0  0  0  0  0  0  0  0
   -4.1798   30.7308    7.3502 N   0  0  0  0  0  0  0  0  0  0  0  0
   -4.7731   30.0944    6.1510 C   0  0  0  0  0  0  0  0  0  0  0  0
   -4.5324   28.5846    6.0973 C   0  0  0  0  0  0  0  0  0  0  0  0
   -3.1113   28.2634    6.1767 N   0  0  0  0  0  0  0  0  0  0  0  0
   -2.5936   27.0056    5.7896 C   0  0  0  0  0  0  0  0  0  0  0  0
   -1.5804   26.5678    6.3457 O   0  0  0  0  0  0  0  0  0  0  0  0
   -2.4094   28.9505    7.2640 C   0  0  0  0  0  0  0  0  0  0  0  0
   -2.6974   30.4919    7.3795 C   0  0  0  0  0  0  0  0  0  0  0  0
   -3.2391   26.2480    4.7261 C   0  0  0  0  0  0  0  0  0  0  0  0
   -3.0504   26.3252    3.4245 N   0  0  0  0  0  0  0  0  0  0  0  0
   -3.8699   25.3758    2.8498 N   0  0  0  0  0  0  0  0  0  0  0  0
   -4.4928   24.7579    3.8357 C   0  0  0  0  0  0  0  0  0  0  0  0
   -4.1350   25.2622    5.0624 O   0  0  0  0  0  0  0  0  0  0  0  0
   -5.5214   23.5886    3.6466 C   0  0  0  0  0  0  0  0  0  0  0  0
   -5.2254   22.4688    2.8946 C   0  0  0  0  0  0  0  0  0  0  0  0
   -6.5645   21.3959    2.8970 S   0  0  0  0  0  0  0  0  0  0  0  0
   -7.4217   22.5009    3.8908 C   0  0  0  0  0  0  0  0  0  0  0  0
   -6.7839   23.6025    4.2179 N   0  0  0  0  0  0  0  0  0  0  0  0
   -1.8898   31.1181    8.6090 C   0  0  0  0  0  0  0  0  0  0  0  0
   -2.7444   31.1551    9.8910 C   0  0  0  0  0  0  0  0  0  0  0  0
   -0.6179   30.2867    8.9257 C   0  0  0  0  0  0  0  0  0  0  0  0
   -1.3696   32.5431    8.3031 C   0  0  0  0  0  0  0  0  0  0  0  0
  1  2  1  0  0  0
  2  3  1  0  0  0
  3  4  1  0  0  0
  4  5  1  0  0  0
  5  6  1  0  0  0
  6  7  2  0  0  0
  6 10  1  0  0  0
 10 11  2  0  0  0
 11 12  1  0  0  0
 12 13  2  0  0  0
 13 15  1  0  0  0
 15 16  2  0  0  0
 16 17  1  0  0  0
 17 18  1  0  0  0
 18 19  2  0  0  0
 13 14  1  0  0  0
  5  8  1  0  0  0
  8  9  1  0  0  0
  9 20  1  0  0  0
 20 21  1  0  0  0
 20 22  1  0  0  0
 20 23  1  0  0  0
  9  2  1  0  0  0
 14 10  1  0  0  0
 19 15  1  0  0  0
M  END
> <minimizedAffinity>
-7.83844

$$$$
OCNT-2315097


 23 26  0  0  0  0  0  0  0  0999 V2000
   -2.3131   27.2714    5.8400 N   0  0  0  0  0  0  0  0  0  0  0  0
   -3.7276   27.1136    5.4772 C   0  0  0  0  0  0  0  0  0  0  0  0
   -4.1554   25.6791    5.1739 C   0  0  0  0  0  0  0  0  0  0  0  0
   -3.2723   25.0110    4.1052 C   0  0  0  0  0  0  0  0  0  0  0  0
   -1.9852   25.8014    3.8390 C   0  0  0  0  0  0  0  0  0  0  0  0
   -1.4188   26.3137    5.1620 C   0  0  0  0  0  0  0  0  0  0  0  0
   -4.0239   24.6541    2.8457 C   0  0  0  0  0  0  0  0  0  0  0  0
   -4.1981   25.5080    1.7704 C   0  0  0  0  0  0  0  0  0  0  0  0
   -4.9116   24.8569    0.8043 N   0  0  0  0  0  0  0  0  0  0  0  0
   -5.2148   23.5822    1.2159 C   0  0  0  0  0  0  0  0  0  0  0  0
   -5.9219   22.5717    0.5516 C   0  0  0  0  0  0  0  0  0  0  0  0
   -6.0895   21.3530    1.2122 C   0  0  0  0  0  0  0  0  0  0  0  0
   -5.5706   21.1568    2.4876 C   0  0  0  0  0  0  0  0  0  0  0  0
   -4.8660   22.1788    3.1360 C   0  0  0  0  0  0  0  0  0  0  0  0
   -4.6764   23.4217    2.4949 C   0  0  0  0  0  0  0  0  0  0  0  0
   -5.1798   25.2494   -0.0872 H   0  0  0  0  0  0  0  0  0  0  0  0
   -2.1209   27.2336    7.3036 C   0  0  0  0  0  0  0  0  0  0  0  0
   -3.1012   29.8088    8.6792 C   0  0  0  0  0  0  0  0  0  0  0  0
   -1.7192   29.4757    8.4357 N   0  0  0  0  0  0  0  0  0  0  0  0
   -0.6453   30.2535    8.7697 C   0  0  0  0  0  0  0  0  0  0  0  0
    0.4524   29.5537    8.3327 C   0  0  0  0  0  0  0  0  0  0  0  0
    0.0751   28.3753    7.7465 N   0  0  0  0  0  0  0  0  0  0  0  0
   -1.2445   28.3417    7.8163 C   0  0  0  0  0  0  0  0  0  0  0  0
 18 19  1  0  0  0
 19 20  1  0  0  0
 20 21  2  0  0  0
 21 22  1  0  0  0
 22 23  2  0  0  0
 23 17  1  0  0  0
 17  1  1  0  0  0
  1  2  1  0  0  0
  2  3  1  0  0  0
  3  4  1  0  0  0
  4  7  1  0  0  0
  7  8  2  0  0  0
  8  9  1  0  0  0
  9 10  1  0  0  0
 10 11  2  0  0  0
 11 12  1  0  0  0
 12 13  2  0  0  0
 13 14  1  0  0  0
 14 15  2  0  0  0
  4  5  1  0  0  0
  5  6  1  0  0  0
 23 19  1  0  0  0
  6  1  1  0  0  0
 15  7  1  0  0  0
 15 10  1  0  0  0
  9 16  1  0  0  0
M  END
> <minimizedAffinity>
-8.95639

$$$$
OCNT-2315100


 28 31  0  0  0  0  0  0  0  0999 V2000
   -1.0468   28.8264    7.1589 C   0  0  0  0  0  0  0  0  0  0  0  0
    0.2717   28.4955    7.4556 C   0  0  0  0  0  0  0  0  0  0  0  0
    0.9512   29.2204    8.4299 C   0  0  0  0  0  0  0  0  0  0  0  0
    0.2847   30.2503    9.0705 C   0  0  0  0  0  0  0  0  0  0  0  0
   -0.9951   30.5976    8.8142 N   0  0  0  0  0  0  0  0  0  0  0  0
   -1.6540   29.8903    7.8691 C   0  0  0  0  0  0  0  0  0  0  0  0
   -3.0226   30.1776    7.5902 N   0  0  0  0  0  0  0  0  0  0  0  0
   -3.2585   31.6307    7.5134 C   0  0  0  0  0  0  0  0  0  0  0  0
   -4.7613   31.8955    7.5223 C   0  0  0  0  0  0  0  0  0  0  0  0
   -5.3809   31.4687    8.8680 C   0  0  0  0  0  0  0  0  0  0  0  0
   -4.5663   30.3493    9.5408 C   0  0  0  0  0  0  0  0  0  0  0  0
   -3.8978   29.4314    8.5189 C   0  0  0  0  0  0  0  0  0  0  0  0
   -6.8497   31.0685    8.6923 C   0  0  0  0  0  0  0  0  0  0  0  0
   -7.2524   31.2287    7.3388 O   0  0  0  0  0  0  0  0  0  0  0  0
   -7.1511   32.1692    7.1109 H   0  0  0  0  0  0  0  0  0  0  0  0
   -2.3605   26.9208    6.1804 C   0  0  0  0  0  0  0  0  0  0  0  0
   -2.2574   26.1153    7.0987 O   0  0  0  0  0  0  0  0  0  0  0  0
   -1.8285   28.1864    6.1726 N   0  0  0  0  0  0  0  0  0  0  0  0
   -1.9709   28.7691    5.3480 H   0  0  0  0  0  0  0  0  0  0  0  0
   -5.4255   27.6135    5.4226 C   0  0  0  0  0  0  0  0  0  0  0  0
   -4.4039   26.8644    4.6343 C   0  0  0  0  0  0  0  0  0  0  0  0
   -3.1155   26.5668    4.9317 C   0  0  0  0  0  0  0  0  0  0  0  0
   -2.2973   25.6345    3.6447 S   0  0  0  0  0  0  0  0  0  0  0  0
   -3.7614   25.6782    2.7290 C   0  0  0  0  0  0  0  0  0  0  0  0
   -4.1274   25.2131    1.5675 N   0  0  0  0  0  0  0  0  0  0  0  0
   -5.4438   25.6165    1.4690 C   0  0  0  0  0  0  0  0  0  0  0  0
   -5.8460   26.3264    2.5882 C   0  0  0  0  0  0  0  0  0  0  0  0
   -4.7417   26.3521    3.3905 N   0  0  0  0  0  0  0  0  0  0  0  0
 20 21  1  0  0  0
 21 22  2  0  0  0
 22 16  1  0  0  0
 16 17  2  0  0  0
 16 18  1  0  0  0
 18  1  1  0  0  0
  1  2  1  0  0  0
  2  3  2  0  0  0
  3  4  1  0  0  0
  4  5  2  0  0  0
  5  6  1  0  0  0
  6  7  1  0  0  0
  7  8  1  0  0  0
  8  9  1  0  0  0
  9 10  1  0  0  0
 10 13  1  0  0  0
 13 14  1  0  0  0
 10 11  1  0  0  0
 11 12  1  0  0  0
 22 23  1  0  0  0
 23 24  1  0  0  0
 24 25  2  0  0  0
 25 26  1  0  0  0
 26 27  2  0  0  0
 27 28  1  0  0  0
 28 21  1  0  0  0
  6  1  2  0  0  0
 12  7  1  0  0  0
 28 24  1  0  0  0
 18 19  1  0  0  0
 14 15  1  0  0  0
M  END
> <minimizedAffinity>
-8.50868

$$$$
OCNT-2315105


 25 28  0  0  0  0  0  0  0  0999 V2000
   -1.3639   26.3545    5.8718 O   0  0  0  0  0  0  0  0  0  0  0  0
   -2.2563   27.1965    5.8316 C   0  0  0  0  0  0  0  0  0  0  0  0
   -3.3244   27.0981    4.9834 N   0  0  0  0  0  0  0  0  0  0  0  0
   -2.2392   28.3204    6.6114 N   0  0  0  0  0  0  0  0  0  0  0  0
   -1.1308   28.5457    7.5363 C   0  0  0  0  0  0  0  0  0  0  0  0
   -1.4169   29.8968    8.1089 C   0  0  0  0  0  0  0  0  0  0  0  0
   -0.7034   30.6015    9.0632 C   0  0  0  0  0  0  0  0  0  0  0  0
   -1.1700   31.8639    9.4369 C   0  0  0  0  0  0  0  0  0  0  0  0
   -2.3312   32.4000    8.8563 C   0  0  0  0  0  0  0  0  0  0  0  0
   -3.0439   31.6818    7.8932 C   0  0  0  0  0  0  0  0  0  0  0  0
   -2.5743   30.4310    7.5305 C   0  0  0  0  0  0  0  0  0  0  0  0
   -3.1411   29.4706    6.5364 C   0  0  0  0  0  0  0  0  0  0  0  0
   -4.1544   27.6131    5.2298 H   0  0  0  0  0  0  0  0  0  0  0  0
   -3.4873   25.9843    4.0770 C   0  0  0  0  0  0  0  0  0  0  0  0
   -4.9502   25.7306    3.8330 C   0  0  0  0  0  0  0  0  0  0  0  0
   -5.8049   25.4548    5.0396 C   0  0  0  0  0  0  0  0  0  0  0  0
   -6.4584   24.1664    4.7379 N   0  0  0  0  0  0  0  0  0  0  0  0
   -6.5731   24.0296    3.2751 C   0  0  0  0  0  0  0  0  0  0  0  0
   -5.4513   24.8468    2.7192 C   0  0  0  0  0  0  0  0  0  0  0  0
   -5.6109   26.3542    2.6175 C   0  0  0  0  0  0  0  0  0  0  0  0
   -5.8284   23.4353    5.0737 H   0  0  0  0  0  0  0  0  0  0  0  0
   -4.5701   24.1314    1.7565 C   0  0  0  0  0  0  0  0  0  0  0  0
   -3.8839   24.9861    0.9600 F   0  0  0  0  0  0  0  0  0  0  0  0
   -5.2976   23.3221    0.9532 F   0  0  0  0  0  0  0  0  0  0  0  0
   -3.6557   23.3634    2.3966 F   0  0  0  0  0  0  0  0  0  0  0  0
  1  2  2  0  0  0
  2  3  1  0  0  0
  3 14  1  0  0  0
 15 14  1  0  0  0
 15 16  1  0  0  0
 16 17  1  0  0  0
 17 18  1  0  0  0
 18 19  1  0  0  0
 19 22  1  0  0  0
 22 23  1  0  0  0
 22 24  1  0  0  0
 22 25  1  0  0  0
 19 20  1  0  0  0
  2  4  1  0  0  0
  4  5  1  0  0  0
  5  6  1  0  0  0
  6  7  2  0  0  0
  7  8  1  0  0  0
  8  9  2  0  0  0
  9 10  1  0  0  0
 10 11  2  0  0  0
 11 12  1  0  0  0
 19 15  1  0  0  0
 12  4  1  0  0  0
 20 15  1  0  0  0
 11  6  1  0  0  0
  3 13  1  0  0  0
 17 21  1  0  0  0
M  END
> <minimizedAffinity>
-9.23715

$$$$
OCNT-2315122


 24 26  0  0  0  0  0  0  0  0999 V2000
   -3.7027   27.9901    6.6653 N   0  0  0  0  0  0  0  0  0  0  0  0
   -3.1294   26.7086    6.2036 C   0  0  0  0  0  0  0  0  0  0  0  0
   -2.6279   26.7200    4.7603 C   0  0  0  0  0  0  0  0  0  0  0  0
   -3.7285   26.4648    3.7514 C   0  0  0  0  0  0  0  0  0  0  0  0
   -3.4312   25.5238    2.7380 C   0  0  0  0  0  0  0  0  0  0  0  0
   -4.3744   25.1488    1.7869 C   0  0  0  0  0  0  0  0  0  0  0  0
   -5.6393   25.7061    1.8316 C   0  0  0  0  0  0  0  0  0  0  0  0
   -5.9425   26.6549    2.8093 C   0  0  0  0  0  0  0  0  0  0  0  0
   -4.9968   27.0877    3.7735 C   0  0  0  0  0  0  0  0  0  0  0  0
   -5.4283   28.1912    4.7695 C   0  0  0  0  0  0  0  0  0  0  0  0
   -6.5174   27.6342    5.7122 C   0  0  0  0  0  0  0  0  0  0  0  0
   -6.0535   29.3757    3.9711 C   0  0  0  0  0  0  0  0  0  0  0  0
   -4.2877   28.8511    5.6067 C   0  0  0  0  0  0  0  0  0  0  0  0
   -3.0578   29.6345    8.3958 C   0  0  0  0  0  0  0  0  0  0  0  0
   -2.0523   30.4355    8.9592 C   0  0  0  0  0  0  0  0  0  0  0  0
   -0.7483   30.3525    8.4888 C   0  0  0  0  0  0  0  0  0  0  0  0
   -0.4892   29.4656    7.4645 C   0  0  0  0  0  0  0  0  0  0  0  0
   -1.4306   28.6856    6.8893 N   0  0  0  0  0  0  0  0  0  0  0  0
   -2.7106   28.7696    7.3411 C   0  0  0  0  0  0  0  0  0  0  0  0
   -6.2191   28.6327   10.2416 C   0  0  0  0  0  0  0  0  0  0  0  0
   -4.8870   28.6697    9.7018 N   0  0  0  0  0  0  0  0  0  0  0  0
   -4.4203   29.7506    8.9917 C   0  0  0  0  0  0  0  0  0  0  0  0
   -5.0634   30.7878    8.8587 O   0  0  0  0  0  0  0  0  0  0  0  0
   -4.3608   27.8015    9.6021 H   0  0  0  0  0  0  0  0  0  0  0  0
 20 21  1  0  0  0
 21 22  1  0  0  0
 22 23  2  0  0  0
 22 14  1  0  0  0
 14 15  1  0  0  0
 15 16  2  0  0  0
 16 17  1  0  0  0
 17 18  2  0  0  0
 18 19  1  0  0  0
 19  1  1  0  0  0
  1  2  1  0  0  0
  2  3  1  0  0  0
  3  4  1  0  0  0
  4  5  2  0  0  0
  5  6  1  0  0  0
  6  7  2  0  0  0
  7  8  1  0  0  0
  8  9  2  0  0  0
  9 10  1  0  0  0
 10 11  1  0  0  0
 10 12  1  0  0  0
 10 13  1  0  0  0
 19 14  2  0  0  0
 13  1  1  0  0  0
  9  4  1  0  0  0
 21 24  1  0  0  0
M  END
> <minimizedAffinity>
-9.28785

$$$$
OCNT-2315124


 23 24  0  0  0  0  0  0  0  0999 V2000
    0.4466   29.0800    7.1959 S   0  0  0  0  0  0  0  0  0  0  0  0
    0.8906   29.4985    5.8893 O   0  0  0  0  0  0  0  0  0  0  0  0
    1.2542   29.2240    8.3855 O   0  0  0  0  0  0  0  0  0  0  0  0
   -2.7369   31.2533    8.1818 C   0  0  0  0  0  0  0  0  0  0  0  0
   -2.4894   31.6457    6.9162 N   0  0  0  0  0  0  0  0  0  0  0  0
   -1.4312   30.9074    6.5387 N   0  0  0  0  0  0  0  0  0  0  0  0
   -0.9565   30.0773    7.5099 C   0  0  0  0  0  0  0  0  0  0  0  0
   -1.7966   30.2680    8.5863 C   0  0  0  0  0  0  0  0  0  0  0  0
   -1.0533   31.0266    5.6019 H   0  0  0  0  0  0  0  0  0  0  0  0
   -3.8276   31.7936    9.0086 C   0  0  0  0  0  0  0  0  0  0  0  0
   -4.7962   31.1198    9.3491 O   0  0  0  0  0  0  0  0  0  0  0  0
   -4.5929   33.9989    8.7755 C   0  0  0  0  0  0  0  0  0  0  0  0
   -3.6471   33.1034    9.3551 O   0  0  0  0  0  0  0  0  0  0  0  0
   -0.1041   27.4983    7.0832 N   0  0  0  0  0  0  0  0  0  0  0  0
    0.5959   26.9158    6.6009 H   0  0  0  0  0  0  0  0  0  0  0  0
   -1.4667   27.3048    6.5317 C   0  0  0  0  0  0  0  0  0  0  0  0
   -1.4892   26.2182    5.4385 C   0  0  0  0  0  0  0  0  0  0  0  0
   -0.2132   26.2191    4.5947 C   0  0  0  0  0  0  0  0  0  0  0  0
   -2.7086   26.3734    4.5603 C   0  0  0  0  0  0  0  0  0  0  0  0
   -2.7604   26.0044    3.2935 N   0  0  0  0  0  0  0  0  0  0  0  0
   -4.0131   26.2843    2.7801 C   0  0  0  0  0  0  0  0  0  0  0  0
   -4.8981   26.8712    3.6570 C   0  0  0  0  0  0  0  0  0  0  0  0
   -4.1497   27.0787    5.1830 S   0  0  0  0  0  0  0  0  0  0  0  0
 12 13  1  0  0  0
 13 10  1  0  0  0
 10 11  2  0  0  0
 10  4  1  0  0  0
  4  5  2  0  0  0
  5  6  1  0  0  0
  6  7  1  0  0  0
  7  1  1  0  0  0
  1  2  2  0  0  0
  1  3  2  0  0  0
  1 14  1  0  0  0
 14 16  1  0  0  0
 16 17  1  0  0  0
 17 18  1  0  0  0
 17 19  1  0  0  0
 19 20  2  0  0  0
 20 21  1  0  0  0
 21 22  2  0  0  0
 22 23  1  0  0  0
  7  8  2  0  0  0
  8  4  1  0  0  0
 23 19  1  0  0  0
  6  9  1  0  0  0
 14 15  1  0  0  0
M  END
> <minimizedAffinity>
-7.32535

$$$$
OCNT-2315125


 27 31  0  0  0  0  0  0  0  0999 V2000
   -5.1374   27.5961    5.1580 C   0  0  0  0  0  0  0  0  0  0  0  0
   -4.6037   28.2177    6.1849 N   0  0  0  0  0  0  0  0  0  0  0  0
   -5.3635   29.3563    6.2630 C   0  0  0  0  0  0  0  0  0  0  0  0
   -6.3257   29.4497    5.3359 N   0  0  0  0  0  0  0  0  0  0  0  0
   -6.1791   28.2771    4.5970 O   0  0  0  0  0  0  0  0  0  0  0  0
   -5.1318   30.4422    7.3291 C   0  0  0  0  0  0  0  0  0  0  0  0
   -6.0977   31.1034    8.0609 C   0  0  0  0  0  0  0  0  0  0  0  0
   -5.5345   32.0132    8.9267 N   0  0  0  0  0  0  0  0  0  0  0  0
   -4.2428   31.8960    8.7134 C   0  0  0  0  0  0  0  0  0  0  0  0
   -3.1658   32.6084    9.3441 C   0  0  0  0  0  0  0  0  0  0  0  0
   -1.9160   32.3872    9.0299 N   0  0  0  0  0  0  0  0  0  0  0  0
   -1.6609   31.4328    8.0580 C   0  0  0  0  0  0  0  0  0  0  0  0
   -2.6136   30.7258    7.4237 C   0  0  0  0  0  0  0  0  0  0  0  0
   -3.9376   30.9591    7.7557 N   0  0  0  0  0  0  0  0  0  0  0  0
   -5.3518   24.5258    2.8511 C   0  0  0  0  0  0  0  0  0  0  0  0
   -5.7513   25.8888    3.4460 C   0  0  0  0  0  0  0  0  0  0  0  0
   -4.7668   26.2892    4.5493 C   0  0  0  0  0  0  0  0  0  0  0  0
   -3.3145   26.2929    4.0408 C   0  0  0  0  0  0  0  0  0  0  0  0
   -3.1668   25.6279    2.6734 C   0  0  0  0  0  0  0  0  0  0  0  0
   -3.9066   24.3771    2.6244 N   0  0  0  0  0  0  0  0  0  0  0  0
   -3.7441   23.8925    1.7409 H   0  0  0  0  0  0  0  0  0  0  0  0
   -7.6285   23.5398   -0.7027 C   0  0  0  0  0  0  0  0  0  0  0  0
   -7.6090   22.6709    0.3853 C   0  0  0  0  0  0  0  0  0  0  0  0
   -6.8743   22.9957    1.5277 C   0  0  0  0  0  0  0  0  0  0  0  0
   -6.1516   24.1974    1.5997 C   0  0  0  0  0  0  0  0  0  0  0  0
   -6.1757   25.0584    0.4902 C   0  0  0  0  0  0  0  0  0  0  0  0
   -6.9111   24.7324   -0.6513 C   0  0  0  0  0  0  0  0  0  0  0  0
 22 23  2  0  0  0
 23 24  1  0  0  0
 24 25  2  0  0  0
 25 15  1  0  0  0
 15 16  1  0  0  0
 16 17  1  0  0  0
 17  1  1  0  0  0
  1  2  2  0  0  0
  2  3  1  0  0  0
  3  6  1  0  0  0
  6  7  2  0  0  0
  7  8  1  0  0  0
  8  9  2  0  0  0
  9 10  1  0  0  0
 10 11  2  0  0  0
 11 12  1  0  0  0
 12 13  2  0  0  0
 13 14  1  0  0  0
  3  4  2  0  0  0
  4  5  1  0  0  0
 17 18  1  0  0  0
 18 19  1  0  0  0
 19 20  1  0  0  0
 25 26  1  0  0  0
 26 27  2  0  0  0
 27 22  1  0  0  0
 20 15  1  0  0  0
  5  1  1  0  0  0
 14  6  1  0  0  0
 14  9  1  0  0  0
 20 21  1  0  0  0
M  END
> <minimizedAffinity>
-9.97068

$$$$
OCNT-2315127


 25 26  0  0  0  0  0  0  0  0999 V2000
   -5.8349   30.2014    8.5163 C   0  0  0  0  0  0  0  0  0  0  0  0
   -6.7026   31.0355    8.2862 O   0  0  0  0  0  0  0  0  0  0  0  0
   -5.8314   28.9448    7.9486 N   0  0  0  0  0  0  0  0  0  0  0  0
   -5.1567   28.2637    8.2703 H   0  0  0  0  0  0  0  0  0  0  0  0
   -4.6454   30.4393    9.4277 C   0  0  0  0  0  0  0  0  0  0  0  0
   -3.5235   31.2573    8.7598 C   0  0  0  0  0  0  0  0  0  0  0  0
   -2.2701   30.3974    8.6418 C   0  0  0  0  0  0  0  0  0  0  0  0
   -1.0351   30.9096    9.0681 C   0  0  0  0  0  0  0  0  0  0  0  0
    0.1281   30.1448    8.9630 C   0  0  0  0  0  0  0  0  0  0  0  0
    0.0729   28.8595    8.4294 C   0  0  0  0  0  0  0  0  0  0  0  0
   -1.1452   28.3381    8.0000 C   0  0  0  0  0  0  0  0  0  0  0  0
   -2.3096   29.1015    8.1039 C   0  0  0  0  0  0  0  0  0  0  0  0
   -4.3998   33.5776    9.3982 C   0  0  0  0  0  0  0  0  0  0  0  0
   -3.2578   32.5757    9.5238 C   0  0  0  0  0  0  0  0  0  0  0  0
   -6.9217   28.4881    7.1181 C   0  0  0  0  0  0  0  0  0  0  0  0
   -6.5095   28.4231    5.6763 C   0  0  0  0  0  0  0  0  0  0  0  0
   -6.5188   29.5666    4.8819 C   0  0  0  0  0  0  0  0  0  0  0  0
   -6.1765   29.5803    3.5730 N   0  0  0  0  0  0  0  0  0  0  0  0
   -5.8140   28.3964    3.0215 C   0  0  0  0  0  0  0  0  0  0  0  0
   -5.7809   27.1966    3.7187 C   0  0  0  0  0  0  0  0  0  0  0  0
   -6.1391   27.2154    5.0708 C   0  0  0  0  0  0  0  0  0  0  0  0
   -5.3726   25.9736    2.9943 C   0  0  0  0  0  0  0  0  0  0  0  0
   -6.0762   24.9819    2.8940 O   0  0  0  0  0  0  0  0  0  0  0  0
   -4.1278   26.1222    2.4755 O   0  0  0  0  0  0  0  0  0  0  0  0
   -3.0801   25.9886    3.4382 C   0  0  0  0  0  0  0  0  0  0  0  0
 13 14  1  0  0  0
 14  6  1  0  0  0
  6  5  1  0  0  0
  5  1  1  0  0  0
  1  2  2  0  0  0
  1  3  1  0  0  0
  3 15  1  0  0  0
 15 16  1  0  0  0
 16 17  2  0  0  0
 17 18  1  0  0  0
 18 19  2  0  0  0
 19 20  1  0  0  0
 20 22  1  0  0  0
 22 23  2  0  0  0
 22 24  1  0  0  0
 24 25  1  0  0  0
 20 21  2  0  0  0
  6  7  1  0  0  0
  7  8  2  0  0  0
  8  9  1  0  0  0
  9 10  2  0  0  0
 10 11  1  0  0  0
 11 12  2  0  0  0
 21 16  1  0  0  0
 12  7  1  0  0  0
  3  4  1  0  0  0
M  END
> <minimizedAffinity>
-8.54999

$$$$
OCNT-2315145


 28 31  0  0  0  0  0  0  0  0999 V2000
   -6.1660   27.6825    5.4683 C   0  0  0  0  0  0  0  0  0  0  0  0
   -5.9459   28.9219    4.5882 C   0  0  0  0  0  0  0  0  0  0  0  0
   -5.9605   28.5382    3.1113 C   0  0  0  0  0  0  0  0  0  0  0  0
   -4.9382   27.4518    2.7955 C   0  0  0  0  0  0  0  0  0  0  0  0
   -5.0756   26.2953    3.6802 N   0  0  0  0  0  0  0  0  0  0  0  0
   -4.6487   25.0126    3.3287 C   0  0  0  0  0  0  0  0  0  0  0  0
   -4.4887   24.1251    4.1726 O   0  0  0  0  0  0  0  0  0  0  0  0
   -5.1166   26.6041    5.1122 C   0  0  0  0  0  0  0  0  0  0  0  0
   -6.0832   28.0118    6.9007 N   0  0  0  0  0  0  0  0  0  0  0  0
   -6.9862   27.8400    7.3425 H   0  0  0  0  0  0  0  0  0  0  0  0
   -5.6913   29.3958    7.1479 C   0  0  0  0  0  0  0  0  0  0  0  0
   -5.4795   32.2893    8.4473 C   0  0  0  0  0  0  0  0  0  0  0  0
   -4.0984   31.7828    8.7262 C   0  0  0  0  0  0  0  0  0  0  0  0
   -3.2170   32.5769    9.3739 C   0  0  0  0  0  0  0  0  0  0  0  0
   -1.8758   32.1100    9.6565 C   0  0  0  0  0  0  0  0  0  0  0  0
   -1.4760   30.8827    9.2890 C   0  0  0  0  0  0  0  0  0  0  0  0
   -2.3762   30.0172    8.6110 C   0  0  0  0  0  0  0  0  0  0  0  0
   -2.1823   28.7914    8.1806 N   0  0  0  0  0  0  0  0  0  0  0  0
   -3.3650   28.4214    7.6195 C   0  0  0  0  0  0  0  0  0  0  0  0
   -4.3065   29.4325    7.6806 C   0  0  0  0  0  0  0  0  0  0  0  0
   -3.6736   30.4849    8.3383 N   0  0  0  0  0  0  0  0  0  0  0  0
   -4.4036   24.6975    1.8581 C   0  0  0  0  0  0  0  0  0  0  0  0
   -5.6267   24.2120    1.1143 C   0  0  0  0  0  0  0  0  0  0  0  0
   -6.0781   22.8950    1.2845 C   0  0  0  0  0  0  0  0  0  0  0  0
   -7.1964   22.4321    0.5888 C   0  0  0  0  0  0  0  0  0  0  0  0
   -7.8678   23.2753   -0.2937 C   0  0  0  0  0  0  0  0  0  0  0  0
   -7.4173   24.5791   -0.4873 C   0  0  0  0  0  0  0  0  0  0  0  0
   -6.2990   25.0438    0.2070 C   0  0  0  0  0  0  0  0  0  0  0  0
 12 13  1  0  0  0
 13 14  2  0  0  0
 14 15  1  0  0  0
 15 16  2  0  0  0
 16 17  1  0  0  0
 17 18  2  0  0  0
 18 19  1  0  0  0
 19 20  2  0  0  0
 20 11  1  0  0  0
 11  9  1  0  0  0
  9  1  1  0  0  0
  1  2  1  0  0  0
  2  3  1  0  0  0
  3  4  1  0  0  0
  4  5  1  0  0  0
  5  6  1  0  0  0
  6  7  2  0  0  0
  6 22  1  0  0  0
 22 23  1  0  0  0
 23 24  2  0  0  0
 24 25  1  0  0  0
 25 26  2  0  0  0
 26 27  1  0  0  0
 27 28  2  0  0  0
  5  8  1  0  0  0
 20 21  1  0  0  0
 21 13  1  0  0  0
 21 17  1  0  0  0
  8  1  1  0  0  0
 28 23  1  0  0  0
  9 10  1  0  0  0
M  END
> <minimizedAffinity>
-10.50397

$$$$
OCNT-2315146


 37 41  0  0  0  0  0  0  0  0999 V2000
   -5.2872   25.4816    2.3874 C   0  0  0  0  0  0  0  0  0  0  0  0
   -4.1280   24.8739    2.9334 C   0  0  0  0  0  0  0  0  0  0  0  0
   -3.4599   25.4351    4.0270 C   0  0  0  0  0  0  0  0  0  0  0  0
   -3.9824   26.5979    4.5547 C   0  0  0  0  0  0  0  0  0  0  0  0
   -3.5255   27.4220    5.6717 C   0  0  0  0  0  0  0  0  0  0  0  0
   -2.5177   27.2028    6.3158 O   0  0  0  0  0  0  0  0  0  0  0  0
   -4.4259   28.4448    5.7997 N   0  0  0  0  0  0  0  0  0  0  0  0
   -5.3828   28.3941    4.8214 C   0  0  0  0  0  0  0  0  0  0  0  0
   -6.3005   29.1643    4.6113 O   0  0  0  0  0  0  0  0  0  0  0  0
   -5.1148   27.1939    4.0330 C   0  0  0  0  0  0  0  0  0  0  0  0
   -5.7925   26.6638    2.9522 C   0  0  0  0  0  0  0  0  0  0  0  0
   -4.2804   29.5779    6.7000 C   0  0  0  0  0  0  0  0  0  0  0  0
   -4.0472   30.9122    5.9964 C   0  0  0  0  0  0  0  0  0  0  0  0
   -3.8732   32.0046    7.0411 C   0  0  0  0  0  0  0  0  0  0  0  0
   -5.0622   32.0684    7.9720 C   0  0  0  0  0  0  0  0  0  0  0  0
   -5.3955   33.1045    8.5393 O   0  0  0  0  0  0  0  0  0  0  0  0
   -5.7253   30.8889    8.2046 N   0  0  0  0  0  0  0  0  0  0  0  0
   -5.5123   29.6664    7.6069 C   0  0  0  0  0  0  0  0  0  0  0  0
   -6.2489   28.7146    7.8585 O   0  0  0  0  0  0  0  0  0  0  0  0
   -6.5294   30.9471    8.8148 H   0  0  0  0  0  0  0  0  0  0  0  0
   -5.9886   24.8388    1.2123 C   0  0  0  0  0  0  0  0  0  0  0  0
   -6.9277   23.7171    1.6636 C   0  0  0  0  0  0  0  0  0  0  0  0
   -6.2881   22.3333    1.5293 C   0  0  0  0  0  0  0  0  0  0  0  0
   -6.8334   21.3770    2.4929 N   0  0  0  0  0  0  0  0  0  0  0  0
   -7.8154   21.1874    2.3038 H   0  0  0  0  0  0  0  0  0  0  0  0
  -10.1084   21.8047    6.3847 C   0  0  0  0  0  0  0  0  0  0  0  0
  -10.2886   21.4194    5.0624 C   0  0  0  0  0  0  0  0  0  0  0  0
   -9.1899   21.3810    4.2023 C   0  0  0  0  0  0  0  0  0  0  0  0
   -7.8936   21.7320    4.6548 C   0  0  0  0  0  0  0  0  0  0  0  0
   -7.7152   22.1071    5.9923 C   0  0  0  0  0  0  0  0  0  0  0  0
   -8.8248   22.1409    6.8282 C   0  0  0  0  0  0  0  0  0  0  0  0
   -6.5201   22.4300    6.4959 N   0  0  0  0  0  0  0  0  0  0  0  0
   -5.4808   22.3697    5.6576 C   0  0  0  0  0  0  0  0  0  0  0  0
   -5.5235   22.0331    4.3645 N   0  0  0  0  0  0  0  0  0  0  0  0
   -6.7294   21.7266    3.8596 C   0  0  0  0  0  0  0  0  0  0  0  0
  -11.3999   23.1892    7.8252 C   0  0  0  0  0  0  0  0  0  0  0  0
  -11.0845   21.8908    7.3381 O   0  0  0  0  0  0  0  0  0  0  0  0
 36 37  1  0  0  0
 37 26  1  0  0  0
 26 27  1  0  0  0
 27 28  2  0  0  0
 28 29  1  0  0  0
 29 30  1  0  0  0
 30 31  1  0  0  0
 30 32  2  0  0  0
 32 33  1  0  0  0
 33 34  2  0  0  0
 34 35  1  0  0  0
 35 24  1  0  0  0
 24 23  1  0  0  0
 23 22  1  0  0  0
 22 21  1  0  0  0
 21  1  1  0  0  0
  1  2  1  0  0  0
  2  3  2  0  0  0
  3  4  1  0  0  0
  4  5  1  0  0  0
  5  6  2  0  0  0
  5  7  1  0  0  0
  7 12  1  0  0  0
 12 13  1  0  0  0
 13 14  1  0  0  0
 14 15  1  0  0  0
 15 16  2  0  0  0
 15 17  1  0  0  0
 17 18  1  0  0  0
 18 19  2  0  0  0
  7  8  1  0  0  0
  8  9  2  0  0  0
  8 10  1  0  0  0
 10 11  1  0  0  0
 31 26  2  0  0  0
 11  1  2  0  0  0
 35 29  2  0  0  0
 10  4  2  0  0  0
 18 12  1  0  0  0
 24 25  1  0  0  0
 17 20  1  0  0  0
M  END
> <minimizedAffinity>
-9.93295

$$$$
OCNT-2315149


 28 33  0  0  0  0  0  0  0  0999 V2000
   -0.9675   27.3184    6.1700 O   0  0  0  0  0  0  0  0  0  0  0  0
   -2.1940   27.4451    6.0999 C   0  0  0  0  0  0  0  0  0  0  0  0
   -2.9441   26.6185    5.2420 N   0  0  0  0  0  0  0  0  0  0  0  0
   -2.1855   26.0130    4.1532 C   0  0  0  0  0  0  0  0  0  0  0  0
   -2.9568   24.9870    3.3833 C   0  0  0  0  0  0  0  0  0  0  0  0
   -4.2364   24.6620    3.6241 C   0  0  0  0  0  0  0  0  0  0  0  0
   -5.0200   25.3353    4.7074 C   0  0  0  0  0  0  0  0  0  0  0  0
   -4.4017   26.6772    5.1099 C   0  0  0  0  0  0  0  0  0  0  0  0
   -2.8599   28.4741    6.9294 C   0  0  0  0  0  0  0  0  0  0  0  0
   -4.1947   28.7412    6.9211 N   0  0  0  0  0  0  0  0  0  0  0  0
   -4.3556   29.7814    7.7775 N   0  0  0  0  0  0  0  0  0  0  0  0
   -3.1863   30.1755    8.3005 C   0  0  0  0  0  0  0  0  0  0  0  0
   -2.2050   29.3862    7.7794 C   0  0  0  0  0  0  0  0  0  0  0  0
   -0.8403   29.7338    8.2471 C   0  0  0  0  0  0  0  0  0  0  0  0
   -1.0953   30.8988    9.2310 C   0  0  0  0  0  0  0  0  0  0  0  0
   -1.6138   32.2385    8.7720 C   0  0  0  0  0  0  0  0  0  0  0  0
   -2.6057   31.2222    9.2637 C   0  0  0  0  0  0  0  0  0  0  0  0
   -5.2880   30.1516    7.9288 H   0  0  0  0  0  0  0  0  0  0  0  0
   -4.9166   23.6218    2.8340 C   0  0  0  0  0  0  0  0  0  0  0  0
   -4.8076   22.2984    3.2895 C   0  0  0  0  0  0  0  0  0  0  0  0
   -5.4231   21.2601    2.5982 C   0  0  0  0  0  0  0  0  0  0  0  0
   -6.1521   21.5337    1.4430 C   0  0  0  0  0  0  0  0  0  0  0  0
   -6.2756   22.8462    0.9602 C   0  0  0  0  0  0  0  0  0  0  0  0
   -7.0133   23.1039   -0.2074 C   0  0  0  0  0  0  0  0  0  0  0  0
   -7.1458   24.4008   -0.7023 C   0  0  0  0  0  0  0  0  0  0  0  0
   -6.5417   25.4590   -0.0356 C   0  0  0  0  0  0  0  0  0  0  0  0
   -5.8057   25.2198    1.1268 C   0  0  0  0  0  0  0  0  0  0  0  0
   -5.6533   23.9152    1.6537 C   0  0  0  0  0  0  0  0  0  0  0  0
  1  2  2  0  0  0
  2  9  1  0  0  0
  9 10  2  0  0  0
 10 11  1  0  0  0
 11 12  1  0  0  0
 12 13  2  0  0  0
 13 14  1  0  0  0
 14 15  1  0  0  0
 15 16  1  0  0  0
 16 17  1  0  0  0
  2  3  1  0  0  0
  3  4  1  0  0  0
  4  5  1  0  0  0
  5  6  2  0  0  0
  6 19  1  0  0  0
 19 20  2  0  0  0
 20 21  1  0  0  0
 21 22  2  0  0  0
 22 23  1  0  0  0
 23 24  2  0  0  0
 24 25  1  0  0  0
 25 26  2  0  0  0
 26 27  1  0  0  0
 27 28  2  0  0  0
  6  7  1  0  0  0
  7  8  1  0  0  0
 13  9  1  0  0  0
 17 15  1  0  0  0
  8  3  1  0  0  0
 17 12  1  0  0  0
 28 19  1  0  0  0
 28 23  1  0  0  0
 11 18  1  0  0  0
M  END
> <minimizedAffinity>
-12.53299

$$$$
OCNT-2315150


 23 26  0  0  0  0  0  0  0  0999 V2000
   -6.1632   27.3686    3.1432 O   0  0  0  0  0  0  0  0  0  0  0  0
   -5.0404   27.0526    3.5482 C   0  0  0  0  0  0  0  0  0  0  0  0
   -4.4956   27.4881    4.7463 N   0  0  0  0  0  0  0  0  0  0  0  0
   -3.1978   27.0722    5.3140 C   0  0  0  0  0  0  0  0  0  0  0  0
   -2.9648   27.8964    6.5858 C   0  0  0  0  0  0  0  0  0  0  0  0
   -4.2948   28.5495    6.7771 C   0  0  0  0  0  0  0  0  0  0  0  0
   -4.6960   29.3378    7.8469 C   0  0  0  0  0  0  0  0  0  0  0  0
   -5.9755   29.8915    7.8117 C   0  0  0  0  0  0  0  0  0  0  0  0
   -6.5124   30.8733    9.1197 Cl  0  0  0  0  0  0  0  0  0  0  0  0
   -6.8274   29.6631    6.7231 C   0  0  0  0  0  0  0  0  0  0  0  0
   -6.4074   28.8700    5.6484 C   0  0  0  0  0  0  0  0  0  0  0  0
   -5.1381   28.3157    5.6882 C   0  0  0  0  0  0  0  0  0  0  0  0
   -4.1734   26.1540    2.6817 C   0  0  0  0  0  0  0  0  0  0  0  0
   -4.8421   24.8620    2.3661 C   0  0  0  0  0  0  0  0  0  0  0  0
   -4.6353   23.7905    3.1486 N   0  0  0  0  0  0  0  0  0  0  0  0
   -5.3548   22.8197    2.5578 N   0  0  0  0  0  0  0  0  0  0  0  0
   -6.0259   23.2189    1.4349 C   0  0  0  0  0  0  0  0  0  0  0  0
   -6.8666   22.5245    0.5593 C   0  0  0  0  0  0  0  0  0  0  0  0
   -7.3967   23.2428   -0.5173 C   0  0  0  0  0  0  0  0  0  0  0  0
   -7.0940   24.5917   -0.7032 C   0  0  0  0  0  0  0  0  0  0  0  0
   -6.2481   25.2666    0.1855 C   0  0  0  0  0  0  0  0  0  0  0  0
   -5.7067   24.5621    1.2765 C   0  0  0  0  0  0  0  0  0  0  0  0
   -5.3466   21.8950    2.9721 H   0  0  0  0  0  0  0  0  0  0  0  0
  1  2  2  0  0  0
  2 13  1  0  0  0
 13 14  1  0  0  0
 14 15  2  0  0  0
 15 16  1  0  0  0
 16 17  1  0  0  0
 17 18  2  0  0  0
 18 19  1  0  0  0
 19 20  2  0  0  0
 20 21  1  0  0  0
 21 22  2  0  0  0
  2  3  1  0  0  0
  3  4  1  0  0  0
  4  5  1  0  0  0
  5  6  1  0  0  0
  6  7  1  0  0  0
  7  8  2  0  0  0
  8  9  1  0  0  0
  8 10  1  0  0  0
 10 11  2  0  0  0
 11 12  1  0  0  0
 22 14  1  0  0  0
 12  3  1  0  0  0
 22 17  1  0  0  0
 12  6  2  0  0  0
 16 23  1  0  0  0
M  END
> <minimizedAffinity>
-9.50430

$$$$
OCNT-2315157


 27 29  0  0  0  0  0  0  0  0999 V2000
   -3.9837   27.0234    5.0011 C   0  0  0  0  0  0  0  0  0  0  0  0
   -5.0171   27.3292    5.5918 O   0  0  0  0  0  0  0  0  0  0  0  0
   -2.7266   27.3637    5.4694 N   0  0  0  0  0  0  0  0  0  0  0  0
   -1.9714   26.7896    5.0940 H   0  0  0  0  0  0  0  0  0  0  0  0
   -7.3584   22.9699   -0.5579 C   0  0  0  0  0  0  0  0  0  0  0  0
   -6.4955   23.4122    0.5876 C   0  0  0  0  0  0  0  0  0  0  0  0
   -5.6449   22.4943    1.2293 C   0  0  0  0  0  0  0  0  0  0  0  0
   -4.8146   22.8978    2.2786 C   0  0  0  0  0  0  0  0  0  0  0  0
   -4.8224   24.2313    2.6705 C   0  0  0  0  0  0  0  0  0  0  0  0
   -4.0260   24.7968    3.8110 C   0  0  0  0  0  0  0  0  0  0  0  0
   -4.0138   26.3230    3.6501 C   0  0  0  0  0  0  0  0  0  0  0  0
   -5.5082   26.7775    2.6901 S   0  0  0  0  0  0  0  0  0  0  0  0
   -5.6581   25.1460    2.0290 C   0  0  0  0  0  0  0  0  0  0  0  0
   -6.4907   24.7546    0.9907 C   0  0  0  0  0  0  0  0  0  0  0  0
   -2.5688   27.9304    6.8016 C   0  0  0  0  0  0  0  0  0  0  0  0
   -1.9221   29.3364    6.8147 C   0  0  0  0  0  0  0  0  0  0  0  0
   -2.7918   30.3122    7.5425 N   0  0  0  0  0  0  0  0  0  0  0  0
   -4.0360   29.7161    8.0725 C   0  0  0  0  0  0  0  0  0  0  0  0
   -5.3358   30.2519    7.4310 C   0  0  0  0  0  0  0  0  0  0  0  0
   -5.4817   31.7131    7.5056 N   0  0  0  0  0  0  0  0  0  0  0  0
   -4.1807   32.3979    7.4683 C   0  0  0  0  0  0  0  0  0  0  0  0
   -3.0468   31.5717    6.8206 C   0  0  0  0  0  0  0  0  0  0  0  0
   -6.0628   32.0261    6.7289 H   0  0  0  0  0  0  0  0  0  0  0  0
   -0.4438   29.1997    7.2546 C   0  0  0  0  0  0  0  0  0  0  0  0
   -0.2062   29.9296    8.3731 F   0  0  0  0  0  0  0  0  0  0  0  0
    0.4177   29.6306    6.3071 F   0  0  0  0  0  0  0  0  0  0  0  0
   -0.1218   27.9188    7.5477 F   0  0  0  0  0  0  0  0  0  0  0  0
  5  6  1  0  0  0
  6  7  1  0  0  0
  7  8  2  0  0  0
  8  9  1  0  0  0
  9 10  1  0  0  0
 10 11  1  0  0  0
 11  1  1  0  0  0
  1  2  2  0  0  0
  1  3  1  0  0  0
  3 15  1  0  0  0
 15 16  1  0  0  0
 16 17  1  0  0  0
 17 18  1  0  0  0
 18 19  1  0  0  0
 19 20  1  0  0  0
 20 21  1  0  0  0
 21 22  1  0  0  0
 16 24  1  0  0  0
 24 25  1  0  0  0
 24 26  1  0  0  0
 24 27  1  0  0  0
 11 12  1  0  0  0
 12 13  1  0  0  0
 13 14  1  0  0  0
 14  6  2  0  0  0
 13  9  2  0  0  0
 22 17  1  0  0  0
  3  4  1  0  0  0
 20 23  1  0  0  0
M  END
> <minimizedAffinity>
-9.09010

$$$$
OCNT-2315159


 25 27  0  0  0  0  0  0  0  0999 V2000
   -6.1589   28.9647    5.2103 C   0  0  0  0  0  0  0  0  0  0  0  0
   -6.1563   29.3524    3.7297 C   0  0  0  0  0  0  0  0  0  0  0  0
   -5.8400   28.0593    2.9787 C   0  0  0  0  0  0  0  0  0  0  0  0
   -5.4766   27.0968    4.0248 N   0  0  0  0  0  0  0  0  0  0  0  0
   -6.3126   27.4496    5.1751 C   0  0  0  0  0  0  0  0  0  0  0  0
   -7.2450   29.6356    6.0431 C   0  0  0  0  0  0  0  0  0  0  0  0
   -6.4555   29.0782    8.7249 O   0  0  0  0  0  0  0  0  0  0  0  0
   -6.3328   30.2132    8.2787 C   0  0  0  0  0  0  0  0  0  0  0  0
   -6.6938   30.5765    6.9997 N   0  0  0  0  0  0  0  0  0  0  0  0
   -6.5620   31.5370    6.7046 H   0  0  0  0  0  0  0  0  0  0  0  0
   -5.7909   31.3674    9.0862 C   0  0  0  0  0  0  0  0  0  0  0  0
   -5.2093   32.4377    8.1743 C   0  0  0  0  0  0  0  0  0  0  0  0
   -3.8152   32.1807    7.8637 N   0  0  0  0  0  0  0  0  0  0  0  0
   -2.7317   32.5033    8.6298 C   0  0  0  0  0  0  0  0  0  0  0  0
   -1.6296   32.0727    7.9302 C   0  0  0  0  0  0  0  0  0  0  0  0
   -2.1534   31.5090    6.7522 C   0  0  0  0  0  0  0  0  0  0  0  0
   -3.4867   31.5664    6.7106 N   0  0  0  0  0  0  0  0  0  0  0  0
   -5.6607   25.6950    3.6257 C   0  0  0  0  0  0  0  0  0  0  0  0
   -4.8977   25.3338    2.3401 C   0  0  0  0  0  0  0  0  0  0  0  0
   -5.7918   24.6350    1.3427 C   0  0  0  0  0  0  0  0  0  0  0  0
   -6.2955   25.3276    0.2339 C   0  0  0  0  0  0  0  0  0  0  0  0
   -7.0972   24.6745   -0.7032 C   0  0  0  0  0  0  0  0  0  0  0  0
   -7.3989   23.3238   -0.5429 C   0  0  0  0  0  0  0  0  0  0  0  0
   -6.9019   22.6248    0.5557 C   0  0  0  0  0  0  0  0  0  0  0  0
   -6.1006   23.2766    1.4943 C   0  0  0  0  0  0  0  0  0  0  0  0
  7  8  2  0  0  0
  8 11  1  0  0  0
 11 12  1  0  0  0
 12 13  1  0  0  0
 13 14  1  0  0  0
 14 15  2  0  0  0
 15 16  1  0  0  0
 16 17  2  0  0  0
  8  9  1  0  0  0
  9  6  1  0  0  0
  6  1  1  0  0  0
  1  2  1  0  0  0
  2  3  1  0  0  0
  3  4  1  0  0  0
  4 18  1  0  0  0
 18 19  1  0  0  0
 19 20  1  0  0  0
 20 21  2  0  0  0
 21 22  1  0  0  0
 22 23  2  0  0  0
 23 24  1  0  0  0
 24 25  2  0  0  0
  4  5  1  0  0  0
 17 13  1  0  0  0
  5  1  1  0  0  0
 25 20  1  0  0  0
  9 10  1  0  0  0
M  END
> <minimizedAffinity>
-8.82869

$$$$
OCNT-2315166


 27 29  0  0  0  0  0  0  0  0999 V2000
   -5.0279   26.6472    4.2062 N   0  0  0  0  0  0  0  0  0  0  0  0
   -5.8916   27.7265    4.1975 C   0  0  0  0  0  0  0  0  0  0  0  0
   -6.1630   28.3435    3.1761 O   0  0  0  0  0  0  0  0  0  0  0  0
   -4.9817   26.0863    5.0435 H   0  0  0  0  0  0  0  0  0  0  0  0
   -2.9837   25.9993    3.0315 C   0  0  0  0  0  0  0  0  0  0  0  0
   -4.5149   26.0500    2.9802 C   0  0  0  0  0  0  0  0  0  0  0  0
   -5.1682   24.6826    2.7758 C   0  0  0  0  0  0  0  0  0  0  0  0
   -5.0710   23.7277    3.8109 C   0  0  0  0  0  0  0  0  0  0  0  0
   -5.6628   22.4782    3.6885 C   0  0  0  0  0  0  0  0  0  0  0  0
   -6.3667   22.1621    2.5356 C   0  0  0  0  0  0  0  0  0  0  0  0
   -6.9305   20.9482    2.4506 F   0  0  0  0  0  0  0  0  0  0  0  0
   -6.5124   23.0750    1.4873 C   0  0  0  0  0  0  0  0  0  0  0  0
   -7.2534   22.7192    0.3444 C   0  0  0  0  0  0  0  0  0  0  0  0
   -7.4382   23.6163   -0.7033 C   0  0  0  0  0  0  0  0  0  0  0  0
   -6.8814   24.8812   -0.6188 C   0  0  0  0  0  0  0  0  0  0  0  0
   -6.1370   25.2467    0.5084 C   0  0  0  0  0  0  0  0  0  0  0  0
   -5.9213   24.3620    1.5948 C   0  0  0  0  0  0  0  0  0  0  0  0
   -6.4785   28.0419    5.5852 C   0  0  0  0  0  0  0  0  0  0  0  0
   -5.6139   28.8402    6.4701 N   0  0  0  0  0  0  0  0  0  0  0  0
   -5.1568   30.0899    5.8765 C   0  0  0  0  0  0  0  0  0  0  0  0
   -3.9754   30.6553    6.6773 C   0  0  0  0  0  0  0  0  0  0  0  0
   -4.0908   30.4009    8.1913 C   0  0  0  0  0  0  0  0  0  0  0  0
   -5.5569   30.1955    8.5840 C   0  0  0  0  0  0  0  0  0  0  0  0
   -6.1841   29.0247    7.8105 C   0  0  0  0  0  0  0  0  0  0  0  0
   -3.4275   31.5264    8.9901 C   0  0  0  0  0  0  0  0  0  0  0  0
   -2.8344   31.0182   10.1804 O   0  0  0  0  0  0  0  0  0  0  0  0
   -2.2112   30.3265    9.9186 H   0  0  0  0  0  0  0  0  0  0  0  0
  5  6  1  0  0  0
  6  1  1  0  0  0
  1  2  1  0  0  0
  2  3  2  0  0  0
  2 18  1  0  0  0
 18 19  1  0  0  0
 19 20  1  0  0  0
 20 21  1  0  0  0
 21 22  1  0  0  0
 22 25  1  0  0  0
 25 26  1  0  0  0
 22 23  1  0  0  0
 23 24  1  0  0  0
  6  7  1  0  0  0
  7  8  2  0  0  0
  8  9  1  0  0  0
  9 10  2  0  0  0
 10 11  1  0  0  0
 10 12  1  0  0  0
 12 13  2  0  0  0
 13 14  1  0  0  0
 14 15  2  0  0  0
 15 16  1  0  0  0
 16 17  2  0  0  0
 24 19  1  0  0  0
 17  7  1  0  0  0
 17 12  1  0  0  0
  1  4  1  0  0  0
 26 27  1  0  0  0
M  END
> <minimizedAffinity>
-9.26617

$$$$
OCNT-2315191


 29 32  0  0  0  0  0  0  0  0999 V2000
   -5.4971   27.8149    5.8670 O   0  0  0  0  0  0  0  0  0  0  0  0
   -4.4847   27.5508    5.2255 C   0  0  0  0  0  0  0  0  0  0  0  0
   -3.2367   28.0180    5.5846 N   0  0  0  0  0  0  0  0  0  0  0  0
   -2.4392   27.5368    5.1908 H   0  0  0  0  0  0  0  0  0  0  0  0
   -3.0414   28.7241    6.8333 C   0  0  0  0  0  0  0  0  0  0  0  0
   -2.7303   30.2218    6.6608 C   0  0  0  0  0  0  0  0  0  0  0  0
   -1.5891   30.5438    7.6464 C   0  0  0  0  0  0  0  0  0  0  0  0
   -1.5229   29.3284    8.5715 C   0  0  0  0  0  0  0  0  0  0  0  0
   -1.8485   28.1794    7.6311 C   0  0  0  0  0  0  0  0  0  0  0  0
   -2.1588   26.9874    8.3322 O   0  0  0  0  0  0  0  0  0  0  0  0
   -2.9437   27.1460    8.8852 H   0  0  0  0  0  0  0  0  0  0  0  0
   -1.7770   31.8522    8.4142 C   0  0  0  0  0  0  0  0  0  0  0  0
   -3.1679   32.2394    8.5368 N   0  0  0  0  0  0  0  0  0  0  0  0
   -3.7531   33.3295    7.9556 C   0  0  0  0  0  0  0  0  0  0  0  0
   -5.0604   33.2973    8.3815 C   0  0  0  0  0  0  0  0  0  0  0  0
   -5.2758   32.2253    9.2081 N   0  0  0  0  0  0  0  0  0  0  0  0
   -4.1186   31.6071    9.2846 C   0  0  0  0  0  0  0  0  0  0  0  0
   -4.5143   26.6916    4.0431 C   0  0  0  0  0  0  0  0  0  0  0  0
   -3.4584   26.2860    3.2449 C   0  0  0  0  0  0  0  0  0  0  0  0
   -3.9503   25.4877    2.2430 N   0  0  0  0  0  0  0  0  0  0  0  0
   -5.3166   25.3633    2.3535 C   0  0  0  0  0  0  0  0  0  0  0  0
   -5.6805   26.1014    3.4670 C   0  0  0  0  0  0  0  0  0  0  0  0
   -3.3899   25.0384    1.5312 H   0  0  0  0  0  0  0  0  0  0  0  0
   -6.1267   24.5629    1.4328 C   0  0  0  0  0  0  0  0  0  0  0  0
   -6.5650   23.2853    1.8069 C   0  0  0  0  0  0  0  0  0  0  0  0
   -7.3348   22.5098    0.9357 C   0  0  0  0  0  0  0  0  0  0  0  0
   -7.6793   23.0051   -0.3195 C   0  0  0  0  0  0  0  0  0  0  0  0
   -7.2572   24.2760   -0.7028 C   0  0  0  0  0  0  0  0  0  0  0  0
   -6.4860   25.0510    0.1684 C   0  0  0  0  0  0  0  0  0  0  0  0
  1  2  2  0  0  0
  2  3  1  0  0  0
  3  5  1  0  0  0
  5  6  1  0  0  0
  6  7  1  0  0  0
  7 12  1  0  0  0
 12 13  1  0  0  0
 13 14  1  0  0  0
 14 15  2  0  0  0
 15 16  1  0  0  0
 16 17  2  0  0  0
  7  8  1  0  0  0
  8  9  1  0  0  0
  9 10  1  0  0  0
  2 18  1  0  0  0
 18 19  2  0  0  0
 19 20  1  0  0  0
 20 21  1  0  0  0
 21 24  1  0  0  0
 24 25  2  0  0  0
 25 26  1  0  0  0
 26 27  2  0  0  0
 27 28  1  0  0  0
 28 29  2  0  0  0
 21 22  2  0  0  0
  9  5  1  0  0  0
 22 18  1  0  0  0
 17 13  1  0  0  0
 29 24  1  0  0  0
  3  4  1  0  0  0
 10 11  1  0  0  0
 20 23  1  0  0  0
M  END
> <minimizedAffinity>
-10.03134

$$$$
OCNT-2315201


 24 26  0  0  0  0  0  0  0  0999 V2000
   -4.2330   26.0271    4.3225 N   0  0  0  0  0  0  0  0  0  0  0  0
   -4.8396   24.8821    4.9900 C   0  0  0  0  0  0  0  0  0  0  0  0
   -3.0612   26.4841    4.9296 C   0  0  0  0  0  0  0  0  0  0  0  0
   -1.8004   25.9496    4.6260 C   0  0  0  0  0  0  0  0  0  0  0  0
   -0.6608   26.4115    5.2733 C   0  0  0  0  0  0  0  0  0  0  0  0
   -0.6269   27.3744    6.2163 N   0  0  0  0  0  0  0  0  0  0  0  0
   -1.8492   27.8791    6.4817 C   0  0  0  0  0  0  0  0  0  0  0  0
   -3.0596   27.5093    5.9071 C   0  0  0  0  0  0  0  0  0  0  0  0
   -4.0130   28.3754    6.5205 C   0  0  0  0  0  0  0  0  0  0  0  0
   -5.4710   28.4614    6.2619 C   0  0  0  0  0  0  0  0  0  0  0  0
   -3.4536   29.1905    7.4292 N   0  0  0  0  0  0  0  0  0  0  0  0
   -2.1436   28.8682    7.3779 N   0  0  0  0  0  0  0  0  0  0  0  0
   -1.2124   29.5690    8.2248 C   0  0  0  0  0  0  0  0  0  0  0  0
   -4.4098   26.2346    2.8644 C   0  0  0  0  0  0  0  0  0  0  0  0
   -5.8228   26.8042    2.6602 C   0  0  0  0  0  0  0  0  0  0  0  0
   -4.2418   24.9688    1.9848 C   0  0  0  0  0  0  0  0  0  0  0  0
   -6.2317   23.4304    1.5718 C   0  0  0  0  0  0  0  0  0  0  0  0
   -7.3631   23.0837    0.8260 C   0  0  0  0  0  0  0  0  0  0  0  0
   -7.7387   23.8424   -0.2850 C   0  0  0  0  0  0  0  0  0  0  0  0
   -6.9846   24.9482   -0.6632 C   0  0  0  0  0  0  0  0  0  0  0  0
   -5.8546   25.3018    0.0716 C   0  0  0  0  0  0  0  0  0  0  0  0
   -5.4710   24.5570    1.1988 C   0  0  0  0  0  0  0  0  0  0  0  0
   -5.5006   21.3586    2.5047 C   0  0  0  0  0  0  0  0  0  0  0  0
   -5.7802   22.7430    2.6684 O   0  0  0  0  0  0  0  0  0  0  0  0
 23 24  1  0  0  0
 24 17  1  0  0  0
 17 18  2  0  0  0
 18 19  1  0  0  0
 19 20  2  0  0  0
 20 21  1  0  0  0
 21 22  2  0  0  0
 22 16  1  0  0  0
 16 14  1  0  0  0
 14 15  1  0  0  0
 14  1  1  0  0  0
  1  2  1  0  0  0
  1  3  1  0  0  0
  3  4  2  0  0  0
  4  5  1  0  0  0
  5  6  2  0  0  0
  6  7  1  0  0  0
  7  8  2  0  0  0
  8  9  1  0  0  0
  9 10  1  0  0  0
  9 11  2  0  0  0
 11 12  1  0  0  0
 12 13  1  0  0  0
 22 17  1  0  0  0
  8  3  1  0  0  0
 12  7  1  0  0  0
M  END
> <minimizedAffinity>
-9.01860

$$$$
OCNT-2315218


 27 31  0  0  0  0  0  0  0  0999 V2000
   -0.3457   27.6242    7.3665 N   0  0  0  0  0  0  0  0  0  0  0  0
    0.1892   26.9527    7.9173 H   0  0  0  0  0  0  0  0  0  0  0  0
   -1.0119   27.1437    6.2051 C   0  0  0  0  0  0  0  0  0  0  0  0
   -0.2687   26.4663    5.2292 C   0  0  0  0  0  0  0  0  0  0  0  0
   -0.8875   25.9392    4.0849 C   0  0  0  0  0  0  0  0  0  0  0  0
   -2.2714   26.1044    3.9508 C   0  0  0  0  0  0  0  0  0  0  0  0
   -3.1352   25.7061    2.9656 N   0  0  0  0  0  0  0  0  0  0  0  0
   -4.3123   26.1360    3.3847 C   0  0  0  0  0  0  0  0  0  0  0  0
   -4.2817   26.7992    4.5853 O   0  0  0  0  0  0  0  0  0  0  0  0
   -2.9666   26.7748    4.9429 C   0  0  0  0  0  0  0  0  0  0  0  0
   -2.3960   27.3131    6.0899 C   0  0  0  0  0  0  0  0  0  0  0  0
   -5.6377   25.9186    2.5905 C   0  0  0  0  0  0  0  0  0  0  0  0
   -6.1891   24.5256    2.4303 C   0  0  0  0  0  0  0  0  0  0  0  0
   -5.5908   25.2348    1.2487 C   0  0  0  0  0  0  0  0  0  0  0  0
    0.4945   29.0897    7.2464 S   0  0  0  0  0  0  0  0  0  0  0  0
    0.7855   29.3605    5.8553 O   0  0  0  0  0  0  0  0  0  0  0  0
    1.5532   29.0247    8.2319 O   0  0  0  0  0  0  0  0  0  0  0  0
   -5.6179   33.5260    8.0384 C   0  0  0  0  0  0  0  0  0  0  0  0
   -4.1267   33.3219    7.8260 C   0  0  0  0  0  0  0  0  0  0  0  0
   -3.8233   32.2044    6.8155 C   0  0  0  0  0  0  0  0  0  0  0  0
   -2.6235   31.6226    7.4593 C   0  0  0  0  0  0  0  0  0  0  0  0
   -1.7159   30.7031    6.9653 C   0  0  0  0  0  0  0  0  0  0  0  0
   -0.6999   30.2685    7.8267 C   0  0  0  0  0  0  0  0  0  0  0  0
   -0.5956   30.7566    9.1441 C   0  0  0  0  0  0  0  0  0  0  0  0
   -1.5302   31.6779    9.6213 C   0  0  0  0  0  0  0  0  0  0  0  0
   -2.5261   32.0941    8.7601 C   0  0  0  0  0  0  0  0  0  0  0  0
   -3.5124   32.9829    9.0977 O   0  0  0  0  0  0  0  0  0  0  0  0
 18 19  1  0  0  0
 19 20  1  0  0  0
 20 21  1  0  0  0
 21 22  1  0  0  0
 22 23  2  0  0  0
 23 15  1  0  0  0
 15 16  2  0  0  0
 15 17  2  0  0  0
 15  1  1  0  0  0
  1  3  1  0  0  0
  3  4  2  0  0  0
  4  5  1  0  0  0
  5  6  2  0  0  0
  6  7  1  0  0  0
  7  8  2  0  0  0
  8 12  1  0  0  0
 12 13  1  0  0  0
 13 14  1  0  0  0
  8  9  1  0  0  0
  9 10  1  0  0  0
 10 11  2  0  0  0
 23 24  1  0  0  0
 24 25  2  0  0  0
 25 26  1  0  0  0
 26 27  1  0  0  0
 27 19  1  0  0  0
 26 21  2  0  0  0
 11  3  1  0  0  0
 10  6  1  0  0  0
 14 12  1  0  0  0
  1  2  1  0  0  0
M  END
> <minimizedAffinity>
-10.53844

$$$$
OCNT-2315230


 22 24  0  0  0  0  0  0  0  0999 V2000
   -1.8598   28.7967    6.7829 N   0  0  0  0  0  0  0  0  0  0  0  0
   -2.4263   27.5562    6.6063 C   0  0  0  0  0  0  0  0  0  0  0  0
   -2.0028   26.5328    7.1309 O   0  0  0  0  0  0  0  0  0  0  0  0
   -2.1015   29.5515    6.1540 H   0  0  0  0  0  0  0  0  0  0  0  0
   -3.5757   27.5206    5.6843 C   0  0  0  0  0  0  0  0  0  0  0  0
   -4.7075   28.1949    5.9704 C   0  0  0  0  0  0  0  0  0  0  0  0
   -5.9643   27.9962    4.7388 S   0  0  0  0  0  0  0  0  0  0  0  0
   -4.8743   26.9968    3.8371 C   0  0  0  0  0  0  0  0  0  0  0  0
   -4.7944   26.2794    2.6815 C   0  0  0  0  0  0  0  0  0  0  0  0
   -3.5358   25.7137    2.5861 N   0  0  0  0  0  0  0  0  0  0  0  0
   -2.8815   26.1060    3.6660 C   0  0  0  0  0  0  0  0  0  0  0  0
   -3.6751   26.8665    4.4756 N   0  0  0  0  0  0  0  0  0  0  0  0
   -0.6513   28.9596    7.5709 C   0  0  0  0  0  0  0  0  0  0  0  0
   -0.7782   30.1172    8.5561 C   0  0  0  0  0  0  0  0  0  0  0  0
   -5.0346   33.8901    8.0892 C   0  0  0  0  0  0  0  0  0  0  0  0
   -4.3474   32.5573    8.4387 C   0  0  0  0  0  0  0  0  0  0  0  0
   -5.4409   31.5867    8.9293 C   0  0  0  0  0  0  0  0  0  0  0  0
   -3.3089   32.7953    9.5491 C   0  0  0  0  0  0  0  0  0  0  0  0
   -2.4508   31.5615    9.8299 C   0  0  0  0  0  0  0  0  0  0  0  0
   -2.1812   30.7315    8.5687 C   0  0  0  0  0  0  0  0  0  0  0  0
   -2.3053   31.5620    7.4133 O   0  0  0  0  0  0  0  0  0  0  0  0
   -3.6534   31.9836    7.1781 C   0  0  0  0  0  0  0  0  0  0  0  0
 15 16  1  0  0  0
 16 17  1  0  0  0
 16 18  1  0  0  0
 18 19  1  0  0  0
 19 20  1  0  0  0
 20 14  1  0  0  0
 14 13  1  0  0  0
 13  1  1  0  0  0
  1  2  1  0  0  0
  2  3  2  0  0  0
  2  5  1  0  0  0
  5  6  2  0  0  0
  6  7  1  0  0  0
  7  8  1  0  0  0
  8  9  2  0  0  0
  9 10  1  0  0  0
 10 11  2  0  0  0
 11 12  1  0  0  0
 20 21  1  0  0  0
 21 22  1  0  0  0
 22 16  1  0  0  0
 12  5  1  0  0  0
 12  8  1  0  0  0
  1  4  1  0  0  0
M  END
> <minimizedAffinity>
-8.04889

$$$$
OCNT-2315245


 28 31  0  0  0  0  0  0  0  0999 V2000
   -4.7777   28.9018    6.7799 C   0  0  0  0  0  0  0  0  0  0  0  0
   -5.7418   28.7654    7.5139 O   0  0  0  0  0  0  0  0  0  0  0  0
   -4.8157   28.9365    5.4045 N   0  0  0  0  0  0  0  0  0  0  0  0
   -3.9225   28.7854    4.9439 H   0  0  0  0  0  0  0  0  0  0  0  0
    0.4018   29.0381    8.7104 O   0  0  0  0  0  0  0  0  0  0  0  0
   -0.7539   29.0734    8.3046 C   0  0  0  0  0  0  0  0  0  0  0  0
   -1.2718   28.1026    7.4801 N   0  0  0  0  0  0  0  0  0  0  0  0
   -2.5466   28.0529    7.0016 N   0  0  0  0  0  0  0  0  0  0  0  0
   -3.3628   29.0124    7.3420 C   0  0  0  0  0  0  0  0  0  0  0  0
   -2.9751   30.1569    8.1895 C   0  0  0  0  0  0  0  0  0  0  0  0
   -3.8361   31.2127    8.5104 C   0  0  0  0  0  0  0  0  0  0  0  0
   -3.3846   32.2626    9.3164 C   0  0  0  0  0  0  0  0  0  0  0  0
   -2.0766   32.2671    9.7995 C   0  0  0  0  0  0  0  0  0  0  0  0
   -1.2130   31.2221    9.4752 C   0  0  0  0  0  0  0  0  0  0  0  0
   -1.6659   30.1714    8.6681 C   0  0  0  0  0  0  0  0  0  0  0  0
   -0.6550   27.3359    7.2273 H   0  0  0  0  0  0  0  0  0  0  0  0
   -6.0282   28.6006    4.7036 C   0  0  0  0  0  0  0  0  0  0  0  0
   -5.9477   27.2239    4.1194 C   0  0  0  0  0  0  0  0  0  0  0  0
   -5.7096   27.0157    2.7595 C   0  0  0  0  0  0  0  0  0  0  0  0
   -5.6650   25.7173    2.2491 C   0  0  0  0  0  0  0  0  0  0  0  0
   -5.8690   24.6505    3.1198 C   0  0  0  0  0  0  0  0  0  0  0  0
   -6.1129   24.8306    4.4438 N   0  0  0  0  0  0  0  0  0  0  0  0
   -6.1500   26.1001    4.9089 C   0  0  0  0  0  0  0  0  0  0  0  0
   -5.8309   23.3118    2.6424 N   0  0  0  0  0  0  0  0  0  0  0  0
   -6.2693   22.8053    1.4380 C   0  0  0  0  0  0  0  0  0  0  0  0
   -6.0008   21.4565    1.4786 C   0  0  0  0  0  0  0  0  0  0  0  0
   -5.4133   21.1111    2.6623 N   0  0  0  0  0  0  0  0  0  0  0  0
   -5.3232   22.2365    3.3379 C   0  0  0  0  0  0  0  0  0  0  0  0
  5  6  2  0  0  0
  6  7  1  0  0  0
  7  8  1  0  0  0
  8  9  2  0  0  0
  9  1  1  0  0  0
  1  2  2  0  0  0
  1  3  1  0  0  0
  3 17  1  0  0  0
 17 18  1  0  0  0
 18 19  2  0  0  0
 19 20  1  0  0  0
 20 21  2  0  0  0
 21 24  1  0  0  0
 24 25  1  0  0  0
 25 26  2  0  0  0
 26 27  1  0  0  0
 27 28  2  0  0  0
 21 22  1  0  0  0
 22 23  2  0  0  0
  9 10  1  0  0  0
 10 11  2  0  0  0
 11 12  1  0  0  0
 12 13  2  0  0  0
 13 14  1  0  0  0
 14 15  2  0  0  0
 15  6  1  0  0  0
 23 18  1  0  0  0
 15 10  1  0  0  0
 28 24  1  0  0  0
  7 16  1  0  0  0
  3  4  1  0  0  0
M  END
> <minimizedAffinity>
-10.10615

$$$$
OCNT-2315252


 30 32  0  0  0  0  0  0  0  0999 V2000
   -6.1409   28.6533    7.1329 N   0  0  0  0  0  0  0  0  0  0  0  0
   -5.5929   28.4193    5.8843 C   0  0  0  0  0  0  0  0  0  0  0  0
   -5.4846   29.2979    5.0399 O   0  0  0  0  0  0  0  0  0  0  0  0
   -5.1843   27.1078    5.7773 N   0  0  0  0  0  0  0  0  0  0  0  0
   -6.6697   27.8727    7.4965 H   0  0  0  0  0  0  0  0  0  0  0  0
   -5.0388   26.6490    6.6628 H   0  0  0  0  0  0  0  0  0  0  0  0
   -4.6782   26.4621    4.6255 C   0  0  0  0  0  0  0  0  0  0  0  0
   -5.5300   25.9393    3.6392 C   0  0  0  0  0  0  0  0  0  0  0  0
   -5.0377   25.2876    2.4925 C   0  0  0  0  0  0  0  0  0  0  0  0
   -3.6483   25.1686    2.3583 C   0  0  0  0  0  0  0  0  0  0  0  0
   -2.7853   25.6637    3.3383 C   0  0  0  0  0  0  0  0  0  0  0  0
   -3.2854   26.3092    4.4801 C   0  0  0  0  0  0  0  0  0  0  0  0
   -2.3052   26.8162    5.5021 C   0  0  0  0  0  0  0  0  0  0  0  0
   -5.9546   24.7446    1.4746 C   0  0  0  0  0  0  0  0  0  0  0  0
   -6.1589   25.3787    0.2407 C   0  0  0  0  0  0  0  0  0  0  0  0
   -7.0394   24.8389   -0.6961 C   0  0  0  0  0  0  0  0  0  0  0  0
   -7.6995   23.6657   -0.3775 C   0  0  0  0  0  0  0  0  0  0  0  0
   -7.5391   23.0133    0.7917 N   0  0  0  0  0  0  0  0  0  0  0  0
   -6.6803   23.5691    1.6825 C   0  0  0  0  0  0  0  0  0  0  0  0
   -6.6771   29.9701    7.4394 C   0  0  0  0  0  0  0  0  0  0  0  0
   -5.6652   30.8879    8.1319 C   0  0  0  0  0  0  0  0  0  0  0  0
   -4.8390   30.1399    9.0264 O   0  0  0  0  0  0  0  0  0  0  0  0
   -1.2635   29.7251    8.5017 C   0  0  0  0  0  0  0  0  0  0  0  0
   -0.7328   30.8662    9.1006 C   0  0  0  0  0  0  0  0  0  0  0  0
   -1.5852   31.7979    9.6995 C   0  0  0  0  0  0  0  0  0  0  0  0
   -2.9689   31.5977    9.7002 C   0  0  0  0  0  0  0  0  0  0  0  0
   -3.5102   30.4637    9.0977 C   0  0  0  0  0  0  0  0  0  0  0  0
   -2.6499   29.5307    8.5105 C   0  0  0  0  0  0  0  0  0  0  0  0
    0.4447   29.1422    6.9536 C   0  0  0  0  0  0  0  0  0  0  0  0
   -0.5481   28.7341    7.8859 O   0  0  0  0  0  0  0  0  0  0  0  0
 29 30  1  0  0  0
 30 23  1  0  0  0
 23 24  1  0  0  0
 24 25  2  0  0  0
 25 26  1  0  0  0
 26 27  2  0  0  0
 27 22  1  0  0  0
 22 21  1  0  0  0
 21 20  1  0  0  0
 20  1  1  0  0  0
  1  2  1  0  0  0
  2  3  2  0  0  0
  2  4  1  0  0  0
  4  7  1  0  0  0
  7  8  1  0  0  0
  8  9  2  0  0  0
  9 14  1  0  0  0
 14 15  1  0  0  0
 15 16  2  0  0  0
 16 17  1  0  0  0
 17 18  2  0  0  0
 18 19  1  0  0  0
  9 10  1  0  0  0
 10 11  2  0  0  0
 11 12  1  0  0  0
 12 13  1  0  0  0
 27 28  1  0  0  0
 28 23  2  0  0  0
 12  7  2  0  0  0
 19 14  2  0  0  0
  1  5  1  0  0  0
  4  6  1  0  0  0
M  END
> <minimizedAffinity>
-9.86386

$$$$
OCNT-2315259


 23 25  0  0  0  0  0  0  0  0999 V2000
   -5.6949   29.8748    6.5869 C   0  0  0  0  0  0  0  0  0  0  0  0
   -5.4765   29.6036    7.8829 N   0  0  0  0  0  0  0  0  0  0  0  0
   -4.2860   30.2782    8.1558 O   0  0  0  0  0  0  0  0  0  0  0  0
   -3.8996   30.8709    6.9884 C   0  0  0  0  0  0  0  0  0  0  0  0
   -4.7253   30.6464    5.9898 N   0  0  0  0  0  0  0  0  0  0  0  0
   -6.8597   29.3310    5.8429 C   0  0  0  0  0  0  0  0  0  0  0  0
   -6.1948   29.7155    2.9106 C   0  0  0  0  0  0  0  0  0  0  0  0
   -6.0243   28.3890    3.6011 C   0  0  0  0  0  0  0  0  0  0  0  0
   -5.5360   27.2997    2.8575 C   0  0  0  0  0  0  0  0  0  0  0  0
   -5.3570   26.0530    3.4545 C   0  0  0  0  0  0  0  0  0  0  0  0
   -4.7601   24.7357    2.5217 Cl  0  0  0  0  0  0  0  0  0  0  0  0
   -5.6573   25.8676    4.7980 C   0  0  0  0  0  0  0  0  0  0  0  0
   -6.1397   26.9388    5.5501 C   0  0  0  0  0  0  0  0  0  0  0  0
   -6.3300   28.2100    4.9697 C   0  0  0  0  0  0  0  0  0  0  0  0
   -2.6506   31.6695    7.0260 C   0  0  0  0  0  0  0  0  0  0  0  0
   -1.4439   30.8547    7.4311 C   0  0  0  0  0  0  0  0  0  0  0  0
   -1.0009   30.8484    8.7622 C   0  0  0  0  0  0  0  0  0  0  0  0
    0.1058   30.0835    9.1336 C   0  0  0  0  0  0  0  0  0  0  0  0
    0.7677   29.3193    8.1805 C   0  0  0  0  0  0  0  0  0  0  0  0
    1.8430   28.5872    8.5887 O   0  0  0  0  0  0  0  0  0  0  0  0
    0.3404   29.3038    6.8572 C   0  0  0  0  0  0  0  0  0  0  0  0
   -0.7665   30.0696    6.4841 C   0  0  0  0  0  0  0  0  0  0  0  0
    2.1922   28.0987    7.8257 H   0  0  0  0  0  0  0  0  0  0  0  0
  7  8  1  0  0  0
  8  9  1  0  0  0
  9 10  2  0  0  0
 10 11  1  0  0  0
 10 12  1  0  0  0
 12 13  2  0  0  0
 13 14  1  0  0  0
 14  6  1  0  0  0
  6  1  1  0  0  0
  1  2  2  0  0  0
  2  3  1  0  0  0
  3  4  1  0  0  0
  4 15  1  0  0  0
 15 16  1  0  0  0
 16 17  1  0  0  0
 17 18  2  0  0  0
 18 19  1  0  0  0
 19 20  1  0  0  0
 19 21  2  0  0  0
 21 22  1  0  0  0
  4  5  2  0  0  0
 14  8  2  0  0  0
  5  1  1  0  0  0
 22 16  2  0  0  0
 20 23  1  0  0  0
M  END
> <minimizedAffinity>
-9.21642

$$$$
OCNT-2315261


 28 30  0  0  0  0  0  0  0  0999 V2000
   -5.4179   26.8535    4.1395 C   0  0  0  0  0  0  0  0  0  0  0  0
   -5.2952   26.5575    2.7980 C   0  0  0  0  0  0  0  0  0  0  0  0
   -5.6846   25.2964    2.3833 C   0  0  0  0  0  0  0  0  0  0  0  0
   -6.1824   24.3849    3.2538 N   0  0  0  0  0  0  0  0  0  0  0  0
   -6.2867   24.7578    4.5404 C   0  0  0  0  0  0  0  0  0  0  0  0
   -5.9230   25.9659    5.0071 N   0  0  0  0  0  0  0  0  0  0  0  0
   -6.8316   23.7853    5.4960 C   0  0  0  0  0  0  0  0  0  0  0  0
   -6.0263   22.8549    6.1729 C   0  0  0  0  0  0  0  0  0  0  0  0
   -6.5849   21.9479    7.0739 C   0  0  0  0  0  0  0  0  0  0  0  0
   -7.9510   21.9890    7.2830 C   0  0  0  0  0  0  0  0  0  0  0  0
   -8.7724   22.8587    6.6622 N   0  0  0  0  0  0  0  0  0  0  0  0
   -8.1945   23.7272    5.7910 C   0  0  0  0  0  0  0  0  0  0  0  0
   -5.5745   24.9457    0.9101 C   0  0  0  0  0  0  0  0  0  0  0  0
   -6.3284   25.7657    0.1228 F   0  0  0  0  0  0  0  0  0  0  0  0
   -5.9615   23.6751    0.6075 F   0  0  0  0  0  0  0  0  0  0  0  0
   -4.2971   25.0645    0.4421 F   0  0  0  0  0  0  0  0  0  0  0  0
   -5.0640   28.1430    4.5648 N   0  0  0  0  0  0  0  0  0  0  0  0
   -4.1854   28.4238    4.1369 H   0  0  0  0  0  0  0  0  0  0  0  0
   -4.9980   28.3164    6.0126 C   0  0  0  0  0  0  0  0  0  0  0  0
   -1.6408   29.3483    7.0621 C   0  0  0  0  0  0  0  0  0  0  0  0
   -2.1911   30.5417    7.0201 N   0  0  0  0  0  0  0  0  0  0  0  0
   -3.4910   30.3464    6.6435 C   0  0  0  0  0  0  0  0  0  0  0  0
   -3.7499   29.0110    6.4265 C   0  0  0  0  0  0  0  0  0  0  0  0
   -2.5436   28.3858    6.6617 N   0  0  0  0  0  0  0  0  0  0  0  0
   -2.2669   26.9817    6.4703 C   0  0  0  0  0  0  0  0  0  0  0  0
    0.0746   29.5596    8.7022 C   0  0  0  0  0  0  0  0  0  0  0  0
   -0.3554   29.0407    7.3999 N   0  0  0  0  0  0  0  0  0  0  0  0
    0.6165   29.3253    6.3372 C   0  0  0  0  0  0  0  0  0  0  0  0
 26 27  1  0  0  0
 27 28  1  0  0  0
 27 20  1  0  0  0
 20 21  2  0  0  0
 21 22  1  0  0  0
 22 23  2  0  0  0
 23 19  1  0  0  0
 19 17  1  0  0  0
 17  1  1  0  0  0
  1  2  2  0  0  0
  2  3  1  0  0  0
  3 13  1  0  0  0
 13 14  1  0  0  0
 13 15  1  0  0  0
 13 16  1  0  0  0
  3  4  2  0  0  0
  4  5  1  0  0  0
  5  7  1  0  0  0
  7  8  1  0  0  0
  8  9  2  0  0  0
  9 10  1  0  0  0
 10 11  2  0  0  0
 11 12  1  0  0  0
  5  6  2  0  0  0
 23 24  1  0  0  0
 24 25  1  0  0  0
 24 20  1  0  0  0
  6  1  1  0  0  0
 12  7  2  0  0  0
 17 18  1  0  0  0
M  END
> <minimizedAffinity>
-8.87336

$$$$
OCNT-2315271


 24 26  0  0  0  0  0  0  0  0999 V2000
   -6.3069   28.5512    6.1511 C   0  0  0  0  0  0  0  0  0  0  0  0
   -7.2751   28.4269    6.8912 O   0  0  0  0  0  0  0  0  0  0  0  0
   -5.3732   29.5585    6.2821 N   0  0  0  0  0  0  0  0  0  0  0  0
   -4.7376   29.7431    5.5181 H   0  0  0  0  0  0  0  0  0  0  0  0
   -5.9017   25.3781    4.0960 C   0  0  0  0  0  0  0  0  0  0  0  0
   -6.0935   26.2274    5.1909 C   0  0  0  0  0  0  0  0  0  0  0  0
   -6.1095   27.6178    5.0100 C   0  0  0  0  0  0  0  0  0  0  0  0
   -5.9617   28.1589    3.7306 C   0  0  0  0  0  0  0  0  0  0  0  0
   -5.7651   27.3169    2.6374 C   0  0  0  0  0  0  0  0  0  0  0  0
   -5.7250   25.9256    2.8108 C   0  0  0  0  0  0  0  0  0  0  0  0
   -5.5168   25.0335    1.6171 C   0  0  0  0  0  0  0  0  0  0  0  0
   -6.1658   23.4045    5.4162 C   0  0  0  0  0  0  0  0  0  0  0  0
   -5.8679   24.0092    4.1647 O   0  0  0  0  0  0  0  0  0  0  0  0
   -5.5222   30.5888    7.2964 C   0  0  0  0  0  0  0  0  0  0  0  0
   -4.2829   30.6995    8.2069 C   0  0  0  0  0  0  0  0  0  0  0  0
   -3.3887   31.8076    7.8197 N   0  0  0  0  0  0  0  0  0  0  0  0
   -2.6485   32.3508    8.9854 C   0  0  0  0  0  0  0  0  0  0  0  0
   -1.6454   31.3788    9.6467 C   0  0  0  0  0  0  0  0  0  0  0  0
   -0.9099   30.6304    8.5843 C   0  0  0  0  0  0  0  0  0  0  0  0
   -1.2868   30.6210    7.2555 C   0  0  0  0  0  0  0  0  0  0  0  0
   -0.4230   29.7802    6.4879 C   0  0  0  0  0  0  0  0  0  0  0  0
    0.5590   29.1974    7.2612 C   0  0  0  0  0  0  0  0  0  0  0  0
    0.4445   29.6601    8.9059 S   0  0  0  0  0  0  0  0  0  0  0  0
   -2.4464   31.4271    6.7380 C   0  0  0  0  0  0  0  0  0  0  0  0
 12 13  1  0  0  0
 13  5  1  0  0  0
  5  6  1  0  0  0
  6  7  2  0  0  0
  7  1  1  0  0  0
  1  2  2  0  0  0
  1  3  1  0  0  0
  3 14  1  0  0  0
 14 15  1  0  0  0
 15 16  1  0  0  0
 16 17  1  0  0  0
 17 18  1  0  0  0
 18 19  1  0  0  0
 19 20  2  0  0  0
 20 21  1  0  0  0
 21 22  2  0  0  0
 22 23  1  0  0  0
 20 24  1  0  0  0
  7  8  1  0  0  0
  8  9  2  0  0  0
  9 10  1  0  0  0
 10 11  1  0  0  0
 10  5  2  0  0  0
 24 16  1  0  0  0
 23 19  1  0  0  0
  3  4  1  0  0  0
M  END
> <minimizedAffinity>
-8.61235

$$$$
OCNT-2315273


 33 37  0  0  0  0  0  0  0  0999 V2000
   -6.1973   24.7358    2.2854 C   0  0  0  0  0  0  0  0  0  0  0  0
   -5.4807   25.2758    1.4477 O   0  0  0  0  0  0  0  0  0  0  0  0
   -6.2195   25.0266    3.6428 N   0  0  0  0  0  0  0  0  0  0  0  0
   -6.7978   24.4372    4.2299 H   0  0  0  0  0  0  0  0  0  0  0  0
   -6.7806   22.2823    2.0503 N   0  0  0  0  0  0  0  0  0  0  0  0
   -6.2595   21.7964    0.8574 C   0  0  0  0  0  0  0  0  0  0  0  0
   -5.6391   20.7569    0.7027 O   0  0  0  0  0  0  0  0  0  0  0  0
   -6.5591   22.7970   -0.2311 C   0  0  0  0  0  0  0  0  0  0  0  0
   -7.5712   23.7358    0.4198 C   0  0  0  0  0  0  0  0  0  0  0  0
   -7.2358   23.6533    1.9050 C   0  0  0  0  0  0  0  0  0  0  0  0
   -6.3544   21.7256    3.3234 C   0  0  0  0  0  0  0  0  0  0  0  0
  -10.6191   21.6821    7.2889 C   0  0  0  0  0  0  0  0  0  0  0  0
   -9.5301   21.7232    6.2576 C   0  0  0  0  0  0  0  0  0  0  0  0
   -9.7597   21.2499    4.9608 C   0  0  0  0  0  0  0  0  0  0  0  0
   -8.7331   21.2496    4.0149 C   0  0  0  0  0  0  0  0  0  0  0  0
   -7.4539   21.7093    4.3534 C   0  0  0  0  0  0  0  0  0  0  0  0
   -7.2231   22.1758    5.6538 C   0  0  0  0  0  0  0  0  0  0  0  0
   -8.2513   22.1768    6.5990 C   0  0  0  0  0  0  0  0  0  0  0  0
   -5.5020   26.0439    4.3067 C   0  0  0  0  0  0  0  0  0  0  0  0
   -6.0101   27.2909    4.6320 C   0  0  0  0  0  0  0  0  0  0  0  0
   -5.2117   28.2046    5.3311 C   0  0  0  0  0  0  0  0  0  0  0  0
   -3.9054   27.8764    5.6965 C   0  0  0  0  0  0  0  0  0  0  0  0
   -3.4070   26.6605    5.3875 N   0  0  0  0  0  0  0  0  0  0  0  0
   -4.1952   25.7908    4.7080 C   0  0  0  0  0  0  0  0  0  0  0  0
   -3.1298   28.7670    6.4478 N   0  0  0  0  0  0  0  0  0  0  0  0
   -1.7556   28.3252    6.7775 C   0  0  0  0  0  0  0  0  0  0  0  0
   -0.8930   29.5173    7.2499 C   0  0  0  0  0  0  0  0  0  0  0  0
   -1.6299   30.3053    8.2899 C   0  0  0  0  0  0  0  0  0  0  0  0
   -3.0008   30.2632    8.4512 C   0  0  0  0  0  0  0  0  0  0  0  0
   -3.4253   31.1328    9.5006 C   0  0  0  0  0  0  0  0  0  0  0  0
   -2.3653   31.7990   10.0794 C   0  0  0  0  0  0  0  0  0  0  0  0
   -0.8675   31.3786    9.3596 S   0  0  0  0  0  0  0  0  0  0  0  0
   -3.8557   29.3617    7.5964 C   0  0  0  0  0  0  0  0  0  0  0  0
 12 13  1  0  0  0
 13 14  1  0  0  0
 14 15  2  0  0  0
 15 16  1  0  0  0
 16 11  1  0  0  0
 11  5  1  0  0  0
  5  6  1  0  0  0
  6  7  2  0  0  0
  6  8  1  0  0  0
  8  9  1  0  0  0
  9 10  1  0  0  0
 10  1  1  0  0  0
  1  2  2  0  0  0
  1  3  1  0  0  0
  3 19  1  0  0  0
 19 20  2  0  0  0
 20 21  1  0  0  0
 21 22  2  0  0  0
 22 25  1  0  0  0
 25 26  1  0  0  0
 26 27  1  0  0  0
 27 28  1  0  0  0
 28 29  2  0  0  0
 29 30  1  0  0  0
 30 31  2  0  0  0
 31 32  1  0  0  0
 29 33  1  0  0  0
 22 23  1  0  0  0
 23 24  2  0  0  0
 16 17  2  0  0  0
 17 18  1  0  0  0
 18 13  2  0  0  0
 10  5  1  0  0  0
 24 19  1  0  0  0
 33 25  1  0  0  0
 32 28  1  0  0  0
  3  4  1  0  0  0
M  END
> <minimizedAffinity>
-10.48893

$$$$
OCNT-2315284


 24 26  0  0  0  0  0  0  0  0999 V2000
   -3.7887   26.8079    5.1641 C   0  0  0  0  0  0  0  0  0  0  0  0
   -5.0213   27.3355    5.5751 C   0  0  0  0  0  0  0  0  0  0  0  0
   -6.2332   26.8697    5.1751 N   0  0  0  0  0  0  0  0  0  0  0  0
   -6.1740   25.8345    4.3108 C   0  0  0  0  0  0  0  0  0  0  0  0
   -4.9730   25.3005    3.8741 C   0  0  0  0  0  0  0  0  0  0  0  0
   -3.7769   25.7780    4.2858 N   0  0  0  0  0  0  0  0  0  0  0  0
   -1.5825   27.7843    8.5451 O   0  0  0  0  0  0  0  0  0  0  0  0
   -1.2345   28.3599    7.2609 C   0  0  0  0  0  0  0  0  0  0  0  0
   -0.4264   27.3155    6.4881 C   0  0  0  0  0  0  0  0  0  0  0  0
   -1.5145   26.3979    5.9362 C   0  0  0  0  0  0  0  0  0  0  0  0
   -2.5790   27.3304    5.5820 N   0  0  0  0  0  0  0  0  0  0  0  0
   -2.5082   28.5409    6.4126 C   0  0  0  0  0  0  0  0  0  0  0  0
   -0.7889   27.8201    9.1122 H   0  0  0  0  0  0  0  0  0  0  0  0
   -0.4971   29.6875    7.4115 C   0  0  0  0  0  0  0  0  0  0  0  0
   -0.2377   29.9299    8.7196 F   0  0  0  0  0  0  0  0  0  0  0  0
    0.6804   29.6999    6.7525 F   0  0  0  0  0  0  0  0  0  0  0  0
   -1.2369   30.7198    6.9497 F   0  0  0  0  0  0  0  0  0  0  0  0
   -5.0377   24.2510    2.9814 O   0  0  0  0  0  0  0  0  0  0  0  0
   -6.0755   24.3523    1.9972 C   0  0  0  0  0  0  0  0  0  0  0  0
   -6.6297   22.9581    1.6537 C   0  0  0  0  0  0  0  0  0  0  0  0
   -7.1402   22.8315    0.2165 C   0  0  0  0  0  0  0  0  0  0  0  0
   -7.6117   24.1669   -0.3413 C   0  0  0  0  0  0  0  0  0  0  0  0
   -6.4861   25.2022   -0.3587 C   0  0  0  0  0  0  0  0  0  0  0  0
   -5.4587   25.0008    0.7551 C   0  0  0  0  0  0  0  0  0  0  0  0
  7  8  1  0  0  0
  8 14  1  0  0  0
 14 15  1  0  0  0
 14 16  1  0  0  0
 14 17  1  0  0  0
  8  9  1  0  0  0
  9 10  1  0  0  0
 10 11  1  0  0  0
 11  1  1  0  0  0
  1  2  2  0  0  0
  2  3  1  0  0  0
  3  4  2  0  0  0
  4  5  1  0  0  0
  5 18  1  0  0  0
 18 19  1  0  0  0
 19 20  1  0  0  0
 20 21  1  0  0  0
 21 22  1  0  0  0
 22 23  1  0  0  0
 23 24  1  0  0  0
  5  6  2  0  0  0
 11 12  1  0  0  0
 12  8  1  0  0  0
  6  1  1  0  0  0
 24 19  1  0  0  0
  7 13  1  0  0  0
M  END
> <minimizedAffinity>
-9.06820

$$$$
OCNT-2315285


 22 24  0  0  0  0  0  0  0  0999 V2000
   -2.7247   29.3336    7.4263 N   0  0  0  0  0  0  0  0  0  0  0  0
   -2.4514   27.9909    7.2353 C   0  0  0  0  0  0  0  0  0  0  0  0
   -1.8145   27.3463    8.0649 O   0  0  0  0  0  0  0  0  0  0  0  0
   -3.4614   29.7427    6.8693 H   0  0  0  0  0  0  0  0  0  0  0  0
   -3.0029   27.4195    6.0186 C   0  0  0  0  0  0  0  0  0  0  0  0
   -2.4824   26.6042    5.0144 C   0  0  0  0  0  0  0  0  0  0  0  0
   -1.1218   26.0120    4.9303 C   0  0  0  0  0  0  0  0  0  0  0  0
   -3.5423   26.4134    4.0698 C   0  0  0  0  0  0  0  0  0  0  0  0
   -3.6925   25.7239    2.8503 C   0  0  0  0  0  0  0  0  0  0  0  0
   -4.9366   25.7688    2.2054 C   0  0  0  0  0  0  0  0  0  0  0  0
   -5.1564   24.8507    0.5642 Br  0  0  0  0  0  0  0  0  0  0  0  0
   -6.0148   26.4727    2.7455 C   0  0  0  0  0  0  0  0  0  0  0  0
   -5.8838   27.1597    3.9567 C   0  0  0  0  0  0  0  0  0  0  0  0
   -4.6367   27.0998    4.5749 C   0  0  0  0  0  0  0  0  0  0  0  0
   -4.3167   27.6964    5.7485 O   0  0  0  0  0  0  0  0  0  0  0  0
   -0.9584   30.7121    8.5697 C   0  0  0  0  0  0  0  0  0  0  0  0
   -1.0185   31.8382    9.4687 O   0  0  0  0  0  0  0  0  0  0  0  0
   -2.3655   31.9655    9.9445 C   0  0  0  0  0  0  0  0  0  0  0  0
   -3.2365   31.1779    8.9931 C   0  0  0  0  0  0  0  0  0  0  0  0
   -2.3288   30.0140    8.6489 C   0  0  0  0  0  0  0  0  0  0  0  0
    1.0368   29.2017    8.0660 C   0  0  0  0  0  0  0  0  0  0  0  0
    0.2688   29.9125    8.9032 C   0  0  0  0  0  0  0  0  0  0  0  0
 21 22  2  0  0  0
 22 16  1  0  0  0
 16 17  1  0  0  0
 17 18  1  0  0  0
 18 19  1  0  0  0
 19 20  1  0  0  0
 20  1  1  0  0  0
  1  2  1  0  0  0
  2  3  2  0  0  0
  2  5  1  0  0  0
  5  6  2  0  0  0
  6  7  1  0  0  0
  6  8  1  0  0  0
  8  9  2  0  0  0
  9 10  1  0  0  0
 10 11  1  0  0  0
 10 12  2  0  0  0
 12 13  1  0  0  0
 13 14  2  0  0  0
 14 15  1  0  0  0
 20 16  1  0  0  0
 15  5  1  0  0  0
 14  8  1  0  0  0
  1  4  1  0  0  0
M  END
> <minimizedAffinity>
-8.60869

$$$$
OCNT-2315318


 24 25  0  0  0  0  0  0  0  0999 V2000
   -2.6317   26.9550    5.7692 C   0  0  0  0  0  0  0  0  0  0  0  0
   -2.2137   26.3247    6.7320 O   0  0  0  0  0  0  0  0  0  0  0  0
   -3.0377   28.2796    5.7690 N   0  0  0  0  0  0  0  0  0  0  0  0
   -3.5949   28.5772    4.9761 H   0  0  0  0  0  0  0  0  0  0  0  0
   -3.0029   29.1431    6.8544 C   0  0  0  0  0  0  0  0  0  0  0  0
   -1.8685   29.7794    7.3377 C   0  0  0  0  0  0  0  0  0  0  0  0
   -0.4794   29.6833    6.8172 C   0  0  0  0  0  0  0  0  0  0  0  0
   -2.3222   30.5959    8.4182 C   0  0  0  0  0  0  0  0  0  0  0  0
   -3.6398   30.4304    8.6198 N   0  0  0  0  0  0  0  0  0  0  0  0
   -4.0252   29.5205    7.6979 N   0  0  0  0  0  0  0  0  0  0  0  0
   -5.3567   28.9774    7.8417 C   0  0  0  0  0  0  0  0  0  0  0  0
   -1.4829   31.5264    9.2570 C   0  0  0  0  0  0  0  0  0  0  0  0
   -2.0803   31.7988   10.4514 F   0  0  0  0  0  0  0  0  0  0  0  0
   -1.3060   32.7290    8.6413 F   0  0  0  0  0  0  0  0  0  0  0  0
   -0.2431   31.0501    9.5443 F   0  0  0  0  0  0  0  0  0  0  0  0
   -2.8186   26.3251    4.3934 C   0  0  0  0  0  0  0  0  0  0  0  0
   -5.8797   26.5374    3.3451 C   0  0  0  0  0  0  0  0  0  0  0  0
   -5.7979   25.6537    2.0956 C   0  0  0  0  0  0  0  0  0  0  0  0
   -4.3845   25.1318    1.8463 C   0  0  0  0  0  0  0  0  0  0  0  0
   -3.8364   24.3919    3.0651 C   0  0  0  0  0  0  0  0  0  0  0  0
   -3.8953   25.2234    4.3584 C   0  0  0  0  0  0  0  0  0  0  0  0
   -5.3138   25.7945    4.5634 C   0  0  0  0  0  0  0  0  0  0  0  0
   -5.9386   28.9230    3.3102 C   0  0  0  0  0  0  0  0  0  0  0  0
   -5.1406   27.7530    3.1836 O   0  0  0  0  0  0  0  0  0  0  0  0
 23 24  1  0  0  0
 24 17  1  0  0  0
 17 18  1  0  0  0
 18 19  1  0  0  0
 19 20  1  0  0  0
 20 21  1  0  0  0
 21 16  1  0  0  0
 16  1  1  0  0  0
  1  2  2  0  0  0
  1  3  1  0  0  0
  3  5  1  0  0  0
  5  6  2  0  0  0
  6  7  1  0  0  0
  6  8  1  0  0  0
  8 12  1  0  0  0
 12 13  1  0  0  0
 12 14  1  0  0  0
 12 15  1  0  0  0
  8  9  2  0  0  0
  9 10  1  0  0  0
 10 11  1  0  0  0
 21 22  1  0  0  0
 22 17  1  0  0  0
 10  5  1  0  0  0
  3  4  1  0  0  0
M  END
> <minimizedAffinity>
-8.31710

$$$$
OCNT-2315321


 24 25  0  0  0  0  0  0  0  0999 V2000
   -1.8035   27.5453    7.3796 C   0  0  0  0  0  0  0  0  0  0  0  0
   -2.8023   28.1942    6.4207 C   0  0  0  0  0  0  0  0  0  0  0  0
   -3.5714   27.0792    5.6708 C   0  0  0  0  0  0  0  0  0  0  0  0
   -4.6797   27.5829    4.8538 N   0  0  0  0  0  0  0  0  0  0  0  0
   -5.1498   26.9774    3.6832 C   0  0  0  0  0  0  0  0  0  0  0  0
   -6.0879   27.4871    3.0576 O   0  0  0  0  0  0  0  0  0  0  0  0
   -5.3743   28.7658    5.3620 C   0  0  0  0  0  0  0  0  0  0  0  0
   -5.1649   28.9568    6.8678 C   0  0  0  0  0  0  0  0  0  0  0  0
   -3.7132   29.1058    7.2121 N   0  0  0  0  0  0  0  0  0  0  0  0
   -3.1698   30.7241    7.3369 S   0  0  0  0  0  0  0  0  0  0  0  0
   -2.5402   30.7479    9.0027 C   0  0  0  0  0  0  0  0  0  0  0  0
   -4.3284   31.5866    7.2634 O   0  0  0  0  0  0  0  0  0  0  0  0
   -2.0435   30.9018    6.4471 O   0  0  0  0  0  0  0  0  0  0  0  0
   -4.4506   25.6594    3.2049 C   0  0  0  0  0  0  0  0  0  0  0  0
   -3.7893   25.0722    4.2597 F   0  0  0  0  0  0  0  0  0  0  0  0
   -3.4365   25.9687    2.3306 F   0  0  0  0  0  0  0  0  0  0  0  0
   -5.4427   24.7077    2.5965 C   0  0  0  0  0  0  0  0  0  0  0  0
   -5.4855   24.5126    1.2178 C   0  0  0  0  0  0  0  0  0  0  0  0
   -4.6449   25.1860    0.4205 F   0  0  0  0  0  0  0  0  0  0  0  0
   -6.3818   23.6167    0.6363 C   0  0  0  0  0  0  0  0  0  0  0  0
   -7.2517   22.8861    1.4433 C   0  0  0  0  0  0  0  0  0  0  0  0
   -7.2102   23.0553    2.8262 C   0  0  0  0  0  0  0  0  0  0  0  0
   -6.3064   23.9562    3.3889 C   0  0  0  0  0  0  0  0  0  0  0  0
   -6.2783   24.0820    4.7222 F   0  0  0  0  0  0  0  0  0  0  0  0
  1  2  1  0  0  0
  2  3  1  0  0  0
  3  4  1  0  0  0
  4  5  1  0  0  0
  5  6  2  0  0  0
  5 14  1  0  0  0
 14 15  1  0  0  0
 14 16  1  0  0  0
 14 17  1  0  0  0
 17 18  2  0  0  0
 18 19  1  0  0  0
 18 20  1  0  0  0
 20 21  2  0  0  0
 21 22  1  0  0  0
 22 23  2  0  0  0
 23 24  1  0  0  0
  4  7  1  0  0  0
  7  8  1  0  0  0
  8  9  1  0  0  0
  9 10  1  0  0  0
 10 11  1  0  0  0
 10 12  2  0  0  0
 10 13  2  0  0  0
  9  2  1  0  0  0
 23 17  1  0  0  0
M  END
> <minimizedAffinity>
-8.44100

$$$$
OCNT-2315324


 31 33  0  0  0  0  0  0  0  0999 V2000
   -5.6237   28.6390    7.8010 N   0  0  0  0  0  0  0  0  0  0  0  0
   -5.7921   28.5691    6.4466 C   0  0  0  0  0  0  0  0  0  0  0  0
   -5.6460   29.5165    5.6868 O   0  0  0  0  0  0  0  0  0  0  0  0
   -6.1154   27.2984    6.0491 N   0  0  0  0  0  0  0  0  0  0  0  0
   -6.0510   27.9110    8.3529 H   0  0  0  0  0  0  0  0  0  0  0  0
   -5.7976   26.5672    6.6712 H   0  0  0  0  0  0  0  0  0  0  0  0
   -5.2925   29.8888    8.4655 C   0  0  0  0  0  0  0  0  0  0  0  0
   -0.9859   30.1767    8.9518 C   0  0  0  0  0  0  0  0  0  0  0  0
   -1.8286   31.1568    9.4721 C   0  0  0  0  0  0  0  0  0  0  0  0
   -3.2154   31.0483    9.3142 C   0  0  0  0  0  0  0  0  0  0  0  0
   -3.7852   29.9553    8.6420 C   0  0  0  0  0  0  0  0  0  0  0  0
   -2.9275   28.9822    8.1112 C   0  0  0  0  0  0  0  0  0  0  0  0
   -1.5432   29.0934    8.2706 C   0  0  0  0  0  0  0  0  0  0  0  0
    1.0542   29.1439    8.3041 C   0  0  0  0  0  0  0  0  0  0  0  0
    0.3789   30.1612    9.0328 O   0  0  0  0  0  0  0  0  0  0  0  0
   -6.0998   30.0508    9.7653 C   0  0  0  0  0  0  0  0  0  0  0  0
   -6.6676   28.7302   10.2704 C   0  0  0  0  0  0  0  0  0  0  0  0
   -5.6534   28.0053   10.9579 O   0  0  0  0  0  0  0  0  0  0  0  0
   -4.9508   27.8063   10.3146 H   0  0  0  0  0  0  0  0  0  0  0  0
   -6.1123   26.9499    4.6377 C   0  0  0  0  0  0  0  0  0  0  0  0
   -5.0937   25.8531    4.2953 C   0  0  0  0  0  0  0  0  0  0  0  0
   -5.4062   25.1612    2.9999 C   0  0  0  0  0  0  0  0  0  0  0  0
   -5.6844   25.7738    1.7930 C   0  0  0  0  0  0  0  0  0  0  0  0
   -5.9390   24.8011    0.8643 N   0  0  0  0  0  0  0  0  0  0  0  0
   -5.8433   23.5562    1.4398 C   0  0  0  0  0  0  0  0  0  0  0  0
   -6.0383   22.2871    0.8810 C   0  0  0  0  0  0  0  0  0  0  0  0
   -5.8708   21.1781    1.7155 C   0  0  0  0  0  0  0  0  0  0  0  0
   -5.5129   21.3342    3.0517 C   0  0  0  0  0  0  0  0  0  0  0  0
   -5.3135   22.6100    3.5910 C   0  0  0  0  0  0  0  0  0  0  0  0
   -5.4904   23.7476    2.7758 C   0  0  0  0  0  0  0  0  0  0  0  0
   -6.1711   24.9666   -0.1052 H   0  0  0  0  0  0  0  0  0  0  0  0
 14 15  1  0  0  0
 15  8  1  0  0  0
  8  9  1  0  0  0
  9 10  2  0  0  0
 10 11  1  0  0  0
 11  7  1  0  0  0
  7 16  1  0  0  0
 16 17  1  0  0  0
 17 18  1  0  0  0
  7  1  1  0  0  0
  1  2  1  0  0  0
  2  3  2  0  0  0
  2  4  1  0  0  0
  4 20  1  0  0  0
 20 21  1  0  0  0
 21 22  1  0  0  0
 22 23  2  0  0  0
 23 24  1  0  0  0
 24 25  1  0  0  0
 25 26  2  0  0  0
 26 27  1  0  0  0
 27 28  2  0  0  0
 28 29  1  0  0  0
 29 30  2  0  0  0
 11 12  2  0  0  0
 12 13  1  0  0  0
 13  8  2  0  0  0
 30 22  1  0  0  0
 30 25  1  0  0  0
 18 19  1  0  0  0
  1  5  1  0  0  0
  4  6  1  0  0  0
 24 31  1  0  0  0
M  END
> <minimizedAffinity>
-9.70634

$$$$
OCNT-2315347


 27 30  0  0  0  0  0  0  0  0999 V2000
   -6.0158   28.4404    8.0838 N   0  0  0  0  0  0  0  0  0  0  0  0
   -5.4105   27.7215    7.6861 H   0  0  0  0  0  0  0  0  0  0  0  0
   -6.2233   31.4525    9.6150 O   0  0  0  0  0  0  0  0  0  0  0  0
   -5.7044   30.9773    8.3707 C   0  0  0  0  0  0  0  0  0  0  0  0
   -4.5045   31.8403    7.9697 C   0  0  0  0  0  0  0  0  0  0  0  0
   -3.2747   31.0157    8.3655 C   0  0  0  0  0  0  0  0  0  0  0  0
   -3.7134   29.5905    8.0172 C   0  0  0  0  0  0  0  0  0  0  0  0
   -5.1517   29.5372    8.5471 C   0  0  0  0  0  0  0  0  0  0  0  0
   -6.7459   32.2482    9.4160 H   0  0  0  0  0  0  0  0  0  0  0  0
   -2.0146   31.4782    7.6375 C   0  0  0  0  0  0  0  0  0  0  0  0
   -0.9046   30.5568    7.7916 N   0  0  0  0  0  0  0  0  0  0  0  0
   -0.3313   29.7961    6.8136 C   0  0  0  0  0  0  0  0  0  0  0  0
    0.6712   29.0826    7.4272 C   0  0  0  0  0  0  0  0  0  0  0  0
    0.6180   29.4806    8.7755 C   0  0  0  0  0  0  0  0  0  0  0  0
   -0.3434   30.3789    9.0031 N   0  0  0  0  0  0  0  0  0  0  0  0
   -7.0280   28.7588    7.0748 C   0  0  0  0  0  0  0  0  0  0  0  0
   -6.5920   28.5167    5.6503 C   0  0  0  0  0  0  0  0  0  0  0  0
   -6.4574   29.5835    4.7521 C   0  0  0  0  0  0  0  0  0  0  0  0
   -6.0544   29.3538    3.4373 C   0  0  0  0  0  0  0  0  0  0  0  0
   -5.7778   28.0559    3.0055 C   0  0  0  0  0  0  0  0  0  0  0  0
   -5.8982   26.9746    3.8903 C   0  0  0  0  0  0  0  0  0  0  0  0
   -6.2991   27.2117    5.2125 C   0  0  0  0  0  0  0  0  0  0  0  0
   -5.6166   25.6579    3.4292 N   0  0  0  0  0  0  0  0  0  0  0  0
   -5.5239   25.2109    2.1262 C   0  0  0  0  0  0  0  0  0  0  0  0
   -5.2359   23.8678    2.1745 C   0  0  0  0  0  0  0  0  0  0  0  0
   -5.1665   23.5740    3.5419 C   0  0  0  0  0  0  0  0  0  0  0  0
   -5.3904   24.6422    4.3068 N   0  0  0  0  0  0  0  0  0  0  0  0
  3  4  1  0  0  0
  4  5  1  0  0  0
  5  6  1  0  0  0
  6 10  1  0  0  0
 10 11  1  0  0  0
 11 12  1  0  0  0
 12 13  2  0  0  0
 13 14  1  0  0  0
 14 15  2  0  0  0
  6  7  1  0  0  0
  7  8  1  0  0  0
  8  1  1  0  0  0
  1 16  1  0  0  0
 16 17  1  0  0  0
 17 18  2  0  0  0
 18 19  1  0  0  0
 19 20  2  0  0  0
 20 21  1  0  0  0
 21 23  1  0  0  0
 23 24  1  0  0  0
 24 25  2  0  0  0
 25 26  1  0  0  0
 26 27  2  0  0  0
 21 22  2  0  0  0
  8  4  1  0  0  0
 22 17  1  0  0  0
 15 11  1  0  0  0
 27 23  1  0  0  0
  3  9  1  0  0  0
  1  2  1  0  0  0
M  END
> <minimizedAffinity>
-8.93569

$$$$
OCNT-2315349


 28 31  0  0  0  0  0  0  0  0999 V2000
   -7.5994   30.2076    6.3744 C   0  0  0  0  0  0  0  0  0  0  0  0
   -6.2526   29.4748    6.3790 C   0  0  0  0  0  0  0  0  0  0  0  0
   -6.0871   28.4784    5.2359 C   0  0  0  0  0  0  0  0  0  0  0  0
   -5.9670   28.9694    3.9258 C   0  0  0  0  0  0  0  0  0  0  0  0
   -5.8354   28.0980    2.8417 C   0  0  0  0  0  0  0  0  0  0  0  0
   -5.8226   26.7170    3.0370 C   0  0  0  0  0  0  0  0  0  0  0  0
   -5.9685   26.2150    4.3285 C   0  0  0  0  0  0  0  0  0  0  0  0
   -6.1025   27.0876    5.4173 C   0  0  0  0  0  0  0  0  0  0  0  0
   -5.6979   25.9791    1.8927 O   0  0  0  0  0  0  0  0  0  0  0  0
   -4.5918   25.0791    1.7845 C   0  0  0  0  0  0  0  0  0  0  0  0
   -4.9902   23.6293    1.8704 C   0  0  0  0  0  0  0  0  0  0  0  0
   -4.6391   22.8122    2.9486 C   0  0  0  0  0  0  0  0  0  0  0  0
   -5.0630   21.4869    2.9802 C   0  0  0  0  0  0  0  0  0  0  0  0
   -5.8390   21.0216    1.9325 C   0  0  0  0  0  0  0  0  0  0  0  0
   -6.2130   21.7815    0.8812 N   0  0  0  0  0  0  0  0  0  0  0  0
   -5.7867   23.0647    0.8785 C   0  0  0  0  0  0  0  0  0  0  0  0
   -5.1513   30.4235    6.2847 N   0  0  0  0  0  0  0  0  0  0  0  0
   -5.3858   31.3251    5.8917 H   0  0  0  0  0  0  0  0  0  0  0  0
   -4.2116   30.4687    7.3036 C   0  0  0  0  0  0  0  0  0  0  0  0
   -4.2348   31.4693    8.2183 N   0  0  0  0  0  0  0  0  0  0  0  0
   -3.3099   31.4783    9.1992 C   0  0  0  0  0  0  0  0  0  0  0  0
   -2.3152   30.6013    9.4127 N   0  0  0  0  0  0  0  0  0  0  0  0
   -2.3289   29.6260    8.4940 C   0  0  0  0  0  0  0  0  0  0  0  0
   -3.2153   29.4838    7.4377 C   0  0  0  0  0  0  0  0  0  0  0  0
   -2.8349   28.2962    6.7468 C   0  0  0  0  0  0  0  0  0  0  0  0
   -1.7389   27.7643    7.3948 C   0  0  0  0  0  0  0  0  0  0  0  0
   -1.4439   28.5836    8.4548 N   0  0  0  0  0  0  0  0  0  0  0  0
   -0.6970   28.4572    9.1223 H   0  0  0  0  0  0  0  0  0  0  0  0
  1  2  1  0  0  0
  2 17  1  0  0  0
 17 19  1  0  0  0
 19 20  1  0  0  0
 20 21  2  0  0  0
 21 22  1  0  0  0
 22 23  2  0  0  0
 23 24  1  0  0  0
 24 25  1  0  0  0
 25 26  2  0  0  0
 26 27  1  0  0  0
  2  3  1  0  0  0
  3  4  1  0  0  0
  4  5  2  0  0  0
  5  6  1  0  0  0
  6  9  1  0  0  0
  9 10  1  0  0  0
 10 11  1  0  0  0
 11 12  1  0  0  0
 12 13  2  0  0  0
 13 14  1  0  0  0
 14 15  2  0  0  0
 15 16  1  0  0  0
  6  7  2  0  0  0
  7  8  1  0  0  0
 24 19  2  0  0  0
  8  3  2  0  0  0
 27 23  1  0  0  0
 16 11  2  0  0  0
 17 18  1  0  0  0
 27 28  1  0  0  0
M  END
> <minimizedAffinity>
-9.40336

$$$$
OCNT-2315357


 24 26  0  0  0  0  0  0  0  0999 V2000
   -6.1832   28.7156    5.0900 C   0  0  0  0  0  0  0  0  0  0  0  0
   -5.9775   28.8507    3.7173 C   0  0  0  0  0  0  0  0  0  0  0  0
   -5.8349   27.7215    2.9001 C   0  0  0  0  0  0  0  0  0  0  0  0
   -5.8852   26.4346    3.4422 C   0  0  0  0  0  0  0  0  0  0  0  0
   -6.0914   26.3015    4.8198 C   0  0  0  0  0  0  0  0  0  0  0  0
   -6.2461   27.4298    5.6336 C   0  0  0  0  0  0  0  0  0  0  0  0
   -5.7250   25.2550    2.6002 C   0  0  0  0  0  0  0  0  0  0  0  0
   -5.0976   25.2575    1.4139 N   0  0  0  0  0  0  0  0  0  0  0  0
   -5.1821   23.9377    0.9842 O   0  0  0  0  0  0  0  0  0  0  0  0
   -5.8570   23.2516    1.9511 C   0  0  0  0  0  0  0  0  0  0  0  0
   -6.2162   24.0186    2.9637 N   0  0  0  0  0  0  0  0  0  0  0  0
   -6.0588   21.8055    1.6842 C   0  0  0  0  0  0  0  0  0  0  0  0
   -5.2585   21.0153    2.4480 F   0  0  0  0  0  0  0  0  0  0  0  0
   -5.7987   21.4749    0.3877 F   0  0  0  0  0  0  0  0  0  0  0  0
   -7.3385   21.4148    1.9293 F   0  0  0  0  0  0  0  0  0  0  0  0
   -4.5417   29.5028    7.4227 O   0  0  0  0  0  0  0  0  0  0  0  0
   -5.5195   30.1432    7.0440 C   0  0  0  0  0  0  0  0  0  0  0  0
   -6.3436   29.7982    5.9795 N   0  0  0  0  0  0  0  0  0  0  0  0
   -7.1681   30.3647    5.8340 H   0  0  0  0  0  0  0  0  0  0  0  0
   -5.9906   31.3995    7.7717 C   0  0  0  0  0  0  0  0  0  0  0  0
   -4.9318   31.7984    9.1953 S   0  0  0  0  0  0  0  0  0  0  0  0
   -4.2602   33.3342    8.7220 C   0  0  0  0  0  0  0  0  0  0  0  0
   -5.0518   34.2507    7.8303 C   0  0  0  0  0  0  0  0  0  0  0  0
   -4.8334   34.6150    9.2684 C   0  0  0  0  0  0  0  0  0  0  0  0
 16 17  2  0  0  0
 17 20  1  0  0  0
 20 21  1  0  0  0
 21 22  1  0  0  0
 22 23  1  0  0  0
 23 24  1  0  0  0
 17 18  1  0  0  0
 18  1  1  0  0  0
  1  2  1  0  0  0
  2  3  2  0  0  0
  3  4  1  0  0  0
  4  7  1  0  0  0
  7  8  2  0  0  0
  8  9  1  0  0  0
  9 10  1  0  0  0
 10 12  1  0  0  0
 12 13  1  0  0  0
 12 14  1  0  0  0
 12 15  1  0  0  0
 10 11  2  0  0  0
  4  5  2  0  0  0
  5  6  1  0  0  0
 24 22  1  0  0  0
  6  1  2  0  0  0
 11  7  1  0  0  0
 18 19  1  0  0  0
M  END
> <minimizedAffinity>
-8.75178

$$$$
OCNT-2315387


 27 29  0  0  0  0  0  0  0  0999 V2000
   -6.2970   29.2513    7.0125 C   0  0  0  0  0  0  0  0  0  0  0  0
   -6.1744   28.7473    5.5946 C   0  0  0  0  0  0  0  0  0  0  0  0
   -6.1778   29.6452    4.5195 C   0  0  0  0  0  0  0  0  0  0  0  0
   -6.0586   29.1801    3.2116 C   0  0  0  0  0  0  0  0  0  0  0  0
   -5.9311   27.8117    2.9649 C   0  0  0  0  0  0  0  0  0  0  0  0
   -5.9152   26.8847    4.0190 C   0  0  0  0  0  0  0  0  0  0  0  0
   -6.0354   27.3737    5.3320 C   0  0  0  0  0  0  0  0  0  0  0  0
   -5.7772   25.4426    3.7575 C   0  0  0  0  0  0  0  0  0  0  0  0
   -5.4890   24.9655    2.4693 C   0  0  0  0  0  0  0  0  0  0  0  0
   -5.3608   23.5955    2.2176 C   0  0  0  0  0  0  0  0  0  0  0  0
   -5.5060   22.6681    3.2534 C   0  0  0  0  0  0  0  0  0  0  0  0
   -5.4023   21.1971    2.9803 C   0  0  0  0  0  0  0  0  0  0  0  0
   -5.8057   23.1308    4.5382 C   0  0  0  0  0  0  0  0  0  0  0  0
   -5.9349   24.5012    4.7866 C   0  0  0  0  0  0  0  0  0  0  0  0
   -5.8433   30.6288    7.0878 N   0  0  0  0  0  0  0  0  0  0  0  0
   -6.5988   31.2896    7.2538 H   0  0  0  0  0  0  0  0  0  0  0  0
   -2.6303   31.0504    8.3799 N   0  0  0  0  0  0  0  0  0  0  0  0
   -3.8446   30.4257    8.4047 C   0  0  0  0  0  0  0  0  0  0  0  0
   -4.5773   30.9837    7.3895 C   0  0  0  0  0  0  0  0  0  0  0  0
   -3.7247   31.9480    6.8138 C   0  0  0  0  0  0  0  0  0  0  0  0
   -2.5283   31.9928    7.4123 N   0  0  0  0  0  0  0  0  0  0  0  0
   -1.4991   30.7914    9.2487 C   0  0  0  0  0  0  0  0  0  0  0  0
    0.4302   29.3219    6.3313 C   0  0  0  0  0  0  0  0  0  0  0  0
   -0.5875   29.9055    7.1655 N   0  0  0  0  0  0  0  0  0  0  0  0
   -0.3959   30.0517    8.5257 C   0  0  0  0  0  0  0  0  0  0  0  0
    0.5640   29.5711    9.1254 O   0  0  0  0  0  0  0  0  0  0  0  0
   -1.2439   30.5600    6.7352 H   0  0  0  0  0  0  0  0  0  0  0  0
 23 24  1  0  0  0
 24 25  1  0  0  0
 25 26  2  0  0  0
 25 22  1  0  0  0
 22 17  1  0  0  0
 17 18  1  0  0  0
 18 19  2  0  0  0
 19 15  1  0  0  0
 15  1  1  0  0  0
  1  2  1  0  0  0
  2  3  2  0  0  0
  3  4  1  0  0  0
  4  5  2  0  0  0
  5  6  1  0  0  0
  6  8  1  0  0  0
  8  9  1  0  0  0
  9 10  2  0  0  0
 10 11  1  0  0  0
 11 12  1  0  0  0
 11 13  2  0  0  0
 13 14  1  0  0  0
  6  7  2  0  0  0
 19 20  1  0  0  0
 20 21  2  0  0  0
 21 17  1  0  0  0
  7  2  1  0  0  0
 14  8  2  0  0  0
 24 27  1  0  0  0
 15 16  1  0  0  0
M  END
> <minimizedAffinity>
-9.44436

$$$$
OCNT-2315389


 23 25  0  0  0  0  0  0  0  0999 V2000
   -0.0142   27.3175    7.0013 N   0  0  0  0  0  0  0  0  0  0  0  0
    0.8142   26.7633    7.2168 H   0  0  0  0  0  0  0  0  0  0  0  0
   -0.9374   26.7908    6.0565 C   0  0  0  0  0  0  0  0  0  0  0  0
   -0.4623   26.3954    4.8063 C   0  0  0  0  0  0  0  0  0  0  0  0
   -1.3439   25.8795    3.8516 C   0  0  0  0  0  0  0  0  0  0  0  0
   -2.7094   25.7464    4.1469 C   0  0  0  0  0  0  0  0  0  0  0  0
   -3.1800   26.1303    5.4090 C   0  0  0  0  0  0  0  0  0  0  0  0
   -2.2909   26.6474    6.3586 C   0  0  0  0  0  0  0  0  0  0  0  0
   -3.5871   25.2212    3.1631 N   0  0  0  0  0  0  0  0  0  0  0  0
   -3.8011   23.9127    2.8012 C   0  0  0  0  0  0  0  0  0  0  0  0
   -4.7007   23.8387    1.8465 N   0  0  0  0  0  0  0  0  0  0  0  0
   -5.0243   25.1443    1.6413 C   0  0  0  0  0  0  0  0  0  0  0  0
   -4.3826   26.0237    2.4109 N   0  0  0  0  0  0  0  0  0  0  0  0
    1.0045   29.2721    8.3051 O   0  0  0  0  0  0  0  0  0  0  0  0
    0.2803   28.9750    7.0895 S   0  0  0  0  0  0  0  0  0  0  0  0
    0.8141   29.3192    5.7890 O   0  0  0  0  0  0  0  0  0  0  0  0
   -1.3750   29.6482    7.2092 C   0  0  0  0  0  0  0  0  0  0  0  0
   -1.5068   31.0947    6.7326 C   0  0  0  0  0  0  0  0  0  0  0  0
   -1.8698   32.1156    7.8180 C   0  0  0  0  0  0  0  0  0  0  0  0
   -1.2494   31.8487    9.1996 C   0  0  0  0  0  0  0  0  0  0  0  0
   -2.3658   32.0376   10.2275 C   0  0  0  0  0  0  0  0  0  0  0  0
   -3.4876   32.7317    9.4763 C   0  0  0  0  0  0  0  0  0  0  0  0
   -3.3805   32.1336    8.0857 C   0  0  0  0  0  0  0  0  0  0  0  0
 14 15  2  0  0  0
 15 16  2  0  0  0
 15 17  1  0  0  0
 17 18  1  0  0  0
 18 19  1  0  0  0
 19 20  1  0  0  0
 20 21  1  0  0  0
 21 22  1  0  0  0
 22 23  1  0  0  0
 15  1  1  0  0  0
  1  3  1  0  0  0
  3  4  1  0  0  0
  4  5  2  0  0  0
  5  6  1  0  0  0
  6  9  1  0  0  0
  9 10  1  0  0  0
 10 11  2  0  0  0
 11 12  1  0  0  0
 12 13  2  0  0  0
  6  7  2  0  0  0
  7  8  1  0  0  0
 23 19  1  0  0  0
  8  3  2  0  0  0
 13  9  1  0  0  0
  1  2  1  0  0  0
M  END
> <minimizedAffinity>
-8.79995

$$$$
OCNT-2315390


 29 32  0  0  0  0  0  0  0  0999 V2000
   -6.4289   28.4487    6.3648 C   0  0  0  0  0  0  0  0  0  0  0  0
   -7.4505   29.1262    6.4171 O   0  0  0  0  0  0  0  0  0  0  0  0
   -5.4310   28.5211    7.3041 N   0  0  0  0  0  0  0  0  0  0  0  0
   -4.5168   28.1829    7.0285 H   0  0  0  0  0  0  0  0  0  0  0  0
   -5.3774   23.7277    2.7686 C   0  0  0  0  0  0  0  0  0  0  0  0
   -5.3858   24.6631    1.7318 C   0  0  0  0  0  0  0  0  0  0  0  0
   -5.5958   26.0257    1.9800 C   0  0  0  0  0  0  0  0  0  0  0  0
   -5.8027   26.4543    3.3031 C   0  0  0  0  0  0  0  0  0  0  0  0
   -6.0390   27.7201    3.9083 C   0  0  0  0  0  0  0  0  0  0  0  0
   -6.1746   27.5338    5.2739 C   0  0  0  0  0  0  0  0  0  0  0  0
   -6.0090   26.1840    5.4987 N   0  0  0  0  0  0  0  0  0  0  0  0
   -5.7897   25.5072    4.3231 C   0  0  0  0  0  0  0  0  0  0  0  0
   -5.5801   24.1388    4.0912 C   0  0  0  0  0  0  0  0  0  0  0  0
   -6.0503   25.7653    6.4189 H   0  0  0  0  0  0  0  0  0  0  0  0
   -5.0188   21.4561    3.3805 C   0  0  0  0  0  0  0  0  0  0  0  0
   -5.1590   22.4375    2.3610 O   0  0  0  0  0  0  0  0  0  0  0  0
   -5.3728   29.5674    8.3312 C   0  0  0  0  0  0  0  0  0  0  0  0
   -5.4991   28.9456    9.7277 C   0  0  0  0  0  0  0  0  0  0  0  0
   -4.0923   30.4818    8.0767 C   0  0  0  0  0  0  0  0  0  0  0  0
   -2.8903   29.9940    8.9240 C   0  0  0  0  0  0  0  0  0  0  0  0
   -1.6410   30.4990    8.2136 C   0  0  0  0  0  0  0  0  0  0  0  0
   -2.0144   30.5927    6.7371 C   0  0  0  0  0  0  0  0  0  0  0  0
   -3.5100   30.2718    6.6515 C   0  0  0  0  0  0  0  0  0  0  0  0
   -4.5197   31.9045    8.3360 N   0  0  0  0  0  0  0  0  0  0  0  0
   -3.7918   32.5746    9.4409 C   0  0  0  0  0  0  0  0  0  0  0  0
   -4.4646   33.9006    9.8327 C   0  0  0  0  0  0  0  0  0  0  0  0
   -4.5324   34.7898    8.7125 O   0  0  0  0  0  0  0  0  0  0  0  0
   -5.2696   34.1786    7.6495 C   0  0  0  0  0  0  0  0  0  0  0  0
   -4.6308   32.8463    7.2089 C   0  0  0  0  0  0  0  0  0  0  0  0
 15 16  1  0  0  0
 16  5  1  0  0  0
  5  6  2  0  0  0
  6  7  1  0  0  0
  7  8  2  0  0  0
  8  9  1  0  0  0
  9 10  2  0  0  0
 10  1  1  0  0  0
  1  2  2  0  0  0
  1  3  1  0  0  0
  3 17  1  0  0  0
 17 18  1  0  0  0
 17 19  1  0  0  0
 19 24  1  0  0  0
 24 25  1  0  0  0
 25 26  1  0  0  0
 26 27  1  0  0  0
 27 28  1  0  0  0
 28 29  1  0  0  0
 19 20  1  0  0  0
 20 21  1  0  0  0
 21 22  1  0  0  0
 22 23  1  0  0  0
 10 11  1  0  0  0
 11 12  1  0  0  0
 12 13  2  0  0  0
 13  5  1  0  0  0
 12  8  1  0  0  0
 23 19  1  0  0  0
 29 24  1  0  0  0
  3  4  1  0  0  0
 11 14  1  0  0  0
M  END
> <minimizedAffinity>
-9.34296

$$$$
OCNT-2315394


 23 26  0  0  0  0  0  0  0  0999 V2000
   -6.2310   29.7415    5.0577 O   0  0  0  0  0  0  0  0  0  0  0  0
   -5.4151   28.8981    5.4451 C   0  0  0  0  0  0  0  0  0  0  0  0
   -4.9228   27.9234    4.5704 N   0  0  0  0  0  0  0  0  0  0  0  0
   -3.9376   26.9085    4.9420 C   0  0  0  0  0  0  0  0  0  0  0  0
   -3.6649   25.8971    3.8304 C   0  0  0  0  0  0  0  0  0  0  0  0
   -4.9535   25.3986    3.1528 C   0  0  0  0  0  0  0  0  0  0  0  0
   -5.9016   26.5579    2.7711 C   0  0  0  0  0  0  0  0  0  0  0  0
   -5.3646   27.9276    3.1793 C   0  0  0  0  0  0  0  0  0  0  0  0
   -4.9357   28.8634    6.9180 C   0  0  0  0  0  0  0  0  0  0  0  0
   -6.4102   29.0504    8.0135 S   0  0  0  0  0  0  0  0  0  0  0  0
   -6.5971   30.8645    7.9007 C   0  0  0  0  0  0  0  0  0  0  0  0
   -5.3777   31.5958    8.4600 C   0  0  0  0  0  0  0  0  0  0  0  0
   -4.0935   31.1134    7.8525 C   0  0  0  0  0  0  0  0  0  0  0  0
   -3.8800   29.9143    7.1897 C   0  0  0  0  0  0  0  0  0  0  0  0
   -2.5069   29.8007    6.7818 C   0  0  0  0  0  0  0  0  0  0  0  0
   -1.7532   30.8945    7.1428 C   0  0  0  0  0  0  0  0  0  0  0  0
   -2.6780   32.0604    7.9771 S   0  0  0  0  0  0  0  0  0  0  0  0
   -5.6161   24.3045    3.9772 C   0  0  0  0  0  0  0  0  0  0  0  0
   -5.1691   22.9827    3.8598 C   0  0  0  0  0  0  0  0  0  0  0  0
   -5.7639   21.9981    4.6356 C   0  0  0  0  0  0  0  0  0  0  0  0
   -6.7574   22.2335    5.5164 N   0  0  0  0  0  0  0  0  0  0  0  0
   -7.1748   23.5118    5.6240 C   0  0  0  0  0  0  0  0  0  0  0  0
   -6.6444   24.5632    4.8903 C   0  0  0  0  0  0  0  0  0  0  0  0
  1  2  2  0  0  0
  2  9  1  0  0  0
  9 10  1  0  0  0
 10 11  1  0  0  0
 11 12  1  0  0  0
 12 13  1  0  0  0
 13 14  2  0  0  0
 14 15  1  0  0  0
 15 16  2  0  0  0
 16 17  1  0  0  0
  2  3  1  0  0  0
  3  4  1  0  0  0
  4  5  1  0  0  0
  5  6  1  0  0  0
  6 18  1  0  0  0
 18 19  2  0  0  0
 19 20  1  0  0  0
 20 21  2  0  0  0
 21 22  1  0  0  0
 22 23  2  0  0  0
  6  7  1  0  0  0
  7  8  1  0  0  0
 14  9  1  0  0  0
  8  3  1  0  0  0
 17 13  1  0  0  0
 23 18  1  0  0  0
M  END
> <minimizedAffinity>
-7.73329

$$$$
OCNT-2315408


 34 37  0  0  0  0  0  0  0  0999 V2000
   -6.2235   28.4557    6.3118 C   0  0  0  0  0  0  0  0  0  0  0  0
   -5.2115   29.4748    6.5062 N   0  0  0  0  0  0  0  0  0  0  0  0
   -4.7314   30.2868    5.5313 C   0  0  0  0  0  0  0  0  0  0  0  0
   -5.0616   30.2663    4.3550 O   0  0  0  0  0  0  0  0  0  0  0  0
   -3.7439   31.0793    6.0527 N   0  0  0  0  0  0  0  0  0  0  0  0
   -3.4208   30.7294    7.4253 C   0  0  0  0  0  0  0  0  0  0  0  0
   -3.6889   31.9416    8.3287 C   0  0  0  0  0  0  0  0  0  0  0  0
   -3.0866   31.7516    9.7160 C   0  0  0  0  0  0  0  0  0  0  0  0
   -1.5752   31.5790    9.6167 C   0  0  0  0  0  0  0  0  0  0  0  0
   -1.1647   30.5413    8.6012 C   0  0  0  0  0  0  0  0  0  0  0  0
    0.1186   29.9790    8.7072 C   0  0  0  0  0  0  0  0  0  0  0  0
    0.5570   29.0245    7.7935 C   0  0  0  0  0  0  0  0  0  0  0  0
   -0.2764   28.6287    6.7551 C   0  0  0  0  0  0  0  0  0  0  0  0
   -1.5483   29.1895    6.6290 C   0  0  0  0  0  0  0  0  0  0  0  0
   -2.0137   30.1571    7.5433 C   0  0  0  0  0  0  0  0  0  0  0  0
   -4.4989   29.6407    7.6639 C   0  0  0  0  0  0  0  0  0  0  0  0
   -4.6889   29.0252    8.7055 O   0  0  0  0  0  0  0  0  0  0  0  0
   -3.1473   31.6360    5.4562 H   0  0  0  0  0  0  0  0  0  0  0  0
   -6.5136   26.1723    5.4877 N   0  0  0  0  0  0  0  0  0  0  0  0
   -5.6103   27.2146    5.6564 C   0  0  0  0  0  0  0  0  0  0  0  0
   -4.4047   27.1447    5.4287 O   0  0  0  0  0  0  0  0  0  0  0  0
   -7.3961   26.2458    5.9980 H   0  0  0  0  0  0  0  0  0  0  0  0
   -5.7579   23.6409    2.8604 C   0  0  0  0  0  0  0  0  0  0  0  0
   -5.8323   22.4632    3.6097 C   0  0  0  0  0  0  0  0  0  0  0  0
   -6.1410   22.5348    4.9660 C   0  0  0  0  0  0  0  0  0  0  0  0
   -6.3689   23.7771    5.5650 C   0  0  0  0  0  0  0  0  0  0  0  0
   -6.2780   24.9578    4.8178 C   0  0  0  0  0  0  0  0  0  0  0  0
   -5.9983   24.8833    3.4541 C   0  0  0  0  0  0  0  0  0  0  0  0
   -5.4428   23.5595    1.1096 S   0  0  0  0  0  0  0  0  0  0  0  0
   -5.4977   22.1637    0.7291 O   0  0  0  0  0  0  0  0  0  0  0  0
   -4.2565   24.3513    0.8531 O   0  0  0  0  0  0  0  0  0  0  0  0
   -6.4811   25.5491   -0.4211 C   0  0  0  0  0  0  0  0  0  0  0  0
   -6.7702   24.3732    0.4215 N   0  0  0  0  0  0  0  0  0  0  0  0
   -7.8594   23.5320   -0.1015 C   0  0  0  0  0  0  0  0  0  0  0  0
 32 33  1  0  0  0
 33 34  1  0  0  0
 33 29  1  0  0  0
 29 30  2  0  0  0
 29 31  2  0  0  0
 29 23  1  0  0  0
 23 24  2  0  0  0
 24 25  1  0  0  0
 25 26  2  0  0  0
 26 27  1  0  0  0
 27 19  1  0  0  0
 19 20  1  0  0  0
 20 21  2  0  0  0
 20  1  1  0  0  0
  1  2  1  0  0  0
  2  3  1  0  0  0
  3  4  2  0  0  0
  3  5  1  0  0  0
  5  6  1  0  0  0
  6  7  1  0  0  0
  7  8  1  0  0  0
  8  9  1  0  0  0
  9 10  1  0  0  0
 10 11  2  0  0  0
 11 12  1  0  0  0
 12 13  2  0  0  0
 13 14  1  0  0  0
 14 15  2  0  0  0
  6 16  1  0  0  0
 16 17  2  0  0  0
 27 28  2  0  0  0
 28 23  1  0  0  0
 16  2  1  0  0  0
 15  6  1  0  0  0
 15 10  1  0  0  0
 19 22  1  0  0  0
  5 18  1  0  0  0
M  END
> <minimizedAffinity>
-10.89745

$$$$
OCNT-2315417


 27 29  0  0  0  0  0  0  0  0999 V2000
   -6.1846   29.4223    6.7990 C   0  0  0  0  0  0  0  0  0  0  0  0
   -6.5304   28.8264    7.8172 O   0  0  0  0  0  0  0  0  0  0  0  0
   -5.8530   30.7652    6.8280 N   0  0  0  0  0  0  0  0  0  0  0  0
   -5.6050   31.2394    5.9733 H   0  0  0  0  0  0  0  0  0  0  0  0
   -5.8700   27.0589    4.1367 C   0  0  0  0  0  0  0  0  0  0  0  0
   -6.0115   28.1669    3.3293 C   0  0  0  0  0  0  0  0  0  0  0  0
   -6.1451   29.2808    4.1953 C   0  0  0  0  0  0  0  0  0  0  0  0
   -6.0985   28.7956    5.4911 C   0  0  0  0  0  0  0  0  0  0  0  0
   -5.9412   27.4345    5.4451 O   0  0  0  0  0  0  0  0  0  0  0  0
   -5.7084   25.6055    3.9030 C   0  0  0  0  0  0  0  0  0  0  0  0
   -4.2006   23.6091    2.7109 C   0  0  0  0  0  0  0  0  0  0  0  0
   -4.6312   25.3189    2.5061 S   0  0  0  0  0  0  0  0  0  0  0  0
   -3.4095   26.0846    2.6687 O   0  0  0  0  0  0  0  0  0  0  0  0
   -5.4111   25.4143    1.2844 O   0  0  0  0  0  0  0  0  0  0  0  0
   -5.9278   31.5532    8.0435 C   0  0  0  0  0  0  0  0  0  0  0  0
   -4.7767   32.5720    8.1510 C   0  0  0  0  0  0  0  0  0  0  0  0
   -4.0459   32.4300    9.4910 C   0  0  0  0  0  0  0  0  0  0  0  0
   -3.2793   31.1046    9.6066 C   0  0  0  0  0  0  0  0  0  0  0  0
   -2.8346   30.5684    8.3094 N   0  0  0  0  0  0  0  0  0  0  0  0
   -2.4975   31.6489    7.3805 C   0  0  0  0  0  0  0  0  0  0  0  0
   -3.7651   32.4254    6.9945 C   0  0  0  0  0  0  0  0  0  0  0  0
   -1.7230   29.6208    8.4997 C   0  0  0  0  0  0  0  0  0  0  0  0
   -1.7219   28.5332    7.4591 C   0  0  0  0  0  0  0  0  0  0  0  0
   -2.8049   27.8770    6.9040 C   0  0  0  0  0  0  0  0  0  0  0  0
   -2.4155   26.8916    5.9526 C   0  0  0  0  0  0  0  0  0  0  0  0
   -1.0476   26.8218    5.8158 C   0  0  0  0  0  0  0  0  0  0  0  0
   -0.2423   27.9382    6.8299 S   0  0  0  0  0  0  0  0  0  0  0  0
 11 12  1  0  0  0
 12 13  2  0  0  0
 12 14  2  0  0  0
 12 10  1  0  0  0
 10  5  1  0  0  0
  5  6  2  0  0  0
  6  7  1  0  0  0
  7  8  2  0  0  0
  8  1  1  0  0  0
  1  2  2  0  0  0
  1  3  1  0  0  0
  3 15  1  0  0  0
 15 16  1  0  0  0
 16 17  1  0  0  0
 17 18  1  0  0  0
 18 19  1  0  0  0
 19 22  1  0  0  0
 22 23  1  0  0  0
 23 24  2  0  0  0
 24 25  1  0  0  0
 25 26  2  0  0  0
 26 27  1  0  0  0
 19 20  1  0  0  0
 20 21  1  0  0  0
  8  9  1  0  0  0
  9  5  1  0  0  0
 21 16  1  0  0  0
 27 23  1  0  0  0
  3  4  1  0  0  0
M  END
> <minimizedAffinity>
-8.10594

$$$$
OCNT-2315433


 26 28  0  0  0  0  0  0  0  0999 V2000
   -2.2975   27.0909    5.7988 N   0  0  0  0  0  0  0  0  0  0  0  0
   -0.9932   27.3635    6.3763 C   0  0  0  0  0  0  0  0  0  0  0  0
   -2.3236   26.2319    4.7009 C   0  0  0  0  0  0  0  0  0  0  0  0
   -1.3133   25.7416    4.2063 O   0  0  0  0  0  0  0  0  0  0  0  0
   -3.6463   25.8908    4.1090 C   0  0  0  0  0  0  0  0  0  0  0  0
   -4.2824   26.8335    3.1059 C   0  0  0  0  0  0  0  0  0  0  0  0
   -3.7429   25.5101    2.6405 C   0  0  0  0  0  0  0  0  0  0  0  0
   -4.6717   24.4024    2.1749 C   0  0  0  0  0  0  0  0  0  0  0  0
   -4.5655   23.0647    2.5998 C   0  0  0  0  0  0  0  0  0  0  0  0
   -5.4353   22.0706    2.1382 C   0  0  0  0  0  0  0  0  0  0  0  0
   -6.4434   22.3920    1.2346 C   0  0  0  0  0  0  0  0  0  0  0  0
   -6.5749   23.7058    0.8015 C   0  0  0  0  0  0  0  0  0  0  0  0
   -7.8189   24.1171   -0.3144 Cl  0  0  0  0  0  0  0  0  0  0  0  0
   -5.7038   24.6956    1.2629 C   0  0  0  0  0  0  0  0  0  0  0  0
   -3.4595   27.8048    6.3384 C   0  0  0  0  0  0  0  0  0  0  0  0
   -3.7815   31.6739    8.4661 N   0  0  0  0  0  0  0  0  0  0  0  0
   -3.7068   30.4285    9.2419 C   0  0  0  0  0  0  0  0  0  0  0  0
   -4.0537   29.1713    8.4392 C   0  0  0  0  0  0  0  0  0  0  0  0
   -3.1777   29.0631    7.1852 C   0  0  0  0  0  0  0  0  0  0  0  0
   -3.2161   30.3719    6.3844 C   0  0  0  0  0  0  0  0  0  0  0  0
   -2.9181   31.5816    7.2781 C   0  0  0  0  0  0  0  0  0  0  0  0
   -5.1604   32.0803    8.1069 C   0  0  0  0  0  0  0  0  0  0  0  0
   -4.5044   34.2779    9.1755 C   0  0  0  0  0  0  0  0  0  0  0  0
   -5.4217   33.6059    8.1591 C   0  0  0  0  0  0  0  0  0  0  0  0
   -5.1552   34.2000    6.8852 O   0  0  0  0  0  0  0  0  0  0  0  0
   -5.4281   35.1313    6.9413 H   0  0  0  0  0  0  0  0  0  0  0  0
 23 24  1  0  0  0
 24 25  1  0  0  0
 24 22  1  0  0  0
 22 16  1  0  0  0
 16 17  1  0  0  0
 17 18  1  0  0  0
 18 19  1  0  0  0
 19 15  1  0  0  0
 15  1  1  0  0  0
  1  2  1  0  0  0
  1  3  1  0  0  0
  3  4  2  0  0  0
  3  5  1  0  0  0
  5  6  1  0  0  0
  6  7  1  0  0  0
  7  8  1  0  0  0
  8  9  2  0  0  0
  9 10  1  0  0  0
 10 11  2  0  0  0
 11 12  1  0  0  0
 12 13  1  0  0  0
 12 14  2  0  0  0
 19 20  1  0  0  0
 20 21  1  0  0  0
 21 16  1  0  0  0
  7  5  1  0  0  0
 14  8  1  0  0  0
 25 26  1  0  0  0
M  END
> <minimizedAffinity>
-9.08169

$$$$
OCNT-2315444


 25 28  0  0  0  0  0  0  0  0999 V2000
   -6.1133   29.1601    5.6610 C   0  0  0  0  0  0  0  0  0  0  0  0
   -6.0417   29.7142    4.3822 C   0  0  0  0  0  0  0  0  0  0  0  0
   -5.9417   28.8778    3.2635 C   0  0  0  0  0  0  0  0  0  0  0  0
   -5.8974   27.4846    3.4002 C   0  0  0  0  0  0  0  0  0  0  0  0
   -6.0341   26.9508    4.6917 C   0  0  0  0  0  0  0  0  0  0  0  0
   -6.1366   27.7755    5.8163 C   0  0  0  0  0  0  0  0  0  0  0  0
   -7.3652   30.4151    7.1704 O   0  0  0  0  0  0  0  0  0  0  0  0
   -6.2451   30.0189    6.8593 C   0  0  0  0  0  0  0  0  0  0  0  0
   -5.1027   30.3293    7.5770 N   0  0  0  0  0  0  0  0  0  0  0  0
   -3.8046   29.6799    7.4709 C   0  0  0  0  0  0  0  0  0  0  0  0
   -3.1934   29.8352    8.8538 C   0  0  0  0  0  0  0  0  0  0  0  0
   -3.7703   31.1499    9.3715 C   0  0  0  0  0  0  0  0  0  0  0  0
   -3.0244   32.4064    8.8952 C   0  0  0  0  0  0  0  0  0  0  0  0
   -3.9585   33.1178    7.9232 C   0  0  0  0  0  0  0  0  0  0  0  0
   -5.3501   32.6831    8.3591 C   0  0  0  0  0  0  0  0  0  0  0  0
   -5.1690   31.2158    8.7372 C   0  0  0  0  0  0  0  0  0  0  0  0
   -5.8505   26.6049    2.3215 N   0  0  0  0  0  0  0  0  0  0  0  0
   -6.7709   26.4044    1.9297 H   0  0  0  0  0  0  0  0  0  0  0  0
   -4.9505   25.4513    2.2898 C   0  0  0  0  0  0  0  0  0  0  0  0
   -5.1983   24.5201    1.0995 C   0  0  0  0  0  0  0  0  0  0  0  0
   -5.3911   23.1396    1.4941 N   0  0  0  0  0  0  0  0  0  0  0  0
   -6.0497   22.1765    0.7831 C   0  0  0  0  0  0  0  0  0  0  0  0
   -5.9654   21.0452    1.5614 C   0  0  0  0  0  0  0  0  0  0  0  0
   -5.2697   21.2993    2.7152 N   0  0  0  0  0  0  0  0  0  0  0  0
   -4.9270   22.5655    2.6426 C   0  0  0  0  0  0  0  0  0  0  0  0
  7  8  2  0  0  0
  8  1  1  0  0  0
  1  2  1  0  0  0
  2  3  2  0  0  0
  3  4  1  0  0  0
  4 17  1  0  0  0
 17 19  1  0  0  0
 19 20  1  0  0  0
 20 21  1  0  0  0
 21 22  1  0  0  0
 22 23  2  0  0  0
 23 24  1  0  0  0
 24 25  2  0  0  0
  4  5  2  0  0  0
  5  6  1  0  0  0
  8  9  1  0  0  0
  9 10  1  0  0  0
 10 11  1  0  0  0
 11 12  1  0  0  0
 12 13  1  0  0  0
 13 14  1  0  0  0
 14 15  1  0  0  0
 15 16  1  0  0  0
  6  1  2  0  0  0
 16  9  1  0  0  0
 25 21  1  0  0  0
 16 12  1  0  0  0
 17 18  1  0  0  0
M  END
> <minimizedAffinity>
-8.88370

$$$$
OCNT-2315451


 28 32  0  0  0  0  0  0  0  0999 V2000
   -6.1564   23.2819    1.0811 C   0  0  0  0  0  0  0  0  0  0  0  0
   -5.7348   24.3754    0.3361 C   0  0  0  0  0  0  0  0  0  0  0  0
   -5.4940   25.5924    0.9727 C   0  0  0  0  0  0  0  0  0  0  0  0
   -5.6637   25.7281    2.3629 C   0  0  0  0  0  0  0  0  0  0  0  0
   -5.4329   27.0840    2.9932 C   0  0  0  0  0  0  0  0  0  0  0  0
   -5.1336   27.0248    4.4307 N   0  0  0  0  0  0  0  0  0  0  0  0
   -6.0949   26.2217    5.1936 C   0  0  0  0  0  0  0  0  0  0  0  0
   -6.2865   24.8030    4.6572 C   0  0  0  0  0  0  0  0  0  0  0  0
   -5.8955   23.6492    5.5726 C   0  0  0  0  0  0  0  0  0  0  0  0
   -7.3444   23.9725    5.3741 C   0  0  0  0  0  0  0  0  0  0  0  0
   -6.1043   24.6396    3.1423 C   0  0  0  0  0  0  0  0  0  0  0  0
   -6.3361   23.4245    2.4622 C   0  0  0  0  0  0  0  0  0  0  0  0
   -3.7750   26.7940    4.7244 C   0  0  0  0  0  0  0  0  0  0  0  0
   -3.0894   25.9209    3.9676 N   0  0  0  0  0  0  0  0  0  0  0  0
   -1.7886   25.7684    4.2296 C   0  0  0  0  0  0  0  0  0  0  0  0
   -1.0997   26.3773    5.1991 N   0  0  0  0  0  0  0  0  0  0  0  0
   -1.7894   27.2021    5.9868 C   0  0  0  0  0  0  0  0  0  0  0  0
   -1.1157   27.8343    7.0275 C   0  0  0  0  0  0  0  0  0  0  0  0
   -1.7644   28.6897    7.9223 C   0  0  0  0  0  0  0  0  0  0  0  0
   -3.1302   28.9004    7.7817 C   0  0  0  0  0  0  0  0  0  0  0  0
   -3.8294   28.2954    6.7377 C   0  0  0  0  0  0  0  0  0  0  0  0
   -3.1610   27.4507    5.8145 C   0  0  0  0  0  0  0  0  0  0  0  0
   -3.9881   29.9842    8.8959 S   0  0  0  0  0  0  0  0  0  0  0  0
   -4.8234   31.1113    7.8108 C   0  0  0  0  0  0  0  0  0  0  0  0
   -2.9815   30.7211    9.6357 O   0  0  0  0  0  0  0  0  0  0  0  0
   -4.9902   29.1956    9.5868 O   0  0  0  0  0  0  0  0  0  0  0  0
   -6.0479   20.9294    1.4069 C   0  0  0  0  0  0  0  0  0  0  0  0
   -6.4293   22.0325    0.5947 O   0  0  0  0  0  0  0  0  0  0  0  0
 27 28  1  0  0  0
 28  1  1  0  0  0
  1  2  1  0  0  0
  2  3  2  0  0  0
  3  4  1  0  0  0
  4  5  1  0  0  0
  5  6  1  0  0  0
  6 13  1  0  0  0
 13 14  1  0  0  0
 14 15  2  0  0  0
 15 16  1  0  0  0
 16 17  2  0  0  0
 17 18  1  0  0  0
 18 19  2  0  0  0
 19 20  1  0  0  0
 20 23  1  0  0  0
 23 24  1  0  0  0
 23 25  2  0  0  0
 23 26  2  0  0  0
 20 21  2  0  0  0
 21 22  1  0  0  0
  6  7  1  0  0  0
  7  8  1  0  0  0
  8  9  1  0  0  0
  9 10  1  0  0  0
  8 11  1  0  0  0
 11 12  1  0  0  0
 12  1  2  0  0  0
 11  4  2  0  0  0
 22 13  2  0  0  0
 10  8  1  0  0  0
 22 17  1  0  0  0
M  END
> <minimizedAffinity>
-10.14909

$$$$
OCNT-2315460


 30 33  0  0  0  0  0  0  0  0999 V2000
   -6.3963   22.1238   -0.6719 C   0  0  0  0  0  0  0  0  0  0  0  0
   -6.6819   23.1890    0.2864 N   0  0  0  0  0  0  0  0  0  0  0  0
   -7.2805   22.6691    1.5324 C   0  0  0  0  0  0  0  0  0  0  0  0
   -6.2075   22.8060    2.6210 C   0  0  0  0  0  0  0  0  0  0  0  0
   -5.5077   24.0962    2.1785 C   0  0  0  0  0  0  0  0  0  0  0  0
   -5.4617   23.9320    0.6581 C   0  0  0  0  0  0  0  0  0  0  0  0
   -6.0854   25.4598    2.6418 C   0  0  0  0  0  0  0  0  0  0  0  0
   -4.9160   25.5753    3.4922 N   0  0  0  0  0  0  0  0  0  0  0  0
   -4.7245   26.0679    4.7577 C   0  0  0  0  0  0  0  0  0  0  0  0
   -3.6539   25.9524    5.3554 O   0  0  0  0  0  0  0  0  0  0  0  0
   -4.1687   24.5174    2.8318 C   0  0  0  0  0  0  0  0  0  0  0  0
   -6.6482   22.8083    4.0616 C   0  0  0  0  0  0  0  0  0  0  0  0
   -7.9644   23.0417    4.2523 N   0  0  0  0  0  0  0  0  0  0  0  0
   -8.4812   22.9832    5.4952 C   0  0  0  0  0  0  0  0  0  0  0  0
   -7.7186   22.7303    6.5712 N   0  0  0  0  0  0  0  0  0  0  0  0
   -6.4060   22.5340    6.3654 C   0  0  0  0  0  0  0  0  0  0  0  0
   -5.8118   22.5625    5.1267 C   0  0  0  0  0  0  0  0  0  0  0  0
   -9.8435   23.2303    5.6763 N   0  0  0  0  0  0  0  0  0  0  0  0
  -10.1198   24.1978    6.7300 C   0  0  0  0  0  0  0  0  0  0  0  0
  -10.6778   22.0310    5.6738 C   0  0  0  0  0  0  0  0  0  0  0  0
   -5.9402   26.7525    5.3476 C   0  0  0  0  0  0  0  0  0  0  0  0
   -5.8209   28.2738    5.3533 C   0  0  0  0  0  0  0  0  0  0  0  0
   -5.4666   28.7680    6.7388 C   0  0  0  0  0  0  0  0  0  0  0  0
   -6.4619   28.9372    7.7091 C   0  0  0  0  0  0  0  0  0  0  0  0
   -6.1265   29.3334    9.0064 C   0  0  0  0  0  0  0  0  0  0  0  0
   -4.7942   29.5629    9.3475 C   0  0  0  0  0  0  0  0  0  0  0  0
   -3.7928   29.3963    8.3930 C   0  0  0  0  0  0  0  0  0  0  0  0
   -4.1349   28.9971    7.1025 C   0  0  0  0  0  0  0  0  0  0  0  0
   -3.1666   28.8171    6.1594 O   0  0  0  0  0  0  0  0  0  0  0  0
   -2.2979   28.7408    6.5876 H   0  0  0  0  0  0  0  0  0  0  0  0
  1  2  1  0  0  0
  2  3  1  0  0  0
  3  4  1  0  0  0
  4 12  1  0  0  0
 12 13  2  0  0  0
 13 14  1  0  0  0
 14 18  1  0  0  0
 18 19  1  0  0  0
 18 20  1  0  0  0
 14 15  2  0  0  0
 15 16  1  0  0  0
 16 17  2  0  0  0
  4  5  1  0  0  0
  5  6  1  0  0  0
  5  7  1  0  0  0
  7  8  1  0  0  0
  8  9  1  0  0  0
  9 10  2  0  0  0
  9 21  1  0  0  0
 21 22  1  0  0  0
 22 23  1  0  0  0
 23 24  2  0  0  0
 24 25  1  0  0  0
 25 26  2  0  0  0
 26 27  1  0  0  0
 27 28  2  0  0  0
 28 29  1  0  0  0
  8 11  1  0  0  0
  6  2  1  0  0  0
 28 23  1  0  0  0
 17 12  1  0  0  0
 11  5  1  0  0  0
 29 30  1  0  0  0
M  END
> <minimizedAffinity>
-7.89770

$$$$
OCNT-2315461


 24 25  0  0  0  0  0  0  0  0999 V2000
   -7.2774   29.9397    6.5394 C   0  0  0  0  0  0  0  0  0  0  0  0
   -6.3347   29.0315    7.3370 C   0  0  0  0  0  0  0  0  0  0  0  0
   -5.5708   28.0993    6.3494 C   0  0  0  0  0  0  0  0  0  0  0  0
   -4.3740   28.2168    6.1043 O   0  0  0  0  0  0  0  0  0  0  0  0
   -6.4159   27.1794    5.7403 N   0  0  0  0  0  0  0  0  0  0  0  0
   -7.3976   27.2047    5.9990 H   0  0  0  0  0  0  0  0  0  0  0  0
   -6.0921   26.1963    4.7728 C   0  0  0  0  0  0  0  0  0  0  0  0
   -5.9873   24.8323    5.0620 C   0  0  0  0  0  0  0  0  0  0  0  0
   -5.6599   23.9221    4.0521 C   0  0  0  0  0  0  0  0  0  0  0  0
   -5.5333   22.2448    4.4203 Cl  0  0  0  0  0  0  0  0  0  0  0  0
   -5.4337   24.3528    2.7460 C   0  0  0  0  0  0  0  0  0  0  0  0
   -5.5375   25.7085    2.4413 C   0  0  0  0  0  0  0  0  0  0  0  0
   -5.8658   26.6213    3.4473 C   0  0  0  0  0  0  0  0  0  0  0  0
   -5.9788   28.2964    3.0190 Cl  0  0  0  0  0  0  0  0  0  0  0  0
   -5.4145   29.7055    8.2972 N   0  0  0  0  0  0  0  0  0  0  0  0
   -5.5103   29.0898    9.6287 C   0  0  0  0  0  0  0  0  0  0  0  0
   -5.5925   31.1700    8.3850 C   0  0  0  0  0  0  0  0  0  0  0  0
   -4.3164   31.9209    7.9709 C   0  0  0  0  0  0  0  0  0  0  0  0
   -3.3627   32.1408    9.1455 C   0  0  0  0  0  0  0  0  0  0  0  0
   -1.9990   32.4033    8.5071 C   0  0  0  0  0  0  0  0  0  0  0  0
   -2.1037   31.9320    7.0583 C   0  0  0  0  0  0  0  0  0  0  0  0
   -3.4292   31.1873    6.9664 C   0  0  0  0  0  0  0  0  0  0  0  0
   -3.9410   31.2529    5.6465 O   0  0  0  0  0  0  0  0  0  0  0  0
   -4.9160   31.2671    5.7385 H   0  0  0  0  0  0  0  0  0  0  0  0
  1  2  1  0  0  0
  2  3  1  0  0  0
  3  4  2  0  0  0
  3  5  1  0  0  0
  5  7  1  0  0  0
  7  8  1  0  0  0
  8  9  2  0  0  0
  9 10  1  0  0  0
  9 11  1  0  0  0
 11 12  2  0  0  0
 12 13  1  0  0  0
 13 14  1  0  0  0
  2 15  1  0  0  0
 15 16  1  0  0  0
 15 17  1  0  0  0
 17 18  1  0  0  0
 18 19  1  0  0  0
 19 20  1  0  0  0
 20 21  1  0  0  0
 21 22  1  0  0  0
 22 23  1  0  0  0
 13  7  2  0  0  0
 22 18  1  0  0  0
  5  6  1  0  0  0
 23 24  1  0  0  0
M  END
> <minimizedAffinity>
-8.58852

$$$$
OCNT-2315468


 25 29  0  0  0  0  0  0  0  0999 V2000
   -5.6345   27.1661    4.4029 C   0  0  0  0  0  0  0  0  0  0  0  0
   -5.7412   27.7269    3.1870 N   0  0  0  0  0  0  0  0  0  0  0  0
   -5.8339   26.6393    2.3243 O   0  0  0  0  0  0  0  0  0  0  0  0
   -5.7760   25.5182    3.1012 C   0  0  0  0  0  0  0  0  0  0  0  0
   -5.6528   25.7872    4.3808 N   0  0  0  0  0  0  0  0  0  0  0  0
   -5.8534   24.1968    2.3955 C   0  0  0  0  0  0  0  0  0  0  0  0
   -6.2650   24.4270    0.9152 C   0  0  0  0  0  0  0  0  0  0  0  0
   -6.5524   23.1180    0.1742 C   0  0  0  0  0  0  0  0  0  0  0  0
   -7.4593   22.1849    0.9829 C   0  0  0  0  0  0  0  0  0  0  0  0
   -7.0257   22.0044    2.3780 N   0  0  0  0  0  0  0  0  0  0  0  0
   -5.7560   21.2621    2.4734 C   0  0  0  0  0  0  0  0  0  0  0  0
   -4.5876   22.0585    3.0636 C   0  0  0  0  0  0  0  0  0  0  0  0
   -4.4790   23.4693    2.4793 C   0  0  0  0  0  0  0  0  0  0  0  0
   -6.9480   23.3169    3.0447 C   0  0  0  0  0  0  0  0  0  0  0  0
   -6.5484   29.0961    7.4981 C   0  0  0  0  0  0  0  0  0  0  0  0
   -6.6568   28.3718    6.3116 C   0  0  0  0  0  0  0  0  0  0  0  0
   -5.5096   27.9239    5.6450 C   0  0  0  0  0  0  0  0  0  0  0  0
   -4.2470   28.2170    6.1923 C   0  0  0  0  0  0  0  0  0  0  0  0
   -4.1272   28.9466    7.3880 C   0  0  0  0  0  0  0  0  0  0  0  0
   -5.2917   29.3834    8.0357 C   0  0  0  0  0  0  0  0  0  0  0  0
   -2.8410   29.2372    7.9326 N   0  0  0  0  0  0  0  0  0  0  0  0
   -1.6950   28.4749    7.8353 C   0  0  0  0  0  0  0  0  0  0  0  0
   -0.7160   29.1604    8.5147 C   0  0  0  0  0  0  0  0  0  0  0  0
   -1.2086   30.3213    9.0319 N   0  0  0  0  0  0  0  0  0  0  0  0
   -2.4735   30.3434    8.6718 C   0  0  0  0  0  0  0  0  0  0  0  0
 15 16  2  0  0  0
 16 17  1  0  0  0
 17  1  1  0  0  0
  1  2  2  0  0  0
  2  3  1  0  0  0
  3  4  1  0  0  0
  4  6  1  0  0  0
  6  7  1  0  0  0
  7  8  1  0  0  0
  8  9  1  0  0  0
  9 10  1  0  0  0
 10 11  1  0  0  0
 11 12  1  0  0  0
 12 13  1  0  0  0
 10 14  1  0  0  0
  4  5  2  0  0  0
 17 18  2  0  0  0
 18 19  1  0  0  0
 19 21  1  0  0  0
 21 22  1  0  0  0
 22 23  2  0  0  0
 23 24  1  0  0  0
 24 25  2  0  0  0
 19 20  2  0  0  0
 20 15  1  0  0  0
  5  1  1  0  0  0
 25 21  1  0  0  0
 13  6  1  0  0  0
 14  6  1  0  0  0
M  END
> <minimizedAffinity>
-9.50706

$$$$
OCNT-2315469


 32 34  0  0  0  0  0  0  0  0999 V2000
   -6.0942   29.3040    6.5241 C   0  0  0  0  0  0  0  0  0  0  0  0
   -6.8716   28.8652    7.7685 C   0  0  0  0  0  0  0  0  0  0  0  0
   -5.8913   28.1326    5.6340 N   0  0  0  0  0  0  0  0  0  0  0  0
   -4.5383   27.5777    5.6380 C   0  0  0  0  0  0  0  0  0  0  0  0
   -4.5095   26.0829    5.2778 C   0  0  0  0  0  0  0  0  0  0  0  0
   -5.7277   25.5414    4.5175 C   0  0  0  0  0  0  0  0  0  0  0  0
   -5.9942   26.0936    3.1819 N   0  0  0  0  0  0  0  0  0  0  0  0
   -5.8369   27.5546    3.0995 C   0  0  0  0  0  0  0  0  0  0  0  0
   -6.4112   28.3948    4.2704 C   0  0  0  0  0  0  0  0  0  0  0  0
   -5.1788   25.4513    2.1309 C   0  0  0  0  0  0  0  0  0  0  0  0
   -5.9935   24.7278    1.0963 C   0  0  0  0  0  0  0  0  0  0  0  0
   -6.3686   25.2406   -0.0656 N   0  0  0  0  0  0  0  0  0  0  0  0
   -7.0896   24.2646   -0.6940 C   0  0  0  0  0  0  0  0  0  0  0  0
   -7.1643   23.1377    0.0859 C   0  0  0  0  0  0  0  0  0  0  0  0
   -6.4622   23.4357    1.2269 N   0  0  0  0  0  0  0  0  0  0  0  0
   -6.2434   22.5220    2.3434 C   0  0  0  0  0  0  0  0  0  0  0  0
   -7.4333   22.5030    3.3048 C   0  0  0  0  0  0  0  0  0  0  0  0
   -5.9026   21.1151    1.8511 C   0  0  0  0  0  0  0  0  0  0  0  0
   -4.1112   29.7978    7.9569 N   0  0  0  0  0  0  0  0  0  0  0  0
   -4.7713   30.0967    6.7725 C   0  0  0  0  0  0  0  0  0  0  0  0
   -4.3667   30.8973    5.9263 O   0  0  0  0  0  0  0  0  0  0  0  0
   -4.5785   29.1539    8.5772 H   0  0  0  0  0  0  0  0  0  0  0  0
   -1.7153   28.2294    7.5768 C   0  0  0  0  0  0  0  0  0  0  0  0
   -1.6944   29.5863    8.2392 C   0  0  0  0  0  0  0  0  0  0  0  0
   -2.8855   30.3293    8.4330 C   0  0  0  0  0  0  0  0  0  0  0  0
   -2.8179   31.5769    9.0735 C   0  0  0  0  0  0  0  0  0  0  0  0
   -1.6053   32.1067    9.5264 C   0  0  0  0  0  0  0  0  0  0  0  0
   -0.4293   31.3997    9.3383 C   0  0  0  0  0  0  0  0  0  0  0  0
   -0.4827   30.1635    8.6851 C   0  0  0  0  0  0  0  0  0  0  0  0
    0.7883   29.4904    8.4729 N   0  0  0  0  0  0  0  0  0  0  0  0
    1.4072   29.1202    9.4791 O   0  0  0  0  0  0  0  0  0  0  0  0
    1.1507   29.3396    7.3003 O   0  0  0  0  0  0  0  0  0  0  0  0
 23 24  1  0  0  0
 24 25  2  0  0  0
 25 19  1  0  0  0
 19 20  1  0  0  0
 20 21  2  0  0  0
 20  1  1  0  0  0
  1  2  1  0  0  0
  1  3  1  0  0  0
  3  4  1  0  0  0
  4  5  1  0  0  0
  5  6  1  0  0  0
  6  7  1  0  0  0
  7 10  1  0  0  0
 10 11  1  0  0  0
 11 12  2  0  0  0
 12 13  1  0  0  0
 13 14  2  0  0  0
 14 15  1  0  0  0
 15 16  1  0  0  0
 16 17  1  0  0  0
 16 18  1  0  0  0
  7  8  1  0  0  0
  8  9  1  0  0  0
 25 26  1  0  0  0
 26 27  2  0  0  0
 27 28  1  0  0  0
 28 29  2  0  0  0
 29 30  1  0  0  0
 30 31  2  0  0  0
 30 32  1  0  0  0
 29 24  1  0  0  0
  9  3  1  0  0  0
 15 11  1  0  0  0
 19 22  1  0  0  0
M  CHG 1  30   1
M  CHG 1  32  -1
M  END
> <minimizedAffinity>
-9.50846

$$$$
OCNT-2315488


 27 29  0  0  0  0  0  0  0  0999 V2000
   -4.0428   28.0465    5.4190 N   0  0  0  0  0  0  0  0  0  0  0  0
   -3.0870   28.4113    6.3308 C   0  0  0  0  0  0  0  0  0  0  0  0
   -2.3611   27.6346    6.9349 O   0  0  0  0  0  0  0  0  0  0  0  0
   -3.0589   29.7748    6.4955 N   0  0  0  0  0  0  0  0  0  0  0  0
   -4.2247   28.7441    4.7112 H   0  0  0  0  0  0  0  0  0  0  0  0
   -3.9695   30.2036    6.3829 H   0  0  0  0  0  0  0  0  0  0  0  0
   -4.9114   25.4568    2.3519 N   0  0  0  0  0  0  0  0  0  0  0  0
   -3.6850   25.1156    3.0900 C   0  0  0  0  0  0  0  0  0  0  0  0
   -3.1767   26.2796    3.9346 C   0  0  0  0  0  0  0  0  0  0  0  0
   -4.1986   26.6512    5.0177 C   0  0  0  0  0  0  0  0  0  0  0  0
   -5.6390   26.3670    4.5738 C   0  0  0  0  0  0  0  0  0  0  0  0
   -5.7735   26.4198    3.0546 C   0  0  0  0  0  0  0  0  0  0  0  0
   -5.6649   24.2530    1.9389 C   0  0  0  0  0  0  0  0  0  0  0  0
   -6.2033   24.3175    0.4869 C   0  0  0  0  0  0  0  0  0  0  0  0
   -6.0977   21.9367    0.8399 C   0  0  0  0  0  0  0  0  0  0  0  0
   -6.5238   22.9914   -0.0842 N   0  0  0  0  0  0  0  0  0  0  0  0
   -7.9534   22.8506   -0.3677 C   0  0  0  0  0  0  0  0  0  0  0  0
   -2.1899   30.3444    7.5078 C   0  0  0  0  0  0  0  0  0  0  0  0
   -1.9670   31.8412    7.3198 C   0  0  0  0  0  0  0  0  0  0  0  0
   -1.4568   32.3322    8.6727 C   0  0  0  0  0  0  0  0  0  0  0  0
   -1.8203   31.2572    9.7039 C   0  0  0  0  0  0  0  0  0  0  0  0
   -2.6774   30.2181    8.9677 C   0  0  0  0  0  0  0  0  0  0  0  0
   -4.1111   30.4024    9.1366 N   0  0  0  0  0  0  0  0  0  0  0  0
   -5.0039   29.3949    9.3989 C   0  0  0  0  0  0  0  0  0  0  0  0
   -6.2353   30.0028    9.4368 C   0  0  0  0  0  0  0  0  0  0  0  0
   -6.1168   31.3478    9.2102 N   0  0  0  0  0  0  0  0  0  0  0  0
   -4.8301   31.5610    9.0497 C   0  0  0  0  0  0  0  0  0  0  0  0
 15 16  1  0  0  0
 16 17  1  0  0  0
 16 14  1  0  0  0
 14 13  1  0  0  0
 13  7  1  0  0  0
  7  8  1  0  0  0
  8  9  1  0  0  0
  9 10  1  0  0  0
 10  1  1  0  0  0
  1  2  1  0  0  0
  2  3  2  0  0  0
  2  4  1  0  0  0
  4 18  1  0  0  0
 18 19  1  0  0  0
 19 20  1  0  0  0
 20 21  1  0  0  0
 21 22  1  0  0  0
 22 23  1  0  0  0
 23 24  1  0  0  0
 24 25  2  0  0  0
 25 26  1  0  0  0
 26 27  2  0  0  0
 10 11  1  0  0  0
 11 12  1  0  0  0
 12  7  1  0  0  0
 22 18  1  0  0  0
 27 23  1  0  0  0
  1  5  1  0  0  0
  4  6  1  0  0  0
M  END
> <minimizedAffinity>
-8.52895

$$$$
OCNT-2315490


 25 28  0  0  0  0  0  0  0  0999 V2000
   -2.2149   26.0301    5.5252 O   0  0  0  0  0  0  0  0  0  0  0  0
   -3.2451   26.6816    5.6553 C   0  0  0  0  0  0  0  0  0  0  0  0
   -4.4940   26.2215    5.2930 N   0  0  0  0  0  0  0  0  0  0  0  0
   -5.2689   26.8349    5.5403 H   0  0  0  0  0  0  0  0  0  0  0  0
   -3.2469   28.0579    6.2461 C   0  0  0  0  0  0  0  0  0  0  0  0
   -4.3681   28.8640    6.1232 C   0  0  0  0  0  0  0  0  0  0  0  0
   -4.3225   30.1398    6.6807 C   0  0  0  0  0  0  0  0  0  0  0  0
   -3.1640   30.5878    7.3193 C   0  0  0  0  0  0  0  0  0  0  0  0
   -3.1614   31.8402    7.9500 N   0  0  0  0  0  0  0  0  0  0  0  0
   -1.8544   32.3557    8.3421 C   0  0  0  0  0  0  0  0  0  0  0  0
   -1.0582   31.2772    9.0641 C   0  0  0  0  0  0  0  0  0  0  0  0
   -0.8293   30.0952    8.1287 C   0  0  0  0  0  0  0  0  0  0  0  0
   -2.0970   29.6786    7.4282 C   0  0  0  0  0  0  0  0  0  0  0  0
   -2.1052   28.4341    6.8857 N   0  0  0  0  0  0  0  0  0  0  0  0
   -3.7476   32.5222    7.4744 H   0  0  0  0  0  0  0  0  0  0  0  0
   -4.7233   24.8533    4.7819 C   0  0  0  0  0  0  0  0  0  0  0  0
   -4.2740   24.6177    3.3274 C   0  0  0  0  0  0  0  0  0  0  0  0
   -5.6273   24.8970    2.9355 N   0  0  0  0  0  0  0  0  0  0  0  0
   -6.1435   24.5936    4.2417 C   0  0  0  0  0  0  0  0  0  0  0  0
   -6.1935   24.5319    1.7006 C   0  0  0  0  0  0  0  0  0  0  0  0
   -6.1183   25.3958    0.6230 C   0  0  0  0  0  0  0  0  0  0  0  0
   -6.6802   24.9673   -0.5578 C   0  0  0  0  0  0  0  0  0  0  0  0
   -7.2795   23.7753   -0.7029 N   0  0  0  0  0  0  0  0  0  0  0  0
   -7.2932   23.0070    0.3942 C   0  0  0  0  0  0  0  0  0  0  0  0
   -6.7783   23.3240    1.5909 N   0  0  0  0  0  0  0  0  0  0  0  0
  1  2  2  0  0  0
  2  3  1  0  0  0
  3 16  1  0  0  0
 16 17  1  0  0  0
 17 18  1  0  0  0
 18 20  1  0  0  0
 20 21  1  0  0  0
 21 22  2  0  0  0
 22 23  1  0  0  0
 23 24  2  0  0  0
 24 25  1  0  0  0
 18 19  1  0  0  0
  2  5  1  0  0  0
  5  6  1  0  0  0
  6  7  2  0  0  0
  7  8  1  0  0  0
  8  9  1  0  0  0
  9 10  1  0  0  0
 10 11  1  0  0  0
 11 12  1  0  0  0
 12 13  1  0  0  0
 13 14  1  0  0  0
 19 16  1  0  0  0
 14  5  2  0  0  0
 25 20  2  0  0  0
 13  8  2  0  0  0
  3  4  1  0  0  0
  9 15  1  0  0  0
M  END
> <minimizedAffinity>
-8.34836

$$$$
OCNT-2315502


 23 25  0  0  0  0  0  0  0  0999 V2000
   -4.5546   27.2685    4.8994 C   0  0  0  0  0  0  0  0  0  0  0  0
   -5.5068   27.7065    3.7796 C   0  0  0  0  0  0  0  0  0  0  0  0
   -5.7761   26.5765    2.7815 C   0  0  0  0  0  0  0  0  0  0  0  0
   -4.5261   25.8711    2.4885 N   0  0  0  0  0  0  0  0  0  0  0  0
   -4.0349   25.1345    3.6693 C   0  0  0  0  0  0  0  0  0  0  0  0
   -4.4356   25.7509    5.0149 C   0  0  0  0  0  0  0  0  0  0  0  0
   -4.8216   27.9282    6.1877 N   0  0  0  0  0  0  0  0  0  0  0  0
   -4.8518   27.2520    6.9461 H   0  0  0  0  0  0  0  0  0  0  0  0
   -2.3607   29.9732    7.8891 C   0  0  0  0  0  0  0  0  0  0  0  0
   -3.0532   28.8550    7.4855 C   0  0  0  0  0  0  0  0  0  0  0  0
   -4.0865   29.0492    6.5906 C   0  0  0  0  0  0  0  0  0  0  0  0
   -4.4041   30.2787    6.1593 N   0  0  0  0  0  0  0  0  0  0  0  0
   -3.6643   31.2995    6.6180 C   0  0  0  0  0  0  0  0  0  0  0  0
   -2.6375   31.2153    7.4685 N   0  0  0  0  0  0  0  0  0  0  0  0
   -1.3250   29.7585    8.7791 O   0  0  0  0  0  0  0  0  0  0  0  0
    0.5983   29.3279    7.4396 C   0  0  0  0  0  0  0  0  0  0  0  0
   -0.4333   28.7191    8.3725 C   0  0  0  0  0  0  0  0  0  0  0  0
   -4.6186   24.9729    1.3270 C   0  0  0  0  0  0  0  0  0  0  0  0
   -6.0240   24.3990    1.1013 C   0  0  0  0  0  0  0  0  0  0  0  0
   -6.0234   22.8736    1.0002 C   0  0  0  0  0  0  0  0  0  0  0  0
   -7.3777   22.5502    0.3809 C   0  0  0  0  0  0  0  0  0  0  0  0
   -7.7567   23.7701   -0.4594 C   0  0  0  0  0  0  0  0  0  0  0  0
   -6.6610   24.8072   -0.2268 C   0  0  0  0  0  0  0  0  0  0  0  0
 16 17  1  0  0  0
 17 15  1  0  0  0
 15  9  1  0  0  0
  9 10  2  0  0  0
 10 11  1  0  0  0
 11  7  1  0  0  0
  7  1  1  0  0  0
  1  2  1  0  0  0
  2  3  1  0  0  0
  3  4  1  0  0  0
  4 18  1  0  0  0
 18 19  1  0  0  0
 19 20  1  0  0  0
 20 21  1  0  0  0
 21 22  1  0  0  0
 22 23  1  0  0  0
  4  5  1  0  0  0
  5  6  1  0  0  0
 11 12  2  0  0  0
 12 13  1  0  0  0
 13 14  2  0  0  0
 14  9  1  0  0  0
  6  1  1  0  0  0
 23 19  1  0  0  0
  7  8  1  0  0  0
M  END
> <minimizedAffinity>
-8.34981

$$$$
OCNT-2315505


 30 34  0  0  0  0  0  0  0  0999 V2000
   -5.0011   27.7336    5.1457 N   0  0  0  0  0  0  0  0  0  0  0  0
   -3.6808   27.1542    4.8995 C   0  0  0  0  0  0  0  0  0  0  0  0
   -3.8231   25.6748    4.5232 C   0  0  0  0  0  0  0  0  0  0  0  0
   -4.9248   25.4106    3.4778 C   0  0  0  0  0  0  0  0  0  0  0  0
   -5.4411   26.7199    2.8712 C   0  0  0  0  0  0  0  0  0  0  0  0
   -5.8201   27.7689    3.9246 C   0  0  0  0  0  0  0  0  0  0  0  0
   -6.0512   24.5427    3.9939 C   0  0  0  0  0  0  0  0  0  0  0  0
   -6.7930   24.7287    5.1506 C   0  0  0  0  0  0  0  0  0  0  0  0
   -7.7187   23.7241    5.2436 N   0  0  0  0  0  0  0  0  0  0  0  0
   -7.6043   22.8880    4.1707 C   0  0  0  0  0  0  0  0  0  0  0  0
   -8.3766   21.8044    3.9678 N   0  0  0  0  0  0  0  0  0  0  0  0
   -8.0641   21.1446    2.8298 C   0  0  0  0  0  0  0  0  0  0  0  0
   -7.0667   21.5030    1.9324 C   0  0  0  0  0  0  0  0  0  0  0  0
   -6.2968   22.6375    2.1938 C   0  0  0  0  0  0  0  0  0  0  0  0
   -6.5748   23.3639    3.3652 C   0  0  0  0  0  0  0  0  0  0  0  0
   -8.3973   23.5975    5.9791 H   0  0  0  0  0  0  0  0  0  0  0  0
   -4.9389   29.0622    5.7721 C   0  0  0  0  0  0  0  0  0  0  0  0
   -4.4283   29.0378    8.3575 C   0  0  0  0  0  0  0  0  0  0  0  0
   -5.1156   28.8873    9.5016 N   0  0  0  0  0  0  0  0  0  0  0  0
   -6.3931   28.7830    9.1153 N   0  0  0  0  0  0  0  0  0  0  0  0
   -6.5614   28.8461    7.7698 C   0  0  0  0  0  0  0  0  0  0  0  0
   -5.2998   28.9837    7.2222 C   0  0  0  0  0  0  0  0  0  0  0  0
   -7.1027   28.6665    9.8309 H   0  0  0  0  0  0  0  0  0  0  0  0
    1.1254   29.6707    8.4606 F   0  0  0  0  0  0  0  0  0  0  0  0
   -0.2053   29.5197    8.4390 C   0  0  0  0  0  0  0  0  0  0  0  0
   -0.7526   28.3375    7.9555 C   0  0  0  0  0  0  0  0  0  0  0  0
   -2.1400   28.1815    7.9337 C   0  0  0  0  0  0  0  0  0  0  0  0
   -2.9778   29.2119    8.3880 C   0  0  0  0  0  0  0  0  0  0  0  0
   -2.4058   30.3928    8.8848 C   0  0  0  0  0  0  0  0  0  0  0  0
   -1.0175   30.5470    8.9063 C   0  0  0  0  0  0  0  0  0  0  0  0
 24 25  1  0  0  0
 25 26  1  0  0  0
 26 27  2  0  0  0
 27 28  1  0  0  0
 28 18  1  0  0  0
 18 19  2  0  0  0
 19 20  1  0  0  0
 20 21  1  0  0  0
 21 22  2  0  0  0
 22 17  1  0  0  0
 17  1  1  0  0  0
  1  2  1  0  0  0
  2  3  1  0  0  0
  3  4  1  0  0  0
  4  7  1  0  0  0
  7  8  2  0  0  0
  8  9  1  0  0  0
  9 10  1  0  0  0
 10 11  1  0  0  0
 11 12  2  0  0  0
 12 13  1  0  0  0
 13 14  2  0  0  0
 14 15  1  0  0  0
  4  5  1  0  0  0
  5  6  1  0  0  0
 28 29  2  0  0  0
 29 30  1  0  0  0
 30 25  2  0  0  0
 22 18  1  0  0  0
  6  1  1  0  0  0
 15  7  1  0  0  0
 15 10  2  0  0  0
 20 23  1  0  0  0
  9 16  1  0  0  0
M  END
> <minimizedAffinity>
-9.87483

$$$$
OCNT-2315512


 23 26  0  0  0  0  0  0  0  0999 V2000
   -6.0414   29.3754    6.8095 C   0  0  0  0  0  0  0  0  0  0  0  0
   -7.0325   30.2919    7.1483 C   0  0  0  0  0  0  0  0  0  0  0  0
   -6.6974   31.4582    7.8410 C   0  0  0  0  0  0  0  0  0  0  0  0
   -5.3916   31.7465    8.2134 C   0  0  0  0  0  0  0  0  0  0  0  0
   -5.1669   32.8858    8.8854 N   0  0  0  0  0  0  0  0  0  0  0  0
   -3.9026   33.1595    9.2546 C   0  0  0  0  0  0  0  0  0  0  0  0
   -2.8234   32.3419    8.9804 C   0  0  0  0  0  0  0  0  0  0  0  0
   -3.0334   31.1510    8.2769 C   0  0  0  0  0  0  0  0  0  0  0  0
   -4.3651   30.8351    7.8779 C   0  0  0  0  0  0  0  0  0  0  0  0
   -4.7209   29.6525    7.1847 C   0  0  0  0  0  0  0  0  0  0  0  0
   -1.9501   30.2925    7.9423 N   0  0  0  0  0  0  0  0  0  0  0  0
   -0.9075   30.1405    8.9595 C   0  0  0  0  0  0  0  0  0  0  0  0
   -0.0741   28.8938    8.6557 C   0  0  0  0  0  0  0  0  0  0  0  0
    0.1215   28.6592    7.1459 C   0  0  0  0  0  0  0  0  0  0  0  0
   -0.0722   29.9563    6.3532 C   0  0  0  0  0  0  0  0  0  0  0  0
   -1.4582   30.5650    6.5746 C   0  0  0  0  0  0  0  0  0  0  0  0
   -0.6792   27.5759    6.5883 N   0  0  0  0  0  0  0  0  0  0  0  0
   -1.8120   26.9816    7.0590 C   0  0  0  0  0  0  0  0  0  0  0  0
   -2.1126   26.0352    6.1111 C   0  0  0  0  0  0  0  0  0  0  0  0
   -1.1799   26.0751    5.1170 N   0  0  0  0  0  0  0  0  0  0  0  0
   -0.3022   27.0227    5.4176 N   0  0  0  0  0  0  0  0  0  0  0  0
   -6.1732   28.2344    4.5792 C   0  0  0  0  0  0  0  0  0  0  0  0
   -6.3778   28.1008    6.0806 C   0  0  0  0  0  0  0  0  0  0  0  0
 22 23  1  0  0  0
 23  1  1  0  0  0
  1  2  2  0  0  0
  2  3  1  0  0  0
  3  4  2  0  0  0
  4  5  1  0  0  0
  5  6  2  0  0  0
  6  7  1  0  0  0
  7  8  2  0  0  0
  8 11  1  0  0  0
 11 12  1  0  0  0
 12 13  1  0  0  0
 13 14  1  0  0  0
 14 17  1  0  0  0
 17 18  1  0  0  0
 18 19  2  0  0  0
 19 20  1  0  0  0
 20 21  2  0  0  0
 14 15  1  0  0  0
 15 16  1  0  0  0
  8  9  1  0  0  0
  9 10  2  0  0  0
 10  1  1  0  0  0
  9  4  1  0  0  0
 16 11  1  0  0  0
 21 17  1  0  0  0
M  END
> <minimizedAffinity>
-8.59432

$$$$
OCNT-2315518


 25 27  0  0  0  0  0  0  0  0999 V2000
   -0.8821   27.4613    7.0281 C   0  0  0  0  0  0  0  0  0  0  0  0
   -1.1941   26.7847    5.7405 C   0  0  0  0  0  0  0  0  0  0  0  0
   -0.3668   26.1380    4.9473 N   0  0  0  0  0  0  0  0  0  0  0  0
   -1.0805   25.6959    3.8588 N   0  0  0  0  0  0  0  0  0  0  0  0
   -2.3305   26.0813    4.0017 C   0  0  0  0  0  0  0  0  0  0  0  0
   -2.4433   26.7672    5.1825 N   0  0  0  0  0  0  0  0  0  0  0  0
   -3.2766   27.1922    5.5605 H   0  0  0  0  0  0  0  0  0  0  0  0
   -3.4576   25.8357    3.0526 C   0  0  0  0  0  0  0  0  0  0  0  0
   -4.6851   26.6843    3.3828 C   0  0  0  0  0  0  0  0  0  0  0  0
   -5.7847   26.4602    2.3461 C   0  0  0  0  0  0  0  0  0  0  0  0
   -5.7294   25.1732    1.7298 O   0  0  0  0  0  0  0  0  0  0  0  0
   -5.2989   24.1475    2.6144 C   0  0  0  0  0  0  0  0  0  0  0  0
   -3.8311   24.3476    2.9785 C   0  0  0  0  0  0  0  0  0  0  0  0
    0.4336   28.1083    7.0364 N   0  0  0  0  0  0  0  0  0  0  0  0
    0.8605   27.9205    6.1247 H   0  0  0  0  0  0  0  0  0  0  0  0
    0.4119   29.5599    7.2369 C   0  0  0  0  0  0  0  0  0  0  0  0
   -3.1351   31.6038    8.7017 C   0  0  0  0  0  0  0  0  0  0  0  0
   -2.9561   31.5253    7.1716 C   0  0  0  0  0  0  0  0  0  0  0  0
   -1.5631   31.0545    6.7371 C   0  0  0  0  0  0  0  0  0  0  0  0
   -0.9201   30.1232    7.7718 C   0  0  0  0  0  0  0  0  0  0  0  0
   -0.7404   30.8560    9.1158 C   0  0  0  0  0  0  0  0  0  0  0  0
   -1.7979   31.9348    9.3772 C   0  0  0  0  0  0  0  0  0  0  0  0
   -5.6330   31.8174    9.1735 C   0  0  0  0  0  0  0  0  0  0  0  0
   -4.2840   32.5436    9.1583 C   0  0  0  0  0  0  0  0  0  0  0  0
   -4.4013   33.8378    8.3480 C   0  0  0  0  0  0  0  0  0  0  0  0
 23 24  1  0  0  0
 24 25  1  0  0  0
 24 17  1  0  0  0
 17 18  1  0  0  0
 18 19  1  0  0  0
 19 20  1  0  0  0
 20 16  1  0  0  0
 16 14  1  0  0  0
 14  1  1  0  0  0
  1  2  1  0  0  0
  2  3  2  0  0  0
  3  4  1  0  0  0
  4  5  2  0  0  0
  5  8  1  0  0  0
  8  9  1  0  0  0
  9 10  1  0  0  0
 10 11  1  0  0  0
 11 12  1  0  0  0
 12 13  1  0  0  0
  5  6  1  0  0  0
 20 21  1  0  0  0
 21 22  1  0  0  0
 22 17  1  0  0  0
  6  2  1  0  0  0
 13  8  1  0  0  0
 14 15  1  0  0  0
  6  7  1  0  0  0
M  END
> <minimizedAffinity>
-8.91682

$$$$
OCNT-2315525


 28 30  0  0  0  0  0  0  0  0999 V2000
   -6.1454   30.0749    5.9775 N   0  0  0  0  0  0  0  0  0  0  0  0
   -5.7799   30.1749    7.3016 C   0  0  0  0  0  0  0  0  0  0  0  0
   -5.4216   29.2662    8.0377 O   0  0  0  0  0  0  0  0  0  0  0  0
   -5.8859   31.4823    7.7383 N   0  0  0  0  0  0  0  0  0  0  0  0
   -6.6549   30.8655    5.6140 H   0  0  0  0  0  0  0  0  0  0  0  0
   -5.7429   32.1937    7.0372 H   0  0  0  0  0  0  0  0  0  0  0  0
   -5.9136   26.7496    3.3837 C   0  0  0  0  0  0  0  0  0  0  0  0
   -6.0060   26.5388    4.7627 C   0  0  0  0  0  0  0  0  0  0  0  0
   -6.0912   27.6247    5.6424 C   0  0  0  0  0  0  0  0  0  0  0  0
   -6.0775   28.9330    5.1555 C   0  0  0  0  0  0  0  0  0  0  0  0
   -5.9613   29.1409    3.7746 C   0  0  0  0  0  0  0  0  0  0  0  0
   -5.8801   28.0579    2.8910 C   0  0  0  0  0  0  0  0  0  0  0  0
   -5.6793   24.3403    3.0798 N   0  0  0  0  0  0  0  0  0  0  0  0
   -5.8254   25.5655    2.4888 C   0  0  0  0  0  0  0  0  0  0  0  0
   -5.8461   25.6741    1.2699 O   0  0  0  0  0  0  0  0  0  0  0  0
   -5.3495   24.2463    4.0294 H   0  0  0  0  0  0  0  0  0  0  0  0
   -5.4812   23.5760    2.4460 H   0  0  0  0  0  0  0  0  0  0  0  0
   -5.5076   31.8270    9.0996 C   0  0  0  0  0  0  0  0  0  0  0  0
   -4.0325   32.2691    9.2085 C   0  0  0  0  0  0  0  0  0  0  0  0
   -3.0297   31.4572    8.5029 N   0  0  0  0  0  0  0  0  0  0  0  0
   -2.6717   31.9902    7.1741 C   0  0  0  0  0  0  0  0  0  0  0  0
   -1.8754   30.9607    6.3407 C   0  0  0  0  0  0  0  0  0  0  0  0
   -0.8301   30.3267    7.1990 C   0  0  0  0  0  0  0  0  0  0  0  0
   -0.8197   30.4140    8.5773 C   0  0  0  0  0  0  0  0  0  0  0  0
    0.2790   29.6820    9.1252 C   0  0  0  0  0  0  0  0  0  0  0  0
    1.0410   29.0769    8.1477 C   0  0  0  0  0  0  0  0  0  0  0  0
    0.4396   29.3897    6.5748 S   0  0  0  0  0  0  0  0  0  0  0  0
   -1.8364   31.2159    9.3439 C   0  0  0  0  0  0  0  0  0  0  0  0
 13 14  1  0  0  0
 14 15  2  0  0  0
 14  7  1  0  0  0
  7  8  1  0  0  0
  8  9  2  0  0  0
  9 10  1  0  0  0
 10  1  1  0  0  0
  1  2  1  0  0  0
  2  3  2  0  0  0
  2  4  1  0  0  0
  4 18  1  0  0  0
 18 19  1  0  0  0
 19 20  1  0  0  0
 20 21  1  0  0  0
 21 22  1  0  0  0
 22 23  1  0  0  0
 23 24  2  0  0  0
 24 25  1  0  0  0
 25 26  2  0  0  0
 26 27  1  0  0  0
 24 28  1  0  0  0
 10 11  2  0  0  0
 11 12  1  0  0  0
 12  7  2  0  0  0
 28 20  1  0  0  0
 27 23  1  0  0  0
 13 16  1  0  0  0
 13 17  1  0  0  0
  1  5  1  0  0  0
  4  6  1  0  0  0
M  END
> <minimizedAffinity>
-9.10841

$$$$
OCNT-2315532


 30 33  0  0  0  0  0  0  0  0999 V2000
   -0.9188   27.4744    6.1876 C   0  0  0  0  0  0  0  0  0  0  0  0
    0.0981   28.2959    6.6351 C   0  0  0  0  0  0  0  0  0  0  0  0
   -0.0763   29.2924    7.5302 N   0  0  0  0  0  0  0  0  0  0  0  0
   -1.3087   29.5227    8.0223 C   0  0  0  0  0  0  0  0  0  0  0  0
   -1.5105   30.5540    8.9422 C   0  0  0  0  0  0  0  0  0  0  0  0
   -0.4686   31.3065    9.3353 F   0  0  0  0  0  0  0  0  0  0  0  0
   -2.7637   30.8356    9.4689 C   0  0  0  0  0  0  0  0  0  0  0  0
   -2.9172   31.8355   10.3479 F   0  0  0  0  0  0  0  0  0  0  0  0
   -3.8530   30.0832    9.0780 C   0  0  0  0  0  0  0  0  0  0  0  0
   -5.0716   30.3449    9.5674 F   0  0  0  0  0  0  0  0  0  0  0  0
   -3.6946   29.0471    8.1670 C   0  0  0  0  0  0  0  0  0  0  0  0
   -2.4232   28.7410    7.6283 C   0  0  0  0  0  0  0  0  0  0  0  0
   -2.2152   27.6916    6.6853 C   0  0  0  0  0  0  0  0  0  0  0  0
   -0.3300   25.6311    4.4701 N   0  0  0  0  0  0  0  0  0  0  0  0
   -0.6125   26.4504    5.2409 C   0  0  0  0  0  0  0  0  0  0  0  0
   -3.3084   26.8355    6.3325 N   0  0  0  0  0  0  0  0  0  0  0  0
   -3.8901   26.6490    7.1557 H   0  0  0  0  0  0  0  0  0  0  0  0
   -4.1832   27.4552    5.3060 C   0  0  0  0  0  0  0  0  0  0  0  0
   -4.2267   26.6901    4.0309 C   0  0  0  0  0  0  0  0  0  0  0  0
   -3.2317   26.4118    3.2204 N   0  0  0  0  0  0  0  0  0  0  0  0
   -3.7372   25.6752    2.1760 N   0  0  0  0  0  0  0  0  0  0  0  0
   -5.0355   25.5089    2.3575 C   0  0  0  0  0  0  0  0  0  0  0  0
   -5.3739   26.1391    3.5273 N   0  0  0  0  0  0  0  0  0  0  0  0
   -6.2887   26.2144    3.9446 H   0  0  0  0  0  0  0  0  0  0  0  0
   -5.9549   24.7893    1.4760 C   0  0  0  0  0  0  0  0  0  0  0  0
   -6.2313   25.3118    0.2084 C   0  0  0  0  0  0  0  0  0  0  0  0
   -7.1019   24.6291   -0.6239 C   0  0  0  0  0  0  0  0  0  0  0  0
   -7.7088   23.4740   -0.2835 N   0  0  0  0  0  0  0  0  0  0  0  0
   -7.4320   22.9818    0.9402 C   0  0  0  0  0  0  0  0  0  0  0  0
   -6.5749   23.5919    1.8443 C   0  0  0  0  0  0  0  0  0  0  0  0
 14 15  3  0  0  0
 15  1  1  0  0  0
  1  2  1  0  0  0
  2  3  2  0  0  0
  3  4  1  0  0  0
  4  5  2  0  0  0
  5  6  1  0  0  0
  5  7  1  0  0  0
  7  8  1  0  0  0
  7  9  2  0  0  0
  9 10  1  0  0  0
  9 11  1  0  0  0
 11 12  2  0  0  0
 12 13  1  0  0  0
 13 16  1  0  0  0
 16 18  1  0  0  0
 18 19  1  0  0  0
 19 20  2  0  0  0
 20 21  1  0  0  0
 21 22  2  0  0  0
 22 25  1  0  0  0
 25 26  2  0  0  0
 26 27  1  0  0  0
 27 28  2  0  0  0
 28 29  1  0  0  0
 29 30  2  0  0  0
 22 23  1  0  0  0
 13  1  2  0  0  0
 23 19  1  0  0  0
 12  4  1  0  0  0
 30 25  1  0  0  0
 16 17  1  0  0  0
 23 24  1  0  0  0
M  END
> <minimizedAffinity>
-9.99957

$$$$
OCNT-2315535


 28 30  0  0  0  0  0  0  0  0999 V2000
   -2.8559   28.3995    6.7899 N   0  0  0  0  0  0  0  0  0  0  0  0
   -4.1079   28.5335    6.2570 C   0  0  0  0  0  0  0  0  0  0  0  0
   -5.0530   29.0536    6.8323 O   0  0  0  0  0  0  0  0  0  0  0  0
   -4.1680   28.0010    4.9968 N   0  0  0  0  0  0  0  0  0  0  0  0
   -2.0923   28.4333    6.1245 H   0  0  0  0  0  0  0  0  0  0  0  0
   -3.5276   27.2349    4.8474 H   0  0  0  0  0  0  0  0  0  0  0  0
   -2.5307   29.0227    8.0632 C   0  0  0  0  0  0  0  0  0  0  0  0
   -1.3227   30.0197    7.9251 C   0  0  0  0  0  0  0  0  0  0  0  0
   -1.2056   30.8288    9.2533 C   0  0  0  0  0  0  0  0  0  0  0  0
   -2.3752   31.7843    9.4688 C   0  0  0  0  0  0  0  0  0  0  0  0
   -2.5070   32.6654    8.3563 O   0  0  0  0  0  0  0  0  0  0  0  0
   -2.7715   31.9745    7.1401 C   0  0  0  0  0  0  0  0  0  0  0  0
   -1.6256   31.0296    6.7869 C   0  0  0  0  0  0  0  0  0  0  0  0
    0.9368   29.2563    8.7210 C   0  0  0  0  0  0  0  0  0  0  0  0
   -0.0859   29.1829    7.6729 N   0  0  0  0  0  0  0  0  0  0  0  0
    0.5530   29.4396    6.3744 C   0  0  0  0  0  0  0  0  0  0  0  0
   -5.4439   27.9221    4.3271 C   0  0  0  0  0  0  0  0  0  0  0  0
   -5.7843   26.4938    4.0011 C   0  0  0  0  0  0  0  0  0  0  0  0
   -5.6898   26.0131    2.6944 C   0  0  0  0  0  0  0  0  0  0  0  0
   -6.0335   24.6955    2.4494 C   0  0  0  0  0  0  0  0  0  0  0  0
   -6.4632   23.8423    3.4031 N   0  0  0  0  0  0  0  0  0  0  0  0
   -6.5577   24.3138    4.6735 C   0  0  0  0  0  0  0  0  0  0  0  0
   -6.2302   25.6253    5.0080 C   0  0  0  0  0  0  0  0  0  0  0  0
   -7.0148   23.4083    5.6700 N   0  0  0  0  0  0  0  0  0  0  0  0
   -8.3010   23.1671    6.1022 C   0  0  0  0  0  0  0  0  0  0  0  0
   -8.1944   22.2011    7.0763 C   0  0  0  0  0  0  0  0  0  0  0  0
   -6.8912   21.8364    7.2616 N   0  0  0  0  0  0  0  0  0  0  0  0
   -6.2084   22.5729    6.4115 C   0  0  0  0  0  0  0  0  0  0  0  0
 14 15  1  0  0  0
 15 16  1  0  0  0
 15  8  1  0  0  0
  8  7  1  0  0  0
  7  1  1  0  0  0
  1  2  1  0  0  0
  2  3  2  0  0  0
  2  4  1  0  0  0
  4 17  1  0  0  0
 17 18  1  0  0  0
 18 19  2  0  0  0
 19 20  1  0  0  0
 20 21  2  0  0  0
 21 22  1  0  0  0
 22 24  1  0  0  0
 24 25  1  0  0  0
 25 26  2  0  0  0
 26 27  1  0  0  0
 27 28  2  0  0  0
 22 23  2  0  0  0
  8  9  1  0  0  0
  9 10  1  0  0  0
 10 11  1  0  0  0
 11 12  1  0  0  0
 12 13  1  0  0  0
 13  8  1  0  0  0
 23 18  1  0  0  0
 28 24  1  0  0  0
  1  5  1  0  0  0
  4  6  1  0  0  0
M  END
> <minimizedAffinity>
-8.58528

$$$$
OCNT-2315537


 24 27  0  0  0  0  0  0  0  0999 V2000
   -4.4461   28.4664    7.3924 N   0  0  0  0  0  0  0  0  0  0  0  0
   -4.1572   27.6708    7.9614 H   0  0  0  0  0  0  0  0  0  0  0  0
   -3.8113   29.5702    7.9657 C   0  0  0  0  0  0  0  0  0  0  0  0
   -4.6261   30.6171    8.1891 N   0  0  0  0  0  0  0  0  0  0  0  0
   -4.1064   31.7622    8.6985 C   0  0  0  0  0  0  0  0  0  0  0  0
   -2.8030   31.9183    8.9974 N   0  0  0  0  0  0  0  0  0  0  0  0
   -2.0332   30.8526    8.7645 C   0  0  0  0  0  0  0  0  0  0  0  0
   -2.4791   29.6474    8.2617 C   0  0  0  0  0  0  0  0  0  0  0  0
   -1.3448   28.7004    8.0763 C   0  0  0  0  0  0  0  0  0  0  0  0
   -0.2497   29.3514    8.9362 C   0  0  0  0  0  0  0  0  0  0  0  0
   -0.5436   30.8527    8.9533 C   0  0  0  0  0  0  0  0  0  0  0  0
   -5.0431   32.9192    8.9479 C   0  0  0  0  0  0  0  0  0  0  0  0
   -4.4918   34.2893    9.2739 C   0  0  0  0  0  0  0  0  0  0  0  0
   -5.1413   34.0466    7.9442 C   0  0  0  0  0  0  0  0  0  0  0  0
   -4.9500   26.4695    4.7453 N   0  0  0  0  0  0  0  0  0  0  0  0
   -5.8041   27.3334    5.6327 C   0  0  0  0  0  0  0  0  0  0  0  0
   -4.5713   28.1941    5.9908 C   0  0  0  0  0  0  0  0  0  0  0  0
   -3.7496   26.9827    5.4962 C   0  0  0  0  0  0  0  0  0  0  0  0
   -5.0186   26.5135    3.0554 S   0  0  0  0  0  0  0  0  0  0  0  0
   -3.6725   26.3508    2.5557 O   0  0  0  0  0  0  0  0  0  0  0  0
   -5.8319   27.6397    2.6584 O   0  0  0  0  0  0  0  0  0  0  0  0
   -5.9328   24.6741    1.3217 C   0  0  0  0  0  0  0  0  0  0  0  0
   -5.8785   25.0891    2.7360 N   0  0  0  0  0  0  0  0  0  0  0  0
   -5.4930   23.9670    3.6188 C   0  0  0  0  0  0  0  0  0  0  0  0
 22 23  1  0  0  0
 23 24  1  0  0  0
 23 19  1  0  0  0
 19 20  2  0  0  0
 19 21  2  0  0  0
 19 15  1  0  0  0
 15 16  1  0  0  0
 16 17  1  0  0  0
 17  1  1  0  0  0
  1  3  1  0  0  0
  3  4  1  0  0  0
  4  5  2  0  0  0
  5 12  1  0  0  0
 12 13  1  0  0  0
 13 14  1  0  0  0
  5  6  1  0  0  0
  6  7  2  0  0  0
  7  8  1  0  0  0
  8  9  1  0  0  0
  9 10  1  0  0  0
 10 11  1  0  0  0
 17 18  1  0  0  0
 18 15  1  0  0  0
  8  3  2  0  0  0
 14 12  1  0  0  0
 11  7  1  0  0  0
  1  2  1  0  0  0
M  END
> <minimizedAffinity>
-8.22578

$$$$
OCNT-2315539


 26 29  0  0  0  0  0  0  0  0999 V2000
   -5.8016   26.0194    5.6765 O   0  0  0  0  0  0  0  0  0  0  0  0
   -4.9663   25.2804    4.7985 C   0  0  0  0  0  0  0  0  0  0  0  0
   -5.6840   24.9091    3.4998 C   0  0  0  0  0  0  0  0  0  0  0  0
   -4.6648   25.1530    2.3743 C   0  0  0  0  0  0  0  0  0  0  0  0
   -3.3227   25.3446    3.0872 C   0  0  0  0  0  0  0  0  0  0  0  0
   -3.7133   26.0743    4.3681 C   0  0  0  0  0  0  0  0  0  0  0  0
   -6.0781   26.8386    5.2302 H   0  0  0  0  0  0  0  0  0  0  0  0
   -2.6772   25.9844    5.4031 N   0  0  0  0  0  0  0  0  0  0  0  0
   -2.9429   25.2439    6.0630 H   0  0  0  0  0  0  0  0  0  0  0  0
   -2.5990   27.1153    6.2279 C   0  0  0  0  0  0  0  0  0  0  0  0
   -1.6316   27.2486    7.2101 C   0  0  0  0  0  0  0  0  0  0  0  0
   -1.6081   28.3938    8.0083 C   0  0  0  0  0  0  0  0  0  0  0  0
   -2.5673   29.3705    7.7919 C   0  0  0  0  0  0  0  0  0  0  0  0
   -3.5065   29.2157    6.8340 N   0  0  0  0  0  0  0  0  0  0  0  0
   -3.5231   28.0785    6.0584 N   0  0  0  0  0  0  0  0  0  0  0  0
   -2.6039   30.5596    8.5621 N   0  0  0  0  0  0  0  0  0  0  0  0
   -3.6376   31.4722    8.5896 C   0  0  0  0  0  0  0  0  0  0  0  0
   -3.2481   32.4604    9.4605 C   0  0  0  0  0  0  0  0  0  0  0  0
   -2.0092   32.1920    9.9729 N   0  0  0  0  0  0  0  0  0  0  0  0
   -1.6493   31.0529    9.4215 C   0  0  0  0  0  0  0  0  0  0  0  0
   -4.6148   24.0430    1.3239 C   0  0  0  0  0  0  0  0  0  0  0  0
   -5.8431   23.9385    0.5578 N   0  0  0  0  0  0  0  0  0  0  0  0
   -6.6235   22.8296    0.4030 C   0  0  0  0  0  0  0  0  0  0  0  0
   -7.6702   23.2123   -0.4026 C   0  0  0  0  0  0  0  0  0  0  0  0
   -7.4274   24.5694   -0.6818 C   0  0  0  0  0  0  0  0  0  0  0  0
   -6.3132   25.0169   -0.0972 N   0  0  0  0  0  0  0  0  0  0  0  0
  1  2  1  0  0  0
  2  3  1  0  0  0
  3  4  1  0  0  0
  4 21  1  0  0  0
 21 22  1  0  0  0
 22 23  1  0  0  0
 23 24  2  0  0  0
 24 25  1  0  0  0
 25 26  2  0  0  0
  4  5  1  0  0  0
  5  6  1  0  0  0
  6  8  1  0  0  0
  8 10  1  0  0  0
 10 11  2  0  0  0
 11 12  1  0  0  0
 12 13  2  0  0  0
 13 16  1  0  0  0
 16 17  1  0  0  0
 17 18  2  0  0  0
 18 19  1  0  0  0
 19 20  2  0  0  0
 13 14  1  0  0  0
 14 15  2  0  0  0
  6  2  1  0  0  0
 15 10  1  0  0  0
 26 22  1  0  0  0
 20 16  1  0  0  0
  1  7  1  0  0  0
  8  9  1  0  0  0
M  END
> <minimizedAffinity>
-8.49696

$$$$
OCNT-2315542


 34 37  0  0  0  0  0  0  0  0999 V2000
   -4.2621   31.2194    5.9257 N   0  0  0  0  0  0  0  0  0  0  0  0
   -5.2845   30.2958    5.8005 C   0  0  0  0  0  0  0  0  0  0  0  0
   -6.1819   30.0872    6.6063 O   0  0  0  0  0  0  0  0  0  0  0  0
   -5.1893   29.6266    4.5955 N   0  0  0  0  0  0  0  0  0  0  0  0
   -3.7077   31.3806    5.1007 H   0  0  0  0  0  0  0  0  0  0  0  0
   -4.2588   29.5110    4.2250 H   0  0  0  0  0  0  0  0  0  0  0  0
   -4.6400   34.3651    9.8125 C   0  0  0  0  0  0  0  0  0  0  0  0
   -4.1987   33.3690    8.8079 C   0  0  0  0  0  0  0  0  0  0  0  0
   -3.0021   32.7834    8.9097 N   0  0  0  0  0  0  0  0  0  0  0  0
   -2.9387   31.9685    7.8381 N   0  0  0  0  0  0  0  0  0  0  0  0
   -4.0753   31.9948    7.0592 C   0  0  0  0  0  0  0  0  0  0  0  0
   -4.9013   32.9127    7.6732 C   0  0  0  0  0  0  0  0  0  0  0  0
   -1.7425   31.1713    7.6632 C   0  0  0  0  0  0  0  0  0  0  0  0
   -1.0238   30.8250    8.9792 C   0  0  0  0  0  0  0  0  0  0  0  0
    0.0919   29.8587    8.6047 C   0  0  0  0  0  0  0  0  0  0  0  0
   -0.5363   28.9171    7.2210 S   0  0  0  0  0  0  0  0  0  0  0  0
   -0.8593   27.5776    7.6601 O   0  0  0  0  0  0  0  0  0  0  0  0
    0.3178   29.1759    6.0789 O   0  0  0  0  0  0  0  0  0  0  0  0
   -2.0398   29.8368    6.9914 C   0  0  0  0  0  0  0  0  0  0  0  0
   -6.1111   28.5560    4.2768 C   0  0  0  0  0  0  0  0  0  0  0  0
   -5.3688   27.2742    3.9989 C   0  0  0  0  0  0  0  0  0  0  0  0
   -4.6803   26.6154    5.0283 C   0  0  0  0  0  0  0  0  0  0  0  0
   -3.9528   25.4531    4.7666 C   0  0  0  0  0  0  0  0  0  0  0  0
   -3.9073   24.9335    3.4736 C   0  0  0  0  0  0  0  0  0  0  0  0
   -4.6046   25.5723    2.4465 C   0  0  0  0  0  0  0  0  0  0  0  0
   -5.3132   26.7480    2.7004 C   0  0  0  0  0  0  0  0  0  0  0  0
   -4.5724   25.1367    1.1412 O   0  0  0  0  0  0  0  0  0  0  0  0
   -5.5722   24.2825    0.7349 C   0  0  0  0  0  0  0  0  0  0  0  0
   -5.6267   22.9430    1.1335 C   0  0  0  0  0  0  0  0  0  0  0  0
   -6.6903   22.1371    0.7168 C   0  0  0  0  0  0  0  0  0  0  0  0
   -7.7051   22.6697   -0.0820 C   0  0  0  0  0  0  0  0  0  0  0  0
   -7.6623   24.0120   -0.4601 C   0  0  0  0  0  0  0  0  0  0  0  0
   -6.6012   24.8113   -0.0435 C   0  0  0  0  0  0  0  0  0  0  0  0
   -6.5766   26.1010   -0.4116 F   0  0  0  0  0  0  0  0  0  0  0  0
  7  8  1  0  0  0
  8  9  2  0  0  0
  9 10  1  0  0  0
 10 13  1  0  0  0
 13 14  1  0  0  0
 14 15  1  0  0  0
 15 16  1  0  0  0
 16 17  2  0  0  0
 16 18  2  0  0  0
 16 19  1  0  0  0
 10 11  1  0  0  0
 11  1  1  0  0  0
  1  2  1  0  0  0
  2  3  2  0  0  0
  2  4  1  0  0  0
  4 20  1  0  0  0
 20 21  1  0  0  0
 21 22  2  0  0  0
 22 23  1  0  0  0
 23 24  2  0  0  0
 24 25  1  0  0  0
 25 27  1  0  0  0
 27 28  1  0  0  0
 28 29  2  0  0  0
 29 30  1  0  0  0
 30 31  2  0  0  0
 31 32  1  0  0  0
 32 33  2  0  0  0
 33 34  1  0  0  0
 25 26  2  0  0  0
 11 12  2  0  0  0
 12  8  1  0  0  0
 19 13  1  0  0  0
 26 21  1  0  0  0
 33 28  1  0  0  0
  1  5  1  0  0  0
  4  6  1  0  0  0
M  END
> <minimizedAffinity>
-11.88521

$$$$
OCNT-2315548


 26 27  0  0  0  0  0  0  0  0999 V2000
   -4.4024   27.6290    6.1518 N   0  0  0  0  0  0  0  0  0  0  0  0
   -5.6440   27.5443    5.5152 C   0  0  0  0  0  0  0  0  0  0  0  0
   -6.6211   28.2250    5.8171 O   0  0  0  0  0  0  0  0  0  0  0  0
   -5.8168   26.5684    4.4175 C   0  0  0  0  0  0  0  0  0  0  0  0
   -5.5977   26.9557    3.0883 C   0  0  0  0  0  0  0  0  0  0  0  0
   -5.7252   26.0153    2.0661 C   0  0  0  0  0  0  0  0  0  0  0  0
   -6.0524   24.6976    2.3803 C   0  0  0  0  0  0  0  0  0  0  0  0
   -6.1727   23.8113    1.3810 F   0  0  0  0  0  0  0  0  0  0  0  0
   -6.2449   24.3064    3.7062 C   0  0  0  0  0  0  0  0  0  0  0  0
   -6.6393   22.6751    4.0898 Cl  0  0  0  0  0  0  0  0  0  0  0  0
   -6.1188   25.2395    4.7336 C   0  0  0  0  0  0  0  0  0  0  0  0
   -2.5678   25.9964    5.7825 C   0  0  0  0  0  0  0  0  0  0  0  0
   -3.1437   27.3643    5.4425 C   0  0  0  0  0  0  0  0  0  0  0  0
   -4.3543   28.4542    7.3634 C   0  0  0  0  0  0  0  0  0  0  0  0
   -3.1671   29.3975    7.4204 C   0  0  0  0  0  0  0  0  0  0  0  0
   -1.9707   28.9703    8.0267 C   0  0  0  0  0  0  0  0  0  0  0  0
   -1.9338   27.7084    8.5568 O   0  0  0  0  0  0  0  0  0  0  0  0
   -0.8696   29.8294    8.0752 C   0  0  0  0  0  0  0  0  0  0  0  0
    0.4363   29.4221    8.6889 C   0  0  0  0  0  0  0  0  0  0  0  0
   -0.9132   31.0819    7.5709 N   0  0  0  0  0  0  0  0  0  0  0  0
   -2.0744   31.4891    7.0083 C   0  0  0  0  0  0  0  0  0  0  0  0
   -3.2250   30.7096    6.9006 C   0  0  0  0  0  0  0  0  0  0  0  0
   -1.1555   27.6110    9.1274 H   0  0  0  0  0  0  0  0  0  0  0  0
   -4.4736   31.2706    6.2726 C   0  0  0  0  0  0  0  0  0  0  0  0
   -4.6055   30.9044    4.9053 O   0  0  0  0  0  0  0  0  0  0  0  0
   -5.4072   31.3424    4.5720 H   0  0  0  0  0  0  0  0  0  0  0  0
 12 13  1  0  0  0
 13  1  1  0  0  0
  1 14  1  0  0  0
 14 15  1  0  0  0
 15 16  1  0  0  0
 16 17  1  0  0  0
 16 18  2  0  0  0
 18 19  1  0  0  0
 18 20  1  0  0  0
 20 21  2  0  0  0
 21 22  1  0  0  0
 22 24  1  0  0  0
 24 25  1  0  0  0
  1  2  1  0  0  0
  2  3  2  0  0  0
  2  4  1  0  0  0
  4  5  1  0  0  0
  5  6  2  0  0  0
  6  7  1  0  0  0
  7  8  1  0  0  0
  7  9  2  0  0  0
  9 10  1  0  0  0
  9 11  1  0  0  0
 22 15  2  0  0  0
 11  4  2  0  0  0
 17 23  1  0  0  0
 25 26  1  0  0  0
M  END
> <minimizedAffinity>
-8.13967

$$$$
OCNT-2315554


 28 31  0  0  0  0  0  0  0  0999 V2000
   -2.7149   31.4801    9.9369 O   0  0  0  0  0  0  0  0  0  0  0  0
   -2.8829   30.4050    9.3699 C   0  0  0  0  0  0  0  0  0  0  0  0
   -4.0886   29.7529    9.3749 N   0  0  0  0  0  0  0  0  0  0  0  0
   -1.8663   29.7337    8.6907 N   0  0  0  0  0  0  0  0  0  0  0  0
   -0.5689   30.4106    8.6722 C   0  0  0  0  0  0  0  0  0  0  0  0
    0.5802   29.4498    8.3832 C   0  0  0  0  0  0  0  0  0  0  0  0
    0.3322   28.6502    7.1078 C   0  0  0  0  0  0  0  0  0  0  0  0
   -1.0148   27.9214    7.1953 C   0  0  0  0  0  0  0  0  0  0  0  0
   -2.1540   28.9024    7.5114 C   0  0  0  0  0  0  0  0  0  0  0  0
   -4.0373   28.7463    9.3527 H   0  0  0  0  0  0  0  0  0  0  0  0
   -1.2948   27.1361    6.0033 N   0  0  0  0  0  0  0  0  0  0  0  0
   -2.5218   26.7593    5.5313 C   0  0  0  0  0  0  0  0  0  0  0  0
   -2.2574   26.0221    4.4007 C   0  0  0  0  0  0  0  0  0  0  0  0
   -0.9081   25.9427    4.1781 N   0  0  0  0  0  0  0  0  0  0  0  0
   -0.3538   26.6254    5.1536 C   0  0  0  0  0  0  0  0  0  0  0  0
   -5.2623   30.3234   10.0100 C   0  0  0  0  0  0  0  0  0  0  0  0
   -6.5382   30.2333    9.1733 C   0  0  0  0  0  0  0  0  0  0  0  0
   -6.3911   30.8800    7.7971 C   0  0  0  0  0  0  0  0  0  0  0  0
   -6.2610   29.8572    6.7215 C   0  0  0  0  0  0  0  0  0  0  0  0
   -6.2303   28.5507    6.8816 N   0  0  0  0  0  0  0  0  0  0  0  0
   -6.1057   28.0265    5.6178 C   0  0  0  0  0  0  0  0  0  0  0  0
   -6.0231   26.6892    5.2044 C   0  0  0  0  0  0  0  0  0  0  0  0
   -5.8971   26.4155    3.8362 C   0  0  0  0  0  0  0  0  0  0  0  0
   -5.8541   27.4521    2.9001 C   0  0  0  0  0  0  0  0  0  0  0  0
   -5.9353   28.7931    3.2941 C   0  0  0  0  0  0  0  0  0  0  0  0
   -6.0612   29.0362    4.6635 C   0  0  0  0  0  0  0  0  0  0  0  0
   -6.1641   30.1926    5.3921 N   0  0  0  0  0  0  0  0  0  0  0  0
   -6.1557   31.1314    5.0200 H   0  0  0  0  0  0  0  0  0  0  0  0
  1  2  2  0  0  0
  2  3  1  0  0  0
  3 16  1  0  0  0
 16 17  1  0  0  0
 17 18  1  0  0  0
 18 19  1  0  0  0
 19 20  2  0  0  0
 20 21  1  0  0  0
 21 22  2  0  0  0
 22 23  1  0  0  0
 23 24  2  0  0  0
 24 25  1  0  0  0
 25 26  2  0  0  0
 26 27  1  0  0  0
  2  4  1  0  0  0
  4  5  1  0  0  0
  5  6  1  0  0  0
  6  7  1  0  0  0
  7  8  1  0  0  0
  8 11  1  0  0  0
 11 12  1  0  0  0
 12 13  2  0  0  0
 13 14  1  0  0  0
 14 15  2  0  0  0
  8  9  1  0  0  0
 27 19  1  0  0  0
  9  4  1  0  0  0
 26 21  1  0  0  0
 15 11  1  0  0  0
  3 10  1  0  0  0
 27 28  1  0  0  0
M  END
> <minimizedAffinity>
-9.78487

$$$$
OCNT-2315568


 22 24  0  0  0  0  0  0  0  0999 V2000
   -3.2429   27.3136    5.8375 N   0  0  0  0  0  0  0  0  0  0  0  0
   -3.5704   28.5033    6.4394 C   0  0  0  0  0  0  0  0  0  0  0  0
   -2.6719   28.6462    7.4775 C   0  0  0  0  0  0  0  0  0  0  0  0
   -1.8501   27.5513    7.4944 N   0  0  0  0  0  0  0  0  0  0  0  0
   -2.1971   26.7539    6.4943 N   0  0  0  0  0  0  0  0  0  0  0  0
   -2.5494   29.7378    8.5008 C   0  0  0  0  0  0  0  0  0  0  0  0
   -1.1170   30.2960    8.6060 C   0  0  0  0  0  0  0  0  0  0  0  0
   -1.0471   31.6441    9.3306 C   0  0  0  0  0  0  0  0  0  0  0  0
   -2.3205   31.9186   10.1168 C   0  0  0  0  0  0  0  0  0  0  0  0
   -3.5543   31.8401    9.2131 C   0  0  0  0  0  0  0  0  0  0  0  0
   -3.4866   30.8225    8.1583 N   0  0  0  0  0  0  0  0  0  0  0  0
   -3.1484   31.2609    7.3003 H   0  0  0  0  0  0  0  0  0  0  0  0
   -4.9936   25.4262    2.4694 C   0  0  0  0  0  0  0  0  0  0  0  0
   -5.6625   26.4711    3.1252 C   0  0  0  0  0  0  0  0  0  0  0  0
   -5.0923   27.1021    4.2366 C   0  0  0  0  0  0  0  0  0  0  0  0
   -3.8414   26.6885    4.7125 C   0  0  0  0  0  0  0  0  0  0  0  0
   -3.1714   25.6386    4.0667 C   0  0  0  0  0  0  0  0  0  0  0  0
   -3.7461   25.0120    2.9569 C   0  0  0  0  0  0  0  0  0  0  0  0
   -4.8885   23.6747    0.8525 F   0  0  0  0  0  0  0  0  0  0  0  0
   -5.6249   24.7348    1.2849 C   0  0  0  0  0  0  0  0  0  0  0  0
   -6.8662   24.2423    1.5557 F   0  0  0  0  0  0  0  0  0  0  0  0
   -5.7776   25.5513    0.2054 F   0  0  0  0  0  0  0  0  0  0  0  0
 19 20  1  0  0  0
 20 21  1  0  0  0
 20 22  1  0  0  0
 20 13  1  0  0  0
 13 14  1  0  0  0
 14 15  2  0  0  0
 15 16  1  0  0  0
 16  1  1  0  0  0
  1  2  1  0  0  0
  2  3  2  0  0  0
  3  6  1  0  0  0
  6  7  1  0  0  0
  7  8  1  0  0  0
  8  9  1  0  0  0
  9 10  1  0  0  0
 10 11  1  0  0  0
  3  4  1  0  0  0
  4  5  2  0  0  0
 16 17  2  0  0  0
 17 18  1  0  0  0
 18 13  2  0  0  0
  5  1  1  0  0  0
 11  6  1  0  0  0
 11 12  1  0  0  0
M  END
> <minimizedAffinity>
-8.86619

$$$$
OCNT-2315569


 22 24  0  0  0  0  0  0  0  0999 V2000
   -2.3009   26.2610    4.9930 C   0  0  0  0  0  0  0  0  0  0  0  0
   -2.4733   25.9656    3.4863 C   0  0  0  0  0  0  0  0  0  0  0  0
   -3.8755   25.7352    3.0751 N   0  0  0  0  0  0  0  0  0  0  0  0
   -4.6999   26.8522    3.5868 C   0  0  0  0  0  0  0  0  0  0  0  0
   -4.4977   27.1465    5.0820 C   0  0  0  0  0  0  0  0  0  0  0  0
   -3.1178   27.3835    5.3905 O   0  0  0  0  0  0  0  0  0  0  0  0
   -0.8383   26.6005    5.3051 C   0  0  0  0  0  0  0  0  0  0  0  0
   -0.1961   28.8542    8.2788 C   0  0  0  0  0  0  0  0  0  0  0  0
   -0.0880   28.3515    6.8643 C   0  0  0  0  0  0  0  0  0  0  0  0
    0.5000   28.9811    5.9914 O   0  0  0  0  0  0  0  0  0  0  0  0
   -0.7002   27.1397    6.6487 N   0  0  0  0  0  0  0  0  0  0  0  0
   -1.3993   26.8301    7.3149 H   0  0  0  0  0  0  0  0  0  0  0  0
   -4.3569   24.4153    3.5077 C   0  0  0  0  0  0  0  0  0  0  0  0
   -5.1636   23.7429    2.4502 C   0  0  0  0  0  0  0  0  0  0  0  0
   -5.8236   24.2365    1.3546 C   0  0  0  0  0  0  0  0  0  0  0  0
   -6.1255   25.4987    0.6601 C   0  0  0  0  0  0  0  0  0  0  0  0
   -6.7148   24.9834   -0.6988 C   0  0  0  0  0  0  0  0  0  0  0  0
   -7.1681   23.4994   -0.4781 C   0  0  0  0  0  0  0  0  0  0  0  0
   -6.4000   23.1395    0.7258 C   0  0  0  0  0  0  0  0  0  0  0  0
   -6.1525   21.9879    1.3293 N   0  0  0  0  0  0  0  0  0  0  0  0
   -5.3773   22.3741    2.3803 N   0  0  0  0  0  0  0  0  0  0  0  0
   -4.8790   21.3642    3.2847 C   0  0  0  0  0  0  0  0  0  0  0  0
  8  9  1  0  0  0
  9 10  2  0  0  0
  9 11  1  0  0  0
 11  7  1  0  0  0
  7  1  1  0  0  0
  1  2  1  0  0  0
  2  3  1  0  0  0
  3 13  1  0  0  0
 13 14  1  0  0  0
 14 15  2  0  0  0
 15 16  1  0  0  0
 16 17  1  0  0  0
 17 18  1  0  0  0
 18 19  1  0  0  0
 19 20  2  0  0  0
 20 21  1  0  0  0
 21 22  1  0  0  0
  3  4  1  0  0  0
  4  5  1  0  0  0
  5  6  1  0  0  0
  6  1  1  0  0  0
 21 14  1  0  0  0
 19 15  1  0  0  0
 11 12  1  0  0  0
M  END
> <minimizedAffinity>
-8.28443

$$$$
OCNT-2315573


 25 27  0  0  0  0  0  0  0  0999 V2000
   -3.7506   27.2571    5.9182 N   0  0  0  0  0  0  0  0  0  0  0  0
   -5.1058   27.6349    5.4599 C   0  0  0  0  0  0  0  0  0  0  0  0
   -5.8423   26.4158    4.8647 C   0  0  0  0  0  0  0  0  0  0  0  0
   -5.0652   25.7880    3.7569 N   0  0  0  0  0  0  0  0  0  0  0  0
   -3.6887   25.4374    4.2055 C   0  0  0  0  0  0  0  0  0  0  0  0
   -2.9521   26.6474    4.8245 C   0  0  0  0  0  0  0  0  0  0  0  0
   -5.7282   25.0559    2.7670 C   0  0  0  0  0  0  0  0  0  0  0  0
   -6.3405   23.8824    2.9810 C   0  0  0  0  0  0  0  0  0  0  0  0
   -7.0108   23.1573    1.8847 C   0  0  0  0  0  0  0  0  0  0  0  0
   -7.5095   22.0590    2.1221 O   0  0  0  0  0  0  0  0  0  0  0  0
   -7.0207   23.7760    0.6542 N   0  0  0  0  0  0  0  0  0  0  0  0
   -7.6558   23.1025   -0.4591 C   0  0  0  0  0  0  0  0  0  0  0  0
   -6.3333   24.9446    0.4085 C   0  0  0  0  0  0  0  0  0  0  0  0
   -6.2240   25.4633   -0.7018 O   0  0  0  0  0  0  0  0  0  0  0  0
   -5.7399   25.5326    1.4880 N   0  0  0  0  0  0  0  0  0  0  0  0
   -5.2108   26.3658    1.2795 H   0  0  0  0  0  0  0  0  0  0  0  0
   -1.6674   30.1407    8.2645 C   0  0  0  0  0  0  0  0  0  0  0  0
   -3.0656   30.0638    8.2597 C   0  0  0  0  0  0  0  0  0  0  0  0
   -3.7278   29.1062    7.4831 C   0  0  0  0  0  0  0  0  0  0  0  0
   -3.0297   28.1883    6.6839 C   0  0  0  0  0  0  0  0  0  0  0  0
   -1.6327   28.2866    6.6783 C   0  0  0  0  0  0  0  0  0  0  0  0
   -0.9595   29.2428    7.4550 C   0  0  0  0  0  0  0  0  0  0  0  0
    0.7683   29.2623    7.3680 Cl  0  0  0  0  0  0  0  0  0  0  0  0
   -1.9858   31.9126   10.0194 C   0  0  0  0  0  0  0  0  0  0  0  0
   -0.9988   31.2011    9.1054 C   0  0  0  0  0  0  0  0  0  0  0  0
 24 25  1  0  0  0
 25 17  1  0  0  0
 17 18  1  0  0  0
 18 19  2  0  0  0
 19 20  1  0  0  0
 20  1  1  0  0  0
  1  2  1  0  0  0
  2  3  1  0  0  0
  3  4  1  0  0  0
  4  7  1  0  0  0
  7  8  2  0  0  0
  8  9  1  0  0  0
  9 10  2  0  0  0
  9 11  1  0  0  0
 11 12  1  0  0  0
 11 13  1  0  0  0
 13 14  2  0  0  0
 13 15  1  0  0  0
  4  5  1  0  0  0
  5  6  1  0  0  0
 20 21  2  0  0  0
 21 22  1  0  0  0
 22 23  1  0  0  0
 22 17  2  0  0  0
  6  1  1  0  0  0
 15  7  1  0  0  0
 15 16  1  0  0  0
M  END
> <minimizedAffinity>
-9.32553

$$$$
OCNT-2315584


 25 27  0  0  0  0  0  0  0  0999 V2000
   -4.5235   28.4456    5.9553 N   0  0  0  0  0  0  0  0  0  0  0  0
   -3.7049   27.4582    5.4713 C   0  0  0  0  0  0  0  0  0  0  0  0
   -2.5500   27.2507    5.8325 O   0  0  0  0  0  0  0  0  0  0  0  0
   -4.2946   26.6722    4.4740 N   0  0  0  0  0  0  0  0  0  0  0  0
   -3.4569   25.6798    3.8021 C   0  0  0  0  0  0  0  0  0  0  0  0
   -3.9282   25.4130    2.3763 C   0  0  0  0  0  0  0  0  0  0  0  0
   -5.4083   24.9863    2.3057 C   0  0  0  0  0  0  0  0  0  0  0  0
   -6.1766   25.3081    3.5983 C   0  0  0  0  0  0  0  0  0  0  0  0
   -5.7310   26.6405    4.1890 C   0  0  0  0  0  0  0  0  0  0  0  0
   -5.2888   28.7582    5.3835 H   0  0  0  0  0  0  0  0  0  0  0  0
   -5.5852   23.5289    1.9183 C   0  0  0  0  0  0  0  0  0  0  0  0
   -5.3348   22.4861    2.8173 C   0  0  0  0  0  0  0  0  0  0  0  0
   -5.5235   21.1776    2.3965 C   0  0  0  0  0  0  0  0  0  0  0  0
   -5.9403   20.8379    1.1594 N   0  0  0  0  0  0  0  0  0  0  0  0
   -6.1793   21.8539    0.3049 C   0  0  0  0  0  0  0  0  0  0  0  0
   -6.0205   23.1927    0.6318 C   0  0  0  0  0  0  0  0  0  0  0  0
   -3.5013   31.0405    8.5147 C   0  0  0  0  0  0  0  0  0  0  0  0
   -4.2820   30.0368    9.0653 C   0  0  0  0  0  0  0  0  0  0  0  0
   -4.7028   29.0432    8.2020 N   0  0  0  0  0  0  0  0  0  0  0  0
   -4.2617   29.3002    6.9939 C   0  0  0  0  0  0  0  0  0  0  0  0
   -3.2996   30.6915    6.8354 S   0  0  0  0  0  0  0  0  0  0  0  0
   -1.6899   32.7812    8.3171 C   0  0  0  0  0  0  0  0  0  0  0  0
   -2.8733   32.2709    9.1627 C   0  0  0  0  0  0  0  0  0  0  0  0
   -2.3342   31.9387   10.5713 C   0  0  0  0  0  0  0  0  0  0  0  0
   -3.9186   33.3936    9.3150 C   0  0  0  0  0  0  0  0  0  0  0  0
 22 23  1  0  0  0
 23 24  1  0  0  0
 23 25  1  0  0  0
 23 17  1  0  0  0
 17 18  2  0  0  0
 18 19  1  0  0  0
 19 20  2  0  0  0
 20  1  1  0  0  0
  1  2  1  0  0  0
  2  3  2  0  0  0
  2  4  1  0  0  0
  4  5  1  0  0  0
  5  6  1  0  0  0
  6  7  1  0  0  0
  7 11  1  0  0  0
 11 12  2  0  0  0
 12 13  1  0  0  0
 13 14  2  0  0  0
 14 15  1  0  0  0
 15 16  2  0  0  0
  7  8  1  0  0  0
  8  9  1  0  0  0
 20 21  1  0  0  0
 21 17  1  0  0  0
  9  4  1  0  0  0
 16 11  1  0  0  0
  1 10  1  0  0  0
M  END
> <minimizedAffinity>
-9.16293

$$$$
OCNT-2315585


 27 29  0  0  0  0  0  0  0  0999 V2000
   -5.9303   27.3947    3.3665 C   0  0  0  0  0  0  0  0  0  0  0  0
   -5.9306   28.7626    3.1075 C   0  0  0  0  0  0  0  0  0  0  0  0
   -6.0832   29.6892    4.1508 C   0  0  0  0  0  0  0  0  0  0  0  0
   -6.2092   29.2761    5.4795 C   0  0  0  0  0  0  0  0  0  0  0  0
   -6.2483   27.8979    5.7227 C   0  0  0  0  0  0  0  0  0  0  0  0
   -6.0982   26.9682    4.6859 C   0  0  0  0  0  0  0  0  0  0  0  0
   -4.6470   25.6652    2.0797 C   0  0  0  0  0  0  0  0  0  0  0  0
   -3.5639   25.7395    2.6471 O   0  0  0  0  0  0  0  0  0  0  0  0
   -5.7846   26.4000    2.3784 N   0  0  0  0  0  0  0  0  0  0  0  0
   -6.6115   26.1971    1.8312 H   0  0  0  0  0  0  0  0  0  0  0  0
   -4.9060   24.6867    0.9388 C   0  0  0  0  0  0  0  0  0  0  0  0
   -6.7600   23.0212    0.4827 C   0  0  0  0  0  0  0  0  0  0  0  0
   -6.3944   24.5029    0.6034 C   0  0  0  0  0  0  0  0  0  0  0  0
   -6.7308   25.2242   -0.7035 C   0  0  0  0  0  0  0  0  0  0  0  0
   -6.4400   30.1456    6.5483 N   0  0  0  0  0  0  0  0  0  0  0  0
   -7.3845   30.5267    6.5251 H   0  0  0  0  0  0  0  0  0  0  0  0
   -6.0429   29.7597    7.8943 C   0  0  0  0  0  0  0  0  0  0  0  0
   -5.0654   30.7798    8.4277 C   0  0  0  0  0  0  0  0  0  0  0  0
   -5.5331   32.0562    8.8166 C   0  0  0  0  0  0  0  0  0  0  0  0
   -4.6839   33.0433    9.3206 C   0  0  0  0  0  0  0  0  0  0  0  0
   -3.3167   32.8001    9.4585 C   0  0  0  0  0  0  0  0  0  0  0  0
   -2.8159   31.5478    9.0789 C   0  0  0  0  0  0  0  0  0  0  0  0
   -3.6759   30.5710    8.5791 C   0  0  0  0  0  0  0  0  0  0  0  0
   -2.8159   29.5278    8.3260 N   0  0  0  0  0  0  0  0  0  0  0  0
   -3.0923   28.2247    7.7809 C   0  0  0  0  0  0  0  0  0  0  0  0
   -1.5432   29.8359    8.6459 N   0  0  0  0  0  0  0  0  0  0  0  0
   -1.5339   31.0749    9.1116 N   0  0  0  0  0  0  0  0  0  0  0  0
 12 13  1  0  0  0
 13 14  1  0  0  0
 13 11  1  0  0  0
 11  7  1  0  0  0
  7  8  2  0  0  0
  7  9  1  0  0  0
  9  1  1  0  0  0
  1  2  1  0  0  0
  2  3  2  0  0  0
  3  4  1  0  0  0
  4 15  1  0  0  0
 15 17  1  0  0  0
 17 18  1  0  0  0
 18 19  1  0  0  0
 19 20  2  0  0  0
 20 21  1  0  0  0
 21 22  2  0  0  0
 22 23  1  0  0  0
 23 24  1  0  0  0
 24 25  1  0  0  0
 24 26  1  0  0  0
 26 27  2  0  0  0
  4  5  2  0  0  0
  5  6  1  0  0  0
  6  1  2  0  0  0
 23 18  2  0  0  0
 27 22  1  0  0  0
  9 10  1  0  0  0
 15 16  1  0  0  0
M  END
> <minimizedAffinity>
-9.61521

$$$$
OCNT-2315612


 28 32  0  0  0  0  0  0  0  0999 V2000
   -6.2308   29.6462    6.7838 S   0  0  0  0  0  0  0  0  0  0  0  0
   -5.9962   28.8802    7.9907 O   0  0  0  0  0  0  0  0  0  0  0  0
   -7.4641   30.3742    6.5770 O   0  0  0  0  0  0  0  0  0  0  0  0
   -4.8882   30.6662    6.5247 N   0  0  0  0  0  0  0  0  0  0  0  0
   -3.6309   29.9979    6.0442 C   0  0  0  0  0  0  0  0  0  0  0  0
   -2.5819   30.1261    7.1773 C   0  0  0  0  0  0  0  0  0  0  0  0
   -2.4156   28.8243    7.9732 C   0  0  0  0  0  0  0  0  0  0  0  0
   -1.0398   28.9353    8.6203 C   0  0  0  0  0  0  0  0  0  0  0  0
   -0.2083   29.8115    7.6869 C   0  0  0  0  0  0  0  0  0  0  0  0
   -1.1697   30.3816    6.6422 C   0  0  0  0  0  0  0  0  0  0  0  0
   -3.1713   31.2413    8.0046 C   0  0  0  0  0  0  0  0  0  0  0  0
   -2.5948   31.9804    9.0302 C   0  0  0  0  0  0  0  0  0  0  0  0
   -3.3674   32.9427    9.6867 C   0  0  0  0  0  0  0  0  0  0  0  0
   -4.7004   33.1625    9.3158 C   0  0  0  0  0  0  0  0  0  0  0  0
   -5.2756   32.4245    8.2809 C   0  0  0  0  0  0  0  0  0  0  0  0
   -4.5008   31.4681    7.6460 C   0  0  0  0  0  0  0  0  0  0  0  0
   -5.7188   25.7153    1.1629 O   0  0  0  0  0  0  0  0  0  0  0  0
   -5.7414   25.6596    2.3751 C   0  0  0  0  0  0  0  0  0  0  0  0
   -5.6683   24.5572    3.1697 N   0  0  0  0  0  0  0  0  0  0  0  0
   -5.7516   24.8647    4.4929 C   0  0  0  0  0  0  0  0  0  0  0  0
   -5.7428   24.1079    5.4414 O   0  0  0  0  0  0  0  0  0  0  0  0
   -5.8738   26.3200    4.5718 C   0  0  0  0  0  0  0  0  0  0  0  0
   -5.9835   27.1515    5.6673 C   0  0  0  0  0  0  0  0  0  0  0  0
   -6.0950   28.5234    5.4017 C   0  0  0  0  0  0  0  0  0  0  0  0
   -6.0859   29.0292    4.0808 C   0  0  0  0  0  0  0  0  0  0  0  0
   -5.9730   28.1568    2.9927 C   0  0  0  0  0  0  0  0  0  0  0  0
   -5.8690   26.8074    3.2732 C   0  0  0  0  0  0  0  0  0  0  0  0
   -5.5859   23.6168    2.8175 H   0  0  0  0  0  0  0  0  0  0  0  0
 17 18  2  0  0  0
 18 19  1  0  0  0
 19 20  1  0  0  0
 20 21  2  0  0  0
 20 22  1  0  0  0
 22 23  1  0  0  0
 23 24  2  0  0  0
 24  1  1  0  0  0
  1  2  2  0  0  0
  1  3  2  0  0  0
  1  4  1  0  0  0
  4  5  1  0  0  0
  5  6  1  0  0  0
  6  7  1  0  0  0
  7  8  1  0  0  0
  8  9  1  0  0  0
  9 10  1  0  0  0
  6 11  1  0  0  0
 11 12  2  0  0  0
 12 13  1  0  0  0
 13 14  2  0  0  0
 14 15  1  0  0  0
 15 16  2  0  0  0
 24 25  1  0  0  0
 25 26  2  0  0  0
 26 27  1  0  0  0
 27 18  1  0  0  0
 27 22  2  0  0  0
 16  4  1  0  0  0
 10  6  1  0  0  0
 16 11  1  0  0  0
 19 28  1  0  0  0
M  END
> <minimizedAffinity>
-10.96874

$$$$
OCNT-2315622


 27 30  0  0  0  0  0  0  0  0999 V2000
   -3.9222   27.3855    4.8707 N   0  0  0  0  0  0  0  0  0  0  0  0
   -4.3301   27.7771    4.0212 H   0  0  0  0  0  0  0  0  0  0  0  0
   -3.9821   25.9209    4.8571 C   0  0  0  0  0  0  0  0  0  0  0  0
   -3.4155   25.4047    3.5273 C   0  0  0  0  0  0  0  0  0  0  0  0
   -4.5677   25.5350    2.5194 C   0  0  0  0  0  0  0  0  0  0  0  0
   -5.8591   25.4790    3.3621 C   0  0  0  0  0  0  0  0  0  0  0  0
   -5.4064   25.3300    4.8150 C   0  0  0  0  0  0  0  0  0  0  0  0
   -5.3689   23.9367    5.1290 O   0  0  0  0  0  0  0  0  0  0  0  0
   -5.1466   23.8582    6.0735 H   0  0  0  0  0  0  0  0  0  0  0  0
   -4.4898   24.4574    1.4353 C   0  0  0  0  0  0  0  0  0  0  0  0
   -5.7119   24.3357    0.6655 N   0  0  0  0  0  0  0  0  0  0  0  0
   -6.5651   23.2678    0.6693 C   0  0  0  0  0  0  0  0  0  0  0  0
   -7.5783   23.6225   -0.1905 C   0  0  0  0  0  0  0  0  0  0  0  0
   -7.3652   24.8760   -0.7033 N   0  0  0  0  0  0  0  0  0  0  0  0
   -6.2381   25.2836   -0.1639 C   0  0  0  0  0  0  0  0  0  0  0  0
   -4.6166   27.9597    6.0181 C   0  0  0  0  0  0  0  0  0  0  0  0
   -1.7147   27.1659    7.1526 C   0  0  0  0  0  0  0  0  0  0  0  0
   -2.4020   28.4797    7.2907 C   0  0  0  0  0  0  0  0  0  0  0  0
   -3.6573   28.8073    6.7919 C   0  0  0  0  0  0  0  0  0  0  0  0
   -3.9154   30.1174    7.1453 N   0  0  0  0  0  0  0  0  0  0  0  0
   -5.1353   30.8406    6.8478 C   0  0  0  0  0  0  0  0  0  0  0  0
   -2.8584   30.6395    7.8657 C   0  0  0  0  0  0  0  0  0  0  0  0
   -2.6701   31.9065    8.4462 C   0  0  0  0  0  0  0  0  0  0  0  0
   -1.4731   32.1555    9.1236 C   0  0  0  0  0  0  0  0  0  0  0  0
   -0.4942   31.1743    9.2246 C   0  0  0  0  0  0  0  0  0  0  0  0
   -0.6926   29.9146    8.6507 C   0  0  0  0  0  0  0  0  0  0  0  0
   -1.8929   29.6358    7.9611 C   0  0  0  0  0  0  0  0  0  0  0  0
 17 18  1  0  0  0
 18 19  2  0  0  0
 19 16  1  0  0  0
 16  1  1  0  0  0
  1  3  1  0  0  0
  3  4  1  0  0  0
  4  5  1  0  0  0
  5 10  1  0  0  0
 10 11  1  0  0  0
 11 12  1  0  0  0
 12 13  2  0  0  0
 13 14  1  0  0  0
 14 15  2  0  0  0
  5  6  1  0  0  0
  6  7  1  0  0  0
  7  8  1  0  0  0
 19 20  1  0  0  0
 20 21  1  0  0  0
 20 22  1  0  0  0
 22 23  2  0  0  0
 23 24  1  0  0  0
 24 25  2  0  0  0
 25 26  1  0  0  0
 26 27  2  0  0  0
 27 18  1  0  0  0
  7  3  1  0  0  0
 27 22  1  0  0  0
 15 11  1  0  0  0
  1  2  1  0  0  0
  8  9  1  0  0  0
M  END
> <minimizedAffinity>
-8.92499

$$$$
OCNT-2315627


 26 30  0  0  0  0  0  0  0  0999 V2000
   -4.7092   26.3154    3.3834 C   0  0  0  0  0  0  0  0  0  0  0  0
   -5.8540   27.3029    3.6707 C   0  0  0  0  0  0  0  0  0  0  0  0
   -5.7382   27.9740    5.0410 C   0  0  0  0  0  0  0  0  0  0  0  0
   -4.3289   28.2456    5.3347 N   0  0  0  0  0  0  0  0  0  0  0  0
   -3.4544   27.0668    5.4341 C   0  0  0  0  0  0  0  0  0  0  0  0
   -4.0300   25.8664    4.6811 C   0  0  0  0  0  0  0  0  0  0  0  0
   -8.4514   20.7694    2.7012 F   0  0  0  0  0  0  0  0  0  0  0  0
   -7.6758   21.8611    2.7480 C   0  0  0  0  0  0  0  0  0  0  0  0
   -7.6566   22.6236    3.9159 C   0  0  0  0  0  0  0  0  0  0  0  0
   -6.8589   23.7733    4.0066 C   0  0  0  0  0  0  0  0  0  0  0  0
   -6.0831   24.1332    2.8894 C   0  0  0  0  0  0  0  0  0  0  0  0
   -6.1371   23.3405    1.7551 C   0  0  0  0  0  0  0  0  0  0  0  0
   -6.9158   22.1953    1.6295 C   0  0  0  0  0  0  0  0  0  0  0  0
   -5.3162   23.8587    0.8048 O   0  0  0  0  0  0  0  0  0  0  0  0
   -4.7034   25.0004    1.2927 N   0  0  0  0  0  0  0  0  0  0  0  0
   -5.1699   25.1638    2.5400 C   0  0  0  0  0  0  0  0  0  0  0  0
   -4.1259   29.1894    6.3606 C   0  0  0  0  0  0  0  0  0  0  0  0
   -5.1884   29.9233    6.9007 C   0  0  0  0  0  0  0  0  0  0  0  0
   -5.0654   30.8474    7.8878 N   0  0  0  0  0  0  0  0  0  0  0  0
   -3.8130   31.0201    8.3669 C   0  0  0  0  0  0  0  0  0  0  0  0
   -3.6320   32.0694    9.4283 C   0  0  0  0  0  0  0  0  0  0  0  0
   -2.3147   31.9354   10.1891 C   0  0  0  0  0  0  0  0  0  0  0  0
   -1.1575   31.7383    9.2163 C   0  0  0  0  0  0  0  0  0  0  0  0
   -1.3473   30.4503    8.4182 C   0  0  0  0  0  0  0  0  0  0  0  0
   -2.7335   30.2993    7.8543 C   0  0  0  0  0  0  0  0  0  0  0  0
   -2.8859   29.3792    6.8642 N   0  0  0  0  0  0  0  0  0  0  0  0
  7  8  1  0  0  0
  8  9  2  0  0  0
  9 10  1  0  0  0
 10 11  2  0  0  0
 11 12  1  0  0  0
 12 13  2  0  0  0
 12 14  1  0  0  0
 14 15  1  0  0  0
 15 16  2  0  0  0
 16  1  1  0  0  0
  1  2  1  0  0  0
  2  3  1  0  0  0
  3  4  1  0  0  0
  4 17  1  0  0  0
 17 18  1  0  0  0
 18 19  2  0  0  0
 19 20  1  0  0  0
 20 21  1  0  0  0
 21 22  1  0  0  0
 22 23  1  0  0  0
 23 24  1  0  0  0
 24 25  1  0  0  0
 25 26  1  0  0  0
  4  5  1  0  0  0
  5  6  1  0  0  0
 13  8  1  0  0  0
  6  1  1  0  0  0
 16 11  1  0  0  0
 26 17  2  0  0  0
 25 20  2  0  0  0
M  END
> <minimizedAffinity>
-10.47035

$$$$
OCNT-2315629


 27 31  0  0  0  0  0  0  0  0999 V2000
   -5.5348   28.1448    5.3979 C   0  0  0  0  0  0  0  0  0  0  0  0
   -5.5212   28.1304    6.7132 N   0  0  0  0  0  0  0  0  0  0  0  0
   -5.3148   29.4542    7.0176 C   0  0  0  0  0  0  0  0  0  0  0  0
   -5.2058   30.2654    5.9560 N   0  0  0  0  0  0  0  0  0  0  0  0
   -5.3542   29.3954    4.8751 O   0  0  0  0  0  0  0  0  0  0  0  0
   -6.7386   23.3914    4.7063 C   0  0  0  0  0  0  0  0  0  0  0  0
   -6.3053   24.6833    4.0601 C   0  0  0  0  0  0  0  0  0  0  0  0
   -6.1152   25.7877    4.9223 C   0  0  0  0  0  0  0  0  0  0  0  0
   -5.7128   27.0466    4.4545 C   0  0  0  0  0  0  0  0  0  0  0  0
   -5.4954   27.1983    3.0842 C   0  0  0  0  0  0  0  0  0  0  0  0
   -5.6756   26.1222    2.2060 C   0  0  0  0  0  0  0  0  0  0  0  0
   -6.0808   24.8560    2.6739 C   0  0  0  0  0  0  0  0  0  0  0  0
   -6.2471   23.8022    1.7251 N   0  0  0  0  0  0  0  0  0  0  0  0
   -5.4160   22.7366    1.4576 C   0  0  0  0  0  0  0  0  0  0  0  0
   -5.9359   21.9949    0.5072 N   0  0  0  0  0  0  0  0  0  0  0  0
   -7.1120   22.6012    0.1707 N   0  0  0  0  0  0  0  0  0  0  0  0
   -7.3097   23.6903    0.8976 N   0  0  0  0  0  0  0  0  0  0  0  0
   -5.1848   29.9719    8.5063 C   0  0  0  0  0  0  0  0  0  0  0  0
   -6.2959   31.0195    8.8841 C   0  0  0  0  0  0  0  0  0  0  0  0
   -6.4372   30.2936   10.2340 C   0  0  0  0  0  0  0  0  0  0  0  0
   -5.9189   29.0275    9.5289 C   0  0  0  0  0  0  0  0  0  0  0  0
   -3.6511   30.3516    8.8040 C   0  0  0  0  0  0  0  0  0  0  0  0
   -2.5832   29.5243    8.4098 C   0  0  0  0  0  0  0  0  0  0  0  0
   -1.2719   29.8926    8.6800 C   0  0  0  0  0  0  0  0  0  0  0  0
   -0.9296   31.0309    9.3119 N   0  0  0  0  0  0  0  0  0  0  0  0
   -1.9438   31.8375    9.6771 C   0  0  0  0  0  0  0  0  0  0  0  0
   -3.2822   31.5472    9.4472 C   0  0  0  0  0  0  0  0  0  0  0  0
  6  7  1  0  0  0
  7  8  1  0  0  0
  8  9  2  0  0  0
  9  1  1  0  0  0
  1  2  2  0  0  0
  2  3  1  0  0  0
  3 18  1  0  0  0
 18 22  1  0  0  0
 22 23  2  0  0  0
 23 24  1  0  0  0
 24 25  2  0  0  0
 25 26  1  0  0  0
 26 27  2  0  0  0
 18 19  1  0  0  0
 19 20  1  0  0  0
 20 21  1  0  0  0
  3  4  2  0  0  0
  4  5  1  0  0  0
  9 10  1  0  0  0
 10 11  2  0  0  0
 11 12  1  0  0  0
 12 13  1  0  0  0
 13 14  1  0  0  0
 14 15  2  0  0  0
 15 16  1  0  0  0
 16 17  2  0  0  0
 12  7  2  0  0  0
 17 13  1  0  0  0
  5  1  1  0  0  0
 21 18  1  0  0  0
 27 22  1  0  0  0
M  END
> <minimizedAffinity>
-10.05641

$$$$
OCNT-2315630


 23 26  0  0  0  0  0  0  0  0999 V2000
   -4.2761   30.3794    7.4813 C   0  0  0  0  0  0  0  0  0  0  0  0
   -5.1963   31.5252    7.9275 C   0  0  0  0  0  0  0  0  0  0  0  0
   -6.5739   30.8754    7.9858 C   0  0  0  0  0  0  0  0  0  0  0  0
   -6.5547   29.9431    6.7852 C   0  0  0  0  0  0  0  0  0  0  0  0
   -5.1623   29.5414    6.6650 N   0  0  0  0  0  0  0  0  0  0  0  0
   -4.6615   28.5854    5.8082 C   0  0  0  0  0  0  0  0  0  0  0  0
   -3.4693   28.3135    5.7297 O   0  0  0  0  0  0  0  0  0  0  0  0
   -5.6496   27.8555    4.9738 C   0  0  0  0  0  0  0  0  0  0  0  0
   -6.1382   28.4382    3.6730 C   0  0  0  0  0  0  0  0  0  0  0  0
   -5.2057   27.2544    3.6470 C   0  0  0  0  0  0  0  0  0  0  0  0
   -5.7081   25.8860    3.2526 C   0  0  0  0  0  0  0  0  0  0  0  0
   -5.7533   25.4954    1.9037 C   0  0  0  0  0  0  0  0  0  0  0  0
   -6.2263   24.2366    1.5244 C   0  0  0  0  0  0  0  0  0  0  0  0
   -6.6732   23.3414    2.4916 C   0  0  0  0  0  0  0  0  0  0  0  0
   -6.6514   23.7078    3.8341 C   0  0  0  0  0  0  0  0  0  0  0  0
   -6.1774   24.9686    4.2069 C   0  0  0  0  0  0  0  0  0  0  0  0
   -3.6622   29.5820    8.6474 C   0  0  0  0  0  0  0  0  0  0  0  0
   -2.0538   31.9257    9.8839 C   0  0  0  0  0  0  0  0  0  0  0  0
   -1.4745   30.7137    9.2520 C   0  0  0  0  0  0  0  0  0  0  0  0
   -0.1858   30.4653    9.1239 N   0  0  0  0  0  0  0  0  0  0  0  0
   -0.0943   29.2364    8.5283 C   0  0  0  0  0  0  0  0  0  0  0  0
   -1.3436   28.7272    8.2762 C   0  0  0  0  0  0  0  0  0  0  0  0
   -2.2170   29.6853    8.7176 N   0  0  0  0  0  0  0  0  0  0  0  0
 18 19  1  0  0  0
 19 20  2  0  0  0
 20 21  1  0  0  0
 21 22  2  0  0  0
 22 23  1  0  0  0
 23 17  1  0  0  0
 17  1  1  0  0  0
  1  2  1  0  0  0
  2  3  1  0  0  0
  3  4  1  0  0  0
  4  5  1  0  0  0
  5  6  1  0  0  0
  6  7  2  0  0  0
  6  8  1  0  0  0
  8  9  1  0  0  0
  9 10  1  0  0  0
 10 11  1  0  0  0
 11 12  2  0  0  0
 12 13  1  0  0  0
 13 14  2  0  0  0
 14 15  1  0  0  0
 15 16  2  0  0  0
 23 19  1  0  0  0
  5  1  1  0  0  0
 10  8  1  0  0  0
 16 11  1  0  0  0
M  END
> <minimizedAffinity>
-9.19007

$$$$
OCNT-2315646


 23 26  0  0  0  0  0  0  0  0999 V2000
   -1.5656   26.6291    5.5986 C   0  0  0  0  0  0  0  0  0  0  0  0
   -1.3758   26.0075    4.3732 C   0  0  0  0  0  0  0  0  0  0  0  0
   -2.4224   25.9710    3.4457 C   0  0  0  0  0  0  0  0  0  0  0  0
   -3.6653   26.5293    3.7098 C   0  0  0  0  0  0  0  0  0  0  0  0
   -4.5946   26.4717    2.7461 N   0  0  0  0  0  0  0  0  0  0  0  0
   -5.7865   27.0427    2.9925 C   0  0  0  0  0  0  0  0  0  0  0  0
   -6.1183   27.6571    4.1855 C   0  0  0  0  0  0  0  0  0  0  0  0
   -5.1813   27.6945    5.2204 C   0  0  0  0  0  0  0  0  0  0  0  0
   -3.8922   27.1380    4.9644 C   0  0  0  0  0  0  0  0  0  0  0  0
   -2.8120   27.1916    5.8812 C   0  0  0  0  0  0  0  0  0  0  0  0
   -5.4957   28.2542    6.4636 N   0  0  0  0  0  0  0  0  0  0  0  0
   -6.9179   28.5121    6.7410 C   0  0  0  0  0  0  0  0  0  0  0  0
   -7.2478   29.9896    6.5297 C   0  0  0  0  0  0  0  0  0  0  0  0
   -6.3289   30.8885    7.3554 C   0  0  0  0  0  0  0  0  0  0  0  0
   -4.8576   30.6026    7.0236 C   0  0  0  0  0  0  0  0  0  0  0  0
   -4.5340   29.1090    7.1823 C   0  0  0  0  0  0  0  0  0  0  0  0
   -3.9521   31.4248    7.8059 N   0  0  0  0  0  0  0  0  0  0  0  0
   -4.2413   32.1374    8.9284 C   0  0  0  0  0  0  0  0  0  0  0  0
   -3.1614   32.7561    9.3456 N   0  0  0  0  0  0  0  0  0  0  0  0
   -2.2196   32.3808    8.4308 C   0  0  0  0  0  0  0  0  0  0  0  0
   -2.6571   31.5657    7.4673 N   0  0  0  0  0  0  0  0  0  0  0  0
   -0.5250   28.0331    7.2085 C   0  0  0  0  0  0  0  0  0  0  0  0
   -0.6368   26.7561    6.5926 O   0  0  0  0  0  0  0  0  0  0  0  0
 22 23  1  0  0  0
 23  1  1  0  0  0
  1  2  2  0  0  0
  2  3  1  0  0  0
  3  4  2  0  0  0
  4  5  1  0  0  0
  5  6  2  0  0  0
  6  7  1  0  0  0
  7  8  2  0  0  0
  8 11  1  0  0  0
 11 12  1  0  0  0
 12 13  1  0  0  0
 13 14  1  0  0  0
 14 15  1  0  0  0
 15 17  1  0  0  0
 17 18  1  0  0  0
 18 19  2  0  0  0
 19 20  1  0  0  0
 20 21  2  0  0  0
 15 16  1  0  0  0
  8  9  1  0  0  0
  9 10  2  0  0  0
 10  1  1  0  0  0
  9  4  1  0  0  0
 16 11  1  0  0  0
 21 17  1  0  0  0
M  END
> <minimizedAffinity>
-8.46086

$$$$
OCNT-2315652


 25 28  0  0  0  0  0  0  0  0999 V2000
   -4.5709   24.9080    4.1908 C   0  0  0  0  0  0  0  0  0  0  0  0
   -4.9416   24.4525    5.2663 O   0  0  0  0  0  0  0  0  0  0  0  0
   -3.5818   25.8543    4.0057 N   0  0  0  0  0  0  0  0  0  0  0  0
   -3.4465   26.1710    3.0508 H   0  0  0  0  0  0  0  0  0  0  0  0
   -5.0209   21.9057    3.1512 C   0  0  0  0  0  0  0  0  0  0  0  0
   -5.3840   23.1891    2.4803 C   0  0  0  0  0  0  0  0  0  0  0  0
   -5.2227   24.4612    2.9143 C   0  0  0  0  0  0  0  0  0  0  0  0
   -5.8588   25.6765    1.7710 S   0  0  0  0  0  0  0  0  0  0  0  0
   -6.3442   24.3931    0.7238 C   0  0  0  0  0  0  0  0  0  0  0  0
   -6.9713   24.1653   -0.4638 C   0  0  0  0  0  0  0  0  0  0  0  0
   -7.0176   22.8044   -0.6994 N   0  0  0  0  0  0  0  0  0  0  0  0
   -6.4185   22.2401    0.3354 C   0  0  0  0  0  0  0  0  0  0  0  0
   -6.0095   23.1773    1.2413 N   0  0  0  0  0  0  0  0  0  0  0  0
   -2.7701   26.4642    4.9829 C   0  0  0  0  0  0  0  0  0  0  0  0
   -1.4135   26.1211    4.9862 C   0  0  0  0  0  0  0  0  0  0  0  0
   -0.5446   26.6893    5.9155 C   0  0  0  0  0  0  0  0  0  0  0  0
   -1.0259   27.5996    6.8600 C   0  0  0  0  0  0  0  0  0  0  0  0
   -2.3842   27.9474    6.8932 C   0  0  0  0  0  0  0  0  0  0  0  0
   -3.2433   27.3700    5.9402 C   0  0  0  0  0  0  0  0  0  0  0  0
   -2.9175   28.8853    7.8911 C   0  0  0  0  0  0  0  0  0  0  0  0
   -2.4230   30.0829    8.3841 C   0  0  0  0  0  0  0  0  0  0  0  0
   -3.3833   30.5435    9.3017 C   0  0  0  0  0  0  0  0  0  0  0  0
   -4.4227   29.7141    9.4007 N   0  0  0  0  0  0  0  0  0  0  0  0
   -4.1230   28.7295    8.5345 N   0  0  0  0  0  0  0  0  0  0  0  0
   -4.7980   27.9793    8.4178 H   0  0  0  0  0  0  0  0  0  0  0  0
  5  6  1  0  0  0
  6  7  2  0  0  0
  7  1  1  0  0  0
  1  2  2  0  0  0
  1  3  1  0  0  0
  3 14  1  0  0  0
 14 15  2  0  0  0
 15 16  1  0  0  0
 16 17  2  0  0  0
 17 18  1  0  0  0
 18 20  1  0  0  0
 20 21  2  0  0  0
 21 22  1  0  0  0
 22 23  2  0  0  0
 23 24  1  0  0  0
 18 19  2  0  0  0
  7  8  1  0  0  0
  8  9  1  0  0  0
  9 10  2  0  0  0
 10 11  1  0  0  0
 11 12  2  0  0  0
 12 13  1  0  0  0
 13  6  1  0  0  0
 19 14  1  0  0  0
 13  9  1  0  0  0
 24 20  1  0  0  0
  3  4  1  0  0  0
 24 25  1  0  0  0
M  END
> <minimizedAffinity>
-8.67675

$$$$
OCNT-2315670


 23 25  0  0  0  0  0  0  0  0999 V2000
   -3.6430   24.8909    3.9187 N   0  0  0  0  0  0  0  0  0  0  0  0
   -4.2730   25.4301    5.1414 C   0  0  0  0  0  0  0  0  0  0  0  0
   -4.0253   26.9291    5.2629 C   0  0  0  0  0  0  0  0  0  0  0  0
   -2.5249   27.2236    5.3758 C   0  0  0  0  0  0  0  0  0  0  0  0
   -1.6622   26.1285    4.7326 C   0  0  0  0  0  0  0  0  0  0  0  0
   -2.3652   25.5192    3.5296 C   0  0  0  0  0  0  0  0  0  0  0  0
   -4.6314   22.1786    3.2246 C   0  0  0  0  0  0  0  0  0  0  0  0
   -4.9187   23.4078    2.5273 N   0  0  0  0  0  0  0  0  0  0  0  0
   -4.5025   24.6735    2.8806 C   0  0  0  0  0  0  0  0  0  0  0  0
   -5.0541   25.5808    2.1043 N   0  0  0  0  0  0  0  0  0  0  0  0
   -5.8001   24.8873    1.1876 C   0  0  0  0  0  0  0  0  0  0  0  0
   -6.5744   25.3650    0.1172 C   0  0  0  0  0  0  0  0  0  0  0  0
   -7.2515   24.4455   -0.6961 C   0  0  0  0  0  0  0  0  0  0  0  0
   -7.1589   23.0757   -0.4471 C   0  0  0  0  0  0  0  0  0  0  0  0
   -6.3936   22.5981    0.6166 C   0  0  0  0  0  0  0  0  0  0  0  0
   -6.3103   21.2813    0.8441 F   0  0  0  0  0  0  0  0  0  0  0  0
   -5.7245   23.5196    1.4203 C   0  0  0  0  0  0  0  0  0  0  0  0
   -2.0146   27.4387    7.0907 S   0  0  0  0  0  0  0  0  0  0  0  0
   -2.3433   25.9380    7.7575 N   0  0  0  0  0  0  0  0  0  0  0  0
   -2.9223   28.3480    7.7503 O   0  0  0  0  0  0  0  0  0  0  0  0
   -0.5815   27.5925    7.1680 O   0  0  0  0  0  0  0  0  0  0  0  0
   -3.0617   26.0245    8.4792 H   0  0  0  0  0  0  0  0  0  0  0  0
   -1.4816   25.5054    8.0961 H   0  0  0  0  0  0  0  0  0  0  0  0
  7  8  1  0  0  0
  8  9  1  0  0  0
  9  1  1  0  0  0
  1  2  1  0  0  0
  2  3  1  0  0  0
  3  4  1  0  0  0
  4 18  1  0  0  0
 18 19  1  0  0  0
 18 20  2  0  0  0
 18 21  2  0  0  0
  4  5  1  0  0  0
  5  6  1  0  0  0
  9 10  2  0  0  0
 10 11  1  0  0  0
 11 12  2  0  0  0
 12 13  1  0  0  0
 13 14  2  0  0  0
 14 15  1  0  0  0
 15 16  1  0  0  0
 15 17  2  0  0  0
 17  8  1  0  0  0
  6  1  1  0  0  0
 17 11  1  0  0  0
 19 22  1  0  0  0
 19 23  1  0  0  0
M  END
> <minimizedAffinity>
-8.39147

$$$$
OCNT-2315672


 25 28  0  0  0  0  0  0  0  0999 V2000
   -5.7543   25.5257    3.7476 C   0  0  0  0  0  0  0  0  0  0  0  0
   -5.7920   26.1001    4.9296 N   0  0  0  0  0  0  0  0  0  0  0  0
   -5.8837   27.4456    4.6143 C   0  0  0  0  0  0  0  0  0  0  0  0
   -5.9024   27.6843    3.2914 N   0  0  0  0  0  0  0  0  0  0  0  0
   -5.8189   26.4214    2.7200 O   0  0  0  0  0  0  0  0  0  0  0  0
   -6.1022   22.0983    0.5351 C   0  0  0  0  0  0  0  0  0  0  0  0
   -6.1163   23.5551    1.0221 C   0  0  0  0  0  0  0  0  0  0  0  0
   -6.8345   24.4255   -0.0157 C   0  0  0  0  0  0  0  0  0  0  0  0
   -6.7830   23.6688    2.4104 C   0  0  0  0  0  0  0  0  0  0  0  0
   -5.6635   24.0683    3.3897 C   0  0  0  0  0  0  0  0  0  0  0  0
   -5.7143   23.2182    4.6673 C   0  0  0  0  0  0  0  0  0  0  0  0
   -4.3833   23.7775    2.6006 C   0  0  0  0  0  0  0  0  0  0  0  0
   -4.7228   24.0120    1.1896 N   0  0  0  0  0  0  0  0  0  0  0  0
   -4.6715   25.0171    1.0043 H   0  0  0  0  0  0  0  0  0  0  0  0
   -5.9527   28.4888    5.6417 C   0  0  0  0  0  0  0  0  0  0  0  0
   -7.1431   29.1695    5.8748 C   0  0  0  0  0  0  0  0  0  0  0  0
   -7.1718   30.1538    6.8581 C   0  0  0  0  0  0  0  0  0  0  0  0
   -6.0168   30.4360    7.5840 C   0  0  0  0  0  0  0  0  0  0  0  0
   -4.8596   29.7169    7.2993 C   0  0  0  0  0  0  0  0  0  0  0  0
   -4.8193   28.7542    6.3422 N   0  0  0  0  0  0  0  0  0  0  0  0
   -3.6545   29.9683    8.0130 N   0  0  0  0  0  0  0  0  0  0  0  0
   -2.4574   29.3094    7.8248 C   0  0  0  0  0  0  0  0  0  0  0  0
   -1.5731   29.8664    8.7157 C   0  0  0  0  0  0  0  0  0  0  0  0
   -2.1795   30.8479    9.4500 N   0  0  0  0  0  0  0  0  0  0  0  0
   -3.4194   30.8870    9.0102 C   0  0  0  0  0  0  0  0  0  0  0  0
  6  7  1  0  0  0
  7  8  1  0  0  0
  7  9  1  0  0  0
  9 10  1  0  0  0
 10 11  1  0  0  0
 10  1  1  0  0  0
  1  2  2  0  0  0
  2  3  1  0  0  0
  3 15  1  0  0  0
 15 16  1  0  0  0
 16 17  2  0  0  0
 17 18  1  0  0  0
 18 19  2  0  0  0
 19 21  1  0  0  0
 21 22  1  0  0  0
 22 23  2  0  0  0
 23 24  1  0  0  0
 24 25  2  0  0  0
 19 20  1  0  0  0
  3  4  2  0  0  0
  4  5  1  0  0  0
 10 12  1  0  0  0
 12 13  1  0  0  0
 13  7  1  0  0  0
  5  1  1  0  0  0
 20 15  2  0  0  0
 25 21  1  0  0  0
 13 14  1  0  0  0
M  END
> <minimizedAffinity>
-8.97700

$$$$
OCNT-2315694


 26 29  0  0  0  0  0  0  0  0999 V2000
   -4.9284   30.7185    7.0785 C   0  0  0  0  0  0  0  0  0  0  0  0
   -5.4456   29.4574    6.7977 C   0  0  0  0  0  0  0  0  0  0  0  0
   -6.6405   29.2960    7.4451 O   0  0  0  0  0  0  0  0  0  0  0  0
   -6.8751   30.4229    8.1594 C   0  0  0  0  0  0  0  0  0  0  0  0
   -5.8560   31.3233    7.9792 C   0  0  0  0  0  0  0  0  0  0  0  0
   -4.9700   28.3575    5.9753 C   0  0  0  0  0  0  0  0  0  0  0  0
   -3.7984   27.9957    5.9741 O   0  0  0  0  0  0  0  0  0  0  0  0
   -5.9693   27.8008    5.1880 N   0  0  0  0  0  0  0  0  0  0  0  0
   -6.8382   28.3157    5.1467 H   0  0  0  0  0  0  0  0  0  0  0  0
   -5.8689   26.6809    4.3351 C   0  0  0  0  0  0  0  0  0  0  0  0
   -5.9496   25.3613    4.7684 C   0  0  0  0  0  0  0  0  0  0  0  0
   -5.8474   24.3494    3.8262 C   0  0  0  0  0  0  0  0  0  0  0  0
   -5.6776   24.5633    2.5045 N   0  0  0  0  0  0  0  0  0  0  0  0
   -5.6041   25.8483    2.1075 C   0  0  0  0  0  0  0  0  0  0  0  0
   -5.6954   26.9277    2.9721 C   0  0  0  0  0  0  0  0  0  0  0  0
   -3.6815   31.3423    6.5237 C   0  0  0  0  0  0  0  0  0  0  0  0
   -3.5054   33.1589    9.2205 C   0  0  0  0  0  0  0  0  0  0  0  0
   -2.9734   31.7634    8.9175 C   0  0  0  0  0  0  0  0  0  0  0  0
   -1.7006   31.4566    9.7390 C   0  0  0  0  0  0  0  0  0  0  0  0
   -0.9255   30.6524    8.7542 C   0  0  0  0  0  0  0  0  0  0  0  0
    0.2063   29.8842    8.9816 C   0  0  0  0  0  0  0  0  0  0  0  0
    0.7882   29.2334    7.8954 C   0  0  0  0  0  0  0  0  0  0  0  0
    0.2413   29.3715    6.6128 C   0  0  0  0  0  0  0  0  0  0  0  0
   -0.8961   30.1597    6.4018 C   0  0  0  0  0  0  0  0  0  0  0  0
   -1.4875   30.7967    7.4821 C   0  0  0  0  0  0  0  0  0  0  0  0
   -2.6163   31.6455    7.4830 N   0  0  0  0  0  0  0  0  0  0  0  0
 17 18  1  0  0  0
 18 19  1  0  0  0
 19 20  1  0  0  0
 20 21  2  0  0  0
 21 22  1  0  0  0
 22 23  2  0  0  0
 23 24  1  0  0  0
 24 25  2  0  0  0
 25 26  1  0  0  0
 26 16  1  0  0  0
 16  1  1  0  0  0
  1  2  2  0  0  0
  2  6  1  0  0  0
  6  7  2  0  0  0
  6  8  1  0  0  0
  8 10  1  0  0  0
 10 11  2  0  0  0
 11 12  1  0  0  0
 12 13  2  0  0  0
 13 14  1  0  0  0
 14 15  2  0  0  0
  2  3  1  0  0  0
  3  4  1  0  0  0
  4  5  2  0  0  0
 26 18  1  0  0  0
  5  1  1  0  0  0
 25 20  1  0  0  0
 15 10  1  0  0  0
  8  9  1  0  0  0
M  END
> <minimizedAffinity>
-9.87668

$$$$
OCNT-2315699


 22 24  0  0  0  0  0  0  0  0999 V2000
   -2.6397   28.2501    7.1664 C   0  0  0  0  0  0  0  0  0  0  0  0
   -2.0166   29.6172    6.7817 C   0  0  0  0  0  0  0  0  0  0  0  0
   -0.4924   29.4625    6.6061 C   0  0  0  0  0  0  0  0  0  0  0  0
    0.2342   29.2107    7.9242 C   0  0  0  0  0  0  0  0  0  0  0  0
   -0.0943   30.2772    8.9606 C   0  0  0  0  0  0  0  0  0  0  0  0
   -1.5988   30.4865    9.1420 C   0  0  0  0  0  0  0  0  0  0  0  0
   -2.3061   30.7722    7.7955 C   0  0  0  0  0  0  0  0  0  0  0  0
   -3.7612   31.0268    7.9234 N   0  0  0  0  0  0  0  0  0  0  0  0
   -4.1082   32.4252    7.6089 C   0  0  0  0  0  0  0  0  0  0  0  0
   -5.5224   32.5839    8.1482 C   0  0  0  0  0  0  0  0  0  0  0  0
   -5.6815   31.4758    9.1786 C   0  0  0  0  0  0  0  0  0  0  0  0
   -4.3107   30.8254    9.2685 C   0  0  0  0  0  0  0  0  0  0  0  0
   -4.0706   28.1759    6.8787 N   0  0  0  0  0  0  0  0  0  0  0  0
   -4.5034   29.0746    7.1304 H   0  0  0  0  0  0  0  0  0  0  0  0
   -5.6444   28.2962    5.0313 C   0  0  0  0  0  0  0  0  0  0  0  0
   -6.0191   27.8979    3.7416 C   0  0  0  0  0  0  0  0  0  0  0  0
   -5.2105   27.0206    3.0323 C   0  0  0  0  0  0  0  0  0  0  0  0
   -4.0567   26.5730    3.6441 C   0  0  0  0  0  0  0  0  0  0  0  0
   -3.6709   26.9445    4.8850 N   0  0  0  0  0  0  0  0  0  0  0  0
   -4.4499   27.8094    5.5792 C   0  0  0  0  0  0  0  0  0  0  0  0
   -7.2314   29.8955    6.3138 N   0  0  0  0  0  0  0  0  0  0  0  0
   -6.4954   29.1917    5.7545 C   0  0  0  0  0  0  0  0  0  0  0  0
 21 22  3  0  0  0
 22 15  1  0  0  0
 15 16  1  0  0  0
 16 17  2  0  0  0
 17 18  1  0  0  0
 18 19  2  0  0  0
 19 20  1  0  0  0
 20 13  1  0  0  0
 13  1  1  0  0  0
  1  2  1  0  0  0
  2  3  1  0  0  0
  3  4  1  0  0  0
  4  5  1  0  0  0
  5  6  1  0  0  0
  6  7  1  0  0  0
  7  8  1  0  0  0
  8  9  1  0  0  0
  9 10  1  0  0  0
 10 11  1  0  0  0
 11 12  1  0  0  0
 20 15  2  0  0  0
  7  2  1  0  0  0
 12  8  1  0  0  0
 13 14  1  0  0  0
M  END
> <minimizedAffinity>
-7.90705

$$$$
OCNT-2315701


 28 30  0  0  0  0  0  0  0  0999 V2000
   -4.4551   28.0682    6.8505 N   0  0  0  0  0  0  0  0  0  0  0  0
   -5.3236   28.6754    5.9464 C   0  0  0  0  0  0  0  0  0  0  0  0
   -5.2232   29.8178    5.5102 O   0  0  0  0  0  0  0  0  0  0  0  0
   -4.6720   27.1123    7.0982 H   0  0  0  0  0  0  0  0  0  0  0  0
   -0.9061   29.6280    8.5904 C   0  0  0  0  0  0  0  0  0  0  0  0
   -0.9174   28.3802    7.9625 C   0  0  0  0  0  0  0  0  0  0  0  0
   -2.0927   27.8591    7.3850 C   0  0  0  0  0  0  0  0  0  0  0  0
   -2.0160   26.5077    6.7221 C   0  0  0  0  0  0  0  0  0  0  0  0
   -3.2854   28.6090    7.4365 C   0  0  0  0  0  0  0  0  0  0  0  0
   -3.2636   29.8580    8.0661 C   0  0  0  0  0  0  0  0  0  0  0  0
   -2.0869   30.3772    8.6441 C   0  0  0  0  0  0  0  0  0  0  0  0
   -2.1049   31.7309    9.3113 C   0  0  0  0  0  0  0  0  0  0  0  0
   -1.1627   32.5846    8.8183 F   0  0  0  0  0  0  0  0  0  0  0  0
   -1.8946   31.6668   10.6579 F   0  0  0  0  0  0  0  0  0  0  0  0
   -3.2918   32.3907    9.1684 F   0  0  0  0  0  0  0  0  0  0  0  0
    1.3970   29.4429    9.2066 C   0  0  0  0  0  0  0  0  0  0  0  0
    0.1919   30.1971    9.1745 O   0  0  0  0  0  0  0  0  0  0  0  0
   -6.5005   27.7548    5.5857 C   0  0  0  0  0  0  0  0  0  0  0  0
   -6.1209   26.7028    4.6714 N   0  0  0  0  0  0  0  0  0  0  0  0
   -6.1126   25.0581    5.1447 S   0  0  0  0  0  0  0  0  0  0  0  0
   -5.8071   24.5603    3.4731 C   0  0  0  0  0  0  0  0  0  0  0  0
   -5.6465   23.2729    2.9853 C   0  0  0  0  0  0  0  0  0  0  0  0
   -5.4079   23.1001    1.6168 C   0  0  0  0  0  0  0  0  0  0  0  0
   -5.3323   24.2078    0.7558 C   0  0  0  0  0  0  0  0  0  0  0  0
   -5.4952   25.5026    1.2531 C   0  0  0  0  0  0  0  0  0  0  0  0
   -5.7303   25.6543    2.6130 C   0  0  0  0  0  0  0  0  0  0  0  0
   -5.9314   26.9328    3.3193 C   0  0  0  0  0  0  0  0  0  0  0  0
   -5.9217   28.0180    2.7587 O   0  0  0  0  0  0  0  0  0  0  0  0
 16 17  1  0  0  0
 17  5  1  0  0  0
  5  6  2  0  0  0
  6  7  1  0  0  0
  7  8  1  0  0  0
  7  9  2  0  0  0
  9  1  1  0  0  0
  1  2  1  0  0  0
  2  3  2  0  0  0
  2 18  1  0  0  0
 18 19  1  0  0  0
 19 20  1  0  0  0
 20 21  1  0  0  0
 21 22  2  0  0  0
 22 23  1  0  0  0
 23 24  2  0  0  0
 24 25  1  0  0  0
 25 26  2  0  0  0
 26 27  1  0  0  0
 27 28  2  0  0  0
  9 10  1  0  0  0
 10 11  2  0  0  0
 11 12  1  0  0  0
 12 13  1  0  0  0
 12 14  1  0  0  0
 12 15  1  0  0  0
 11  5  1  0  0  0
 27 19  1  0  0  0
 26 21  1  0  0  0
  1  4  1  0  0  0
M  END
> <minimizedAffinity>
-9.57687

$$$$
OCNT-2315705


 24 27  0  0  0  0  0  0  0  0999 V2000
   -7.4807   21.9571    6.9267 C   0  0  0  0  0  0  0  0  0  0  0  0
   -7.2692   22.4917    5.5413 C   0  0  0  0  0  0  0  0  0  0  0  0
   -8.2459   22.3302    4.5589 C   0  0  0  0  0  0  0  0  0  0  0  0
   -8.0312   22.7882    3.2527 C   0  0  0  0  0  0  0  0  0  0  0  0
   -6.8286   23.4264    2.8910 C   0  0  0  0  0  0  0  0  0  0  0  0
   -5.8444   23.5831    3.8846 C   0  0  0  0  0  0  0  0  0  0  0  0
   -6.0603   23.0965    5.1901 C   0  0  0  0  0  0  0  0  0  0  0  0
   -4.4843   24.0784    3.6251 C   0  0  0  0  0  0  0  0  0  0  0  0
   -3.7759   23.3791    2.9023 O   0  0  0  0  0  0  0  0  0  0  0  0
   -4.0380   25.2464    4.2173 N   0  0  0  0  0  0  0  0  0  0  0  0
   -2.6237   25.6260    4.0833 C   0  0  0  0  0  0  0  0  0  0  0  0
   -2.3868   26.8231    5.0049 C   0  0  0  0  0  0  0  0  0  0  0  0
   -3.7889   27.2363    5.3237 C   0  0  0  0  0  0  0  0  0  0  0  0
   -4.1833   28.3781    6.0062 C   0  0  0  0  0  0  0  0  0  0  0  0
   -5.5426   28.5691    6.2190 C   0  0  0  0  0  0  0  0  0  0  0  0
   -5.9594   29.6614    6.8722 F   0  0  0  0  0  0  0  0  0  0  0  0
   -6.4847   27.6448    5.7617 C   0  0  0  0  0  0  0  0  0  0  0  0
   -6.0743   26.4927    5.0788 C   0  0  0  0  0  0  0  0  0  0  0  0
   -4.7182   26.2883    4.8746 C   0  0  0  0  0  0  0  0  0  0  0  0
   -6.6880   23.9050    1.5533 N   0  0  0  0  0  0  0  0  0  0  0  0
   -7.1545   23.2998    0.4069 C   0  0  0  0  0  0  0  0  0  0  0  0
   -6.9250   24.0475   -0.6469 N   0  0  0  0  0  0  0  0  0  0  0  0
   -6.2799   25.1718   -0.2158 N   0  0  0  0  0  0  0  0  0  0  0  0
   -6.1365   25.0734    1.0874 C   0  0  0  0  0  0  0  0  0  0  0  0
  1  2  1  0  0  0
  2  3  1  0  0  0
  3  4  2  0  0  0
  4  5  1  0  0  0
  5 20  1  0  0  0
 20 21  1  0  0  0
 21 22  2  0  0  0
 22 23  1  0  0  0
 23 24  2  0  0  0
  5  6  2  0  0  0
  6  8  1  0  0  0
  8  9  2  0  0  0
  8 10  1  0  0  0
 10 11  1  0  0  0
 11 12  1  0  0  0
 12 13  1  0  0  0
 13 14  1  0  0  0
 14 15  2  0  0  0
 15 16  1  0  0  0
 15 17  1  0  0  0
 17 18  2  0  0  0
 18 19  1  0  0  0
  6  7  1  0  0  0
  7  2  2  0  0  0
 24 20  1  0  0  0
 19 10  1  0  0  0
 19 13  2  0  0  0
M  END
> <minimizedAffinity>
-8.53945

$$$$
OCNT-2315717


 31 33  0  0  0  0  0  0  0  0999 V2000
   -3.2525   31.0689    8.2438 C   0  0  0  0  0  0  0  0  0  0  0  0
   -2.8669   31.9347    9.2690 C   0  0  0  0  0  0  0  0  0  0  0  0
   -1.5447   31.9550    9.7289 C   0  0  0  0  0  0  0  0  0  0  0  0
   -0.5950   31.1013    9.1755 C   0  0  0  0  0  0  0  0  0  0  0  0
   -0.9830   30.2167    8.1702 C   0  0  0  0  0  0  0  0  0  0  0  0
   -2.2993   30.2063    7.6926 C   0  0  0  0  0  0  0  0  0  0  0  0
   -5.5534   29.2839    8.8975 O   0  0  0  0  0  0  0  0  0  0  0  0
   -5.5933   30.1882    8.0718 C   0  0  0  0  0  0  0  0  0  0  0  0
   -4.5511   31.0197    7.6996 N   0  0  0  0  0  0  0  0  0  0  0  0
   -4.7530   31.6959    6.9781 H   0  0  0  0  0  0  0  0  0  0  0  0
   -6.8843   30.5051    7.3440 C   0  0  0  0  0  0  0  0  0  0  0  0
   -7.2098   29.4487    6.2977 C   0  0  0  0  0  0  0  0  0  0  0  0
   -6.1616   29.5197    4.7934 S   0  0  0  0  0  0  0  0  0  0  0  0
   -6.0181   27.7976    4.3567 C   0  0  0  0  0  0  0  0  0  0  0  0
   -6.1783   26.7745    5.2966 C   0  0  0  0  0  0  0  0  0  0  0  0
   -6.0544   25.4351    4.9114 C   0  0  0  0  0  0  0  0  0  0  0  0
   -5.7865   25.1189    3.5818 C   0  0  0  0  0  0  0  0  0  0  0  0
   -5.6290   23.4732    3.1108 Cl  0  0  0  0  0  0  0  0  0  0  0  0
   -5.6488   26.1294    2.6328 C   0  0  0  0  0  0  0  0  0  0  0  0
   -5.7681   27.4660    3.0198 C   0  0  0  0  0  0  0  0  0  0  0  0
    0.2083   29.1321    7.4275 S   0  0  0  0  0  0  0  0  0  0  0  0
    0.3751   29.5713    6.0560 O   0  0  0  0  0  0  0  0  0  0  0  0
    1.3395   29.0060    8.3210 O   0  0  0  0  0  0  0  0  0  0  0  0
   -0.6162   27.6772    7.3485 N   0  0  0  0  0  0  0  0  0  0  0  0
   -0.6641   27.1860    8.2409 H   0  0  0  0  0  0  0  0  0  0  0  0
   -1.2001   27.1183    6.2150 C   0  0  0  0  0  0  0  0  0  0  0  0
   -2.5049   27.1209    5.7882 C   0  0  0  0  0  0  0  0  0  0  0  0
   -2.5309   26.4236    4.6139 N   0  0  0  0  0  0  0  0  0  0  0  0
   -1.3237   25.9669    4.2367 N   0  0  0  0  0  0  0  0  0  0  0  0
   -0.5176   26.3813    5.2171 C   0  0  0  0  0  0  0  0  0  0  0  0
   -3.3303   26.2186    4.0225 H   0  0  0  0  0  0  0  0  0  0  0  0
  7  8  2  0  0  0
  8 11  1  0  0  0
 11 12  1  0  0  0
 12 13  1  0  0  0
 13 14  1  0  0  0
 14 15  1  0  0  0
 15 16  2  0  0  0
 16 17  1  0  0  0
 17 18  1  0  0  0
 17 19  2  0  0  0
 19 20  1  0  0  0
  8  9  1  0  0  0
  9  1  1  0  0  0
  1  2  1  0  0  0
  2  3  2  0  0  0
  3  4  1  0  0  0
  4  5  2  0  0  0
  5 21  1  0  0  0
 21 22  2  0  0  0
 21 23  2  0  0  0
 21 24  1  0  0  0
 24 26  1  0  0  0
 26 27  2  0  0  0
 27 28  1  0  0  0
 28 29  1  0  0  0
 29 30  2  0  0  0
  5  6  1  0  0  0
 20 14  2  0  0  0
  6  1  2  0  0  0
 30 26  1  0  0  0
  9 10  1  0  0  0
 24 25  1  0  0  0
 28 31  1  0  0  0
M  END
> <minimizedAffinity>
-9.19028

$$$$
OCNT-2315727


 23 25  0  0  0  0  0  0  0  0999 V2000
   -6.0814   28.2517    5.2015 C   0  0  0  0  0  0  0  0  0  0  0  0
   -6.5320   29.3554    4.9052 O   0  0  0  0  0  0  0  0  0  0  0  0
   -5.4401   28.0140    6.3859 N   0  0  0  0  0  0  0  0  0  0  0  0
   -5.0165   27.1123    6.5853 H   0  0  0  0  0  0  0  0  0  0  0  0
   -5.3762   21.2102    3.2047 C   0  0  0  0  0  0  0  0  0  0  0  0
   -4.8829   22.6468    3.2126 C   0  0  0  0  0  0  0  0  0  0  0  0
   -5.4626   23.5005    2.0724 C   0  0  0  0  0  0  0  0  0  0  0  0
   -5.9295   24.7870    2.7523 C   0  0  0  0  0  0  0  0  0  0  0  0
   -5.6172   26.0767    1.9940 C   0  0  0  0  0  0  0  0  0  0  0  0
   -5.4792   27.2828    2.9404 C   0  0  0  0  0  0  0  0  0  0  0  0
   -6.2147   27.0563    4.2714 C   0  0  0  0  0  0  0  0  0  0  0  0
   -5.7696   25.7540    4.9758 C   0  0  0  0  0  0  0  0  0  0  0  0
   -5.2194   24.7798    4.0302 N   0  0  0  0  0  0  0  0  0  0  0  0
   -5.2529   23.3971    4.4928 C   0  0  0  0  0  0  0  0  0  0  0  0
   -5.2160   29.0596    7.3616 C   0  0  0  0  0  0  0  0  0  0  0  0
   -3.8260   29.5922    7.1829 C   0  0  0  0  0  0  0  0  0  0  0  0
   -2.7274   28.9152    7.4615 N   0  0  0  0  0  0  0  0  0  0  0  0
   -1.6078   29.6943    7.2110 C   0  0  0  0  0  0  0  0  0  0  0  0
   -1.8855   30.9582    6.7255 C   0  0  0  0  0  0  0  0  0  0  0  0
   -3.5778   31.1854    6.5909 S   0  0  0  0  0  0  0  0  0  0  0  0
   -0.2439   29.1157    7.4701 C   0  0  0  0  0  0  0  0  0  0  0  0
    0.7031   29.3546    6.2912 C   0  0  0  0  0  0  0  0  0  0  0  0
    0.3540   29.6758    8.7628 C   0  0  0  0  0  0  0  0  0  0  0  0
  5  6  1  0  0  0
  6  7  1  0  0  0
  7  8  1  0  0  0
  8  9  1  0  0  0
  9 10  1  0  0  0
 10 11  1  0  0  0
 11  1  1  0  0  0
  1  2  2  0  0  0
  1  3  1  0  0  0
  3 15  1  0  0  0
 15 16  1  0  0  0
 16 17  2  0  0  0
 17 18  1  0  0  0
 18 21  1  0  0  0
 21 22  1  0  0  0
 21 23  1  0  0  0
 18 19  2  0  0  0
 19 20  1  0  0  0
 11 12  1  0  0  0
 12 13  1  0  0  0
 13 14  1  0  0  0
 14  6  1  0  0  0
 13  8  1  0  0  0
 20 16  1  0  0  0
  3  4  1  0  0  0
M  END
> <minimizedAffinity>
-8.78652

$$$$
OCNT-2315734


 28 30  0  0  0  0  0  0  0  0999 V2000
   -3.9916   28.8064    6.3894 C   0  0  0  0  0  0  0  0  0  0  0  0
   -3.2931   27.8559    6.7250 O   0  0  0  0  0  0  0  0  0  0  0  0
   -4.9456   28.7296    5.3806 N   0  0  0  0  0  0  0  0  0  0  0  0
   -5.4420   29.5924    5.1944 H   0  0  0  0  0  0  0  0  0  0  0  0
   -5.3056   27.6142    4.5973 C   0  0  0  0  0  0  0  0  0  0  0  0
   -5.2493   27.5830    3.2008 C   0  0  0  0  0  0  0  0  0  0  0  0
   -5.6083   26.4262    2.4998 C   0  0  0  0  0  0  0  0  0  0  0  0
   -6.0291   25.2950    3.1894 C   0  0  0  0  0  0  0  0  0  0  0  0
   -6.3916   24.2150    2.4841 F   0  0  0  0  0  0  0  0  0  0  0  0
   -6.1034   25.3118    4.5784 C   0  0  0  0  0  0  0  0  0  0  0  0
   -5.7359   26.4691    5.2832 C   0  0  0  0  0  0  0  0  0  0  0  0
   -6.5410   24.1023    5.3037 C   0  0  0  0  0  0  0  0  0  0  0  0
   -7.8296   24.1050    5.7678 N   0  0  0  0  0  0  0  0  0  0  0  0
   -5.8054   23.1442    5.4863 O   0  0  0  0  0  0  0  0  0  0  0  0
   -8.1561   23.2192    6.1362 H   0  0  0  0  0  0  0  0  0  0  0  0
   -8.5271   24.7282    5.3854 H   0  0  0  0  0  0  0  0  0  0  0  0
   -4.9032   33.6638    8.2933 C   0  0  0  0  0  0  0  0  0  0  0  0
   -4.2982   32.3699    7.8765 C   0  0  0  0  0  0  0  0  0  0  0  0
   -3.0240   32.0804    7.9841 N   0  0  0  0  0  0  0  0  0  0  0  0
   -2.7771   30.7915    7.5224 C   0  0  0  0  0  0  0  0  0  0  0  0
   -3.8856   30.1205    7.0203 C   0  0  0  0  0  0  0  0  0  0  0  0
   -5.2736   31.1362    7.2041 S   0  0  0  0  0  0  0  0  0  0  0  0
   -1.4161   30.2757    7.5887 C   0  0  0  0  0  0  0  0  0  0  0  0
   -0.6886   29.9685    6.4321 C   0  0  0  0  0  0  0  0  0  0  0  0
    0.6038   29.4456    6.5285 C   0  0  0  0  0  0  0  0  0  0  0  0
    1.1724   29.2123    7.7796 C   0  0  0  0  0  0  0  0  0  0  0  0
    0.4491   29.4956    8.9367 C   0  0  0  0  0  0  0  0  0  0  0  0
   -0.8419   30.0197    8.8414 C   0  0  0  0  0  0  0  0  0  0  0  0
 17 18  1  0  0  0
 18 19  2  0  0  0
 19 20  1  0  0  0
 20 23  1  0  0  0
 23 24  2  0  0  0
 24 25  1  0  0  0
 25 26  2  0  0  0
 26 27  1  0  0  0
 27 28  2  0  0  0
 20 21  2  0  0  0
 21  1  1  0  0  0
  1  2  2  0  0  0
  1  3  1  0  0  0
  3  5  1  0  0  0
  5  6  1  0  0  0
  6  7  2  0  0  0
  7  8  1  0  0  0
  8  9  1  0  0  0
  8 10  2  0  0  0
 10 12  1  0  0  0
 12 13  1  0  0  0
 12 14  2  0  0  0
 10 11  1  0  0  0
 21 22  1  0  0  0
 22 18  1  0  0  0
 28 23  1  0  0  0
 11  5  2  0  0  0
  3  4  1  0  0  0
 13 15  1  0  0  0
 13 16  1  0  0  0
M  END
> <minimizedAffinity>
-9.72613

$$$$
OCNT-2315739


 24 26  0  0  0  0  0  0  0  0999 V2000
   -4.2179   28.3226    7.1873 N   0  0  0  0  0  0  0  0  0  0  0  0
   -4.4949   28.6116    8.1237 H   0  0  0  0  0  0  0  0  0  0  0  0
   -5.5970   26.1699    2.7060 C   0  0  0  0  0  0  0  0  0  0  0  0
   -5.1525   25.5066    3.8647 C   0  0  0  0  0  0  0  0  0  0  0  0
   -5.0419   26.1883    5.0816 C   0  0  0  0  0  0  0  0  0  0  0  0
   -5.3603   27.5393    5.1209 C   0  0  0  0  0  0  0  0  0  0  0  0
   -5.8124   28.1934    3.9660 C   0  0  0  0  0  0  0  0  0  0  0  0
   -5.9392   27.5257    2.7570 C   0  0  0  0  0  0  0  0  0  0  0  0
   -6.1620   29.6177    4.2601 C   0  0  0  0  0  0  0  0  0  0  0  0
   -5.4007   29.8404    5.5717 C   0  0  0  0  0  0  0  0  0  0  0  0
   -5.3784   28.4812    6.3069 C   0  0  0  0  0  0  0  0  0  0  0  0
   -5.8013   24.8632    0.4736 N   0  0  0  0  0  0  0  0  0  0  0  0
   -5.7105   25.4496    1.4714 C   0  0  0  0  0  0  0  0  0  0  0  0
   -3.0752   29.1551    6.8011 C   0  0  0  0  0  0  0  0  0  0  0  0
   -2.5897   30.0789    7.8900 C   0  0  0  0  0  0  0  0  0  0  0  0
   -3.5130   30.8781    8.5646 C   0  0  0  0  0  0  0  0  0  0  0  0
   -3.1963   31.7635    9.5359 N   0  0  0  0  0  0  0  0  0  0  0  0
   -1.8961   31.8669    9.8655 C   0  0  0  0  0  0  0  0  0  0  0  0
   -0.8950   31.1254    9.2641 C   0  0  0  0  0  0  0  0  0  0  0  0
   -1.2348   30.2121    8.2536 C   0  0  0  0  0  0  0  0  0  0  0  0
   -0.1499   29.4006    7.5931 C   0  0  0  0  0  0  0  0  0  0  0  0
    1.0634   29.5680    8.1896 F   0  0  0  0  0  0  0  0  0  0  0  0
   -0.4046   28.0635    7.6290 F   0  0  0  0  0  0  0  0  0  0  0  0
    0.0402   29.7061    6.2793 F   0  0  0  0  0  0  0  0  0  0  0  0
 12 13  3  0  0  0
 13  3  1  0  0  0
  3  4  1  0  0  0
  4  5  2  0  0  0
  5  6  1  0  0  0
  6  7  2  0  0  0
  7  8  1  0  0  0
  7  9  1  0  0  0
  9 10  1  0  0  0
 10 11  1  0  0  0
 11  1  1  0  0  0
  1 14  1  0  0  0
 14 15  1  0  0  0
 15 16  2  0  0  0
 16 17  1  0  0  0
 17 18  2  0  0  0
 18 19  1  0  0  0
 19 20  2  0  0  0
 20 21  1  0  0  0
 21 22  1  0  0  0
 21 23  1  0  0  0
 21 24  1  0  0  0
  8  3  2  0  0  0
 20 15  1  0  0  0
 11  6  1  0  0  0
  1  2  1  0  0  0
M  END
> <minimizedAffinity>
-9.10663

$$$$
OCNT-2315757


 24 27  0  0  0  0  0  0  0  0999 V2000
   -5.7658   24.7839    3.1119 C   0  0  0  0  0  0  0  0  0  0  0  0
   -7.4512   23.5838   -0.6936 C   0  0  0  0  0  0  0  0  0  0  0  0
   -7.5222   22.7201    0.3969 C   0  0  0  0  0  0  0  0  0  0  0  0
   -6.9761   23.0980    1.6242 C   0  0  0  0  0  0  0  0  0  0  0  0
   -6.3439   24.3436    1.7742 C   0  0  0  0  0  0  0  0  0  0  0  0
   -6.2875   25.2067    0.6679 C   0  0  0  0  0  0  0  0  0  0  0  0
   -6.8353   24.8262   -0.5586 C   0  0  0  0  0  0  0  0  0  0  0  0
   -4.7009   25.8073    2.9614 N   0  0  0  0  0  0  0  0  0  0  0  0
   -3.8283   25.4141    3.3186 H   0  0  0  0  0  0  0  0  0  0  0  0
   -4.9534   27.0561    3.7179 C   0  0  0  0  0  0  0  0  0  0  0  0
   -5.8976   27.9529    2.8518 C   0  0  0  0  0  0  0  0  0  0  0  0
   -6.1388   29.3500    3.4699 C   0  0  0  0  0  0  0  0  0  0  0  0
   -6.3977   29.2375    4.9198 C   0  0  0  0  0  0  0  0  0  0  0  0
   -6.1095   28.1052    5.6333 C   0  0  0  0  0  0  0  0  0  0  0  0
   -5.5526   26.8289    5.1402 C   0  0  0  0  0  0  0  0  0  0  0  0
   -6.4296   28.2684    6.9355 O   0  0  0  0  0  0  0  0  0  0  0  0
   -6.9424   29.5533    7.1038 N   0  0  0  0  0  0  0  0  0  0  0  0
   -6.9155   30.1125    5.8869 C   0  0  0  0  0  0  0  0  0  0  0  0
   -5.2470   23.5128    3.8369 C   0  0  0  0  0  0  0  0  0  0  0  0
   -6.0650   23.1278    4.9706 N   0  0  0  0  0  0  0  0  0  0  0  0
   -5.7362   22.2185    5.9362 C   0  0  0  0  0  0  0  0  0  0  0  0
   -6.8298   22.1788    6.7695 C   0  0  0  0  0  0  0  0  0  0  0  0
   -7.8013   23.0443    6.3376 N   0  0  0  0  0  0  0  0  0  0  0  0
   -7.3042   23.6185    5.2658 C   0  0  0  0  0  0  0  0  0  0  0  0
  2  3  2  0  0  0
  3  4  1  0  0  0
  4  5  2  0  0  0
  5  1  1  0  0  0
  1 19  1  0  0  0
 19 20  1  0  0  0
 20 21  1  0  0  0
 21 22  2  0  0  0
 22 23  1  0  0  0
 23 24  2  0  0  0
  1  8  1  0  0  0
  8 10  1  0  0  0
 10 11  1  0  0  0
 11 12  1  0  0  0
 12 13  1  0  0  0
 13 14  2  0  0  0
 14 15  1  0  0  0
 14 16  1  0  0  0
 16 17  1  0  0  0
 17 18  2  0  0  0
  5  6  1  0  0  0
  6  7  2  0  0  0
  7  2  1  0  0  0
 24 20  1  0  0  0
 15 10  1  0  0  0
 18 13  1  0  0  0
  8  9  1  0  0  0
M  END
> <minimizedAffinity>
-8.39054

$$$$
OCNT-2315764


 22 24  0  0  0  0  0  0  0  0999 V2000
   -7.1002   29.4251    5.7286 O   0  0  0  0  0  0  0  0  0  0  0  0
   -6.1056   29.2849    4.6885 S   0  0  0  0  0  0  0  0  0  0  0  0
   -6.1641   30.0613    3.4708 O   0  0  0  0  0  0  0  0  0  0  0  0
   -6.0081   27.5827    4.2753 C   0  0  0  0  0  0  0  0  0  0  0  0
   -6.1395   26.6267    5.2603 C   0  0  0  0  0  0  0  0  0  0  0  0
   -6.0692   25.2956    5.0153 N   0  0  0  0  0  0  0  0  0  0  0  0
   -5.8374   24.8939    3.7507 C   0  0  0  0  0  0  0  0  0  0  0  0
   -5.7516   23.5373    3.4693 C   0  0  0  0  0  0  0  0  0  0  0  0
   -5.5056   23.0690    2.1751 C   0  0  0  0  0  0  0  0  0  0  0  0
   -5.3406   23.9722    1.1309 C   0  0  0  0  0  0  0  0  0  0  0  0
   -5.4229   25.3401    1.3829 C   0  0  0  0  0  0  0  0  0  0  0  0
   -5.6711   25.8081    2.6850 C   0  0  0  0  0  0  0  0  0  0  0  0
   -5.7586   27.1771    2.9684 C   0  0  0  0  0  0  0  0  0  0  0  0
   -4.6282   29.5624    5.4169 N   0  0  0  0  0  0  0  0  0  0  0  0
   -3.8536   29.0019    5.0642 H   0  0  0  0  0  0  0  0  0  0  0  0
   -4.5594   30.1181    6.7730 C   0  0  0  0  0  0  0  0  0  0  0  0
   -3.8866   29.1269    7.7398 C   0  0  0  0  0  0  0  0  0  0  0  0
   -2.9557   29.7830    8.6657 N   0  0  0  0  0  0  0  0  0  0  0  0
   -1.8027   30.3903    7.9927 C   0  0  0  0  0  0  0  0  0  0  0  0
   -1.2474   31.3509    9.0365 C   0  0  0  0  0  0  0  0  0  0  0  0
   -2.4081   31.6283    9.9853 C   0  0  0  0  0  0  0  0  0  0  0  0
   -3.5927   30.8939    9.3793 C   0  0  0  0  0  0  0  0  0  0  0  0
  1  2  2  0  0  0
  2  3  2  0  0  0
  2 14  1  0  0  0
 14 16  1  0  0  0
 16 17  1  0  0  0
 17 18  1  0  0  0
 18 19  1  0  0  0
 19 20  1  0  0  0
 20 21  1  0  0  0
 21 22  1  0  0  0
  2  4  1  0  0  0
  4  5  1  0  0  0
  5  6  2  0  0  0
  6  7  1  0  0  0
  7  8  2  0  0  0
  8  9  1  0  0  0
  9 10  2  0  0  0
 10 11  1  0  0  0
 11 12  2  0  0  0
 12 13  1  0  0  0
 22 18  1  0  0  0
 13  4  2  0  0  0
 12  7  1  0  0  0
 14 15  1  0  0  0
M  END
> <minimizedAffinity>
-8.19532

$$$$
OCNT-2315770


 34 37  0  0  0  0  0  0  0  0999 V2000
   -3.3248   25.1884    6.1723 C   0  0  0  0  0  0  0  0  0  0  0  0
   -2.9513   26.5064    5.4865 C   0  0  0  0  0  0  0  0  0  0  0  0
   -4.1148   27.3392    4.9719 C   0  0  0  0  0  0  0  0  0  0  0  0
   -4.6001   28.4355    5.7100 C   0  0  0  0  0  0  0  0  0  0  0  0
   -5.6648   29.2092    5.2451 C   0  0  0  0  0  0  0  0  0  0  0  0
   -6.2591   28.9105    4.0264 C   0  0  0  0  0  0  0  0  0  0  0  0
   -5.7806   27.8472    3.2650 C   0  0  0  0  0  0  0  0  0  0  0  0
   -4.7152   27.0603    3.7227 C   0  0  0  0  0  0  0  0  0  0  0  0
   -4.2137   26.0057    2.8852 N   0  0  0  0  0  0  0  0  0  0  0  0
   -3.2114   25.8200    2.9338 H   0  0  0  0  0  0  0  0  0  0  0  0
   -5.0471   24.5286    2.8726 S   0  0  0  0  0  0  0  0  0  0  0  0
   -4.0494   23.5069    2.6589 O   0  0  0  0  0  0  0  0  0  0  0  0
   -5.9757   24.4834    3.9777 O   0  0  0  0  0  0  0  0  0  0  0  0
   -6.0142   24.5075    1.3770 C   0  0  0  0  0  0  0  0  0  0  0  0
   -6.0767   25.3796    0.3043 C   0  0  0  0  0  0  0  0  0  0  0  0
   -6.9804   24.9349   -0.7033 C   0  0  0  0  0  0  0  0  0  0  0  0
   -7.5719   23.7368   -0.3682 C   0  0  0  0  0  0  0  0  0  0  0  0
   -7.0408   23.1579    1.1527 S   0  0  0  0  0  0  0  0  0  0  0  0
   -2.1589   27.3246    6.3922 N   0  0  0  0  0  0  0  0  0  0  0  0
   -0.7960   27.4574    6.2606 C   0  0  0  0  0  0  0  0  0  0  0  0
   -0.1757   27.0327    5.2937 O   0  0  0  0  0  0  0  0  0  0  0  0
   -2.6049   27.6424    7.2447 H   0  0  0  0  0  0  0  0  0  0  0  0
   -0.1622   28.2147    7.4076 C   0  0  0  0  0  0  0  0  0  0  0  0
    0.0516   29.6850    7.0600 C   0  0  0  0  0  0  0  0  0  0  0  0
   -0.9759   30.5623    7.7350 C   0  0  0  0  0  0  0  0  0  0  0  0
   -0.8088   30.9570    9.0659 C   0  0  0  0  0  0  0  0  0  0  0  0
   -1.7376   31.7879    9.7038 C   0  0  0  0  0  0  0  0  0  0  0  0
   -2.8413   32.2184    8.9611 C   0  0  0  0  0  0  0  0  0  0  0  0
   -3.8982   33.0245    9.3223 N   0  0  0  0  0  0  0  0  0  0  0  0
   -4.7579   33.1796    8.2648 C   0  0  0  0  0  0  0  0  0  0  0  0
   -4.2542   32.4624    7.2011 C   0  0  0  0  0  0  0  0  0  0  0  0
   -3.0432   31.8476    7.6326 C   0  0  0  0  0  0  0  0  0  0  0  0
   -2.0975   31.0077    7.0130 C   0  0  0  0  0  0  0  0  0  0  0  0
   -4.0173   33.4380   10.2356 H   0  0  0  0  0  0  0  0  0  0  0  0
  1  2  1  0  0  0
  2 19  1  0  0  0
 19 20  1  0  0  0
 20 21  2  0  0  0
 20 23  1  0  0  0
 23 24  1  0  0  0
 24 25  1  0  0  0
 25 26  2  0  0  0
 26 27  1  0  0  0
 27 28  2  0  0  0
 28 29  1  0  0  0
 29 30  1  0  0  0
 30 31  2  0  0  0
 31 32  1  0  0  0
 32 33  2  0  0  0
  2  3  1  0  0  0
  3  4  2  0  0  0
  4  5  1  0  0  0
  5  6  2  0  0  0
  6  7  1  0  0  0
  7  8  2  0  0  0
  8  9  1  0  0  0
  9 11  1  0  0  0
 11 12  2  0  0  0
 11 13  2  0  0  0
 11 14  1  0  0  0
 14 15  2  0  0  0
 15 16  1  0  0  0
 16 17  2  0  0  0
 17 18  1  0  0  0
 33 25  1  0  0  0
  8  3  1  0  0  0
 18 14  1  0  0  0
 32 28  1  0  0  0
 19 22  1  0  0  0
 29 34  1  0  0  0
  9 10  1  0  0  0
M  END
> <minimizedAffinity>
-9.84789

$$$$
OCNT-2315775


 23 25  0  0  0  0  0  0  0  0999 V2000
   -1.6018   27.6618    7.9279 N   0  0  0  0  0  0  0  0  0  0  0  0
   -2.5120   28.0634    7.7021 H   0  0  0  0  0  0  0  0  0  0  0  0
   -0.7195   28.6979    8.4840 C   0  0  0  0  0  0  0  0  0  0  0  0
   -1.5542   29.9303    8.8133 C   0  0  0  0  0  0  0  0  0  0  0  0
   -2.9550   29.8681    8.7383 C   0  0  0  0  0  0  0  0  0  0  0  0
   -3.7359   30.9872    9.0345 C   0  0  0  0  0  0  0  0  0  0  0  0
   -3.1280   32.1856    9.4011 C   0  0  0  0  0  0  0  0  0  0  0  0
   -1.7391   32.2690    9.4649 C   0  0  0  0  0  0  0  0  0  0  0  0
   -0.9560   31.1514    9.1690 C   0  0  0  0  0  0  0  0  0  0  0  0
    1.7328   28.9634    8.3248 O   0  0  0  0  0  0  0  0  0  0  0  0
    0.5035   29.0787    7.6030 C   0  0  0  0  0  0  0  0  0  0  0  0
    1.7168   29.6343    9.0290 H   0  0  0  0  0  0  0  0  0  0  0  0
   -1.0866   27.0462    6.7060 C   0  0  0  0  0  0  0  0  0  0  0  0
   -2.2379   26.8979    5.7626 C   0  0  0  0  0  0  0  0  0  0  0  0
   -3.4762   27.5082    5.8017 C   0  0  0  0  0  0  0  0  0  0  0  0
   -4.1458   27.0620    4.6939 N   0  0  0  0  0  0  0  0  0  0  0  0
   -5.4289   27.3676    4.2497 C   0  0  0  0  0  0  0  0  0  0  0  0
   -5.8819   26.7996    3.1181 C   0  0  0  0  0  0  0  0  0  0  0  0
   -5.0154   25.8780    2.3869 C   0  0  0  0  0  0  0  0  0  0  0  0
   -5.6993   25.1195    0.8234 Br  0  0  0  0  0  0  0  0  0  0  0  0
   -3.7734   25.5923    2.8296 C   0  0  0  0  0  0  0  0  0  0  0  0
   -3.2904   26.1926    4.0270 C   0  0  0  0  0  0  0  0  0  0  0  0
   -2.1375   26.0808    4.6519 N   0  0  0  0  0  0  0  0  0  0  0  0
 10 11  1  0  0  0
 11  3  1  0  0  0
  3  1  1  0  0  0
  1 13  1  0  0  0
 13 14  1  0  0  0
 14 15  2  0  0  0
 15 16  1  0  0  0
 16 17  1  0  0  0
 17 18  2  0  0  0
 18 19  1  0  0  0
 19 20  1  0  0  0
 19 21  2  0  0  0
 21 22  1  0  0  0
 22 23  2  0  0  0
  3  4  1  0  0  0
  4  5  2  0  0  0
  5  6  1  0  0  0
  6  7  2  0  0  0
  7  8  1  0  0  0
  8  9  2  0  0  0
 23 14  1  0  0  0
  9  4  1  0  0  0
 22 16  1  0  0  0
 10 12  1  0  0  0
  1  2  1  0  0  0
M  END
> <minimizedAffinity>
-8.67746

$$$$
OCNT-2315776


 21 23  0  0  0  0  0  0  0  0999 V2000
   -5.8837   27.4865    3.8133 C   0  0  0  0  0  0  0  0  0  0  0  0
   -4.5754   27.3174    4.5454 C   0  0  0  0  0  0  0  0  0  0  0  0
   -3.5737   26.5306    4.0952 C   0  0  0  0  0  0  0  0  0  0  0  0
   -2.3086   26.4719    4.8946 C   0  0  0  0  0  0  0  0  0  0  0  0
   -1.3597   25.7843    4.5222 O   0  0  0  0  0  0  0  0  0  0  0  0
   -2.3093   27.2354    6.0336 N   0  0  0  0  0  0  0  0  0  0  0  0
   -1.2573   27.3323    6.9191 C   0  0  0  0  0  0  0  0  0  0  0  0
   -1.4940   28.1453    7.9551 C   0  0  0  0  0  0  0  0  0  0  0  0
   -3.0873   28.8456    7.8651 S   0  0  0  0  0  0  0  0  0  0  0  0
   -3.4074   27.9869    6.3665 C   0  0  0  0  0  0  0  0  0  0  0  0
   -4.5052   28.0663    5.7008 N   0  0  0  0  0  0  0  0  0  0  0  0
   -3.6045   25.6570    2.8635 C   0  0  0  0  0  0  0  0  0  0  0  0
   -4.3128   24.3153    3.1371 C   0  0  0  0  0  0  0  0  0  0  0  0
   -4.4385   23.4662    1.9343 N   0  0  0  0  0  0  0  0  0  0  0  0
   -4.8591   24.2446    0.7426 C   0  0  0  0  0  0  0  0  0  0  0  0
   -6.3373   24.7079    0.7562 C   0  0  0  0  0  0  0  0  0  0  0  0
   -7.3223   23.6328    0.9874 N   0  0  0  0  0  0  0  0  0  0  0  0
   -7.5248   22.8268   -0.2156 C   0  0  0  0  0  0  0  0  0  0  0  0
   -6.8983   22.8003    2.1319 C   0  0  0  0  0  0  0  0  0  0  0  0
   -5.4078   22.3448    2.1017 C   0  0  0  0  0  0  0  0  0  0  0  0
   -5.1032   21.4401    3.3019 C   0  0  0  0  0  0  0  0  0  0  0  0
  1  2  1  0  0  0
  2  3  2  0  0  0
  3 12  1  0  0  0
 12 13  1  0  0  0
 13 14  1  0  0  0
 14 15  1  0  0  0
 15 16  1  0  0  0
 16 17  1  0  0  0
 17 18  1  0  0  0
 17 19  1  0  0  0
 19 20  1  0  0  0
 20 21  1  0  0  0
  3  4  1  0  0  0
  4  5  2  0  0  0
  4  6  1  0  0  0
  6  7  1  0  0  0
  7  8  2  0  0  0
  8  9  1  0  0  0
  9 10  1  0  0  0
 10 11  2  0  0  0
 11  2  1  0  0  0
 20 14  1  0  0  0
 10  6  1  0  0  0
M  END
> <minimizedAffinity>
-7.69862

$$$$
OCNT-2315778


 26 28  0  0  0  0  0  0  0  0999 V2000
   -2.4861   28.0740    6.1712 N   0  0  0  0  0  0  0  0  0  0  0  0
   -3.8566   27.9939    6.2370 C   0  0  0  0  0  0  0  0  0  0  0  0
   -4.5157   28.6494    7.0381 O   0  0  0  0  0  0  0  0  0  0  0  0
   -4.4240   27.1134    5.3217 N   0  0  0  0  0  0  0  0  0  0  0  0
   -5.8802   27.0091    5.3350 C   0  0  0  0  0  0  0  0  0  0  0  0
   -6.3445   25.6328    4.8682 C   0  0  0  0  0  0  0  0  0  0  0  0
   -5.7133   25.2502    3.5553 C   0  0  0  0  0  0  0  0  0  0  0  0
   -6.3225   24.2874    2.7373 C   0  0  0  0  0  0  0  0  0  0  0  0
   -5.7255   23.9130    1.5352 C   0  0  0  0  0  0  0  0  0  0  0  0
   -6.4837   22.7371    0.5336 Cl  0  0  0  0  0  0  0  0  0  0  0  0
   -4.5188   24.4830    1.1398 C   0  0  0  0  0  0  0  0  0  0  0  0
   -3.9001   25.4316    1.9562 C   0  0  0  0  0  0  0  0  0  0  0  0
   -4.4843   25.8175    3.1739 C   0  0  0  0  0  0  0  0  0  0  0  0
   -3.7854   26.8504    4.0312 C   0  0  0  0  0  0  0  0  0  0  0  0
   -2.0446   27.1911    5.9638 H   0  0  0  0  0  0  0  0  0  0  0  0
   -0.3090   28.4174    7.2578 C   0  0  0  0  0  0  0  0  0  0  0  0
   -1.7401   28.9374    7.0918 C   0  0  0  0  0  0  0  0  0  0  0  0
   -1.7715   30.3873    6.5693 C   0  0  0  0  0  0  0  0  0  0  0  0
   -2.5268   31.3501    7.4538 C   0  0  0  0  0  0  0  0  0  0  0  0
   -3.6618   32.0182    6.9733 C   0  0  0  0  0  0  0  0  0  0  0  0
   -4.3547   32.9113    7.7920 C   0  0  0  0  0  0  0  0  0  0  0  0
   -3.9171   33.1381    9.0906 C   0  0  0  0  0  0  0  0  0  0  0  0
   -4.6232   34.0195    9.8544 O   0  0  0  0  0  0  0  0  0  0  0  0
   -2.7954   32.4840    9.5883 C   0  0  0  0  0  0  0  0  0  0  0  0
   -2.1023   31.5896    8.7695 C   0  0  0  0  0  0  0  0  0  0  0  0
   -4.1962   34.0840   10.7242 H   0  0  0  0  0  0  0  0  0  0  0  0
 16 17  1  0  0  0
 17 18  1  0  0  0
 18 19  1  0  0  0
 19 20  1  0  0  0
 20 21  2  0  0  0
 21 22  1  0  0  0
 22 23  1  0  0  0
 22 24  2  0  0  0
 24 25  1  0  0  0
 17  1  1  0  0  0
  1  2  1  0  0  0
  2  3  2  0  0  0
  2  4  1  0  0  0
  4  5  1  0  0  0
  5  6  1  0  0  0
  6  7  1  0  0  0
  7  8  1  0  0  0
  8  9  2  0  0  0
  9 10  1  0  0  0
  9 11  1  0  0  0
 11 12  2  0  0  0
 12 13  1  0  0  0
 13 14  1  0  0  0
 25 19  2  0  0  0
 14  4  1  0  0  0
 13  7  2  0  0  0
 23 26  1  0  0  0
  1 15  1  0  0  0
M  END
> <minimizedAffinity>
-9.38399

$$$$
OCNT-2315779


 29 32  0  0  0  0  0  0  0  0999 V2000
   -6.0078   27.5218    6.0530 N   0  0  0  0  0  0  0  0  0  0  0  0
   -5.6119   27.2925    6.9692 H   0  0  0  0  0  0  0  0  0  0  0  0
   -5.9515   26.6017    5.0736 C   0  0  0  0  0  0  0  0  0  0  0  0
   -6.0270   25.2954    5.1576 N   0  0  0  0  0  0  0  0  0  0  0  0
   -5.9091   24.8350    3.8703 C   0  0  0  0  0  0  0  0  0  0  0  0
   -5.9230   23.5183    3.3924 C   0  0  0  0  0  0  0  0  0  0  0  0
   -5.7786   23.3246    2.0091 C   0  0  0  0  0  0  0  0  0  0  0  0
   -5.6239   24.4059    1.1251 C   0  0  0  0  0  0  0  0  0  0  0  0
   -5.6105   25.7229    1.5991 C   0  0  0  0  0  0  0  0  0  0  0  0
   -5.7573   25.8900    2.9770 C   0  0  0  0  0  0  0  0  0  0  0  0
   -5.7873   27.0047    3.7758 N   0  0  0  0  0  0  0  0  0  0  0  0
   -5.6816   27.9620    3.4806 H   0  0  0  0  0  0  0  0  0  0  0  0
   -5.7880   21.9564    1.4771 N   0  0  0  0  0  0  0  0  0  0  0  0
   -5.5456   21.0283    2.2618 O   0  0  0  0  0  0  0  0  0  0  0  0
   -6.0399   21.8087    0.2723 O   0  0  0  0  0  0  0  0  0  0  0  0
   -5.6902   28.8979    5.7011 C   0  0  0  0  0  0  0  0  0  0  0  0
   -4.1340   30.0456    7.3931 C   0  0  0  0  0  0  0  0  0  0  0  0
   -3.9314   30.8160    8.4892 N   0  0  0  0  0  0  0  0  0  0  0  0
   -5.0094   31.2962    9.1442 C   0  0  0  0  0  0  0  0  0  0  0  0
   -6.3120   31.0531    8.7614 C   0  0  0  0  0  0  0  0  0  0  0  0
   -6.5204   30.2653    7.6382 C   0  0  0  0  0  0  0  0  0  0  0  0
   -5.4271   29.7367    6.9324 C   0  0  0  0  0  0  0  0  0  0  0  0
    0.7114   29.3301    8.6187 C   0  0  0  0  0  0  0  0  0  0  0  0
   -0.1874   28.8405    7.5765 N   0  0  0  0  0  0  0  0  0  0  0  0
   -0.5214   29.8977    6.5964 C   0  0  0  0  0  0  0  0  0  0  0  0
   -1.9079   30.5518    6.7925 C   0  0  0  0  0  0  0  0  0  0  0  0
   -2.9999   29.5433    6.6991 N   0  0  0  0  0  0  0  0  0  0  0  0
   -2.5941   28.1993    7.1939 C   0  0  0  0  0  0  0  0  0  0  0  0
   -1.4128   28.2670    8.1843 C   0  0  0  0  0  0  0  0  0  0  0  0
 23 24  1  0  0  0
 24 25  1  0  0  0
 25 26  1  0  0  0
 26 27  1  0  0  0
 27 17  1  0  0  0
 17 18  1  0  0  0
 18 19  2  0  0  0
 19 20  1  0  0  0
 20 21  2  0  0  0
 21 22  1  0  0  0
 22 16  1  0  0  0
 16  1  1  0  0  0
  1  3  1  0  0  0
  3  4  2  0  0  0
  4  5  1  0  0  0
  5  6  2  0  0  0
  6  7  1  0  0  0
  7 13  1  0  0  0
 13 14  2  0  0  0
 13 15  1  0  0  0
  7  8  2  0  0  0
  8  9  1  0  0  0
  9 10  2  0  0  0
 10 11  1  0  0  0
 27 28  1  0  0  0
 28 29  1  0  0  0
 29 24  1  0  0  0
 22 17  2  0  0  0
 11  3  1  0  0  0
 10  5  1  0  0  0
  1  2  1  0  0  0
 11 12  1  0  0  0
M  CHG 1  13   1
M  CHG 1  15  -1
M  END
> <minimizedAffinity>
-9.17680

$$$$
OCNT-2315781


 29 31  0  0  0  0  0  0  0  0999 V2000
   -5.7323   25.9202    3.9514 C   0  0  0  0  0  0  0  0  0  0  0  0
   -4.2279   25.6112    3.9184 C   0  0  0  0  0  0  0  0  0  0  0  0
   -3.3657   26.7221    4.5222 C   0  0  0  0  0  0  0  0  0  0  0  0
   -4.0849   27.4597    5.6445 C   0  0  0  0  0  0  0  0  0  0  0  0
   -5.3286   28.0843    5.1813 N   0  0  0  0  0  0  0  0  0  0  0  0
   -5.8855   29.2843    5.6286 C   0  0  0  0  0  0  0  0  0  0  0  0
   -6.8639   29.7539    5.0358 O   0  0  0  0  0  0  0  0  0  0  0  0
   -5.9911   27.4374    4.0281 C   0  0  0  0  0  0  0  0  0  0  0  0
   -5.2950   30.0427    6.8504 C   0  0  0  0  0  0  0  0  0  0  0  0
   -4.9484   29.0228    7.9763 C   0  0  0  0  0  0  0  0  0  0  0  0
   -6.1666   29.0208    8.8765 C   0  0  0  0  0  0  0  0  0  0  0  0
   -6.5103   30.4384    8.9038 N   0  0  0  0  0  0  0  0  0  0  0  0
   -6.4158   30.8763    7.5070 C   0  0  0  0  0  0  0  0  0  0  0  0
   -7.4519   30.5737    9.2680 H   0  0  0  0  0  0  0  0  0  0  0  0
   -3.9954   30.7701    6.4108 C   0  0  0  0  0  0  0  0  0  0  0  0
   -2.8701   30.9080    7.4136 C   0  0  0  0  0  0  0  0  0  0  0  0
   -2.9411   31.8672    8.4358 C   0  0  0  0  0  0  0  0  0  0  0  0
   -1.9015   32.0082    9.3580 C   0  0  0  0  0  0  0  0  0  0  0  0
   -0.7713   31.1984    9.2653 C   0  0  0  0  0  0  0  0  0  0  0  0
   -0.6848   30.2548    8.2451 C   0  0  0  0  0  0  0  0  0  0  0  0
    0.8536   29.1634    8.1069 Br  0  0  0  0  0  0  0  0  0  0  0  0
   -1.7203   30.1106    7.3204 C   0  0  0  0  0  0  0  0  0  0  0  0
   -6.9989   24.0136    4.8835 C   0  0  0  0  0  0  0  0  0  0  0  0
   -6.8989   23.3666    3.8450 O   0  0  0  0  0  0  0  0  0  0  0  0
   -6.3747   25.2291    5.0727 N   0  0  0  0  0  0  0  0  0  0  0  0
   -6.6886   25.7898    5.8511 H   0  0  0  0  0  0  0  0  0  0  0  0
   -7.2348   22.2713    6.6783 C   0  0  0  0  0  0  0  0  0  0  0  0
   -7.8424   23.5254    6.0552 C   0  0  0  0  0  0  0  0  0  0  0  0
   -9.2937   23.2993    5.6440 C   0  0  0  0  0  0  0  0  0  0  0  0
 27 28  1  0  0  0
 28 29  1  0  0  0
 28 23  1  0  0  0
 23 24  2  0  0  0
 23 25  1  0  0  0
 25  1  1  0  0  0
  1  2  1  0  0  0
  2  3  1  0  0  0
  3  4  1  0  0  0
  4  5  1  0  0  0
  5  6  1  0  0  0
  6  7  2  0  0  0
  6  9  1  0  0  0
  9 15  1  0  0  0
 15 16  1  0  0  0
 16 17  2  0  0  0
 17 18  1  0  0  0
 18 19  2  0  0  0
 19 20  1  0  0  0
 20 21  1  0  0  0
 20 22  2  0  0  0
  9 10  1  0  0  0
 10 11  1  0  0  0
 11 12  1  0  0  0
 12 13  1  0  0  0
  5  8  1  0  0  0
  8  1  1  0  0  0
 13  9  1  0  0  0
 22 16  1  0  0  0
 25 26  1  0  0  0
 12 14  1  0  0  0
M  END
> <minimizedAffinity>
-9.08473

$$$$
OCNT-2315799


 26 29  0  0  0  0  0  0  0  0999 V2000
   -4.5588   26.1714    5.6141 N   0  0  0  0  0  0  0  0  0  0  0  0
   -5.5726   26.1229    4.6819 C   0  0  0  0  0  0  0  0  0  0  0  0
   -5.6543   26.8971    3.7363 O   0  0  0  0  0  0  0  0  0  0  0  0
   -4.4330   25.3735    6.2266 H   0  0  0  0  0  0  0  0  0  0  0  0
   -3.1290   27.7860    6.8447 C   0  0  0  0  0  0  0  0  0  0  0  0
   -2.0439   27.1618    7.5457 O   0  0  0  0  0  0  0  0  0  0  0  0
   -0.7956   27.1279    6.8514 C   0  0  0  0  0  0  0  0  0  0  0  0
   -0.9159   27.0038    5.3357 C   0  0  0  0  0  0  0  0  0  0  0  0
   -2.2143   26.3243    4.9463 C   0  0  0  0  0  0  0  0  0  0  0  0
   -3.4230   27.0992    5.4881 C   0  0  0  0  0  0  0  0  0  0  0  0
   -5.3495   29.8383    6.3168 C   0  0  0  0  0  0  0  0  0  0  0  0
   -3.9545   30.1634    6.4952 N   0  0  0  0  0  0  0  0  0  0  0  0
   -3.4295   31.4243    6.4368 C   0  0  0  0  0  0  0  0  0  0  0  0
   -2.0799   31.2590    6.6163 C   0  0  0  0  0  0  0  0  0  0  0  0
   -1.7740   29.9342    6.7717 N   0  0  0  0  0  0  0  0  0  0  0  0
   -2.9207   29.2772    6.7249 C   0  0  0  0  0  0  0  0  0  0  0  0
   -6.5555   24.9933    4.9352 C   0  0  0  0  0  0  0  0  0  0  0  0
   -6.1465   23.6639    4.2904 C   0  0  0  0  0  0  0  0  0  0  0  0
   -6.9111   23.3062    2.9986 C   0  0  0  0  0  0  0  0  0  0  0  0
   -6.8663   21.8481    2.4588 C   0  0  0  0  0  0  0  0  0  0  0  0
   -5.9057   22.3177    1.3555 C   0  0  0  0  0  0  0  0  0  0  0  0
   -6.3988   23.7549    1.5976 C   0  0  0  0  0  0  0  0  0  0  0  0
   -6.5081   22.5021    5.2282 C   0  0  0  0  0  0  0  0  0  0  0  0
   -5.6774   22.3253    6.5372 C   0  0  0  0  0  0  0  0  0  0  0  0
   -6.9884   21.9198    7.2352 C   0  0  0  0  0  0  0  0  0  0  0  0
   -7.7278   22.7479    6.1682 C   0  0  0  0  0  0  0  0  0  0  0  0
 11 12  1  0  0  0
 12 13  1  0  0  0
 13 14  2  0  0  0
 14 15  1  0  0  0
 15 16  2  0  0  0
 16  5  1  0  0  0
  5  6  1  0  0  0
  6  7  1  0  0  0
  7  8  1  0  0  0
  8  9  1  0  0  0
  9 10  1  0  0  0
 10  1  1  0  0  0
  1  2  1  0  0  0
  2  3  2  0  0  0
  2 17  1  0  0  0
 17 18  1  0  0  0
 18 19  1  0  0  0
 19 20  1  0  0  0
 20 21  1  0  0  0
 21 22  1  0  0  0
 18 23  1  0  0  0
 23 24  1  0  0  0
 24 25  1  0  0  0
 25 26  1  0  0  0
 16 12  1  0  0  0
 10  5  1  0  0  0
 22 19  1  0  0  0
 26 23  1  0  0  0
  1  4  1  0  0  0
M  END
> <minimizedAffinity>
-8.35683

$$$$
OCNT-2315805


 25 27  0  0  0  0  0  0  0  0999 V2000
   -5.2097   27.8873    4.2724 N   0  0  0  0  0  0  0  0  0  0  0  0
   -6.1615   28.9589    3.9719 C   0  0  0  0  0  0  0  0  0  0  0  0
   -6.5398   29.5276    5.3395 C   0  0  0  0  0  0  0  0  0  0  0  0
   -5.2915   29.2630    6.1770 C   0  0  0  0  0  0  0  0  0  0  0  0
   -4.8538   27.8782    5.6939 C   0  0  0  0  0  0  0  0  0  0  0  0
   -5.3486   25.3811    1.5607 C   0  0  0  0  0  0  0  0  0  0  0  0
   -5.7465   26.3918    2.4369 C   0  0  0  0  0  0  0  0  0  0  0  0
   -4.8500   26.9032    3.3807 C   0  0  0  0  0  0  0  0  0  0  0  0
   -3.5680   26.3448    3.3741 C   0  0  0  0  0  0  0  0  0  0  0  0
   -3.2420   25.3517    2.4598 C   0  0  0  0  0  0  0  0  0  0  0  0
   -4.0988   24.8563    1.5493 N   0  0  0  0  0  0  0  0  0  0  0  0
   -7.0637   22.9512    1.9817 C   0  0  0  0  0  0  0  0  0  0  0  0
   -7.0495   23.7062    0.7388 N   0  0  0  0  0  0  0  0  0  0  0  0
   -7.7950   23.1369   -0.3695 C   0  0  0  0  0  0  0  0  0  0  0  0
   -6.3361   24.8945    0.5363 C   0  0  0  0  0  0  0  0  0  0  0  0
   -6.4921   25.5792   -0.4784 O   0  0  0  0  0  0  0  0  0  0  0  0
   -5.4677   29.3924    7.6883 C   0  0  0  0  0  0  0  0  0  0  0  0
   -4.3560   28.8029    8.4304 N   0  0  0  0  0  0  0  0  0  0  0  0
   -3.8452   28.1139    7.8761 H   0  0  0  0  0  0  0  0  0  0  0  0
   -3.3520   29.7159    8.7642 C   0  0  0  0  0  0  0  0  0  0  0  0
   -3.6132   30.8894    9.4628 C   0  0  0  0  0  0  0  0  0  0  0  0
   -2.5578   31.7451    9.7702 C   0  0  0  0  0  0  0  0  0  0  0  0
   -1.2718   31.4014    9.3782 C   0  0  0  0  0  0  0  0  0  0  0  0
   -1.0997   30.2093    8.6977 C   0  0  0  0  0  0  0  0  0  0  0  0
   -2.1090   29.3652    8.3869 N   0  0  0  0  0  0  0  0  0  0  0  0
 12 13  1  0  0  0
 13 14  1  0  0  0
 13 15  1  0  0  0
 15 16  2  0  0  0
 15  6  1  0  0  0
  6  7  2  0  0  0
  7  8  1  0  0  0
  8  1  1  0  0  0
  1  2  1  0  0  0
  2  3  1  0  0  0
  3  4  1  0  0  0
  4 17  1  0  0  0
 17 18  1  0  0  0
 18 20  1  0  0  0
 20 21  2  0  0  0
 21 22  1  0  0  0
 22 23  2  0  0  0
 23 24  1  0  0  0
 24 25  2  0  0  0
  4  5  1  0  0  0
  8  9  2  0  0  0
  9 10  1  0  0  0
 10 11  2  0  0  0
 11  6  1  0  0  0
  5  1  1  0  0  0
 25 20  1  0  0  0
 18 19  1  0  0  0
M  END
> <minimizedAffinity>
-8.81155

$$$$
OCNT-2315811


 25 28  0  0  0  0  0  0  0  0999 V2000
   -4.2632   25.8088    4.7042 C   0  0  0  0  0  0  0  0  0  0  0  0
   -5.4868   29.3398    5.5533 C   0  0  0  0  0  0  0  0  0  0  0  0
   -6.0707   29.6963    4.3277 C   0  0  0  0  0  0  0  0  0  0  0  0
   -6.0695   28.8188    3.2382 C   0  0  0  0  0  0  0  0  0  0  0  0
   -5.4835   27.5626    3.3519 C   0  0  0  0  0  0  0  0  0  0  0  0
   -4.8901   27.1759    4.5569 C   0  0  0  0  0  0  0  0  0  0  0  0
   -4.9005   28.0704    5.6444 C   0  0  0  0  0  0  0  0  0  0  0  0
   -3.4015   31.3434    6.4816 O   0  0  0  0  0  0  0  0  0  0  0  0
   -4.4915   31.1548    7.0000 C   0  0  0  0  0  0  0  0  0  0  0  0
   -4.9997   31.9880    8.1534 C   0  0  0  0  0  0  0  0  0  0  0  0
   -6.1285   31.1489    8.7154 C   0  0  0  0  0  0  0  0  0  0  0  0
   -6.6600   30.4201    7.4994 C   0  0  0  0  0  0  0  0  0  0  0  0
   -5.5012   30.2405    6.6552 N   0  0  0  0  0  0  0  0  0  0  0  0
   -4.3052   25.0077    3.4770 N   0  0  0  0  0  0  0  0  0  0  0  0
   -4.7474   25.5695    2.7499 H   0  0  0  0  0  0  0  0  0  0  0  0
   -5.0148   23.7232    3.5975 C   0  0  0  0  0  0  0  0  0  0  0  0
   -6.4360   24.0050    4.1175 C   0  0  0  0  0  0  0  0  0  0  0  0
   -7.4014   22.9379    3.6336 C   0  0  0  0  0  0  0  0  0  0  0  0
   -7.5354   22.9435    2.2143 O   0  0  0  0  0  0  0  0  0  0  0  0
   -6.3243   23.1559    1.4697 C   0  0  0  0  0  0  0  0  0  0  0  0
   -6.3799   22.2428    0.2370 C   0  0  0  0  0  0  0  0  0  0  0  0
   -7.3775   22.9173   -0.7014 C   0  0  0  0  0  0  0  0  0  0  0  0
   -7.3618   24.3998   -0.3357 C   0  0  0  0  0  0  0  0  0  0  0  0
   -6.3690   24.5437    0.8177 C   0  0  0  0  0  0  0  0  0  0  0  0
   -5.0640   22.8979    2.2994 C   0  0  0  0  0  0  0  0  0  0  0  0
  8  9  2  0  0  0
  9 10  1  0  0  0
 10 11  1  0  0  0
 11 12  1  0  0  0
 12 13  1  0  0  0
 13  2  1  0  0  0
  2  3  1  0  0  0
  3  4  2  0  0  0
  4  5  1  0  0  0
  5  6  2  0  0  0
  6  1  1  0  0  0
  1 14  1  0  0  0
 14 16  1  0  0  0
 16 17  1  0  0  0
 17 18  1  0  0  0
 18 19  1  0  0  0
 19 20  1  0  0  0
 20 21  1  0  0  0
 21 22  1  0  0  0
 22 23  1  0  0  0
 23 24  1  0  0  0
 20 25  1  0  0  0
  6  7  1  0  0  0
 13  9  1  0  0  0
  7  2  2  0  0  0
 25 16  1  0  0  0
 24 20  1  0  0  0
 14 15  1  0  0  0
M  END
> <minimizedAffinity>
-9.78178

$$$$
OCNT-2315827


 27 29  0  0  0  0  0  0  0  0999 V2000
   -6.0066   25.0995    2.7694 C   0  0  0  0  0  0  0  0  0  0  0  0
   -5.5117   26.3801    2.5713 C   0  0  0  0  0  0  0  0  0  0  0  0
   -5.3837   27.2415    3.6609 C   0  0  0  0  0  0  0  0  0  0  0  0
   -5.7540   26.8124    4.9268 C   0  0  0  0  0  0  0  0  0  0  0  0
   -6.2611   25.5743    5.0840 N   0  0  0  0  0  0  0  0  0  0  0  0
   -6.3833   24.7129    4.0090 N   0  0  0  0  0  0  0  0  0  0  0  0
   -5.5484   22.8665    1.6411 C   0  0  0  0  0  0  0  0  0  0  0  0
   -5.7773   21.9927    0.5670 C   0  0  0  0  0  0  0  0  0  0  0  0
   -6.6686   22.3326   -0.4520 C   0  0  0  0  0  0  0  0  0  0  0  0
   -7.3411   23.5465   -0.4097 C   0  0  0  0  0  0  0  0  0  0  0  0
   -7.1134   24.4258    0.6488 C   0  0  0  0  0  0  0  0  0  0  0  0
   -6.2094   24.1168    1.6883 C   0  0  0  0  0  0  0  0  0  0  0  0
   -4.9506   21.3908    3.4264 C   0  0  0  0  0  0  0  0  0  0  0  0
   -4.7004   22.5766    2.6827 O   0  0  0  0  0  0  0  0  0  0  0  0
   -5.6317   27.7174    6.0012 N   0  0  0  0  0  0  0  0  0  0  0  0
   -6.4273   27.5948    6.6218 H   0  0  0  0  0  0  0  0  0  0  0  0
   -5.4645   29.1093    5.5845 C   0  0  0  0  0  0  0  0  0  0  0  0
   -4.3745   29.7658    6.4351 C   0  0  0  0  0  0  0  0  0  0  0  0
   -4.0641   28.9094    7.6696 C   0  0  0  0  0  0  0  0  0  0  0  0
   -2.6326   28.5530    7.7661 N   0  0  0  0  0  0  0  0  0  0  0  0
   -1.8001   29.7404    8.0345 C   0  0  0  0  0  0  0  0  0  0  0  0
   -0.4134   29.3620    8.5512 C   0  0  0  0  0  0  0  0  0  0  0  0
    0.6155   29.0771    7.4647 C   0  0  0  0  0  0  0  0  0  0  0  0
    0.1081   28.5048    6.2691 O   0  0  0  0  0  0  0  0  0  0  0  0
   -0.7529   27.3831    6.4771 C   0  0  0  0  0  0  0  0  0  0  0  0
   -0.5440   26.4567    5.2811 C   0  0  0  0  0  0  0  0  0  0  0  0
   -2.2213   27.8592    6.5220 C   0  0  0  0  0  0  0  0  0  0  0  0
 13 14  1  0  0  0
 14  7  1  0  0  0
  7  8  2  0  0  0
  8  9  1  0  0  0
  9 10  2  0  0  0
 10 11  1  0  0  0
 11 12  2  0  0  0
 12  1  1  0  0  0
  1  2  2  0  0  0
  2  3  1  0  0  0
  3  4  2  0  0  0
  4 15  1  0  0  0
 15 17  1  0  0  0
 17 18  1  0  0  0
 18 19  1  0  0  0
 19 20  1  0  0  0
 20 21  1  0  0  0
 21 22  1  0  0  0
 22 23  1  0  0  0
 23 24  1  0  0  0
 24 25  1  0  0  0
 25 26  1  0  0  0
 25 27  1  0  0  0
  4  5  1  0  0  0
  5  6  2  0  0  0
 12  7  1  0  0  0
  6  1  1  0  0  0
 27 20  1  0  0  0
 15 16  1  0  0  0
M  END
> <minimizedAffinity>
-8.83774

$$$$
OCNT-2315832


 25 28  0  0  0  0  0  0  0  0999 V2000
   -6.1699   27.8360    4.7871 C   0  0  0  0  0  0  0  0  0  0  0  0
   -5.7803   26.5151    4.7220 C   0  0  0  0  0  0  0  0  0  0  0  0
   -5.5027   26.3145    3.4031 N   0  0  0  0  0  0  0  0  0  0  0  0
   -5.6839   27.4416    2.6926 N   0  0  0  0  0  0  0  0  0  0  0  0
   -6.1095   28.3787    3.5297 N   0  0  0  0  0  0  0  0  0  0  0  0
   -6.6048   28.6491    5.9585 C   0  0  0  0  0  0  0  0  0  0  0  0
   -5.0392   31.3123    8.0409 C   0  0  0  0  0  0  0  0  0  0  0  0
   -4.4639   30.8031    6.7189 C   0  0  0  0  0  0  0  0  0  0  0  0
   -4.3541   29.2769    6.7153 C   0  0  0  0  0  0  0  0  0  0  0  0
   -5.6061   28.5756    7.0434 N   0  0  0  0  0  0  0  0  0  0  0  0
   -6.1532   29.0683    8.3147 C   0  0  0  0  0  0  0  0  0  0  0  0
   -6.3414   30.5817    8.3641 C   0  0  0  0  0  0  0  0  0  0  0  0
   -4.5512   33.4996    8.8669 C   0  0  0  0  0  0  0  0  0  0  0  0
   -5.3417   32.7103    7.9893 O   0  0  0  0  0  0  0  0  0  0  0  0
   -5.0006   25.1062    2.7747 C   0  0  0  0  0  0  0  0  0  0  0  0
   -5.9311   24.6114    1.6968 C   0  0  0  0  0  0  0  0  0  0  0  0
   -6.0202   25.2876    0.4687 C   0  0  0  0  0  0  0  0  0  0  0  0
   -6.8693   24.8250   -0.5394 C   0  0  0  0  0  0  0  0  0  0  0  0
   -7.6421   23.6843   -0.3351 C   0  0  0  0  0  0  0  0  0  0  0  0
   -7.5643   23.0010    0.8762 C   0  0  0  0  0  0  0  0  0  0  0  0
   -6.7043   23.4576    1.8766 C   0  0  0  0  0  0  0  0  0  0  0  0
   -6.6607   22.7966    3.0772 O   0  0  0  0  0  0  0  0  0  0  0  0
   -7.9714   22.3519    3.4930 C   0  0  0  0  0  0  0  0  0  0  0  0
   -8.0717   20.8737    3.7505 C   0  0  0  0  0  0  0  0  0  0  0  0
   -8.0803   21.8362    4.9021 C   0  0  0  0  0  0  0  0  0  0  0  0
 13 14  1  0  0  0
 14  7  1  0  0  0
  7  8  1  0  0  0
  8  9  1  0  0  0
  9 10  1  0  0  0
 10  6  1  0  0  0
  6  1  1  0  0  0
  1  2  2  0  0  0
  2  3  1  0  0  0
  3 15  1  0  0  0
 15 16  1  0  0  0
 16 17  2  0  0  0
 17 18  1  0  0  0
 18 19  2  0  0  0
 19 20  1  0  0  0
 20 21  2  0  0  0
 21 22  1  0  0  0
 22 23  1  0  0  0
 23 24  1  0  0  0
 24 25  1  0  0  0
  3  4  1  0  0  0
  4  5  2  0  0  0
 10 11  1  0  0  0
 11 12  1  0  0  0
 12  7  1  0  0  0
  5  1  1  0  0  0
 21 16  1  0  0  0
 25 23  1  0  0  0
M  END
> <minimizedAffinity>
-8.34244

$$$$
OCNT-2315840


 23 25  0  0  0  0  0  0  0  0999 V2000
   -1.0511   28.3394    7.3347 C   0  0  0  0  0  0  0  0  0  0  0  0
   -1.6322   29.5891    7.8466 N   0  0  0  0  0  0  0  0  0  0  0  0
   -0.8340   30.2178    8.9002 C   0  0  0  0  0  0  0  0  0  0  0  0
   -1.5346   31.4497    9.4926 C   0  0  0  0  0  0  0  0  0  0  0  0
   -2.1210   32.3935    8.4226 C   0  0  0  0  0  0  0  0  0  0  0  0
   -3.6615   32.4102    8.4567 C   0  0  0  0  0  0  0  0  0  0  0  0
   -4.2888   31.0647    8.0704 C   0  0  0  0  0  0  0  0  0  0  0  0
   -3.6815   30.4709    6.7931 C   0  0  0  0  0  0  0  0  0  0  0  0
   -4.1860   31.2058    5.6711 O   0  0  0  0  0  0  0  0  0  0  0  0
   -2.1267   30.5073    6.8017 C   0  0  0  0  0  0  0  0  0  0  0  0
   -1.6616   31.9562    7.0320 C   0  0  0  0  0  0  0  0  0  0  0  0
   -3.9322   30.7152    4.8711 H   0  0  0  0  0  0  0  0  0  0  0  0
   -1.9854   27.1231    7.2804 C   0  0  0  0  0  0  0  0  0  0  0  0
   -1.4510   26.3688    5.0520 O   0  0  0  0  0  0  0  0  0  0  0  0
   -2.3159   26.6552    5.8704 C   0  0  0  0  0  0  0  0  0  0  0  0
   -3.6877   26.5773    5.6759 N   0  0  0  0  0  0  0  0  0  0  0  0
   -4.2741   26.8322    6.4600 H   0  0  0  0  0  0  0  0  0  0  0  0
   -4.3708   26.1854    4.5055 C   0  0  0  0  0  0  0  0  0  0  0  0
   -5.0834   27.1787    3.8196 C   0  0  0  0  0  0  0  0  0  0  0  0
   -5.7865   26.8756    2.6504 C   0  0  0  0  0  0  0  0  0  0  0  0
   -5.7839   25.5750    2.1549 C   0  0  0  0  0  0  0  0  0  0  0  0
   -5.0788   24.5812    2.8289 C   0  0  0  0  0  0  0  0  0  0  0  0
   -4.3748   24.8848    3.9992 C   0  0  0  0  0  0  0  0  0  0  0  0
 14 15  2  0  0  0
 15 13  1  0  0  0
 13  1  1  0  0  0
  1  2  1  0  0  0
  2  3  1  0  0  0
  3  4  1  0  0  0
  4  5  1  0  0  0
  5  6  1  0  0  0
  6  7  1  0  0  0
  7  8  1  0  0  0
  8  9  1  0  0  0
  8 10  1  0  0  0
 10 11  1  0  0  0
 15 16  1  0  0  0
 16 18  1  0  0  0
 18 19  2  0  0  0
 19 20  1  0  0  0
 20 21  2  0  0  0
 21 22  1  0  0  0
 22 23  2  0  0  0
 10  2  1  0  0  0
 23 18  1  0  0  0
 11  5  1  0  0  0
  9 12  1  0  0  0
 16 17  1  0  0  0
M  END
> <minimizedAffinity>
-8.60223

$$$$
OCNT-2315844


 27 30  0  0  0  0  0  0  0  0999 V2000
   -6.1802   29.6675    3.7564 O   0  0  0  0  0  0  0  0  0  0  0  0
   -5.4626   28.8099    4.2681 C   0  0  0  0  0  0  0  0  0  0  0  0
   -4.8216   29.0345    5.4760 N   0  0  0  0  0  0  0  0  0  0  0  0
   -4.1554   28.3385    5.7943 H   0  0  0  0  0  0  0  0  0  0  0  0
   -5.1736   27.5176    3.6747 C   0  0  0  0  0  0  0  0  0  0  0  0
   -4.1761   26.7084    3.9707 N   0  0  0  0  0  0  0  0  0  0  0  0
   -4.3464   25.5805    3.1913 N   0  0  0  0  0  0  0  0  0  0  0  0
   -5.4406   25.7716    2.4816 C   0  0  0  0  0  0  0  0  0  0  0  0
   -6.0230   26.9895    2.7295 O   0  0  0  0  0  0  0  0  0  0  0  0
   -6.0992   24.8952    1.5229 C   0  0  0  0  0  0  0  0  0  0  0  0
   -6.5394   23.6261    1.9329 C   0  0  0  0  0  0  0  0  0  0  0  0
   -7.1854   22.7690    1.0378 C   0  0  0  0  0  0  0  0  0  0  0  0
   -7.4017   23.1711   -0.2797 C   0  0  0  0  0  0  0  0  0  0  0  0
   -6.9700   24.4265   -0.7034 C   0  0  0  0  0  0  0  0  0  0  0  0
   -6.3228   25.2841    0.1921 C   0  0  0  0  0  0  0  0  0  0  0  0
   -4.7735   30.3436    6.1091 C   0  0  0  0  0  0  0  0  0  0  0  0
   -4.8157   30.3094    7.6628 C   0  0  0  0  0  0  0  0  0  0  0  0
   -5.8857   31.2424    8.2450 C   0  0  0  0  0  0  0  0  0  0  0  0
   -6.2182   30.5742    9.5572 C   0  0  0  0  0  0  0  0  0  0  0  0
   -6.1673   29.1109    9.1782 C   0  0  0  0  0  0  0  0  0  0  0  0
   -5.2708   28.9854    8.0627 O   0  0  0  0  0  0  0  0  0  0  0  0
   -3.3921   30.5023    8.2143 C   0  0  0  0  0  0  0  0  0  0  0  0
   -2.9269   31.7459    8.6775 C   0  0  0  0  0  0  0  0  0  0  0  0
   -1.6075   31.9054    9.1122 C   0  0  0  0  0  0  0  0  0  0  0  0
   -0.7268   30.8289    9.0879 C   0  0  0  0  0  0  0  0  0  0  0  0
   -1.1625   29.5906    8.6243 C   0  0  0  0  0  0  0  0  0  0  0  0
   -2.4801   29.4302    8.1899 C   0  0  0  0  0  0  0  0  0  0  0  0
  1  2  2  0  0  0
  2  3  1  0  0  0
  3 16  1  0  0  0
 16 17  1  0  0  0
 17 22  1  0  0  0
 22 23  2  0  0  0
 23 24  1  0  0  0
 24 25  2  0  0  0
 25 26  1  0  0  0
 26 27  2  0  0  0
 17 18  1  0  0  0
 18 19  1  0  0  0
 19 20  1  0  0  0
 20 21  1  0  0  0
  2  5  1  0  0  0
  5  6  2  0  0  0
  6  7  1  0  0  0
  7  8  2  0  0  0
  8 10  1  0  0  0
 10 11  2  0  0  0
 11 12  1  0  0  0
 12 13  2  0  0  0
 13 14  1  0  0  0
 14 15  2  0  0  0
  8  9  1  0  0  0
 21 17  1  0  0  0
  9  5  1  0  0  0
 27 22  1  0  0  0
 15 10  1  0  0  0
  3  4  1  0  0  0
M  END
> <minimizedAffinity>
-10.27375

$$$$
OCNT-2315845


 29 31  0  0  0  0  0  0  0  0999 V2000
   -3.5893   29.3311    6.3307 N   0  0  0  0  0  0  0  0  0  0  0  0
   -4.7530   29.0441    5.6672 C   0  0  0  0  0  0  0  0  0  0  0  0
   -5.6699   29.8570    5.5831 O   0  0  0  0  0  0  0  0  0  0  0  0
   -4.8028   27.7842    5.0980 N   0  0  0  0  0  0  0  0  0  0  0  0
   -3.8247   26.7201    5.3353 C   0  0  0  0  0  0  0  0  0  0  0  0
   -4.4306   25.3299    5.1670 C   0  0  0  0  0  0  0  0  0  0  0  0
   -5.0656   25.1205    3.7785 C   0  0  0  0  0  0  0  0  0  0  0  0
   -5.6010   26.4412    3.1925 C   0  0  0  0  0  0  0  0  0  0  0  0
   -5.9641   27.4479    4.2787 C   0  0  0  0  0  0  0  0  0  0  0  0
   -2.7669   28.8549    5.9913 H   0  0  0  0  0  0  0  0  0  0  0  0
   -3.3669   30.6509    6.8983 C   0  0  0  0  0  0  0  0  0  0  0  0
   -1.9561   31.1937    6.6358 C   0  0  0  0  0  0  0  0  0  0  0  0
    0.5163   29.1250    6.0322 C   0  0  0  0  0  0  0  0  0  0  0  0
    0.1244   29.7469    7.3195 C   0  0  0  0  0  0  0  0  0  0  0  0
    0.8049   29.4523    8.4326 N   0  0  0  0  0  0  0  0  0  0  0  0
    0.2142   30.1831    9.4428 O   0  0  0  0  0  0  0  0  0  0  0  0
   -0.8233   30.8989    8.9401 C   0  0  0  0  0  0  0  0  0  0  0  0
   -1.5568   31.7319    9.9103 C   0  0  0  0  0  0  0  0  0  0  0  0
   -0.9418   30.6512    7.5884 C   0  0  0  0  0  0  0  0  0  0  0  0
   -4.0790   24.4298    2.8163 C   0  0  0  0  0  0  0  0  0  0  0  0
   -4.3402   24.7710    1.3442 C   0  0  0  0  0  0  0  0  0  0  0  0
   -5.5486   24.0449    0.8101 C   0  0  0  0  0  0  0  0  0  0  0  0
   -5.7141   22.6698    1.0302 C   0  0  0  0  0  0  0  0  0  0  0  0
   -6.8344   22.0103    0.5195 C   0  0  0  0  0  0  0  0  0  0  0  0
   -7.7798   22.7205   -0.2132 C   0  0  0  0  0  0  0  0  0  0  0  0
   -8.8506   22.0790   -0.7001 F   0  0  0  0  0  0  0  0  0  0  0  0
   -7.6269   24.0771   -0.4543 C   0  0  0  0  0  0  0  0  0  0  0  0
   -6.5105   24.7271    0.0587 C   0  0  0  0  0  0  0  0  0  0  0  0
   -6.3609   26.0382   -0.1775 F   0  0  0  0  0  0  0  0  0  0  0  0
 13 14  1  0  0  0
 14 15  2  0  0  0
 15 16  1  0  0  0
 16 17  1  0  0  0
 17 18  1  0  0  0
 17 19  2  0  0  0
 19 12  1  0  0  0
 12 11  1  0  0  0
 11  1  1  0  0  0
  1  2  1  0  0  0
  2  3  2  0  0  0
  2  4  1  0  0  0
  4  5  1  0  0  0
  5  6  1  0  0  0
  6  7  1  0  0  0
  7 20  1  0  0  0
 20 21  1  0  0  0
 21 22  1  0  0  0
 22 23  1  0  0  0
 23 24  2  0  0  0
 24 25  1  0  0  0
 25 26  1  0  0  0
 25 27  2  0  0  0
 27 28  1  0  0  0
 28 29  1  0  0  0
  7  8  1  0  0  0
  8  9  1  0  0  0
 19 14  1  0  0  0
  9  4  1  0  0  0
 28 22  2  0  0  0
  1 10  1  0  0  0
M  END
> <minimizedAffinity>
-10.29630

$$$$
OCNT-2315849


 23 26  0  0  0  0  0  0  0  0999 V2000
   -3.5581   26.1015    4.7708 C   0  0  0  0  0  0  0  0  0  0  0  0
   -3.1129   25.3125    3.7383 C   0  0  0  0  0  0  0  0  0  0  0  0
   -4.2160   24.6395    3.2764 N   0  0  0  0  0  0  0  0  0  0  0  0
   -5.3409   24.9222    3.9657 N   0  0  0  0  0  0  0  0  0  0  0  0
   -4.9348   25.8190    4.8704 C   0  0  0  0  0  0  0  0  0  0  0  0
   -1.5289   31.5013    9.4641 C   0  0  0  0  0  0  0  0  0  0  0  0
   -1.4039   30.3645    8.4923 C   0  0  0  0  0  0  0  0  0  0  0  0
   -0.1465   29.8232    8.1949 C   0  0  0  0  0  0  0  0  0  0  0  0
    0.0013   28.7422    7.3152 C   0  0  0  0  0  0  0  0  0  0  0  0
   -1.1645   28.2114    6.7491 C   0  0  0  0  0  0  0  0  0  0  0  0
   -2.4270   28.7181    7.0366 C   0  0  0  0  0  0  0  0  0  0  0  0
   -2.5564   29.8012    7.9200 C   0  0  0  0  0  0  0  0  0  0  0  0
   -3.3993   28.0262    6.3658 N   0  0  0  0  0  0  0  0  0  0  0  0
   -2.7708   27.1000    5.6680 C   0  0  0  0  0  0  0  0  0  0  0  0
   -1.4103   27.1811    5.8679 N   0  0  0  0  0  0  0  0  0  0  0  0
   -0.4078   26.3455    5.2581 C   0  0  0  0  0  0  0  0  0  0  0  0
   -4.2533   23.6604    2.1960 C   0  0  0  0  0  0  0  0  0  0  0  0
   -5.4077   23.8996    1.2535 C   0  0  0  0  0  0  0  0  0  0  0  0
   -6.3984   22.9210    1.0778 C   0  0  0  0  0  0  0  0  0  0  0  0
   -7.4643   23.1402    0.2045 C   0  0  0  0  0  0  0  0  0  0  0  0
   -7.5494   24.3357   -0.5060 C   0  0  0  0  0  0  0  0  0  0  0  0
   -6.5686   25.3127   -0.3455 C   0  0  0  0  0  0  0  0  0  0  0  0
   -5.5015   25.0968    0.5285 C   0  0  0  0  0  0  0  0  0  0  0  0
  6  7  1  0  0  0
  7  8  2  0  0  0
  8  9  1  0  0  0
  9 10  2  0  0  0
 10 11  1  0  0  0
 11 12  2  0  0  0
 11 13  1  0  0  0
 13 14  2  0  0  0
 14  1  1  0  0  0
  1  2  2  0  0  0
  2  3  1  0  0  0
  3 17  1  0  0  0
 17 18  1  0  0  0
 18 19  2  0  0  0
 19 20  1  0  0  0
 20 21  2  0  0  0
 21 22  1  0  0  0
 22 23  2  0  0  0
  3  4  1  0  0  0
  4  5  2  0  0  0
 14 15  1  0  0  0
 15 16  1  0  0  0
 12  7  1  0  0  0
  5  1  1  0  0  0
 15 10  1  0  0  0
 23 18  1  0  0  0
M  END
> <minimizedAffinity>
-9.81043

$$$$
OCNT-2315862


 22 25  0  0  0  0  0  0  0  0999 V2000
   -2.6920   31.2288    7.3688 C   0  0  0  0  0  0  0  0  0  0  0  0
   -2.5364   29.9519    8.2066 C   0  0  0  0  0  0  0  0  0  0  0  0
   -1.1164   29.4797    8.1667 C   0  0  0  0  0  0  0  0  0  0  0  0
   -0.7012   28.3929    7.4307 C   0  0  0  0  0  0  0  0  0  0  0  0
   -1.5471   27.4898    6.6147 C   0  0  0  0  0  0  0  0  0  0  0  0
   -2.9470   28.1102    6.4358 C   0  0  0  0  0  0  0  0  0  0  0  0
   -3.4615   28.7870    7.7347 C   0  0  0  0  0  0  0  0  0  0  0  0
    0.6413   28.2800    7.6291 N   0  0  0  0  0  0  0  0  0  0  0  0
    1.1278   29.2243    8.4564 N   0  0  0  0  0  0  0  0  0  0  0  0
    0.0557   29.9542    8.7822 C   0  0  0  0  0  0  0  0  0  0  0  0
    1.2848   27.5933    7.2492 H   0  0  0  0  0  0  0  0  0  0  0  0
   -4.8982   29.2430    7.5870 C   0  0  0  0  0  0  0  0  0  0  0  0
   -5.5659   29.7584    8.4721 O   0  0  0  0  0  0  0  0  0  0  0  0
   -5.3341   28.9928    6.3200 O   0  0  0  0  0  0  0  0  0  0  0  0
   -6.4952   28.1527    6.2075 C   0  0  0  0  0  0  0  0  0  0  0  0
   -6.4445   27.3985    4.8909 C   0  0  0  0  0  0  0  0  0  0  0  0
   -5.5589   28.0287    3.7724 C   0  0  0  0  0  0  0  0  0  0  0  0
   -5.1005   26.6278    3.4610 C   0  0  0  0  0  0  0  0  0  0  0  0
   -3.6938   26.3726    2.9852 C   0  0  0  0  0  0  0  0  0  0  0  0
   -4.2871   25.2300    2.1206 C   0  0  0  0  0  0  0  0  0  0  0  0
   -5.6719   25.9145    2.2545 C   0  0  0  0  0  0  0  0  0  0  0  0
   -5.5150   26.1463    4.8340 C   0  0  0  0  0  0  0  0  0  0  0  0
  1  2  1  0  0  0
  2  3  1  0  0  0
  3  4  2  0  0  0
  4  5  1  0  0  0
  5  6  1  0  0  0
  6  7  1  0  0  0
  7 12  1  0  0  0
 12 13  2  0  0  0
 12 14  1  0  0  0
 14 15  1  0  0  0
 15 16  1  0  0  0
 16 17  1  0  0  0
 17 18  1  0  0  0
 18 19  1  0  0  0
 19 20  1  0  0  0
 20 21  1  0  0  0
 18 22  1  0  0  0
  4  8  1  0  0  0
  8  9  1  0  0  0
  9 10  2  0  0  0
  7  2  1  0  0  0
 22 16  1  0  0  0
 10  3  1  0  0  0
 21 18  1  0  0  0
  8 11  1  0  0  0
M  END
> <minimizedAffinity>
-8.15326

$$$$
OCNT-2315864


 21 24  0  0  0  0  0  0  0  0999 V2000
   -4.6378   25.4236    4.6609 N   0  0  0  0  0  0  0  0  0  0  0  0
   -3.9164   24.9175    3.5012 C   0  0  0  0  0  0  0  0  0  0  0  0
   -4.6082   25.2872    2.1947 C   0  0  0  0  0  0  0  0  0  0  0  0
   -6.0289   24.7345    2.0527 C   0  0  0  0  0  0  0  0  0  0  0  0
   -6.2419   23.4160    2.7967 C   0  0  0  0  0  0  0  0  0  0  0  0
   -6.4296   23.5329    4.3497 C   0  0  0  0  0  0  0  0  0  0  0  0
   -7.9619   23.3643    4.6299 C   0  0  0  0  0  0  0  0  0  0  0  0
   -8.3186   23.2026    6.1079 C   0  0  0  0  0  0  0  0  0  0  0  0
   -7.5594   22.0433    6.7398 C   0  0  0  0  0  0  0  0  0  0  0  0
   -6.0566   22.1597    6.5210 C   0  0  0  0  0  0  0  0  0  0  0  0
   -5.7050   22.3431    5.0432 C   0  0  0  0  0  0  0  0  0  0  0  0
   -5.9925   24.9078    4.9482 C   0  0  0  0  0  0  0  0  0  0  0  0
   -0.9296   27.0652    6.4723 C   0  0  0  0  0  0  0  0  0  0  0  0
   -1.4741   28.2802    6.8211 C   0  0  0  0  0  0  0  0  0  0  0  0
   -2.7701   28.2254    6.3875 N   0  0  0  0  0  0  0  0  0  0  0  0
   -3.7845   29.1541    6.4321 C   0  0  0  0  0  0  0  0  0  0  0  0
   -4.9646   28.8119    5.8978 C   0  0  0  0  0  0  0  0  0  0  0  0
   -5.2241   27.5896    5.3145 N   0  0  0  0  0  0  0  0  0  0  0  0
   -4.2861   26.6534    5.2605 C   0  0  0  0  0  0  0  0  0  0  0  0
   -2.9653   26.9883    5.8216 C   0  0  0  0  0  0  0  0  0  0  0  0
   -1.8562   26.2713    5.8441 N   0  0  0  0  0  0  0  0  0  0  0  0
 13 14  2  0  0  0
 14 15  1  0  0  0
 15 16  1  0  0  0
 16 17  2  0  0  0
 17 18  1  0  0  0
 18 19  2  0  0  0
 19  1  1  0  0  0
  1  2  1  0  0  0
  2  3  1  0  0  0
  3  4  1  0  0  0
  4  5  1  0  0  0
  5  6  1  0  0  0
  6  7  1  0  0  0
  7  8  1  0  0  0
  8  9  1  0  0  0
  9 10  1  0  0  0
 10 11  1  0  0  0
  6 12  1  0  0  0
 19 20  1  0  0  0
 20 21  2  0  0  0
 21 13  1  0  0  0
 20 15  1  0  0  0
 12  1  1  0  0  0
 11  6  1  0  0  0
M  END
> <minimizedAffinity>
-8.33302

$$$$
OCNT-2315875


 31 35  0  0  0  0  0  0  0  0999 V2000
   -4.9367   27.8670    6.1191 N   0  0  0  0  0  0  0  0  0  0  0  0
   -5.8094   27.3380    6.1705 H   0  0  0  0  0  0  0  0  0  0  0  0
   -3.9670   27.1795    5.4339 C   0  0  0  0  0  0  0  0  0  0  0  0
   -2.7266   27.2011    5.8563 N   0  0  0  0  0  0  0  0  0  0  0  0
   -1.7555   26.5807    5.1043 C   0  0  0  0  0  0  0  0  0  0  0  0
   -1.9981   25.9657    3.9420 C   0  0  0  0  0  0  0  0  0  0  0  0
   -3.3028   25.8897    3.4901 N   0  0  0  0  0  0  0  0  0  0  0  0
   -3.7773   25.2998    2.3733 N   0  0  0  0  0  0  0  0  0  0  0  0
   -5.1135   25.3574    2.4785 C   0  0  0  0  0  0  0  0  0  0  0  0
   -5.4843   26.0923    3.6315 C   0  0  0  0  0  0  0  0  0  0  0  0
   -4.3028   26.4439    4.2362 C   0  0  0  0  0  0  0  0  0  0  0  0
   -5.9850   24.7223    1.4812 C   0  0  0  0  0  0  0  0  0  0  0  0
   -6.2121   25.3068    0.2309 C   0  0  0  0  0  0  0  0  0  0  0  0
   -7.0617   24.6977   -0.7033 C   0  0  0  0  0  0  0  0  0  0  0  0
   -7.6962   23.4989   -0.3956 C   0  0  0  0  0  0  0  0  0  0  0  0
   -7.4774   22.8998    0.8417 C   0  0  0  0  0  0  0  0  0  0  0  0
   -6.6278   23.5073    1.7716 C   0  0  0  0  0  0  0  0  0  0  0  0
   -5.2377   29.2485    5.7717 C   0  0  0  0  0  0  0  0  0  0  0  0
   -4.7043   31.1322    7.3890 N   0  0  0  0  0  0  0  0  0  0  0  0
   -5.2834   31.6825    8.5020 C   0  0  0  0  0  0  0  0  0  0  0  0
   -6.4046   30.9334    8.7371 C   0  0  0  0  0  0  0  0  0  0  0  0
   -6.5235   29.9496    7.7985 N   0  0  0  0  0  0  0  0  0  0  0  0
   -5.5020   30.1018    6.9738 C   0  0  0  0  0  0  0  0  0  0  0  0
   -3.4798   31.5982    6.7836 C   0  0  0  0  0  0  0  0  0  0  0  0
   -2.4319   31.9295    7.8403 C   0  0  0  0  0  0  0  0  0  0  0  0
    0.8468   29.1212    7.8077 C   0  0  0  0  0  0  0  0  0  0  0  0
    0.4510   29.7240    9.0054 C   0  0  0  0  0  0  0  0  0  0  0  0
   -0.6113   30.6313    9.0152 C   0  0  0  0  0  0  0  0  0  0  0  0
   -1.2917   30.9432    7.8289 C   0  0  0  0  0  0  0  0  0  0  0  0
   -0.8982   30.3287    6.6343 C   0  0  0  0  0  0  0  0  0  0  0  0
    0.1710   29.4248    6.6226 C   0  0  0  0  0  0  0  0  0  0  0  0
 26 27  2  0  0  0
 27 28  1  0  0  0
 28 29  2  0  0  0
 29 25  1  0  0  0
 25 24  1  0  0  0
 24 19  1  0  0  0
 19 20  1  0  0  0
 20 21  2  0  0  0
 21 22  1  0  0  0
 22 23  2  0  0  0
 23 18  1  0  0  0
 18  1  1  0  0  0
  1  3  1  0  0  0
  3  4  2  0  0  0
  4  5  1  0  0  0
  5  6  2  0  0  0
  6  7  1  0  0  0
  7  8  1  0  0  0
  8  9  2  0  0  0
  9 12  1  0  0  0
 12 13  2  0  0  0
 13 14  1  0  0  0
 14 15  2  0  0  0
 15 16  1  0  0  0
 16 17  2  0  0  0
  9 10  1  0  0  0
 10 11  2  0  0  0
 29 30  1  0  0  0
 30 31  2  0  0  0
 31 26  1  0  0  0
 23 19  1  0  0  0
 11  3  1  0  0  0
 11  7  1  0  0  0
 17 12  1  0  0  0
  1  2  1  0  0  0
M  END
> <minimizedAffinity>
-11.24719

$$$$
OCNT-2315878


 24 26  0  0  0  0  0  0  0  0999 V2000
   -5.7953   27.2248    4.1527 N   0  0  0  0  0  0  0  0  0  0  0  0
   -5.9224   28.4573    3.3743 C   0  0  0  0  0  0  0  0  0  0  0  0
   -6.1837   29.6696    4.2722 C   0  0  0  0  0  0  0  0  0  0  0  0
   -5.3944   29.5434    5.5764 C   0  0  0  0  0  0  0  0  0  0  0  0
   -5.8645   28.3040    6.3572 C   0  0  0  0  0  0  0  0  0  0  0  0
   -6.4189   27.1860    5.4660 C   0  0  0  0  0  0  0  0  0  0  0  0
   -6.0119   23.7538    1.9118 C   0  0  0  0  0  0  0  0  0  0  0  0
   -6.2518   23.7810    3.2624 C   0  0  0  0  0  0  0  0  0  0  0  0
   -6.1747   24.9046    4.0125 N   0  0  0  0  0  0  0  0  0  0  0  0
   -5.8464   26.0576    3.3985 C   0  0  0  0  0  0  0  0  0  0  0  0
   -5.5955   26.1136    2.0782 N   0  0  0  0  0  0  0  0  0  0  0  0
   -5.6821   24.9679    1.3636 C   0  0  0  0  0  0  0  0  0  0  0  0
   -6.0866   22.5523    1.0717 C   0  0  0  0  0  0  0  0  0  0  0  0
   -5.8490   21.4301    1.4870 O   0  0  0  0  0  0  0  0  0  0  0  0
   -7.8501   22.7416   -0.4478 C   0  0  0  0  0  0  0  0  0  0  0  0
   -6.4502   22.8777   -0.1926 O   0  0  0  0  0  0  0  0  0  0  0  0
   -5.5329   30.7930    6.3439 N   0  0  0  0  0  0  0  0  0  0  0  0
   -6.4069   30.7644    6.8706 H   0  0  0  0  0  0  0  0  0  0  0  0
   -4.4249   31.0884    7.2668 C   0  0  0  0  0  0  0  0  0  0  0  0
   -4.8655   32.2335    8.1969 C   0  0  0  0  0  0  0  0  0  0  0  0
   -3.6782   32.9714    8.8076 C   0  0  0  0  0  0  0  0  0  0  0  0
   -2.5468   32.1135    8.8877 O   0  0  0  0  0  0  0  0  0  0  0  0
   -2.0312   31.7824    7.5969 C   0  0  0  0  0  0  0  0  0  0  0  0
   -3.1235   31.4845    6.5679 C   0  0  0  0  0  0  0  0  0  0  0  0
 15 16  1  0  0  0
 16 13  1  0  0  0
 13 14  2  0  0  0
 13  7  1  0  0  0
  7  8  2  0  0  0
  8  9  1  0  0  0
  9 10  2  0  0  0
 10  1  1  0  0  0
  1  2  1  0  0  0
  2  3  1  0  0  0
  3  4  1  0  0  0
  4 17  1  0  0  0
 17 19  1  0  0  0
 19 20  1  0  0  0
 20 21  1  0  0  0
 21 22  1  0  0  0
 22 23  1  0  0  0
 23 24  1  0  0  0
  4  5  1  0  0  0
  5  6  1  0  0  0
 10 11  1  0  0  0
 11 12  2  0  0  0
 12  7  1  0  0  0
  6  1  1  0  0  0
 24 19  1  0  0  0
 17 18  1  0  0  0
M  END
> <minimizedAffinity>
-8.10498

$$$$
OCNT-2315880


 28 31  0  0  0  0  0  0  0  0999 V2000
   -4.5811   28.3102    5.2818 N   0  0  0  0  0  0  0  0  0  0  0  0
   -4.0928   27.1027    4.8300 C   0  0  0  0  0  0  0  0  0  0  0  0
   -3.7668   26.1437    5.5186 O   0  0  0  0  0  0  0  0  0  0  0  0
   -4.0280   27.0845    3.4504 N   0  0  0  0  0  0  0  0  0  0  0  0
   -4.9374   28.9518    4.5929 H   0  0  0  0  0  0  0  0  0  0  0  0
   -3.9160   27.9760    2.9950 H   0  0  0  0  0  0  0  0  0  0  0  0
   -6.4495   29.3878    9.6914 C   0  0  0  0  0  0  0  0  0  0  0  0
   -5.5590   29.1486    8.5828 N   0  0  0  0  0  0  0  0  0  0  0  0
   -5.9062   28.7429    7.3315 C   0  0  0  0  0  0  0  0  0  0  0  0
   -4.7405   28.6693    6.6091 C   0  0  0  0  0  0  0  0  0  0  0  0
   -3.7231   29.0443    7.5359 C   0  0  0  0  0  0  0  0  0  0  0  0
   -4.2390   29.3470    8.7369 N   0  0  0  0  0  0  0  0  0  0  0  0
   -2.2392   29.1432    7.3054 C   0  0  0  0  0  0  0  0  0  0  0  0
   -1.5942   30.2017    8.2236 C   0  0  0  0  0  0  0  0  0  0  0  0
   -0.1018   29.9664    8.4765 C   0  0  0  0  0  0  0  0  0  0  0  0
    0.5697   29.2656    7.3045 C   0  0  0  0  0  0  0  0  0  0  0  0
   -0.0455   27.8910    7.0354 C   0  0  0  0  0  0  0  0  0  0  0  0
   -1.5211   27.7919    7.4333 C   0  0  0  0  0  0  0  0  0  0  0  0
   -3.4702   25.9473    2.7508 C   0  0  0  0  0  0  0  0  0  0  0  0
   -4.5627   25.0257    2.2633 C   0  0  0  0  0  0  0  0  0  0  0  0
   -4.9701   23.9307    3.0445 C   0  0  0  0  0  0  0  0  0  0  0  0
   -5.9951   23.0729    2.6261 C   0  0  0  0  0  0  0  0  0  0  0  0
   -6.5928   23.3674    1.4040 C   0  0  0  0  0  0  0  0  0  0  0  0
   -7.6059   22.6620    0.8282 O   0  0  0  0  0  0  0  0  0  0  0  0
   -7.8996   23.2801   -0.3460 C   0  0  0  0  0  0  0  0  0  0  0  0
   -7.0875   24.3747   -0.5341 C   0  0  0  0  0  0  0  0  0  0  0  0
   -6.2333   24.4400    0.5980 C   0  0  0  0  0  0  0  0  0  0  0  0
   -5.1999   25.2890    1.0321 C   0  0  0  0  0  0  0  0  0  0  0  0
  7  8  1  0  0  0
  8  9  1  0  0  0
  9 10  2  0  0  0
 10  1  1  0  0  0
  1  2  1  0  0  0
  2  3  2  0  0  0
  2  4  1  0  0  0
  4 19  1  0  0  0
 19 20  1  0  0  0
 20 21  2  0  0  0
 21 22  1  0  0  0
 22 23  2  0  0  0
 23 24  1  0  0  0
 24 25  1  0  0  0
 25 26  2  0  0  0
 26 27  1  0  0  0
 27 28  2  0  0  0
 10 11  1  0  0  0
 11 13  1  0  0  0
 13 14  1  0  0  0
 14 15  1  0  0  0
 15 16  1  0  0  0
 16 17  1  0  0  0
 17 18  1  0  0  0
 11 12  2  0  0  0
 12  8  1  0  0  0
 28 20  1  0  0  0
 18 13  1  0  0  0
 27 23  1  0  0  0
  1  5  1  0  0  0
  4  6  1  0  0  0
M  END
> <minimizedAffinity>
-10.06958

$$$$
OCNT-2315887


 23 25  0  0  0  0  0  0  0  0999 V2000
   -2.3109   28.0286    7.2131 C   0  0  0  0  0  0  0  0  0  0  0  0
   -1.3245   27.5498    7.7665 O   0  0  0  0  0  0  0  0  0  0  0  0
   -2.9359   29.1711    7.6711 N   0  0  0  0  0  0  0  0  0  0  0  0
   -3.6204   29.5856    7.0377 H   0  0  0  0  0  0  0  0  0  0  0  0
   -4.9758   24.7893    1.0278 C   0  0  0  0  0  0  0  0  0  0  0  0
   -4.7831   25.6525    2.2420 C   0  0  0  0  0  0  0  0  0  0  0  0
   -5.8028   26.5255    2.6523 C   0  0  0  0  0  0  0  0  0  0  0  0
   -5.6698   27.3223    3.7956 C   0  0  0  0  0  0  0  0  0  0  0  0
   -4.4809   27.1938    4.5071 C   0  0  0  0  0  0  0  0  0  0  0  0
   -4.1623   27.8766    5.6402 O   0  0  0  0  0  0  0  0  0  0  0  0
   -2.9139   27.4606    6.0265 C   0  0  0  0  0  0  0  0  0  0  0  0
   -2.4434   26.5140    5.1354 C   0  0  0  0  0  0  0  0  0  0  0  0
   -3.4489   26.3362    4.1508 C   0  0  0  0  0  0  0  0  0  0  0  0
   -3.6007   25.5430    2.9992 C   0  0  0  0  0  0  0  0  0  0  0  0
   -2.3583   30.0043    8.7002 C   0  0  0  0  0  0  0  0  0  0  0  0
   -1.3292   30.9991    8.1587 C   0  0  0  0  0  0  0  0  0  0  0  0
   -1.3077   32.1497    9.1649 C   0  0  0  0  0  0  0  0  0  0  0  0
   -2.4109   31.8556   10.1830 C   0  0  0  0  0  0  0  0  0  0  0  0
   -3.3497   30.8723    9.4825 C   0  0  0  0  0  0  0  0  0  0  0  0
   -4.3566   31.5966    8.6154 C   0  0  0  0  0  0  0  0  0  0  0  0
   -4.8633   31.1935    7.5810 O   0  0  0  0  0  0  0  0  0  0  0  0
   -4.7270   32.7853    9.1314 O   0  0  0  0  0  0  0  0  0  0  0  0
   -5.3949   33.1279    8.5007 H   0  0  0  0  0  0  0  0  0  0  0  0
  5  6  1  0  0  0
  6  7  2  0  0  0
  7  8  1  0  0  0
  8  9  2  0  0  0
  9 10  1  0  0  0
 10 11  1  0  0  0
 11  1  1  0  0  0
  1  2  2  0  0  0
  1  3  1  0  0  0
  3 15  1  0  0  0
 15 16  1  0  0  0
 16 17  1  0  0  0
 17 18  1  0  0  0
 18 19  1  0  0  0
 19 20  1  0  0  0
 20 21  2  0  0  0
 20 22  1  0  0  0
 11 12  2  0  0  0
 12 13  1  0  0  0
 13 14  2  0  0  0
 14  6  1  0  0  0
 13  9  1  0  0  0
 19 15  1  0  0  0
  3  4  1  0  0  0
 22 23  1  0  0  0
M  END
> <minimizedAffinity>
-8.85078

$$$$
OCNT-2315891


 29 32  0  0  0  0  0  0  0  0999 V2000
   -5.6664   24.7880    4.3954 N   0  0  0  0  0  0  0  0  0  0  0  0
   -4.7867   24.2356    3.4558 C   0  0  0  0  0  0  0  0  0  0  0  0
   -3.6153   24.5974    3.3436 O   0  0  0  0  0  0  0  0  0  0  0  0
   -5.2738   23.1607    2.5586 C   0  0  0  0  0  0  0  0  0  0  0  0
   -5.0621   21.8705    2.9499 N   0  0  0  0  0  0  0  0  0  0  0  0
   -5.5157   20.8771    2.1681 C   0  0  0  0  0  0  0  0  0  0  0  0
   -6.1800   21.0721    0.9703 C   0  0  0  0  0  0  0  0  0  0  0  0
   -6.3997   22.3973    0.5445 C   0  0  0  0  0  0  0  0  0  0  0  0
   -5.9424   23.4411    1.3596 C   0  0  0  0  0  0  0  0  0  0  0  0
   -6.3019   24.9750    0.6481 S   0  0  0  0  0  0  0  0  0  0  0  0
   -7.0566   24.2668   -0.7035 C   0  0  0  0  0  0  0  0  0  0  0  0
   -7.0425   22.8945   -0.6394 C   0  0  0  0  0  0  0  0  0  0  0  0
   -5.2159   25.9376    5.1849 C   0  0  0  0  0  0  0  0  0  0  0  0
   -5.8711   28.3642    5.8303 N   0  0  0  0  0  0  0  0  0  0  0  0
   -6.5002   29.4789    5.0971 C   0  0  0  0  0  0  0  0  0  0  0  0
   -6.1488   29.2819    3.6284 C   0  0  0  0  0  0  0  0  0  0  0  0
   -5.7304   27.8231    3.5086 C   0  0  0  0  0  0  0  0  0  0  0  0
   -6.0190   27.2228    4.8853 C   0  0  0  0  0  0  0  0  0  0  0  0
   -4.2699   30.1075    6.6072 C   0  0  0  0  0  0  0  0  0  0  0  0
   -4.4726   28.6524    6.1911 C   0  0  0  0  0  0  0  0  0  0  0  0
   -7.0655   24.3761    4.5435 C   0  0  0  0  0  0  0  0  0  0  0  0
   -7.3111   23.5296    5.7732 C   0  0  0  0  0  0  0  0  0  0  0  0
   -6.3064   22.7027    6.3004 C   0  0  0  0  0  0  0  0  0  0  0  0
   -6.5486   21.9180    7.4303 C   0  0  0  0  0  0  0  0  0  0  0  0
   -7.7953   21.9690    8.0437 C   0  0  0  0  0  0  0  0  0  0  0  0
   -8.0764   21.2165    9.1455 O   0  0  0  0  0  0  0  0  0  0  0  0
   -8.7971   22.7949    7.5509 C   0  0  0  0  0  0  0  0  0  0  0  0
   -8.5546   23.5783    6.4218 C   0  0  0  0  0  0  0  0  0  0  0  0
   -7.2887   20.6941    9.3685 H   0  0  0  0  0  0  0  0  0  0  0  0
 19 20  1  0  0  0
 20 14  1  0  0  0
 14 15  1  0  0  0
 15 16  1  0  0  0
 16 17  1  0  0  0
 17 18  1  0  0  0
 18 13  1  0  0  0
 13  1  1  0  0  0
  1 21  1  0  0  0
 21 22  1  0  0  0
 22 23  1  0  0  0
 23 24  2  0  0  0
 24 25  1  0  0  0
 25 26  1  0  0  0
 25 27  2  0  0  0
 27 28  1  0  0  0
  1  2  1  0  0  0
  2  3  2  0  0  0
  2  4  1  0  0  0
  4  5  1  0  0  0
  5  6  2  0  0  0
  6  7  1  0  0  0
  7  8  2  0  0  0
  8  9  1  0  0  0
  9 10  1  0  0  0
 10 11  1  0  0  0
 11 12  2  0  0  0
 18 14  1  0  0  0
 28 22  2  0  0  0
  9  4  2  0  0  0
 12  8  1  0  0  0
 26 29  1  0  0  0
M  END
> <minimizedAffinity>
-8.70427

$$$$
OCNT-2315895


 25 27  0  0  0  0  0  0  0  0999 V2000
   -2.4353   26.2332    4.1940 C   0  0  0  0  0  0  0  0  0  0  0  0
   -0.9613   25.8487    4.3237 C   0  0  0  0  0  0  0  0  0  0  0  0
   -0.1837   26.9300    5.0854 C   0  0  0  0  0  0  0  0  0  0  0  0
   -0.9945   27.6514    6.0848 N   0  0  0  0  0  0  0  0  0  0  0  0
   -2.0217   26.7886    6.6614 C   0  0  0  0  0  0  0  0  0  0  0  0
   -3.0516   26.4049    5.5929 C   0  0  0  0  0  0  0  0  0  0  0  0
   -4.3443   25.6116    2.7403 C   0  0  0  0  0  0  0  0  0  0  0  0
   -4.7848   26.7521    2.6715 O   0  0  0  0  0  0  0  0  0  0  0  0
   -3.1924   25.2564    3.4135 N   0  0  0  0  0  0  0  0  0  0  0  0
   -3.1038   24.2822    3.6703 H   0  0  0  0  0  0  0  0  0  0  0  0
   -7.5643   23.8457   -0.3086 O   0  0  0  0  0  0  0  0  0  0  0  0
   -6.7010   23.6368    0.5348 C   0  0  0  0  0  0  0  0  0  0  0  0
   -6.3488   22.2562    0.9556 C   0  0  0  0  0  0  0  0  0  0  0  0
   -5.4198   22.0697    1.9041 C   0  0  0  0  0  0  0  0  0  0  0  0
   -4.7506   23.1974    2.5127 C   0  0  0  0  0  0  0  0  0  0  0  0
   -5.0488   24.4445    2.1159 C   0  0  0  0  0  0  0  0  0  0  0  0
   -6.0043   24.6487    1.1439 N   0  0  0  0  0  0  0  0  0  0  0  0
   -6.2933   25.5891    0.9109 H   0  0  0  0  0  0  0  0  0  0  0  0
   -0.1562   28.2615    7.1262 C   0  0  0  0  0  0  0  0  0  0  0  0
   -0.6890   29.5930    7.6084 C   0  0  0  0  0  0  0  0  0  0  0  0
   -0.6304   29.9591    8.9036 C   0  0  0  0  0  0  0  0  0  0  0  0
   -1.1227   31.2791    9.4215 C   0  0  0  0  0  0  0  0  0  0  0  0
   -1.4132   32.2919    8.3141 C   0  0  0  0  0  0  0  0  0  0  0  0
   -2.1396   31.6333    7.1476 C   0  0  0  0  0  0  0  0  0  0  0  0
   -1.3137   30.4861    6.5594 C   0  0  0  0  0  0  0  0  0  0  0  0
 11 12  2  0  0  0
 12 13  1  0  0  0
 13 14  2  0  0  0
 14 15  1  0  0  0
 15 16  2  0  0  0
 16  7  1  0  0  0
  7  8  2  0  0  0
  7  9  1  0  0  0
  9  1  1  0  0  0
  1  2  1  0  0  0
  2  3  1  0  0  0
  3  4  1  0  0  0
  4 19  1  0  0  0
 19 20  1  0  0  0
 20 21  2  0  0  0
 21 22  1  0  0  0
 22 23  1  0  0  0
 23 24  1  0  0  0
 24 25  1  0  0  0
  4  5  1  0  0  0
  5  6  1  0  0  0
 16 17  1  0  0  0
 17 12  1  0  0  0
  6  1  1  0  0  0
 25 20  1  0  0  0
  9 10  1  0  0  0
 17 18  1  0  0  0
M  END
> <minimizedAffinity>
-9.22867

$$$$
OCNT-2315913


 25 27  0  0  0  0  0  0  0  0999 V2000
   -7.6720   22.6349   -0.2056 C   0  0  0  0  0  0  0  0  0  0  0  0
   -6.6678   23.1006    0.8064 C   0  0  0  0  0  0  0  0  0  0  0  0
   -6.6112   24.4368    1.0411 N   0  0  0  0  0  0  0  0  0  0  0  0
   -5.7235   24.8955    1.9398 C   0  0  0  0  0  0  0  0  0  0  0  0
   -5.6510   26.2564    2.1901 C   0  0  0  0  0  0  0  0  0  0  0  0
   -4.7464   26.7884    3.1176 C   0  0  0  0  0  0  0  0  0  0  0  0
   -3.8751   25.9572    3.8325 C   0  0  0  0  0  0  0  0  0  0  0  0
   -3.9420   24.5777    3.5816 C   0  0  0  0  0  0  0  0  0  0  0  0
   -4.8526   24.0438    2.6475 C   0  0  0  0  0  0  0  0  0  0  0  0
   -4.9263   22.6676    2.3916 C   0  0  0  0  0  0  0  0  0  0  0  0
   -5.8424   22.1932    1.4618 C   0  0  0  0  0  0  0  0  0  0  0  0
   -5.9374   20.8597    1.1900 O   0  0  0  0  0  0  0  0  0  0  0  0
   -5.2807   20.3789    1.7201 H   0  0  0  0  0  0  0  0  0  0  0  0
   -2.9236   26.5126    4.8103 C   0  0  0  0  0  0  0  0  0  0  0  0
   -1.5913   26.0618    4.8599 C   0  0  0  0  0  0  0  0  0  0  0  0
   -0.6836   26.5701    5.7948 C   0  0  0  0  0  0  0  0  0  0  0  0
   -1.0896   27.5476    6.6980 C   0  0  0  0  0  0  0  0  0  0  0  0
   -2.4040   28.0159    6.6508 C   0  0  0  0  0  0  0  0  0  0  0  0
   -3.3195   27.5015    5.7254 C   0  0  0  0  0  0  0  0  0  0  0  0
   -2.9148   29.2602    7.8045 S   0  0  0  0  0  0  0  0  0  0  0  0
   -4.0764   28.4321    8.7007 N   0  0  0  0  0  0  0  0  0  0  0  0
   -3.5784   30.3131    7.0748 O   0  0  0  0  0  0  0  0  0  0  0  0
   -1.8301   29.5107    8.7256 O   0  0  0  0  0  0  0  0  0  0  0  0
   -3.7549   28.3597    9.6676 H   0  0  0  0  0  0  0  0  0  0  0  0
   -4.3186   27.5233    8.3087 H   0  0  0  0  0  0  0  0  0  0  0  0
  1  2  1  0  0  0
  2  3  2  0  0  0
  3  4  1  0  0  0
  4  5  2  0  0  0
  5  6  1  0  0  0
  6  7  2  0  0  0
  7 14  1  0  0  0
 14 15  1  0  0  0
 15 16  2  0  0  0
 16 17  1  0  0  0
 17 18  2  0  0  0
 18 20  1  0  0  0
 20 21  1  0  0  0
 20 22  2  0  0  0
 20 23  2  0  0  0
 18 19  1  0  0  0
  7  8  1  0  0  0
  8  9  2  0  0  0
  9 10  1  0  0  0
 10 11  2  0  0  0
 11 12  1  0  0  0
 11  2  1  0  0  0
  9  4  1  0  0  0
 19 14  2  0  0  0
 21 24  1  0  0  0
 21 25  1  0  0  0
 12 13  1  0  0  0
M  END
> <minimizedAffinity>
-9.69235

$$$$
OCNT-2315930


 25 26  0  0  0  0  0  0  0  0999 V2000
    0.0045   28.2023    7.5529 N   0  0  0  0  0  0  0  0  0  0  0  0
    0.0485   27.8046    6.2461 C   0  0  0  0  0  0  0  0  0  0  0  0
    0.4523   28.4965    5.3223 O   0  0  0  0  0  0  0  0  0  0  0  0
   -0.4137   26.5286    6.0973 N   0  0  0  0  0  0  0  0  0  0  0  0
   -0.0092   27.4630    8.2387 H   0  0  0  0  0  0  0  0  0  0  0  0
   -1.1155   26.2285    6.7614 H   0  0  0  0  0  0  0  0  0  0  0  0
    1.3927   29.3610    9.2322 C   0  0  0  0  0  0  0  0  0  0  0  0
    0.5299   29.4898    7.9722 C   0  0  0  0  0  0  0  0  0  0  0  0
   -0.6225   30.4672    8.1373 C   0  0  0  0  0  0  0  0  0  0  0  0
   -1.4575   30.8267    7.0661 C   0  0  0  0  0  0  0  0  0  0  0  0
   -2.4924   31.7490    7.2464 C   0  0  0  0  0  0  0  0  0  0  0  0
   -2.6964   32.3272    8.4965 C   0  0  0  0  0  0  0  0  0  0  0  0
   -3.9682   33.4644    8.7160 Cl  0  0  0  0  0  0  0  0  0  0  0  0
   -1.8724   31.9946    9.5677 C   0  0  0  0  0  0  0  0  0  0  0  0
   -0.8379   31.0729    9.3871 C   0  0  0  0  0  0  0  0  0  0  0  0
   -0.5532   25.9722    4.7659 C   0  0  0  0  0  0  0  0  0  0  0  0
   -1.9547   26.1544    4.3023 C   0  0  0  0  0  0  0  0  0  0  0  0
   -2.9856   26.6551    4.9596 N   0  0  0  0  0  0  0  0  0  0  0  0
   -4.0293   26.5856    4.0573 C   0  0  0  0  0  0  0  0  0  0  0  0
   -3.5611   26.0485    2.8775 C   0  0  0  0  0  0  0  0  0  0  0  0
   -2.2374   25.7690    3.0216 O   0  0  0  0  0  0  0  0  0  0  0  0
   -5.4083   27.0719    4.4345 C   0  0  0  0  0  0  0  0  0  0  0  0
   -6.3420   25.9076    4.8220 C   0  0  0  0  0  0  0  0  0  0  0  0
   -5.3174   28.0323    5.6375 C   0  0  0  0  0  0  0  0  0  0  0  0
   -6.0347   27.8222    3.2431 C   0  0  0  0  0  0  0  0  0  0  0  0
  7  8  1  0  0  0
  8  1  1  0  0  0
  1  2  1  0  0  0
  2  3  2  0  0  0
  2  4  1  0  0  0
  4 16  1  0  0  0
 16 17  1  0  0  0
 17 18  2  0  0  0
 18 19  1  0  0  0
 19 22  1  0  0  0
 22 23  1  0  0  0
 22 24  1  0  0  0
 22 25  1  0  0  0
 19 20  2  0  0  0
 20 21  1  0  0  0
  8  9  1  0  0  0
  9 10  1  0  0  0
 10 11  2  0  0  0
 11 12  1  0  0  0
 12 13  1  0  0  0
 12 14  2  0  0  0
 14 15  1  0  0  0
 21 17  1  0  0  0
 15  9  2  0  0  0
  1  5  1  0  0  0
  4  6  1  0  0  0
M  END
> <minimizedAffinity>
-8.79970

$$$$
OCNT-2315937


 25 28  0  0  0  0  0  0  0  0999 V2000
   -4.5054   25.7595    1.6948 N   0  0  0  0  0  0  0  0  0  0  0  0
   -3.5955   25.3116    1.6107 H   0  0  0  0  0  0  0  0  0  0  0  0
   -4.3300   21.0524    3.7149 F   0  0  0  0  0  0  0  0  0  0  0  0
   -5.0503   21.6357    2.7492 C   0  0  0  0  0  0  0  0  0  0  0  0
   -6.0097   20.9041    2.0712 C   0  0  0  0  0  0  0  0  0  0  0  0
   -6.7489   21.5222    1.0599 C   0  0  0  0  0  0  0  0  0  0  0  0
   -6.5508   22.8562    0.7175 C   0  0  0  0  0  0  0  0  0  0  0  0
   -7.2861   23.3774   -0.2662 N   0  0  0  0  0  0  0  0  0  0  0  0
   -7.0529   24.6580   -0.5714 C   0  0  0  0  0  0  0  0  0  0  0  0
   -6.1689   25.4672    0.0220 N   0  0  0  0  0  0  0  0  0  0  0  0
   -5.4445   24.9428    1.0245 C   0  0  0  0  0  0  0  0  0  0  0  0
   -5.5852   23.5979    1.4174 C   0  0  0  0  0  0  0  0  0  0  0  0
   -4.8277   22.9685    2.4355 C   0  0  0  0  0  0  0  0  0  0  0  0
   -4.8121   26.1128    3.0909 C   0  0  0  0  0  0  0  0  0  0  0  0
   -5.7149   27.3510    3.1424 C   0  0  0  0  0  0  0  0  0  0  0  0
   -5.9563   27.7827    4.5860 C   0  0  0  0  0  0  0  0  0  0  0  0
   -4.6672   28.0207    5.2562 N   0  0  0  0  0  0  0  0  0  0  0  0
   -3.7782   26.8487    5.2608 C   0  0  0  0  0  0  0  0  0  0  0  0
   -3.4983   26.4152    3.8243 C   0  0  0  0  0  0  0  0  0  0  0  0
   -4.8437   28.5545    6.5576 C   0  0  0  0  0  0  0  0  0  0  0  0
   -6.1312   28.8114    7.0238 C   0  0  0  0  0  0  0  0  0  0  0  0
   -6.3186   29.3467    8.2948 C   0  0  0  0  0  0  0  0  0  0  0  0
   -5.2035   29.6132    9.0576 C   0  0  0  0  0  0  0  0  0  0  0  0
   -3.9601   29.3770    8.6081 N   0  0  0  0  0  0  0  0  0  0  0  0
   -3.7872   28.8529    7.3486 N   0  0  0  0  0  0  0  0  0  0  0  0
  3  4  1  0  0  0
  4  5  1  0  0  0
  5  6  2  0  0  0
  6  7  1  0  0  0
  7  8  2  0  0  0
  8  9  1  0  0  0
  9 10  2  0  0  0
 10 11  1  0  0  0
 11  1  1  0  0  0
  1 14  1  0  0  0
 14 15  1  0  0  0
 15 16  1  0  0  0
 16 17  1  0  0  0
 17 20  1  0  0  0
 20 21  2  0  0  0
 21 22  1  0  0  0
 22 23  2  0  0  0
 23 24  1  0  0  0
 24 25  2  0  0  0
 17 18  1  0  0  0
 18 19  1  0  0  0
 11 12  2  0  0  0
 12 13  1  0  0  0
 13  4  2  0  0  0
 12  7  1  0  0  0
 19 14  1  0  0  0
 25 20  1  0  0  0
  1  2  1  0  0  0
M  END
> <minimizedAffinity>
-9.30634

$$$$
OCNT-2315944


 28 32  0  0  0  0  0  0  0  0999 V2000
   -5.5730   28.2541    6.3809 C   0  0  0  0  0  0  0  0  0  0  0  0
   -6.2347   27.3844    5.5975 N   0  0  0  0  0  0  0  0  0  0  0  0
   -5.2467   26.8110    4.8573 N   0  0  0  0  0  0  0  0  0  0  0  0
   -4.0178   27.2540    5.3269 C   0  0  0  0  0  0  0  0  0  0  0  0
   -4.2067   28.1934    6.2306 N   0  0  0  0  0  0  0  0  0  0  0  0
   -5.5934   25.9337    3.7861 C   0  0  0  0  0  0  0  0  0  0  0  0
   -5.5519   26.3373    2.4437 C   0  0  0  0  0  0  0  0  0  0  0  0
   -5.9055   25.4410    1.4288 C   0  0  0  0  0  0  0  0  0  0  0  0
   -6.3103   24.1520    1.7517 C   0  0  0  0  0  0  0  0  0  0  0  0
   -6.6480   23.3015    0.7744 F   0  0  0  0  0  0  0  0  0  0  0  0
   -6.3793   23.7394    3.0746 C   0  0  0  0  0  0  0  0  0  0  0  0
   -6.0285   24.6294    4.0928 C   0  0  0  0  0  0  0  0  0  0  0  0
   -2.7176   26.7444    5.0109 C   0  0  0  0  0  0  0  0  0  0  0  0
   -2.3376   26.0463    3.8802 C   0  0  0  0  0  0  0  0  0  0  0  0
   -0.9582   25.6835    3.9061 C   0  0  0  0  0  0  0  0  0  0  0  0
   -0.3378   26.1010    5.0621 C   0  0  0  0  0  0  0  0  0  0  0  0
   -1.4151   26.9182    6.1096 S   0  0  0  0  0  0  0  0  0  0  0  0
   -7.0152   28.8100    8.2033 O   0  0  0  0  0  0  0  0  0  0  0  0
   -6.2342   29.1739    7.3286 C   0  0  0  0  0  0  0  0  0  0  0  0
   -5.8789   30.4839    7.1307 O   0  0  0  0  0  0  0  0  0  0  0  0
   -5.3194   31.1456    8.2654 C   0  0  0  0  0  0  0  0  0  0  0  0
   -5.1330   32.6236    7.9317 C   0  0  0  0  0  0  0  0  0  0  0  0
   -4.0953   33.0769    8.9453 C   0  0  0  0  0  0  0  0  0  0  0  0
   -3.1144   31.9054    8.9608 C   0  0  0  0  0  0  0  0  0  0  0  0
   -1.8098   32.1374    8.1651 C   0  0  0  0  0  0  0  0  0  0  0  0
   -1.0830   32.4149    9.3888 O   0  0  0  0  0  0  0  0  0  0  0  0
   -2.1592   31.8347   10.1680 C   0  0  0  0  0  0  0  0  0  0  0  0
   -3.9005   30.6480    8.5830 C   0  0  0  0  0  0  0  0  0  0  0  0
 18 19  2  0  0  0
 19 20  1  0  0  0
 20 21  1  0  0  0
 21 22  1  0  0  0
 22 23  1  0  0  0
 23 24  1  0  0  0
 24 25  1  0  0  0
 25 26  1  0  0  0
 26 27  1  0  0  0
 24 28  1  0  0  0
 19  1  1  0  0  0
  1  2  2  0  0  0
  2  3  1  0  0  0
  3  6  1  0  0  0
  6  7  1  0  0  0
  7  8  2  0  0  0
  8  9  1  0  0  0
  9 10  1  0  0  0
  9 11  2  0  0  0
 11 12  1  0  0  0
  3  4  1  0  0  0
  4 13  1  0  0  0
 13 14  2  0  0  0
 14 15  1  0  0  0
 15 16  2  0  0  0
 16 17  1  0  0  0
  4  5  2  0  0  0
 28 21  1  0  0  0
  5  1  1  0  0  0
 27 24  1  0  0  0
 12  6  2  0  0  0
 17 13  1  0  0  0
M  END
> <minimizedAffinity>
-9.52066

$$$$
OCNT-2315946


 26 29  0  0  0  0  0  0  0  0999 V2000
   -1.4275   28.3850    6.7175 C   0  0  0  0  0  0  0  0  0  0  0  0
   -0.2861   27.8695    6.1043 C   0  0  0  0  0  0  0  0  0  0  0  0
   -0.2927   26.7651    5.3203 N   0  0  0  0  0  0  0  0  0  0  0  0
   -1.5056   26.1801    5.1821 C   0  0  0  0  0  0  0  0  0  0  0  0
   -2.6691   26.6715    5.7719 C   0  0  0  0  0  0  0  0  0  0  0  0
   -2.6314   27.7692    6.5524 N   0  0  0  0  0  0  0  0  0  0  0  0
   -0.4375   30.9887    9.3117 C   0  0  0  0  0  0  0  0  0  0  0  0
   -0.4129   29.8441    8.5121 C   0  0  0  0  0  0  0  0  0  0  0  0
   -1.4264   29.5912    7.5710 C   0  0  0  0  0  0  0  0  0  0  0  0
   -2.4589   30.5477    7.4564 C   0  0  0  0  0  0  0  0  0  0  0  0
   -2.4998   31.7073    8.2490 C   0  0  0  0  0  0  0  0  0  0  0  0
   -1.4755   31.9100    9.1819 C   0  0  0  0  0  0  0  0  0  0  0  0
   -3.5848   32.6875    8.1102 C   0  0  0  0  0  0  0  0  0  0  0  0
   -4.3276   32.7643    6.9907 N   0  0  0  0  0  0  0  0  0  0  0  0
   -5.1990   33.7553    7.2233 N   0  0  0  0  0  0  0  0  0  0  0  0
   -5.0619   34.3265    8.4491 C   0  0  0  0  0  0  0  0  0  0  0  0
   -4.0251   33.6593    9.0538 C   0  0  0  0  0  0  0  0  0  0  0  0
   -5.8649   33.9878    6.4941 H   0  0  0  0  0  0  0  0  0  0  0  0
   -3.9160   26.0615    5.6250 N   0  0  0  0  0  0  0  0  0  0  0  0
   -4.2435   25.9052    6.5839 H   0  0  0  0  0  0  0  0  0  0  0  0
   -4.9199   26.8747    4.9164 C   0  0  0  0  0  0  0  0  0  0  0  0
   -4.5868   26.8618    3.4230 C   0  0  0  0  0  0  0  0  0  0  0  0
   -5.4342   25.7398    2.8255 C   0  0  0  0  0  0  0  0  0  0  0  0
   -6.1771   25.1455    3.9371 N   0  0  0  0  0  0  0  0  0  0  0  0
   -6.3039   26.2108    4.9387 C   0  0  0  0  0  0  0  0  0  0  0  0
   -7.0920   24.8148    3.6353 H   0  0  0  0  0  0  0  0  0  0  0  0
  7  8  2  0  0  0
  8  9  1  0  0  0
  9  1  1  0  0  0
  1  2  1  0  0  0
  2  3  2  0  0  0
  3  4  1  0  0  0
  4  5  2  0  0  0
  5 19  1  0  0  0
 19 21  1  0  0  0
 21 22  1  0  0  0
 22 23  1  0  0  0
 23 24  1  0  0  0
 24 25  1  0  0  0
  5  6  1  0  0  0
  9 10  2  0  0  0
 10 11  1  0  0  0
 11 13  1  0  0  0
 13 14  2  0  0  0
 14 15  1  0  0  0
 15 16  1  0  0  0
 16 17  2  0  0  0
 11 12  2  0  0  0
 12  7  1  0  0  0
  6  1  2  0  0  0
 17 13  1  0  0  0
 25 21  1  0  0  0
 19 20  1  0  0  0
 24 26  1  0  0  0
 15 18  1  0  0  0
M  END
> <minimizedAffinity>
-8.68017

$$$$
OCNT-2315948


 29 32  0  0  0  0  0  0  0  0999 V2000
   -4.1999   26.7532    5.0531 C   0  0  0  0  0  0  0  0  0  0  0  0
   -3.3255   26.4367    4.2535 O   0  0  0  0  0  0  0  0  0  0  0  0
   -5.3485   26.0147    5.2980 N   0  0  0  0  0  0  0  0  0  0  0  0
   -6.0574   26.4611    5.8637 H   0  0  0  0  0  0  0  0  0  0  0  0
   -3.4931   29.7471    7.3652 C   0  0  0  0  0  0  0  0  0  0  0  0
   -4.5335   30.1292    6.6545 N   0  0  0  0  0  0  0  0  0  0  0  0
   -4.9330   29.1224    5.7888 C   0  0  0  0  0  0  0  0  0  0  0  0
   -6.1531   29.3656    4.9721 C   0  0  0  0  0  0  0  0  0  0  0  0
   -4.1367   27.9881    5.8170 C   0  0  0  0  0  0  0  0  0  0  0  0
   -2.9254   28.1703    7.0186 S   0  0  0  0  0  0  0  0  0  0  0  0
   -4.9363   32.1555    9.0727 C   0  0  0  0  0  0  0  0  0  0  0  0
   -3.5195   31.7295    9.1476 C   0  0  0  0  0  0  0  0  0  0  0  0
   -2.6760   32.3520    9.9809 N   0  0  0  0  0  0  0  0  0  0  0  0
   -1.4560   31.7267    9.8171 O   0  0  0  0  0  0  0  0  0  0  0  0
   -1.5653   30.7350    8.8895 C   0  0  0  0  0  0  0  0  0  0  0  0
   -0.3254   29.9826    8.6207 C   0  0  0  0  0  0  0  0  0  0  0  0
   -2.8621   30.6982    8.4310 C   0  0  0  0  0  0  0  0  0  0  0  0
   -5.6967   24.7526    4.7702 C   0  0  0  0  0  0  0  0  0  0  0  0
   -5.6997   23.5699    5.5091 C   0  0  0  0  0  0  0  0  0  0  0  0
   -6.0601   22.3621    4.9071 C   0  0  0  0  0  0  0  0  0  0  0  0
   -6.4247   22.3263    3.5614 C   0  0  0  0  0  0  0  0  0  0  0  0
   -6.4382   23.5008    2.8019 C   0  0  0  0  0  0  0  0  0  0  0  0
   -6.0715   24.7086    3.4179 C   0  0  0  0  0  0  0  0  0  0  0  0
   -6.8156   23.4561    1.3997 C   0  0  0  0  0  0  0  0  0  0  0  0
   -6.5931   24.4583    0.4785 C   0  0  0  0  0  0  0  0  0  0  0  0
   -7.1190   24.0196   -0.7032 N   0  0  0  0  0  0  0  0  0  0  0  0
   -7.6699   22.7989   -0.6226 N   0  0  0  0  0  0  0  0  0  0  0  0
   -7.4896   22.4583    0.6561 C   0  0  0  0  0  0  0  0  0  0  0  0
   -7.1415   24.4984   -1.5978 H   0  0  0  0  0  0  0  0  0  0  0  0
 11 12  1  0  0  0
 12 13  2  0  0  0
 13 14  1  0  0  0
 14 15  1  0  0  0
 15 16  1  0  0  0
 15 17  2  0  0  0
 17  5  1  0  0  0
  5  6  2  0  0  0
  6  7  1  0  0  0
  7  8  1  0  0  0
  7  9  2  0  0  0
  9  1  1  0  0  0
  1  2  2  0  0  0
  1  3  1  0  0  0
  3 18  1  0  0  0
 18 19  2  0  0  0
 19 20  1  0  0  0
 20 21  2  0  0  0
 21 22  1  0  0  0
 22 24  1  0  0  0
 24 25  2  0  0  0
 25 26  1  0  0  0
 26 27  1  0  0  0
 27 28  2  0  0  0
 22 23  2  0  0  0
  9 10  1  0  0  0
 17 12  1  0  0  0
 10  5  1  0  0  0
 23 18  1  0  0  0
 28 24  1  0  0  0
  3  4  1  0  0  0
 26 29  1  0  0  0
M  END
> <minimizedAffinity>
-9.90786

$$$$
OCNT-2315950


 25 28  0  0  0  0  0  0  0  0999 V2000
   -7.3247   21.3885    4.0390 C   0  0  0  0  0  0  0  0  0  0  0  0
   -6.8264   22.7605    3.9680 N   0  0  0  0  0  0  0  0  0  0  0  0
   -5.7338   23.0789    4.8870 C   0  0  0  0  0  0  0  0  0  0  0  0
   -5.5398   24.5860    4.9594 C   0  0  0  0  0  0  0  0  0  0  0  0
   -5.2095   25.1556    3.6461 N   0  0  0  0  0  0  0  0  0  0  0  0
   -4.2441   26.1689    3.5215 C   0  0  0  0  0  0  0  0  0  0  0  0
   -3.6071   26.3898    2.4956 O   0  0  0  0  0  0  0  0  0  0  0  0
   -5.8979   24.5610    2.5218 C   0  0  0  0  0  0  0  0  0  0  0  0
   -5.8351   25.1540    1.2445 C   0  0  0  0  0  0  0  0  0  0  0  0
   -6.5338   24.6241    0.1606 C   0  0  0  0  0  0  0  0  0  0  0  0
   -7.3192   23.5045    0.3464 C   0  0  0  0  0  0  0  0  0  0  0  0
   -8.0067   23.0001   -0.6867 F   0  0  0  0  0  0  0  0  0  0  0  0
   -7.4155   22.8983    1.5932 C   0  0  0  0  0  0  0  0  0  0  0  0
   -6.7033   23.3882    2.7063 C   0  0  0  0  0  0  0  0  0  0  0  0
   -4.0039   26.9670    4.7007 C   0  0  0  0  0  0  0  0  0  0  0  0
   -4.8121   27.8763    5.3420 C   0  0  0  0  0  0  0  0  0  0  0  0
   -6.0992   28.2427    4.9563 C   0  0  0  0  0  0  0  0  0  0  0  0
   -6.6282   29.2269    5.8163 C   0  0  0  0  0  0  0  0  0  0  0  0
   -5.9139   29.7699    6.9304 C   0  0  0  0  0  0  0  0  0  0  0  0
   -6.7789   31.0957    7.9828 Br  0  0  0  0  0  0  0  0  0  0  0  0
   -4.6082   29.3849    7.2974 C   0  0  0  0  0  0  0  0  0  0  0  0
   -4.0640   28.4011    6.4576 C   0  0  0  0  0  0  0  0  0  0  0  0
   -2.8616   27.8070    6.4997 N   0  0  0  0  0  0  0  0  0  0  0  0
   -2.8842   26.9048    5.4944 N   0  0  0  0  0  0  0  0  0  0  0  0
   -1.7739   25.9854    5.3770 C   0  0  0  0  0  0  0  0  0  0  0  0
  1  2  1  0  0  0
  2  3  1  0  0  0
  3  4  1  0  0  0
  4  5  1  0  0  0
  5  6  1  0  0  0
  6  7  2  0  0  0
  6 15  1  0  0  0
 15 16  2  0  0  0
 16 17  1  0  0  0
 17 18  2  0  0  0
 18 19  1  0  0  0
 19 20  1  0  0  0
 19 21  2  0  0  0
 21 22  1  0  0  0
 22 23  2  0  0  0
 23 24  1  0  0  0
 24 25  1  0  0  0
  5  8  1  0  0  0
  8  9  1  0  0  0
  9 10  2  0  0  0
 10 11  1  0  0  0
 11 12  1  0  0  0
 11 13  2  0  0  0
 13 14  1  0  0  0
 14  2  1  0  0  0
 24 15  1  0  0  0
 14  8  2  0  0  0
 22 16  1  0  0  0
M  END
> <minimizedAffinity>
-9.92830

$$$$
OCNT-2315960


 26 28  0  0  0  0  0  0  0  0999 V2000
   -5.6414   28.1568    6.4277 N   0  0  0  0  0  0  0  0  0  0  0  0
   -5.1954   29.4065    6.0804 C   0  0  0  0  0  0  0  0  0  0  0  0
   -5.6443   30.0185    5.1155 O   0  0  0  0  0  0  0  0  0  0  0  0
   -4.1813   29.9150    6.8975 N   0  0  0  0  0  0  0  0  0  0  0  0
   -3.6424   31.2088    6.4861 C   0  0  0  0  0  0  0  0  0  0  0  0
   -2.8978   31.9759    7.5781 C   0  0  0  0  0  0  0  0  0  0  0  0
   -2.6861   31.1819    8.8682 C   0  0  0  0  0  0  0  0  0  0  0  0
   -1.7346   31.9185    9.8123 C   0  0  0  0  0  0  0  0  0  0  0  0
   -2.2682   29.7276    8.5770 C   0  0  0  0  0  0  0  0  0  0  0  0
   -3.3177   29.0254    7.6901 C   0  0  0  0  0  0  0  0  0  0  0  0
   -5.6461   27.9629    7.4148 H   0  0  0  0  0  0  0  0  0  0  0  0
   -0.9007   29.5723    8.0919 N   0  0  0  0  0  0  0  0  0  0  0  0
    0.1905   29.3321    8.8891 C   0  0  0  0  0  0  0  0  0  0  0  0
    1.2550   29.2333    8.0259 C   0  0  0  0  0  0  0  0  0  0  0  0
    0.8412   29.3890    6.7316 N   0  0  0  0  0  0  0  0  0  0  0  0
   -0.4566   29.5828    6.8006 C   0  0  0  0  0  0  0  0  0  0  0  0
   -6.7107   27.5235    5.6844 C   0  0  0  0  0  0  0  0  0  0  0  0
   -5.0895   24.7903    2.7384 C   0  0  0  0  0  0  0  0  0  0  0  0
   -5.3374   26.1226    2.4024 C   0  0  0  0  0  0  0  0  0  0  0  0
   -5.8668   27.0053    3.3539 C   0  0  0  0  0  0  0  0  0  0  0  0
   -6.1631   26.5693    4.6533 C   0  0  0  0  0  0  0  0  0  0  0  0
   -5.9070   25.2345    4.9886 C   0  0  0  0  0  0  0  0  0  0  0  0
   -5.3782   24.3636    4.0382 C   0  0  0  0  0  0  0  0  0  0  0  0
   -5.1453   23.0911    4.3958 F   0  0  0  0  0  0  0  0  0  0  0  0
   -5.4969   23.0600    1.1530 C   0  0  0  0  0  0  0  0  0  0  0  0
   -4.5734   23.8399    1.8999 O   0  0  0  0  0  0  0  0  0  0  0  0
 25 26  1  0  0  0
 26 18  1  0  0  0
 18 19  1  0  0  0
 19 20  2  0  0  0
 20 21  1  0  0  0
 21 17  1  0  0  0
 17  1  1  0  0  0
  1  2  1  0  0  0
  2  3  2  0  0  0
  2  4  1  0  0  0
  4  5  1  0  0  0
  5  6  1  0  0  0
  6  7  1  0  0  0
  7  8  1  0  0  0
  7  9  1  0  0  0
  9 12  1  0  0  0
 12 13  1  0  0  0
 13 14  2  0  0  0
 14 15  1  0  0  0
 15 16  2  0  0  0
  9 10  1  0  0  0
 21 22  2  0  0  0
 22 23  1  0  0  0
 23 24  1  0  0  0
 23 18  2  0  0  0
 10  4  1  0  0  0
 16 12  1  0  0  0
  1 11  1  0  0  0
M  END
> <minimizedAffinity>
-9.38311

$$$$
OCNT-2315966


 29 32  0  0  0  0  0  0  0  0999 V2000
   -3.0561   27.3650    6.1494 N   0  0  0  0  0  0  0  0  0  0  0  0
   -2.5818   26.8668    6.9054 H   0  0  0  0  0  0  0  0  0  0  0  0
   -5.5433   23.6977    2.1917 C   0  0  0  0  0  0  0  0  0  0  0  0
   -6.5059   23.6847    3.1289 C   0  0  0  0  0  0  0  0  0  0  0  0
   -6.3390   24.4846    4.3644 C   0  0  0  0  0  0  0  0  0  0  0  0
   -7.2258   24.4760    5.2126 O   0  0  0  0  0  0  0  0  0  0  0  0
   -5.1521   25.1804    4.4106 N   0  0  0  0  0  0  0  0  0  0  0  0
   -4.8156   25.9797    5.4764 N   0  0  0  0  0  0  0  0  0  0  0  0
   -3.6580   26.5240    5.2621 C   0  0  0  0  0  0  0  0  0  0  0  0
   -2.8855   26.1177    3.7412 S   0  0  0  0  0  0  0  0  0  0  0  0
   -4.2533   25.1193    3.3834 C   0  0  0  0  0  0  0  0  0  0  0  0
   -4.3840   24.4364    2.2962 N   0  0  0  0  0  0  0  0  0  0  0  0
   -5.6907   22.8945    0.9175 C   0  0  0  0  0  0  0  0  0  0  0  0
   -7.6782   23.8182   -0.3886 C   0  0  0  0  0  0  0  0  0  0  0  0
   -7.1453   22.6879    0.4805 C   0  0  0  0  0  0  0  0  0  0  0  0
   -3.5403   28.6774    6.5700 C   0  0  0  0  0  0  0  0  0  0  0  0
   -2.7769   29.2411    7.7914 C   0  0  0  0  0  0  0  0  0  0  0  0
   -3.2768   30.6339    8.1589 C   0  0  0  0  0  0  0  0  0  0  0  0
   -4.1562   31.3101    7.2958 C   0  0  0  0  0  0  0  0  0  0  0  0
   -4.6106   32.5943    7.6075 C   0  0  0  0  0  0  0  0  0  0  0  0
   -4.1881   33.2147    8.7805 C   0  0  0  0  0  0  0  0  0  0  0  0
   -4.7497   34.7951    9.1620 Cl  0  0  0  0  0  0  0  0  0  0  0  0
   -3.3125   32.5630    9.6448 C   0  0  0  0  0  0  0  0  0  0  0  0
   -2.8559   31.2799    9.3346 C   0  0  0  0  0  0  0  0  0  0  0  0
   -1.3193   29.2405    7.6213 N   0  0  0  0  0  0  0  0  0  0  0  0
   -0.3938   28.9302    8.5827 C   0  0  0  0  0  0  0  0  0  0  0  0
    0.8364   29.0255    7.9772 C   0  0  0  0  0  0  0  0  0  0  0  0
    0.5543   29.3910    6.6497 C   0  0  0  0  0  0  0  0  0  0  0  0
   -0.7556   29.5193    6.4232 N   0  0  0  0  0  0  0  0  0  0  0  0
 14 15  1  0  0  0
 15 13  1  0  0  0
 13  3  1  0  0  0
  3  4  2  0  0  0
  4  5  1  0  0  0
  5  6  2  0  0  0
  5  7  1  0  0  0
  7  8  1  0  0  0
  8  9  2  0  0  0
  9  1  1  0  0  0
  1 16  1  0  0  0
 16 17  1  0  0  0
 17 18  1  0  0  0
 18 19  1  0  0  0
 19 20  2  0  0  0
 20 21  1  0  0  0
 21 22  1  0  0  0
 21 23  2  0  0  0
 23 24  1  0  0  0
 17 25  1  0  0  0
 25 26  1  0  0  0
 26 27  2  0  0  0
 27 28  1  0  0  0
 28 29  2  0  0  0
  9 10  1  0  0  0
 10 11  1  0  0  0
 11 12  2  0  0  0
 12  3  1  0  0  0
 11  7  1  0  0  0
 24 18  2  0  0  0
 29 25  1  0  0  0
  1  2  1  0  0  0
M  END
> <minimizedAffinity>
-9.44016

$$$$
OCNT-2315972


 29 32  0  0  0  0  0  0  0  0999 V2000
   -6.4724   30.9239    8.4518 C   0  0  0  0  0  0  0  0  0  0  0  0
   -5.5049   32.0765    8.2590 C   0  0  0  0  0  0  0  0  0  0  0  0
   -5.8971   33.1731    7.8617 O   0  0  0  0  0  0  0  0  0  0  0  0
   -4.1696   31.8271    8.5550 N   0  0  0  0  0  0  0  0  0  0  0  0
   -3.6626   30.5516    9.0669 C   0  0  0  0  0  0  0  0  0  0  0  0
   -2.3282   30.7073    9.7866 C   0  0  0  0  0  0  0  0  0  0  0  0
   -1.2569   31.3605    8.8963 C   0  0  0  0  0  0  0  0  0  0  0  0
   -1.8581   32.3087    7.8446 C   0  0  0  0  0  0  0  0  0  0  0  0
   -3.1885   32.8851    8.3088 C   0  0  0  0  0  0  0  0  0  0  0  0
   -0.3447   30.3442    8.2750 C   0  0  0  0  0  0  0  0  0  0  0  0
    0.5701   29.4945    8.8629 C   0  0  0  0  0  0  0  0  0  0  0  0
    1.1217   28.7871    7.8313 N   0  0  0  0  0  0  0  0  0  0  0  0
    0.5433   29.2257    6.6761 C   0  0  0  0  0  0  0  0  0  0  0  0
   -0.3420   30.1652    6.9106 N   0  0  0  0  0  0  0  0  0  0  0  0
    1.8279   28.0671    7.9029 H   0  0  0  0  0  0  0  0  0  0  0  0
   -7.1402   30.5364    7.1359 C   0  0  0  0  0  0  0  0  0  0  0  0
   -5.1913   27.9005    5.7328 C   0  0  0  0  0  0  0  0  0  0  0  0
   -6.4065   27.3263    5.6896 N   0  0  0  0  0  0  0  0  0  0  0  0
   -7.2536   28.2988    6.2144 O   0  0  0  0  0  0  0  0  0  0  0  0
   -6.4678   29.3653    6.5319 C   0  0  0  0  0  0  0  0  0  0  0  0
   -5.1971   29.1730    6.2678 N   0  0  0  0  0  0  0  0  0  0  0  0
   -1.5883   26.0142    4.3899 C   0  0  0  0  0  0  0  0  0  0  0  0
   -2.7291   25.9943    3.5888 C   0  0  0  0  0  0  0  0  0  0  0  0
   -3.9093   26.6107    4.0270 C   0  0  0  0  0  0  0  0  0  0  0  0
   -3.9666   27.2548    5.2713 C   0  0  0  0  0  0  0  0  0  0  0  0
   -2.8159   27.2680    6.0696 C   0  0  0  0  0  0  0  0  0  0  0  0
   -1.6396   26.6516    5.6307 C   0  0  0  0  0  0  0  0  0  0  0  0
    0.6523   26.3408    3.6675 C   0  0  0  0  0  0  0  0  0  0  0  0
   -0.3789   25.4550    4.0832 O   0  0  0  0  0  0  0  0  0  0  0  0
 28 29  1  0  0  0
 29 22  1  0  0  0
 22 23  1  0  0  0
 23 24  2  0  0  0
 24 25  1  0  0  0
 25 17  1  0  0  0
 17 18  2  0  0  0
 18 19  1  0  0  0
 19 20  1  0  0  0
 20 16  1  0  0  0
 16  1  1  0  0  0
  1  2  1  0  0  0
  2  3  2  0  0  0
  2  4  1  0  0  0
  4  5  1  0  0  0
  5  6  1  0  0  0
  6  7  1  0  0  0
  7 10  1  0  0  0
 10 11  2  0  0  0
 11 12  1  0  0  0
 12 13  1  0  0  0
 13 14  2  0  0  0
  7  8  1  0  0  0
  8  9  1  0  0  0
 20 21  2  0  0  0
 25 26  2  0  0  0
 26 27  1  0  0  0
 27 22  2  0  0  0
 21 17  1  0  0  0
  9  4  1  0  0  0
 14 10  1  0  0  0
 12 15  1  0  0  0
M  END
> <minimizedAffinity>
-9.05030

$$$$
OCNT-2315974


 28 30  0  0  0  0  0  0  0  0999 V2000
   -4.0394   29.4040    7.0552 C   0  0  0  0  0  0  0  0  0  0  0  0
   -4.1374   28.5800    7.9613 O   0  0  0  0  0  0  0  0  0  0  0  0
   -4.2632   29.0870    5.7271 N   0  0  0  0  0  0  0  0  0  0  0  0
   -4.4315   29.8832    5.1166 H   0  0  0  0  0  0  0  0  0  0  0  0
   -4.8060   27.7937    5.3296 C   0  0  0  0  0  0  0  0  0  0  0  0
   -5.7316   27.9494    4.1154 C   0  0  0  0  0  0  0  0  0  0  0  0
   -5.9258   26.6218    3.3955 C   0  0  0  0  0  0  0  0  0  0  0  0
   -4.6522   26.0546    2.9415 N   0  0  0  0  0  0  0  0  0  0  0  0
   -4.5005   25.3172    1.7670 C   0  0  0  0  0  0  0  0  0  0  0  0
   -3.4126   25.1062    1.2363 O   0  0  0  0  0  0  0  0  0  0  0  0
   -3.4391   26.5159    3.6127 C   0  0  0  0  0  0  0  0  0  0  0  0
   -3.6805   26.7766    5.0936 C   0  0  0  0  0  0  0  0  0  0  0  0
   -5.6992   24.7490    1.1145 C   0  0  0  0  0  0  0  0  0  0  0  0
   -6.3113   23.6017    1.6153 C   0  0  0  0  0  0  0  0  0  0  0  0
   -7.4128   23.1176    0.9354 C   0  0  0  0  0  0  0  0  0  0  0  0
   -7.9146   23.6884   -0.1816 N   0  0  0  0  0  0  0  0  0  0  0  0
   -7.2762   24.7806   -0.6576 C   0  0  0  0  0  0  0  0  0  0  0  0
   -6.1685   25.3434   -0.0543 C   0  0  0  0  0  0  0  0  0  0  0  0
   -4.6105   31.8266    6.7240 C   0  0  0  0  0  0  0  0  0  0  0  0
   -3.5744   30.8566    7.2805 C   0  0  0  0  0  0  0  0  0  0  0  0
   -2.3306   31.0638    6.5969 O   0  0  0  0  0  0  0  0  0  0  0  0
   -1.2363   30.4660    7.1691 C   0  0  0  0  0  0  0  0  0  0  0  0
   -0.4899   29.4850    6.5102 C   0  0  0  0  0  0  0  0  0  0  0  0
    0.5928   28.8774    7.1517 C   0  0  0  0  0  0  0  0  0  0  0  0
    0.9263   29.2350    8.4573 C   0  0  0  0  0  0  0  0  0  0  0  0
    0.1728   30.1973    9.1290 C   0  0  0  0  0  0  0  0  0  0  0  0
   -0.9098   30.8049    8.4895 C   0  0  0  0  0  0  0  0  0  0  0  0
   -1.8088   32.0013    9.3534 Cl  0  0  0  0  0  0  0  0  0  0  0  0
 19 20  1  0  0  0
 20 21  1  0  0  0
 21 22  1  0  0  0
 22 23  2  0  0  0
 23 24  1  0  0  0
 24 25  2  0  0  0
 25 26  1  0  0  0
 26 27  2  0  0  0
 27 28  1  0  0  0
 20  1  1  0  0  0
  1  2  2  0  0  0
  1  3  1  0  0  0
  3  5  1  0  0  0
  5  6  1  0  0  0
  6  7  1  0  0  0
  7  8  1  0  0  0
  8  9  1  0  0  0
  9 10  2  0  0  0
  9 13  1  0  0  0
 13 14  2  0  0  0
 14 15  1  0  0  0
 15 16  2  0  0  0
 16 17  1  0  0  0
 17 18  2  0  0  0
  8 11  1  0  0  0
 11 12  1  0  0  0
 27 22  1  0  0  0
 12  5  1  0  0  0
 18 13  1  0  0  0
  3  4  1  0  0  0
M  END
> <minimizedAffinity>
-9.66378

$$$$
OCNT-2315975


 25 27  0  0  0  0  0  0  0  0999 V2000
   -5.4743   29.8744    6.2097 N   0  0  0  0  0  0  0  0  0  0  0  0
   -4.1265   29.6575    6.4207 N   0  0  0  0  0  0  0  0  0  0  0  0
   -3.6597   29.8543    7.6147 C   0  0  0  0  0  0  0  0  0  0  0  0
   -4.4748   30.3170    8.7585 C   0  0  0  0  0  0  0  0  0  0  0  0
   -5.7722   30.5233    8.5300 C   0  0  0  0  0  0  0  0  0  0  0  0
   -6.3554   30.3017    7.1915 C   0  0  0  0  0  0  0  0  0  0  0  0
   -7.5561   30.5055    7.0277 O   0  0  0  0  0  0  0  0  0  0  0  0
   -2.2086   29.6324    7.8660 C   0  0  0  0  0  0  0  0  0  0  0  0
   -1.5382   30.5087    8.7332 C   0  0  0  0  0  0  0  0  0  0  0  0
   -0.1765   30.3368    8.9887 C   0  0  0  0  0  0  0  0  0  0  0  0
    0.5100   29.2986    8.3701 C   0  0  0  0  0  0  0  0  0  0  0  0
    1.8166   29.1345    8.6128 F   0  0  0  0  0  0  0  0  0  0  0  0
   -0.1374   28.4307    7.4968 C   0  0  0  0  0  0  0  0  0  0  0  0
   -1.5005   28.5972    7.2387 C   0  0  0  0  0  0  0  0  0  0  0  0
   -5.9537   29.6941    4.8454 C   0  0  0  0  0  0  0  0  0  0  0  0
   -5.9562   25.5594    3.6363 C   0  0  0  0  0  0  0  0  0  0  0  0
   -5.6883   26.5535    2.6929 C   0  0  0  0  0  0  0  0  0  0  0  0
   -5.6784   27.8908    3.0909 C   0  0  0  0  0  0  0  0  0  0  0  0
   -5.9352   28.2401    4.4261 C   0  0  0  0  0  0  0  0  0  0  0  0
   -6.2275   27.2286    5.3547 C   0  0  0  0  0  0  0  0  0  0  0  0
   -6.2408   25.8892    4.9633 C   0  0  0  0  0  0  0  0  0  0  0  0
   -6.1185   23.9589    1.3682 C   0  0  0  0  0  0  0  0  0  0  0  0
   -5.9841   23.8561    3.1337 S   0  0  0  0  0  0  0  0  0  0  0  0
   -7.2074   23.2653    3.6431 O   0  0  0  0  0  0  0  0  0  0  0  0
   -4.6918   23.2810    3.4557 O   0  0  0  0  0  0  0  0  0  0  0  0
 22 23  1  0  0  0
 23 24  2  0  0  0
 23 25  2  0  0  0
 23 16  1  0  0  0
 16 17  1  0  0  0
 17 18  2  0  0  0
 18 19  1  0  0  0
 19 15  1  0  0  0
 15  1  1  0  0  0
  1  2  1  0  0  0
  2  3  2  0  0  0
  3  8  1  0  0  0
  8  9  1  0  0  0
  9 10  2  0  0  0
 10 11  1  0  0  0
 11 12  1  0  0  0
 11 13  2  0  0  0
 13 14  1  0  0  0
  3  4  1  0  0  0
  4  5  2  0  0  0
  5  6  1  0  0  0
  6  7  2  0  0  0
 19 20  2  0  0  0
 20 21  1  0  0  0
 21 16  2  0  0  0
  6  1  1  0  0  0
 14  8  2  0  0  0
M  END
> <minimizedAffinity>
-9.70058

$$$$
OCNT-2315988


 21 23  0  0  0  0  0  0  0  0999 V2000
   -0.5485   27.9125    7.2657 C   0  0  0  0  0  0  0  0  0  0  0  0
   -1.2692   27.2497    6.1307 C   0  0  0  0  0  0  0  0  0  0  0  0
   -0.5802   26.4115    5.2418 C   0  0  0  0  0  0  0  0  0  0  0  0
   -1.2423   25.7976    4.1688 C   0  0  0  0  0  0  0  0  0  0  0  0
   -2.6079   26.0038    3.9621 C   0  0  0  0  0  0  0  0  0  0  0  0
   -3.2971   26.8275    4.8419 C   0  0  0  0  0  0  0  0  0  0  0  0
   -2.6320   27.4455    5.9075 C   0  0  0  0  0  0  0  0  0  0  0  0
   -3.7638   28.4556    6.8333 S   0  0  0  0  0  0  0  0  0  0  0  0
   -5.1019   28.0431    5.7541 C   0  0  0  0  0  0  0  0  0  0  0  0
   -6.2310   28.4906    5.8886 O   0  0  0  0  0  0  0  0  0  0  0  0
   -4.6708   27.1446    4.7936 N   0  0  0  0  0  0  0  0  0  0  0  0
   -5.5674   26.6986    3.7469 C   0  0  0  0  0  0  0  0  0  0  0  0
   -5.9206   25.2064    3.8704 C   0  0  0  0  0  0  0  0  0  0  0  0
   -6.0033   24.6545    4.9701 O   0  0  0  0  0  0  0  0  0  0  0  0
   -6.2024   24.5198    2.6798 N   0  0  0  0  0  0  0  0  0  0  0  0
   -6.4901   23.0872    2.7968 C   0  0  0  0  0  0  0  0  0  0  0  0
   -7.4320   22.5914    1.7054 C   0  0  0  0  0  0  0  0  0  0  0  0
   -6.9361   22.9791    0.3187 C   0  0  0  0  0  0  0  0  0  0  0  0
   -6.7096   24.4854    0.2446 C   0  0  0  0  0  0  0  0  0  0  0  0
   -5.7763   25.0002    1.3511 C   0  0  0  0  0  0  0  0  0  0  0  0
   -4.3117   24.6419    1.0740 C   0  0  0  0  0  0  0  0  0  0  0  0
  1  2  1  0  0  0
  2  3  2  0  0  0
  3  4  1  0  0  0
  4  5  2  0  0  0
  5  6  1  0  0  0
  6  7  2  0  0  0
  7  8  1  0  0  0
  8  9  1  0  0  0
  9 10  2  0  0  0
  9 11  1  0  0  0
 11 12  1  0  0  0
 12 13  1  0  0  0
 13 14  2  0  0  0
 13 15  1  0  0  0
 15 16  1  0  0  0
 16 17  1  0  0  0
 17 18  1  0  0  0
 18 19  1  0  0  0
 19 20  1  0  0  0
 20 21  1  0  0  0
  7  2  1  0  0  0
 20 15  1  0  0  0
 11  6  1  0  0  0
M  END
> <minimizedAffinity>
-8.43902

$$$$
OCNT-2315990


 31 34  0  0  0  0  0  0  0  0999 V2000
   -6.2494   28.6818    9.8554 C   0  0  0  0  0  0  0  0  0  0  0  0
   -6.3356   29.6934    8.7076 C   0  0  0  0  0  0  0  0  0  0  0  0
   -5.3910   30.8719    8.8798 C   0  0  0  0  0  0  0  0  0  0  0  0
   -5.7394   32.1710    8.4796 C   0  0  0  0  0  0  0  0  0  0  0  0
   -4.8554   33.2314    8.6731 C   0  0  0  0  0  0  0  0  0  0  0  0
   -3.6202   33.0070    9.2786 C   0  0  0  0  0  0  0  0  0  0  0  0
   -3.2589   31.7282    9.7056 C   0  0  0  0  0  0  0  0  0  0  0  0
   -4.1458   30.6680    9.5061 C   0  0  0  0  0  0  0  0  0  0  0  0
   -2.0211   31.6528   10.2823 O   0  0  0  0  0  0  0  0  0  0  0  0
   -0.8746   31.9338    9.4713 C   0  0  0  0  0  0  0  0  0  0  0  0
   -0.5203   30.8050    8.5278 C   0  0  0  0  0  0  0  0  0  0  0  0
    0.3847   29.8174    8.9126 C   0  0  0  0  0  0  0  0  0  0  0  0
    0.6810   28.7910    8.0205 C   0  0  0  0  0  0  0  0  0  0  0  0
    0.0667   28.7728    6.7746 C   0  0  0  0  0  0  0  0  0  0  0  0
   -0.8254   29.7865    6.4709 C   0  0  0  0  0  0  0  0  0  0  0  0
   -1.1347   30.7950    7.3160 N   0  0  0  0  0  0  0  0  0  0  0  0
   -6.0726   29.0619    7.4243 N   0  0  0  0  0  0  0  0  0  0  0  0
   -6.7796   29.3920    6.2854 C   0  0  0  0  0  0  0  0  0  0  0  0
   -7.6700   30.2389    6.3183 O   0  0  0  0  0  0  0  0  0  0  0  0
   -5.3743   28.3349    7.4037 H   0  0  0  0  0  0  0  0  0  0  0  0
   -6.3976   28.6731    5.0841 C   0  0  0  0  0  0  0  0  0  0  0  0
   -6.1563   29.1080    3.7976 C   0  0  0  0  0  0  0  0  0  0  0  0
   -5.8031   28.1338    2.8854 N   0  0  0  0  0  0  0  0  0  0  0  0
   -5.7825   26.9431    3.4590 C   0  0  0  0  0  0  0  0  0  0  0  0
   -6.1806   26.9701    5.1386 S   0  0  0  0  0  0  0  0  0  0  0  0
   -5.4364   25.6818    2.7778 C   0  0  0  0  0  0  0  0  0  0  0  0
   -4.7707   24.6208    3.3881 C   0  0  0  0  0  0  0  0  0  0  0  0
   -4.4657   23.4618    2.7456 N   0  0  0  0  0  0  0  0  0  0  0  0
   -4.8601   23.3978    1.4557 C   0  0  0  0  0  0  0  0  0  0  0  0
   -5.5256   24.4397    0.8358 C   0  0  0  0  0  0  0  0  0  0  0  0
   -5.8254   25.5931    1.4754 N   0  0  0  0  0  0  0  0  0  0  0  0
  1  2  1  0  0  0
  2 17  1  0  0  0
 17 18  1  0  0  0
 18 19  2  0  0  0
 18 21  1  0  0  0
 21 22  2  0  0  0
 22 23  1  0  0  0
 23 24  2  0  0  0
 24 26  1  0  0  0
 26 27  2  0  0  0
 27 28  1  0  0  0
 28 29  2  0  0  0
 29 30  1  0  0  0
 30 31  2  0  0  0
 24 25  1  0  0  0
  2  3  1  0  0  0
  3  4  2  0  0  0
  4  5  1  0  0  0
  5  6  2  0  0  0
  6  7  1  0  0  0
  7  9  1  0  0  0
  9 10  1  0  0  0
 10 11  1  0  0  0
 11 12  2  0  0  0
 12 13  1  0  0  0
 13 14  2  0  0  0
 14 15  1  0  0  0
 15 16  2  0  0  0
  7  8  2  0  0  0
 25 21  1  0  0  0
  8  3  1  0  0  0
 31 26  1  0  0  0
 16 11  1  0  0  0
 17 20  1  0  0  0
M  END
> <minimizedAffinity>
-9.61105

$$$$
OCNT-2315994


 28 31  0  0  0  0  0  0  0  0999 V2000
   -7.2742   29.7425    5.9153 O   0  0  0  0  0  0  0  0  0  0  0  0
   -6.0572   29.7351    5.7673 C   0  0  0  0  0  0  0  0  0  0  0  0
   -5.4267   29.4315    4.5841 N   0  0  0  0  0  0  0  0  0  0  0  0
   -4.4158   29.3605    4.6217 H   0  0  0  0  0  0  0  0  0  0  0  0
   -5.1154   30.0403    6.8483 C   0  0  0  0  0  0  0  0  0  0  0  0
   -5.4542   30.7277    7.9965 C   0  0  0  0  0  0  0  0  0  0  0  0
   -4.0933   30.8821    9.0180 S   0  0  0  0  0  0  0  0  0  0  0  0
   -3.1270   30.0216    7.8754 C   0  0  0  0  0  0  0  0  0  0  0  0
   -3.7754   29.6370    6.7871 N   0  0  0  0  0  0  0  0  0  0  0  0
   -1.7025   29.7594    8.1321 C   0  0  0  0  0  0  0  0  0  0  0  0
   -0.9868   30.5387    9.0362 C   0  0  0  0  0  0  0  0  0  0  0  0
    0.3290   30.3414    9.3106 N   0  0  0  0  0  0  0  0  0  0  0  0
    0.9087   29.3230    8.6383 C   0  0  0  0  0  0  0  0  0  0  0  0
    0.2089   28.5400    7.7364 C   0  0  0  0  0  0  0  0  0  0  0  0
   -1.1026   28.7373    7.4642 N   0  0  0  0  0  0  0  0  0  0  0  0
   -6.1370   28.9552    3.4270 C   0  0  0  0  0  0  0  0  0  0  0  0
   -6.0242   27.4579    3.3095 C   0  0  0  0  0  0  0  0  0  0  0  0
   -6.1767   26.6335    4.4290 C   0  0  0  0  0  0  0  0  0  0  0  0
   -6.0964   25.2397    4.3085 C   0  0  0  0  0  0  0  0  0  0  0  0
   -5.8684   24.6379    3.0594 C   0  0  0  0  0  0  0  0  0  0  0  0
   -5.7275   25.4709    1.9438 C   0  0  0  0  0  0  0  0  0  0  0  0
   -5.5144   24.9849    0.7144 F   0  0  0  0  0  0  0  0  0  0  0  0
   -5.8067   26.8596    2.0638 C   0  0  0  0  0  0  0  0  0  0  0  0
   -5.7888   23.2182    2.9492 N   0  0  0  0  0  0  0  0  0  0  0  0
   -6.7443   22.3726    2.4162 C   0  0  0  0  0  0  0  0  0  0  0  0
   -6.2400   21.0986    2.5195 C   0  0  0  0  0  0  0  0  0  0  0  0
   -5.0074   21.1149    3.0962 N   0  0  0  0  0  0  0  0  0  0  0  0
   -4.7616   22.3843    3.3423 C   0  0  0  0  0  0  0  0  0  0  0  0
  1  2  2  0  0  0
  2  3  1  0  0  0
  3 16  1  0  0  0
 16 17  1  0  0  0
 17 18  1  0  0  0
 18 19  2  0  0  0
 19 20  1  0  0  0
 20 24  1  0  0  0
 24 25  1  0  0  0
 25 26  2  0  0  0
 26 27  1  0  0  0
 27 28  2  0  0  0
 20 21  2  0  0  0
 21 22  1  0  0  0
 21 23  1  0  0  0
  2  5  1  0  0  0
  5  6  2  0  0  0
  6  7  1  0  0  0
  7  8  1  0  0  0
  8 10  1  0  0  0
 10 11  2  0  0  0
 11 12  1  0  0  0
 12 13  2  0  0  0
 13 14  1  0  0  0
 14 15  2  0  0  0
  8  9  2  0  0  0
 23 17  2  0  0  0
  9  5  1  0  0  0
 28 24  1  0  0  0
 15 10  1  0  0  0
  3  4  1  0  0  0
M  END
> <minimizedAffinity>
-8.59248

$$$$
OCNT-2315996


 31 34  0  0  0  0  0  0  0  0999 V2000
   -3.3426   27.6775    6.0890 N   0  0  0  0  0  0  0  0  0  0  0  0
   -4.5189   27.7245    5.3902 C   0  0  0  0  0  0  0  0  0  0  0  0
   -5.2665   28.6968    5.3192 O   0  0  0  0  0  0  0  0  0  0  0  0
   -4.8357   26.5375    4.7177 N   0  0  0  0  0  0  0  0  0  0  0  0
   -6.0020   26.5638    3.8383 C   0  0  0  0  0  0  0  0  0  0  0  0
   -6.0119   25.4214    2.8297 C   0  0  0  0  0  0  0  0  0  0  0  0
   -5.8479   24.0393    3.4783 C   0  0  0  0  0  0  0  0  0  0  0  0
   -5.1922   24.0932    4.8625 C   0  0  0  0  0  0  0  0  0  0  0  0
   -4.1977   25.2420    4.9637 C   0  0  0  0  0  0  0  0  0  0  0  0
   -2.6509   26.9948    5.8299 H   0  0  0  0  0  0  0  0  0  0  0  0
   -3.4252   31.4411    9.0895 C   0  0  0  0  0  0  0  0  0  0  0  0
   -2.5445   32.2840    9.7768 C   0  0  0  0  0  0  0  0  0  0  0  0
   -1.1759   32.0415    9.7508 C   0  0  0  0  0  0  0  0  0  0  0  0
   -0.6539   30.9709    9.0195 C   0  0  0  0  0  0  0  0  0  0  0  0
   -1.5434   30.1539    8.2999 C   0  0  0  0  0  0  0  0  0  0  0  0
   -2.9250   30.3648    8.3152 C   0  0  0  0  0  0  0  0  0  0  0  0
   -3.6590   29.4729    7.5385 N   0  0  0  0  0  0  0  0  0  0  0  0
   -2.8525   28.6198    6.9570 C   0  0  0  0  0  0  0  0  0  0  0  0
   -1.1958   28.8091    7.2833 S   0  0  0  0  0  0  0  0  0  0  0  0
   -4.9592   33.1055    8.6538 C   0  0  0  0  0  0  0  0  0  0  0  0
   -4.7677   31.7725    9.1291 O   0  0  0  0  0  0  0  0  0  0  0  0
   -7.1653   23.2601    3.5056 C   0  0  0  0  0  0  0  0  0  0  0  0
   -7.5932   22.7562    2.4712 O   0  0  0  0  0  0  0  0  0  0  0  0
   -7.7721   23.2013    4.7461 N   0  0  0  0  0  0  0  0  0  0  0  0
   -7.2945   23.6466    5.5179 H   0  0  0  0  0  0  0  0  0  0  0  0
   -8.9791   22.5468    5.0801 C   0  0  0  0  0  0  0  0  0  0  0  0
   -9.8488   23.2141    5.9446 C   0  0  0  0  0  0  0  0  0  0  0  0
  -11.0392   22.5983    6.2970 C   0  0  0  0  0  0  0  0  0  0  0  0
  -11.4115   21.3814    5.8547 N   0  0  0  0  0  0  0  0  0  0  0  0
  -10.5558   20.7561    5.0207 C   0  0  0  0  0  0  0  0  0  0  0  0
   -9.3441   21.2903    4.6087 C   0  0  0  0  0  0  0  0  0  0  0  0
 20 21  1  0  0  0
 21 11  1  0  0  0
 11 12  1  0  0  0
 12 13  2  0  0  0
 13 14  1  0  0  0
 14 15  2  0  0  0
 15 16  1  0  0  0
 16 17  1  0  0  0
 17 18  2  0  0  0
 18  1  1  0  0  0
  1  2  1  0  0  0
  2  3  2  0  0  0
  2  4  1  0  0  0
  4  5  1  0  0  0
  5  6  1  0  0  0
  6  7  1  0  0  0
  7 22  1  0  0  0
 22 23  2  0  0  0
 22 24  1  0  0  0
 24 26  1  0  0  0
 26 27  2  0  0  0
 27 28  1  0  0  0
 28 29  2  0  0  0
 29 30  1  0  0  0
 30 31  2  0  0  0
  7  8  1  0  0  0
  8  9  1  0  0  0
 18 19  1  0  0  0
 16 11  2  0  0  0
  9  4  1  0  0  0
 19 15  1  0  0  0
 31 26  1  0  0  0
  1 10  1  0  0  0
 24 25  1  0  0  0
M  END
> <minimizedAffinity>
-9.35210

$$$$
OCNT-2316012


 24 26  0  0  0  0  0  0  0  0999 V2000
   -2.5543   27.5057    6.4464 C   0  0  0  0  0  0  0  0  0  0  0  0
   -1.2999   27.3035    7.1849 N   0  0  0  0  0  0  0  0  0  0  0  0
   -0.5343   27.2623    6.5100 H   0  0  0  0  0  0  0  0  0  0  0  0
    1.2245   29.2670    8.7789 C   0  0  0  0  0  0  0  0  0  0  0  0
    0.0619   29.3274    7.7874 C   0  0  0  0  0  0  0  0  0  0  0  0
    0.5997   29.3107    6.3475 C   0  0  0  0  0  0  0  0  0  0  0  0
   -1.1294   28.3795    8.1654 C   0  0  0  0  0  0  0  0  0  0  0  0
   -2.1107   29.5300    7.7896 C   0  0  0  0  0  0  0  0  0  0  0  0
   -3.1813   29.8991    8.8161 C   0  0  0  0  0  0  0  0  0  0  0  0
   -2.7439   31.2550    9.3581 C   0  0  0  0  0  0  0  0  0  0  0  0
   -1.2246   31.1715    9.3468 C   0  0  0  0  0  0  0  0  0  0  0  0
   -0.9348   30.5232    7.9933 C   0  0  0  0  0  0  0  0  0  0  0  0
   -2.7509   26.4055    5.3909 C   0  0  0  0  0  0  0  0  0  0  0  0
   -3.9099   25.5737    5.7175 N   0  0  0  0  0  0  0  0  0  0  0  0
   -4.1288   25.3635    6.6893 H   0  0  0  0  0  0  0  0  0  0  0  0
   -5.1865   25.4410    4.6481 S   0  0  0  0  0  0  0  0  0  0  0  0
   -4.6188   25.0087    3.3904 O   0  0  0  0  0  0  0  0  0  0  0  0
   -6.2445   24.7024    5.3007 O   0  0  0  0  0  0  0  0  0  0  0  0
   -5.6935   27.1299    4.4610 C   0  0  0  0  0  0  0  0  0  0  0  0
   -6.1428   27.8354    5.5816 C   0  0  0  0  0  0  0  0  0  0  0  0
   -6.5304   29.1680    5.4431 C   0  0  0  0  0  0  0  0  0  0  0  0
   -6.4611   29.7892    4.1947 C   0  0  0  0  0  0  0  0  0  0  0  0
   -6.0004   29.0835    3.0813 C   0  0  0  0  0  0  0  0  0  0  0  0
   -5.6107   27.7504    3.2113 C   0  0  0  0  0  0  0  0  0  0  0  0
  4  5  1  0  0  0
  5  6  1  0  0  0
  5  7  1  0  0  0
  7  2  1  0  0  0
  2  1  1  0  0  0
  1 13  1  0  0  0
 13 14  1  0  0  0
 14 16  1  0  0  0
 16 17  2  0  0  0
 16 18  2  0  0  0
 16 19  1  0  0  0
 19 20  2  0  0  0
 20 21  1  0  0  0
 21 22  2  0  0  0
 22 23  1  0  0  0
 23 24  2  0  0  0
  7  8  1  0  0  0
  8  9  1  0  0  0
  9 10  1  0  0  0
 10 11  1  0  0  0
 11 12  1  0  0  0
 12  5  1  0  0  0
 24 19  1  0  0  0
 12  8  1  0  0  0
  2  3  1  0  0  0
 14 15  1  0  0  0
M  END
> <minimizedAffinity>
-8.87611

$$$$
OCNT-2316017


 25 27  0  0  0  0  0  0  0  0999 V2000
   -3.3766   25.8697    5.7984 N   0  0  0  0  0  0  0  0  0  0  0  0
   -3.4507   25.4595    6.7266 H   0  0  0  0  0  0  0  0  0  0  0  0
   -2.1057   26.3760    5.5441 C   0  0  0  0  0  0  0  0  0  0  0  0
   -1.3156   25.9982    4.5237 C   0  0  0  0  0  0  0  0  0  0  0  0
    0.0489   26.5287    4.3147 C   0  0  0  0  0  0  0  0  0  0  0  0
    0.7290   26.1597    3.3637 O   0  0  0  0  0  0  0  0  0  0  0  0
    0.5051   27.4290    5.2303 N   0  0  0  0  0  0  0  0  0  0  0  0
   -0.2741   27.8923    6.2951 C   0  0  0  0  0  0  0  0  0  0  0  0
    0.2234   28.8493    7.1711 C   0  0  0  0  0  0  0  0  0  0  0  0
   -0.4861   29.3697    8.1960 N   0  0  0  0  0  0  0  0  0  0  0  0
   -1.7499   28.9207    8.3394 C   0  0  0  0  0  0  0  0  0  0  0  0
   -2.3315   27.9642    7.5184 C   0  0  0  0  0  0  0  0  0  0  0  0
   -1.5778   27.4134    6.4749 C   0  0  0  0  0  0  0  0  0  0  0  0
    1.4402   27.7829    5.0777 H   0  0  0  0  0  0  0  0  0  0  0  0
   -4.2435   25.1731    4.8337 C   0  0  0  0  0  0  0  0  0  0  0  0
   -5.7699   25.4697    5.0451 C   0  0  0  0  0  0  0  0  0  0  0  0
   -5.9815   26.9483    4.6999 C   0  0  0  0  0  0  0  0  0  0  0  0
   -5.7602   27.4296    3.3983 C   0  0  0  0  0  0  0  0  0  0  0  0
   -5.9312   28.7825    3.1027 C   0  0  0  0  0  0  0  0  0  0  0  0
   -6.3216   29.6708    4.1026 C   0  0  0  0  0  0  0  0  0  0  0  0
   -6.5444   29.2078    5.3981 C   0  0  0  0  0  0  0  0  0  0  0  0
   -6.3758   27.8547    5.6970 C   0  0  0  0  0  0  0  0  0  0  0  0
   -5.9922   23.7093    3.3427 C   0  0  0  0  0  0  0  0  0  0  0  0
   -6.7046   24.5906    4.2717 N   0  0  0  0  0  0  0  0  0  0  0  0
   -7.5084   23.7597    5.1810 C   0  0  0  0  0  0  0  0  0  0  0  0
 23 24  1  0  0  0
 24 25  1  0  0  0
 24 16  1  0  0  0
 16 15  1  0  0  0
 15  1  1  0  0  0
  1  3  1  0  0  0
  3  4  2  0  0  0
  4  5  1  0  0  0
  5  6  2  0  0  0
  5  7  1  0  0  0
  7  8  1  0  0  0
  8  9  2  0  0  0
  9 10  1  0  0  0
 10 11  2  0  0  0
 11 12  1  0  0  0
 12 13  2  0  0  0
 16 17  1  0  0  0
 17 18  2  0  0  0
 18 19  1  0  0  0
 19 20  2  0  0  0
 20 21  1  0  0  0
 21 22  2  0  0  0
 13  3  1  0  0  0
 22 17  1  0  0  0
 13  8  1  0  0  0
  1  2  1  0  0  0
  7 14  1  0  0  0
M  END
> <minimizedAffinity>
-8.59864

$$$$
OCNT-2316040


 27 30  0  0  0  0  0  0  0  0999 V2000
   -1.9180   27.6758    7.5431 N   0  0  0  0  0  0  0  0  0  0  0  0
   -2.7398   27.1619    7.8713 H   0  0  0  0  0  0  0  0  0  0  0  0
   -1.1033   29.8078    8.4762 C   0  0  0  0  0  0  0  0  0  0  0  0
   -1.4408   31.0788    8.9444 C   0  0  0  0  0  0  0  0  0  0  0  0
   -2.7832   31.4706    8.9882 C   0  0  0  0  0  0  0  0  0  0  0  0
   -3.1706   32.7388    9.4544 C   0  0  0  0  0  0  0  0  0  0  0  0
   -4.5191   33.0885    9.4977 C   0  0  0  0  0  0  0  0  0  0  0  0
   -5.4814   32.1761    9.0776 C   0  0  0  0  0  0  0  0  0  0  0  0
   -5.0901   30.9177    8.6131 C   0  0  0  0  0  0  0  0  0  0  0  0
   -3.7539   30.5440    8.5581 C   0  0  0  0  0  0  0  0  0  0  0  0
   -3.4281   29.3217    8.1016 N   0  0  0  0  0  0  0  0  0  0  0  0
   -2.1277   28.9646    8.0469 C   0  0  0  0  0  0  0  0  0  0  0  0
    1.3726   29.0440    8.5090 N   0  0  0  0  0  0  0  0  0  0  0  0
    0.2625   29.3855    8.5028 C   0  0  0  0  0  0  0  0  0  0  0  0
   -1.8619   27.6061    6.0717 C   0  0  0  0  0  0  0  0  0  0  0  0
   -3.1342   26.9881    5.4621 C   0  0  0  0  0  0  0  0  0  0  0  0
   -2.6863   25.7418    4.6858 C   0  0  0  0  0  0  0  0  0  0  0  0
   -1.2187   26.0220    4.3654 C   0  0  0  0  0  0  0  0  0  0  0  0
   -0.7105   26.6677    5.6455 C   0  0  0  0  0  0  0  0  0  0  0  0
    0.4936   27.3787    5.3993 O   0  0  0  0  0  0  0  0  0  0  0  0
    0.6864   27.8958    6.2052 H   0  0  0  0  0  0  0  0  0  0  0  0
   -3.5554   25.4869    3.4543 C   0  0  0  0  0  0  0  0  0  0  0  0
   -4.3906   24.3105    3.5837 N   0  0  0  0  0  0  0  0  0  0  0  0
   -5.3073   24.0763    4.5691 C   0  0  0  0  0  0  0  0  0  0  0  0
   -5.8627   22.8594    4.2526 C   0  0  0  0  0  0  0  0  0  0  0  0
   -5.3071   22.3562    3.1044 N   0  0  0  0  0  0  0  0  0  0  0  0
   -4.4277   23.2538    2.7205 C   0  0  0  0  0  0  0  0  0  0  0  0
 13 14  3  0  0  0
 14  3  1  0  0  0
  3  4  2  0  0  0
  4  5  1  0  0  0
  5  6  2  0  0  0
  6  7  1  0  0  0
  7  8  2  0  0  0
  8  9  1  0  0  0
  9 10  2  0  0  0
 10 11  1  0  0  0
 11 12  2  0  0  0
 12  1  1  0  0  0
  1 15  1  0  0  0
 15 16  1  0  0  0
 16 17  1  0  0  0
 17 22  1  0  0  0
 22 23  1  0  0  0
 23 24  1  0  0  0
 24 25  2  0  0  0
 25 26  1  0  0  0
 26 27  2  0  0  0
 17 18  1  0  0  0
 18 19  1  0  0  0
 19 20  1  0  0  0
 12  3  1  0  0  0
 19 15  1  0  0  0
 10  5  1  0  0  0
 27 23  1  0  0  0
  1  2  1  0  0  0
 20 21  1  0  0  0
M  END
> <minimizedAffinity>
-8.98468

$$$$
OCNT-2316044


 25 27  0  0  0  0  0  0  0  0999 V2000
   -4.0179   27.7873    6.7971 N   0  0  0  0  0  0  0  0  0  0  0  0
   -4.5915   27.7663    5.5409 C   0  0  0  0  0  0  0  0  0  0  0  0
   -5.0457   28.7552    4.9650 O   0  0  0  0  0  0  0  0  0  0  0  0
   -3.9636   26.8893    7.2798 H   0  0  0  0  0  0  0  0  0  0  0  0
   -6.1987   29.5360    8.2067 C   0  0  0  0  0  0  0  0  0  0  0  0
   -4.7020   29.5912    8.3403 C   0  0  0  0  0  0  0  0  0  0  0  0
   -3.8021   28.8496    7.6606 C   0  0  0  0  0  0  0  0  0  0  0  0
   -2.3246   29.2077    7.7784 C   0  0  0  0  0  0  0  0  0  0  0  0
   -1.5168   28.5727    7.0950 O   0  0  0  0  0  0  0  0  0  0  0  0
   -1.9836   30.2300    8.6539 N   0  0  0  0  0  0  0  0  0  0  0  0
   -0.5857   30.5905    8.8287 C   0  0  0  0  0  0  0  0  0  0  0  0
   -2.9360   30.9081    9.3827 C   0  0  0  0  0  0  0  0  0  0  0  0
   -4.2359   30.6250    9.2543 C   0  0  0  0  0  0  0  0  0  0  0  0
   -4.6515   26.3450    4.9316 C   0  0  0  0  0  0  0  0  0  0  0  0
   -4.6270   26.2347    3.3918 C   0  0  0  0  0  0  0  0  0  0  0  0
   -5.6863   25.2620    3.5358 N   0  0  0  0  0  0  0  0  0  0  0  0
   -6.1619   24.2314    2.7775 C   0  0  0  0  0  0  0  0  0  0  0  0
   -7.0292   23.4699    3.2016 O   0  0  0  0  0  0  0  0  0  0  0  0
   -6.0306   25.6604    4.8854 C   0  0  0  0  0  0  0  0  0  0  0  0
   -5.5440   24.0936    1.3817 C   0  0  0  0  0  0  0  0  0  0  0  0
   -5.9166   25.2874    0.4805 C   0  0  0  0  0  0  0  0  0  0  0  0
   -6.8174   24.9212   -0.6996 C   0  0  0  0  0  0  0  0  0  0  0  0
   -7.9063   23.9502   -0.2727 C   0  0  0  0  0  0  0  0  0  0  0  0
   -7.3255   22.6318    0.2320 C   0  0  0  0  0  0  0  0  0  0  0  0
   -5.8850   22.7433    0.7373 C   0  0  0  0  0  0  0  0  0  0  0  0
  5  6  1  0  0  0
  6  7  2  0  0  0
  7  1  1  0  0  0
  1  2  1  0  0  0
  2  3  2  0  0  0
  2 14  1  0  0  0
 14 15  1  0  0  0
 15 16  1  0  0  0
 16 17  1  0  0  0
 17 18  2  0  0  0
 17 20  1  0  0  0
 20 21  1  0  0  0
 21 22  1  0  0  0
 22 23  1  0  0  0
 23 24  1  0  0  0
 24 25  1  0  0  0
 16 19  1  0  0  0
  7  8  1  0  0  0
  8  9  2  0  0  0
  8 10  1  0  0  0
 10 11  1  0  0  0
 10 12  1  0  0  0
 12 13  2  0  0  0
 13  6  1  0  0  0
 19 14  1  0  0  0
 25 20  1  0  0  0
  1  4  1  0  0  0
M  END
> <minimizedAffinity>
-9.59151

$$$$
OCNT-2316070


 22 24  0  0  0  0  0  0  0  0999 V2000
   -7.5572   22.0076    3.4508 C   0  0  0  0  0  0  0  0  0  0  0  0
   -6.8796   20.9006    2.9362 C   0  0  0  0  0  0  0  0  0  0  0  0
   -5.9549   21.0772    1.9092 C   0  0  0  0  0  0  0  0  0  0  0  0
   -5.7220   22.3527    1.3880 C   0  0  0  0  0  0  0  0  0  0  0  0
   -6.4236   23.4689    1.8745 C   0  0  0  0  0  0  0  0  0  0  0  0
   -7.3479   23.2846    2.9140 C   0  0  0  0  0  0  0  0  0  0  0  0
   -8.1659   22.0616    5.8522 N   0  0  0  0  0  0  0  0  0  0  0  0
   -6.7678   22.2477    6.2376 C   0  0  0  0  0  0  0  0  0  0  0  0
   -8.5483   21.8018    4.5304 C   0  0  0  0  0  0  0  0  0  0  0  0
   -9.6624   21.4182    4.1883 O   0  0  0  0  0  0  0  0  0  0  0  0
   -9.8010   23.0124    8.7864 C   0  0  0  0  0  0  0  0  0  0  0  0
   -8.6071   22.0924    8.4175 C   0  0  0  0  0  0  0  0  0  0  0  0
   -9.1536   22.0910    6.9739 C   0  0  0  0  0  0  0  0  0  0  0  0
   -9.8287   23.4411    7.2952 C   0  0  0  0  0  0  0  0  0  0  0  0
  -10.5996   24.3907   10.6153 C   0  0  0  0  0  0  0  0  0  0  0  0
   -9.5210   24.0338    9.7644 O   0  0  0  0  0  0  0  0  0  0  0  0
   -6.1854   24.8437    1.3002 C   0  0  0  0  0  0  0  0  0  0  0  0
   -5.3067   25.6454    2.1339 N   0  0  0  0  0  0  0  0  0  0  0  0
   -3.9638   25.4549    2.3139 C   0  0  0  0  0  0  0  0  0  0  0  0
   -3.5899   26.4153    3.2248 C   0  0  0  0  0  0  0  0  0  0  0  0
   -4.6682   27.1702    3.6060 N   0  0  0  0  0  0  0  0  0  0  0  0
   -5.6877   26.6862    2.9325 C   0  0  0  0  0  0  0  0  0  0  0  0
 15 16  1  0  0  0
 16 11  1  0  0  0
 11 12  1  0  0  0
 12 13  1  0  0  0
 13  7  1  0  0  0
  7  8  1  0  0  0
  7  9  1  0  0  0
  9 10  2  0  0  0
  9  1  1  0  0  0
  1  2  1  0  0  0
  2  3  2  0  0  0
  3  4  1  0  0  0
  4  5  2  0  0  0
  5 17  1  0  0  0
 17 18  1  0  0  0
 18 19  1  0  0  0
 19 20  2  0  0  0
 20 21  1  0  0  0
 21 22  2  0  0  0
  5  6  1  0  0  0
 13 14  1  0  0  0
 14 11  1  0  0  0
  6  1  2  0  0  0
 22 18  1  0  0  0
M  END
> <minimizedAffinity>
-7.34811

$$$$
OCNT-2316072


 28 31  0  0  0  0  0  0  0  0999 V2000
   -6.4275   28.9295    6.4852 C   0  0  0  0  0  0  0  0  0  0  0  0
   -7.3401   29.7455    6.5441 O   0  0  0  0  0  0  0  0  0  0  0  0
   -5.5965   28.6291    7.5425 N   0  0  0  0  0  0  0  0  0  0  0  0
   -5.0467   27.7831    7.5082 H   0  0  0  0  0  0  0  0  0  0  0  0
   -5.5084   23.5045    1.9764 O   0  0  0  0  0  0  0  0  0  0  0  0
   -5.6400   24.5823    2.5367 C   0  0  0  0  0  0  0  0  0  0  0  0
   -5.8480   24.7472    3.8861 N   0  0  0  0  0  0  0  0  0  0  0  0
   -5.9446   26.0854    4.1330 C   0  0  0  0  0  0  0  0  0  0  0  0
   -6.1534   26.7672    5.3076 C   0  0  0  0  0  0  0  0  0  0  0  0
   -6.1983   28.1677    5.2260 C   0  0  0  0  0  0  0  0  0  0  0  0
   -6.0574   28.8200    3.9752 C   0  0  0  0  0  0  0  0  0  0  0  0
   -5.8460   28.0844    2.8012 C   0  0  0  0  0  0  0  0  0  0  0  0
   -5.7910   26.7129    2.9151 C   0  0  0  0  0  0  0  0  0  0  0  0
   -5.5954   25.8179    1.8763 O   0  0  0  0  0  0  0  0  0  0  0  0
   -5.9191   23.9847    4.5399 H   0  0  0  0  0  0  0  0  0  0  0  0
   -5.8082   29.2062    8.8523 C   0  0  0  0  0  0  0  0  0  0  0  0
   -4.9833   30.4554    9.0272 C   0  0  0  0  0  0  0  0  0  0  0  0
   -5.5821   31.7210    9.0039 C   0  0  0  0  0  0  0  0  0  0  0  0
   -4.8064   32.8707    9.1513 C   0  0  0  0  0  0  0  0  0  0  0  0
   -3.4246   32.7690    9.3149 C   0  0  0  0  0  0  0  0  0  0  0  0
   -2.8011   31.5141    9.3265 C   0  0  0  0  0  0  0  0  0  0  0  0
   -3.5917   30.3638    9.1824 C   0  0  0  0  0  0  0  0  0  0  0  0
   -1.3107   31.3947    9.5145 C   0  0  0  0  0  0  0  0  0  0  0  0
   -0.7238   30.4848    8.5480 N   0  0  0  0  0  0  0  0  0  0  0  0
   -0.9461   30.4762    7.1984 C   0  0  0  0  0  0  0  0  0  0  0  0
   -0.1320   29.4796    6.7125 C   0  0  0  0  0  0  0  0  0  0  0  0
    0.5841   28.8973    7.7265 N   0  0  0  0  0  0  0  0  0  0  0  0
    0.2063   29.5218    8.8193 C   0  0  0  0  0  0  0  0  0  0  0  0
  5  6  2  0  0  0
  6  7  1  0  0  0
  7  8  1  0  0  0
  8  9  1  0  0  0
  9 10  2  0  0  0
 10  1  1  0  0  0
  1  2  2  0  0  0
  1  3  1  0  0  0
  3 16  1  0  0  0
 16 17  1  0  0  0
 17 18  1  0  0  0
 18 19  2  0  0  0
 19 20  1  0  0  0
 20 21  2  0  0  0
 21 23  1  0  0  0
 23 24  1  0  0  0
 24 25  1  0  0  0
 25 26  2  0  0  0
 26 27  1  0  0  0
 27 28  2  0  0  0
 21 22  1  0  0  0
 10 11  1  0  0  0
 11 12  2  0  0  0
 12 13  1  0  0  0
 13 14  1  0  0  0
 14  6  1  0  0  0
 13  8  2  0  0  0
 22 17  2  0  0  0
 28 24  1  0  0  0
  7 15  1  0  0  0
  3  4  1  0  0  0
M  END
> <minimizedAffinity>
-9.94302

$$$$
OCNT-2316082


 23 26  0  0  0  0  0  0  0  0999 V2000
   -5.8199   29.5708    6.8600 S   0  0  0  0  0  0  0  0  0  0  0  0
   -6.9462   30.4737    6.7440 O   0  0  0  0  0  0  0  0  0  0  0  0
   -5.7026   28.7070    8.0193 O   0  0  0  0  0  0  0  0  0  0  0  0
   -2.2619   31.9498   10.1678 C   0  0  0  0  0  0  0  0  0  0  0  0
   -2.7272   31.6333    8.8196 N   0  0  0  0  0  0  0  0  0  0  0  0
   -4.0331   32.2017    8.4536 C   0  0  0  0  0  0  0  0  0  0  0  0
   -4.4155   31.9046    7.0042 C   0  0  0  0  0  0  0  0  0  0  0  0
   -4.3597   30.4472    6.7217 N   0  0  0  0  0  0  0  0  0  0  0  0
   -3.1499   29.8080    7.2040 C   0  0  0  0  0  0  0  0  0  0  0  0
   -2.7121   28.6040    6.6473 C   0  0  0  0  0  0  0  0  0  0  0  0
   -1.6213   27.9206    7.0622 N   0  0  0  0  0  0  0  0  0  0  0  0
   -0.9191   28.4781    8.0636 C   0  0  0  0  0  0  0  0  0  0  0  0
   -1.2558   29.6805    8.6714 C   0  0  0  0  0  0  0  0  0  0  0  0
   -2.3975   30.3842    8.2585 C   0  0  0  0  0  0  0  0  0  0  0  0
   -5.8575   28.5169    5.4246 C   0  0  0  0  0  0  0  0  0  0  0  0
   -5.8163   27.1323    5.5802 C   0  0  0  0  0  0  0  0  0  0  0  0
   -5.8284   26.3111    4.4484 C   0  0  0  0  0  0  0  0  0  0  0  0
   -5.8588   26.8387    3.1429 C   0  0  0  0  0  0  0  0  0  0  0  0
   -5.8626   28.2420    3.0257 C   0  0  0  0  0  0  0  0  0  0  0  0
   -5.8529   29.0781    4.1476 C   0  0  0  0  0  0  0  0  0  0  0  0
   -5.8709   25.8968    1.9521 C   0  0  0  0  0  0  0  0  0  0  0  0
   -5.8055   24.4004    2.1398 C   0  0  0  0  0  0  0  0  0  0  0  0
   -4.6364   25.1307    1.5426 C   0  0  0  0  0  0  0  0  0  0  0  0
  4  5  1  0  0  0
  5  6  1  0  0  0
  6  7  1  0  0  0
  7  8  1  0  0  0
  8  1  1  0  0  0
  1  2  2  0  0  0
  1  3  2  0  0  0
  1 15  1  0  0  0
 15 16  1  0  0  0
 16 17  2  0  0  0
 17 18  1  0  0  0
 18 21  1  0  0  0
 21 22  1  0  0  0
 22 23  1  0  0  0
 18 19  2  0  0  0
 19 20  1  0  0  0
  8  9  1  0  0  0
  9 10  2  0  0  0
 10 11  1  0  0  0
 11 12  2  0  0  0
 12 13  1  0  0  0
 13 14  2  0  0  0
 14  5  1  0  0  0
 20 15  2  0  0  0
 14  9  1  0  0  0
 23 21  1  0  0  0
M  END
> <minimizedAffinity>
-8.80351

$$$$
OCNT-2316083


 22 24  0  0  0  0  0  0  0  0999 V2000
   -6.0430   28.2441    6.2012 C   0  0  0  0  0  0  0  0  0  0  0  0
   -7.1250   28.6054    6.8646 N   0  0  0  0  0  0  0  0  0  0  0  0
   -6.6949   29.3437    7.9470 N   0  0  0  0  0  0  0  0  0  0  0  0
   -5.3818   29.3973    7.8668 C   0  0  0  0  0  0  0  0  0  0  0  0
   -4.8984   28.7227    6.7792 O   0  0  0  0  0  0  0  0  0  0  0  0
   -5.5955   24.9506    1.4521 C   0  0  0  0  0  0  0  0  0  0  0  0
   -5.7308   25.8215    2.6660 C   0  0  0  0  0  0  0  0  0  0  0  0
   -5.6879   25.2664    3.9434 C   0  0  0  0  0  0  0  0  0  0  0  0
   -5.7892   26.0870    5.0688 C   0  0  0  0  0  0  0  0  0  0  0  0
   -5.9277   27.4844    4.9555 C   0  0  0  0  0  0  0  0  0  0  0  0
   -5.9336   28.0543    3.6626 C   0  0  0  0  0  0  0  0  0  0  0  0
   -6.0371   29.5369    3.4176 C   0  0  0  0  0  0  0  0  0  0  0  0
   -5.8407   27.2106    2.5361 C   0  0  0  0  0  0  0  0  0  0  0  0
   -4.3440   30.2087    8.9994 S   0  0  0  0  0  0  0  0  0  0  0  0
   -4.1141   31.8004    8.1502 C   0  0  0  0  0  0  0  0  0  0  0  0
   -2.6239   32.1304    8.0664 C   0  0  0  0  0  0  0  0  0  0  0  0
   -1.9088   31.3157    6.9865 C   0  0  0  0  0  0  0  0  0  0  0  0
   -0.8490   30.4742    7.4999 N   0  0  0  0  0  0  0  0  0  0  0  0
   -0.0790   29.6122    6.7707 C   0  0  0  0  0  0  0  0  0  0  0  0
    0.7661   29.0320    7.6876 C   0  0  0  0  0  0  0  0  0  0  0  0
    0.5193   29.5125    8.9475 N   0  0  0  0  0  0  0  0  0  0  0  0
   -0.4629   30.3736    8.8053 C   0  0  0  0  0  0  0  0  0  0  0  0
  6  7  1  0  0  0
  7  8  1  0  0  0
  8  9  2  0  0  0
  9 10  1  0  0  0
 10  1  1  0  0  0
  1  2  2  0  0  0
  2  3  1  0  0  0
  3  4  2  0  0  0
  4 14  1  0  0  0
 14 15  1  0  0  0
 15 16  1  0  0  0
 16 17  1  0  0  0
 17 18  1  0  0  0
 18 19  1  0  0  0
 19 20  2  0  0  0
 20 21  1  0  0  0
 21 22  2  0  0  0
  4  5  1  0  0  0
 10 11  2  0  0  0
 11 12  1  0  0  0
 11 13  1  0  0  0
 13  7  2  0  0  0
  5  1  1  0  0  0
 22 18  1  0  0  0
M  END
> <minimizedAffinity>
-8.18607

$$$$
OCNT-2316089


 29 32  0  0  0  0  0  0  0  0999 V2000
   -3.9468   25.3081    3.2595 C   0  0  0  0  0  0  0  0  0  0  0  0
   -4.4315   26.0820    2.1964 C   0  0  0  0  0  0  0  0  0  0  0  0
   -5.4865   25.6287    1.3978 C   0  0  0  0  0  0  0  0  0  0  0  0
   -6.0790   24.3831    1.6349 C   0  0  0  0  0  0  0  0  0  0  0  0
   -7.0706   23.9818    0.7281 N   0  0  0  0  0  0  0  0  0  0  0  0
   -7.4062   22.6973    0.3875 C   0  0  0  0  0  0  0  0  0  0  0  0
   -8.2732   22.5104   -0.4681 O   0  0  0  0  0  0  0  0  0  0  0  0
   -6.5985   21.5642    0.9959 C   0  0  0  0  0  0  0  0  0  0  0  0
   -6.8337   21.4759    2.4315 N   0  0  0  0  0  0  0  0  0  0  0  0
   -6.4032   22.4176    3.2015 C   0  0  0  0  0  0  0  0  0  0  0  0
   -5.6612   23.6312    2.7410 C   0  0  0  0  0  0  0  0  0  0  0  0
   -4.5811   24.0836    3.5214 C   0  0  0  0  0  0  0  0  0  0  0  0
   -7.4906   24.6695    0.1155 H   0  0  0  0  0  0  0  0  0  0  0  0
   -0.4221   26.1137    4.3949 C   0  0  0  0  0  0  0  0  0  0  0  0
   -0.6472   26.6750    5.6541 C   0  0  0  0  0  0  0  0  0  0  0  0
   -1.9484   26.7934    6.1430 C   0  0  0  0  0  0  0  0  0  0  0  0
   -3.0231   26.3488    5.3691 C   0  0  0  0  0  0  0  0  0  0  0  0
   -4.2946   26.4595    5.8650 O   0  0  0  0  0  0  0  0  0  0  0  0
   -2.8281   25.7790    4.0970 C   0  0  0  0  0  0  0  0  0  0  0  0
   -1.5059   25.6702    3.6256 C   0  0  0  0  0  0  0  0  0  0  0  0
   -4.2632   26.8327    6.7611 H   0  0  0  0  0  0  0  0  0  0  0  0
    1.9951   25.8970    3.4786 N   0  0  0  0  0  0  0  0  0  0  0  0
    0.9139   25.9932    3.8888 C   0  0  0  0  0  0  0  0  0  0  0  0
   -6.6962   22.2734    4.6647 C   0  0  0  0  0  0  0  0  0  0  0  0
   -8.0210   22.3770    5.1051 C   0  0  0  0  0  0  0  0  0  0  0  0
   -8.3192   22.2498    6.4626 C   0  0  0  0  0  0  0  0  0  0  0  0
   -7.2953   22.0301    7.3838 C   0  0  0  0  0  0  0  0  0  0  0  0
   -5.9714   21.9460    6.9521 C   0  0  0  0  0  0  0  0  0  0  0  0
   -5.6683   22.0729    5.5950 C   0  0  0  0  0  0  0  0  0  0  0  0
 22 23  3  0  0  0
 23 14  1  0  0  0
 14 15  1  0  0  0
 15 16  2  0  0  0
 16 17  1  0  0  0
 17 18  1  0  0  0
 17 19  2  0  0  0
 19  1  1  0  0  0
  1  2  1  0  0  0
  2  3  2  0  0  0
  3  4  1  0  0  0
  4  5  1  0  0  0
  5  6  1  0  0  0
  6  7  2  0  0  0
  6  8  1  0  0  0
  8  9  1  0  0  0
  9 10  2  0  0  0
 10 24  1  0  0  0
 24 25  2  0  0  0
 25 26  1  0  0  0
 26 27  2  0  0  0
 27 28  1  0  0  0
 28 29  2  0  0  0
 10 11  1  0  0  0
 11 12  1  0  0  0
 19 20  1  0  0  0
 20 14  2  0  0  0
 12  1  2  0  0  0
 11  4  2  0  0  0
 29 24  1  0  0  0
 18 21  1  0  0  0
  5 13  1  0  0  0
M  END
> <minimizedAffinity>
-10.63259

$$$$
OCNT-2316100


 25 28  0  0  0  0  0  0  0  0999 V2000
   -2.6283   27.9173    6.8595 C   0  0  0  0  0  0  0  0  0  0  0  0
   -1.9535   26.7658    6.9995 N   0  0  0  0  0  0  0  0  0  0  0  0
   -2.4279   25.9826    5.9506 O   0  0  0  0  0  0  0  0  0  0  0  0
   -3.3576   26.7306    5.2778 C   0  0  0  0  0  0  0  0  0  0  0  0
   -3.5096   27.9227    5.8023 N   0  0  0  0  0  0  0  0  0  0  0  0
   -3.4096   30.9499    8.9749 C   0  0  0  0  0  0  0  0  0  0  0  0
   -2.1329   31.2840    9.4250 C   0  0  0  0  0  0  0  0  0  0  0  0
   -1.0396   30.5208    9.0371 C   0  0  0  0  0  0  0  0  0  0  0  0
    0.1827   30.8501    9.4751 F   0  0  0  0  0  0  0  0  0  0  0  0
   -1.1913   29.4216    8.2020 C   0  0  0  0  0  0  0  0  0  0  0  0
   -2.4647   29.0706    7.7384 C   0  0  0  0  0  0  0  0  0  0  0  0
   -3.5727   29.8451    8.1330 C   0  0  0  0  0  0  0  0  0  0  0  0
   -4.2847   33.1585    9.1233 C   0  0  0  0  0  0  0  0  0  0  0  0
   -4.4056   31.7730    9.4230 O   0  0  0  0  0  0  0  0  0  0  0  0
   -3.9770   26.1888    4.1935 N   0  0  0  0  0  0  0  0  0  0  0  0
   -4.8189   27.0685    3.3803 C   0  0  0  0  0  0  0  0  0  0  0  0
   -5.7546   26.2433    2.5009 C   0  0  0  0  0  0  0  0  0  0  0  0
   -4.9699   25.2260    1.6669 C   0  0  0  0  0  0  0  0  0  0  0  0
   -4.1243   24.3389    2.5852 C   0  0  0  0  0  0  0  0  0  0  0  0
   -3.2028   25.1839    3.4600 C   0  0  0  0  0  0  0  0  0  0  0  0
   -5.8813   24.4107    0.8193 C   0  0  0  0  0  0  0  0  0  0  0  0
   -6.7397   24.6678   -0.2266 C   0  0  0  0  0  0  0  0  0  0  0  0
   -7.3404   23.5058   -0.6376 N   0  0  0  0  0  0  0  0  0  0  0  0
   -6.8319   22.5978    0.1635 C   0  0  0  0  0  0  0  0  0  0  0  0
   -5.9373   23.0673    1.0760 O   0  0  0  0  0  0  0  0  0  0  0  0
 13 14  1  0  0  0
 14  6  1  0  0  0
  6  7  1  0  0  0
  7  8  2  0  0  0
  8  9  1  0  0  0
  8 10  1  0  0  0
 10 11  2  0  0  0
 11  1  1  0  0  0
  1  2  2  0  0  0
  2  3  1  0  0  0
  3  4  1  0  0  0
  4 15  1  0  0  0
 15 16  1  0  0  0
 16 17  1  0  0  0
 17 18  1  0  0  0
 18 21  1  0  0  0
 21 22  2  0  0  0
 22 23  1  0  0  0
 23 24  2  0  0  0
 24 25  1  0  0  0
 18 19  1  0  0  0
 19 20  1  0  0  0
  4  5  2  0  0  0
 11 12  1  0  0  0
 12  6  2  0  0  0
  5  1  1  0  0  0
 20 15  1  0  0  0
 25 21  1  0  0  0
M  END
> <minimizedAffinity>
-9.30244

$$$$
OCNT-2316109


 22 25  0  0  0  0  0  0  0  0999 V2000
   -5.2678   25.9502    3.7429 N   0  0  0  0  0  0  0  0  0  0  0  0
   -3.9470   26.1135    4.0982 C   0  0  0  0  0  0  0  0  0  0  0  0
   -3.9728   26.9575    5.1860 C   0  0  0  0  0  0  0  0  0  0  0  0
   -5.2728   27.2813    5.4626 N   0  0  0  0  0  0  0  0  0  0  0  0
   -6.0513   26.6672    4.5839 N   0  0  0  0  0  0  0  0  0  0  0  0
   -2.8397   27.4532    5.9504 C   0  0  0  0  0  0  0  0  0  0  0  0
   -1.5841   26.8329    5.9070 C   0  0  0  0  0  0  0  0  0  0  0  0
   -0.5136   27.3350    6.6548 C   0  0  0  0  0  0  0  0  0  0  0  0
   -0.6794   28.4713    7.4632 C   0  0  0  0  0  0  0  0  0  0  0  0
    0.3531   29.0168    8.2310 C   0  0  0  0  0  0  0  0  0  0  0  0
    0.2283   30.1091    9.0199 N   0  0  0  0  0  0  0  0  0  0  0  0
   -0.9869   30.6933    9.0498 C   0  0  0  0  0  0  0  0  0  0  0  0
   -2.0809   30.2390    8.3302 C   0  0  0  0  0  0  0  0  0  0  0  0
   -1.9328   29.1071    7.5192 C   0  0  0  0  0  0  0  0  0  0  0  0
   -2.9991   28.5897    6.7612 C   0  0  0  0  0  0  0  0  0  0  0  0
   -7.5885   22.6724   -0.6330 Cl  0  0  0  0  0  0  0  0  0  0  0  0
   -6.9155   23.6244    0.6316 C   0  0  0  0  0  0  0  0  0  0  0  0
   -6.3528   24.8655    0.3394 C   0  0  0  0  0  0  0  0  0  0  0  0
   -5.8034   25.6458    1.3631 C   0  0  0  0  0  0  0  0  0  0  0  0
   -5.8186   25.1785    2.6855 C   0  0  0  0  0  0  0  0  0  0  0  0
   -6.3884   23.9259    2.9686 C   0  0  0  0  0  0  0  0  0  0  0  0
   -6.9355   23.1518    1.9411 C   0  0  0  0  0  0  0  0  0  0  0  0
 16 17  1  0  0  0
 17 18  1  0  0  0
 18 19  2  0  0  0
 19 20  1  0  0  0
 20  1  1  0  0  0
  1  2  1  0  0  0
  2  3  2  0  0  0
  3  6  1  0  0  0
  6  7  1  0  0  0
  7  8  2  0  0  0
  8  9  1  0  0  0
  9 10  2  0  0  0
 10 11  1  0  0  0
 11 12  2  0  0  0
 12 13  1  0  0  0
 13 14  2  0  0  0
 14 15  1  0  0  0
  3  4  1  0  0  0
  4  5  2  0  0  0
 20 21  2  0  0  0
 21 22  1  0  0  0
 22 17  2  0  0  0
  5  1  1  0  0  0
 15  6  2  0  0  0
 14  9  1  0  0  0
M  END
> <minimizedAffinity>
-9.21687

$$$$
OCNT-2316119


 30 33  0  0  0  0  0  0  0  0999 V2000
   -4.3503   26.9105    5.6060 N   0  0  0  0  0  0  0  0  0  0  0  0
   -4.5602   27.4069    6.4618 H   0  0  0  0  0  0  0  0  0  0  0  0
   -2.9777   26.7473    5.4561 C   0  0  0  0  0  0  0  0  0  0  0  0
   -2.4835   25.8137    4.6069 N   0  0  0  0  0  0  0  0  0  0  0  0
   -1.1512   25.6937    4.4558 C   0  0  0  0  0  0  0  0  0  0  0  0
   -0.1877   26.3971    5.0648 N   0  0  0  0  0  0  0  0  0  0  0  0
   -0.7061   27.2907    5.9170 C   0  0  0  0  0  0  0  0  0  0  0  0
   -2.0468   27.5238    6.1829 C   0  0  0  0  0  0  0  0  0  0  0  0
   -2.0899   28.5510    7.1892 C   0  0  0  0  0  0  0  0  0  0  0  0
   -3.1220   29.2022    7.9046 C   0  0  0  0  0  0  0  0  0  0  0  0
   -2.8006   30.1939    8.8401 C   0  0  0  0  0  0  0  0  0  0  0  0
   -1.4758   30.5349    9.0703 C   0  0  0  0  0  0  0  0  0  0  0  0
   -1.1935   31.4861    9.9707 F   0  0  0  0  0  0  0  0  0  0  0  0
   -0.4296   29.9106    8.3959 C   0  0  0  0  0  0  0  0  0  0  0  0
   -0.7668   28.9204    7.4651 C   0  0  0  0  0  0  0  0  0  0  0  0
    0.0437   28.1394    6.6767 N   0  0  0  0  0  0  0  0  0  0  0  0
    1.0520   28.1656    6.6557 H   0  0  0  0  0  0  0  0  0  0  0  0
   -5.2111   27.3425    4.4974 C   0  0  0  0  0  0  0  0  0  0  0  0
   -5.6356   26.1469    3.6478 C   0  0  0  0  0  0  0  0  0  0  0  0
   -6.1304   24.9906    4.2823 C   0  0  0  0  0  0  0  0  0  0  0  0
   -6.5501   23.8828    3.5382 C   0  0  0  0  0  0  0  0  0  0  0  0
   -6.4863   23.9186    2.1470 C   0  0  0  0  0  0  0  0  0  0  0  0
   -7.0068   22.5519    1.2393 Cl  0  0  0  0  0  0  0  0  0  0  0  0
   -6.0061   25.0575    1.5082 C   0  0  0  0  0  0  0  0  0  0  0  0
   -5.9418   25.1161    0.1694 F   0  0  0  0  0  0  0  0  0  0  0  0
   -5.5844   26.1628    2.2455 C   0  0  0  0  0  0  0  0  0  0  0  0
   -6.3349   28.3067    4.9219 C   0  0  0  0  0  0  0  0  0  0  0  0
   -5.8203   29.6203    2.9625 O   0  0  0  0  0  0  0  0  0  0  0  0
   -6.1600   29.7046    4.3424 C   0  0  0  0  0  0  0  0  0  0  0  0
   -5.7259   30.5348    2.6431 H   0  0  0  0  0  0  0  0  0  0  0  0
 28 29  1  0  0  0
 29 27  1  0  0  0
 27 18  1  0  0  0
 18  1  1  0  0  0
  1  3  1  0  0  0
  3  4  1  0  0  0
  4  5  2  0  0  0
  5  6  1  0  0  0
  6  7  2  0  0  0
  7  8  1  0  0  0
  8  9  1  0  0  0
  9 10  2  0  0  0
 10 11  1  0  0  0
 11 12  2  0  0  0
 12 13  1  0  0  0
 12 14  1  0  0  0
 14 15  2  0  0  0
 15 16  1  0  0  0
 18 19  1  0  0  0
 19 20  1  0  0  0
 20 21  2  0  0  0
 21 22  1  0  0  0
 22 23  1  0  0  0
 22 24  2  0  0  0
 24 25  1  0  0  0
 24 26  1  0  0  0
  8  3  2  0  0  0
 15  9  1  0  0  0
 26 19  2  0  0  0
 16  7  1  0  0  0
 28 30  1  0  0  0
  1  2  1  0  0  0
 16 17  1  0  0  0
M  END
> <minimizedAffinity>
-10.25913

$$$$
OCNT-2316120


 24 27  0  0  0  0  0  0  0  0999 V2000
   -3.7967   26.2579    3.4501 C   0  0  0  0  0  0  0  0  0  0  0  0
   -5.8823   21.0834    1.6363 C   0  0  0  0  0  0  0  0  0  0  0  0
   -6.2150   22.4289    1.0536 C   0  0  0  0  0  0  0  0  0  0  0  0
   -7.1111   22.4873   -0.0340 C   0  0  0  0  0  0  0  0  0  0  0  0
   -7.4650   23.6983   -0.6261 C   0  0  0  0  0  0  0  0  0  0  0  0
   -6.9414   24.9035   -0.1592 C   0  0  0  0  0  0  0  0  0  0  0  0
   -6.0540   24.8463    0.9200 C   0  0  0  0  0  0  0  0  0  0  0  0
   -5.6785   23.6495    1.5326 C   0  0  0  0  0  0  0  0  0  0  0  0
   -4.7683   23.9937    2.5765 C   0  0  0  0  0  0  0  0  0  0  0  0
   -4.6084   25.3643    2.5809 C   0  0  0  0  0  0  0  0  0  0  0  0
   -5.3980   25.8628    1.5733 N   0  0  0  0  0  0  0  0  0  0  0  0
   -5.4527   26.8437    1.3341 H   0  0  0  0  0  0  0  0  0  0  0  0
   -4.4952   27.5295    3.6137 N   0  0  0  0  0  0  0  0  0  0  0  0
   -3.8365   28.2860    3.4231 H   0  0  0  0  0  0  0  0  0  0  0  0
   -5.0698   27.6975    4.9585 C   0  0  0  0  0  0  0  0  0  0  0  0
   -6.1660   28.7975    4.8728 C   0  0  0  0  0  0  0  0  0  0  0  0
   -6.9244   28.9783    6.2052 C   0  0  0  0  0  0  0  0  0  0  0  0
   -5.9785   29.0066    7.3463 C   0  0  0  0  0  0  0  0  0  0  0  0
   -4.6781   28.5688    7.2561 C   0  0  0  0  0  0  0  0  0  0  0  0
   -4.0024   28.0474    6.0429 C   0  0  0  0  0  0  0  0  0  0  0  0
   -4.1247   28.7354    8.4885 N   0  0  0  0  0  0  0  0  0  0  0  0
   -4.9910   29.2488    9.3823 N   0  0  0  0  0  0  0  0  0  0  0  0
   -6.1199   29.4134    8.6836 C   0  0  0  0  0  0  0  0  0  0  0  0
   -3.1798   28.5295    8.7963 H   0  0  0  0  0  0  0  0  0  0  0  0
  2  3  1  0  0  0
  3  4  1  0  0  0
  4  5  2  0  0  0
  5  6  1  0  0  0
  6  7  2  0  0  0
  7  8  1  0  0  0
  8  9  1  0  0  0
  9 10  2  0  0  0
 10  1  1  0  0  0
  1 13  1  0  0  0
 13 15  1  0  0  0
 15 16  1  0  0  0
 16 17  1  0  0  0
 17 18  1  0  0  0
 18 19  2  0  0  0
 19 20  1  0  0  0
 19 21  1  0  0  0
 21 22  1  0  0  0
 22 23  2  0  0  0
 10 11  1  0  0  0
  8  3  2  0  0  0
 20 15  1  0  0  0
 11  7  1  0  0  0
 23 18  1  0  0  0
 13 14  1  0  0  0
 21 24  1  0  0  0
 11 12  1  0  0  0
M  END
> <minimizedAffinity>
-9.26969

$$$$
OCNT-2316133


 27 30  0  0  0  0  0  0  0  0999 V2000
   -6.6916   23.5484    2.8160 C   0  0  0  0  0  0  0  0  0  0  0  0
   -7.0089   23.4888    1.6332 O   0  0  0  0  0  0  0  0  0  0  0  0
   -5.8697   24.5373    3.3441 N   0  0  0  0  0  0  0  0  0  0  0  0
   -5.4780   24.5932    4.7508 C   0  0  0  0  0  0  0  0  0  0  0  0
   -4.3048   25.5398    4.9868 C   0  0  0  0  0  0  0  0  0  0  0  0
   -4.5894   26.9634    4.4728 C   0  0  0  0  0  0  0  0  0  0  0  0
   -5.4145   26.9539    3.1730 C   0  0  0  0  0  0  0  0  0  0  0  0
   -5.3966   25.6013    2.4697 C   0  0  0  0  0  0  0  0  0  0  0  0
   -5.3181   27.7813    5.5451 C   0  0  0  0  0  0  0  0  0  0  0  0
   -6.5500   27.7981    5.5887 O   0  0  0  0  0  0  0  0  0  0  0  0
   -4.5534   28.5274    6.4275 N   0  0  0  0  0  0  0  0  0  0  0  0
   -5.2303   29.3082    7.4693 C   0  0  0  0  0  0  0  0  0  0  0  0
   -4.4393   29.2754    8.7807 C   0  0  0  0  0  0  0  0  0  0  0  0
   -3.0960   29.7662    8.6620 O   0  0  0  0  0  0  0  0  0  0  0  0
   -2.5585   29.6809    7.3374 C   0  0  0  0  0  0  0  0  0  0  0  0
   -3.0917   28.4852    6.5424 C   0  0  0  0  0  0  0  0  0  0  0  0
   -8.6819   22.5173    4.1431 C   0  0  0  0  0  0  0  0  0  0  0  0
   -8.1162   21.4244    3.2728 C   0  0  0  0  0  0  0  0  0  0  0  0
   -7.2059   22.5214    3.7643 C   0  0  0  0  0  0  0  0  0  0  0  0
   -9.8356   21.7053    8.2554 C   0  0  0  0  0  0  0  0  0  0  0  0
   -8.5772   22.2253    7.9580 C   0  0  0  0  0  0  0  0  0  0  0  0
   -8.2072   22.4842    6.6347 C   0  0  0  0  0  0  0  0  0  0  0  0
   -9.0817   22.2274    5.5698 C   0  0  0  0  0  0  0  0  0  0  0  0
  -10.3500   21.7204    5.8902 C   0  0  0  0  0  0  0  0  0  0  0  0
  -10.7257   21.4569    7.2142 C   0  0  0  0  0  0  0  0  0  0  0  0
   -9.3045   22.2609   10.5026 C   0  0  0  0  0  0  0  0  0  0  0  0
  -10.0707   21.4928    9.5853 O   0  0  0  0  0  0  0  0  0  0  0  0
 26 27  1  0  0  0
 27 20  1  0  0  0
 20 21  1  0  0  0
 21 22  2  0  0  0
 22 23  1  0  0  0
 23 17  1  0  0  0
 17 18  1  0  0  0
 18 19  1  0  0  0
 19  1  1  0  0  0
  1  2  2  0  0  0
  1  3  1  0  0  0
  3  4  1  0  0  0
  4  5  1  0  0  0
  5  6  1  0  0  0
  6  9  1  0  0  0
  9 10  2  0  0  0
  9 11  1  0  0  0
 11 12  1  0  0  0
 12 13  1  0  0  0
 13 14  1  0  0  0
 14 15  1  0  0  0
 15 16  1  0  0  0
  6  7  1  0  0  0
  7  8  1  0  0  0
 23 24  2  0  0  0
 24 25  1  0  0  0
 25 20  2  0  0  0
 19 17  1  0  0  0
  8  3  1  0  0  0
 16 11  1  0  0  0
M  END
> <minimizedAffinity>
-8.97805

$$$$
OCNT-2316136


 25 27  0  0  0  0  0  0  0  0999 V2000
   -4.2152   26.5499    3.6302 C   0  0  0  0  0  0  0  0  0  0  0  0
   -3.0064   26.1908    3.1723 N   0  0  0  0  0  0  0  0  0  0  0  0
   -2.1874   26.3137    4.2957 O   0  0  0  0  0  0  0  0  0  0  0  0
   -2.9857   26.7510    5.3127 C   0  0  0  0  0  0  0  0  0  0  0  0
   -4.2408   26.9242    4.9531 N   0  0  0  0  0  0  0  0  0  0  0  0
   -5.4174   26.5923    2.7589 C   0  0  0  0  0  0  0  0  0  0  0  0
   -5.9965   25.1888    0.1359 C   0  0  0  0  0  0  0  0  0  0  0  0
   -6.2248   24.5221    1.4660 C   0  0  0  0  0  0  0  0  0  0  0  0
   -6.7158   23.2049    1.4834 C   0  0  0  0  0  0  0  0  0  0  0  0
   -6.9393   22.5367    2.6877 C   0  0  0  0  0  0  0  0  0  0  0  0
   -6.6720   23.1800    3.8896 C   0  0  0  0  0  0  0  0  0  0  0  0
   -6.9775   22.2804    5.5239 Br  0  0  0  0  0  0  0  0  0  0  0  0
   -6.1813   24.4842    3.8971 C   0  0  0  0  0  0  0  0  0  0  0  0
   -5.9493   25.1749    2.6894 C   0  0  0  0  0  0  0  0  0  0  0  0
   -2.3403   26.9372    6.6406 C   0  0  0  0  0  0  0  0  0  0  0  0
   -2.2744   28.3585    6.9943 N   0  0  0  0  0  0  0  0  0  0  0  0
   -3.5325   29.0310    7.3188 C   0  0  0  0  0  0  0  0  0  0  0  0
   -3.5291   29.6287    8.7211 C   0  0  0  0  0  0  0  0  0  0  0  0
   -2.8022   30.9650    8.8182 C   0  0  0  0  0  0  0  0  0  0  0  0
   -1.3219   30.9010    8.4504 C   0  0  0  0  0  0  0  0  0  0  0  0
   -1.0297   30.5486    6.9920 C   0  0  0  0  0  0  0  0  0  0  0  0
   -1.8420   31.3123    6.1129 O   0  0  0  0  0  0  0  0  0  0  0  0
   -1.0941   29.0317    6.7273 C   0  0  0  0  0  0  0  0  0  0  0  0
   -0.1048   28.4502    6.2743 O   0  0  0  0  0  0  0  0  0  0  0  0
   -1.5317   31.1125    5.2107 H   0  0  0  0  0  0  0  0  0  0  0  0
  7  8  1  0  0  0
  8  9  1  0  0  0
  9 10  2  0  0  0
 10 11  1  0  0  0
 11 12  1  0  0  0
 11 13  2  0  0  0
 13 14  1  0  0  0
 14  6  1  0  0  0
  6  1  1  0  0  0
  1  2  2  0  0  0
  2  3  1  0  0  0
  3  4  1  0  0  0
  4 15  1  0  0  0
 15 16  1  0  0  0
 16 17  1  0  0  0
 17 18  1  0  0  0
 18 19  1  0  0  0
 19 20  1  0  0  0
 20 21  1  0  0  0
 21 22  1  0  0  0
 21 23  1  0  0  0
 23 24  2  0  0  0
  4  5  2  0  0  0
 14  8  2  0  0  0
  5  1  1  0  0  0
 23 16  1  0  0  0
 22 25  1  0  0  0
M  END
> <minimizedAffinity>
-9.14589

$$$$
OCNT-2316175


 26 28  0  0  0  0  0  0  0  0999 V2000
   -2.8992   27.9218    5.8537 N   0  0  0  0  0  0  0  0  0  0  0  0
   -1.9863   27.8552    6.8801 C   0  0  0  0  0  0  0  0  0  0  0  0
   -1.2750   26.8813    7.0997 O   0  0  0  0  0  0  0  0  0  0  0  0
   -3.6038   28.6498    5.8602 H   0  0  0  0  0  0  0  0  0  0  0  0
   -1.9555   29.0171    7.7748 C   0  0  0  0  0  0  0  0  0  0  0  0
   -0.7932   29.7411    8.0711 C   0  0  0  0  0  0  0  0  0  0  0  0
    0.7449   29.3189    7.4030 Cl  0  0  0  0  0  0  0  0  0  0  0  0
   -0.8342   30.8349    8.9450 C   0  0  0  0  0  0  0  0  0  0  0  0
   -2.0344   31.2373    9.5502 C   0  0  0  0  0  0  0  0  0  0  0  0
   -3.2092   30.5210    9.2636 C   0  0  0  0  0  0  0  0  0  0  0  0
   -3.1362   29.4377    8.3913 C   0  0  0  0  0  0  0  0  0  0  0  0
   -4.3776   28.8923    8.2298 O   0  0  0  0  0  0  0  0  0  0  0  0
   -5.2346   29.6026    9.0059 C   0  0  0  0  0  0  0  0  0  0  0  0
   -4.5701   30.6138    9.6591 C   0  0  0  0  0  0  0  0  0  0  0  0
   -3.1824   26.7733    5.0055 C   0  0  0  0  0  0  0  0  0  0  0  0
   -4.7569   24.9237    1.1644 C   0  0  0  0  0  0  0  0  0  0  0  0
   -4.8399   25.1498    2.6771 C   0  0  0  0  0  0  0  0  0  0  0  0
   -6.0786   24.4380    3.2743 C   0  0  0  0  0  0  0  0  0  0  0  0
   -6.3819   24.8401    4.6167 O   0  0  0  0  0  0  0  0  0  0  0  0
   -5.2251   25.3441    5.2946 C   0  0  0  0  0  0  0  0  0  0  0  0
   -4.6933   26.6557    4.6155 C   0  0  0  0  0  0  0  0  0  0  0  0
   -4.7422   26.5758    3.0887 N   0  0  0  0  0  0  0  0  0  0  0  0
   -5.8001   27.3929    2.4885 C   0  0  0  0  0  0  0  0  0  0  0  0
   -5.4858   27.8516    5.2447 C   0  0  0  0  0  0  0  0  0  0  0  0
   -6.2506   27.4689    6.3896 O   0  0  0  0  0  0  0  0  0  0  0  0
   -5.6435   27.5419    7.1622 H   0  0  0  0  0  0  0  0  0  0  0  0
 16 17  1  0  0  0
 17 18  1  0  0  0
 18 19  1  0  0  0
 19 20  1  0  0  0
 20 21  1  0  0  0
 21 24  1  0  0  0
 24 25  1  0  0  0
 21 15  1  0  0  0
 15  1  1  0  0  0
  1  2  1  0  0  0
  2  3  2  0  0  0
  2  5  1  0  0  0
  5  6  1  0  0  0
  6  7  1  0  0  0
  6  8  2  0  0  0
  8  9  1  0  0  0
  9 10  2  0  0  0
 10 11  1  0  0  0
 11 12  1  0  0  0
 12 13  1  0  0  0
 13 14  2  0  0  0
 21 22  1  0  0  0
 22 23  1  0  0  0
 22 17  1  0  0  0
 11  5  2  0  0  0
 14 10  1  0  0  0
 25 26  1  0  0  0
  1  4  1  0  0  0
M  END
> <minimizedAffinity>
-8.49513

$$$$
OCNT-2316176


 25 27  0  0  0  0  0  0  0  0999 V2000
   -3.7181   28.8776    6.9982 C   0  0  0  0  0  0  0  0  0  0  0  0
   -2.3859   29.1169    7.3063 C   0  0  0  0  0  0  0  0  0  0  0  0
   -1.7199   30.1170    8.1910 C   0  0  0  0  0  0  0  0  0  0  0  0
   -0.2734   29.7246    8.5104 C   0  0  0  0  0  0  0  0  0  0  0  0
    0.4660   29.2737    7.2491 C   0  0  0  0  0  0  0  0  0  0  0  0
   -0.2211   28.0609    6.6232 C   0  0  0  0  0  0  0  0  0  0  0  0
   -1.6631   28.2149    6.5819 N   0  0  0  0  0  0  0  0  0  0  0  0
   -2.4096   27.3870    5.8437 N   0  0  0  0  0  0  0  0  0  0  0  0
   -3.6701   27.8077    6.0492 C   0  0  0  0  0  0  0  0  0  0  0  0
   -4.8557   29.6046    7.5377 C   0  0  0  0  0  0  0  0  0  0  0  0
   -5.6796   29.0973    8.2923 O   0  0  0  0  0  0  0  0  0  0  0  0
   -5.3096   31.8376    8.0718 C   0  0  0  0  0  0  0  0  0  0  0  0
   -4.9431   30.8848    7.0752 O   0  0  0  0  0  0  0  0  0  0  0  0
   -4.8016   27.1546    5.3017 C   0  0  0  0  0  0  0  0  0  0  0  0
   -4.7756   27.5156    3.8782 N   0  0  0  0  0  0  0  0  0  0  0  0
   -6.1260   27.9477    3.5425 O   0  0  0  0  0  0  0  0  0  0  0  0
   -6.1630   29.3715    3.5465 C   0  0  0  0  0  0  0  0  0  0  0  0
   -4.4186   26.4459    2.9350 C   0  0  0  0  0  0  0  0  0  0  0  0
   -5.4222   25.4092    2.3582 C   0  0  0  0  0  0  0  0  0  0  0  0
   -5.7517   24.2228    3.2794 C   0  0  0  0  0  0  0  0  0  0  0  0
   -6.5705   23.1239    2.5891 C   0  0  0  0  0  0  0  0  0  0  0  0
   -7.2775   23.6157    1.3333 C   0  0  0  0  0  0  0  0  0  0  0  0
   -6.2802   24.1672    0.2998 C   0  0  0  0  0  0  0  0  0  0  0  0
   -7.0069   25.0663   -0.7023 C   0  0  0  0  0  0  0  0  0  0  0  0
   -5.0870   24.9021    0.9499 C   0  0  0  0  0  0  0  0  0  0  0  0
 12 13  1  0  0  0
 13 10  1  0  0  0
 10 11  2  0  0  0
 10  1  1  0  0  0
  1  2  2  0  0  0
  2  3  1  0  0  0
  3  4  1  0  0  0
  4  5  1  0  0  0
  5  6  1  0  0  0
  6  7  1  0  0  0
  7  8  1  0  0  0
  8  9  2  0  0  0
  9 14  1  0  0  0
 14 15  1  0  0  0
 15 18  1  0  0  0
 18 19  1  0  0  0
 19 20  1  0  0  0
 20 21  1  0  0  0
 21 22  1  0  0  0
 22 23  1  0  0  0
 23 24  1  0  0  0
 23 25  1  0  0  0
 15 16  1  0  0  0
 16 17  1  0  0  0
  9  1  1  0  0  0
 25 19  1  0  0  0
  7  2  1  0  0  0
M  END
> <minimizedAffinity>
-8.43003

$$$$
OCNT-2316179


 23 25  0  0  0  0  0  0  0  0999 V2000
   -3.5702   30.2736    8.5274 N   0  0  0  0  0  0  0  0  0  0  0  0
   -3.7852   31.3914    9.4650 C   0  0  0  0  0  0  0  0  0  0  0  0
   -2.4801   32.0463    9.9393 C   0  0  0  0  0  0  0  0  0  0  0  0
   -1.4176   32.0015    8.8484 C   0  0  0  0  0  0  0  0  0  0  0  0
   -1.1268   30.5456    8.3983 C   0  0  0  0  0  0  0  0  0  0  0  0
    0.2009   30.0334    9.0096 C   0  0  0  0  0  0  0  0  0  0  0  0
    0.6027   28.7741    8.2500 C   0  0  0  0  0  0  0  0  0  0  0  0
    0.1524   29.0916    6.5533 S   0  0  0  0  0  0  0  0  0  0  0  0
    1.3344   29.5205    5.8346 O   0  0  0  0  0  0  0  0  0  0  0  0
   -0.6798   28.0015    6.0885 O   0  0  0  0  0  0  0  0  0  0  0  0
   -0.8752   30.5211    6.8718 C   0  0  0  0  0  0  0  0  0  0  0  0
   -2.3008   29.5991    8.7867 C   0  0  0  0  0  0  0  0  0  0  0  0
   -4.6997   29.3291    8.5239 C   0  0  0  0  0  0  0  0  0  0  0  0
   -7.3503   30.7138    7.2573 C   0  0  0  0  0  0  0  0  0  0  0  0
   -6.4063   29.7808    6.5939 C   0  0  0  0  0  0  0  0  0  0  0  0
   -6.6088   29.4229    5.3233 N   0  0  0  0  0  0  0  0  0  0  0  0
   -5.5875   28.5912    5.0397 N   0  0  0  0  0  0  0  0  0  0  0  0
   -4.7488   28.3851    6.1071 C   0  0  0  0  0  0  0  0  0  0  0  0
   -3.5637   27.4907    6.0647 C   0  0  0  0  0  0  0  0  0  0  0  0
   -5.2434   29.1711    7.1390 C   0  0  0  0  0  0  0  0  0  0  0  0
   -5.4921   28.0173    3.6990 C   0  0  0  0  0  0  0  0  0  0  0  0
   -6.1329   28.9266    2.6495 C   0  0  0  0  0  0  0  0  0  0  0  0
   -6.0884   26.6108    3.6562 C   0  0  0  0  0  0  0  0  0  0  0  0
 14 15  1  0  0  0
 15 16  2  0  0  0
 16 17  1  0  0  0
 17 21  1  0  0  0
 21 22  1  0  0  0
 21 23  1  0  0  0
 17 18  1  0  0  0
 18 19  1  0  0  0
 18 20  2  0  0  0
 20 13  1  0  0  0
 13  1  1  0  0  0
  1  2  1  0  0  0
  2  3  1  0  0  0
  3  4  1  0  0  0
  4  5  1  0  0  0
  5  6  1  0  0  0
  6  7  1  0  0  0
  7  8  1  0  0  0
  8  9  2  0  0  0
  8 10  2  0  0  0
  8 11  1  0  0  0
  5 12  1  0  0  0
 20 15  1  0  0  0
 12  1  1  0  0  0
 11  5  1  0  0  0
M  END
> <minimizedAffinity>
-8.16257

$$$$
OCNT-2316180


 26 30  0  0  0  0  0  0  0  0999 V2000
   -4.8505   28.3154    4.2275 C   0  0  0  0  0  0  0  0  0  0  0  0
   -6.2102   29.0325    4.0464 C   0  0  0  0  0  0  0  0  0  0  0  0
   -6.4412   30.0659    5.1462 C   0  0  0  0  0  0  0  0  0  0  0  0
   -6.3652   29.4427    6.5439 C   0  0  0  0  0  0  0  0  0  0  0  0
   -5.7857   28.0293    6.5277 C   0  0  0  0  0  0  0  0  0  0  0  0
   -4.6225   27.9897    5.6545 N   0  0  0  0  0  0  0  0  0  0  0  0
   -5.0980   25.4784    1.9534 C   0  0  0  0  0  0  0  0  0  0  0  0
   -3.7295   25.5739    2.0871 C   0  0  0  0  0  0  0  0  0  0  0  0
   -3.5226   26.6235    2.9371 N   0  0  0  0  0  0  0  0  0  0  0  0
   -4.7467   27.1326    3.2962 C   0  0  0  0  0  0  0  0  0  0  0  0
   -5.7148   26.4553    2.7089 N   0  0  0  0  0  0  0  0  0  0  0  0
   -2.6369   26.9805    3.2795 H   0  0  0  0  0  0  0  0  0  0  0  0
   -7.2909   22.6801   -0.4145 C   0  0  0  0  0  0  0  0  0  0  0  0
   -7.3416   24.0422   -0.7004 C   0  0  0  0  0  0  0  0  0  0  0  0
   -6.6173   24.9471    0.0805 C   0  0  0  0  0  0  0  0  0  0  0  0
   -5.8339   24.5050    1.1577 C   0  0  0  0  0  0  0  0  0  0  0  0
   -5.7918   23.1300    1.4315 C   0  0  0  0  0  0  0  0  0  0  0  0
   -6.5164   22.2236    0.6499 C   0  0  0  0  0  0  0  0  0  0  0  0
   -3.3388   27.9437    6.1159 C   0  0  0  0  0  0  0  0  0  0  0  0
   -2.6543   29.0123    6.4806 N   0  0  0  0  0  0  0  0  0  0  0  0
   -1.3933   28.6304    6.9127 C   0  0  0  0  0  0  0  0  0  0  0  0
   -1.0412   27.3482    6.8805 N   0  0  0  0  0  0  0  0  0  0  0  0
   -2.3569   26.5191    6.2888 S   0  0  0  0  0  0  0  0  0  0  0  0
   -0.3822   29.7086    7.4145 C   0  0  0  0  0  0  0  0  0  0  0  0
    0.5878   29.3441    8.5101 C   0  0  0  0  0  0  0  0  0  0  0  0
   -0.5417   30.2918    8.7960 C   0  0  0  0  0  0  0  0  0  0  0  0
 13 14  2  0  0  0
 14 15  1  0  0  0
 15 16  2  0  0  0
 16  7  1  0  0  0
  7  8  2  0  0  0
  8  9  1  0  0  0
  9 10  1  0  0  0
 10  1  1  0  0  0
  1  2  1  0  0  0
  2  3  1  0  0  0
  3  4  1  0  0  0
  4  5  1  0  0  0
  5  6  1  0  0  0
  6 19  1  0  0  0
 19 20  2  0  0  0
 20 21  1  0  0  0
 21 24  1  0  0  0
 24 25  1  0  0  0
 25 26  1  0  0  0
 21 22  2  0  0  0
 22 23  1  0  0  0
 10 11  2  0  0  0
 16 17  1  0  0  0
 17 18  2  0  0  0
 18 13  1  0  0  0
 11  7  1  0  0  0
  6  1  1  0  0  0
 23 19  1  0  0  0
 26 24  1  0  0  0
  9 12  1  0  0  0
M  END
> <minimizedAffinity>
-9.85762

$$$$
OCNT-2316207


 23 25  0  0  0  0  0  0  0  0999 V2000
   -2.5603   28.0637    6.7895 C   0  0  0  0  0  0  0  0  0  0  0  0
   -2.6070   27.0505    5.6439 C   0  0  0  0  0  0  0  0  0  0  0  0
   -3.8635   28.2003    7.4803 N   0  0  0  0  0  0  0  0  0  0  0  0
   -3.6909   28.6605    8.3768 H   0  0  0  0  0  0  0  0  0  0  0  0
   -4.8683   28.9070    6.6838 C   0  0  0  0  0  0  0  0  0  0  0  0
   -5.8868   27.9035    6.0978 C   0  0  0  0  0  0  0  0  0  0  0  0
   -6.9822   28.9269    6.4667 C   0  0  0  0  0  0  0  0  0  0  0  0
   -6.0374   29.4120    7.6175 C   0  0  0  0  0  0  0  0  0  0  0  0
   -6.0011   30.9284    7.8695 C   0  0  0  0  0  0  0  0  0  0  0  0
   -6.5769   31.0987    9.2709 C   0  0  0  0  0  0  0  0  0  0  0  0
   -6.1036   29.8494    9.9939 C   0  0  0  0  0  0  0  0  0  0  0  0
   -6.3646   28.7490    8.9718 C   0  0  0  0  0  0  0  0  0  0  0  0
   -1.3355   28.0314    7.7158 C   0  0  0  0  0  0  0  0  0  0  0  0
   -0.3169   29.4889    7.7324 S   0  0  0  0  0  0  0  0  0  0  0  0
    0.1074   29.7722    6.3734 O   0  0  0  0  0  0  0  0  0  0  0  0
    0.6532   29.4018    8.8062 O   0  0  0  0  0  0  0  0  0  0  0  0
   -4.2624   33.8395    9.2846 C   0  0  0  0  0  0  0  0  0  0  0  0
   -3.2683   32.7816    8.9032 C   0  0  0  0  0  0  0  0  0  0  0  0
   -2.7074   31.9519    9.8840 C   0  0  0  0  0  0  0  0  0  0  0  0
   -1.8027   30.9498    9.5307 C   0  0  0  0  0  0  0  0  0  0  0  0
   -1.4746   30.7648    8.1860 C   0  0  0  0  0  0  0  0  0  0  0  0
   -2.0226   31.5839    7.1967 C   0  0  0  0  0  0  0  0  0  0  0  0
   -2.9265   32.5840    7.5581 C   0  0  0  0  0  0  0  0  0  0  0  0
 17 18  1  0  0  0
 18 19  1  0  0  0
 19 20  2  0  0  0
 20 21  1  0  0  0
 21 14  1  0  0  0
 14 15  2  0  0  0
 14 16  2  0  0  0
 14 13  1  0  0  0
 13  1  1  0  0  0
  1  2  1  0  0  0
  1  3  1  0  0  0
  3  5  1  0  0  0
  5  6  1  0  0  0
  6  7  1  0  0  0
  7  8  1  0  0  0
  8  9  1  0  0  0
  9 10  1  0  0  0
 10 11  1  0  0  0
 11 12  1  0  0  0
 21 22  2  0  0  0
 22 23  1  0  0  0
 23 18  2  0  0  0
  8  5  1  0  0  0
 12  8  1  0  0  0
  3  4  1  0  0  0
M  END
> <minimizedAffinity>
-8.52705

$$$$
OCNT-2316212


 25 27  0  0  0  0  0  0  0  0999 V2000
   -5.1444   26.4589    3.8419 C   0  0  0  0  0  0  0  0  0  0  0  0
   -4.4820   27.1215    3.0416 O   0  0  0  0  0  0  0  0  0  0  0  0
   -5.1993   25.0653    3.7614 N   0  0  0  0  0  0  0  0  0  0  0  0
   -5.8194   24.2044    4.7616 C   0  0  0  0  0  0  0  0  0  0  0  0
   -5.9515   27.1104    4.9588 C   0  0  0  0  0  0  0  0  0  0  0  0
   -6.8421   29.8814    6.6970 C   0  0  0  0  0  0  0  0  0  0  0  0
   -5.5707   29.1575    6.5223 C   0  0  0  0  0  0  0  0  0  0  0  0
   -5.1699   28.0458    5.8125 C   0  0  0  0  0  0  0  0  0  0  0  0
   -3.8295   27.8184    6.0500 N   0  0  0  0  0  0  0  0  0  0  0  0
   -3.4493   28.8016    6.8491 C   0  0  0  0  0  0  0  0  0  0  0  0
   -4.4814   29.6514    7.1799 O   0  0  0  0  0  0  0  0  0  0  0  0
   -2.1119   28.9818    7.3466 C   0  0  0  0  0  0  0  0  0  0  0  0
   -1.7050   29.8839    8.3127 C   0  0  0  0  0  0  0  0  0  0  0  0
   -0.3062   29.8090    8.5798 C   0  0  0  0  0  0  0  0  0  0  0  0
    0.3117   28.8508    7.8086 C   0  0  0  0  0  0  0  0  0  0  0  0
   -0.7907   28.0518    6.7736 S   0  0  0  0  0  0  0  0  0  0  0  0
   -4.6007   24.4089    2.5952 C   0  0  0  0  0  0  0  0  0  0  0  0
   -5.6278   23.8067    1.6684 C   0  0  0  0  0  0  0  0  0  0  0  0
   -6.3039   24.6453    0.7717 C   0  0  0  0  0  0  0  0  0  0  0  0
   -6.0346   25.9583    0.7489 F   0  0  0  0  0  0  0  0  0  0  0  0
   -7.2657   24.1609   -0.1127 C   0  0  0  0  0  0  0  0  0  0  0  0
   -7.5770   22.8063   -0.1184 C   0  0  0  0  0  0  0  0  0  0  0  0
   -6.9221   21.9487    0.7642 C   0  0  0  0  0  0  0  0  0  0  0  0
   -5.9556   22.4431    1.6512 C   0  0  0  0  0  0  0  0  0  0  0  0
   -5.2091   21.3011    2.7118 Cl  0  0  0  0  0  0  0  0  0  0  0  0
  6  7  1  0  0  0
  7  8  2  0  0  0
  8  5  1  0  0  0
  5  1  1  0  0  0
  1  2  2  0  0  0
  1  3  1  0  0  0
  3  4  1  0  0  0
  3 17  1  0  0  0
 17 18  1  0  0  0
 18 19  2  0  0  0
 19 20  1  0  0  0
 19 21  1  0  0  0
 21 22  2  0  0  0
 22 23  1  0  0  0
 23 24  2  0  0  0
 24 25  1  0  0  0
  8  9  1  0  0  0
  9 10  2  0  0  0
 10 12  1  0  0  0
 12 13  2  0  0  0
 13 14  1  0  0  0
 14 15  2  0  0  0
 15 16  1  0  0  0
 10 11  1  0  0  0
 11  7  1  0  0  0
 24 18  1  0  0  0
 16 12  1  0  0  0
M  END
> <minimizedAffinity>
-9.24372

$$$$
OCNT-2316228


 24 26  0  0  0  0  0  0  0  0999 V2000
   -3.3221   27.7094    5.3133 N   0  0  0  0  0  0  0  0  0  0  0  0
   -3.4751   28.6186    4.8798 H   0  0  0  0  0  0  0  0  0  0  0  0
   -4.3200   26.7377    4.8025 C   0  0  0  0  0  0  0  0  0  0  0  0
   -5.7479   27.0787    5.1959 C   0  0  0  0  0  0  0  0  0  0  0  0
   -6.1490   28.1178    4.1736 C   0  0  0  0  0  0  0  0  0  0  0  0
   -5.4112   27.8489    2.9754 O   0  0  0  0  0  0  0  0  0  0  0  0
   -4.4197   26.8307    3.2568 C   0  0  0  0  0  0  0  0  0  0  0  0
   -4.7827   25.5274    2.6092 C   0  0  0  0  0  0  0  0  0  0  0  0
   -5.7329   25.2964    1.6322 C   0  0  0  0  0  0  0  0  0  0  0  0
   -5.6942   23.9610    1.3626 N   0  0  0  0  0  0  0  0  0  0  0  0
   -6.5014   23.2433    0.4072 C   0  0  0  0  0  0  0  0  0  0  0  0
   -4.7883   23.2939    2.0977 N   0  0  0  0  0  0  0  0  0  0  0  0
   -4.2452   24.2442    2.8629 C   0  0  0  0  0  0  0  0  0  0  0  0
   -3.3371   27.8548    6.7742 C   0  0  0  0  0  0  0  0  0  0  0  0
   -0.7864   27.8800    7.1539 C   0  0  0  0  0  0  0  0  0  0  0  0
    0.3228   28.5882    7.6472 C   0  0  0  0  0  0  0  0  0  0  0  0
    0.1828   29.7824    8.3636 C   0  0  0  0  0  0  0  0  0  0  0  0
   -1.0774   30.3322    8.5793 C   0  0  0  0  0  0  0  0  0  0  0  0
   -1.2404   31.5947    9.3700 C   0  0  0  0  0  0  0  0  0  0  0  0
   -2.1916   29.6596    8.0739 C   0  0  0  0  0  0  0  0  0  0  0  0
   -2.0648   28.4553    7.3433 C   0  0  0  0  0  0  0  0  0  0  0  0
   -0.0774   26.7424    5.0676 C   0  0  0  0  0  0  0  0  0  0  0  0
   -0.6445   26.7013    6.4045 N   0  0  0  0  0  0  0  0  0  0  0  0
   -0.2277   25.9623    6.9634 H   0  0  0  0  0  0  0  0  0  0  0  0
 22 23  1  0  0  0
 23 15  1  0  0  0
 15 16  1  0  0  0
 16 17  2  0  0  0
 17 18  1  0  0  0
 18 19  1  0  0  0
 18 20  2  0  0  0
 20 21  1  0  0  0
 21 14  1  0  0  0
 14  1  1  0  0  0
  1  3  1  0  0  0
  3  4  1  0  0  0
  4  5  1  0  0  0
  5  6  1  0  0  0
  6  7  1  0  0  0
  7  8  1  0  0  0
  8  9  2  0  0  0
  9 10  1  0  0  0
 10 11  1  0  0  0
 10 12  1  0  0  0
 12 13  2  0  0  0
 21 15  2  0  0  0
  7  3  1  0  0  0
 13  8  1  0  0  0
 23 24  1  0  0  0
  1  2  1  0  0  0
M  END
> <minimizedAffinity>
-8.08814

$$$$
OCNT-2316237


 22 24  0  0  0  0  0  0  0  0999 V2000
   -5.4572   28.7772    7.3505 N   0  0  0  0  0  0  0  0  0  0  0  0
   -6.0480   28.7839    6.1154 C   0  0  0  0  0  0  0  0  0  0  0  0
   -7.0327   29.4125    5.7534 O   0  0  0  0  0  0  0  0  0  0  0  0
   -4.7596   28.0527    7.4968 H   0  0  0  0  0  0  0  0  0  0  0  0
   -5.3315   27.8281    5.1745 C   0  0  0  0  0  0  0  0  0  0  0  0
   -6.0077   27.4215    4.0797 C   0  0  0  0  0  0  0  0  0  0  0  0
   -5.3694   26.5314    3.1836 C   0  0  0  0  0  0  0  0  0  0  0  0
   -5.7073   25.9102    2.0021 C   0  0  0  0  0  0  0  0  0  0  0  0
   -4.5911   25.1271    1.6090 C   0  0  0  0  0  0  0  0  0  0  0  0
   -3.6078   25.2951    2.5628 C   0  0  0  0  0  0  0  0  0  0  0  0
   -4.0900   26.1533    3.5208 N   0  0  0  0  0  0  0  0  0  0  0  0
   -3.4490   26.6123    4.6717 C   0  0  0  0  0  0  0  0  0  0  0  0
   -4.0323   27.4326    5.4981 N   0  0  0  0  0  0  0  0  0  0  0  0
   -5.8923   30.7666    8.8142 N   0  0  0  0  0  0  0  0  0  0  0  0
   -6.4142   30.8516   10.0913 C   0  0  0  0  0  0  0  0  0  0  0  0
   -6.5296   29.5613   10.5309 C   0  0  0  0  0  0  0  0  0  0  0  0
   -6.1302   28.6955    9.5570 N   0  0  0  0  0  0  0  0  0  0  0  0
   -5.8212   29.4248    8.5006 C   0  0  0  0  0  0  0  0  0  0  0  0
   -5.4492   31.9509    8.1071 C   0  0  0  0  0  0  0  0  0  0  0  0
   -3.2837   32.6897    9.2452 C   0  0  0  0  0  0  0  0  0  0  0  0
   -4.7447   33.0361    8.9483 C   0  0  0  0  0  0  0  0  0  0  0  0
   -4.8410   34.4386    8.3522 C   0  0  0  0  0  0  0  0  0  0  0  0
 20 21  1  0  0  0
 21 22  1  0  0  0
 21 19  1  0  0  0
 19 14  1  0  0  0
 14 15  1  0  0  0
 15 16  2  0  0  0
 16 17  1  0  0  0
 17 18  2  0  0  0
 18  1  1  0  0  0
  1  2  1  0  0  0
  2  3  2  0  0  0
  2  5  1  0  0  0
  5  6  2  0  0  0
  6  7  1  0  0  0
  7  8  2  0  0  0
  8  9  1  0  0  0
  9 10  2  0  0  0
 10 11  1  0  0  0
 11 12  1  0  0  0
 12 13  2  0  0  0
 18 14  1  0  0  0
 13  5  1  0  0  0
 11  7  1  0  0  0
  1  4  1  0  0  0
M  END
> <minimizedAffinity>
-7.96210

$$$$
OCNT-2316240


 25 28  0  0  0  0  0  0  0  0999 V2000
   -1.7877   26.5991    4.6084 O   0  0  0  0  0  0  0  0  0  0  0  0
   -2.0940   26.8436    5.7716 C   0  0  0  0  0  0  0  0  0  0  0  0
   -3.3814   26.7320    6.2247 N   0  0  0  0  0  0  0  0  0  0  0  0
   -1.1817   27.2649    6.7292 N   0  0  0  0  0  0  0  0  0  0  0  0
    0.2073   27.4310    6.3209 C   0  0  0  0  0  0  0  0  0  0  0  0
    0.5008   28.9003    6.0398 C   0  0  0  0  0  0  0  0  0  0  0  0
    0.1261   29.7775    7.2408 C   0  0  0  0  0  0  0  0  0  0  0  0
   -1.3219   29.5326    7.7642 C   0  0  0  0  0  0  0  0  0  0  0  0
   -2.3867   30.1096    6.7879 C   0  0  0  0  0  0  0  0  0  0  0  0
   -2.5443   31.6031    6.8651 C   0  0  0  0  0  0  0  0  0  0  0  0
   -2.0889   32.3388    7.8888 C   0  0  0  0  0  0  0  0  0  0  0  0
   -1.3933   31.7469    9.0770 C   0  0  0  0  0  0  0  0  0  0  0  0
   -1.5074   30.2197    9.1423 C   0  0  0  0  0  0  0  0  0  0  0  0
   -1.5382   28.0060    7.9415 C   0  0  0  0  0  0  0  0  0  0  0  0
   -3.4463   26.3543    7.1569 H   0  0  0  0  0  0  0  0  0  0  0  0
   -4.4162   26.2771    5.3231 C   0  0  0  0  0  0  0  0  0  0  0  0
   -5.1695   27.4429    4.7565 C   0  0  0  0  0  0  0  0  0  0  0  0
   -5.2553   27.6397    3.3666 C   0  0  0  0  0  0  0  0  0  0  0  0
   -5.9464   28.7411    2.8302 C   0  0  0  0  0  0  0  0  0  0  0  0
   -6.5605   29.6692    3.6724 C   0  0  0  0  0  0  0  0  0  0  0  0
   -6.4601   29.4648    5.0319 C   0  0  0  0  0  0  0  0  0  0  0  0
   -5.7839   28.3873    5.5608 C   0  0  0  0  0  0  0  0  0  0  0  0
   -5.8029   28.3932    6.9226 O   0  0  0  0  0  0  0  0  0  0  0  0
   -6.5842   29.5764    7.1854 C   0  0  0  0  0  0  0  0  0  0  0  0
   -6.9900   30.2716    5.9905 O   0  0  0  0  0  0  0  0  0  0  0  0
  1  2  2  0  0  0
  2  3  1  0  0  0
  3 16  1  0  0  0
 16 17  1  0  0  0
 17 18  2  0  0  0
 18 19  1  0  0  0
 19 20  2  0  0  0
 20 21  1  0  0  0
 21 22  2  0  0  0
 22 23  1  0  0  0
 23 24  1  0  0  0
 24 25  1  0  0  0
  2  4  1  0  0  0
  4  5  1  0  0  0
  5  6  1  0  0  0
  6  7  1  0  0  0
  7  8  1  0  0  0
  8  9  1  0  0  0
  9 10  1  0  0  0
 10 11  2  0  0  0
 11 12  1  0  0  0
 12 13  1  0  0  0
  8 14  1  0  0  0
 22 17  1  0  0  0
 14  4  1  0  0  0
 25 21  1  0  0  0
 13  8  1  0  0  0
  3 15  1  0  0  0
M  END
> <minimizedAffinity>
-9.10476

$$$$
OCNT-2316247


 25 28  0  0  0  0  0  0  0  0999 V2000
   -4.2608   26.6820    4.7084 C   0  0  0  0  0  0  0  0  0  0  0  0
   -3.6950   26.4044    3.3036 C   0  0  0  0  0  0  0  0  0  0  0  0
   -4.8873   25.9807    2.4279 C   0  0  0  0  0  0  0  0  0  0  0  0
   -6.0041   25.6699    3.4250 C   0  0  0  0  0  0  0  0  0  0  0  0
   -5.7834   26.7123    4.5084 C   0  0  0  0  0  0  0  0  0  0  0  0
   -6.4692   26.3804    5.7032 O   0  0  0  0  0  0  0  0  0  0  0  0
   -7.4190   26.3345    5.4939 H   0  0  0  0  0  0  0  0  0  0  0  0
   -2.2613   26.8693    6.6821 O   0  0  0  0  0  0  0  0  0  0  0  0
   -2.8650   27.8892    6.3564 C   0  0  0  0  0  0  0  0  0  0  0  0
   -3.7666   27.9055    5.3081 N   0  0  0  0  0  0  0  0  0  0  0  0
   -4.3751   28.7194    5.2895 H   0  0  0  0  0  0  0  0  0  0  0  0
   -2.7274   29.1678    7.0238 C   0  0  0  0  0  0  0  0  0  0  0  0
   -1.7811   29.6724    7.8928 C   0  0  0  0  0  0  0  0  0  0  0  0
   -2.1784   30.9773    8.2538 C   0  0  0  0  0  0  0  0  0  0  0  0
   -3.3495   31.2092    7.5736 C   0  0  0  0  0  0  0  0  0  0  0  0
   -3.6938   30.1285    6.8252 O   0  0  0  0  0  0  0  0  0  0  0  0
   -0.5295   28.9330    8.4129 C   0  0  0  0  0  0  0  0  0  0  0  0
    0.7594   29.0494    7.6408 C   0  0  0  0  0  0  0  0  0  0  0  0
    0.6253   29.7216    8.9745 C   0  0  0  0  0  0  0  0  0  0  0  0
   -4.5428   24.8192    1.4951 C   0  0  0  0  0  0  0  0  0  0  0  0
   -5.6791   24.3662    0.7186 N   0  0  0  0  0  0  0  0  0  0  0  0
   -6.2148   23.1094    0.7232 C   0  0  0  0  0  0  0  0  0  0  0  0
   -7.2666   23.1718   -0.1620 C   0  0  0  0  0  0  0  0  0  0  0  0
   -7.3738   24.4264   -0.7033 N   0  0  0  0  0  0  0  0  0  0  0  0
   -6.3979   25.1210   -0.1630 C   0  0  0  0  0  0  0  0  0  0  0  0
  8  9  2  0  0  0
  9 10  1  0  0  0
 10  1  1  0  0  0
  1  2  1  0  0  0
  2  3  1  0  0  0
  3 20  1  0  0  0
 20 21  1  0  0  0
 21 22  1  0  0  0
 22 23  2  0  0  0
 23 24  1  0  0  0
 24 25  2  0  0  0
  3  4  1  0  0  0
  4  5  1  0  0  0
  5  6  1  0  0  0
  9 12  1  0  0  0
 12 13  2  0  0  0
 13 17  1  0  0  0
 17 18  1  0  0  0
 18 19  1  0  0  0
 13 14  1  0  0  0
 14 15  2  0  0  0
 15 16  1  0  0  0
  5  1  1  0  0  0
 16 12  1  0  0  0
 25 21  1  0  0  0
 19 17  1  0  0  0
 10 11  1  0  0  0
  6  7  1  0  0  0
M  END
> <minimizedAffinity>
-8.74382

$$$$
OCNT-2316253


 22 25  0  0  0  0  0  0  0  0999 V2000
   -1.9916   26.8160    7.4520 O   0  0  0  0  0  0  0  0  0  0  0  0
   -2.7268   27.4862    6.7307 C   0  0  0  0  0  0  0  0  0  0  0  0
   -3.0809   28.7753    7.0805 N   0  0  0  0  0  0  0  0  0  0  0  0
   -3.5160   29.3703    6.3915 H   0  0  0  0  0  0  0  0  0  0  0  0
   -2.5179   29.4292    8.2527 C   0  0  0  0  0  0  0  0  0  0  0  0
   -1.0413   29.7724    7.9869 C   0  0  0  0  0  0  0  0  0  0  0  0
   -0.4990   30.7292    9.0399 C   0  0  0  0  0  0  0  0  0  0  0  0
   -1.2558   32.0530    8.9854 C   0  0  0  0  0  0  0  0  0  0  0  0
   -2.7468   31.8608    8.9913 C   0  0  0  0  0  0  0  0  0  0  0  0
   -3.5793   32.9262    9.3287 C   0  0  0  0  0  0  0  0  0  0  0  0
   -4.9272   32.8579    9.3648 N   0  0  0  0  0  0  0  0  0  0  0  0
   -5.4795   31.6680    9.0581 C   0  0  0  0  0  0  0  0  0  0  0  0
   -4.7454   30.5508    8.6951 C   0  0  0  0  0  0  0  0  0  0  0  0
   -3.3475   30.6442    8.6308 C   0  0  0  0  0  0  0  0  0  0  0  0
   -3.2807   27.0188    5.4616 C   0  0  0  0  0  0  0  0  0  0  0  0
   -2.6707   26.2939    4.4468 C   0  0  0  0  0  0  0  0  0  0  0  0
   -3.5995   26.0689    3.4142 C   0  0  0  0  0  0  0  0  0  0  0  0
   -4.8376   26.5825    3.5951 C   0  0  0  0  0  0  0  0  0  0  0  0
   -5.6216   26.2568    2.4609 C   0  0  0  0  0  0  0  0  0  0  0  0
   -4.7545   25.5499    1.6650 C   0  0  0  0  0  0  0  0  0  0  0  0
   -3.5181   25.4204    2.2183 O   0  0  0  0  0  0  0  0  0  0  0  0
   -4.9401   27.4089    5.1081 S   0  0  0  0  0  0  0  0  0  0  0  0
  1  2  2  0  0  0
  2  3  1  0  0  0
  3  5  1  0  0  0
  5  6  1  0  0  0
  6  7  1  0  0  0
  7  8  1  0  0  0
  8  9  1  0  0  0
  9 10  2  0  0  0
 10 11  1  0  0  0
 11 12  2  0  0  0
 12 13  1  0  0  0
 13 14  2  0  0  0
  2 15  1  0  0  0
 15 16  2  0  0  0
 16 17  1  0  0  0
 17 18  2  0  0  0
 18 19  1  0  0  0
 19 20  2  0  0  0
 20 21  1  0  0  0
 18 22  1  0  0  0
 14  5  1  0  0  0
 22 15  1  0  0  0
 14  9  1  0  0  0
 21 17  1  0  0  0
  3  4  1  0  0  0
M  END
> <minimizedAffinity>
-8.61430

$$$$
OCNT-2316255


 27 30  0  0  0  0  0  0  0  0999 V2000
   -6.4539   28.6210    5.2825 C   0  0  0  0  0  0  0  0  0  0  0  0
   -5.7784   28.9276    3.9378 C   0  0  0  0  0  0  0  0  0  0  0  0
   -5.9690   27.8106    2.9167 C   0  0  0  0  0  0  0  0  0  0  0  0
   -5.5409   26.4987    3.4172 N   0  0  0  0  0  0  0  0  0  0  0  0
   -5.3130   26.4114    4.8726 C   0  0  0  0  0  0  0  0  0  0  0  0
   -6.4495   27.1193    5.6013 C   0  0  0  0  0  0  0  0  0  0  0  0
   -5.6464   25.3343    2.6451 C   0  0  0  0  0  0  0  0  0  0  0  0
   -5.4893   24.1708    3.2332 N   0  0  0  0  0  0  0  0  0  0  0  0
   -5.6369   23.0994    2.4253 N   0  0  0  0  0  0  0  0  0  0  0  0
   -5.5330   21.8367    2.8734 N   0  0  0  0  0  0  0  0  0  0  0  0
   -5.7672   21.0651    1.8168 N   0  0  0  0  0  0  0  0  0  0  0  0
   -6.0024   21.8203    0.6885 N   0  0  0  0  0  0  0  0  0  0  0  0
   -5.9295   23.0719    1.0805 C   0  0  0  0  0  0  0  0  0  0  0  0
   -6.0727   24.3099    0.4325 C   0  0  0  0  0  0  0  0  0  0  0  0
   -5.9388   25.4279    1.1587 C   0  0  0  0  0  0  0  0  0  0  0  0
   -5.8329   28.8259    7.6188 N   0  0  0  0  0  0  0  0  0  0  0  0
   -5.7422   29.4167    6.3737 C   0  0  0  0  0  0  0  0  0  0  0  0
   -5.1847   30.4841    6.1489 O   0  0  0  0  0  0  0  0  0  0  0  0
   -6.5352   28.1076    7.7229 H   0  0  0  0  0  0  0  0  0  0  0  0
   -5.8520   28.6550   10.1083 C   0  0  0  0  0  0  0  0  0  0  0  0
   -5.4131   29.4672    8.8720 C   0  0  0  0  0  0  0  0  0  0  0  0
   -6.1327   30.8332    8.9824 C   0  0  0  0  0  0  0  0  0  0  0  0
   -3.8978   29.6750    8.8111 C   0  0  0  0  0  0  0  0  0  0  0  0
   -2.9210   28.8459    8.2745 C   0  0  0  0  0  0  0  0  0  0  0  0
   -1.6003   29.3628    8.4270 C   0  0  0  0  0  0  0  0  0  0  0  0
   -1.5975   30.5809    9.0677 C   0  0  0  0  0  0  0  0  0  0  0  0
   -3.1765   31.1125    9.4463 S   0  0  0  0  0  0  0  0  0  0  0  0
 20 21  1  0  0  0
 21 22  1  0  0  0
 21 16  1  0  0  0
 16 17  1  0  0  0
 17 18  2  0  0  0
 17  1  1  0  0  0
  1  2  1  0  0  0
  2  3  1  0  0  0
  3  4  1  0  0  0
  4  7  1  0  0  0
  7  8  2  0  0  0
  8  9  1  0  0  0
  9 10  1  0  0  0
 10 11  2  0  0  0
 11 12  1  0  0  0
 12 13  2  0  0  0
 13 14  1  0  0  0
 14 15  2  0  0  0
  4  5  1  0  0  0
  5  6  1  0  0  0
 21 23  1  0  0  0
 23 24  2  0  0  0
 24 25  1  0  0  0
 25 26  2  0  0  0
 26 27  1  0  0  0
  6  1  1  0  0  0
 27 23  1  0  0  0
 15  7  1  0  0  0
 13  9  1  0  0  0
 16 19  1  0  0  0
M  END
> <minimizedAffinity>
-9.62516

$$$$
OCNT-2316256


 26 28  0  0  0  0  0  0  0  0999 V2000
   -2.2282   28.5737    6.4621 N   0  0  0  0  0  0  0  0  0  0  0  0
   -3.5785   28.3337    6.4385 C   0  0  0  0  0  0  0  0  0  0  0  0
   -4.3618   28.6964    7.3041 O   0  0  0  0  0  0  0  0  0  0  0  0
   -3.9332   27.6378    5.3134 N   0  0  0  0  0  0  0  0  0  0  0  0
   -1.8018   28.6430    5.5487 H   0  0  0  0  0  0  0  0  0  0  0  0
   -3.2190   27.0091    4.9766 H   0  0  0  0  0  0  0  0  0  0  0  0
   -5.3038   27.2039    5.1416 C   0  0  0  0  0  0  0  0  0  0  0  0
   -6.1069   28.1343    4.2110 C   0  0  0  0  0  0  0  0  0  0  0  0
   -5.8861   27.6185    2.7805 C   0  0  0  0  0  0  0  0  0  0  0  0
   -5.6848   26.1533    3.0199 C   0  0  0  0  0  0  0  0  0  0  0  0
   -5.7387   25.1053    2.1158 C   0  0  0  0  0  0  0  0  0  0  0  0
   -6.1063   25.3684    0.4580 Cl  0  0  0  0  0  0  0  0  0  0  0  0
   -5.4821   23.8094    2.5705 C   0  0  0  0  0  0  0  0  0  0  0  0
   -5.1636   23.5759    3.9181 C   0  0  0  0  0  0  0  0  0  0  0  0
   -5.0939   24.6357    4.8243 C   0  0  0  0  0  0  0  0  0  0  0  0
   -5.3567   25.9181    4.3632 C   0  0  0  0  0  0  0  0  0  0  0  0
   -1.6332   29.3880    7.5256 C   0  0  0  0  0  0  0  0  0  0  0  0
   -0.3326   28.7266    7.9832 C   0  0  0  0  0  0  0  0  0  0  0  0
   -1.4160   30.8406    7.0568 C   0  0  0  0  0  0  0  0  0  0  0  0
   -4.6786   34.1780    9.1437 C   0  0  0  0  0  0  0  0  0  0  0  0
   -3.9402   33.1919    8.3261 C   0  0  0  0  0  0  0  0  0  0  0  0
   -2.7173   32.5842    8.4968 C   0  0  0  0  0  0  0  0  0  0  0  0
   -2.5649   31.7386    7.3736 C   0  0  0  0  0  0  0  0  0  0  0  0
   -3.6223   31.8103    6.5554 N   0  0  0  0  0  0  0  0  0  0  0  0
   -4.4385   32.6916    7.1555 N   0  0  0  0  0  0  0  0  0  0  0  0
   -5.3239   32.9060    6.7089 H   0  0  0  0  0  0  0  0  0  0  0  0
 20 21  1  0  0  0
 21 22  2  0  0  0
 22 23  1  0  0  0
 23 19  1  0  0  0
 19 17  1  0  0  0
 17 18  1  0  0  0
 17  1  1  0  0  0
  1  2  1  0  0  0
  2  3  2  0  0  0
  2  4  1  0  0  0
  4  7  1  0  0  0
  7  8  1  0  0  0
  8  9  1  0  0  0
  9 10  1  0  0  0
 10 11  2  0  0  0
 11 12  1  0  0  0
 11 13  1  0  0  0
 13 14  2  0  0  0
 14 15  1  0  0  0
 15 16  2  0  0  0
 23 24  2  0  0  0
 24 25  1  0  0  0
 25 21  1  0  0  0
 16  7  1  0  0  0
 16 10  1  0  0  0
  1  5  1  0  0  0
  4  6  1  0  0  0
 25 26  1  0  0  0
M  END
> <minimizedAffinity>
-9.48953

$$$$
OCNT-2316262


 30 32  0  0  0  0  0  0  0  0999 V2000
   -5.2789   29.8152    5.8184 S   0  0  0  0  0  0  0  0  0  0  0  0
   -6.2371   30.0200    4.7553 O   0  0  0  0  0  0  0  0  0  0  0  0
   -5.6783   29.7538    7.2079 O   0  0  0  0  0  0  0  0  0  0  0  0
   -4.5847   28.2567    5.5314 C   0  0  0  0  0  0  0  0  0  0  0  0
   -3.6506   27.6350    6.3384 C   0  0  0  0  0  0  0  0  0  0  0  0
   -3.3630   26.4196    5.7806 N   0  0  0  0  0  0  0  0  0  0  0  0
   -4.1016   26.2351    4.6329 C   0  0  0  0  0  0  0  0  0  0  0  0
   -4.1304   25.1437    3.7543 C   0  0  0  0  0  0  0  0  0  0  0  0
   -4.9873   25.2051    2.6411 C   0  0  0  0  0  0  0  0  0  0  0  0
   -5.7949   26.3325    2.4489 C   0  0  0  0  0  0  0  0  0  0  0  0
   -5.7542   27.4144    3.3384 C   0  0  0  0  0  0  0  0  0  0  0  0
   -4.8899   27.3755    4.4526 C   0  0  0  0  0  0  0  0  0  0  0  0
   -2.7114   25.7435    6.1567 H   0  0  0  0  0  0  0  0  0  0  0  0
   -5.0637   24.0400    1.6824 C   0  0  0  0  0  0  0  0  0  0  0  0
   -3.9406   23.9207    0.9218 F   0  0  0  0  0  0  0  0  0  0  0  0
   -6.0996   24.1432    0.8020 F   0  0  0  0  0  0  0  0  0  0  0  0
   -5.2254   22.8389    2.3041 F   0  0  0  0  0  0  0  0  0  0  0  0
   -4.0599   30.9893    5.7211 N   0  0  0  0  0  0  0  0  0  0  0  0
   -4.4984   31.8548    5.3965 H   0  0  0  0  0  0  0  0  0  0  0  0
   -3.6788   32.2816    7.7470 C   0  0  0  0  0  0  0  0  0  0  0  0
   -2.9470   32.5150    8.9159 C   0  0  0  0  0  0  0  0  0  0  0  0
   -1.7962   31.7697    9.1975 C   0  0  0  0  0  0  0  0  0  0  0  0
   -1.3532   30.7863    8.3084 C   0  0  0  0  0  0  0  0  0  0  0  0
   -2.0795   30.5254    7.1451 C   0  0  0  0  0  0  0  0  0  0  0  0
   -3.2544   31.2344    6.8895 C   0  0  0  0  0  0  0  0  0  0  0  0
   -5.0463   34.3255    7.9966 C   0  0  0  0  0  0  0  0  0  0  0  0
   -4.8124   33.0359    7.3598 N   0  0  0  0  0  0  0  0  0  0  0  0
   -4.7715   33.1541    6.3433 H   0  0  0  0  0  0  0  0  0  0  0  0
   -0.1550   30.0518    8.5920 C   0  0  0  0  0  0  0  0  0  0  0  0
    0.8047   29.4400    8.8183 N   0  0  0  0  0  0  0  0  0  0  0  0
 26 27  1  0  0  0
 27 20  1  0  0  0
 20 21  1  0  0  0
 21 22  2  0  0  0
 22 23  1  0  0  0
 23 29  1  0  0  0
 29 30  3  0  0  0
 23 24  2  0  0  0
 24 25  1  0  0  0
 25 18  1  0  0  0
 18  1  1  0  0  0
  1  2  2  0  0  0
  1  3  2  0  0  0
  1  4  1  0  0  0
  4  5  2  0  0  0
  5  6  1  0  0  0
  6  7  1  0  0  0
  7  8  2  0  0  0
  8  9  1  0  0  0
  9 14  1  0  0  0
 14 15  1  0  0  0
 14 16  1  0  0  0
 14 17  1  0  0  0
  9 10  2  0  0  0
 10 11  1  0  0  0
 11 12  2  0  0  0
 25 20  2  0  0  0
 12  4  1  0  0  0
 12  7  1  0  0  0
 27 28  1  0  0  0
 18 19  1  0  0  0
  6 13  1  0  0  0
M  END
> <minimizedAffinity>
-9.80802

$$$$
OCNT-2316287


 25 29  0  0  0  0  0  0  0  0999 V2000
   -4.1674   26.5272    3.9098 N   0  0  0  0  0  0  0  0  0  0  0  0
   -4.9385   26.7456    4.5397 H   0  0  0  0  0  0  0  0  0  0  0  0
   -2.9580   26.6127    4.6056 C   0  0  0  0  0  0  0  0  0  0  0  0
   -2.8319   27.4163    5.7564 C   0  0  0  0  0  0  0  0  0  0  0  0
   -3.7485   28.1996    6.4413 N   0  0  0  0  0  0  0  0  0  0  0  0
   -3.0631   28.7099    7.4454 C   0  0  0  0  0  0  0  0  0  0  0  0
   -1.7626   28.2973    7.4225 N   0  0  0  0  0  0  0  0  0  0  0  0
   -1.5865   27.4509    6.3666 C   0  0  0  0  0  0  0  0  0  0  0  0
   -0.4755   26.7947    5.9899 N   0  0  0  0  0  0  0  0  0  0  0  0
   -0.7076   26.0578    4.8879 C   0  0  0  0  0  0  0  0  0  0  0  0
   -1.8589   25.9283    4.1930 N   0  0  0  0  0  0  0  0  0  0  0  0
   -0.7385   28.6510    8.4228 C   0  0  0  0  0  0  0  0  0  0  0  0
    0.6139   29.1916    8.0230 C   0  0  0  0  0  0  0  0  0  0  0  0
   -0.3627   30.0818    8.7308 C   0  0  0  0  0  0  0  0  0  0  0  0
   -4.3592   25.3412    3.0802 C   0  0  0  0  0  0  0  0  0  0  0  0
   -7.3254   23.5191   -0.7035 C   0  0  0  0  0  0  0  0  0  0  0  0
   -6.7189   24.7650   -0.5751 C   0  0  0  0  0  0  0  0  0  0  0  0
   -6.2401   25.1864    0.6680 C   0  0  0  0  0  0  0  0  0  0  0  0
   -6.3482   24.3613    1.8003 C   0  0  0  0  0  0  0  0  0  0  0  0
   -7.0128   23.1344    1.6633 C   0  0  0  0  0  0  0  0  0  0  0  0
   -7.4742   22.7055    0.4171 C   0  0  0  0  0  0  0  0  0  0  0  0
   -7.2454   22.2755    2.7050 O   0  0  0  0  0  0  0  0  0  0  0  0
   -7.1947   22.9080    3.9848 C   0  0  0  0  0  0  0  0  0  0  0  0
   -5.8887   23.6542    4.1633 C   0  0  0  0  0  0  0  0  0  0  0  0
   -5.8107   24.8086    3.1506 C   0  0  0  0  0  0  0  0  0  0  0  0
 16 17  2  0  0  0
 17 18  1  0  0  0
 18 19  2  0  0  0
 19 20  1  0  0  0
 20 21  2  0  0  0
 20 22  1  0  0  0
 22 23  1  0  0  0
 23 24  1  0  0  0
 24 25  1  0  0  0
 25 15  1  0  0  0
 15  1  1  0  0  0
  1  3  1  0  0  0
  3  4  2  0  0  0
  4  5  1  0  0  0
  5  6  2  0  0  0
  6  7  1  0  0  0
  7 12  1  0  0  0
 12 13  1  0  0  0
 13 14  1  0  0  0
  7  8  1  0  0  0
  8  9  2  0  0  0
  9 10  1  0  0  0
 10 11  2  0  0  0
 21 16  1  0  0  0
 11  3  1  0  0  0
 25 19  1  0  0  0
  8  4  1  0  0  0
 14 12  1  0  0  0
  1  2  1  0  0  0
M  END
> <minimizedAffinity>
-9.46178

$$$$
OCNT-2316288


 26 29  0  0  0  0  0  0  0  0999 V2000
   -5.9793   24.9377    4.4828 C   0  0  0  0  0  0  0  0  0  0  0  0
   -5.3733   24.7401    3.2701 C   0  0  0  0  0  0  0  0  0  0  0  0
   -4.3109   25.2799    2.4030 C   0  0  0  0  0  0  0  0  0  0  0  0
   -4.7466   24.7610    0.9900 C   0  0  0  0  0  0  0  0  0  0  0  0
   -5.7215   23.5580    1.2199 C   0  0  0  0  0  0  0  0  0  0  0  0
   -6.1472   23.7957    2.6106 C   0  0  0  0  0  0  0  0  0  0  0  0
   -7.1669   23.3437    3.3168 N   0  0  0  0  0  0  0  0  0  0  0  0
   -6.9665   23.9198    4.5622 N   0  0  0  0  0  0  0  0  0  0  0  0
   -7.5845   23.3076    5.6945 C   0  0  0  0  0  0  0  0  0  0  0  0
   -6.8224   22.4652    6.5207 C   0  0  0  0  0  0  0  0  0  0  0  0
   -7.3926   21.8812    7.6544 C   0  0  0  0  0  0  0  0  0  0  0  0
   -8.7207   22.1471    7.9818 C   0  0  0  0  0  0  0  0  0  0  0  0
   -9.4773   23.0008    7.1806 C   0  0  0  0  0  0  0  0  0  0  0  0
   -8.9101   23.5869    6.0450 C   0  0  0  0  0  0  0  0  0  0  0  0
   -5.7625   27.2976    5.0285 C   0  0  0  0  0  0  0  0  0  0  0  0
   -6.2264   27.7271    3.9772 O   0  0  0  0  0  0  0  0  0  0  0  0
   -5.6701   25.9536    5.3807 N   0  0  0  0  0  0  0  0  0  0  0  0
   -4.9821   25.7184    6.0875 H   0  0  0  0  0  0  0  0  0  0  0  0
   -5.1765   28.2273    6.0767 C   0  0  0  0  0  0  0  0  0  0  0  0
   -1.6269   28.0921    6.8163 N   0  0  0  0  0  0  0  0  0  0  0  0
   -2.8269   28.6568    7.1297 C   0  0  0  0  0  0  0  0  0  0  0  0
   -3.7139   28.0667    6.2525 C   0  0  0  0  0  0  0  0  0  0  0  0
   -3.0336   27.1469    5.4931 N   0  0  0  0  0  0  0  0  0  0  0  0
   -1.7567   27.1729    5.8485 N   0  0  0  0  0  0  0  0  0  0  0  0
    0.4956   29.3027    6.5142 C   0  0  0  0  0  0  0  0  0  0  0  0
   -0.3308   28.3774    7.3897 C   0  0  0  0  0  0  0  0  0  0  0  0
 25 26  1  0  0  0
 26 20  1  0  0  0
 20 21  1  0  0  0
 21 22  2  0  0  0
 22 19  1  0  0  0
 19 15  1  0  0  0
 15 16  2  0  0  0
 15 17  1  0  0  0
 17  1  1  0  0  0
  1  2  2  0  0  0
  2  3  1  0  0  0
  3  4  1  0  0  0
  4  5  1  0  0  0
  5  6  1  0  0  0
  6  7  2  0  0  0
  7  8  1  0  0  0
  8  9  1  0  0  0
  9 10  2  0  0  0
 10 11  1  0  0  0
 11 12  2  0  0  0
 12 13  1  0  0  0
 13 14  2  0  0  0
 22 23  1  0  0  0
 23 24  2  0  0  0
 24 20  1  0  0  0
  8  1  1  0  0  0
 14  9  1  0  0  0
  6  2  1  0  0  0
 17 18  1  0  0  0
M  END
> <minimizedAffinity>
-8.89452

$$$$
OCNT-2316296


 24 27  0  0  0  0  0  0  0  0999 V2000
   -4.5944   26.9179    4.8571 N   0  0  0  0  0  0  0  0  0  0  0  0
   -5.5328   25.9701    4.5668 C   0  0  0  0  0  0  0  0  0  0  0  0
   -4.8646   25.0843    3.7498 C   0  0  0  0  0  0  0  0  0  0  0  0
   -3.5733   25.5090    3.5864 N   0  0  0  0  0  0  0  0  0  0  0  0
   -3.4161   26.6317    4.2743 N   0  0  0  0  0  0  0  0  0  0  0  0
   -5.4240   23.8938    3.1446 C   0  0  0  0  0  0  0  0  0  0  0  0
   -5.3804   22.6939    3.8561 C   0  0  0  0  0  0  0  0  0  0  0  0
   -5.8593   21.5131    3.4067 N   0  0  0  0  0  0  0  0  0  0  0  0
   -6.4280   21.5304    2.1824 C   0  0  0  0  0  0  0  0  0  0  0  0
   -6.5397   22.6617    1.3713 C   0  0  0  0  0  0  0  0  0  0  0  0
   -7.1433   22.5916    0.1023 C   0  0  0  0  0  0  0  0  0  0  0  0
   -7.2411   23.7237   -0.7032 C   0  0  0  0  0  0  0  0  0  0  0  0
   -6.7357   24.9355   -0.2510 C   0  0  0  0  0  0  0  0  0  0  0  0
   -6.1344   25.0163    1.0083 C   0  0  0  0  0  0  0  0  0  0  0  0
   -6.0238   23.8864    1.8573 C   0  0  0  0  0  0  0  0  0  0  0  0
   -4.0613   32.0201    6.7736 O   0  0  0  0  0  0  0  0  0  0  0  0
   -4.1656   30.8489    6.4241 C   0  0  0  0  0  0  0  0  0  0  0  0
   -3.6542   29.7058    7.2676 C   0  0  0  0  0  0  0  0  0  0  0  0
   -3.4362   28.4604    6.4241 C   0  0  0  0  0  0  0  0  0  0  0  0
   -4.7395   28.0814    5.7138 C   0  0  0  0  0  0  0  0  0  0  0  0
   -5.2948   29.2550    4.9247 C   0  0  0  0  0  0  0  0  0  0  0  0
   -6.1781   29.1418    4.0768 O   0  0  0  0  0  0  0  0  0  0  0  0
   -4.8433   30.5059    5.2810 N   0  0  0  0  0  0  0  0  0  0  0  0
   -5.2515   31.2792    4.7713 H   0  0  0  0  0  0  0  0  0  0  0  0
 16 17  2  0  0  0
 17 18  1  0  0  0
 18 19  1  0  0  0
 19 20  1  0  0  0
 20  1  1  0  0  0
  1  2  1  0  0  0
  2  3  2  0  0  0
  3  6  1  0  0  0
  6  7  1  0  0  0
  7  8  2  0  0  0
  8  9  1  0  0  0
  9 10  2  0  0  0
 10 11  1  0  0  0
 11 12  2  0  0  0
 12 13  1  0  0  0
 13 14  2  0  0  0
 14 15  1  0  0  0
  3  4  1  0  0  0
  4  5  2  0  0  0
 20 21  1  0  0  0
 21 22  2  0  0  0
 21 23  1  0  0  0
 23 17  1  0  0  0
  5  1  1  0  0  0
 15  6  2  0  0  0
 15 10  1  0  0  0
 23 24  1  0  0  0
M  END
> <minimizedAffinity>
-9.51077

$$$$
OCNT-2316305


 21 22  0  0  0  0  0  0  0  0999 V2000
   -4.0400   31.2641    8.5021 N   0  0  0  0  0  0  0  0  0  0  0  0
   -4.5065   30.0984    7.7769 C   0  0  0  0  0  0  0  0  0  0  0  0
   -3.6314   28.8845    8.0659 C   0  0  0  0  0  0  0  0  0  0  0  0
   -2.2393   29.1280    7.6833 N   0  0  0  0  0  0  0  0  0  0  0  0
   -1.4326   28.1517    7.1006 C   0  0  0  0  0  0  0  0  0  0  0  0
   -0.3192   28.3992    6.6401 O   0  0  0  0  0  0  0  0  0  0  0  0
   -1.6833   30.4918    7.9940 C   0  0  0  0  0  0  0  0  0  0  0  0
   -1.3419   31.2383    6.6886 C   0  0  0  0  0  0  0  0  0  0  0  0
   -0.4290   30.3814    8.8872 C   0  0  0  0  0  0  0  0  0  0  0  0
   -2.6846   31.4420    8.7569 C   0  0  0  0  0  0  0  0  0  0  0  0
   -2.2894   32.3877    9.4427 O   0  0  0  0  0  0  0  0  0  0  0  0
   -5.0232   32.1923    9.0512 C   0  0  0  0  0  0  0  0  0  0  0  0
   -4.7999   34.6616    8.6090 C   0  0  0  0  0  0  0  0  0  0  0  0
   -5.3229   33.3354    8.0827 C   0  0  0  0  0  0  0  0  0  0  0  0
   -1.9976   26.7423    7.0085 C   0  0  0  0  0  0  0  0  0  0  0  0
   -1.7621   26.1108    5.6380 C   0  0  0  0  0  0  0  0  0  0  0  0
   -2.8663   26.3476    4.7267 N   0  0  0  0  0  0  0  0  0  0  0  0
   -4.1080   26.8115    5.0534 C   0  0  0  0  0  0  0  0  0  0  0  0
   -4.7872   26.8773    3.8595 C   0  0  0  0  0  0  0  0  0  0  0  0
   -3.9919   26.4582    2.8235 N   0  0  0  0  0  0  0  0  0  0  0  0
   -2.8453   26.1352    3.3775 C   0  0  0  0  0  0  0  0  0  0  0  0
 13 14  1  0  0  0
 14 12  1  0  0  0
 12  1  1  0  0  0
  1  2  1  0  0  0
  2  3  1  0  0  0
  3  4  1  0  0  0
  4  5  1  0  0  0
  5  6  2  0  0  0
  5 15  1  0  0  0
 15 16  1  0  0  0
 16 17  1  0  0  0
 17 18  1  0  0  0
 18 19  2  0  0  0
 19 20  1  0  0  0
 20 21  2  0  0  0
  4  7  1  0  0  0
  7  8  1  0  0  0
  7  9  1  0  0  0
  7 10  1  0  0  0
 10 11  2  0  0  0
 10  1  1  0  0  0
 21 17  1  0  0  0
M  END
> <minimizedAffinity>
-7.41220

$$$$
OCNT-2316334


 23 25  0  0  0  0  0  0  0  0999 V2000
   -1.7822   28.2610    7.3004 C   0  0  0  0  0  0  0  0  0  0  0  0
   -2.7043   29.1103    7.7073 N   0  0  0  0  0  0  0  0  0  0  0  0
   -2.2050   30.4009    7.7197 C   0  0  0  0  0  0  0  0  0  0  0  0
   -0.8825   30.5110    7.3373 C   0  0  0  0  0  0  0  0  0  0  0  0
   -0.2525   28.9671    6.9415 S   0  0  0  0  0  0  0  0  0  0  0  0
   -3.0395   31.5261    8.1046 C   0  0  0  0  0  0  0  0  0  0  0  0
   -3.9491   32.0801    7.1980 C   0  0  0  0  0  0  0  0  0  0  0  0
   -4.0398   31.6184    5.9412 F   0  0  0  0  0  0  0  0  0  0  0  0
   -4.7706   33.1524    7.5541 C   0  0  0  0  0  0  0  0  0  0  0  0
   -4.6953   33.6935    8.8356 C   0  0  0  0  0  0  0  0  0  0  0  0
   -3.7944   33.1579    9.7531 C   0  0  0  0  0  0  0  0  0  0  0  0
   -2.9784   32.0857    9.3850 C   0  0  0  0  0  0  0  0  0  0  0  0
   -2.1333   31.5992   10.3076 F   0  0  0  0  0  0  0  0  0  0  0  0
   -1.9849   26.7688    7.1499 C   0  0  0  0  0  0  0  0  0  0  0  0
   -1.3870   26.0654    4.9012 C   0  0  0  0  0  0  0  0  0  0  0  0
   -2.4875   26.3024    5.8351 N   0  0  0  0  0  0  0  0  0  0  0  0
   -3.5068   27.2181    5.2742 C   0  0  0  0  0  0  0  0  0  0  0  0
   -4.7734   26.5116    4.7223 C   0  0  0  0  0  0  0  0  0  0  0  0
   -4.8950   25.2326    5.4046 O   0  0  0  0  0  0  0  0  0  0  0  0
   -6.1188   27.3012    4.6611 C   0  0  0  0  0  0  0  0  0  0  0  0
   -5.8642   27.5698    3.1694 C   0  0  0  0  0  0  0  0  0  0  0  0
   -4.8640   26.4008    3.1659 C   0  0  0  0  0  0  0  0  0  0  0  0
   -5.6654   24.7963    5.0040 H   0  0  0  0  0  0  0  0  0  0  0  0
 15 16  1  0  0  0
 16 14  1  0  0  0
 14  1  1  0  0  0
  1  2  2  0  0  0
  2  3  1  0  0  0
  3  6  1  0  0  0
  6  7  2  0  0  0
  7  8  1  0  0  0
  7  9  1  0  0  0
  9 10  2  0  0  0
 10 11  1  0  0  0
 11 12  2  0  0  0
 12 13  1  0  0  0
  3  4  2  0  0  0
  4  5  1  0  0  0
 16 17  1  0  0  0
 17 18  1  0  0  0
 18 19  1  0  0  0
 18 20  1  0  0  0
 20 21  1  0  0  0
 21 22  1  0  0  0
  5  1  1  0  0  0
 22 18  1  0  0  0
 12  6  1  0  0  0
 19 23  1  0  0  0
M  END
> <minimizedAffinity>
-8.16896

$$$$
OCNT-2316345


 25 28  0  0  0  0  0  0  0  0999 V2000
   -2.6637   27.7325    6.4917 C   0  0  0  0  0  0  0  0  0  0  0  0
   -2.1681   27.0385    7.3703 O   0  0  0  0  0  0  0  0  0  0  0  0
   -2.7853   29.1075    6.5062 N   0  0  0  0  0  0  0  0  0  0  0  0
   -3.2752   29.5184    5.7218 H   0  0  0  0  0  0  0  0  0  0  0  0
   -2.3705   30.0235    7.4968 C   0  0  0  0  0  0  0  0  0  0  0  0
   -1.0641   29.8578    7.9978 C   0  0  0  0  0  0  0  0  0  0  0  0
   -0.5354   30.6926    8.9806 C   0  0  0  0  0  0  0  0  0  0  0  0
   -1.2986   31.7344    9.5054 C   0  0  0  0  0  0  0  0  0  0  0  0
   -2.6083   31.9351    9.0319 C   0  0  0  0  0  0  0  0  0  0  0  0
   -3.1176   31.0830    8.0433 C   0  0  0  0  0  0  0  0  0  0  0  0
   -4.3995   31.5257    7.7892 N   0  0  0  0  0  0  0  0  0  0  0  0
   -4.7134   32.6049    8.5683 C   0  0  0  0  0  0  0  0  0  0  0  0
   -3.6205   32.8832    9.3517 C   0  0  0  0  0  0  0  0  0  0  0  0
   -5.0111   31.0933    7.1030 H   0  0  0  0  0  0  0  0  0  0  0  0
   -5.4837   26.2798    2.5882 C   0  0  0  0  0  0  0  0  0  0  0  0
   -4.4852   26.4265    3.6242 N   0  0  0  0  0  0  0  0  0  0  0  0
   -3.3149   25.7786    3.4402 N   0  0  0  0  0  0  0  0  0  0  0  0
   -2.5531   26.1954    4.4470 C   0  0  0  0  0  0  0  0  0  0  0  0
   -3.2032   27.1352    5.2789 C   0  0  0  0  0  0  0  0  0  0  0  0
   -4.4735   27.2541    4.7246 C   0  0  0  0  0  0  0  0  0  0  0  0
   -5.5389   28.0656    5.1371 N   0  0  0  0  0  0  0  0  0  0  0  0
   -6.4834   27.7562    6.0996 C   0  0  0  0  0  0  0  0  0  0  0  0
   -7.3506   28.8137    6.2614 C   0  0  0  0  0  0  0  0  0  0  0  0
   -6.9497   29.8168    5.3618 C   0  0  0  0  0  0  0  0  0  0  0  0
   -5.8511   29.3357    4.6839 C   0  0  0  0  0  0  0  0  0  0  0  0
 15 16  1  0  0  0
 16 17  1  0  0  0
 17 18  2  0  0  0
 18 19  1  0  0  0
 19  1  1  0  0  0
  1  2  2  0  0  0
  1  3  1  0  0  0
  3  5  1  0  0  0
  5  6  1  0  0  0
  6  7  2  0  0  0
  7  8  1  0  0  0
  8  9  2  0  0  0
  9 10  1  0  0  0
 10 11  1  0  0  0
 11 12  1  0  0  0
 12 13  2  0  0  0
 19 20  2  0  0  0
 20 21  1  0  0  0
 21 22  1  0  0  0
 22 23  2  0  0  0
 23 24  1  0  0  0
 24 25  2  0  0  0
 20 16  1  0  0  0
 25 21  1  0  0  0
 10  5  2  0  0  0
 13  9  1  0  0  0
  3  4  1  0  0  0
 11 14  1  0  0  0
M  END
> <minimizedAffinity>
-8.79467

$$$$
OCNT-2316348


 29 31  0  0  0  0  0  0  0  0999 V2000
   -4.0411   27.1447    5.4609 C   0  0  0  0  0  0  0  0  0  0  0  0
   -2.8773   27.0177    5.0823 O   0  0  0  0  0  0  0  0  0  0  0  0
   -4.9998   26.1667    5.3032 N   0  0  0  0  0  0  0  0  0  0  0  0
   -5.8060   26.2152    5.9103 H   0  0  0  0  0  0  0  0  0  0  0  0
   -4.5381   28.4312    6.1409 C   0  0  0  0  0  0  0  0  0  0  0  0
   -6.8981   29.4973    5.9879 C   0  0  0  0  0  0  0  0  0  0  0  0
   -5.5705   29.2150    5.2954 C   0  0  0  0  0  0  0  0  0  0  0  0
   -5.0402   30.5021    4.9387 O   0  0  0  0  0  0  0  0  0  0  0  0
   -4.1117   30.3706    4.6414 H   0  0  0  0  0  0  0  0  0  0  0  0
   -3.3355   29.2310    6.4053 N   0  0  0  0  0  0  0  0  0  0  0  0
   -2.9600   29.6310    7.6568 C   0  0  0  0  0  0  0  0  0  0  0  0
   -3.6176   29.3779    8.6590 O   0  0  0  0  0  0  0  0  0  0  0  0
   -2.7909   29.5093    5.5954 H   0  0  0  0  0  0  0  0  0  0  0  0
   -1.7043   30.4197    7.7702 C   0  0  0  0  0  0  0  0  0  0  0  0
   -1.2387   30.9979    9.0859 C   0  0  0  0  0  0  0  0  0  0  0  0
   -0.4636   29.8828    8.4448 C   0  0  0  0  0  0  0  0  0  0  0  0
   -4.6563   24.8513    4.7933 C   0  0  0  0  0  0  0  0  0  0  0  0
   -5.8215   23.8001    4.8460 C   0  0  0  0  0  0  0  0  0  0  0  0
   -7.1137   24.6006    5.2296 C   0  0  0  0  0  0  0  0  0  0  0  0
   -8.3160   23.7059    5.5324 C   0  0  0  0  0  0  0  0  0  0  0  0
   -8.0089   22.7477    6.6762 C   0  0  0  0  0  0  0  0  0  0  0  0
   -6.7459   21.9403    6.4075 C   0  0  0  0  0  0  0  0  0  0  0  0
   -5.5557   22.8391    6.0504 C   0  0  0  0  0  0  0  0  0  0  0  0
   -6.0830   23.0813    3.5546 N   0  0  0  0  0  0  0  0  0  0  0  0
   -5.2060   21.9547    3.2048 C   0  0  0  0  0  0  0  0  0  0  0  0
   -5.7934   21.1314    2.0532 C   0  0  0  0  0  0  0  0  0  0  0  0
   -6.0639   21.9937    0.8303 C   0  0  0  0  0  0  0  0  0  0  0  0
   -6.9139   23.1947    1.2173 C   0  0  0  0  0  0  0  0  0  0  0  0
   -6.2972   23.9578    2.3907 C   0  0  0  0  0  0  0  0  0  0  0  0
  6  7  1  0  0  0
  7  8  1  0  0  0
  7  5  1  0  0  0
  5 10  1  0  0  0
 10 11  1  0  0  0
 11 12  2  0  0  0
 11 14  1  0  0  0
 14 15  1  0  0  0
 15 16  1  0  0  0
  5  1  1  0  0  0
  1  2  2  0  0  0
  1  3  1  0  0  0
  3 17  1  0  0  0
 17 18  1  0  0  0
 18 24  1  0  0  0
 24 25  1  0  0  0
 25 26  1  0  0  0
 26 27  1  0  0  0
 27 28  1  0  0  0
 28 29  1  0  0  0
 18 19  1  0  0  0
 19 20  1  0  0  0
 20 21  1  0  0  0
 21 22  1  0  0  0
 22 23  1  0  0  0
 16 14  1  0  0  0
 23 18  1  0  0  0
 29 24  1  0  0  0
  8  9  1  0  0  0
 10 13  1  0  0  0
  3  4  1  0  0  0
M  END
> <minimizedAffinity>
-8.97262

$$$$
OCNT-2316349


 29 31  0  0  0  0  0  0  0  0999 V2000
   -2.1458   26.2116    5.0925 N   0  0  0  0  0  0  0  0  0  0  0  0
   -3.5279   26.4527    5.1176 C   0  0  0  0  0  0  0  0  0  0  0  0
   -4.0472   26.8661    6.1602 O   0  0  0  0  0  0  0  0  0  0  0  0
   -4.3687   26.2530    3.9301 C   0  0  0  0  0  0  0  0  0  0  0  0
   -4.6009   25.0927    3.2936 N   0  0  0  0  0  0  0  0  0  0  0  0
   -5.4451   25.4535    2.2897 N   0  0  0  0  0  0  0  0  0  0  0  0
   -5.7833   26.7679    2.2444 N   0  0  0  0  0  0  0  0  0  0  0  0
   -5.1088   27.2635    3.2819 C   0  0  0  0  0  0  0  0  0  0  0  0
   -5.9381   24.5134    1.3478 C   0  0  0  0  0  0  0  0  0  0  0  0
   -6.6484   24.9524    0.2207 C   0  0  0  0  0  0  0  0  0  0  0  0
   -7.1318   24.0235   -0.7033 C   0  0  0  0  0  0  0  0  0  0  0  0
   -6.9096   22.6606   -0.5070 C   0  0  0  0  0  0  0  0  0  0  0  0
   -6.2037   22.2201    0.6124 C   0  0  0  0  0  0  0  0  0  0  0  0
   -5.7166   23.1420    1.5411 C   0  0  0  0  0  0  0  0  0  0  0  0
    0.1131   25.6759    4.1696 C   0  0  0  0  0  0  0  0  0  0  0  0
   -1.3293   26.0679    3.8825 C   0  0  0  0  0  0  0  0  0  0  0  0
   -1.4241   26.3769    6.3593 C   0  0  0  0  0  0  0  0  0  0  0  0
   -1.2982   27.8486    6.7585 C   0  0  0  0  0  0  0  0  0  0  0  0
   -0.8281   28.6832    5.9893 O   0  0  0  0  0  0  0  0  0  0  0  0
   -1.8763   28.1242    7.9902 N   0  0  0  0  0  0  0  0  0  0  0  0
   -2.6582   27.5067    8.2248 H   0  0  0  0  0  0  0  0  0  0  0  0
   -1.9325   29.4309    8.5442 C   0  0  0  0  0  0  0  0  0  0  0  0
   -0.7907   30.1760    8.8935 C   0  0  0  0  0  0  0  0  0  0  0  0
    0.8108   29.5143    8.8791 Cl  0  0  0  0  0  0  0  0  0  0  0  0
   -0.9209   31.4705    9.4161 C   0  0  0  0  0  0  0  0  0  0  0  0
   -2.1814   32.0275    9.6239 C   0  0  0  0  0  0  0  0  0  0  0  0
   -3.3203   31.2836    9.3294 C   0  0  0  0  0  0  0  0  0  0  0  0
   -3.1966   29.9932    8.8043 C   0  0  0  0  0  0  0  0  0  0  0  0
   -4.6557   29.1332    8.4415 Cl  0  0  0  0  0  0  0  0  0  0  0  0
 15 16  1  0  0  0
 16  1  1  0  0  0
  1 17  1  0  0  0
 17 18  1  0  0  0
 18 19  2  0  0  0
 18 20  1  0  0  0
 20 22  1  0  0  0
 22 23  2  0  0  0
 23 24  1  0  0  0
 23 25  1  0  0  0
 25 26  2  0  0  0
 26 27  1  0  0  0
 27 28  2  0  0  0
 28 29  1  0  0  0
  1  2  1  0  0  0
  2  3  2  0  0  0
  2  4  1  0  0  0
  4  5  2  0  0  0
  5  6  1  0  0  0
  6  9  1  0  0  0
  9 10  2  0  0  0
 10 11  1  0  0  0
 11 12  2  0  0  0
 12 13  1  0  0  0
 13 14  2  0  0  0
  6  7  1  0  0  0
  7  8  2  0  0  0
 28 22  1  0  0  0
  8  4  1  0  0  0
 14  9  1  0  0  0
 20 21  1  0  0  0
M  END
> <minimizedAffinity>
-9.89445

$$$$
OCNT-2316354


 27 28  0  0  0  0  0  0  0  0999 V2000
   -5.3555   28.1103    5.6996 C   0  0  0  0  0  0  0  0  0  0  0  0
   -3.8960   27.6171    5.7212 C   0  0  0  0  0  0  0  0  0  0  0  0
   -3.2847   28.3599    6.8122 N   0  0  0  0  0  0  0  0  0  0  0  0
   -2.0601   28.0237    7.3250 C   0  0  0  0  0  0  0  0  0  0  0  0
   -1.3654   27.1284    6.8652 O   0  0  0  0  0  0  0  0  0  0  0  0
   -4.1750   29.3930    7.3343 C   0  0  0  0  0  0  0  0  0  0  0  0
   -5.2124   29.5676    6.2170 C   0  0  0  0  0  0  0  0  0  0  0  0
   -4.6814   30.4647    5.2333 O   0  0  0  0  0  0  0  0  0  0  0  0
   -3.7408   30.2430    5.1078 H   0  0  0  0  0  0  0  0  0  0  0  0
   -6.1195   27.8173    4.4838 N   0  0  0  0  0  0  0  0  0  0  0  0
   -6.8377   27.1226    4.6903 H   0  0  0  0  0  0  0  0  0  0  0  0
   -5.3386   27.3593    3.3392 C   0  0  0  0  0  0  0  0  0  0  0  0
   -6.5430   23.3504    2.1975 C   0  0  0  0  0  0  0  0  0  0  0  0
   -6.1715   24.2819    1.2249 C   0  0  0  0  0  0  0  0  0  0  0  0
   -5.7848   25.5770    1.5920 C   0  0  0  0  0  0  0  0  0  0  0  0
   -5.7678   25.9646    2.9381 C   0  0  0  0  0  0  0  0  0  0  0  0
   -6.1344   25.0294    3.9155 C   0  0  0  0  0  0  0  0  0  0  0  0
   -6.5171   23.7393    3.5435 C   0  0  0  0  0  0  0  0  0  0  0  0
   -6.8726   22.8342    4.5093 O   0  0  0  0  0  0  0  0  0  0  0  0
   -6.7854   23.2547    5.3784 H   0  0  0  0  0  0  0  0  0  0  0  0
   -5.9412   21.1529    1.4947 C   0  0  0  0  0  0  0  0  0  0  0  0
   -6.9343   22.0620    1.9451 O   0  0  0  0  0  0  0  0  0  0  0  0
   -1.7347   28.8041    8.3844 O   0  0  0  0  0  0  0  0  0  0  0  0
   -0.7559   29.8669    8.2558 C   0  0  0  0  0  0  0  0  0  0  0  0
   -0.7501   30.4512    6.8390 C   0  0  0  0  0  0  0  0  0  0  0  0
    0.6371   29.3973    8.6892 C   0  0  0  0  0  0  0  0  0  0  0  0
   -1.2326   30.9535    9.2319 C   0  0  0  0  0  0  0  0  0  0  0  0
 21 22  1  0  0  0
 22 13  1  0  0  0
 13 14  1  0  0  0
 14 15  2  0  0  0
 15 16  1  0  0  0
 16 12  1  0  0  0
 12 10  1  0  0  0
 10  1  1  0  0  0
  1  2  1  0  0  0
  2  3  1  0  0  0
  3  4  1  0  0  0
  4  5  2  0  0  0
  4 23  1  0  0  0
 23 24  1  0  0  0
 24 25  1  0  0  0
 24 26  1  0  0  0
 24 27  1  0  0  0
  3  6  1  0  0  0
  6  7  1  0  0  0
  7  8  1  0  0  0
 16 17  2  0  0  0
 17 18  1  0  0  0
 18 19  1  0  0  0
 18 13  2  0  0  0
  7  1  1  0  0  0
 10 11  1  0  0  0
  8  9  1  0  0  0
 19 20  1  0  0  0
M  END
> <minimizedAffinity>
-8.39131

$$$$
OCNT-2316356


 28 31  0  0  0  0  0  0  0  0999 V2000
   -5.0799   29.6901    5.1233 O   0  0  0  0  0  0  0  0  0  0  0  0
   -5.2942   29.0084    6.1231 C   0  0  0  0  0  0  0  0  0  0  0  0
   -4.6816   27.8056    6.3652 N   0  0  0  0  0  0  0  0  0  0  0  0
   -6.2186   29.4077    7.0968 N   0  0  0  0  0  0  0  0  0  0  0  0
   -6.5927   28.6264    8.2776 C   0  0  0  0  0  0  0  0  0  0  0  0
   -5.5609   28.6711    9.4110 C   0  0  0  0  0  0  0  0  0  0  0  0
   -5.5585   29.9644   10.2316 C   0  0  0  0  0  0  0  0  0  0  0  0
   -4.8621   31.1281    9.5610 C   0  0  0  0  0  0  0  0  0  0  0  0
   -3.5327   31.4153    9.9235 C   0  0  0  0  0  0  0  0  0  0  0  0
   -2.8359   32.4714    9.3345 C   0  0  0  0  0  0  0  0  0  0  0  0
   -3.4538   33.2541    8.3672 C   0  0  0  0  0  0  0  0  0  0  0  0
   -4.7679   32.9791    7.9889 C   0  0  0  0  0  0  0  0  0  0  0  0
   -5.4863   31.9231    8.5784 C   0  0  0  0  0  0  0  0  0  0  0  0
   -6.8877   31.6437    8.0877 C   0  0  0  0  0  0  0  0  0  0  0  0
   -6.9145   30.6855    6.8902 C   0  0  0  0  0  0  0  0  0  0  0  0
   -4.9067   27.2954    7.2051 H   0  0  0  0  0  0  0  0  0  0  0  0
   -3.6719   27.1540    5.6191 C   0  0  0  0  0  0  0  0  0  0  0  0
   -2.3122   27.2182    5.9111 C   0  0  0  0  0  0  0  0  0  0  0  0
   -1.4164   26.4749    5.1489 C   0  0  0  0  0  0  0  0  0  0  0  0
   -1.9168   25.6909    4.1247 C   0  0  0  0  0  0  0  0  0  0  0  0
   -3.2272   25.6102    3.8056 N   0  0  0  0  0  0  0  0  0  0  0  0
   -4.0958   26.3458    4.5346 C   0  0  0  0  0  0  0  0  0  0  0  0
   -5.4804   26.3340    4.2094 N   0  0  0  0  0  0  0  0  0  0  0  0
   -6.1531   25.0551    4.5433 C   0  0  0  0  0  0  0  0  0  0  0  0
   -5.9808   23.9619    3.4724 C   0  0  0  0  0  0  0  0  0  0  0  0
   -6.3150   24.4422    2.1602 O   0  0  0  0  0  0  0  0  0  0  0  0
   -5.4695   25.5520    1.8234 C   0  0  0  0  0  0  0  0  0  0  0  0
   -5.6968   26.7222    2.7923 C   0  0  0  0  0  0  0  0  0  0  0  0
  1  2  2  0  0  0
  2  3  1  0  0  0
  3 17  1  0  0  0
 17 18  1  0  0  0
 18 19  2  0  0  0
 19 20  1  0  0  0
 20 21  2  0  0  0
 21 22  1  0  0  0
 22 23  1  0  0  0
 23 24  1  0  0  0
 24 25  1  0  0  0
 25 26  1  0  0  0
 26 27  1  0  0  0
 27 28  1  0  0  0
  2  4  1  0  0  0
  4  5  1  0  0  0
  5  6  1  0  0  0
  6  7  1  0  0  0
  7  8  1  0  0  0
  8  9  2  0  0  0
  9 10  1  0  0  0
 10 11  2  0  0  0
 11 12  1  0  0  0
 12 13  2  0  0  0
 13 14  1  0  0  0
 14 15  1  0  0  0
 22 17  2  0  0  0
 28 23  1  0  0  0
 15  4  1  0  0  0
 13  8  1  0  0  0
  3 16  1  0  0  0
M  END
> <minimizedAffinity>
-8.87677

$$$$
OCNT-2316388


 26 28  0  0  0  0  0  0  0  0999 V2000
   -6.2679   28.4606    5.9819 C   0  0  0  0  0  0  0  0  0  0  0  0
   -7.6627   28.4393    6.6052 C   0  0  0  0  0  0  0  0  0  0  0  0
   -5.7311   24.0116    1.8683 C   0  0  0  0  0  0  0  0  0  0  0  0
   -5.8558   23.2791    3.0527 C   0  0  0  0  0  0  0  0  0  0  0  0
   -6.0071   23.9198    4.2905 C   0  0  0  0  0  0  0  0  0  0  0  0
   -6.0269   25.3115    4.2776 C   0  0  0  0  0  0  0  0  0  0  0  0
   -6.1611   26.1063    5.3712 O   0  0  0  0  0  0  0  0  0  0  0  0
   -6.1364   27.4018    4.9338 C   0  0  0  0  0  0  0  0  0  0  0  0
   -5.9815   27.4444    3.5562 C   0  0  0  0  0  0  0  0  0  0  0  0
   -5.9011   28.6613    2.7106 C   0  0  0  0  0  0  0  0  0  0  0  0
   -5.9091   26.0825    3.1297 C   0  0  0  0  0  0  0  0  0  0  0  0
   -5.7563   25.4161    1.8988 C   0  0  0  0  0  0  0  0  0  0  0  0
   -6.5443   22.5282    0.1922 C   0  0  0  0  0  0  0  0  0  0  0  0
   -5.5786   23.4830    0.6137 O   0  0  0  0  0  0  0  0  0  0  0  0
   -5.2300   28.2216    6.9690 N   0  0  0  0  0  0  0  0  0  0  0  0
   -4.0802   28.9766    6.9876 C   0  0  0  0  0  0  0  0  0  0  0  0
   -3.8435   29.8325    6.1459 O   0  0  0  0  0  0  0  0  0  0  0  0
   -3.2711   28.6099    8.0404 N   0  0  0  0  0  0  0  0  0  0  0  0
   -5.5547   27.8408    7.8452 H   0  0  0  0  0  0  0  0  0  0  0  0
   -3.5341   27.7540    8.5054 H   0  0  0  0  0  0  0  0  0  0  0  0
   -2.0468   29.1934    8.4258 C   0  0  0  0  0  0  0  0  0  0  0  0
   -0.8110   28.5722    8.2764 C   0  0  0  0  0  0  0  0  0  0  0  0
    0.3243   29.2539    8.6866 C   0  0  0  0  0  0  0  0  0  0  0  0
    0.3089   30.4930    9.2219 N   0  0  0  0  0  0  0  0  0  0  0  0
   -0.8990   31.0757    9.3531 C   0  0  0  0  0  0  0  0  0  0  0  0
   -2.0895   30.4761    8.9735 C   0  0  0  0  0  0  0  0  0  0  0  0
 13 14  1  0  0  0
 14  3  1  0  0  0
  3  4  2  0  0  0
  4  5  1  0  0  0
  5  6  2  0  0  0
  6  7  1  0  0  0
  7  8  1  0  0  0
  8  1  1  0  0  0
  1  2  1  0  0  0
  1 15  1  0  0  0
 15 16  1  0  0  0
 16 17  2  0  0  0
 16 18  1  0  0  0
 18 21  1  0  0  0
 21 22  2  0  0  0
 22 23  1  0  0  0
 23 24  2  0  0  0
 24 25  1  0  0  0
 25 26  2  0  0  0
  8  9  2  0  0  0
  9 10  1  0  0  0
  9 11  1  0  0  0
 11 12  2  0  0  0
 12  3  1  0  0  0
 11  6  1  0  0  0
 26 21  1  0  0  0
 15 19  1  0  0  0
 18 20  1  0  0  0
M  END
> <minimizedAffinity>
-8.70514

$$$$
OCNT-2316398


 23 26  0  0  0  0  0  0  0  0999 V2000
   -1.1654   26.3615    6.0447 O   0  0  0  0  0  0  0  0  0  0  0  0
   -2.0958   27.1644    6.0541 C   0  0  0  0  0  0  0  0  0  0  0  0
   -3.0996   27.1370    5.0985 N   0  0  0  0  0  0  0  0  0  0  0  0
   -3.8539   27.8101    5.1969 H   0  0  0  0  0  0  0  0  0  0  0  0
   -2.2678   28.2095    7.0426 C   0  0  0  0  0  0  0  0  0  0  0  0
   -1.3216   28.9840    7.5394 N   0  0  0  0  0  0  0  0  0  0  0  0
   -2.0352   29.7633    8.4127 C   0  0  0  0  0  0  0  0  0  0  0  0
   -3.3474   29.5097    8.4663 N   0  0  0  0  0  0  0  0  0  0  0  0
   -3.5077   28.4677    7.5473 O   0  0  0  0  0  0  0  0  0  0  0  0
   -1.3770   30.8690    9.2830 C   0  0  0  0  0  0  0  0  0  0  0  0
   -1.5017   32.3095    8.8459 C   0  0  0  0  0  0  0  0  0  0  0  0
   -2.2422   31.8298   10.0630 C   0  0  0  0  0  0  0  0  0  0  0  0
   -3.1379   26.1637    4.0269 C   0  0  0  0  0  0  0  0  0  0  0  0
   -4.6041   25.7800    3.7951 C   0  0  0  0  0  0  0  0  0  0  0  0
   -5.6765   26.7773    4.2759 C   0  0  0  0  0  0  0  0  0  0  0  0
   -5.7726   27.2386    2.8217 C   0  0  0  0  0  0  0  0  0  0  0  0
   -5.0122   26.0456    2.3828 N   0  0  0  0  0  0  0  0  0  0  0  0
   -5.9067   24.9864    1.8618 C   0  0  0  0  0  0  0  0  0  0  0  0
   -5.2327   23.6005    1.9796 C   0  0  0  0  0  0  0  0  0  0  0  0
   -5.7575   22.6059    0.9482 C   0  0  0  0  0  0  0  0  0  0  0  0
   -7.0954   22.9275    0.5881 O   0  0  0  0  0  0  0  0  0  0  0  0
   -7.1749   24.1494   -0.1464 C   0  0  0  0  0  0  0  0  0  0  0  0
   -6.2297   25.2295    0.3802 C   0  0  0  0  0  0  0  0  0  0  0  0
  1  2  2  0  0  0
  2  3  1  0  0  0
  3 13  1  0  0  0
 13 14  1  0  0  0
 14 15  1  0  0  0
 15 16  1  0  0  0
 16 17  1  0  0  0
 17 18  1  0  0  0
 18 19  1  0  0  0
 19 20  1  0  0  0
 20 21  1  0  0  0
 21 22  1  0  0  0
 22 23  1  0  0  0
  2  5  1  0  0  0
  5  6  2  0  0  0
  6  7  1  0  0  0
  7 10  1  0  0  0
 10 11  1  0  0  0
 11 12  1  0  0  0
  7  8  2  0  0  0
  8  9  1  0  0  0
 17 14  1  0  0  0
 23 18  1  0  0  0
  9  5  1  0  0  0
 12 10  1  0  0  0
  3  4  1  0  0  0
M  END
> <minimizedAffinity>
-8.29578

$$$$
OCNT-2316402


 27 28  0  0  0  0  0  0  0  0999 V2000
   -3.4316   26.7359    4.4332 N   0  0  0  0  0  0  0  0  0  0  0  0
   -2.9170   26.9283    5.6869 C   0  0  0  0  0  0  0  0  0  0  0  0
   -2.2794   26.0579    6.2747 O   0  0  0  0  0  0  0  0  0  0  0  0
   -3.1785   28.1747    6.2423 N   0  0  0  0  0  0  0  0  0  0  0  0
   -2.6985   28.3848    7.6121 C   0  0  0  0  0  0  0  0  0  0  0  0
   -2.5442   29.8715    7.9756 C   0  0  0  0  0  0  0  0  0  0  0  0
   -3.7719   30.6526    7.6983 N   0  0  0  0  0  0  0  0  0  0  0  0
   -4.0909   30.5060    6.2608 C   0  0  0  0  0  0  0  0  0  0  0  0
   -4.3176   29.0296    5.8397 C   0  0  0  0  0  0  0  0  0  0  0  0
   -5.6376   28.4859    6.4009 C   0  0  0  0  0  0  0  0  0  0  0  0
   -3.4637   27.5529    3.8456 H   0  0  0  0  0  0  0  0  0  0  0  0
   -3.1949   25.5031    3.7138 C   0  0  0  0  0  0  0  0  0  0  0  0
   -5.3917   24.2184    3.8523 C   0  0  0  0  0  0  0  0  0  0  0  0
   -6.5640   23.7553    3.2439 C   0  0  0  0  0  0  0  0  0  0  0  0
   -6.8250   24.0402    1.9000 C   0  0  0  0  0  0  0  0  0  0  0  0
   -5.9204   24.7958    1.1612 C   0  0  0  0  0  0  0  0  0  0  0  0
   -6.2539   25.1548   -0.4877 Cl  0  0  0  0  0  0  0  0  0  0  0  0
   -4.7505   25.2630    1.7526 C   0  0  0  0  0  0  0  0  0  0  0  0
   -4.4678   24.9692    3.0991 C   0  0  0  0  0  0  0  0  0  0  0  0
   -5.7992   23.0221    5.8764 C   0  0  0  0  0  0  0  0  0  0  0  0
   -5.0646   24.0133    5.1676 O   0  0  0  0  0  0  0  0  0  0  0  0
   -3.5902   32.0779    8.0643 C   0  0  0  0  0  0  0  0  0  0  0  0
   -4.9056   32.6807    8.6309 C   0  0  0  0  0  0  0  0  0  0  0  0
   -4.5897   33.8153    9.6060 C   0  0  0  0  0  0  0  0  0  0  0  0
   -5.7967   31.6403    9.3113 C   0  0  0  0  0  0  0  0  0  0  0  0
   -5.6471   33.2414    7.5376 O   0  0  0  0  0  0  0  0  0  0  0  0
   -5.5869   32.5651    6.8323 H   0  0  0  0  0  0  0  0  0  0  0  0
 20 21  1  0  0  0
 21 13  1  0  0  0
 13 14  1  0  0  0
 14 15  2  0  0  0
 15 16  1  0  0  0
 16 17  1  0  0  0
 16 18  2  0  0  0
 18 19  1  0  0  0
 19 12  1  0  0  0
 12  1  1  0  0  0
  1  2  1  0  0  0
  2  3  2  0  0  0
  2  4  1  0  0  0
  4  5  1  0  0  0
  5  6  1  0  0  0
  6  7  1  0  0  0
  7 22  1  0  0  0
 22 23  1  0  0  0
 23 24  1  0  0  0
 23 25  1  0  0  0
 23 26  1  0  0  0
  7  8  1  0  0  0
  8  9  1  0  0  0
  9 10  1  0  0  0
 19 13  2  0  0  0
  9  4  1  0  0  0
  1 11  1  0  0  0
 26 27  1  0  0  0
M  END
> <minimizedAffinity>
-8.18793

$$$$
OCNT-2316408


 32 35  0  0  0  0  0  0  0  0999 V2000
   -5.6932   30.7783    7.1154 C   0  0  0  0  0  0  0  0  0  0  0  0
   -6.7798   30.3223    7.4574 O   0  0  0  0  0  0  0  0  0  0  0  0
   -4.8920   30.2652    6.1163 N   0  0  0  0  0  0  0  0  0  0  0  0
   -4.0132   30.7483    5.9631 H   0  0  0  0  0  0  0  0  0  0  0  0
   -4.1564   31.9699    8.8295 C   0  0  0  0  0  0  0  0  0  0  0  0
   -3.7590   33.1749    9.4338 C   0  0  0  0  0  0  0  0  0  0  0  0
   -4.3558   34.3850    9.0811 C   0  0  0  0  0  0  0  0  0  0  0  0
   -5.3550   34.4087    8.1165 C   0  0  0  0  0  0  0  0  0  0  0  0
   -5.7566   33.2208    7.5040 C   0  0  0  0  0  0  0  0  0  0  0  0
   -5.1665   31.9873    7.8431 C   0  0  0  0  0  0  0  0  0  0  0  0
   -4.4651   29.5979    9.4540 C   0  0  0  0  0  0  0  0  0  0  0  0
   -3.5114   30.7262    9.2242 N   0  0  0  0  0  0  0  0  0  0  0  0
   -2.1622   30.2425    8.2647 S   0  0  0  0  0  0  0  0  0  0  0  0
   -0.7649   30.8270    9.2078 C   0  0  0  0  0  0  0  0  0  0  0  0
   -2.2128   30.9485    7.0027 O   0  0  0  0  0  0  0  0  0  0  0  0
   -2.1437   28.7938    8.2996 O   0  0  0  0  0  0  0  0  0  0  0  0
   -5.1133   29.1307    5.3128 C   0  0  0  0  0  0  0  0  0  0  0  0
   -4.4701   27.9473    5.6937 C   0  0  0  0  0  0  0  0  0  0  0  0
   -4.6357   26.7677    4.9549 C   0  0  0  0  0  0  0  0  0  0  0  0
   -5.4475   26.7475    3.8143 C   0  0  0  0  0  0  0  0  0  0  0  0
   -6.0910   27.9368    3.4445 C   0  0  0  0  0  0  0  0  0  0  0  0
   -5.9264   29.1165    4.1829 C   0  0  0  0  0  0  0  0  0  0  0  0
   -5.6525   25.5403    3.0043 C   0  0  0  0  0  0  0  0  0  0  0  0
   -6.0497   25.5148    1.7430 N   0  0  0  0  0  0  0  0  0  0  0  0
   -6.0999   24.1928    1.3794 C   0  0  0  0  0  0  0  0  0  0  0  0
   -6.4606   23.6097    0.1567 C   0  0  0  0  0  0  0  0  0  0  0  0
   -6.4234   22.2139    0.0424 C   0  0  0  0  0  0  0  0  0  0  0  0
   -6.0348   21.4175    1.1230 C   0  0  0  0  0  0  0  0  0  0  0  0
   -5.6718   21.9834    2.3510 C   0  0  0  0  0  0  0  0  0  0  0  0
   -5.7198   23.3765    2.4350 C   0  0  0  0  0  0  0  0  0  0  0  0
   -5.4404   24.2537    3.4502 N   0  0  0  0  0  0  0  0  0  0  0  0
   -5.1178   23.9959    4.3689 H   0  0  0  0  0  0  0  0  0  0  0  0
 11 12  1  0  0  0
 12  5  1  0  0  0
  5  6  2  0  0  0
  6  7  1  0  0  0
  7  8  2  0  0  0
  8  9  1  0  0  0
  9 10  2  0  0  0
 10  1  1  0  0  0
  1  2  2  0  0  0
  1  3  1  0  0  0
  3 17  1  0  0  0
 17 18  1  0  0  0
 18 19  2  0  0  0
 19 20  1  0  0  0
 20 23  1  0  0  0
 23 24  2  0  0  0
 24 25  1  0  0  0
 25 26  2  0  0  0
 26 27  1  0  0  0
 27 28  2  0  0  0
 28 29  1  0  0  0
 29 30  2  0  0  0
 30 31  1  0  0  0
 20 21  2  0  0  0
 21 22  1  0  0  0
 12 13  1  0  0  0
 13 14  1  0  0  0
 13 15  2  0  0  0
 13 16  2  0  0  0
 10  5  1  0  0  0
 22 17  2  0  0  0
 31 23  1  0  0  0
 30 25  1  0  0  0
  3  4  1  0  0  0
 31 32  1  0  0  0
M  END
> <minimizedAffinity>
-10.41828

$$$$
OCNT-2316412


 24 26  0  0  0  0  0  0  0  0999 V2000
   -3.1582   29.9717    9.2111 N   0  0  0  0  0  0  0  0  0  0  0  0
   -3.3100   30.1534   10.2035 H   0  0  0  0  0  0  0  0  0  0  0  0
   -4.3317   30.1070    8.5111 C   0  0  0  0  0  0  0  0  0  0  0  0
   -5.2818   30.8533    9.0896 N   0  0  0  0  0  0  0  0  0  0  0  0
   -6.4479   30.9793    8.4259 C   0  0  0  0  0  0  0  0  0  0  0  0
   -6.6947   30.3982    7.2093 C   0  0  0  0  0  0  0  0  0  0  0  0
   -7.8846   30.5565    6.6157 F   0  0  0  0  0  0  0  0  0  0  0  0
   -5.6629   29.6548    6.6779 C   0  0  0  0  0  0  0  0  0  0  0  0
   -4.4817   29.4994    7.3251 N   0  0  0  0  0  0  0  0  0  0  0  0
   -5.7411   28.9583    5.3902 C   0  0  0  0  0  0  0  0  0  0  0  0
   -5.5595   27.5957    5.2373 C   0  0  0  0  0  0  0  0  0  0  0  0
   -5.7273   27.0754    3.6129 S   0  0  0  0  0  0  0  0  0  0  0  0
   -6.0676   28.6620    3.0833 C   0  0  0  0  0  0  0  0  0  0  0  0
   -6.0516   29.5642    4.1232 C   0  0  0  0  0  0  0  0  0  0  0  0
   -1.9277   30.5480    8.6786 C   0  0  0  0  0  0  0  0  0  0  0  0
   -1.5080   31.8037    9.4507 C   0  0  0  0  0  0  0  0  0  0  0  0
   -0.8137   29.4760    8.6840 C   0  0  0  0  0  0  0  0  0  0  0  0
   -0.4923   26.2136    4.7506 C   0  0  0  0  0  0  0  0  0  0  0  0
   -0.8132   26.9829    5.9719 C   0  0  0  0  0  0  0  0  0  0  0  0
   -0.2489   28.1080    6.5288 C   0  0  0  0  0  0  0  0  0  0  0  0
   -1.0021   28.3613    7.6996 C   0  0  0  0  0  0  0  0  0  0  0  0
   -1.9729   27.4520    7.8624 N   0  0  0  0  0  0  0  0  0  0  0  0
   -1.8405   26.6367    6.8045 N   0  0  0  0  0  0  0  0  0  0  0  0
   -2.4878   25.8606    6.7133 H   0  0  0  0  0  0  0  0  0  0  0  0
 18 19  1  0  0  0
 19 20  2  0  0  0
 20 21  1  0  0  0
 21 17  1  0  0  0
 17 15  1  0  0  0
 15 16  1  0  0  0
 15  1  1  0  0  0
  1  3  1  0  0  0
  3  4  2  0  0  0
  4  5  1  0  0  0
  5  6  2  0  0  0
  6  7  1  0  0  0
  6  8  1  0  0  0
  8 10  1  0  0  0
 10 11  2  0  0  0
 11 12  1  0  0  0
 12 13  1  0  0  0
 13 14  2  0  0  0
  8  9  2  0  0  0
 21 22  2  0  0  0
 22 23  1  0  0  0
 23 19  1  0  0  0
  9  3  1  0  0  0
 14 10  1  0  0  0
  1  2  1  0  0  0
 23 24  1  0  0  0
M  END
> <minimizedAffinity>
-8.14060

$$$$
OCNT-2316420


 38 41  0  0  0  0  0  0  0  0999 V2000
   -5.0892   23.2426    2.7032 C   0  0  0  0  0  0  0  0  0  0  0  0
   -6.1009   22.7254    0.5144 C   0  0  0  0  0  0  0  0  0  0  0  0
   -5.3578   21.7646    0.3352 O   0  0  0  0  0  0  0  0  0  0  0  0
   -6.1431   23.4199    1.7043 N   0  0  0  0  0  0  0  0  0  0  0  0
   -6.5296   24.3583    1.6758 H   0  0  0  0  0  0  0  0  0  0  0  0
   -7.1504   24.7757   -0.4948 C   0  0  0  0  0  0  0  0  0  0  0  0
   -7.0683   23.2505   -0.5430 C   0  0  0  0  0  0  0  0  0  0  0  0
   -8.4547   22.6400   -0.3482 C   0  0  0  0  0  0  0  0  0  0  0  0
   -4.8471   24.5982    3.4061 C   0  0  0  0  0  0  0  0  0  0  0  0
   -3.7520   24.8750    3.8930 O   0  0  0  0  0  0  0  0  0  0  0  0
   -5.9651   25.4212    3.3928 N   0  0  0  0  0  0  0  0  0  0  0  0
   -6.8415   24.9943    3.1170 H   0  0  0  0  0  0  0  0  0  0  0  0
   -6.0411   26.7642    3.8179 C   0  0  0  0  0  0  0  0  0  0  0  0
   -5.9204   27.8603    2.9603 C   0  0  0  0  0  0  0  0  0  0  0  0
   -6.0227   29.1653    3.4534 C   0  0  0  0  0  0  0  0  0  0  0  0
   -6.2581   29.3870    4.8077 C   0  0  0  0  0  0  0  0  0  0  0  0
   -6.4081   28.2966    5.6637 C   0  0  0  0  0  0  0  0  0  0  0  0
   -6.2833   26.9928    5.1776 C   0  0  0  0  0  0  0  0  0  0  0  0
   -6.6116   28.4441    7.0170 O   0  0  0  0  0  0  0  0  0  0  0  0
   -5.7204   29.2359    7.7048 C   0  0  0  0  0  0  0  0  0  0  0  0
   -6.1065   30.3849    8.4002 C   0  0  0  0  0  0  0  0  0  0  0  0
   -5.1540   31.1195    9.1118 C   0  0  0  0  0  0  0  0  0  0  0  0
   -3.8190   30.6981    9.1410 C   0  0  0  0  0  0  0  0  0  0  0  0
   -3.4417   29.5363    8.4578 C   0  0  0  0  0  0  0  0  0  0  0  0
   -4.3945   28.8018    7.7473 C   0  0  0  0  0  0  0  0  0  0  0  0
   -2.8436   31.4508    9.8752 C   0  0  0  0  0  0  0  0  0  0  0  0
   -2.0572   32.0636   10.4699 N   0  0  0  0  0  0  0  0  0  0  0  0
   -5.4125   22.1287    3.7115 C   0  0  0  0  0  0  0  0  0  0  0  0
   -6.8616   21.7459    3.7957 C   0  0  0  0  0  0  0  0  0  0  0  0
   -7.5084   20.8249    2.9930 C   0  0  0  0  0  0  0  0  0  0  0  0
   -8.8183   20.7572    3.3822 N   0  0  0  0  0  0  0  0  0  0  0  0
   -9.0448   21.6056    4.4395 C   0  0  0  0  0  0  0  0  0  0  0  0
  -10.2220   21.8560    5.1555 C   0  0  0  0  0  0  0  0  0  0  0  0
  -10.1613   22.7812    6.2009 C   0  0  0  0  0  0  0  0  0  0  0  0
   -8.9690   23.4253    6.5179 C   0  0  0  0  0  0  0  0  0  0  0  0
   -7.8009   23.1596    5.7938 C   0  0  0  0  0  0  0  0  0  0  0  0
   -7.8342   22.2364    4.7281 C   0  0  0  0  0  0  0  0  0  0  0  0
   -9.5222   20.1647    2.9641 H   0  0  0  0  0  0  0  0  0  0  0  0
  6  7  1  0  0  0
  7  8  1  0  0  0
  7  2  1  0  0  0
  2  3  2  0  0  0
  2  4  1  0  0  0
  4  1  1  0  0  0
  1 28  1  0  0  0
 28 29  1  0  0  0
 29 30  2  0  0  0
 30 31  1  0  0  0
 31 32  1  0  0  0
 32 33  2  0  0  0
 33 34  1  0  0  0
 34 35  2  0  0  0
 35 36  1  0  0  0
 36 37  2  0  0  0
  1  9  1  0  0  0
  9 10  2  0  0  0
  9 11  1  0  0  0
 11 13  1  0  0  0
 13 14  2  0  0  0
 14 15  1  0  0  0
 15 16  2  0  0  0
 16 17  1  0  0  0
 17 19  1  0  0  0
 19 20  1  0  0  0
 20 21  1  0  0  0
 21 22  2  0  0  0
 22 23  1  0  0  0
 23 26  1  0  0  0
 26 27  3  0  0  0
 23 24  2  0  0  0
 24 25  1  0  0  0
 17 18  2  0  0  0
 37 29  1  0  0  0
 18 13  1  0  0  0
 37 32  1  0  0  0
 25 20  2  0  0  0
  4  5  1  0  0  0
 31 38  1  0  0  0
 11 12  1  0  0  0
M  END
> <minimizedAffinity>
-10.57983

$$$$
OCNT-2316424


 29 33  0  0  0  0  0  0  0  0999 V2000
   -5.1457   26.9585    2.4626 O   0  0  0  0  0  0  0  0  0  0  0  0
   -4.5094   25.9706    2.8169 C   0  0  0  0  0  0  0  0  0  0  0  0
   -4.7335   24.6602    2.4290 N   0  0  0  0  0  0  0  0  0  0  0  0
   -4.0179   23.4659    2.9114 C   0  0  0  0  0  0  0  0  0  0  0  0
   -4.8088   22.2255    2.4289 C   0  0  0  0  0  0  0  0  0  0  0  0
   -5.6919   22.8477    1.3819 C   0  0  0  0  0  0  0  0  0  0  0  0
   -6.4799   22.2070    0.4347 C   0  0  0  0  0  0  0  0  0  0  0  0
   -7.2693   22.9836   -0.4156 C   0  0  0  0  0  0  0  0  0  0  0  0
   -7.2601   24.3811   -0.3160 C   0  0  0  0  0  0  0  0  0  0  0  0
   -6.4493   25.0214    0.6247 C   0  0  0  0  0  0  0  0  0  0  0  0
   -5.6610   24.2441    1.4571 C   0  0  0  0  0  0  0  0  0  0  0  0
   -3.4123   26.2032    3.7793 C   0  0  0  0  0  0  0  0  0  0  0  0
   -2.1303   25.7469    3.4557 C   0  0  0  0  0  0  0  0  0  0  0  0
   -1.0607   25.9402    4.3356 C   0  0  0  0  0  0  0  0  0  0  0  0
   -1.3413   26.5934    5.5408 C   0  0  0  0  0  0  0  0  0  0  0  0
   -0.5399   26.9277    6.6023 N   0  0  0  0  0  0  0  0  0  0  0  0
   -1.1836   27.5614    7.5985 N   0  0  0  0  0  0  0  0  0  0  0  0
   -2.4466   27.6147    7.1685 C   0  0  0  0  0  0  0  0  0  0  0  0
   -2.6130   27.0372    5.8903 C   0  0  0  0  0  0  0  0  0  0  0  0
   -3.6826   26.8359    5.0025 C   0  0  0  0  0  0  0  0  0  0  0  0
    0.4528   26.7517    6.7073 H   0  0  0  0  0  0  0  0  0  0  0  0
   -5.5699   21.5951    3.6116 C   0  0  0  0  0  0  0  0  0  0  0  0
   -6.9885   22.1340    3.8701 C   0  0  0  0  0  0  0  0  0  0  0  0
   -8.0549   21.0158    3.9306 C   0  0  0  0  0  0  0  0  0  0  0  0
   -9.3575   21.5465    4.2102 O   0  0  0  0  0  0  0  0  0  0  0  0
   -9.3584   22.2747    5.4435 C   0  0  0  0  0  0  0  0  0  0  0  0
   -8.3218   23.4055    5.4197 C   0  0  0  0  0  0  0  0  0  0  0  0
   -6.9632   22.9054    5.1402 N   0  0  0  0  0  0  0  0  0  0  0  0
   -6.6846   22.2849    5.9003 H   0  0  0  0  0  0  0  0  0  0  0  0
  1  2  2  0  0  0
  2 12  1  0  0  0
 12 13  2  0  0  0
 13 14  1  0  0  0
 14 15  2  0  0  0
 15 16  1  0  0  0
 16 17  1  0  0  0
 17 18  2  0  0  0
 18 19  1  0  0  0
 19 20  2  0  0  0
  2  3  1  0  0  0
  3  4  1  0  0  0
  4  5  1  0  0  0
  5 22  1  0  0  0
 22 23  1  0  0  0
 23 24  1  0  0  0
 24 25  1  0  0  0
 25 26  1  0  0  0
 26 27  1  0  0  0
 27 28  1  0  0  0
  5  6  1  0  0  0
  6  7  2  0  0  0
  7  8  1  0  0  0
  8  9  2  0  0  0
  9 10  1  0  0  0
 10 11  2  0  0  0
 20 12  1  0  0  0
 11  3  1  0  0  0
 19 15  1  0  0  0
 28 23  1  0  0  0
 11  6  1  0  0  0
 16 21  1  0  0  0
 28 29  1  0  0  0
M  END
> <minimizedAffinity>
-10.75034

$$$$
OCNT-2316431


 24 26  0  0  0  0  0  0  0  0999 V2000
   -2.5163   26.8625    5.3960 C   0  0  0  0  0  0  0  0  0  0  0  0
   -1.4399   26.2957    5.2323 O   0  0  0  0  0  0  0  0  0  0  0  0
   -2.7007   27.9708    6.2125 N   0  0  0  0  0  0  0  0  0  0  0  0
   -3.9737   28.6844    6.4326 C   0  0  0  0  0  0  0  0  0  0  0  0
   -3.6902   29.8719    7.3733 C   0  0  0  0  0  0  0  0  0  0  0  0
   -2.2434   29.6618    7.7094 C   0  0  0  0  0  0  0  0  0  0  0  0
   -1.4642   30.4072    8.5854 C   0  0  0  0  0  0  0  0  0  0  0  0
   -0.1251   30.0535    8.7504 C   0  0  0  0  0  0  0  0  0  0  0  0
    0.4134   28.9684    8.0462 C   0  0  0  0  0  0  0  0  0  0  0  0
   -0.3811   28.2200    7.1720 C   0  0  0  0  0  0  0  0  0  0  0  0
   -1.7110   28.5738    7.0137 C   0  0  0  0  0  0  0  0  0  0  0  0
   -3.9527   31.2136    6.6948 C   0  0  0  0  0  0  0  0  0  0  0  0
   -4.2678   31.0018    5.3217 O   0  0  0  0  0  0  0  0  0  0  0  0
   -4.4753   31.8743    4.9418 H   0  0  0  0  0  0  0  0  0  0  0  0
   -3.7744   26.3707    4.6955 C   0  0  0  0  0  0  0  0  0  0  0  0
   -3.5825   25.0761    3.9026 C   0  0  0  0  0  0  0  0  0  0  0  0
   -7.3073   23.4410    0.8716 C   0  0  0  0  0  0  0  0  0  0  0  0
   -6.4783   23.7065    2.0831 C   0  0  0  0  0  0  0  0  0  0  0  0
   -5.3102   24.3699    2.1847 C   0  0  0  0  0  0  0  0  0  0  0  0
   -4.6128   25.0598    1.0544 C   0  0  0  0  0  0  0  0  0  0  0  0
   -4.8101   24.4094    3.4875 N   0  0  0  0  0  0  0  0  0  0  0  0
   -5.6324   23.8298    4.4544 C   0  0  0  0  0  0  0  0  0  0  0  0
   -5.5064   23.8336    5.6678 O   0  0  0  0  0  0  0  0  0  0  0  0
   -7.0162   23.1077    3.6315 S   0  0  0  0  0  0  0  0  0  0  0  0
 17 18  1  0  0  0
 18 19  2  0  0  0
 19 20  1  0  0  0
 19 21  1  0  0  0
 21 16  1  0  0  0
 16 15  1  0  0  0
 15  1  1  0  0  0
  1  2  2  0  0  0
  1  3  1  0  0  0
  3  4  1  0  0  0
  4  5  1  0  0  0
  5 12  1  0  0  0
 12 13  1  0  0  0
  5  6  1  0  0  0
  6  7  2  0  0  0
  7  8  1  0  0  0
  8  9  2  0  0  0
  9 10  1  0  0  0
 10 11  2  0  0  0
 21 22  1  0  0  0
 22 23  2  0  0  0
 22 24  1  0  0  0
 24 18  1  0  0  0
 11  3  1  0  0  0
 11  6  1  0  0  0
 13 14  1  0  0  0
M  END
> <minimizedAffinity>
-8.65922

$$$$
OCNT-2316444


 27 30  0  0  0  0  0  0  0  0999 V2000
   -4.7393   30.2338    7.5275 N   0  0  0  0  0  0  0  0  0  0  0  0
   -7.1416   31.0460    7.2988 O   0  0  0  0  0  0  0  0  0  0  0  0
   -6.3708   29.8337    7.4312 S   0  0  0  0  0  0  0  0  0  0  0  0
   -6.6787   28.8610    8.4504 O   0  0  0  0  0  0  0  0  0  0  0  0
   -6.4090   29.0196    5.9530 N   0  0  0  0  0  0  0  0  0  0  0  0
   -5.6466   29.6770    4.8577 C   0  0  0  0  0  0  0  0  0  0  0  0
   -6.0485   29.0566    3.5193 C   0  0  0  0  0  0  0  0  0  0  0  0
   -5.9219   27.5539    3.5338 C   0  0  0  0  0  0  0  0  0  0  0  0
   -5.8446   26.8459    2.3259 C   0  0  0  0  0  0  0  0  0  0  0  0
   -5.7402   25.4541    2.3297 C   0  0  0  0  0  0  0  0  0  0  0  0
   -5.7379   24.7593    3.5356 C   0  0  0  0  0  0  0  0  0  0  0  0
   -5.8426   25.4545    4.7438 C   0  0  0  0  0  0  0  0  0  0  0  0
   -5.9443   26.8542    4.7544 C   0  0  0  0  0  0  0  0  0  0  0  0
   -6.0243   27.5884    6.0788 C   0  0  0  0  0  0  0  0  0  0  0  0
   -3.9696   29.5246    8.5797 C   0  0  0  0  0  0  0  0  0  0  0  0
   -2.4980   29.2940    8.3091 C   0  0  0  0  0  0  0  0  0  0  0  0
   -1.5285   30.1787    8.8093 C   0  0  0  0  0  0  0  0  0  0  0  0
   -0.1707   29.9632    8.5647 C   0  0  0  0  0  0  0  0  0  0  0  0
    0.2406   28.8632    7.8148 C   0  0  0  0  0  0  0  0  0  0  0  0
   -0.7148   27.9893    7.3129 C   0  0  0  0  0  0  0  0  0  0  0  0
   -0.3579   26.9019    6.5730 O   0  0  0  0  0  0  0  0  0  0  0  0
   -2.0716   28.1973    7.5476 C   0  0  0  0  0  0  0  0  0  0  0  0
    0.6100   26.8726    6.5033 H   0  0  0  0  0  0  0  0  0  0  0  0
   -4.3938   31.6662    7.3827 C   0  0  0  0  0  0  0  0  0  0  0  0
   -4.7282   32.4247    8.6347 C   0  0  0  0  0  0  0  0  0  0  0  0
   -3.6441   33.1292    9.4124 C   0  0  0  0  0  0  0  0  0  0  0  0
   -4.6754   33.9346    8.6727 C   0  0  0  0  0  0  0  0  0  0  0  0
  2  3  2  0  0  0
  3  4  2  0  0  0
  3  5  1  0  0  0
  5  6  1  0  0  0
  6  7  1  0  0  0
  7  8  1  0  0  0
  8  9  2  0  0  0
  9 10  1  0  0  0
 10 11  2  0  0  0
 11 12  1  0  0  0
 12 13  2  0  0  0
 13 14  1  0  0  0
  3  1  1  0  0  0
  1 15  1  0  0  0
 15 16  1  0  0  0
 16 17  2  0  0  0
 17 18  1  0  0  0
 18 19  2  0  0  0
 19 20  1  0  0  0
 20 21  1  0  0  0
 20 22  2  0  0  0
  1 24  1  0  0  0
 24 25  1  0  0  0
 25 26  1  0  0  0
 26 27  1  0  0  0
 14  5  1  0  0  0
 22 16  1  0  0  0
 27 25  1  0  0  0
 13  8  1  0  0  0
 21 23  1  0  0  0
M  END
> <minimizedAffinity>
-9.82241

$$$$
OCNT-2316459


 34 36  0  0  0  0  0  0  0  0999 V2000
   -4.9536   29.3427    7.8798 N   0  0  0  0  0  0  0  0  0  0  0  0
   -3.7148   28.9859    7.4185 C   0  0  0  0  0  0  0  0  0  0  0  0
   -3.1006   29.5950    6.5537 O   0  0  0  0  0  0  0  0  0  0  0  0
   -3.2628   27.8468    8.0231 N   0  0  0  0  0  0  0  0  0  0  0  0
   -5.5199   28.5799    8.2272 H   0  0  0  0  0  0  0  0  0  0  0  0
   -3.5815   27.7696    8.9765 H   0  0  0  0  0  0  0  0  0  0  0  0
   -5.6689   30.4781    7.2890 C   0  0  0  0  0  0  0  0  0  0  0  0
   -6.4180   30.8048    9.7021 C   0  0  0  0  0  0  0  0  0  0  0  0
   -6.0659   31.4837    8.3844 C   0  0  0  0  0  0  0  0  0  0  0  0
   -6.9024   29.9809    6.4980 C   0  0  0  0  0  0  0  0  0  0  0  0
   -6.5604   29.0053    5.3990 C   0  0  0  0  0  0  0  0  0  0  0  0
   -6.2124   29.4582    4.1205 C   0  0  0  0  0  0  0  0  0  0  0  0
   -5.8865   28.5478    3.1109 C   0  0  0  0  0  0  0  0  0  0  0  0
   -5.8969   27.1718    3.3644 C   0  0  0  0  0  0  0  0  0  0  0  0
   -5.5677   26.1896    2.2787 C   0  0  0  0  0  0  0  0  0  0  0  0
   -6.2673   26.7175    4.6365 C   0  0  0  0  0  0  0  0  0  0  0  0
   -6.5931   27.6265    5.6457 C   0  0  0  0  0  0  0  0  0  0  0  0
   -1.8905   27.3742    7.8223 C   0  0  0  0  0  0  0  0  0  0  0  0
   -1.7633   26.8078    6.4104 C   0  0  0  0  0  0  0  0  0  0  0  0
   -2.8653   26.2078    5.7833 C   0  0  0  0  0  0  0  0  0  0  0  0
   -2.7577   25.7086    4.4837 C   0  0  0  0  0  0  0  0  0  0  0  0
   -1.5480   25.7970    3.7937 C   0  0  0  0  0  0  0  0  0  0  0  0
   -0.4288   26.3833    4.3966 C   0  0  0  0  0  0  0  0  0  0  0  0
   -0.5435   26.8725    5.7088 C   0  0  0  0  0  0  0  0  0  0  0  0
    0.8860   26.4747    3.6622 C   0  0  0  0  0  0  0  0  0  0  0  0
    1.6324   27.5474    4.0372 F   0  0  0  0  0  0  0  0  0  0  0  0
    1.6768   25.3818    3.8537 F   0  0  0  0  0  0  0  0  0  0  0  0
    0.7273   26.5766    2.3112 F   0  0  0  0  0  0  0  0  0  0  0  0
   -0.8797   28.4502    8.1159 C   0  0  0  0  0  0  0  0  0  0  0  0
    0.4229   28.4511    7.8958 N   0  0  0  0  0  0  0  0  0  0  0  0
    0.9525   29.6012    8.4404 N   0  0  0  0  0  0  0  0  0  0  0  0
   -0.0376   30.2878    8.9592 C   0  0  0  0  0  0  0  0  0  0  0  0
   -1.1977   29.6056    8.7889 N   0  0  0  0  0  0  0  0  0  0  0  0
   -2.1312   29.8707    9.0922 H   0  0  0  0  0  0  0  0  0  0  0  0
  8  9  1  0  0  0
  9  7  1  0  0  0
  7 10  1  0  0  0
 10 11  1  0  0  0
 11 12  1  0  0  0
 12 13  2  0  0  0
 13 14  1  0  0  0
 14 15  1  0  0  0
 14 16  2  0  0  0
 16 17  1  0  0  0
  7  1  1  0  0  0
  1  2  1  0  0  0
  2  3  2  0  0  0
  2  4  1  0  0  0
  4 18  1  0  0  0
 18 19  1  0  0  0
 19 20  2  0  0  0
 20 21  1  0  0  0
 21 22  2  0  0  0
 22 23  1  0  0  0
 23 25  1  0  0  0
 25 26  1  0  0  0
 25 27  1  0  0  0
 25 28  1  0  0  0
 23 24  2  0  0  0
 18 29  1  0  0  0
 29 30  2  0  0  0
 30 31  1  0  0  0
 31 32  2  0  0  0
 32 33  1  0  0  0
 17 11  2  0  0  0
 24 19  1  0  0  0
 33 29  1  0  0  0
  1  5  1  0  0  0
  4  6  1  0  0  0
 33 34  1  0  0  0
M  END
> <minimizedAffinity>
-10.87471

$$$$
OCNT-2316493


 22 23  0  0  0  0  0  0  0  0999 V2000
   -4.1083   32.6557    8.5647 S   0  0  0  0  0  0  0  0  0  0  0  0
   -3.9943   33.5798    9.6693 O   0  0  0  0  0  0  0  0  0  0  0  0
   -4.2923   33.0913    7.1996 O   0  0  0  0  0  0  0  0  0  0  0  0
   -0.8605   30.1349    7.7626 C   0  0  0  0  0  0  0  0  0  0  0  0
   -0.6136   30.6134    9.0384 C   0  0  0  0  0  0  0  0  0  0  0  0
   -1.6276   31.5019    9.4976 C   0  0  0  0  0  0  0  0  0  0  0  0
   -2.6200   31.6884    8.5563 C   0  0  0  0  0  0  0  0  0  0  0  0
   -2.3258   30.7747    7.1437 S   0  0  0  0  0  0  0  0  0  0  0  0
   -0.0226   29.2125    7.0127 C   0  0  0  0  0  0  0  0  0  0  0  0
    0.7872   29.5534    6.1573 O   0  0  0  0  0  0  0  0  0  0  0  0
   -0.8456   27.1171    6.3549 C   0  0  0  0  0  0  0  0  0  0  0  0
   -0.2478   27.9163    7.3751 O   0  0  0  0  0  0  0  0  0  0  0  0
   -5.3800   31.6006    8.8948 N   0  0  0  0  0  0  0  0  0  0  0  0
   -5.3150   31.2372    9.8464 H   0  0  0  0  0  0  0  0  0  0  0  0
   -5.7652   30.6214    7.8549 C   0  0  0  0  0  0  0  0  0  0  0  0
   -7.1555   30.9998    7.3364 C   0  0  0  0  0  0  0  0  0  0  0  0
   -7.6053   30.0612    6.2120 C   0  0  0  0  0  0  0  0  0  0  0  0
   -6.8423   28.7353    6.1879 C   0  0  0  0  0  0  0  0  0  0  0  0
   -6.6282   28.2489    7.5426 N   0  0  0  0  0  0  0  0  0  0  0  0
   -5.7488   29.1337    8.3379 C   0  0  0  0  0  0  0  0  0  0  0  0
   -6.1619   28.9411    9.8000 C   0  0  0  0  0  0  0  0  0  0  0  0
   -6.2327   27.3082    7.5261 H   0  0  0  0  0  0  0  0  0  0  0  0
 11 12  1  0  0  0
 12  9  1  0  0  0
  9 10  2  0  0  0
  9  4  1  0  0  0
  4  5  2  0  0  0
  5  6  1  0  0  0
  6  7  2  0  0  0
  7  1  1  0  0  0
  1  2  2  0  0  0
  1  3  2  0  0  0
  1 13  1  0  0  0
 13 15  1  0  0  0
 15 16  1  0  0  0
 16 17  1  0  0  0
 17 18  1  0  0  0
 18 19  1  0  0  0
 19 20  1  0  0  0
 20 21  1  0  0  0
  7  8  1  0  0  0
  8  4  1  0  0  0
 20 15  1  0  0  0
 13 14  1  0  0  0
 19 22  1  0  0  0
M  END
> <minimizedAffinity>
-7.52590

$$$$
OCNT-2316497


 23 25  0  0  0  0  0  0  0  0999 V2000
   -4.0821   32.6840    8.2689 C   0  0  0  0  0  0  0  0  0  0  0  0
   -4.1017   33.4168    9.4984 O   0  0  0  0  0  0  0  0  0  0  0  0
   -3.2001   33.7711    9.6092 H   0  0  0  0  0  0  0  0  0  0  0  0
   -2.8553   31.8372    8.2988 C   0  0  0  0  0  0  0  0  0  0  0  0
   -1.9722   31.4366    9.2826 C   0  0  0  0  0  0  0  0  0  0  0  0
   -0.9819   30.6424    8.6492 C   0  0  0  0  0  0  0  0  0  0  0  0
    0.1659   29.9453    9.0652 C   0  0  0  0  0  0  0  0  0  0  0  0
    0.9175   29.2530    8.1046 C   0  0  0  0  0  0  0  0  0  0  0  0
    0.5406   29.2519    6.7586 C   0  0  0  0  0  0  0  0  0  0  0  0
   -0.5970   29.9413    6.3254 C   0  0  0  0  0  0  0  0  0  0  0  0
   -1.3223   30.6183    7.3028 C   0  0  0  0  0  0  0  0  0  0  0  0
   -2.4513   31.3474    7.0861 O   0  0  0  0  0  0  0  0  0  0  0  0
   -5.4028   31.8929    8.1370 C   0  0  0  0  0  0  0  0  0  0  0  0
   -5.4969   31.1402    6.8735 N   0  0  0  0  0  0  0  0  0  0  0  0
   -5.8943   31.7512    6.1601 H   0  0  0  0  0  0  0  0  0  0  0  0
   -6.0924   29.1475    8.2674 C   0  0  0  0  0  0  0  0  0  0  0  0
   -6.3011   29.9084    6.9512 C   0  0  0  0  0  0  0  0  0  0  0  0
   -6.1915   29.0859    5.6817 C   0  0  0  0  0  0  0  0  0  0  0  0
   -6.0990   29.7326    4.4400 C   0  0  0  0  0  0  0  0  0  0  0  0
   -5.9978   28.9924    3.2658 C   0  0  0  0  0  0  0  0  0  0  0  0
   -5.9913   27.6132    3.3636 C   0  0  0  0  0  0  0  0  0  0  0  0
   -6.0743   26.9461    4.5330 N   0  0  0  0  0  0  0  0  0  0  0  0
   -6.1701   27.6943    5.6587 C   0  0  0  0  0  0  0  0  0  0  0  0
 16 17  1  0  0  0
 17 14  1  0  0  0
 14 13  1  0  0  0
 13  1  1  0  0  0
  1  2  1  0  0  0
  1  4  1  0  0  0
  4  5  2  0  0  0
  5  6  1  0  0  0
  6  7  2  0  0  0
  7  8  1  0  0  0
  8  9  2  0  0  0
  9 10  1  0  0  0
 10 11  2  0  0  0
 11 12  1  0  0  0
 17 18  1  0  0  0
 18 19  1  0  0  0
 19 20  2  0  0  0
 20 21  1  0  0  0
 21 22  2  0  0  0
 22 23  1  0  0  0
 12  4  1  0  0  0
 23 18  2  0  0  0
 11  6  1  0  0  0
 14 15  1  0  0  0
  2  3  1  0  0  0
M  END
> <minimizedAffinity>
-8.74463

$$$$
OCNT-2316507


 25 28  0  0  0  0  0  0  0  0999 V2000
   -5.2176   28.2164    5.7249 N   0  0  0  0  0  0  0  0  0  0  0  0
   -6.1491   28.9085    6.4608 C   0  0  0  0  0  0  0  0  0  0  0  0
   -7.3584   28.7023    6.4791 O   0  0  0  0  0  0  0  0  0  0  0  0
   -5.5942   29.9099    7.2421 N   0  0  0  0  0  0  0  0  0  0  0  0
   -6.3758   31.0249    7.7824 C   0  0  0  0  0  0  0  0  0  0  0  0
   -5.0348   31.7734    7.9753 C   0  0  0  0  0  0  0  0  0  0  0  0
   -4.9820   33.2296    7.4783 C   0  0  0  0  0  0  0  0  0  0  0  0
   -4.6776   34.0545    8.7249 C   0  0  0  0  0  0  0  0  0  0  0  0
   -3.8171   33.1225    9.5605 C   0  0  0  0  0  0  0  0  0  0  0  0
   -4.5516   31.7934    9.4366 C   0  0  0  0  0  0  0  0  0  0  0  0
   -4.4246   30.7521    6.9555 C   0  0  0  0  0  0  0  0  0  0  0  0
   -4.2453   28.3869    5.9163 H   0  0  0  0  0  0  0  0  0  0  0  0
   -2.9771   30.1507    7.2205 C   0  0  0  0  0  0  0  0  0  0  0  0
   -1.8377   30.7189    6.6153 C   0  0  0  0  0  0  0  0  0  0  0  0
   -0.5541   30.2017    6.8129 C   0  0  0  0  0  0  0  0  0  0  0  0
   -0.3699   29.0921    7.6298 C   0  0  0  0  0  0  0  0  0  0  0  0
   -1.4670   28.5045    8.2487 C   0  0  0  0  0  0  0  0  0  0  0  0
   -2.7465   29.0286    8.0453 C   0  0  0  0  0  0  0  0  0  0  0  0
   -5.7192   26.1348    2.9084 C   0  0  0  0  0  0  0  0  0  0  0  0
   -5.3263   27.3427    3.4286 C   0  0  0  0  0  0  0  0  0  0  0  0
   -5.4994   27.2061    4.8285 C   0  0  0  0  0  0  0  0  0  0  0  0
   -5.9755   25.9936    5.1241 N   0  0  0  0  0  0  0  0  0  0  0  0
   -6.1103   25.3236    3.9251 O   0  0  0  0  0  0  0  0  0  0  0  0
   -4.5261   24.8289    1.1690 C   0  0  0  0  0  0  0  0  0  0  0  0
   -5.7986   25.5717    1.5420 C   0  0  0  0  0  0  0  0  0  0  0  0
 24 25  1  0  0  0
 25 19  1  0  0  0
 19 20  2  0  0  0
 20 21  1  0  0  0
 21  1  1  0  0  0
  1  2  1  0  0  0
  2  3  2  0  0  0
  2  4  1  0  0  0
  4  5  1  0  0  0
  5  6  1  0  0  0
  6  7  1  0  0  0
  7  8  1  0  0  0
  8  9  1  0  0  0
  9 10  1  0  0  0
  6 11  1  0  0  0
 11 13  1  0  0  0
 13 14  2  0  0  0
 14 15  1  0  0  0
 15 16  2  0  0  0
 16 17  1  0  0  0
 17 18  2  0  0  0
 21 22  2  0  0  0
 22 23  1  0  0  0
 23 19  1  0  0  0
 11  4  1  0  0  0
 18 13  1  0  0  0
 10  6  1  0  0  0
  1 12  1  0  0  0
M  END
> <minimizedAffinity>
-9.63452

$$$$
OCNT-2316527


 24 27  0  0  0  0  0  0  0  0999 V2000
   -6.0546   29.7704    4.0651 O   0  0  0  0  0  0  0  0  0  0  0  0
   -6.3032   28.7780    4.7512 C   0  0  0  0  0  0  0  0  0  0  0  0
   -6.1166   27.4783    4.2565 N   0  0  0  0  0  0  0  0  0  0  0  0
   -5.5087   27.3633    2.9324 C   0  0  0  0  0  0  0  0  0  0  0  0
   -5.8778   26.0643    2.2235 C   0  0  0  0  0  0  0  0  0  0  0  0
   -5.5816   24.8479    3.1080 C   0  0  0  0  0  0  0  0  0  0  0  0
   -6.3336   25.0105    4.4370 C   0  0  0  0  0  0  0  0  0  0  0  0
   -5.9616   26.3165    5.1304 C   0  0  0  0  0  0  0  0  0  0  0  0
   -6.0027   23.5779    2.4885 N   0  0  0  0  0  0  0  0  0  0  0  0
   -5.3812   22.8353    2.8114 H   0  0  0  0  0  0  0  0  0  0  0  0
   -6.0373   23.6835    1.0277 C   0  0  0  0  0  0  0  0  0  0  0  0
   -5.9649   22.2540    0.4310 C   0  0  0  0  0  0  0  0  0  0  0  0
   -7.0860   22.6907   -0.5358 C   0  0  0  0  0  0  0  0  0  0  0  0
   -7.5066   23.7151    0.5402 C   0  0  0  0  0  0  0  0  0  0  0  0
   -6.8397   28.8959    6.1757 C   0  0  0  0  0  0  0  0  0  0  0  0
   -5.9622   29.7029    7.1101 C   0  0  0  0  0  0  0  0  0  0  0  0
   -6.4784   30.8247    7.7670 C   0  0  0  0  0  0  0  0  0  0  0  0
   -5.6786   31.5843    8.6291 C   0  0  0  0  0  0  0  0  0  0  0  0
   -4.3326   31.2261    8.8373 C   0  0  0  0  0  0  0  0  0  0  0  0
   -3.4343   31.8853    9.6627 N   0  0  0  0  0  0  0  0  0  0  0  0
   -2.2685   31.2843    9.6048 C   0  0  0  0  0  0  0  0  0  0  0  0
   -2.1658   29.9099    8.5902 S   0  0  0  0  0  0  0  0  0  0  0  0
   -3.8247   30.1117    8.1661 C   0  0  0  0  0  0  0  0  0  0  0  0
   -4.6176   29.3393    7.2995 C   0  0  0  0  0  0  0  0  0  0  0  0
  1  2  2  0  0  0
  2 15  1  0  0  0
 15 16  1  0  0  0
 16 17  2  0  0  0
 17 18  1  0  0  0
 18 19  2  0  0  0
 19 20  1  0  0  0
 20 21  2  0  0  0
 21 22  1  0  0  0
 22 23  1  0  0  0
 23 24  2  0  0  0
  2  3  1  0  0  0
  3  4  1  0  0  0
  4  5  1  0  0  0
  5  6  1  0  0  0
  6  9  1  0  0  0
  9 11  1  0  0  0
 11 12  1  0  0  0
 12 13  1  0  0  0
 13 14  1  0  0  0
  6  7  1  0  0  0
  7  8  1  0  0  0
 24 16  1  0  0  0
  8  3  1  0  0  0
 23 19  1  0  0  0
 14 11  1  0  0  0
  9 10  1  0  0  0
M  END
> <minimizedAffinity>
-8.89480

$$$$
OCNT-2316535


 25 28  0  0  0  0  0  0  0  0999 V2000
   -2.5594   26.0599    6.1869 O   0  0  0  0  0  0  0  0  0  0  0  0
   -3.1080   27.0313    5.6818 C   0  0  0  0  0  0  0  0  0  0  0  0
   -2.8339   28.3360    6.0358 N   0  0  0  0  0  0  0  0  0  0  0  0
   -3.1961   29.0366    5.3973 H   0  0  0  0  0  0  0  0  0  0  0  0
   -1.7242   28.6832    6.9148 C   0  0  0  0  0  0  0  0  0  0  0  0
   -0.3712   28.5550    6.1400 C   0  0  0  0  0  0  0  0  0  0  0  0
    0.7901   29.3375    6.5770 N   0  0  0  0  0  0  0  0  0  0  0  0
    1.1744   29.1609    7.9749 C   0  0  0  0  0  0  0  0  0  0  0  0
    0.1030   29.4047    9.0523 C   0  0  0  0  0  0  0  0  0  0  0  0
   -0.9902   30.3719    8.6511 C   0  0  0  0  0  0  0  0  0  0  0  0
   -1.1126   31.6002    9.3179 C   0  0  0  0  0  0  0  0  0  0  0  0
   -2.1241   32.4926    8.9723 C   0  0  0  0  0  0  0  0  0  0  0  0
   -3.0232   32.1644    7.9628 C   0  0  0  0  0  0  0  0  0  0  0  0
   -2.9123   30.9449    7.2899 C   0  0  0  0  0  0  0  0  0  0  0  0
   -1.8947   30.0318    7.6129 C   0  0  0  0  0  0  0  0  0  0  0  0
    1.5847   29.1294    5.9741 H   0  0  0  0  0  0  0  0  0  0  0  0
   -4.1233   26.8970    4.5868 C   0  0  0  0  0  0  0  0  0  0  0  0
   -5.0890   27.8571    4.5593 N   0  0  0  0  0  0  0  0  0  0  0  0
   -5.9809   27.7604    3.5556 C   0  0  0  0  0  0  0  0  0  0  0  0
   -6.0015   26.8258    2.5913 N   0  0  0  0  0  0  0  0  0  0  0  0
   -5.0311   25.9094    2.6855 C   0  0  0  0  0  0  0  0  0  0  0  0
   -4.0638   25.8862    3.6659 C   0  0  0  0  0  0  0  0  0  0  0  0
   -3.1120   24.7602    3.4691 C   0  0  0  0  0  0  0  0  0  0  0  0
   -3.9030   23.8676    2.4980 C   0  0  0  0  0  0  0  0  0  0  0  0
   -4.8217   24.7980    1.6960 C   0  0  0  0  0  0  0  0  0  0  0  0
  1  2  2  0  0  0
  2  3  1  0  0  0
  3  5  1  0  0  0
  5  6  1  0  0  0
  6  7  1  0  0  0
  7  8  1  0  0  0
  8  9  1  0  0  0
  9 10  1  0  0  0
 10 11  2  0  0  0
 11 12  1  0  0  0
 12 13  2  0  0  0
 13 14  1  0  0  0
 14 15  2  0  0  0
  2 17  1  0  0  0
 17 18  1  0  0  0
 18 19  2  0  0  0
 19 20  1  0  0  0
 20 21  2  0  0  0
 21 22  1  0  0  0
 22 23  1  0  0  0
 23 24  1  0  0  0
 24 25  1  0  0  0
 15  5  1  0  0  0
 22 17  2  0  0  0
 15 10  1  0  0  0
 25 21  1  0  0  0
  3  4  1  0  0  0
  7 16  1  0  0  0
M  END
> <minimizedAffinity>
-9.36333

$$$$
OCNT-2316543


 25 28  0  0  0  0  0  0  0  0999 V2000
   -2.8986   31.0882    8.4547 C   0  0  0  0  0  0  0  0  0  0  0  0
   -2.8621   32.3843    7.6036 C   0  0  0  0  0  0  0  0  0  0  0  0
   -3.7383   33.3989    8.3391 C   0  0  0  0  0  0  0  0  0  0  0  0
   -3.7972   32.9336    9.7893 C   0  0  0  0  0  0  0  0  0  0  0  0
   -2.8795   31.7163    9.8706 C   0  0  0  0  0  0  0  0  0  0  0  0
   -0.6046   27.6685    5.7440 F   0  0  0  0  0  0  0  0  0  0  0  0
   -0.5792   28.4997    6.7940 C   0  0  0  0  0  0  0  0  0  0  0  0
    0.5500   28.5509    7.5946 C   0  0  0  0  0  0  0  0  0  0  0  0
    0.5589   29.4261    8.6676 C   0  0  0  0  0  0  0  0  0  0  0  0
    1.6444   29.5010    9.4486 F   0  0  0  0  0  0  0  0  0  0  0  0
   -0.5421   30.2349    8.9503 C   0  0  0  0  0  0  0  0  0  0  0  0
   -1.7041   30.1760    8.1561 C   0  0  0  0  0  0  0  0  0  0  0  0
   -1.6928   29.2995    7.0565 C   0  0  0  0  0  0  0  0  0  0  0  0
   -4.1840   30.3320    8.2233 C   0  0  0  0  0  0  0  0  0  0  0  0
   -5.0309   30.3943    7.2178 N   0  0  0  0  0  0  0  0  0  0  0  0
   -5.9602   29.4419    7.5620 C   0  0  0  0  0  0  0  0  0  0  0  0
   -5.7406   28.8435    8.7410 N   0  0  0  0  0  0  0  0  0  0  0  0
   -4.5473   29.4196    9.1752 O   0  0  0  0  0  0  0  0  0  0  0  0
   -7.1368   29.1297    6.7148 C   0  0  0  0  0  0  0  0  0  0  0  0
   -6.5903   28.5296    5.4492 C   0  0  0  0  0  0  0  0  0  0  0  0
   -6.3627   29.3054    4.3071 C   0  0  0  0  0  0  0  0  0  0  0  0
   -5.8498   28.7106    3.1584 C   0  0  0  0  0  0  0  0  0  0  0  0
   -5.5797   27.3529    3.1875 C   0  0  0  0  0  0  0  0  0  0  0  0
   -5.7826   26.5706    4.2685 N   0  0  0  0  0  0  0  0  0  0  0  0
   -6.2741   27.1751    5.3736 C   0  0  0  0  0  0  0  0  0  0  0  0
  6  7  1  0  0  0
  7  8  1  0  0  0
  8  9  2  0  0  0
  9 10  1  0  0  0
  9 11  1  0  0  0
 11 12  2  0  0  0
 12  1  1  0  0  0
  1 14  1  0  0  0
 14 15  2  0  0  0
 15 16  1  0  0  0
 16 19  1  0  0  0
 19 20  1  0  0  0
 20 21  1  0  0  0
 21 22  2  0  0  0
 22 23  1  0  0  0
 23 24  2  0  0  0
 24 25  1  0  0  0
 16 17  2  0  0  0
 17 18  1  0  0  0
  1  2  1  0  0  0
  2  3  1  0  0  0
  3  4  1  0  0  0
  4  5  1  0  0  0
 12 13  1  0  0  0
 13  7  2  0  0  0
  5  1  1  0  0  0
 18 14  1  0  0  0
 25 20  2  0  0  0
M  END
> <minimizedAffinity>
-9.90859

$$$$
OCNT-2316553


 29 32  0  0  0  0  0  0  0  0999 V2000
   -4.6765   28.1323    6.5569 N   0  0  0  0  0  0  0  0  0  0  0  0
   -4.8944   27.6762    7.4396 H   0  0  0  0  0  0  0  0  0  0  0  0
   -4.7373   27.1352    5.4934 C   0  0  0  0  0  0  0  0  0  0  0  0
    0.7113   25.5610    4.0989 C   0  0  0  0  0  0  0  0  0  0  0  0
   -0.6903   25.9842    4.4224 C   0  0  0  0  0  0  0  0  0  0  0  0
   -0.9550   26.7259    5.5759 C   0  0  0  0  0  0  0  0  0  0  0  0
   -2.2636   27.0930    5.8941 C   0  0  0  0  0  0  0  0  0  0  0  0
   -3.3426   26.7303    5.0677 C   0  0  0  0  0  0  0  0  0  0  0  0
   -3.0817   25.9530    3.9233 C   0  0  0  0  0  0  0  0  0  0  0  0
   -1.7608   25.5885    3.6107 C   0  0  0  0  0  0  0  0  0  0  0  0
   -4.1394   25.4933    3.0504 C   0  0  0  0  0  0  0  0  0  0  0  0
   -4.3552   24.1723    2.7237 C   0  0  0  0  0  0  0  0  0  0  0  0
   -5.4298   24.1660    1.8832 N   0  0  0  0  0  0  0  0  0  0  0  0
   -6.0385   23.0155    1.2621 C   0  0  0  0  0  0  0  0  0  0  0  0
   -5.9326   25.3918    1.6431 N   0  0  0  0  0  0  0  0  0  0  0  0
   -5.1343   26.2012    2.3460 C   0  0  0  0  0  0  0  0  0  0  0  0
   -5.6198   29.2194    6.3200 C   0  0  0  0  0  0  0  0  0  0  0  0
   -5.3646   30.3336    7.3262 C   0  0  0  0  0  0  0  0  0  0  0  0
   -6.5826   30.8753    8.0727 C   0  0  0  0  0  0  0  0  0  0  0  0
   -5.5737   30.0616    8.8150 C   0  0  0  0  0  0  0  0  0  0  0  0
   -4.3090   31.3596    6.9129 C   0  0  0  0  0  0  0  0  0  0  0  0
   -4.0668   31.2137    5.5109 O   0  0  0  0  0  0  0  0  0  0  0  0
   -4.9138   31.3866    5.0708 H   0  0  0  0  0  0  0  0  0  0  0  0
   -3.0207   31.2640    7.7114 C   0  0  0  0  0  0  0  0  0  0  0  0
   -2.0618   30.2911    7.3835 C   0  0  0  0  0  0  0  0  0  0  0  0
   -0.8702   30.1851    8.1043 C   0  0  0  0  0  0  0  0  0  0  0  0
   -0.6200   31.0461    9.1697 C   0  0  0  0  0  0  0  0  0  0  0  0
   -1.5593   32.0150    9.5122 C   0  0  0  0  0  0  0  0  0  0  0  0
   -2.7496   32.1227    8.7891 C   0  0  0  0  0  0  0  0  0  0  0  0
  4  5  1  0  0  0
  5  6  1  0  0  0
  6  7  2  0  0  0
  7  8  1  0  0  0
  8  3  1  0  0  0
  3  1  1  0  0  0
  1 17  1  0  0  0
 17 18  1  0  0  0
 18 21  1  0  0  0
 21 22  1  0  0  0
 21 24  1  0  0  0
 24 25  2  0  0  0
 25 26  1  0  0  0
 26 27  2  0  0  0
 27 28  1  0  0  0
 28 29  2  0  0  0
 18 19  1  0  0  0
 19 20  1  0  0  0
  8  9  2  0  0  0
  9 11  1  0  0  0
 11 12  2  0  0  0
 12 13  1  0  0  0
 13 14  1  0  0  0
 13 15  1  0  0  0
 15 16  2  0  0  0
  9 10  1  0  0  0
 10  5  2  0  0  0
 20 18  1  0  0  0
 16 11  1  0  0  0
 29 24  1  0  0  0
  1  2  1  0  0  0
 22 23  1  0  0  0
M  END
> <minimizedAffinity>
-9.56079

$$$$
OCNT-2316555


 26 28  0  0  0  0  0  0  0  0999 V2000
   -4.3523   26.9436    4.8937 C   0  0  0  0  0  0  0  0  0  0  0  0
   -3.8043   28.1071    5.5771 N   0  0  0  0  0  0  0  0  0  0  0  0
   -4.5794   28.7823    6.4885 C   0  0  0  0  0  0  0  0  0  0  0  0
   -5.7329   28.4458    6.7412 O   0  0  0  0  0  0  0  0  0  0  0  0
   -3.9497   29.8577    7.0966 N   0  0  0  0  0  0  0  0  0  0  0  0
   -4.6998   30.5821    8.1124 C   0  0  0  0  0  0  0  0  0  0  0  0
   -2.8374   28.0384    5.8597 H   0  0  0  0  0  0  0  0  0  0  0  0
   -2.8005   30.5559    6.5188 C   0  0  0  0  0  0  0  0  0  0  0  0
   -1.4884   30.1779    7.1654 C   0  0  0  0  0  0  0  0  0  0  0  0
   -0.5261   29.4663    6.4354 C   0  0  0  0  0  0  0  0  0  0  0  0
    0.6540   29.1021    7.0650 C   0  0  0  0  0  0  0  0  0  0  0  0
    0.9347   29.3831    8.3557 N   0  0  0  0  0  0  0  0  0  0  0  0
   -0.0047   30.0640    9.0469 C   0  0  0  0  0  0  0  0  0  0  0  0
   -1.2154   30.4719    8.5071 C   0  0  0  0  0  0  0  0  0  0  0  0
   -2.0750   26.0317    4.2296 C   0  0  0  0  0  0  0  0  0  0  0  0
   -3.4587   26.4690    3.7191 C   0  0  0  0  0  0  0  0  0  0  0  0
   -4.0144   25.3875    2.8769 N   0  0  0  0  0  0  0  0  0  0  0  0
   -4.4521   24.1941    3.6169 C   0  0  0  0  0  0  0  0  0  0  0  0
   -4.7257   23.0357    2.6458 C   0  0  0  0  0  0  0  0  0  0  0  0
   -5.6096   23.4442    1.4953 C   0  0  0  0  0  0  0  0  0  0  0  0
   -6.2362   22.4703    0.7048 C   0  0  0  0  0  0  0  0  0  0  0  0
   -7.0262   22.8466   -0.3804 C   0  0  0  0  0  0  0  0  0  0  0  0
   -7.1923   24.1953   -0.6880 C   0  0  0  0  0  0  0  0  0  0  0  0
   -6.5650   25.1704    0.0877 C   0  0  0  0  0  0  0  0  0  0  0  0
   -5.7581   24.8053    1.1759 C   0  0  0  0  0  0  0  0  0  0  0  0
   -5.1196   25.8807    2.0302 C   0  0  0  0  0  0  0  0  0  0  0  0
 15 16  1  0  0  0
 16  1  1  0  0  0
  1  2  1  0  0  0
  2  3  1  0  0  0
  3  4  2  0  0  0
  3  5  1  0  0  0
  5  6  1  0  0  0
  5  8  1  0  0  0
  8  9  1  0  0  0
  9 10  2  0  0  0
 10 11  1  0  0  0
 11 12  2  0  0  0
 12 13  1  0  0  0
 13 14  2  0  0  0
 16 17  1  0  0  0
 17 18  1  0  0  0
 18 19  1  0  0  0
 19 20  1  0  0  0
 20 21  2  0  0  0
 21 22  1  0  0  0
 22 23  2  0  0  0
 23 24  1  0  0  0
 24 25  2  0  0  0
 25 26  1  0  0  0
 14  9  1  0  0  0
 26 17  1  0  0  0
 25 20  1  0  0  0
  2  7  1  0  0  0
M  END
> <minimizedAffinity>
-9.68608

$$$$
OCNT-2316568


 24 27  0  0  0  0  0  0  0  0999 V2000
   -5.4859   25.1638    2.6545 C   0  0  0  0  0  0  0  0  0  0  0  0
   -4.4194   24.9390    3.3864 N   0  0  0  0  0  0  0  0  0  0  0  0
   -4.0034   26.2135    3.7109 C   0  0  0  0  0  0  0  0  0  0  0  0
   -4.7769   27.1838    3.1939 N   0  0  0  0  0  0  0  0  0  0  0  0
   -5.7601   26.4889    2.4941 O   0  0  0  0  0  0  0  0  0  0  0  0
   -7.9688   22.7231   -0.3104 C   0  0  0  0  0  0  0  0  0  0  0  0
   -6.4696   22.5980   -0.0222 C   0  0  0  0  0  0  0  0  0  0  0  0
   -6.1686   21.3863    0.8800 C   0  0  0  0  0  0  0  0  0  0  0  0
   -5.7742   21.7547    2.3119 C   0  0  0  0  0  0  0  0  0  0  0  0
   -6.5899   22.9292    2.8393 C   0  0  0  0  0  0  0  0  0  0  0  0
   -6.4069   24.1983    1.9860 C   0  0  0  0  0  0  0  0  0  0  0  0
   -5.8985   23.8950    0.5638 C   0  0  0  0  0  0  0  0  0  0  0  0
   -2.8258   26.4617    4.5369 C   0  0  0  0  0  0  0  0  0  0  0  0
   -1.5762   25.9553    4.1546 C   0  0  0  0  0  0  0  0  0  0  0  0
   -0.4452   26.1841    4.9402 C   0  0  0  0  0  0  0  0  0  0  0  0
   -0.5484   26.9244    6.1174 C   0  0  0  0  0  0  0  0  0  0  0  0
   -1.7843   27.4475    6.5210 C   0  0  0  0  0  0  0  0  0  0  0  0
   -2.9173   27.2057    5.7246 C   0  0  0  0  0  0  0  0  0  0  0  0
   -1.9054   28.2350    7.8007 C   0  0  0  0  0  0  0  0  0  0  0  0
   -2.1578   29.6400    7.5388 N   0  0  0  0  0  0  0  0  0  0  0  0
   -3.3028   30.3300    7.8289 C   0  0  0  0  0  0  0  0  0  0  0  0
   -3.0815   31.5999    7.3490 C   0  0  0  0  0  0  0  0  0  0  0  0
   -1.8441   31.6914    6.7652 N   0  0  0  0  0  0  0  0  0  0  0  0
   -1.3114   30.4971    6.8944 C   0  0  0  0  0  0  0  0  0  0  0  0
  6  7  1  0  0  0
  7  8  1  0  0  0
  8  9  1  0  0  0
  9 10  1  0  0  0
 10 11  1  0  0  0
 11  1  1  0  0  0
  1  2  2  0  0  0
  2  3  1  0  0  0
  3 13  1  0  0  0
 13 14  1  0  0  0
 14 15  2  0  0  0
 15 16  1  0  0  0
 16 17  2  0  0  0
 17 19  1  0  0  0
 19 20  1  0  0  0
 20 21  1  0  0  0
 21 22  2  0  0  0
 22 23  1  0  0  0
 23 24  2  0  0  0
 17 18  1  0  0  0
  3  4  2  0  0  0
  4  5  1  0  0  0
 11 12  1  0  0  0
 12  7  1  0  0  0
  5  1  1  0  0  0
 18 13  2  0  0  0
 24 20  1  0  0  0
M  END
> <minimizedAffinity>
-9.49613

$$$$
OCNT-2316569


 28 31  0  0  0  0  0  0  0  0999 V2000
   -0.2903   27.6540    5.7398 C   0  0  0  0  0  0  0  0  0  0  0  0
    0.4694   27.8645    4.7976 O   0  0  0  0  0  0  0  0  0  0  0  0
   -1.0986   26.5038    5.8017 N   0  0  0  0  0  0  0  0  0  0  0  0
   -2.3022   26.4216    6.6237 C   0  0  0  0  0  0  0  0  0  0  0  0
   -3.5795   26.7540    5.8520 C   0  0  0  0  0  0  0  0  0  0  0  0
   -3.9904   25.6318    4.8899 C   0  0  0  0  0  0  0  0  0  0  0  0
   -3.3589   25.6213    3.5612 N   0  0  0  0  0  0  0  0  0  0  0  0
   -1.9500   26.0510    3.5055 C   0  0  0  0  0  0  0  0  0  0  0  0
   -1.0346   25.5961    4.6568 C   0  0  0  0  0  0  0  0  0  0  0  0
   -1.2525   30.1960    8.1040 C   0  0  0  0  0  0  0  0  0  0  0  0
   -1.4330   29.4472    7.0390 N   0  0  0  0  0  0  0  0  0  0  0  0
   -0.3528   28.5858    6.8682 C   0  0  0  0  0  0  0  0  0  0  0  0
    0.6455   28.7211    7.8186 C   0  0  0  0  0  0  0  0  0  0  0  0
    0.2176   29.9302    8.9526 S   0  0  0  0  0  0  0  0  0  0  0  0
   -5.2580   33.1984    7.9672 C   0  0  0  0  0  0  0  0  0  0  0  0
   -3.9950   32.5774    8.4502 C   0  0  0  0  0  0  0  0  0  0  0  0
   -3.3184   32.7949    9.6334 C   0  0  0  0  0  0  0  0  0  0  0  0
   -2.1831   31.9559    9.6390 C   0  0  0  0  0  0  0  0  0  0  0  0
   -2.1946   31.2116    8.4743 C   0  0  0  0  0  0  0  0  0  0  0  0
   -3.2694   31.6507    7.7246 N   0  0  0  0  0  0  0  0  0  0  0  0
   -3.5711   31.2555    6.3628 C   0  0  0  0  0  0  0  0  0  0  0  0
   -3.5534   24.3360    2.8673 C   0  0  0  0  0  0  0  0  0  0  0  0
   -4.6817   24.4146    1.8939 C   0  0  0  0  0  0  0  0  0  0  0  0
   -5.3156   23.3868    1.2193 C   0  0  0  0  0  0  0  0  0  0  0  0
   -6.2776   23.9653    0.4481 N   0  0  0  0  0  0  0  0  0  0  0  0
   -7.2038   23.3012   -0.4381 C   0  0  0  0  0  0  0  0  0  0  0  0
   -6.3338   25.3043    0.5794 N   0  0  0  0  0  0  0  0  0  0  0  0
   -5.3682   25.5742    1.4620 C   0  0  0  0  0  0  0  0  0  0  0  0
 15 16  1  0  0  0
 16 17  2  0  0  0
 17 18  1  0  0  0
 18 19  2  0  0  0
 19 10  1  0  0  0
 10 11  2  0  0  0
 11 12  1  0  0  0
 12  1  1  0  0  0
  1  2  2  0  0  0
  1  3  1  0  0  0
  3  4  1  0  0  0
  4  5  1  0  0  0
  5  6  1  0  0  0
  6  7  1  0  0  0
  7 22  1  0  0  0
 22 23  1  0  0  0
 23 24  2  0  0  0
 24 25  1  0  0  0
 25 26  1  0  0  0
 25 27  1  0  0  0
 27 28  2  0  0  0
  7  8  1  0  0  0
  8  9  1  0  0  0
 12 13  2  0  0  0
 13 14  1  0  0  0
 19 20  1  0  0  0
 20 21  1  0  0  0
 20 16  1  0  0  0
 14 10  1  0  0  0
  9  3  1  0  0  0
 28 23  1  0  0  0
M  END
> <minimizedAffinity>
-8.91059

$$$$
OCNT-2316570


 29 30  0  0  0  0  0  0  0  0999 V2000
   -7.4182   23.2701    4.5647 C   0  0  0  0  0  0  0  0  0  0  0  0
   -7.9957   24.1282    3.9164 O   0  0  0  0  0  0  0  0  0  0  0  0
   -6.0437   23.2451    4.7815 N   0  0  0  0  0  0  0  0  0  0  0  0
   -5.3701   22.0059    5.1418 C   0  0  0  0  0  0  0  0  0  0  0  0
   -4.9692   21.2544    3.8722 C   0  0  0  0  0  0  0  0  0  0  0  0
   -4.2006   22.1409    2.8753 C   0  0  0  0  0  0  0  0  0  0  0  0
   -4.7668   23.5788    2.6604 C   0  0  0  0  0  0  0  0  0  0  0  0
   -5.1906   24.1769    4.0315 C   0  0  0  0  0  0  0  0  0  0  0  0
   -5.7660   23.6819    1.5133 C   0  0  0  0  0  0  0  0  0  0  0  0
   -6.6856   22.6725    1.1980 C   0  0  0  0  0  0  0  0  0  0  0  0
   -7.5778   22.8096    0.1303 C   0  0  0  0  0  0  0  0  0  0  0  0
   -7.5645   23.9589   -0.6501 C   0  0  0  0  0  0  0  0  0  0  0  0
   -6.6533   24.9705   -0.3666 C   0  0  0  0  0  0  0  0  0  0  0  0
   -5.7627   24.8312    0.7020 C   0  0  0  0  0  0  0  0  0  0  0  0
   -5.5810   25.6787    4.1297 C   0  0  0  0  0  0  0  0  0  0  0  0
   -5.7448   26.3988    3.1419 O   0  0  0  0  0  0  0  0  0  0  0  0
   -5.9242   26.1277    5.3924 N   0  0  0  0  0  0  0  0  0  0  0  0
   -6.2350   25.4427    6.0679 H   0  0  0  0  0  0  0  0  0  0  0  0
   -6.5004   27.4499    5.5419 C   0  0  0  0  0  0  0  0  0  0  0  0
   -5.5817   28.2658    6.4476 C   0  0  0  0  0  0  0  0  0  0  0  0
   -6.0850   28.5775    7.6786 N   0  0  0  0  0  0  0  0  0  0  0  0
   -4.4522   28.6201    6.1150 O   0  0  0  0  0  0  0  0  0  0  0  0
   -6.7114   27.9068    8.1032 H   0  0  0  0  0  0  0  0  0  0  0  0
   -5.4030   28.9864    8.3052 H   0  0  0  0  0  0  0  0  0  0  0  0
   -8.0406   22.2060    5.1372 O   0  0  0  0  0  0  0  0  0  0  0  0
   -8.1552   22.0294    7.5896 C   0  0  0  0  0  0  0  0  0  0  0  0
   -8.8954   22.3780    6.2945 C   0  0  0  0  0  0  0  0  0  0  0  0
  -10.0298   21.3623    6.0899 C   0  0  0  0  0  0  0  0  0  0  0  0
   -9.5062   23.7829    6.3398 C   0  0  0  0  0  0  0  0  0  0  0  0
 26 27  1  0  0  0
 27 28  1  0  0  0
 27 29  1  0  0  0
 27 25  1  0  0  0
 25  1  1  0  0  0
  1  2  2  0  0  0
  1  3  1  0  0  0
  3  4  1  0  0  0
  4  5  1  0  0  0
  5  6  1  0  0  0
  6  7  1  0  0  0
  7  9  1  0  0  0
  9 10  2  0  0  0
 10 11  1  0  0  0
 11 12  2  0  0  0
 12 13  1  0  0  0
 13 14  2  0  0  0
  7  8  1  0  0  0
  8 15  1  0  0  0
 15 16  2  0  0  0
 15 17  1  0  0  0
 17 19  1  0  0  0
 19 20  1  0  0  0
 20 21  1  0  0  0
 20 22  2  0  0  0
  8  3  1  0  0  0
 14  9  1  0  0  0
 17 18  1  0  0  0
 21 23  1  0  0  0
 21 24  1  0  0  0
M  END
> <minimizedAffinity>
-8.06554

$$$$
OCNT-2316573


 23 25  0  0  0  0  0  0  0  0999 V2000
   -3.7657   31.6504    6.5492 S   0  0  0  0  0  0  0  0  0  0  0  0
   -3.5285   32.8430    9.7211 C   0  0  0  0  0  0  0  0  0  0  0  0
   -2.5707   31.9244    9.0542 C   0  0  0  0  0  0  0  0  0  0  0  0
   -2.5583   31.3804    7.7867 C   0  0  0  0  0  0  0  0  0  0  0  0
   -1.4059   30.5526    7.6605 C   0  0  0  0  0  0  0  0  0  0  0  0
   -0.8690   29.7367    6.6414 C   0  0  0  0  0  0  0  0  0  0  0  0
    0.3280   29.0471    6.8660 C   0  0  0  0  0  0  0  0  0  0  0  0
    0.9913   29.1573    8.0853 C   0  0  0  0  0  0  0  0  0  0  0  0
    0.4797   29.9533    9.1142 C   0  0  0  0  0  0  0  0  0  0  0  0
   -0.7191   30.6357    8.8729 C   0  0  0  0  0  0  0  0  0  0  0  0
   -1.4448   31.4677    9.6955 N   0  0  0  0  0  0  0  0  0  0  0  0
   -1.1825   31.7003   10.6431 H   0  0  0  0  0  0  0  0  0  0  0  0
   -5.0542   30.4732    7.0787 C   0  0  0  0  0  0  0  0  0  0  0  0
   -4.6458   28.9903    7.0111 C   0  0  0  0  0  0  0  0  0  0  0  0
   -5.6013   28.0454    6.4224 N   0  0  0  0  0  0  0  0  0  0  0  0
   -6.4426   28.5446    6.1345 H   0  0  0  0  0  0  0  0  0  0  0  0
   -5.1055   27.2124    5.3138 C   0  0  0  0  0  0  0  0  0  0  0  0
   -5.6431   27.8664    4.0255 C   0  0  0  0  0  0  0  0  0  0  0  0
   -5.7294   26.9477    2.8068 C   0  0  0  0  0  0  0  0  0  0  0  0
   -4.6311   25.9089    2.6606 C   0  0  0  0  0  0  0  0  0  0  0  0
   -3.3532   26.4487    2.9693 O   0  0  0  0  0  0  0  0  0  0  0  0
   -2.9551   26.1949    4.3103 C   0  0  0  0  0  0  0  0  0  0  0  0
   -3.5664   27.1647    5.3147 C   0  0  0  0  0  0  0  0  0  0  0  0
  2  3  1  0  0  0
  3  4  2  0  0  0
  4  1  1  0  0  0
  1 13  1  0  0  0
 13 14  1  0  0  0
 14 15  1  0  0  0
 15 17  1  0  0  0
 17 18  1  0  0  0
 18 19  1  0  0  0
 19 20  1  0  0  0
 20 21  1  0  0  0
 21 22  1  0  0  0
 22 23  1  0  0  0
  4  5  1  0  0  0
  5  6  2  0  0  0
  6  7  1  0  0  0
  7  8  2  0  0  0
  8  9  1  0  0  0
  9 10  2  0  0  0
 10 11  1  0  0  0
 11  3  1  0  0  0
 23 17  1  0  0  0
 10  5  1  0  0  0
 15 16  1  0  0  0
 11 12  1  0  0  0
M  END
> <minimizedAffinity>
-8.37462

$$$$
OCNT-2316587


 24 25  0  0  0  0  0  0  0  0999 V2000
   -2.0184   26.5358    5.0387 C   0  0  0  0  0  0  0  0  0  0  0  0
   -2.7746   27.3124    5.8268 C   0  0  0  0  0  0  0  0  0  0  0  0
   -2.2665   27.9945    6.9141 N   0  0  0  0  0  0  0  0  0  0  0  0
   -0.9224   27.9206    7.2616 C   0  0  0  0  0  0  0  0  0  0  0  0
   -0.4141   28.4769    8.2318 O   0  0  0  0  0  0  0  0  0  0  0  0
   -0.1496   27.1402    6.4423 N   0  0  0  0  0  0  0  0  0  0  0  0
   -0.5680   26.4661    5.3319 C   0  0  0  0  0  0  0  0  0  0  0  0
    0.2159   25.8425    4.6246 O   0  0  0  0  0  0  0  0  0  0  0  0
    0.8325   27.1012    6.6631 H   0  0  0  0  0  0  0  0  0  0  0  0
   -2.5448   25.8056    3.8399 C   0  0  0  0  0  0  0  0  0  0  0  0
   -3.4358   26.5922    2.9851 N   0  0  0  0  0  0  0  0  0  0  0  0
   -3.4398   27.5720    3.2575 H   0  0  0  0  0  0  0  0  0  0  0  0
   -4.8063   26.0547    2.8910 C   0  0  0  0  0  0  0  0  0  0  0  0
   -4.8519   25.1420    1.6550 C   0  0  0  0  0  0  0  0  0  0  0  0
   -6.2142   24.9314    0.9292 C   0  0  0  0  0  0  0  0  0  0  0  0
   -5.7914   23.4679    0.7013 C   0  0  0  0  0  0  0  0  0  0  0  0
   -4.8997   23.6097    1.9473 C   0  0  0  0  0  0  0  0  0  0  0  0
   -5.8015   27.2281    2.7448 C   0  0  0  0  0  0  0  0  0  0  0  0
   -6.1513   29.5944    3.6468 C   0  0  0  0  0  0  0  0  0  0  0  0
   -5.9844   28.1197    3.9772 C   0  0  0  0  0  0  0  0  0  0  0  0
   -3.1528   28.8664    7.6952 C   0  0  0  0  0  0  0  0  0  0  0  0
   -3.6919   30.0519    6.8838 C   0  0  0  0  0  0  0  0  0  0  0  0
   -2.6144   30.8631    6.4176 O   0  0  0  0  0  0  0  0  0  0  0  0
   -2.1688   31.7764    7.4099 C   0  0  0  0  0  0  0  0  0  0  0  0
 19 20  1  0  0  0
 20 18  1  0  0  0
 18 13  1  0  0  0
 13 11  1  0  0  0
 11 10  1  0  0  0
 10  1  1  0  0  0
  1  2  2  0  0  0
  2  3  1  0  0  0
  3 21  1  0  0  0
 21 22  1  0  0  0
 22 23  1  0  0  0
 23 24  1  0  0  0
  3  4  1  0  0  0
  4  5  2  0  0  0
  4  6  1  0  0  0
  6  7  1  0  0  0
  7  8  2  0  0  0
 13 14  1  0  0  0
 14 15  1  0  0  0
 15 16  1  0  0  0
 16 17  1  0  0  0
  7  1  1  0  0  0
 17 14  1  0  0  0
 11 12  1  0  0  0
  6  9  1  0  0  0
M  END
> <minimizedAffinity>
-7.59319

$$$$
OCNT-2316594


 24 26  0  0  0  0  0  0  0  0999 V2000
   -4.1041   31.3047    5.7397 N   0  0  0  0  0  0  0  0  0  0  0  0
   -4.8415   30.1369    5.7655 C   0  0  0  0  0  0  0  0  0  0  0  0
   -4.9506   29.3697    6.7122 O   0  0  0  0  0  0  0  0  0  0  0  0
   -5.4759   29.9376    4.5523 N   0  0  0  0  0  0  0  0  0  0  0  0
   -4.2766   31.9381    4.9745 H   0  0  0  0  0  0  0  0  0  0  0  0
   -4.9249   30.2196    3.7556 H   0  0  0  0  0  0  0  0  0  0  0  0
   -5.1275   32.9021    8.1226 C   0  0  0  0  0  0  0  0  0  0  0  0
   -3.7902   32.4335    7.8748 N   0  0  0  0  0  0  0  0  0  0  0  0
   -2.8161   32.7007    8.7613 N   0  0  0  0  0  0  0  0  0  0  0  0
   -1.6991   32.1573    8.2998 N   0  0  0  0  0  0  0  0  0  0  0  0
   -1.9856   31.5464    7.1102 C   0  0  0  0  0  0  0  0  0  0  0  0
   -3.3218   31.7088    6.8069 C   0  0  0  0  0  0  0  0  0  0  0  0
   -6.2766   28.7361    4.3647 C   0  0  0  0  0  0  0  0  0  0  0  0
   -5.6853   27.8292    3.2858 C   0  0  0  0  0  0  0  0  0  0  0  0
   -5.8723   26.3660    3.6058 C   0  0  0  0  0  0  0  0  0  0  0  0
   -6.0645   25.9613    4.9366 C   0  0  0  0  0  0  0  0  0  0  0  0
   -6.2655   24.6153    5.2501 C   0  0  0  0  0  0  0  0  0  0  0  0
   -6.2703   23.6556    4.2397 C   0  0  0  0  0  0  0  0  0  0  0  0
   -6.0732   24.0411    2.9158 C   0  0  0  0  0  0  0  0  0  0  0  0
   -5.8963   25.3938    2.5936 C   0  0  0  0  0  0  0  0  0  0  0  0
   -5.7337   25.8261    1.2992 O   0  0  0  0  0  0  0  0  0  0  0  0
   -6.1474   24.8319    0.3562 C   0  0  0  0  0  0  0  0  0  0  0  0
   -5.5624   23.4804    0.7245 C   0  0  0  0  0  0  0  0  0  0  0  0
   -6.0776   23.0346    1.9831 O   0  0  0  0  0  0  0  0  0  0  0  0
  7  8  1  0  0  0
  8  9  1  0  0  0
  9 10  2  0  0  0
 10 11  1  0  0  0
 11 12  2  0  0  0
 12  1  1  0  0  0
  1  2  1  0  0  0
  2  3  2  0  0  0
  2  4  1  0  0  0
  4 13  1  0  0  0
 13 14  1  0  0  0
 14 15  1  0  0  0
 15 16  2  0  0  0
 16 17  1  0  0  0
 17 18  2  0  0  0
 18 19  1  0  0  0
 19 20  2  0  0  0
 20 21  1  0  0  0
 21 22  1  0  0  0
 22 23  1  0  0  0
 23 24  1  0  0  0
 12  8  1  0  0  0
 20 15  1  0  0  0
 24 19  1  0  0  0
  1  5  1  0  0  0
  4  6  1  0  0  0
M  END
> <minimizedAffinity>
-8.68611

$$$$
OCNT-2316612


 24 26  0  0  0  0  0  0  0  0999 V2000
   -5.0448   26.6203    4.6852 C   0  0  0  0  0  0  0  0  0  0  0  0
   -6.1631   27.3828    5.0329 C   0  0  0  0  0  0  0  0  0  0  0  0
   -6.0037   28.4110    5.9400 C   0  0  0  0  0  0  0  0  0  0  0  0
   -4.8293   28.7273    6.5222 N   0  0  0  0  0  0  0  0  0  0  0  0
   -3.7484   27.9968    6.2001 C   0  0  0  0  0  0  0  0  0  0  0  0
   -2.5338   28.3062    6.7986 C   0  0  0  0  0  0  0  0  0  0  0  0
   -1.3578   27.5967    6.5258 C   0  0  0  0  0  0  0  0  0  0  0  0
   -1.4005   26.5463    5.6169 C   0  0  0  0  0  0  0  0  0  0  0  0
   -2.6099   26.2155    5.0023 C   0  0  0  0  0  0  0  0  0  0  0  0
   -3.7962   26.9272    5.2832 C   0  0  0  0  0  0  0  0  0  0  0  0
   -5.7270   22.9377    2.2698 C   0  0  0  0  0  0  0  0  0  0  0  0
   -4.5322   23.6502    1.6244 C   0  0  0  0  0  0  0  0  0  0  0  0
   -4.6676   25.1518    1.3716 C   0  0  0  0  0  0  0  0  0  0  0  0
   -5.4416   25.9721    2.3993 C   0  0  0  0  0  0  0  0  0  0  0  0
   -5.1402   25.5286    3.7727 N   0  0  0  0  0  0  0  0  0  0  0  0
   -6.0992   24.5243    4.2820 C   0  0  0  0  0  0  0  0  0  0  0  0
   -5.7505   23.1233    3.7912 C   0  0  0  0  0  0  0  0  0  0  0  0
   -7.3408   22.6384    0.5425 C   0  0  0  0  0  0  0  0  0  0  0  0
   -6.9832   23.3457    1.7235 O   0  0  0  0  0  0  0  0  0  0  0  0
   -0.2600   28.0354    7.2097 O   0  0  0  0  0  0  0  0  0  0  0  0
    0.4406   29.1526    6.6908 C   0  0  0  0  0  0  0  0  0  0  0  0
   -0.3581   30.2388    6.6195 F   0  0  0  0  0  0  0  0  0  0  0  0
    0.9499   28.8858    5.4686 F   0  0  0  0  0  0  0  0  0  0  0  0
    1.4687   29.4428    7.5184 F   0  0  0  0  0  0  0  0  0  0  0  0
 18 19  1  0  0  0
 19 11  1  0  0  0
 11 12  1  0  0  0
 12 13  1  0  0  0
 13 14  1  0  0  0
 14 15  1  0  0  0
 15  1  1  0  0  0
  1  2  2  0  0  0
  2  3  1  0  0  0
  3  4  2  0  0  0
  4  5  1  0  0  0
  5  6  2  0  0  0
  6  7  1  0  0  0
  7 20  1  0  0  0
 20 21  1  0  0  0
 21 22  1  0  0  0
 21 23  1  0  0  0
 21 24  1  0  0  0
  7  8  2  0  0  0
  8  9  1  0  0  0
  9 10  2  0  0  0
 15 16  1  0  0  0
 16 17  1  0  0  0
 17 11  1  0  0  0
 10  1  1  0  0  0
 10  5  1  0  0  0
M  END
> <minimizedAffinity>
-8.93912

$$$$
OCNT-2316617


 27 29  0  0  0  0  0  0  0  0999 V2000
   -5.1760   27.7153    4.8972 N   0  0  0  0  0  0  0  0  0  0  0  0
   -3.8971   27.0001    5.0973 C   0  0  0  0  0  0  0  0  0  0  0  0
   -3.8104   26.0739    3.8755 C   0  0  0  0  0  0  0  0  0  0  0  0
   -2.9932   26.6706    2.8694 O   0  0  0  0  0  0  0  0  0  0  0  0
   -5.2568   25.9373    3.3687 C   0  0  0  0  0  0  0  0  0  0  0  0
   -6.0848   26.6564    4.4355 C   0  0  0  0  0  0  0  0  0  0  0  0
   -3.4181   27.5071    2.6123 H   0  0  0  0  0  0  0  0  0  0  0  0
   -5.6730   28.3158    6.1607 C   0  0  0  0  0  0  0  0  0  0  0  0
   -4.7519   30.5094    5.7990 O   0  0  0  0  0  0  0  0  0  0  0  0
   -4.8480   29.5497    6.5542 C   0  0  0  0  0  0  0  0  0  0  0  0
   -4.2715   29.4040    7.8038 N   0  0  0  0  0  0  0  0  0  0  0  0
   -4.6911   28.6493    8.3412 H   0  0  0  0  0  0  0  0  0  0  0  0
   -3.4010   30.2895    8.4683 C   0  0  0  0  0  0  0  0  0  0  0  0
   -2.0456   29.9366    8.4867 C   0  0  0  0  0  0  0  0  0  0  0  0
   -1.1181   30.7503    9.1346 C   0  0  0  0  0  0  0  0  0  0  0  0
    0.1707   30.3873    9.1545 F   0  0  0  0  0  0  0  0  0  0  0  0
   -1.5050   31.9284    9.7594 C   0  0  0  0  0  0  0  0  0  0  0  0
   -2.8448   32.3045    9.7235 C   0  0  0  0  0  0  0  0  0  0  0  0
   -3.7820   31.4944    9.0765 C   0  0  0  0  0  0  0  0  0  0  0  0
   -5.0331   31.9626    8.9967 F   0  0  0  0  0  0  0  0  0  0  0  0
   -5.7228   24.4861    3.1973 C   0  0  0  0  0  0  0  0  0  0  0  0
   -6.2967   24.2081    1.8300 C   0  0  0  0  0  0  0  0  0  0  0  0
   -6.9905   23.0147    1.5850 C   0  0  0  0  0  0  0  0  0  0  0  0
   -7.5308   22.7543    0.3247 C   0  0  0  0  0  0  0  0  0  0  0  0
   -7.3866   23.6851   -0.7015 C   0  0  0  0  0  0  0  0  0  0  0  0
   -6.7025   24.8762   -0.4681 C   0  0  0  0  0  0  0  0  0  0  0  0
   -6.1596   25.1373    0.7912 C   0  0  0  0  0  0  0  0  0  0  0  0
  9 10  2  0  0  0
 10  8  1  0  0  0
  8  1  1  0  0  0
  1  2  1  0  0  0
  2  3  1  0  0  0
  3  4  1  0  0  0
  3  5  1  0  0  0
  5 21  1  0  0  0
 21 22  1  0  0  0
 22 23  2  0  0  0
 23 24  1  0  0  0
 24 25  2  0  0  0
 25 26  1  0  0  0
 26 27  2  0  0  0
  5  6  1  0  0  0
 10 11  1  0  0  0
 11 13  1  0  0  0
 13 14  1  0  0  0
 14 15  2  0  0  0
 15 16  1  0  0  0
 15 17  1  0  0  0
 17 18  2  0  0  0
 18 19  1  0  0  0
 19 20  1  0  0  0
  6  1  1  0  0  0
 19 13  2  0  0  0
 27 22  1  0  0  0
  4  7  1  0  0  0
 11 12  1  0  0  0
M  END
> <minimizedAffinity>
-10.09286

$$$$
OCNT-2316619


 26 29  0  0  0  0  0  0  0  0999 V2000
   -5.9403   32.2360    8.1408 C   0  0  0  0  0  0  0  0  0  0  0  0
   -6.0338   30.7044    8.0068 C   0  0  0  0  0  0  0  0  0  0  0  0
   -6.5090   30.1262    9.3643 C   0  0  0  0  0  0  0  0  0  0  0  0
   -5.5679   28.9683    9.6560 C   0  0  0  0  0  0  0  0  0  0  0  0
   -4.2737   29.4128    9.0058 C   0  0  0  0  0  0  0  0  0  0  0  0
   -4.7466   30.0244    7.7753 N   0  0  0  0  0  0  0  0  0  0  0  0
   -7.0469   30.3950    6.8563 C   0  0  0  0  0  0  0  0  0  0  0  0
   -6.6545   29.3431    5.8373 C   0  0  0  0  0  0  0  0  0  0  0  0
   -6.2665   29.7090    4.5427 C   0  0  0  0  0  0  0  0  0  0  0  0
   -5.9085   28.7386    3.6039 C   0  0  0  0  0  0  0  0  0  0  0  0
   -5.9423   27.3787    3.9373 C   0  0  0  0  0  0  0  0  0  0  0  0
   -6.3325   27.0103    5.2312 C   0  0  0  0  0  0  0  0  0  0  0  0
   -6.6899   27.9822    6.1691 C   0  0  0  0  0  0  0  0  0  0  0  0
   -5.5169   26.3356    2.9385 C   0  0  0  0  0  0  0  0  0  0  0  0
   -6.1412   26.4598    1.7329 F   0  0  0  0  0  0  0  0  0  0  0  0
   -4.1815   26.3659    2.6658 F   0  0  0  0  0  0  0  0  0  0  0  0
   -3.7385   30.5919    6.8848 C   0  0  0  0  0  0  0  0  0  0  0  0
   -2.3892   29.9595    6.8951 C   0  0  0  0  0  0  0  0  0  0  0  0
   -1.2425   30.5130    7.2514 N   0  0  0  0  0  0  0  0  0  0  0  0
   -0.2395   29.5878    7.0739 N   0  0  0  0  0  0  0  0  0  0  0  0
   -0.7872   28.4967    6.5889 C   0  0  0  0  0  0  0  0  0  0  0  0
   -0.2498   27.2486    6.2096 C   0  0  0  0  0  0  0  0  0  0  0  0
   -1.0689   26.3090    5.7207 C   0  0  0  0  0  0  0  0  0  0  0  0
   -2.5080   26.6550    5.6109 C   0  0  0  0  0  0  0  0  0  0  0  0
   -3.0561   27.7802    5.9475 N   0  0  0  0  0  0  0  0  0  0  0  0
   -2.1486   28.6826    6.4423 N   0  0  0  0  0  0  0  0  0  0  0  0
  1  2  1  0  0  0
  2  7  1  0  0  0
  7  8  1  0  0  0
  8  9  1  0  0  0
  9 10  2  0  0  0
 10 11  1  0  0  0
 11 14  1  0  0  0
 14 15  1  0  0  0
 14 16  1  0  0  0
 11 12  2  0  0  0
 12 13  1  0  0  0
  2  3  1  0  0  0
  3  4  1  0  0  0
  4  5  1  0  0  0
  5  6  1  0  0  0
  6 17  1  0  0  0
 17 18  1  0  0  0
 18 19  2  0  0  0
 19 20  1  0  0  0
 20 21  2  0  0  0
 21 22  1  0  0  0
 22 23  2  0  0  0
 23 24  1  0  0  0
 24 25  2  0  0  0
 25 26  1  0  0  0
  6  2  1  0  0  0
 26 18  1  0  0  0
 13  8  2  0  0  0
 26 21  1  0  0  0
M  END
> <minimizedAffinity>
-9.37919

$$$$
OCNT-2316630


 23 25  0  0  0  0  0  0  0  0999 V2000
   -3.9560   26.7565    5.3139 N   0  0  0  0  0  0  0  0  0  0  0  0
   -2.7523   26.9915    5.9114 C   0  0  0  0  0  0  0  0  0  0  0  0
   -2.9473   28.1702    6.5972 C   0  0  0  0  0  0  0  0  0  0  0  0
   -4.2377   28.5936    6.3933 N   0  0  0  0  0  0  0  0  0  0  0  0
   -4.8490   27.7124    5.6134 N   0  0  0  0  0  0  0  0  0  0  0  0
   -1.9840   28.8895    7.4041 C   0  0  0  0  0  0  0  0  0  0  0  0
   -2.4157   29.8346    8.3365 C   0  0  0  0  0  0  0  0  0  0  0  0
   -1.5917   30.5605    9.1375 N   0  0  0  0  0  0  0  0  0  0  0  0
   -0.2671   30.3281    9.0035 C   0  0  0  0  0  0  0  0  0  0  0  0
    0.2562   29.4118    8.1102 C   0  0  0  0  0  0  0  0  0  0  0  0
    1.5780   29.2227    8.0238 F   0  0  0  0  0  0  0  0  0  0  0  0
   -0.6050   28.6829    7.3001 C   0  0  0  0  0  0  0  0  0  0  0  0
   -4.3110   25.6680    4.4304 C   0  0  0  0  0  0  0  0  0  0  0  0
   -4.3872   27.4957    2.8516 O   0  0  0  0  0  0  0  0  0  0  0  0
   -4.8894   26.1679    3.1076 C   0  0  0  0  0  0  0  0  0  0  0  0
   -4.4403   27.5806    1.8774 H   0  0  0  0  0  0  0  0  0  0  0  0
   -4.5040   25.2694    1.9087 C   0  0  0  0  0  0  0  0  0  0  0  0
   -5.7120   24.5893    1.3809 N   0  0  0  0  0  0  0  0  0  0  0  0
   -5.4589   23.1430    1.1734 C   0  0  0  0  0  0  0  0  0  0  0  0
   -6.6751   22.4409    0.5471 C   0  0  0  0  0  0  0  0  0  0  0  0
   -7.0435   23.0481   -0.6988 O   0  0  0  0  0  0  0  0  0  0  0  0
   -7.3285   24.4380   -0.5071 C   0  0  0  0  0  0  0  0  0  0  0  0
   -6.1119   25.1728    0.0790 C   0  0  0  0  0  0  0  0  0  0  0  0
 14 15  1  0  0  0
 15 17  1  0  0  0
 17 18  1  0  0  0
 18 19  1  0  0  0
 19 20  1  0  0  0
 20 21  1  0  0  0
 21 22  1  0  0  0
 22 23  1  0  0  0
 15 13  1  0  0  0
 13  1  1  0  0  0
  1  2  1  0  0  0
  2  3  2  0  0  0
  3  6  1  0  0  0
  6  7  2  0  0  0
  7  8  1  0  0  0
  8  9  2  0  0  0
  9 10  1  0  0  0
 10 11  1  0  0  0
 10 12  2  0  0  0
  3  4  1  0  0  0
  4  5  2  0  0  0
 23 18  1  0  0  0
  5  1  1  0  0  0
 12  6  1  0  0  0
 14 16  1  0  0  0
M  END
> <minimizedAffinity>
-7.87190

$$$$
OCNT-2316644


 26 27  0  0  0  0  0  0  0  0999 V2000
   -5.5659   27.8414    4.7398 C   0  0  0  0  0  0  0  0  0  0  0  0
   -6.5602   29.0113    5.0543 C   0  0  0  0  0  0  0  0  0  0  0  0
   -6.1360   29.6598    3.7214 C   0  0  0  0  0  0  0  0  0  0  0  0
   -5.7217   28.2559    3.2353 C   0  0  0  0  0  0  0  0  0  0  0  0
   -3.8467   28.5336    6.4667 C   0  0  0  0  0  0  0  0  0  0  0  0
   -4.6385   28.7625    7.3665 O   0  0  0  0  0  0  0  0  0  0  0  0
   -4.1765   28.1128    5.2095 N   0  0  0  0  0  0  0  0  0  0  0  0
   -3.3762   27.9563    4.6116 H   0  0  0  0  0  0  0  0  0  0  0  0
   -2.5007   28.6501    6.5370 O   0  0  0  0  0  0  0  0  0  0  0  0
   -2.5105   31.1129    6.5438 C   0  0  0  0  0  0  0  0  0  0  0  0
   -1.8905   29.8320    7.1142 C   0  0  0  0  0  0  0  0  0  0  0  0
   -0.4191   29.7611    6.6767 C   0  0  0  0  0  0  0  0  0  0  0  0
   -1.9490   29.8014    8.6453 C   0  0  0  0  0  0  0  0  0  0  0  0
   -5.9150   26.3902    5.0994 C   0  0  0  0  0  0  0  0  0  0  0  0
   -4.7448   25.4101    4.9504 C   0  0  0  0  0  0  0  0  0  0  0  0
   -4.7079   24.7566    3.6412 N   0  0  0  0  0  0  0  0  0  0  0  0
   -4.3495   25.4217    2.9459 H   0  0  0  0  0  0  0  0  0  0  0  0
   -6.0154   24.2742    3.1746 C   0  0  0  0  0  0  0  0  0  0  0  0
   -6.1590   24.5027    1.6626 C   0  0  0  0  0  0  0  0  0  0  0  0
   -5.7719   25.4712    1.0306 O   0  0  0  0  0  0  0  0  0  0  0  0
   -6.8592   23.4400    1.1322 N   0  0  0  0  0  0  0  0  0  0  0  0
   -7.2416   22.4882    2.1321 C   0  0  0  0  0  0  0  0  0  0  0  0
   -6.2701   22.7428    3.2985 C   0  0  0  0  0  0  0  0  0  0  0  0
   -4.9936   21.8992    3.1010 C   0  0  0  0  0  0  0  0  0  0  0  0
   -6.9214   22.3630    4.6335 C   0  0  0  0  0  0  0  0  0  0  0  0
   -7.1249   23.4263    0.1561 H   0  0  0  0  0  0  0  0  0  0  0  0
 10 11  1  0  0  0
 11 12  1  0  0  0
 11 13  1  0  0  0
 11  9  1  0  0  0
  9  5  1  0  0  0
  5  6  2  0  0  0
  5  7  1  0  0  0
  7  1  1  0  0  0
  1 14  1  0  0  0
 14 15  1  0  0  0
 15 16  1  0  0  0
 16 18  1  0  0  0
 18 19  1  0  0  0
 19 20  2  0  0  0
 19 21  1  0  0  0
 21 22  1  0  0  0
 22 23  1  0  0  0
 23 24  1  0  0  0
 23 25  1  0  0  0
  1  2  1  0  0  0
  2  3  1  0  0  0
  3  4  1  0  0  0
  4  1  1  0  0  0
 23 18  1  0  0  0
  7  8  1  0  0  0
 16 17  1  0  0  0
 21 26  1  0  0  0
M  END
> <minimizedAffinity>
-7.67252

$$$$
OCNT-2316654


 29 32  0  0  0  0  0  0  0  0999 V2000
   -4.3300   25.4575    3.2541 C   0  0  0  0  0  0  0  0  0  0  0  0
   -3.4510   25.8738    2.5088 O   0  0  0  0  0  0  0  0  0  0  0  0
   -4.5598   25.8826    4.5497 N   0  0  0  0  0  0  0  0  0  0  0  0
   -5.4156   25.5433    4.9695 H   0  0  0  0  0  0  0  0  0  0  0  0
   -5.4040   22.9839    4.9489 C   0  0  0  0  0  0  0  0  0  0  0  0
   -5.7530   23.3923    3.5618 C   0  0  0  0  0  0  0  0  0  0  0  0
   -5.3100   24.4657    2.7975 C   0  0  0  0  0  0  0  0  0  0  0  0
   -6.0081   24.3958    1.5406 C   0  0  0  0  0  0  0  0  0  0  0  0
   -6.0559   25.2063    0.3832 C   0  0  0  0  0  0  0  0  0  0  0  0
   -6.8615   24.8288   -0.6978 C   0  0  0  0  0  0  0  0  0  0  0  0
   -7.6253   23.6672   -0.6405 C   0  0  0  0  0  0  0  0  0  0  0  0
   -7.6172   22.8591    0.4986 C   0  0  0  0  0  0  0  0  0  0  0  0
   -6.8074   23.2526    1.5713 C   0  0  0  0  0  0  0  0  0  0  0  0
   -6.6389   22.6705    2.8044 N   0  0  0  0  0  0  0  0  0  0  0  0
   -7.1184   21.8343    3.1094 H   0  0  0  0  0  0  0  0  0  0  0  0
   -3.8051   26.7956    5.3129 C   0  0  0  0  0  0  0  0  0  0  0  0
   -4.2831   28.0419    5.7280 C   0  0  0  0  0  0  0  0  0  0  0  0
   -3.4964   28.9376    6.4948 C   0  0  0  0  0  0  0  0  0  0  0  0
   -2.1826   28.5355    6.8141 C   0  0  0  0  0  0  0  0  0  0  0  0
   -1.0859   29.0931    7.5149 C   0  0  0  0  0  0  0  0  0  0  0  0
   -0.0229   28.2863    7.5376 N   0  0  0  0  0  0  0  0  0  0  0  0
   -0.4342   27.2062    6.8539 N   0  0  0  0  0  0  0  0  0  0  0  0
   -1.7209   27.2957    6.3891 C   0  0  0  0  0  0  0  0  0  0  0  0
   -2.4993   26.4046    5.6429 C   0  0  0  0  0  0  0  0  0  0  0  0
    0.2162   26.4376    6.7367 H   0  0  0  0  0  0  0  0  0  0  0  0
   -4.0592   30.2775    6.8901 C   0  0  0  0  0  0  0  0  0  0  0  0
   -4.0198   30.4981    8.2346 F   0  0  0  0  0  0  0  0  0  0  0  0
   -3.3754   31.3106    6.3254 F   0  0  0  0  0  0  0  0  0  0  0  0
   -5.3612   30.4469    6.5301 F   0  0  0  0  0  0  0  0  0  0  0  0
  5  6  1  0  0  0
  6  7  2  0  0  0
  7  1  1  0  0  0
  1  2  2  0  0  0
  1  3  1  0  0  0
  3 16  1  0  0  0
 16 17  2  0  0  0
 17 18  1  0  0  0
 18 26  1  0  0  0
 26 27  1  0  0  0
 26 28  1  0  0  0
 26 29  1  0  0  0
 18 19  2  0  0  0
 19 20  1  0  0  0
 20 21  2  0  0  0
 21 22  1  0  0  0
 22 23  1  0  0  0
 23 24  2  0  0  0
  7  8  1  0  0  0
  8  9  2  0  0  0
  9 10  1  0  0  0
 10 11  2  0  0  0
 11 12  1  0  0  0
 12 13  2  0  0  0
 13 14  1  0  0  0
 14  6  1  0  0  0
 24 16  1  0  0  0
 13  8  1  0  0  0
 23 19  1  0  0  0
  3  4  1  0  0  0
 22 25  1  0  0  0
 14 15  1  0  0  0
M  END
> <minimizedAffinity>
-10.01725

$$$$
OCNT-2316656


 26 29  0  0  0  0  0  0  0  0999 V2000
   -3.1384   27.9310    6.0726 N   0  0  0  0  0  0  0  0  0  0  0  0
   -3.1460   26.6261    5.6554 C   0  0  0  0  0  0  0  0  0  0  0  0
   -2.3964   25.7873    6.1478 O   0  0  0  0  0  0  0  0  0  0  0  0
   -4.0271   26.3485    4.6214 N   0  0  0  0  0  0  0  0  0  0  0  0
   -4.8062   27.3661    3.9129 C   0  0  0  0  0  0  0  0  0  0  0  0
   -5.7500   26.7730    2.8746 C   0  0  0  0  0  0  0  0  0  0  0  0
   -5.0030   25.8733    1.8747 C   0  0  0  0  0  0  0  0  0  0  0  0
   -3.8659   25.0710    2.5360 C   0  0  0  0  0  0  0  0  0  0  0  0
   -4.0325   25.0008    4.0493 C   0  0  0  0  0  0  0  0  0  0  0  0
   -4.0463   28.3742    6.0829 H   0  0  0  0  0  0  0  0  0  0  0  0
   -4.6327   30.0917    9.2722 C   0  0  0  0  0  0  0  0  0  0  0  0
   -3.5550   30.8472    9.5245 N   0  0  0  0  0  0  0  0  0  0  0  0
   -2.6265   30.2423    8.7694 N   0  0  0  0  0  0  0  0  0  0  0  0
   -1.2896   30.7735    8.6248 C   0  0  0  0  0  0  0  0  0  0  0  0
   -0.3585   29.7863    7.9202 C   0  0  0  0  0  0  0  0  0  0  0  0
   -1.0555   29.1203    6.7279 C   0  0  0  0  0  0  0  0  0  0  0  0
   -2.3016   28.3379    7.1864 C   0  0  0  0  0  0  0  0  0  0  0  0
   -3.1433   29.1763    8.0937 C   0  0  0  0  0  0  0  0  0  0  0  0
   -4.4230   29.0589    8.3897 N   0  0  0  0  0  0  0  0  0  0  0  0
   -6.4922   29.1254   10.6237 C   0  0  0  0  0  0  0  0  0  0  0  0
   -5.9568   30.3464    9.8930 C   0  0  0  0  0  0  0  0  0  0  0  0
   -5.9793   24.9469    1.1930 C   0  0  0  0  0  0  0  0  0  0  0  0
   -6.4531   23.8431    1.7351 N   0  0  0  0  0  0  0  0  0  0  0  0
   -7.3102   23.2192    0.8507 C   0  0  0  0  0  0  0  0  0  0  0  0
   -7.4847   23.8564   -0.3580 C   0  0  0  0  0  0  0  0  0  0  0  0
   -6.5469   25.2898   -0.3965 S   0  0  0  0  0  0  0  0  0  0  0  0
 20 21  1  0  0  0
 21 11  1  0  0  0
 11 12  2  0  0  0
 12 13  1  0  0  0
 13 14  1  0  0  0
 14 15  1  0  0  0
 15 16  1  0  0  0
 16 17  1  0  0  0
 17  1  1  0  0  0
  1  2  1  0  0  0
  2  3  2  0  0  0
  2  4  1  0  0  0
  4  5  1  0  0  0
  5  6  1  0  0  0
  6  7  1  0  0  0
  7 22  1  0  0  0
 22 23  2  0  0  0
 23 24  1  0  0  0
 24 25  2  0  0  0
 25 26  1  0  0  0
  7  8  1  0  0  0
  8  9  1  0  0  0
 17 18  1  0  0  0
 18 19  2  0  0  0
 19 11  1  0  0  0
 18 13  1  0  0  0
  9  4  1  0  0  0
 26 22  1  0  0  0
  1 10  1  0  0  0
M  END
> <minimizedAffinity>
-9.35764

$$$$
OCNT-2316657


 25 28  0  0  0  0  0  0  0  0999 V2000
   -3.9778   28.2598    5.8052 N   0  0  0  0  0  0  0  0  0  0  0  0
   -5.1322   27.5434    5.6488 C   0  0  0  0  0  0  0  0  0  0  0  0
   -6.2308   27.8536    6.0967 O   0  0  0  0  0  0  0  0  0  0  0  0
   -4.9526   26.3844    4.9225 N   0  0  0  0  0  0  0  0  0  0  0  0
   -4.0056   26.0973    3.8449 C   0  0  0  0  0  0  0  0  0  0  0  0
   -5.1464   25.3929    3.1619 C   0  0  0  0  0  0  0  0  0  0  0  0
   -5.6183   25.9497    1.8317 C   0  0  0  0  0  0  0  0  0  0  0  0
   -4.8044   24.8087    1.1704 C   0  0  0  0  0  0  0  0  0  0  0  0
   -4.8809   24.0494    2.5198 C   0  0  0  0  0  0  0  0  0  0  0  0
   -6.0378   25.5414    4.3689 C   0  0  0  0  0  0  0  0  0  0  0  0
   -3.0973   27.8585    5.5383 H   0  0  0  0  0  0  0  0  0  0  0  0
   -6.4354   24.2568    5.2189 C   0  0  0  0  0  0  0  0  0  0  0  0
   -7.7860   23.8799    5.3717 C   0  0  0  0  0  0  0  0  0  0  0  0
   -8.1667   22.7483    6.0991 C   0  0  0  0  0  0  0  0  0  0  0  0
   -7.1996   21.9526    6.7019 C   0  0  0  0  0  0  0  0  0  0  0  0
   -5.8570   22.2911    6.5780 C   0  0  0  0  0  0  0  0  0  0  0  0
   -5.4860   23.4248    5.8483 C   0  0  0  0  0  0  0  0  0  0  0  0
   -3.4741   30.8705    7.8881 N   0  0  0  0  0  0  0  0  0  0  0  0
   -4.0166   31.5721    6.8823 N   0  0  0  0  0  0  0  0  0  0  0  0
   -4.2872   30.6671    5.9513 N   0  0  0  0  0  0  0  0  0  0  0  0
   -3.8888   29.4586    6.4504 C   0  0  0  0  0  0  0  0  0  0  0  0
   -3.3581   29.5433    7.6773 N   0  0  0  0  0  0  0  0  0  0  0  0
   -3.6937   32.8830    9.2893 C   0  0  0  0  0  0  0  0  0  0  0  0
   -3.0392   31.5136    9.1169 C   0  0  0  0  0  0  0  0  0  0  0  0
   -1.5164   31.6130    9.1836 C   0  0  0  0  0  0  0  0  0  0  0  0
 23 24  1  0  0  0
 24 25  1  0  0  0
 24 18  1  0  0  0
 18 19  1  0  0  0
 19 20  2  0  0  0
 20 21  1  0  0  0
 21  1  1  0  0  0
  1  2  1  0  0  0
  2  3  2  0  0  0
  2  4  1  0  0  0
  4  5  1  0  0  0
  5  6  1  0  0  0
  6  7  1  0  0  0
  7  8  1  0  0  0
  8  9  1  0  0  0
  6 10  1  0  0  0
 10 12  1  0  0  0
 12 13  2  0  0  0
 13 14  1  0  0  0
 14 15  2  0  0  0
 15 16  1  0  0  0
 16 17  2  0  0  0
 21 22  2  0  0  0
 22 18  1  0  0  0
 10  4  1  0  0  0
 17 12  1  0  0  0
  9  6  1  0  0  0
  1 11  1  0  0  0
M  END
> <minimizedAffinity>
-9.81993

$$$$
OCNT-2316664


 25 28  0  0  0  0  0  0  0  0999 V2000
   -3.8750   29.0951    6.3247 N   0  0  0  0  0  0  0  0  0  0  0  0
   -4.8223   30.0970    5.8081 C   0  0  0  0  0  0  0  0  0  0  0  0
   -5.8954   29.5919    4.8625 C   0  0  0  0  0  0  0  0  0  0  0  0
   -6.4724   28.2985    5.3851 C   0  0  0  0  0  0  0  0  0  0  0  0
   -5.3822   27.2429    5.5100 C   0  0  0  0  0  0  0  0  0  0  0  0
   -4.0411   27.7238    6.0609 C   0  0  0  0  0  0  0  0  0  0  0  0
   -3.1831   26.8600    6.2716 O   0  0  0  0  0  0  0  0  0  0  0  0
   -2.2261   31.8618   10.1919 C   0  0  0  0  0  0  0  0  0  0  0  0
   -1.9290   30.9629    9.0262 C   0  0  0  0  0  0  0  0  0  0  0  0
   -0.6207   30.5964    8.7213 C   0  0  0  0  0  0  0  0  0  0  0  0
   -0.3780   29.7609    7.6398 C   0  0  0  0  0  0  0  0  0  0  0  0
   -1.4419   29.2781    6.8662 C   0  0  0  0  0  0  0  0  0  0  0  0
   -2.7829   29.6018    7.1520 C   0  0  0  0  0  0  0  0  0  0  0  0
   -2.9894   30.4649    8.2421 C   0  0  0  0  0  0  0  0  0  0  0  0
   -5.1733   26.4813    4.2848 N   0  0  0  0  0  0  0  0  0  0  0  0
   -5.8551   25.3728    3.8673 C   0  0  0  0  0  0  0  0  0  0  0  0
   -5.3035   25.0911    2.6419 C   0  0  0  0  0  0  0  0  0  0  0  0
   -4.3440   26.0188    2.3489 N   0  0  0  0  0  0  0  0  0  0  0  0
   -4.2715   26.8704    3.3626 N   0  0  0  0  0  0  0  0  0  0  0  0
   -5.6908   23.9244    1.7152 C   0  0  0  0  0  0  0  0  0  0  0  0
   -5.5702   22.5746    1.9599 C   0  0  0  0  0  0  0  0  0  0  0  0
   -6.0313   21.8401    0.8954 N   0  0  0  0  0  0  0  0  0  0  0  0
   -6.4201   22.7296    0.0088 C   0  0  0  0  0  0  0  0  0  0  0  0
   -6.2308   24.0060    0.4595 N   0  0  0  0  0  0  0  0  0  0  0  0
   -6.5485   25.2072   -0.2703 C   0  0  0  0  0  0  0  0  0  0  0  0
  8  9  1  0  0  0
  9 10  2  0  0  0
 10 11  1  0  0  0
 11 12  2  0  0  0
 12 13  1  0  0  0
 13  1  1  0  0  0
  1  2  1  0  0  0
  2  3  1  0  0  0
  3  4  1  0  0  0
  4  5  1  0  0  0
  5 15  1  0  0  0
 15 16  1  0  0  0
 16 17  2  0  0  0
 17 20  1  0  0  0
 20 21  2  0  0  0
 21 22  1  0  0  0
 22 23  2  0  0  0
 23 24  1  0  0  0
 24 25  1  0  0  0
 17 18  1  0  0  0
 18 19  2  0  0  0
  5  6  1  0  0  0
  6  7  2  0  0  0
 13 14  2  0  0  0
 14  9  1  0  0  0
  6  1  1  0  0  0
 19 15  1  0  0  0
 24 20  1  0  0  0
M  END
> <minimizedAffinity>
-9.02481

$$$$
OCNT-2316676


 24 27  0  0  0  0  0  0  0  0999 V2000
   -4.7812   29.3718    6.7949 C   0  0  0  0  0  0  0  0  0  0  0  0
   -4.4784   28.5390    5.8269 N   0  0  0  0  0  0  0  0  0  0  0  0
   -5.6653   27.8643    5.6271 C   0  0  0  0  0  0  0  0  0  0  0  0
   -6.6583   28.2642    6.4396 N   0  0  0  0  0  0  0  0  0  0  0  0
   -6.0743   29.2626    7.2136 O   0  0  0  0  0  0  0  0  0  0  0  0
   -4.1230   32.2836    9.1473 C   0  0  0  0  0  0  0  0  0  0  0  0
   -4.7433   31.6048    7.9191 C   0  0  0  0  0  0  0  0  0  0  0  0
   -3.9249   30.3831    7.4705 C   0  0  0  0  0  0  0  0  0  0  0  0
   -3.1538   29.7818    8.6438 C   0  0  0  0  0  0  0  0  0  0  0  0
   -2.2415   30.8286    9.2774 C   0  0  0  0  0  0  0  0  0  0  0  0
   -2.7025   32.1671    9.0883 O   0  0  0  0  0  0  0  0  0  0  0  0
   -5.0152   34.4139    8.0045 C   0  0  0  0  0  0  0  0  0  0  0  0
   -4.5130   33.7608    9.2866 C   0  0  0  0  0  0  0  0  0  0  0  0
   -5.8049   26.8169    4.6205 C   0  0  0  0  0  0  0  0  0  0  0  0
   -6.1570   25.5091    4.9765 C   0  0  0  0  0  0  0  0  0  0  0  0
   -6.2890   24.5087    4.0035 C   0  0  0  0  0  0  0  0  0  0  0  0
   -6.0702   24.7993    2.6495 C   0  0  0  0  0  0  0  0  0  0  0  0
   -5.7176   26.1073    2.2889 C   0  0  0  0  0  0  0  0  0  0  0  0
   -5.5874   27.1027    3.2670 C   0  0  0  0  0  0  0  0  0  0  0  0
   -6.2041   23.7821    1.6589 N   0  0  0  0  0  0  0  0  0  0  0  0
   -5.7037   22.4970    1.7023 C   0  0  0  0  0  0  0  0  0  0  0  0
   -6.0864   21.8936    0.5278 C   0  0  0  0  0  0  0  0  0  0  0  0
   -6.8065   22.7547   -0.2458 N   0  0  0  0  0  0  0  0  0  0  0  0
   -6.8623   23.8701    0.4491 C   0  0  0  0  0  0  0  0  0  0  0  0
 12 13  1  0  0  0
 13  6  1  0  0  0
  6  7  1  0  0  0
  7  8  1  0  0  0
  8  1  1  0  0  0
  1  2  2  0  0  0
  2  3  1  0  0  0
  3 14  1  0  0  0
 14 15  1  0  0  0
 15 16  2  0  0  0
 16 17  1  0  0  0
 17 20  1  0  0  0
 20 21  1  0  0  0
 21 22  2  0  0  0
 22 23  1  0  0  0
 23 24  2  0  0  0
 17 18  2  0  0  0
 18 19  1  0  0  0
  3  4  2  0  0  0
  4  5  1  0  0  0
  8  9  1  0  0  0
  9 10  1  0  0  0
 10 11  1  0  0  0
 11  6  1  0  0  0
  5  1  1  0  0  0
 19 14  2  0  0  0
 24 20  1  0  0  0
M  END
> <minimizedAffinity>
-9.36035

$$$$
OCNT-2316682


 23 25  0  0  0  0  0  0  0  0999 V2000
   -3.7824   26.4058    3.3326 C   0  0  0  0  0  0  0  0  0  0  0  0
   -3.8235   25.5097    2.0986 C   0  0  0  0  0  0  0  0  0  0  0  0
   -5.2404   25.5611    1.7211 N   0  0  0  0  0  0  0  0  0  0  0  0
   -5.5845   24.5569    0.7231 C   0  0  0  0  0  0  0  0  0  0  0  0
   -5.9644   25.3663    2.9851 C   0  0  0  0  0  0  0  0  0  0  0  0
   -5.1314   26.1340    4.0320 C   0  0  0  0  0  0  0  0  0  0  0  0
   -5.7983   27.4037    4.5312 C   0  0  0  0  0  0  0  0  0  0  0  0
   -6.4295   27.4143    5.7838 C   0  0  0  0  0  0  0  0  0  0  0  0
   -7.0326   28.5759    6.2672 C   0  0  0  0  0  0  0  0  0  0  0  0
   -7.0138   29.7421    5.5057 C   0  0  0  0  0  0  0  0  0  0  0  0
   -6.3888   29.7482    4.2616 C   0  0  0  0  0  0  0  0  0  0  0  0
   -5.7830   28.5882    3.7779 C   0  0  0  0  0  0  0  0  0  0  0  0
   -2.6738   26.6609    5.4712 N   0  0  0  0  0  0  0  0  0  0  0  0
   -2.5973   26.0909    4.2260 C   0  0  0  0  0  0  0  0  0  0  0  0
   -1.6436   25.4046    3.8715 O   0  0  0  0  0  0  0  0  0  0  0  0
   -3.5372   27.0911    5.7889 H   0  0  0  0  0  0  0  0  0  0  0  0
   -1.6992   26.3659    6.4944 C   0  0  0  0  0  0  0  0  0  0  0  0
   -0.5176   30.5503    8.9826 C   0  0  0  0  0  0  0  0  0  0  0  0
   -0.5698   29.4737    8.0278 N   0  0  0  0  0  0  0  0  0  0  0  0
    0.2519   29.3140    6.9515 C   0  0  0  0  0  0  0  0  0  0  0  0
   -0.0448   28.2244    6.2796 N   0  0  0  0  0  0  0  0  0  0  0  0
   -1.1086   27.6527    6.9551 C   0  0  0  0  0  0  0  0  0  0  0  0
   -1.4482   28.4279    8.0456 C   0  0  0  0  0  0  0  0  0  0  0  0
 18 19  1  0  0  0
 19 20  1  0  0  0
 20 21  2  0  0  0
 21 22  1  0  0  0
 22 17  1  0  0  0
 17 13  1  0  0  0
 13 14  1  0  0  0
 14 15  2  0  0  0
 14  1  1  0  0  0
  1  2  1  0  0  0
  2  3  1  0  0  0
  3  4  1  0  0  0
  3  5  1  0  0  0
  5  6  1  0  0  0
  6  7  1  0  0  0
  7  8  2  0  0  0
  8  9  1  0  0  0
  9 10  2  0  0  0
 10 11  1  0  0  0
 11 12  2  0  0  0
 22 23  2  0  0  0
 23 19  1  0  0  0
  6  1  1  0  0  0
 12  7  1  0  0  0
 13 16  1  0  0  0
M  END
> <minimizedAffinity>
-8.27993

$$$$
OCNT-2316696


 27 30  0  0  0  0  0  0  0  0999 V2000
   -6.0481   29.7582    7.6008 N   0  0  0  0  0  0  0  0  0  0  0  0
   -5.5897   28.8485    7.6322 H   0  0  0  0  0  0  0  0  0  0  0  0
   -1.9245   28.6071    7.4066 C   0  0  0  0  0  0  0  0  0  0  0  0
   -1.0726   29.1762    8.3449 C   0  0  0  0  0  0  0  0  0  0  0  0
   -1.4715   30.3240    9.0288 C   0  0  0  0  0  0  0  0  0  0  0  0
   -2.7193   30.9088    8.7826 C   0  0  0  0  0  0  0  0  0  0  0  0
   -2.9403   32.0682    9.4792 O   0  0  0  0  0  0  0  0  0  0  0  0
   -3.4184   33.1169    8.6398 C   0  0  0  0  0  0  0  0  0  0  0  0
   -4.9323   33.1849    8.7055 C   0  0  0  0  0  0  0  0  0  0  0  0
   -5.5994   31.8114    8.7097 C   0  0  0  0  0  0  0  0  0  0  0  0
   -5.0493   30.8443    7.6421 C   0  0  0  0  0  0  0  0  0  0  0  0
   -3.6352   30.3169    7.8978 C   0  0  0  0  0  0  0  0  0  0  0  0
   -3.1834   29.1809    7.1879 C   0  0  0  0  0  0  0  0  0  0  0  0
   -2.6750   27.0983    5.7309 C   0  0  0  0  0  0  0  0  0  0  0  0
   -1.6619   27.5029    6.6437 O   0  0  0  0  0  0  0  0  0  0  0  0
   -6.9352   29.8441    6.4468 C   0  0  0  0  0  0  0  0  0  0  0  0
   -6.5271   28.8474    5.3872 C   0  0  0  0  0  0  0  0  0  0  0  0
   -6.2034   29.2709    4.0923 C   0  0  0  0  0  0  0  0  0  0  0  0
   -5.8165   28.3452    3.1193 C   0  0  0  0  0  0  0  0  0  0  0  0
   -5.7397   26.9801    3.4304 C   0  0  0  0  0  0  0  0  0  0  0  0
   -6.0562   26.5502    4.7251 C   0  0  0  0  0  0  0  0  0  0  0  0
   -6.4460   27.4813    5.6932 C   0  0  0  0  0  0  0  0  0  0  0  0
   -5.3378   26.0594    2.4289 N   0  0  0  0  0  0  0  0  0  0  0  0
   -4.1931   25.3009    2.3590 C   0  0  0  0  0  0  0  0  0  0  0  0
   -4.1893   24.5662    1.2695 N   0  0  0  0  0  0  0  0  0  0  0  0
   -5.3672   24.9055    0.6801 C   0  0  0  0  0  0  0  0  0  0  0  0
   -6.1029   25.8020    1.3366 N   0  0  0  0  0  0  0  0  0  0  0  0
 14 15  1  0  0  0
 15  3  1  0  0  0
  3  4  1  0  0  0
  4  5  2  0  0  0
  5  6  1  0  0  0
  6  7  1  0  0  0
  7  8  1  0  0  0
  8  9  1  0  0  0
  9 10  1  0  0  0
 10 11  1  0  0  0
 11  1  1  0  0  0
  1 16  1  0  0  0
 16 17  1  0  0  0
 17 18  1  0  0  0
 18 19  2  0  0  0
 19 20  1  0  0  0
 20 23  1  0  0  0
 23 24  1  0  0  0
 24 25  2  0  0  0
 25 26  1  0  0  0
 26 27  2  0  0  0
 20 21  2  0  0  0
 21 22  1  0  0  0
 11 12  1  0  0  0
 12 13  1  0  0  0
 13  3  2  0  0  0
 12  6  2  0  0  0
 22 17  2  0  0  0
 27 23  1  0  0  0
  1  2  1  0  0  0
M  END
> <minimizedAffinity>
-9.47274

$$$$
OCNT-2316701


 24 26  0  0  0  0  0  0  0  0999 V2000
   -5.0719   28.4790    5.8337 N   0  0  0  0  0  0  0  0  0  0  0  0
   -5.6007   28.3382    4.5656 C   0  0  0  0  0  0  0  0  0  0  0  0
   -6.1060   29.2226    3.8857 O   0  0  0  0  0  0  0  0  0  0  0  0
   -4.8122   27.6450    6.3520 H   0  0  0  0  0  0  0  0  0  0  0  0
   -5.5833   26.9635    4.0092 C   0  0  0  0  0  0  0  0  0  0  0  0
   -5.2817   25.8516    4.7932 C   0  0  0  0  0  0  0  0  0  0  0  0
   -5.2482   24.5652    4.3661 N   0  0  0  0  0  0  0  0  0  0  0  0
   -5.5140   24.4418    3.0496 C   0  0  0  0  0  0  0  0  0  0  0  0
   -5.5364   23.2551    2.3816 O   0  0  0  0  0  0  0  0  0  0  0  0
   -5.8345   23.4750    1.0435 N   0  0  0  0  0  0  0  0  0  0  0  0
   -5.9863   24.8002    0.9188 C   0  0  0  0  0  0  0  0  0  0  0  0
   -6.3120   25.3956   -0.3973 C   0  0  0  0  0  0  0  0  0  0  0  0
   -5.8016   25.4640    2.1562 C   0  0  0  0  0  0  0  0  0  0  0  0
   -5.8357   26.7795    2.6434 C   0  0  0  0  0  0  0  0  0  0  0  0
   -4.8869   32.0438    8.1153 C   0  0  0  0  0  0  0  0  0  0  0  0
   -6.0582   31.2959    8.0296 C   0  0  0  0  0  0  0  0  0  0  0  0
   -6.0696   30.1293    7.2650 C   0  0  0  0  0  0  0  0  0  0  0  0
   -7.2059   29.4166    7.1937 F   0  0  0  0  0  0  0  0  0  0  0  0
   -4.9372   29.6785    6.5715 C   0  0  0  0  0  0  0  0  0  0  0  0
   -3.7668   30.4254    6.6619 C   0  0  0  0  0  0  0  0  0  0  0  0
   -3.7521   31.5942    7.4268 C   0  0  0  0  0  0  0  0  0  0  0  0
   -2.6095   32.2945    7.4960 F   0  0  0  0  0  0  0  0  0  0  0  0
   -4.9942   34.4243    8.1474 C   0  0  0  0  0  0  0  0  0  0  0  0
   -4.7324   33.2024    8.8256 O   0  0  0  0  0  0  0  0  0  0  0  0
 23 24  1  0  0  0
 24 15  1  0  0  0
 15 16  1  0  0  0
 16 17  2  0  0  0
 17 18  1  0  0  0
 17 19  1  0  0  0
 19  1  1  0  0  0
  1  2  1  0  0  0
  2  3  2  0  0  0
  2  5  1  0  0  0
  5  6  2  0  0  0
  6  7  1  0  0  0
  7  8  2  0  0  0
  8  9  1  0  0  0
  9 10  1  0  0  0
 10 11  2  0  0  0
 11 12  1  0  0  0
 11 13  1  0  0  0
 13 14  2  0  0  0
 19 20  2  0  0  0
 20 21  1  0  0  0
 21 22  1  0  0  0
 21 15  2  0  0  0
 14  5  1  0  0  0
 13  8  1  0  0  0
  1  4  1  0  0  0
M  END
> <minimizedAffinity>
-8.67193

$$$$
OCNT-2316720


 35 38  0  0  0  0  0  0  0  0999 V2000
   -1.2304   30.3729    6.4718 O   0  0  0  0  0  0  0  0  0  0  0  0
   -1.3146   29.6175    7.4316 C   0  0  0  0  0  0  0  0  0  0  0  0
   -1.2432   30.0559    8.7391 N   0  0  0  0  0  0  0  0  0  0  0  0
   -1.4964   28.2536    7.3942 N   0  0  0  0  0  0  0  0  0  0  0  0
   -0.7697   29.4185    9.3667 H   0  0  0  0  0  0  0  0  0  0  0  0
   -1.8645   27.8609    8.2481 H   0  0  0  0  0  0  0  0  0  0  0  0
   -1.4159   27.4145    6.2653 C   0  0  0  0  0  0  0  0  0  0  0  0
   -0.2060   27.0707    5.6488 C   0  0  0  0  0  0  0  0  0  0  0  0
   -0.1834   26.1796    4.5714 C   0  0  0  0  0  0  0  0  0  0  0  0
   -1.3722   25.6349    4.0887 C   0  0  0  0  0  0  0  0  0  0  0  0
   -2.5868   25.9912    4.6839 C   0  0  0  0  0  0  0  0  0  0  0  0
   -2.6090   26.8641    5.7818 C   0  0  0  0  0  0  0  0  0  0  0  0
   -3.8454   25.4151    4.1416 C   0  0  0  0  0  0  0  0  0  0  0  0
   -4.8463   25.4154    4.8510 O   0  0  0  0  0  0  0  0  0  0  0  0
   -3.7280   24.8991    2.8708 N   0  0  0  0  0  0  0  0  0  0  0  0
   -2.8169   24.8414    2.4355 H   0  0  0  0  0  0  0  0  0  0  0  0
   -4.7150   24.2994    2.0892 C   0  0  0  0  0  0  0  0  0  0  0  0
   -5.0299   22.9449    2.1279 C   0  0  0  0  0  0  0  0  0  0  0  0
   -6.0350   22.4604    1.2876 C   0  0  0  0  0  0  0  0  0  0  0  0
   -6.6941   23.3419    0.4403 C   0  0  0  0  0  0  0  0  0  0  0  0
   -7.9305   22.7909   -0.6128 Cl  0  0  0  0  0  0  0  0  0  0  0  0
   -6.3226   24.6757    0.4687 C   0  0  0  0  0  0  0  0  0  0  0  0
   -5.3530   25.1729    1.2753 N   0  0  0  0  0  0  0  0  0  0  0  0
   -0.9132   31.4460    9.0079 C   0  0  0  0  0  0  0  0  0  0  0  0
   -2.0854   32.3738    8.6426 C   0  0  0  0  0  0  0  0  0  0  0  0
   -3.0829   32.5092    9.7322 N   0  0  0  0  0  0  0  0  0  0  0  0
   -4.1575   33.4787    9.4414 C   0  0  0  0  0  0  0  0  0  0  0  0
   -5.0490   33.1035    8.2496 C   0  0  0  0  0  0  0  0  0  0  0  0
   -5.4364   31.6444    8.2516 C   0  0  0  0  0  0  0  0  0  0  0  0
   -6.4371   31.1861    7.3864 C   0  0  0  0  0  0  0  0  0  0  0  0
   -6.7740   29.8294    7.3527 C   0  0  0  0  0  0  0  0  0  0  0  0
   -6.1190   28.9278    8.1821 C   0  0  0  0  0  0  0  0  0  0  0  0
   -5.1156   29.3749    9.0397 C   0  0  0  0  0  0  0  0  0  0  0  0
   -4.7532   30.7297    9.0749 C   0  0  0  0  0  0  0  0  0  0  0  0
   -3.6953   31.2011   10.0505 C   0  0  0  0  0  0  0  0  0  0  0  0
  1  2  2  0  0  0
  2  3  1  0  0  0
  3 24  1  0  0  0
 24 25  1  0  0  0
 25 26  1  0  0  0
 26 27  1  0  0  0
 27 28  1  0  0  0
 28 29  1  0  0  0
 29 30  2  0  0  0
 30 31  1  0  0  0
 31 32  2  0  0  0
 32 33  1  0  0  0
 33 34  2  0  0  0
 34 35  1  0  0  0
  2  4  1  0  0  0
  4  7  1  0  0  0
  7  8  2  0  0  0
  8  9  1  0  0  0
  9 10  2  0  0  0
 10 11  1  0  0  0
 11 13  1  0  0  0
 13 14  2  0  0  0
 13 15  1  0  0  0
 15 17  1  0  0  0
 17 18  2  0  0  0
 18 19  1  0  0  0
 19 20  2  0  0  0
 20 21  1  0  0  0
 20 22  1  0  0  0
 22 23  2  0  0  0
 11 12  2  0  0  0
 35 26  1  0  0  0
 12  7  1  0  0  0
 34 29  1  0  0  0
 23 17  1  0  0  0
  3  5  1  0  0  0
  4  6  1  0  0  0
 15 16  1  0  0  0
M  END
> <minimizedAffinity>
-10.60644

$$$$
OCNT-2316751


 29 32  0  0  0  0  0  0  0  0999 V2000
   -5.1713   24.6106    2.9115 N   0  0  0  0  0  0  0  0  0  0  0  0
   -5.9913   25.1637    4.0188 C   0  0  0  0  0  0  0  0  0  0  0  0
   -5.5445   26.5645    4.4724 C   0  0  0  0  0  0  0  0  0  0  0  0
   -4.1094   26.6306    4.7683 N   0  0  0  0  0  0  0  0  0  0  0  0
   -3.6642   27.5269    5.7433 C   0  0  0  0  0  0  0  0  0  0  0  0
   -4.4508   28.3225    6.2656 O   0  0  0  0  0  0  0  0  0  0  0  0
   -3.2399   25.8307    3.8951 C   0  0  0  0  0  0  0  0  0  0  0  0
   -3.9430   25.3710    2.6028 C   0  0  0  0  0  0  0  0  0  0  0  0
   -2.2409   27.5282    6.1607 C   0  0  0  0  0  0  0  0  0  0  0  0
   -1.3779   26.4850    6.0297 N   0  0  0  0  0  0  0  0  0  0  0  0
   -0.2105   26.9090    6.5715 N   0  0  0  0  0  0  0  0  0  0  0  0
   -0.3062   28.1674    7.0335 C   0  0  0  0  0  0  0  0  0  0  0  0
   -1.5765   28.5917    6.8005 C   0  0  0  0  0  0  0  0  0  0  0  0
   -1.7921   29.9635    7.2892 C   0  0  0  0  0  0  0  0  0  0  0  0
   -0.4893   30.2077    8.1381 C   0  0  0  0  0  0  0  0  0  0  0  0
    0.5704   29.1318    7.7050 C   0  0  0  0  0  0  0  0  0  0  0  0
    0.5807   26.2732    6.5830 H   0  0  0  0  0  0  0  0  0  0  0  0
   -6.5633   23.0635    1.5092 C   0  0  0  0  0  0  0  0  0  0  0  0
   -7.2714   22.8761    0.3156 C   0  0  0  0  0  0  0  0  0  0  0  0
   -7.3285   23.8893   -0.6451 C   0  0  0  0  0  0  0  0  0  0  0  0
   -6.6887   25.1027   -0.4193 C   0  0  0  0  0  0  0  0  0  0  0  0
   -5.9918   25.3046    0.7703 C   0  0  0  0  0  0  0  0  0  0  0  0
   -5.9144   24.2997    1.7489 C   0  0  0  0  0  0  0  0  0  0  0  0
   -6.4950   22.1270    2.5093 O   0  0  0  0  0  0  0  0  0  0  0  0
   -7.5721   21.2043    2.6814 C   0  0  0  0  0  0  0  0  0  0  0  0
   -8.0791   21.1375    4.1376 C   0  0  0  0  0  0  0  0  0  0  0  0
   -9.3061   23.0305    5.0811 C   0  0  0  0  0  0  0  0  0  0  0  0
   -7.9953   22.4063    4.8946 N   0  0  0  0  0  0  0  0  0  0  0  0
   -7.3652   22.1742    6.1964 C   0  0  0  0  0  0  0  0  0  0  0  0
 27 28  1  0  0  0
 28 29  1  0  0  0
 28 26  1  0  0  0
 26 25  1  0  0  0
 25 24  1  0  0  0
 24 18  1  0  0  0
 18 19  2  0  0  0
 19 20  1  0  0  0
 20 21  2  0  0  0
 21 22  1  0  0  0
 22 23  2  0  0  0
 23  1  1  0  0  0
  1  2  1  0  0  0
  2  3  1  0  0  0
  3  4  1  0  0  0
  4  5  1  0  0  0
  5  6  2  0  0  0
  5  9  1  0  0  0
  9 10  2  0  0  0
 10 11  1  0  0  0
 11 12  1  0  0  0
 12 13  2  0  0  0
 13 14  1  0  0  0
 14 15  1  0  0  0
 15 16  1  0  0  0
  4  7  1  0  0  0
  7  8  1  0  0  0
 23 18  1  0  0  0
  8  1  1  0  0  0
 13  9  1  0  0  0
 16 12  1  0  0  0
 11 17  1  0  0  0
M  END
> <minimizedAffinity>
-9.80152

$$$$
OCNT-2316755


 24 26  0  0  0  0  0  0  0  0999 V2000
   -6.0801   27.2951    5.8348 N   0  0  0  0  0  0  0  0  0  0  0  0
   -5.1271   28.1204    6.3941 C   0  0  0  0  0  0  0  0  0  0  0  0
   -4.0149   28.3632    5.9469 O   0  0  0  0  0  0  0  0  0  0  0  0
   -5.5979   28.6854    7.5640 N   0  0  0  0  0  0  0  0  0  0  0  0
   -7.0045   27.4098    6.2244 H   0  0  0  0  0  0  0  0  0  0  0  0
   -6.2817   28.1468    8.0729 H   0  0  0  0  0  0  0  0  0  0  0  0
   -5.8931   21.2441    1.9029 C   0  0  0  0  0  0  0  0  0  0  0  0
   -5.8791   22.6495    2.3638 C   0  0  0  0  0  0  0  0  0  0  0  0
   -5.7289   23.8048    1.6249 C   0  0  0  0  0  0  0  0  0  0  0  0
   -5.7895   24.8334    2.5287 N   0  0  0  0  0  0  0  0  0  0  0  0
   -5.6911   26.2032    2.3261 C   0  0  0  0  0  0  0  0  0  0  0  0
   -5.7816   27.0309    3.3824 C   0  0  0  0  0  0  0  0  0  0  0  0
   -5.9878   26.4810    4.7243 C   0  0  0  0  0  0  0  0  0  0  0  0
   -6.0687   25.1399    4.8924 C   0  0  0  0  0  0  0  0  0  0  0  0
   -5.9742   24.2593    3.7777 C   0  0  0  0  0  0  0  0  0  0  0  0
   -6.0300   22.9461    3.6998 N   0  0  0  0  0  0  0  0  0  0  0  0
   -4.7555   29.5622    8.3462 C   0  0  0  0  0  0  0  0  0  0  0  0
   -5.0333   30.9825    7.9754 C   0  0  0  0  0  0  0  0  0  0  0  0
   -6.3906   31.6003    8.2153 C   0  0  0  0  0  0  0  0  0  0  0  0
   -5.2076   32.0324    9.0538 C   0  0  0  0  0  0  0  0  0  0  0  0
   -4.5841   33.3743    8.9192 C   0  0  0  0  0  0  0  0  0  0  0  0
   -3.2878   33.3007    8.5472 F   0  0  0  0  0  0  0  0  0  0  0  0
   -4.6484   34.0322   10.0989 F   0  0  0  0  0  0  0  0  0  0  0  0
   -5.2456   34.1084    7.9976 F   0  0  0  0  0  0  0  0  0  0  0  0
  7  8  1  0  0  0
  8  9  2  0  0  0
  9 10  1  0  0  0
 10 11  1  0  0  0
 11 12  2  0  0  0
 12 13  1  0  0  0
 13  1  1  0  0  0
  1  2  1  0  0  0
  2  3  2  0  0  0
  2  4  1  0  0  0
  4 17  1  0  0  0
 17 18  1  0  0  0
 18 19  1  0  0  0
 19 20  1  0  0  0
 20 21  1  0  0  0
 21 22  1  0  0  0
 21 23  1  0  0  0
 21 24  1  0  0  0
 13 14  2  0  0  0
 14 15  1  0  0  0
 15 16  2  0  0  0
 16  8  1  0  0  0
 15 10  1  0  0  0
 20 18  1  0  0  0
  1  5  1  0  0  0
  4  6  1  0  0  0
M  END
> <minimizedAffinity>
-8.72845

$$$$
OCNT-2316758


 24 26  0  0  0  0  0  0  0  0999 V2000
   -1.2975   25.9355    4.4023 O   0  0  0  0  0  0  0  0  0  0  0  0
   -2.4354   26.1796    4.7954 C   0  0  0  0  0  0  0  0  0  0  0  0
   -2.7467   26.5603    6.0777 N   0  0  0  0  0  0  0  0  0  0  0  0
   -3.7096   26.8438    6.2566 H   0  0  0  0  0  0  0  0  0  0  0  0
   -3.6017   26.0893    3.8624 C   0  0  0  0  0  0  0  0  0  0  0  0
   -3.6198   25.0031    3.0338 N   0  0  0  0  0  0  0  0  0  0  0  0
   -4.6722   24.9157    2.1915 C   0  0  0  0  0  0  0  0  0  0  0  0
   -5.7006   25.8464    2.1374 C   0  0  0  0  0  0  0  0  0  0  0  0
   -5.6577   26.9410    2.9985 C   0  0  0  0  0  0  0  0  0  0  0  0
   -4.5932   27.0706    3.8803 C   0  0  0  0  0  0  0  0  0  0  0  0
   -4.5936   28.1570    4.7099 O   0  0  0  0  0  0  0  0  0  0  0  0
   -3.7938   28.1037    5.2826 H   0  0  0  0  0  0  0  0  0  0  0  0
   -1.7420   26.8851    7.0713 C   0  0  0  0  0  0  0  0  0  0  0  0
   -1.4745   28.4289    7.1613 C   0  0  0  0  0  0  0  0  0  0  0  0
   -0.4053   28.8063    6.0949 C   0  0  0  0  0  0  0  0  0  0  0  0
    0.6842   29.5629    6.8416 C   0  0  0  0  0  0  0  0  0  0  0  0
    0.7216   28.8746    8.1916 C   0  0  0  0  0  0  0  0  0  0  0  0
   -0.7493   28.6649    8.5318 C   0  0  0  0  0  0  0  0  0  0  0  0
   -2.7477   29.2290    7.0805 N   0  0  0  0  0  0  0  0  0  0  0  0
   -3.5969   29.1407    8.2971 C   0  0  0  0  0  0  0  0  0  0  0  0
   -5.0163   29.6926    8.0971 C   0  0  0  0  0  0  0  0  0  0  0  0
   -5.0122   31.4724    7.7420 S   0  0  0  0  0  0  0  0  0  0  0  0
   -3.8072   31.4233    6.3863 C   0  0  0  0  0  0  0  0  0  0  0  0
   -2.5242   30.6646    6.7624 C   0  0  0  0  0  0  0  0  0  0  0  0
  1  2  2  0  0  0
  2  3  1  0  0  0
  3 13  1  0  0  0
 13 14  1  0  0  0
 14 19  1  0  0  0
 19 20  1  0  0  0
 20 21  1  0  0  0
 21 22  1  0  0  0
 22 23  1  0  0  0
 23 24  1  0  0  0
 14 15  1  0  0  0
 15 16  1  0  0  0
 16 17  1  0  0  0
 17 18  1  0  0  0
  2  5  1  0  0  0
  5  6  1  0  0  0
  6  7  2  0  0  0
  7  8  1  0  0  0
  8  9  2  0  0  0
  9 10  1  0  0  0
 10 11  1  0  0  0
 18 14  1  0  0  0
 10  5  2  0  0  0
 24 19  1  0  0  0
  3  4  1  0  0  0
 11 12  1  0  0  0
M  END
> <minimizedAffinity>
-8.14179

$$$$
OCNT-2316768


 24 25  0  0  0  0  0  0  0  0999 V2000
   -4.1761   29.1795    7.0090 N   0  0  0  0  0  0  0  0  0  0  0  0
   -3.6428   28.3389    7.2332 H   0  0  0  0  0  0  0  0  0  0  0  0
   -3.4152   30.3288    7.5479 C   0  0  0  0  0  0  0  0  0  0  0  0
   -1.9428   29.9247    7.6884 C   0  0  0  0  0  0  0  0  0  0  0  0
   -1.1984   30.3602    8.7962 C   0  0  0  0  0  0  0  0  0  0  0  0
    0.1453   30.0067    8.9362 C   0  0  0  0  0  0  0  0  0  0  0  0
    0.7644   29.2173    7.9694 C   0  0  0  0  0  0  0  0  0  0  0  0
    0.0431   28.7845    6.8590 C   0  0  0  0  0  0  0  0  0  0  0  0
   -1.3000   29.1382    6.7167 C   0  0  0  0  0  0  0  0  0  0  0  0
   -4.1549   31.3649    5.4438 O   0  0  0  0  0  0  0  0  0  0  0  0
   -3.5177   31.6221    6.6999 C   0  0  0  0  0  0  0  0  0  0  0  0
   -4.2549   32.2251    5.0029 H   0  0  0  0  0  0  0  0  0  0  0  0
   -5.5490   29.0273    7.5204 C   0  0  0  0  0  0  0  0  0  0  0  0
   -6.6884   29.0204    6.4673 C   0  0  0  0  0  0  0  0  0  0  0  0
   -6.9372   30.3457    5.9979 O   0  0  0  0  0  0  0  0  0  0  0  0
   -7.5253   30.2755    5.2262 H   0  0  0  0  0  0  0  0  0  0  0  0
   -6.3491   28.1463    5.2751 C   0  0  0  0  0  0  0  0  0  0  0  0
   -6.0984   28.7227    4.0224 C   0  0  0  0  0  0  0  0  0  0  0  0
   -5.7949   27.9189    2.9199 C   0  0  0  0  0  0  0  0  0  0  0  0
   -5.7390   26.5287    3.0529 C   0  0  0  0  0  0  0  0  0  0  0  0
   -5.3575   25.6011    1.6466 Cl  0  0  0  0  0  0  0  0  0  0  0  0
   -5.9888   25.9406    4.2962 C   0  0  0  0  0  0  0  0  0  0  0  0
   -5.9387   24.2312    4.5405 Cl  0  0  0  0  0  0  0  0  0  0  0  0
   -6.2927   26.7472    5.3988 C   0  0  0  0  0  0  0  0  0  0  0  0
 10 11  1  0  0  0
 11  3  1  0  0  0
  3  1  1  0  0  0
  1 13  1  0  0  0
 13 14  1  0  0  0
 14 15  1  0  0  0
 14 17  1  0  0  0
 17 18  1  0  0  0
 18 19  2  0  0  0
 19 20  1  0  0  0
 20 21  1  0  0  0
 20 22  2  0  0  0
 22 23  1  0  0  0
 22 24  1  0  0  0
  3  4  1  0  0  0
  4  5  2  0  0  0
  5  6  1  0  0  0
  6  7  2  0  0  0
  7  8  1  0  0  0
  8  9  2  0  0  0
 24 17  2  0  0  0
  9  4  1  0  0  0
 10 12  1  0  0  0
  1  2  1  0  0  0
 15 16  1  0  0  0
M  END
> <minimizedAffinity>
-8.49750

$$$$
OCNT-2316781


 26 29  0  0  0  0  0  0  0  0999 V2000
   -2.0336   26.3460    4.7366 O   0  0  0  0  0  0  0  0  0  0  0  0
   -3.1806   26.4084    5.1594 C   0  0  0  0  0  0  0  0  0  0  0  0
   -3.6241   27.1802    6.2173 N   0  0  0  0  0  0  0  0  0  0  0  0
   -4.5670   27.0239    6.5459 H   0  0  0  0  0  0  0  0  0  0  0  0
   -2.8569   28.1027    6.9622 C   0  0  0  0  0  0  0  0  0  0  0  0
   -1.7984   27.7711    7.8044 C   0  0  0  0  0  0  0  0  0  0  0  0
   -1.0631   28.6767    8.5018 N   0  0  0  0  0  0  0  0  0  0  0  0
   -1.3998   29.9757    8.3649 C   0  0  0  0  0  0  0  0  0  0  0  0
   -0.5878   31.0107    9.0965 C   0  0  0  0  0  0  0  0  0  0  0  0
   -1.4996   32.0606    9.7312 C   0  0  0  0  0  0  0  0  0  0  0  0
   -2.6268   32.5668    8.8158 C   0  0  0  0  0  0  0  0  0  0  0  0
   -2.7050   31.8860    7.4459 C   0  0  0  0  0  0  0  0  0  0  0  0
   -2.4458   30.4115    7.5518 C   0  0  0  0  0  0  0  0  0  0  0  0
   -3.1726   29.4583    6.8361 C   0  0  0  0  0  0  0  0  0  0  0  0
   -4.2213   25.5500    4.5259 C   0  0  0  0  0  0  0  0  0  0  0  0
   -5.4207   25.3428    5.2152 C   0  0  0  0  0  0  0  0  0  0  0  0
   -6.4177   24.5436    4.6582 C   0  0  0  0  0  0  0  0  0  0  0  0
   -6.2175   23.9407    3.4155 C   0  0  0  0  0  0  0  0  0  0  0  0
   -5.0141   24.1232    2.7162 C   0  0  0  0  0  0  0  0  0  0  0  0
   -4.0127   24.9284    3.2852 C   0  0  0  0  0  0  0  0  0  0  0  0
   -4.7930   23.4395    1.3895 C   0  0  0  0  0  0  0  0  0  0  0  0
   -5.9879   23.4650    0.5665 N   0  0  0  0  0  0  0  0  0  0  0  0
   -6.7682   22.3922    0.2334 C   0  0  0  0  0  0  0  0  0  0  0  0
   -7.8056   22.9236   -0.4975 C   0  0  0  0  0  0  0  0  0  0  0  0
   -7.6803   24.2847   -0.6021 N   0  0  0  0  0  0  0  0  0  0  0  0
   -6.5764   24.5822    0.0449 C   0  0  0  0  0  0  0  0  0  0  0  0
  1  2  2  0  0  0
  2  3  1  0  0  0
  3  5  1  0  0  0
  5  6  1  0  0  0
  6  7  2  0  0  0
  7  8  1  0  0  0
  8  9  1  0  0  0
  9 10  1  0  0  0
 10 11  1  0  0  0
 11 12  1  0  0  0
 12 13  1  0  0  0
 13 14  1  0  0  0
  2 15  1  0  0  0
 15 16  1  0  0  0
 16 17  2  0  0  0
 17 18  1  0  0  0
 18 19  2  0  0  0
 19 21  1  0  0  0
 21 22  1  0  0  0
 22 23  1  0  0  0
 23 24  2  0  0  0
 24 25  1  0  0  0
 25 26  2  0  0  0
 19 20  1  0  0  0
 14  5  2  0  0  0
 20 15  2  0  0  0
 13  8  2  0  0  0
 26 22  1  0  0  0
  3  4  1  0  0  0
M  END
> <minimizedAffinity>
-9.52559

$$$$
OCNT-2316796


 22 24  0  0  0  0  0  0  0  0999 V2000
   -3.7394   27.4633    4.8715 N   0  0  0  0  0  0  0  0  0  0  0  0
   -2.8597   27.1255    5.8762 C   0  0  0  0  0  0  0  0  0  0  0  0
   -2.1760   26.1074    5.8631 O   0  0  0  0  0  0  0  0  0  0  0  0
   -4.2222   28.3518    4.9733 H   0  0  0  0  0  0  0  0  0  0  0  0
   -2.8299   28.1143    6.9467 C   0  0  0  0  0  0  0  0  0  0  0  0
   -1.7228   28.6449    7.5794 C   0  0  0  0  0  0  0  0  0  0  0  0
   -2.1636   29.5317    8.5226 O   0  0  0  0  0  0  0  0  0  0  0  0
   -3.5167   29.4961    8.4066 C   0  0  0  0  0  0  0  0  0  0  0  0
   -3.9821   28.6786    7.4896 N   0  0  0  0  0  0  0  0  0  0  0  0
   -0.2336   28.3211    7.3036 C   0  0  0  0  0  0  0  0  0  0  0  0
    0.5680   29.2808    6.4640 C   0  0  0  0  0  0  0  0  0  0  0  0
    0.8357   29.1720    7.9366 C   0  0  0  0  0  0  0  0  0  0  0  0
   -3.9088   26.6647    3.6780 C   0  0  0  0  0  0  0  0  0  0  0  0
   -5.3346   26.7478    3.1270 C   0  0  0  0  0  0  0  0  0  0  0  0
   -6.5147   24.6187    4.9444 C   0  0  0  0  0  0  0  0  0  0  0  0
   -6.3647   24.4057    3.4590 C   0  0  0  0  0  0  0  0  0  0  0  0
   -6.8119   23.2047    2.8660 C   0  0  0  0  0  0  0  0  0  0  0  0
   -7.6248   21.8110    3.8784 Br  0  0  0  0  0  0  0  0  0  0  0  0
   -6.6876   22.9847    1.4906 C   0  0  0  0  0  0  0  0  0  0  0  0
   -6.1253   23.9604    0.6770 C   0  0  0  0  0  0  0  0  0  0  0  0
   -5.6987   25.1612    1.2358 C   0  0  0  0  0  0  0  0  0  0  0  0
   -5.8221   25.4071    2.6172 C   0  0  0  0  0  0  0  0  0  0  0  0
 15 16  1  0  0  0
 16 17  2  0  0  0
 17 18  1  0  0  0
 17 19  1  0  0  0
 19 20  2  0  0  0
 20 21  1  0  0  0
 21 22  2  0  0  0
 22 14  1  0  0  0
 14 13  1  0  0  0
 13  1  1  0  0  0
  1  2  1  0  0  0
  2  3  2  0  0  0
  2  5  1  0  0  0
  5  6  2  0  0  0
  6 10  1  0  0  0
 10 11  1  0  0  0
 11 12  1  0  0  0
  6  7  1  0  0  0
  7  8  1  0  0  0
  8  9  2  0  0  0
 22 16  1  0  0  0
  9  5  1  0  0  0
 12 10  1  0  0  0
  1  4  1  0  0  0
M  END
> <minimizedAffinity>
-8.42803

$$$$
OCNT-2316818


 25 27  0  0  0  0  0  0  0  0999 V2000
   -3.9382   28.5916    5.6842 N   0  0  0  0  0  0  0  0  0  0  0  0
   -4.6447   27.5279    5.1541 C   0  0  0  0  0  0  0  0  0  0  0  0
   -5.6519   27.0728    5.6782 O   0  0  0  0  0  0  0  0  0  0  0  0
   -4.0658   27.1066    3.9757 N   0  0  0  0  0  0  0  0  0  0  0  0
   -2.9488   28.5758    5.4912 H   0  0  0  0  0  0  0  0  0  0  0  0
   -3.3888   27.7403    3.5798 H   0  0  0  0  0  0  0  0  0  0  0  0
   -4.4376   26.0031    3.1797 C   0  0  0  0  0  0  0  0  0  0  0  0
   -3.7360   24.8058    3.3853 C   0  0  0  0  0  0  0  0  0  0  0  0
   -4.0249   23.6421    2.6591 C   0  0  0  0  0  0  0  0  0  0  0  0
   -5.0518   23.7256    1.7180 C   0  0  0  0  0  0  0  0  0  0  0  0
   -5.5811   22.8004    0.8568 N   0  0  0  0  0  0  0  0  0  0  0  0
   -6.5849   23.2691    0.0941 N   0  0  0  0  0  0  0  0  0  0  0  0
   -6.6976   24.5428    0.4816 C   0  0  0  0  0  0  0  0  0  0  0  0
   -5.7721   24.8910    1.4903 C   0  0  0  0  0  0  0  0  0  0  0  0
   -5.4672   26.0493    2.2306 C   0  0  0  0  0  0  0  0  0  0  0  0
   -5.3033   21.8329    0.7414 H   0  0  0  0  0  0  0  0  0  0  0  0
   -5.4021   30.2032    6.7914 C   0  0  0  0  0  0  0  0  0  0  0  0
   -4.3057   29.1520    6.9779 C   0  0  0  0  0  0  0  0  0  0  0  0
   -3.0634   29.6795    7.6798 C   0  0  0  0  0  0  0  0  0  0  0  0
   -3.2133   30.5561    8.7690 C   0  0  0  0  0  0  0  0  0  0  0  0
   -2.1019   31.0436    9.4602 C   0  0  0  0  0  0  0  0  0  0  0  0
   -0.8197   30.6548    9.0795 C   0  0  0  0  0  0  0  0  0  0  0  0
   -0.6574   29.7747    8.0134 C   0  0  0  0  0  0  0  0  0  0  0  0
    0.9246   29.2786    7.5497 Cl  0  0  0  0  0  0  0  0  0  0  0  0
   -1.7653   29.2836    7.3189 C   0  0  0  0  0  0  0  0  0  0  0  0
 17 18  1  0  0  0
 18  1  1  0  0  0
  1  2  1  0  0  0
  2  3  2  0  0  0
  2  4  1  0  0  0
  4  7  1  0  0  0
  7  8  2  0  0  0
  8  9  1  0  0  0
  9 10  2  0  0  0
 10 11  1  0  0  0
 11 12  1  0  0  0
 12 13  2  0  0  0
 13 14  1  0  0  0
 14 15  2  0  0  0
 18 19  1  0  0  0
 19 20  2  0  0  0
 20 21  1  0  0  0
 21 22  2  0  0  0
 22 23  1  0  0  0
 23 24  1  0  0  0
 23 25  2  0  0  0
 15  7  1  0  0  0
 25 19  1  0  0  0
 14 10  1  0  0  0
  1  5  1  0  0  0
  4  6  1  0  0  0
 11 16  1  0  0  0
M  END
> <minimizedAffinity>
-9.01085

$$$$
OCNT-2316819


 25 28  0  0  0  0  0  0  0  0999 V2000
   -7.1158   28.8142    6.0422 C   0  0  0  0  0  0  0  0  0  0  0  0
   -5.6654   28.8508    6.3565 C   0  0  0  0  0  0  0  0  0  0  0  0
   -5.1963   29.7403    7.2297 N   0  0  0  0  0  0  0  0  0  0  0  0
   -3.8453   29.5819    7.2273 N   0  0  0  0  0  0  0  0  0  0  0  0
   -3.4847   28.4602    6.4812 C   0  0  0  0  0  0  0  0  0  0  0  0
   -2.1267   27.8551    6.4401 C   0  0  0  0  0  0  0  0  0  0  0  0
   -4.6413   28.0185    5.8461 C   0  0  0  0  0  0  0  0  0  0  0  0
   -3.0473   30.5281    7.9468 C   0  0  0  0  0  0  0  0  0  0  0  0
   -2.1672   31.4130    7.3133 C   0  0  0  0  0  0  0  0  0  0  0  0
   -1.4132   32.3225    8.0647 C   0  0  0  0  0  0  0  0  0  0  0  0
   -1.5373   32.3657    9.4511 C   0  0  0  0  0  0  0  0  0  0  0  0
   -2.4251   31.5076   10.0920 C   0  0  0  0  0  0  0  0  0  0  0  0
   -3.1804   30.5995    9.3457 C   0  0  0  0  0  0  0  0  0  0  0  0
   -4.8028   26.8861    4.8867 C   0  0  0  0  0  0  0  0  0  0  0  0
   -4.3453   27.2727    3.5498 N   0  0  0  0  0  0  0  0  0  0  0  0
   -5.1528   27.5683    3.0057 H   0  0  0  0  0  0  0  0  0  0  0  0
   -3.6621   26.1937    2.8260 C   0  0  0  0  0  0  0  0  0  0  0  0
   -4.5870   25.1276    2.3685 C   0  0  0  0  0  0  0  0  0  0  0  0
   -5.6516   25.0894    1.4995 C   0  0  0  0  0  0  0  0  0  0  0  0
   -6.0775   23.7485    1.5440 C   0  0  0  0  0  0  0  0  0  0  0  0
   -5.3343   23.0140    2.3755 N   0  0  0  0  0  0  0  0  0  0  0  0
   -4.3886   23.8855    2.8889 O   0  0  0  0  0  0  0  0  0  0  0  0
   -7.2628   23.1335    0.7484 C   0  0  0  0  0  0  0  0  0  0  0  0
   -7.9541   23.9302   -0.3274 C   0  0  0  0  0  0  0  0  0  0  0  0
   -7.0954   22.7547   -0.7002 C   0  0  0  0  0  0  0  0  0  0  0  0
  1  2  1  0  0  0
  2  3  2  0  0  0
  3  4  1  0  0  0
  4  8  1  0  0  0
  8  9  2  0  0  0
  9 10  1  0  0  0
 10 11  2  0  0  0
 11 12  1  0  0  0
 12 13  2  0  0  0
  4  5  1  0  0  0
  5  6  1  0  0  0
  5  7  2  0  0  0
  7 14  1  0  0  0
 14 15  1  0  0  0
 15 17  1  0  0  0
 17 18  1  0  0  0
 18 19  2  0  0  0
 19 20  1  0  0  0
 20 23  1  0  0  0
 23 24  1  0  0  0
 24 25  1  0  0  0
 20 21  2  0  0  0
 21 22  1  0  0  0
  7  2  1  0  0  0
 22 18  1  0  0  0
 13  8  1  0  0  0
 25 23  1  0  0  0
 15 16  1  0  0  0
M  END
> <minimizedAffinity>
-8.89370

$$$$
OCNT-2316822


 25 28  0  0  0  0  0  0  0  0999 V2000
   -4.8129   25.7466    4.6763 C   0  0  0  0  0  0  0  0  0  0  0  0
   -5.3538   27.1376    4.3758 C   0  0  0  0  0  0  0  0  0  0  0  0
   -5.6152   27.7316    3.1538 C   0  0  0  0  0  0  0  0  0  0  0  0
   -6.1272   29.0541    3.2842 C   0  0  0  0  0  0  0  0  0  0  0  0
   -6.2470   29.4313    4.6018 C   0  0  0  0  0  0  0  0  0  0  0  0
   -5.7484   28.1959    5.6716 S   0  0  0  0  0  0  0  0  0  0  0  0
   -3.8695   25.6854    5.8019 N   0  0  0  0  0  0  0  0  0  0  0  0
   -3.8194   24.7506    6.2065 H   0  0  0  0  0  0  0  0  0  0  0  0
    0.7695   29.1513    7.4428 C   0  0  0  0  0  0  0  0  0  0  0  0
   -0.4606   28.4245    7.2771 N   0  0  0  0  0  0  0  0  0  0  0  0
   -1.5617   28.4915    8.0854 C   0  0  0  0  0  0  0  0  0  0  0  0
   -2.5280   27.7020    7.6639 N   0  0  0  0  0  0  0  0  0  0  0  0
   -2.0203   27.1015    6.5263 C   0  0  0  0  0  0  0  0  0  0  0  0
   -2.5678   26.1571    5.6340 C   0  0  0  0  0  0  0  0  0  0  0  0
   -1.7913   25.7588    4.5924 N   0  0  0  0  0  0  0  0  0  0  0  0
   -0.5494   26.2772    4.4671 C   0  0  0  0  0  0  0  0  0  0  0  0
    0.0708   27.1718    5.2609 N   0  0  0  0  0  0  0  0  0  0  0  0
   -0.7311   27.5389    6.2726 C   0  0  0  0  0  0  0  0  0  0  0  0
   -5.9415   24.6867    4.7504 C   0  0  0  0  0  0  0  0  0  0  0  0
   -5.9206   23.6927    3.6075 C   0  0  0  0  0  0  0  0  0  0  0  0
   -6.2786   24.0936    2.3138 C   0  0  0  0  0  0  0  0  0  0  0  0
   -6.2700   23.1779    1.2610 C   0  0  0  0  0  0  0  0  0  0  0  0
   -5.9046   21.8531    1.4912 C   0  0  0  0  0  0  0  0  0  0  0  0
   -5.5501   21.4423    2.7751 C   0  0  0  0  0  0  0  0  0  0  0  0
   -5.5594   22.3566    3.8300 C   0  0  0  0  0  0  0  0  0  0  0  0
  9 10  1  0  0  0
 10 11  1  0  0  0
 11 12  2  0  0  0
 12 13  1  0  0  0
 13 14  2  0  0  0
 14  7  1  0  0  0
  7  1  1  0  0  0
  1 19  1  0  0  0
 19 20  1  0  0  0
 20 21  2  0  0  0
 21 22  1  0  0  0
 22 23  2  0  0  0
 23 24  1  0  0  0
 24 25  2  0  0  0
  1  2  1  0  0  0
  2  3  2  0  0  0
  3  4  1  0  0  0
  4  5  2  0  0  0
  5  6  1  0  0  0
 14 15  1  0  0  0
 15 16  2  0  0  0
 16 17  1  0  0  0
 17 18  2  0  0  0
 18 10  1  0  0  0
 18 13  1  0  0  0
 25 20  1  0  0  0
  6  2  1  0  0  0
  7  8  1  0  0  0
M  END
> <minimizedAffinity>
-8.77228

$$$$
OCNT-2316823


 26 29  0  0  0  0  0  0  0  0999 V2000
   -4.6806   29.4950    8.8726 C   0  0  0  0  0  0  0  0  0  0  0  0
   -0.9278   29.9804    8.3734 C   0  0  0  0  0  0  0  0  0  0  0  0
   -0.6862   31.1476    9.1017 C   0  0  0  0  0  0  0  0  0  0  0  0
   -1.7470   31.7852    9.7418 C   0  0  0  0  0  0  0  0  0  0  0  0
   -3.0367   31.2550    9.6582 C   0  0  0  0  0  0  0  0  0  0  0  0
   -3.2862   30.0752    8.9359 C   0  0  0  0  0  0  0  0  0  0  0  0
   -2.2143   29.4350    8.2947 C   0  0  0  0  0  0  0  0  0  0  0  0
   -0.2089   27.6053    7.3710 N   0  0  0  0  0  0  0  0  0  0  0  0
    0.4173   29.1581    7.5614 S   0  0  0  0  0  0  0  0  0  0  0  0
    1.5308   29.0778    8.4756 O   0  0  0  0  0  0  0  0  0  0  0  0
    0.5440   29.6913    6.2244 O   0  0  0  0  0  0  0  0  0  0  0  0
   -0.2956   27.4082    6.3725 H   0  0  0  0  0  0  0  0  0  0  0  0
   -1.0900   27.4661    7.8633 H   0  0  0  0  0  0  0  0  0  0  0  0
   -5.0178   29.3892    7.4314 C   0  0  0  0  0  0  0  0  0  0  0  0
   -5.3021   30.4570    6.6739 N   0  0  0  0  0  0  0  0  0  0  0  0
   -5.5497   29.8992    5.4200 O   0  0  0  0  0  0  0  0  0  0  0  0
   -5.4097   28.5398    5.5485 C   0  0  0  0  0  0  0  0  0  0  0  0
   -5.1016   28.1839    6.7798 N   0  0  0  0  0  0  0  0  0  0  0  0
   -5.6028   27.5517    4.3502 C   0  0  0  0  0  0  0  0  0  0  0  0
   -5.7235   27.9555    3.0789 N   0  0  0  0  0  0  0  0  0  0  0  0
   -5.8809   26.7962    2.3357 O   0  0  0  0  0  0  0  0  0  0  0  0
   -5.8462   25.7195    3.1647 C   0  0  0  0  0  0  0  0  0  0  0  0
   -5.6750   26.1453    4.4576 C   0  0  0  0  0  0  0  0  0  0  0  0
   -5.9963   24.2493    2.7052 C   0  0  0  0  0  0  0  0  0  0  0  0
   -5.0098   23.6846    1.7169 C   0  0  0  0  0  0  0  0  0  0  0  0
   -6.4187   23.9719    1.2864 C   0  0  0  0  0  0  0  0  0  0  0  0
  8  9  1  0  0  0
  9 10  2  0  0  0
  9 11  2  0  0  0
  9  2  1  0  0  0
  2  3  2  0  0  0
  3  4  1  0  0  0
  4  5  2  0  0  0
  5  6  1  0  0  0
  6  1  1  0  0  0
  1 14  1  0  0  0
 14 15  2  0  0  0
 15 16  1  0  0  0
 16 17  1  0  0  0
 17 19  1  0  0  0
 19 20  2  0  0  0
 20 21  1  0  0  0
 21 22  1  0  0  0
 22 24  1  0  0  0
 24 25  1  0  0  0
 25 26  1  0  0  0
 22 23  2  0  0  0
 17 18  2  0  0  0
  6  7  2  0  0  0
  7  2  1  0  0  0
 18 14  1  0  0  0
 23 19  1  0  0  0
 26 24  1  0  0  0
  8 12  1  0  0  0
  8 13  1  0  0  0
M  END
> <minimizedAffinity>
-9.07150

$$$$
OCNT-2316834


 25 26  0  0  0  0  0  0  0  0999 V2000
   -3.6734   30.4223    7.0714 C   0  0  0  0  0  0  0  0  0  0  0  0
   -2.2309   30.1457    7.4930 C   0  0  0  0  0  0  0  0  0  0  0  0
   -1.4186   29.3240    6.6839 C   0  0  0  0  0  0  0  0  0  0  0  0
   -0.1040   29.0278    7.0432 C   0  0  0  0  0  0  0  0  0  0  0  0
    0.4242   29.5352    8.2231 C   0  0  0  0  0  0  0  0  0  0  0  0
   -0.3652   30.3325    9.0500 C   0  0  0  0  0  0  0  0  0  0  0  0
   -1.6972   30.6418    8.7088 C   0  0  0  0  0  0  0  0  0  0  0  0
   -2.5135   31.4938    9.6598 C   0  0  0  0  0  0  0  0  0  0  0  0
   -3.7500   30.9743    9.8949 F   0  0  0  0  0  0  0  0  0  0  0  0
   -1.9403   31.6439   10.8878 F   0  0  0  0  0  0  0  0  0  0  0  0
   -2.7116   32.7552    9.1898 F   0  0  0  0  0  0  0  0  0  0  0  0
   -5.3697   29.1520    5.7490 C   0  0  0  0  0  0  0  0  0  0  0  0
   -6.2948   29.8751    6.1108 O   0  0  0  0  0  0  0  0  0  0  0  0
   -4.0645   29.4062    6.1022 N   0  0  0  0  0  0  0  0  0  0  0  0
   -3.3907   28.6970    5.8313 H   0  0  0  0  0  0  0  0  0  0  0  0
   -5.7359   25.7820    1.9500 C   0  0  0  0  0  0  0  0  0  0  0  0
   -5.7135   26.4403    3.2785 C   0  0  0  0  0  0  0  0  0  0  0  0
   -5.9379   25.8540    4.5110 C   0  0  0  0  0  0  0  0  0  0  0  0
   -6.2615   24.4762    4.9376 C   0  0  0  0  0  0  0  0  0  0  0  0
   -5.8378   26.7786    5.5057 O   0  0  0  0  0  0  0  0  0  0  0  0
   -5.5379   27.9795    4.9187 C   0  0  0  0  0  0  0  0  0  0  0  0
   -5.4523   27.8120    3.5513 C   0  0  0  0  0  0  0  0  0  0  0  0
   -3.8670   31.8694    6.5383 C   0  0  0  0  0  0  0  0  0  0  0  0
   -5.0278   32.4982    7.0826 O   0  0  0  0  0  0  0  0  0  0  0  0
   -5.7708   31.8600    6.9995 H   0  0  0  0  0  0  0  0  0  0  0  0
 16 17  1  0  0  0
 17 18  2  0  0  0
 18 19  1  0  0  0
 18 20  1  0  0  0
 20 21  1  0  0  0
 21 12  1  0  0  0
 12 13  2  0  0  0
 12 14  1  0  0  0
 14  1  1  0  0  0
  1 23  1  0  0  0
 23 24  1  0  0  0
  1  2  1  0  0  0
  2  3  2  0  0  0
  3  4  1  0  0  0
  4  5  2  0  0  0
  5  6  1  0  0  0
  6  7  2  0  0  0
  7  8  1  0  0  0
  8  9  1  0  0  0
  8 10  1  0  0  0
  8 11  1  0  0  0
 21 22  2  0  0  0
 22 17  1  0  0  0
  7  2  1  0  0  0
 14 15  1  0  0  0
 24 25  1  0  0  0
M  END
> <minimizedAffinity>
-8.97876

$$$$
OCNT-2316839


 27 28  0  0  0  0  0  0  0  0999 V2000
   -4.7236   29.2940    6.4276 C   0  0  0  0  0  0  0  0  0  0  0  0
   -5.1059   30.4725    5.7014 O   0  0  0  0  0  0  0  0  0  0  0  0
   -4.3273   31.0519    5.6330 H   0  0  0  0  0  0  0  0  0  0  0  0
   -5.9099   28.3065    6.3972 C   0  0  0  0  0  0  0  0  0  0  0  0
   -5.5656   27.0793    5.6613 N   0  0  0  0  0  0  0  0  0  0  0  0
   -6.3006   26.9313    4.9553 H   0  0  0  0  0  0  0  0  0  0  0  0
   -4.2730   27.1860    4.9431 C   0  0  0  0  0  0  0  0  0  0  0  0
   -3.3468   26.0531    5.4054 C   0  0  0  0  0  0  0  0  0  0  0  0
   -4.5026   27.1146    3.3993 C   0  0  0  0  0  0  0  0  0  0  0  0
   -5.8178   27.7673    2.9307 C   0  0  0  0  0  0  0  0  0  0  0  0
   -5.8007   29.1819    3.0788 O   0  0  0  0  0  0  0  0  0  0  0  0
   -6.6792   29.5063    2.8182 H   0  0  0  0  0  0  0  0  0  0  0  0
   -5.7408   25.3343    1.5570 C   0  0  0  0  0  0  0  0  0  0  0  0
   -4.3359   25.3941    2.7001 S   0  0  0  0  0  0  0  0  0  0  0  0
   -4.3291   29.6540    7.8736 C   0  0  0  0  0  0  0  0  0  0  0  0
   -3.7948   31.0092    7.9800 N   0  0  0  0  0  0  0  0  0  0  0  0
   -4.5970   32.0612    8.2781 C   0  0  0  0  0  0  0  0  0  0  0  0
   -5.8100   32.0390    8.4217 O   0  0  0  0  0  0  0  0  0  0  0  0
   -3.8217   33.1794    8.4542 O   0  0  0  0  0  0  0  0  0  0  0  0
   -2.4723   32.7464    8.3333 N   0  0  0  0  0  0  0  0  0  0  0  0
   -2.5385   31.4853    8.0532 C   0  0  0  0  0  0  0  0  0  0  0  0
   -1.3333   30.6610    7.8807 C   0  0  0  0  0  0  0  0  0  0  0  0
   -0.5756   30.3651    9.0225 C   0  0  0  0  0  0  0  0  0  0  0  0
    0.5828   29.5973    8.9144 C   0  0  0  0  0  0  0  0  0  0  0  0
    0.9899   29.1290    7.6656 C   0  0  0  0  0  0  0  0  0  0  0  0
    0.2503   29.4426    6.5230 C   0  0  0  0  0  0  0  0  0  0  0  0
   -0.9059   30.2190    6.6257 C   0  0  0  0  0  0  0  0  0  0  0  0
 13 14  1  0  0  0
 14  9  1  0  0  0
  9 10  1  0  0  0
 10 11  1  0  0  0
  9  7  1  0  0  0
  7  8  1  0  0  0
  7  5  1  0  0  0
  5  4  1  0  0  0
  4  1  1  0  0  0
  1  2  1  0  0  0
  1 15  1  0  0  0
 15 16  1  0  0  0
 16 17  1  0  0  0
 17 18  2  0  0  0
 17 19  1  0  0  0
 19 20  1  0  0  0
 20 21  2  0  0  0
 21 22  1  0  0  0
 22 23  2  0  0  0
 23 24  1  0  0  0
 24 25  2  0  0  0
 25 26  1  0  0  0
 26 27  2  0  0  0
 21 16  1  0  0  0
 27 22  1  0  0  0
 11 12  1  0  0  0
  5  6  1  0  0  0
  2  3  1  0  0  0
M  END
> <minimizedAffinity>
-7.70228

$$$$
OCNT-2316841


 24 26  0  0  0  0  0  0  0  0999 V2000
   -4.2500   28.3735    7.6449 N   0  0  0  0  0  0  0  0  0  0  0  0
   -4.6351   28.5358    6.3392 C   0  0  0  0  0  0  0  0  0  0  0  0
   -4.8741   29.6184    5.8243 O   0  0  0  0  0  0  0  0  0  0  0  0
   -4.7179   27.3286    5.6976 N   0  0  0  0  0  0  0  0  0  0  0  0
   -3.6314   27.5900    7.7948 H   0  0  0  0  0  0  0  0  0  0  0  0
   -4.9002   26.5345    6.2914 H   0  0  0  0  0  0  0  0  0  0  0  0
   -3.9798   29.5425    8.4428 C   0  0  0  0  0  0  0  0  0  0  0  0
    1.1026   29.1442    8.1685 C   0  0  0  0  0  0  0  0  0  0  0  0
   -0.2954   29.5502    8.4448 C   0  0  0  0  0  0  0  0  0  0  0  0
   -0.5480   30.6416    9.1749 N   0  0  0  0  0  0  0  0  0  0  0  0
   -1.8918   30.7117    9.2154 N   0  0  0  0  0  0  0  0  0  0  0  0
   -2.5216   31.7920    9.9392 C   0  0  0  0  0  0  0  0  0  0  0  0
   -2.5097   29.6893    8.5415 C   0  0  0  0  0  0  0  0  0  0  0  0
   -1.4871   28.9189    8.0268 C   0  0  0  0  0  0  0  0  0  0  0  0
   -5.1733   27.2425    4.3290 C   0  0  0  0  0  0  0  0  0  0  0  0
   -5.0351   25.8360    3.8405 C   0  0  0  0  0  0  0  0  0  0  0  0
   -5.9819   24.7579    4.3176 C   0  0  0  0  0  0  0  0  0  0  0  0
   -6.0637   25.2527    2.8933 C   0  0  0  0  0  0  0  0  0  0  0  0
   -5.6975   24.3864    1.7064 C   0  0  0  0  0  0  0  0  0  0  0  0
   -6.1780   22.9254    1.7879 C   0  0  0  0  0  0  0  0  0  0  0  0
   -6.1776   22.2620    0.4156 C   0  0  0  0  0  0  0  0  0  0  0  0
   -7.1438   22.9547   -0.5461 C   0  0  0  0  0  0  0  0  0  0  0  0
   -7.3572   24.4360   -0.2322 C   0  0  0  0  0  0  0  0  0  0  0  0
   -6.1163   25.0707    0.3858 C   0  0  0  0  0  0  0  0  0  0  0  0
  8  9  1  0  0  0
  9 10  2  0  0  0
 10 11  1  0  0  0
 11 12  1  0  0  0
 11 13  1  0  0  0
 13  7  1  0  0  0
  7  1  1  0  0  0
  1  2  1  0  0  0
  2  3  2  0  0  0
  2  4  1  0  0  0
  4 15  1  0  0  0
 15 16  1  0  0  0
 16 17  1  0  0  0
 17 18  1  0  0  0
 18 19  1  0  0  0
 19 20  1  0  0  0
 20 21  1  0  0  0
 21 22  1  0  0  0
 22 23  1  0  0  0
 23 24  1  0  0  0
 13 14  2  0  0  0
 14  9  1  0  0  0
 18 16  1  0  0  0
 24 19  1  0  0  0
  1  5  1  0  0  0
  4  6  1  0  0  0
M  END
> <minimizedAffinity>
-9.21015

$$$$
OCNT-2316845


 24 27  0  0  0  0  0  0  0  0999 V2000
   -5.5374   26.8379    4.6295 N   0  0  0  0  0  0  0  0  0  0  0  0
   -5.8220   25.4153    4.8309 C   0  0  0  0  0  0  0  0  0  0  0  0
   -4.9247   24.5110    3.9510 C   0  0  0  0  0  0  0  0  0  0  0  0
   -4.7013   24.9945    2.5651 N   0  0  0  0  0  0  0  0  0  0  0  0
   -5.6250   26.0939    2.2317 C   0  0  0  0  0  0  0  0  0  0  0  0
   -5.4742   27.2775    3.2216 C   0  0  0  0  0  0  0  0  0  0  0  0
   -1.3499   27.7086    6.5205 N   0  0  0  0  0  0  0  0  0  0  0  0
   -1.1880   26.7310    5.6069 N   0  0  0  0  0  0  0  0  0  0  0  0
   -2.3800   26.4943    5.0694 N   0  0  0  0  0  0  0  0  0  0  0  0
   -3.3013   27.3317    5.6585 C   0  0  0  0  0  0  0  0  0  0  0  0
   -4.6909   27.5358    5.4897 C   0  0  0  0  0  0  0  0  0  0  0  0
   -5.2523   28.5077    6.2810 N   0  0  0  0  0  0  0  0  0  0  0  0
   -4.4898   29.2000    7.1518 C   0  0  0  0  0  0  0  0  0  0  0  0
   -3.1718   29.0775    7.3768 N   0  0  0  0  0  0  0  0  0  0  0  0
   -2.6484   28.1223    6.5909 C   0  0  0  0  0  0  0  0  0  0  0  0
    0.4865   29.3420    6.5890 C   0  0  0  0  0  0  0  0  0  0  0  0
   -0.2257   28.1956    7.2841 C   0  0  0  0  0  0  0  0  0  0  0  0
   -4.7417   23.9118    1.5645 C   0  0  0  0  0  0  0  0  0  0  0  0
   -6.1622   23.3417    1.3052 C   0  0  0  0  0  0  0  0  0  0  0  0
   -6.5857   23.6339   -0.0261 O   0  0  0  0  0  0  0  0  0  0  0  0
   -7.5013   23.3151   -0.0967 H   0  0  0  0  0  0  0  0  0  0  0  0
   -6.1764   21.8442    1.4529 C   0  0  0  0  0  0  0  0  0  0  0  0
   -7.0137   21.1925    2.5260 C   0  0  0  0  0  0  0  0  0  0  0  0
   -5.5138   21.1793    2.6329 C   0  0  0  0  0  0  0  0  0  0  0  0
 16 17  1  0  0  0
 17  7  1  0  0  0
  7  8  1  0  0  0
  8  9  2  0  0  0
  9 10  1  0  0  0
 10 11  2  0  0  0
 11  1  1  0  0  0
  1  2  1  0  0  0
  2  3  1  0  0  0
  3  4  1  0  0  0
  4 18  1  0  0  0
 18 19  1  0  0  0
 19 20  1  0  0  0
 19 22  1  0  0  0
 22 23  1  0  0  0
 23 24  1  0  0  0
  4  5  1  0  0  0
  5  6  1  0  0  0
 11 12  1  0  0  0
 12 13  2  0  0  0
 13 14  1  0  0  0
 14 15  2  0  0  0
 15  7  1  0  0  0
 15 10  1  0  0  0
  6  1  1  0  0  0
 24 22  1  0  0  0
 20 21  1  0  0  0
M  END
> <minimizedAffinity>
-7.92578

$$$$
OCNT-2316852


 24 26  0  0  0  0  0  0  0  0999 V2000
   -4.6287   25.7202    3.5376 S   0  0  0  0  0  0  0  0  0  0  0  0
   -4.2150   25.3545    4.8724 O   0  0  0  0  0  0  0  0  0  0  0  0
   -3.6770   26.0296    2.4941 O   0  0  0  0  0  0  0  0  0  0  0  0
   -5.7053   22.8674    5.0555 C   0  0  0  0  0  0  0  0  0  0  0  0
   -5.9609   23.2539    3.6366 C   0  0  0  0  0  0  0  0  0  0  0  0
   -5.5590   24.3843    2.9331 C   0  0  0  0  0  0  0  0  0  0  0  0
   -6.1293   24.3229    1.6257 C   0  0  0  0  0  0  0  0  0  0  0  0
   -6.1238   25.1726    0.4955 C   0  0  0  0  0  0  0  0  0  0  0  0
   -6.8278   24.8123   -0.6575 C   0  0  0  0  0  0  0  0  0  0  0  0
   -7.5383   23.6204   -0.7035 C   0  0  0  0  0  0  0  0  0  0  0  0
   -7.5584   22.7571    0.3944 C   0  0  0  0  0  0  0  0  0  0  0  0
   -6.8450   23.1231    1.5500 C   0  0  0  0  0  0  0  0  0  0  0  0
   -6.6792   22.4696    2.7570 N   0  0  0  0  0  0  0  0  0  0  0  0
   -7.2020   21.1513    3.0580 C   0  0  0  0  0  0  0  0  0  0  0  0
   -5.6735   27.0426    3.6416 N   0  0  0  0  0  0  0  0  0  0  0  0
   -6.5914   26.7802    3.2833 H   0  0  0  0  0  0  0  0  0  0  0  0
   -5.6533   28.0403    4.7429 C   0  0  0  0  0  0  0  0  0  0  0  0
   -6.7477   27.9113    5.8279 C   0  0  0  0  0  0  0  0  0  0  0  0
   -6.8426   29.4573    5.8474 C   0  0  0  0  0  0  0  0  0  0  0  0
   -6.2394   29.4335    4.4211 C   0  0  0  0  0  0  0  0  0  0  0  0
   -6.0328   30.1991    6.9453 C   0  0  0  0  0  0  0  0  0  0  0  0
   -4.9120   29.9391    7.3638 O   0  0  0  0  0  0  0  0  0  0  0  0
   -6.6950   31.2525    7.4782 O   0  0  0  0  0  0  0  0  0  0  0  0
   -6.0689   31.6135    8.1411 H   0  0  0  0  0  0  0  0  0  0  0  0
  4  5  1  0  0  0
  5  6  2  0  0  0
  6  1  1  0  0  0
  1  2  2  0  0  0
  1  3  2  0  0  0
  1 15  1  0  0  0
 15 17  1  0  0  0
 17 18  1  0  0  0
 18 19  1  0  0  0
 19 21  1  0  0  0
 21 22  2  0  0  0
 21 23  1  0  0  0
 19 20  1  0  0  0
  6  7  1  0  0  0
  7  8  2  0  0  0
  8  9  1  0  0  0
  9 10  2  0  0  0
 10 11  1  0  0  0
 11 12  2  0  0  0
 12 13  1  0  0  0
 13 14  1  0  0  0
 13  5  1  0  0  0
 20 17  1  0  0  0
 12  7  1  0  0  0
 15 16  1  0  0  0
 23 24  1  0  0  0
M  END
> <minimizedAffinity>
-8.73656

$$$$
OCNT-2316861


 25 28  0  0  0  0  0  0  0  0999 V2000
   -6.2096   24.5775    4.1607 C   0  0  0  0  0  0  0  0  0  0  0  0
   -5.7941   25.9007    3.9364 C   0  0  0  0  0  0  0  0  0  0  0  0
   -5.4881   26.3027    2.6434 C   0  0  0  0  0  0  0  0  0  0  0  0
   -5.5170   25.4905    1.5656 N   0  0  0  0  0  0  0  0  0  0  0  0
   -5.8922   24.2183    1.7576 C   0  0  0  0  0  0  0  0  0  0  0  0
   -5.9263   23.3776    0.6528 C   0  0  0  0  0  0  0  0  0  0  0  0
   -6.3011   22.0367    0.7547 C   0  0  0  0  0  0  0  0  0  0  0  0
   -6.6501   21.5156    1.9909 C   0  0  0  0  0  0  0  0  0  0  0  0
   -6.6237   22.3408    3.1144 C   0  0  0  0  0  0  0  0  0  0  0  0
   -6.2512   23.7044    3.0273 C   0  0  0  0  0  0  0  0  0  0  0  0
   -5.7200   26.9525    4.9624 C   0  0  0  0  0  0  0  0  0  0  0  0
   -6.7520   27.5537    5.2493 O   0  0  0  0  0  0  0  0  0  0  0  0
   -4.4684   27.2586    5.5137 N   0  0  0  0  0  0  0  0  0  0  0  0
   -3.3312   26.3376    5.4909 C   0  0  0  0  0  0  0  0  0  0  0  0
   -1.9979   27.0775    5.5003 C   0  0  0  0  0  0  0  0  0  0  0  0
   -1.9106   28.0542    6.6919 C   0  0  0  0  0  0  0  0  0  0  0  0
   -3.1006   29.0288    6.5753 C   0  0  0  0  0  0  0  0  0  0  0  0
   -4.4301   28.2815    6.5526 C   0  0  0  0  0  0  0  0  0  0  0  0
   -0.6319   28.7981    6.6468 N   0  0  0  0  0  0  0  0  0  0  0  0
    0.2222   28.5237    7.8322 C   0  0  0  0  0  0  0  0  0  0  0  0
   -0.3302   29.7778    8.5152 C   0  0  0  0  0  0  0  0  0  0  0  0
   -0.7790   30.2018    7.1140 C   0  0  0  0  0  0  0  0  0  0  0  0
   -8.0185   23.6819    5.5590 C   0  0  0  0  0  0  0  0  0  0  0  0
   -6.6118   24.0460    5.4151 N   0  0  0  0  0  0  0  0  0  0  0  0
   -5.6710   23.0213    5.8871 C   0  0  0  0  0  0  0  0  0  0  0  0
 23 24  1  0  0  0
 24 25  1  0  0  0
 24  1  1  0  0  0
  1  2  2  0  0  0
  2 11  1  0  0  0
 11 12  2  0  0  0
 11 13  1  0  0  0
 13 14  1  0  0  0
 14 15  1  0  0  0
 15 16  1  0  0  0
 16 19  1  0  0  0
 19 20  1  0  0  0
 20 21  1  0  0  0
 21 22  1  0  0  0
 16 17  1  0  0  0
 17 18  1  0  0  0
  2  3  1  0  0  0
  3  4  2  0  0  0
  4  5  1  0  0  0
  5  6  2  0  0  0
  6  7  1  0  0  0
  7  8  2  0  0  0
  8  9  1  0  0  0
  9 10  2  0  0  0
 10  1  1  0  0  0
 18 13  1  0  0  0
 10  5  1  0  0  0
 22 19  1  0  0  0
M  END
> <minimizedAffinity>
-8.73552

$$$$
OCNT-2316870


 23 25  0  0  0  0  0  0  0  0999 V2000
   -4.1864   27.3630    5.0731 N   0  0  0  0  0  0  0  0  0  0  0  0
   -4.6196   26.0820    4.8145 C   0  0  0  0  0  0  0  0  0  0  0  0
   -4.3251   25.0562    5.4063 O   0  0  0  0  0  0  0  0  0  0  0  0
   -4.5800   28.0807    4.4810 H   0  0  0  0  0  0  0  0  0  0  0  0
   -4.9430   29.5440    6.7796 C   0  0  0  0  0  0  0  0  0  0  0  0
   -3.6142   28.8482    6.9324 C   0  0  0  0  0  0  0  0  0  0  0  0
   -2.6851   29.2268    7.9197 C   0  0  0  0  0  0  0  0  0  0  0  0
   -2.9749   30.6296    9.1647 Br  0  0  0  0  0  0  0  0  0  0  0  0
   -1.4764   28.5456    8.0084 C   0  0  0  0  0  0  0  0  0  0  0  0
   -1.1235   27.5264    7.2007 N   0  0  0  0  0  0  0  0  0  0  0  0
   -2.0250   27.1653    6.2561 C   0  0  0  0  0  0  0  0  0  0  0  0
   -3.2702   27.7745    6.0732 C   0  0  0  0  0  0  0  0  0  0  0  0
   -5.5876   26.0114    3.6880 C   0  0  0  0  0  0  0  0  0  0  0  0
   -5.7284   27.1234    2.6817 C   0  0  0  0  0  0  0  0  0  0  0  0
   -5.0459   25.8406    2.2759 C   0  0  0  0  0  0  0  0  0  0  0  0
   -5.7194   24.8559    1.3509 C   0  0  0  0  0  0  0  0  0  0  0  0
   -6.4909   25.2781    0.2546 C   0  0  0  0  0  0  0  0  0  0  0  0
   -7.1042   24.3588   -0.6015 C   0  0  0  0  0  0  0  0  0  0  0  0
   -6.9489   22.9935   -0.3809 C   0  0  0  0  0  0  0  0  0  0  0  0
   -6.1777   22.5590    0.6875 C   0  0  0  0  0  0  0  0  0  0  0  0
   -6.0381   21.2143    0.8665 O   0  0  0  0  0  0  0  0  0  0  0  0
   -5.5657   23.4716    1.5445 C   0  0  0  0  0  0  0  0  0  0  0  0
   -5.4428   21.0635    1.6195 H   0  0  0  0  0  0  0  0  0  0  0  0
  5  6  1  0  0  0
  6  7  2  0  0  0
  7  8  1  0  0  0
  7  9  1  0  0  0
  9 10  2  0  0  0
 10 11  1  0  0  0
 11 12  2  0  0  0
 12  1  1  0  0  0
  1  2  1  0  0  0
  2  3  2  0  0  0
  2 13  1  0  0  0
 13 14  1  0  0  0
 14 15  1  0  0  0
 15 16  1  0  0  0
 16 17  2  0  0  0
 17 18  1  0  0  0
 18 19  2  0  0  0
 19 20  1  0  0  0
 20 21  1  0  0  0
 20 22  2  0  0  0
 12  6  1  0  0  0
 15 13  1  0  0  0
 22 16  1  0  0  0
  1  4  1  0  0  0
 21 23  1  0  0  0
M  END
> <minimizedAffinity>
-8.95274

$$$$
OCNT-2316874


 26 28  0  0  0  0  0  0  0  0999 V2000
   -5.8129   31.8218    8.1857 C   0  0  0  0  0  0  0  0  0  0  0  0
   -5.7325   30.4409    7.5035 C   0  0  0  0  0  0  0  0  0  0  0  0
   -6.2954   29.3929    8.4921 C   0  0  0  0  0  0  0  0  0  0  0  0
   -6.5376   30.3943    6.1421 C   0  0  0  0  0  0  0  0  0  0  0  0
   -7.9494   30.5224    6.3658 O   0  0  0  0  0  0  0  0  0  0  0  0
   -8.3949   30.2649    5.5401 H   0  0  0  0  0  0  0  0  0  0  0  0
   -6.3065   29.1739    5.2628 C   0  0  0  0  0  0  0  0  0  0  0  0
   -6.0505   29.3343    3.8909 C   0  0  0  0  0  0  0  0  0  0  0  0
   -5.8359   28.2241    3.0701 C   0  0  0  0  0  0  0  0  0  0  0  0
   -5.8785   26.9431    3.6144 C   0  0  0  0  0  0  0  0  0  0  0  0
   -5.5881   25.4412    2.5043 Br  0  0  0  0  0  0  0  0  0  0  0  0
   -6.1351   26.7615    4.9707 C   0  0  0  0  0  0  0  0  0  0  0  0
   -6.3492   27.8725    5.7899 C   0  0  0  0  0  0  0  0  0  0  0  0
   -4.3015   30.0535    7.3522 N   0  0  0  0  0  0  0  0  0  0  0  0
   -3.7397   30.8706    7.1215 H   0  0  0  0  0  0  0  0  0  0  0  0
   -3.6888   29.3798    8.4945 C   0  0  0  0  0  0  0  0  0  0  0  0
   -2.2201   29.1450    8.2267 C   0  0  0  0  0  0  0  0  0  0  0  0
   -1.2483   29.9710    8.8202 C   0  0  0  0  0  0  0  0  0  0  0  0
    0.0999   29.7503    8.5635 C   0  0  0  0  0  0  0  0  0  0  0  0
    0.6028   28.7857    7.7636 N   0  0  0  0  0  0  0  0  0  0  0  0
   -0.3561   28.0263    7.2038 C   0  0  0  0  0  0  0  0  0  0  0  0
   -1.7332   28.1326    7.3705 C   0  0  0  0  0  0  0  0  0  0  0  0
   -2.3169   27.1133    6.5639 C   0  0  0  0  0  0  0  0  0  0  0  0
   -1.2944   26.4233    5.9471 C   0  0  0  0  0  0  0  0  0  0  0  0
   -0.1112   26.9894    6.3460 N   0  0  0  0  0  0  0  0  0  0  0  0
    0.8159   26.7100    6.0623 H   0  0  0  0  0  0  0  0  0  0  0  0
  1  2  1  0  0  0
  2  3  1  0  0  0
  2 14  1  0  0  0
 14 16  1  0  0  0
 16 17  1  0  0  0
 17 18  2  0  0  0
 18 19  1  0  0  0
 19 20  2  0  0  0
 20 21  1  0  0  0
 21 22  2  0  0  0
 22 23  1  0  0  0
 23 24  2  0  0  0
 24 25  1  0  0  0
  2  4  1  0  0  0
  4  5  1  0  0  0
  4  7  1  0  0  0
  7  8  1  0  0  0
  8  9  2  0  0  0
  9 10  1  0  0  0
 10 11  1  0  0  0
 10 12  2  0  0  0
 12 13  1  0  0  0
 22 17  1  0  0  0
 13  7  2  0  0  0
 25 21  1  0  0  0
 14 15  1  0  0  0
 25 26  1  0  0  0
  5  6  1  0  0  0
M  END
> <minimizedAffinity>
-8.96124

$$$$
OCNT-2316883


 26 28  0  0  0  0  0  0  0  0999 V2000
   -5.8584   27.7445    4.3621 C   0  0  0  0  0  0  0  0  0  0  0  0
   -4.6813   28.4270    4.8779 N   0  0  0  0  0  0  0  0  0  0  0  0
   -4.7246   28.9849    6.1318 C   0  0  0  0  0  0  0  0  0  0  0  0
   -5.6623   28.8891    6.9086 O   0  0  0  0  0  0  0  0  0  0  0  0
   -3.5602   29.6641    6.4004 N   0  0  0  0  0  0  0  0  0  0  0  0
   -4.1783   28.9984    4.2145 H   0  0  0  0  0  0  0  0  0  0  0  0
   -2.7525   29.2803    5.9298 H   0  0  0  0  0  0  0  0  0  0  0  0
   -3.3547   30.2679    7.7058 C   0  0  0  0  0  0  0  0  0  0  0  0
   -3.3130   31.8040    7.6249 C   0  0  0  0  0  0  0  0  0  0  0  0
   -1.9495   32.2088    8.1746 C   0  0  0  0  0  0  0  0  0  0  0  0
   -1.6037   31.0681    9.1043 C   0  0  0  0  0  0  0  0  0  0  0  0
   -2.2998   31.1816   10.2577 F   0  0  0  0  0  0  0  0  0  0  0  0
   -0.2948   31.0491    9.4108 F   0  0  0  0  0  0  0  0  0  0  0  0
   -2.0322   29.8354    8.3469 C   0  0  0  0  0  0  0  0  0  0  0  0
   -5.5181   26.8639    3.1608 C   0  0  0  0  0  0  0  0  0  0  0  0
   -7.3668   23.0338   -0.7033 C   0  0  0  0  0  0  0  0  0  0  0  0
   -6.8345   23.0776    0.6994 C   0  0  0  0  0  0  0  0  0  0  0  0
   -6.7378   21.9040    1.4533 C   0  0  0  0  0  0  0  0  0  0  0  0
   -6.2765   21.9207    2.7739 C   0  0  0  0  0  0  0  0  0  0  0  0
   -5.9236   23.1580    3.3229 C   0  0  0  0  0  0  0  0  0  0  0  0
   -5.4513   23.4682    4.5762 N   0  0  0  0  0  0  0  0  0  0  0  0
   -5.2429   24.8165    4.6837 C   0  0  0  0  0  0  0  0  0  0  0  0
   -5.5854   25.4061    3.4823 C   0  0  0  0  0  0  0  0  0  0  0  0
   -6.0170   24.3534    2.6117 C   0  0  0  0  0  0  0  0  0  0  0  0
   -6.4865   24.3085    1.2814 C   0  0  0  0  0  0  0  0  0  0  0  0
   -5.2878   22.7924    5.3095 H   0  0  0  0  0  0  0  0  0  0  0  0
 16 17  1  0  0  0
 17 18  2  0  0  0
 18 19  1  0  0  0
 19 20  2  0  0  0
 20 21  1  0  0  0
 21 22  1  0  0  0
 22 23  2  0  0  0
 23 15  1  0  0  0
 15  1  1  0  0  0
  1  2  1  0  0  0
  2  3  1  0  0  0
  3  4  2  0  0  0
  3  5  1  0  0  0
  5  8  1  0  0  0
  8  9  1  0  0  0
  9 10  1  0  0  0
 10 11  1  0  0  0
 11 12  1  0  0  0
 11 13  1  0  0  0
 11 14  1  0  0  0
 23 24  1  0  0  0
 24 25  2  0  0  0
 25 17  1  0  0  0
 24 20  1  0  0  0
 14  8  1  0  0  0
 21 26  1  0  0  0
  2  6  1  0  0  0
  5  7  1  0  0  0
M  END
> <minimizedAffinity>
-9.62187

$$$$
OCNT-2316908


 21 23  0  0  0  0  0  0  0  0999 V2000
  -10.1014   22.3027    8.8616 C   0  0  0  0  0  0  0  0  0  0  0  0
   -9.2938   22.0864    7.6100 C   0  0  0  0  0  0  0  0  0  0  0  0
   -7.9029   22.2714    7.6530 C   0  0  0  0  0  0  0  0  0  0  0  0
   -7.1588   22.0720    6.4993 C   0  0  0  0  0  0  0  0  0  0  0  0
   -7.7633   21.6932    5.3037 C   0  0  0  0  0  0  0  0  0  0  0  0
   -9.1334   21.5052    5.2387 C   0  0  0  0  0  0  0  0  0  0  0  0
   -9.9135   21.7006    6.3946 C   0  0  0  0  0  0  0  0  0  0  0  0
  -11.4024   21.4930    6.3104 C   0  0  0  0  0  0  0  0  0  0  0  0
   -6.7948   21.5574    4.2898 N   0  0  0  0  0  0  0  0  0  0  0  0
   -7.0429   21.1919    2.9706 C   0  0  0  0  0  0  0  0  0  0  0  0
   -8.1599   20.9375    2.5196 O   0  0  0  0  0  0  0  0  0  0  0  0
   -5.4758   21.8694    4.8680 C   0  0  0  0  0  0  0  0  0  0  0  0
   -5.6810   22.2181    6.3467 C   0  0  0  0  0  0  0  0  0  0  0  0
   -5.7932   21.1220    2.0773 C   0  0  0  0  0  0  0  0  0  0  0  0
   -6.0795   21.5306    0.7446 O   0  0  0  0  0  0  0  0  0  0  0  0
   -6.1488   22.8719    0.5091 C   0  0  0  0  0  0  0  0  0  0  0  0
   -7.1313   23.2715   -0.3936 C   0  0  0  0  0  0  0  0  0  0  0  0
   -7.2854   24.6205   -0.7034 C   0  0  0  0  0  0  0  0  0  0  0  0
   -6.4418   25.5329   -0.0929 C   0  0  0  0  0  0  0  0  0  0  0  0
   -5.4772   25.1881    0.7871 N   0  0  0  0  0  0  0  0  0  0  0  0
   -5.3545   23.8665    1.0662 C   0  0  0  0  0  0  0  0  0  0  0  0
  1  2  1  0  0  0
  2  3  1  0  0  0
  3  4  2  0  0  0
  4  5  1  0  0  0
  5  6  2  0  0  0
  6  7  1  0  0  0
  7  8  1  0  0  0
  5  9  1  0  0  0
  9 10  1  0  0  0
 10 11  2  0  0  0
 10 14  1  0  0  0
 14 15  1  0  0  0
 15 16  1  0  0  0
 16 17  1  0  0  0
 17 18  2  0  0  0
 18 19  1  0  0  0
 19 20  2  0  0  0
 20 21  1  0  0  0
  9 12  1  0  0  0
 12 13  1  0  0  0
  7  2  2  0  0  0
 21 16  2  0  0  0
 13  4  1  0  0  0
M  END
> <minimizedAffinity>
-8.59228

$$$$
OCNT-2316911


 25 27  0  0  0  0  0  0  0  0999 V2000
   -3.4692   26.9169    4.9271 N   0  0  0  0  0  0  0  0  0  0  0  0
   -2.2121   26.8129    5.4919 C   0  0  0  0  0  0  0  0  0  0  0  0
   -1.3658   25.9693    5.2191 O   0  0  0  0  0  0  0  0  0  0  0  0
   -4.1333   27.5800    5.2974 H   0  0  0  0  0  0  0  0  0  0  0  0
   -5.7282   24.7909    5.2658 C   0  0  0  0  0  0  0  0  0  0  0  0
   -4.9343   25.1533    4.0635 C   0  0  0  0  0  0  0  0  0  0  0  0
   -3.9309   26.0959    3.9115 C   0  0  0  0  0  0  0  0  0  0  0  0
   -3.5471   26.0056    2.5605 C   0  0  0  0  0  0  0  0  0  0  0  0
   -4.2380   25.0775    1.8994 N   0  0  0  0  0  0  0  0  0  0  0  0
   -5.0657   24.5525    2.8268 N   0  0  0  0  0  0  0  0  0  0  0  0
   -5.9495   23.4866    2.3880 C   0  0  0  0  0  0  0  0  0  0  0  0
   -5.3530   22.0815    2.5311 C   0  0  0  0  0  0  0  0  0  0  0  0
   -6.0647   21.2719    1.4581 C   0  0  0  0  0  0  0  0  0  0  0  0
   -6.1726   22.2446    0.2946 C   0  0  0  0  0  0  0  0  0  0  0  0
   -6.4754   23.5921    0.9456 C   0  0  0  0  0  0  0  0  0  0  0  0
   -1.8937   27.8126    6.5409 C   0  0  0  0  0  0  0  0  0  0  0  0
   -0.6473   27.9098    7.1634 C   0  0  0  0  0  0  0  0  0  0  0  0
   -0.4504   28.8826    8.1441 C   0  0  0  0  0  0  0  0  0  0  0  0
   -1.5045   29.7233    8.4717 C   0  0  0  0  0  0  0  0  0  0  0  0
   -2.7268   29.6359    7.9108 N   0  0  0  0  0  0  0  0  0  0  0  0
   -2.8958   28.6813    6.9591 C   0  0  0  0  0  0  0  0  0  0  0  0
   -1.2677   30.6433    9.4628 O   0  0  0  0  0  0  0  0  0  0  0  0
   -2.0582   31.8065    9.3139 C   0  0  0  0  0  0  0  0  0  0  0  0
   -1.3511   32.7260    8.6084 F   0  0  0  0  0  0  0  0  0  0  0  0
   -2.2129   32.3314   10.5608 F   0  0  0  0  0  0  0  0  0  0  0  0
  5  6  1  0  0  0
  6  7  2  0  0  0
  7  1  1  0  0  0
  1  2  1  0  0  0
  2  3  2  0  0  0
  2 16  1  0  0  0
 16 17  2  0  0  0
 17 18  1  0  0  0
 18 19  2  0  0  0
 19 22  1  0  0  0
 22 23  1  0  0  0
 23 24  1  0  0  0
 23 25  1  0  0  0
 19 20  1  0  0  0
 20 21  2  0  0  0
  7  8  1  0  0  0
  8  9  2  0  0  0
  9 10  1  0  0  0
 10 11  1  0  0  0
 11 12  1  0  0  0
 12 13  1  0  0  0
 13 14  1  0  0  0
 14 15  1  0  0  0
 10  6  1  0  0  0
 15 11  1  0  0  0
 21 16  1  0  0  0
  1  4  1  0  0  0
M  END
> <minimizedAffinity>
-8.87413

$$$$
OCNT-2316921


 27 29  0  0  0  0  0  0  0  0999 V2000
   -5.9375   28.6323    5.9754 C   0  0  0  0  0  0  0  0  0  0  0  0
   -6.8493   28.5380    6.7904 O   0  0  0  0  0  0  0  0  0  0  0  0
   -4.6181   28.8532    6.3202 N   0  0  0  0  0  0  0  0  0  0  0  0
   -3.9287   28.9411    5.5830 H   0  0  0  0  0  0  0  0  0  0  0  0
   -6.1627   28.4703    4.4816 C   0  0  0  0  0  0  0  0  0  0  0  0
   -5.4673   25.4509    2.2487 C   0  0  0  0  0  0  0  0  0  0  0  0
   -5.6423   26.7663    2.6933 C   0  0  0  0  0  0  0  0  0  0  0  0
   -5.9494   27.0440    4.0381 C   0  0  0  0  0  0  0  0  0  0  0  0
   -6.0892   25.9839    4.9358 C   0  0  0  0  0  0  0  0  0  0  0  0
   -5.9267   24.6676    4.5010 C   0  0  0  0  0  0  0  0  0  0  0  0
   -5.6178   24.3904    3.1604 C   0  0  0  0  0  0  0  0  0  0  0  0
   -5.4443   22.9630    2.7132 C   0  0  0  0  0  0  0  0  0  0  0  0
   -6.1840   25.2522   -0.0165 C   0  0  0  0  0  0  0  0  0  0  0  0
   -5.1579   25.0949    0.9583 O   0  0  0  0  0  0  0  0  0  0  0  0
   -4.1719   28.9572    7.7003 C   0  0  0  0  0  0  0  0  0  0  0  0
   -3.3338   30.2450    8.0244 C   0  0  0  0  0  0  0  0  0  0  0  0
   -3.8348   31.4362    7.1370 C   0  0  0  0  0  0  0  0  0  0  0  0
   -3.7603   32.8060    7.8186 C   0  0  0  0  0  0  0  0  0  0  0  0
   -2.6870   32.8834    8.7421 O   0  0  0  0  0  0  0  0  0  0  0  0
   -2.8170   31.9713    9.8313 C   0  0  0  0  0  0  0  0  0  0  0  0
   -3.5959   30.6979    9.4859 C   0  0  0  0  0  0  0  0  0  0  0  0
   -1.8661   29.9680    7.8809 N   0  0  0  0  0  0  0  0  0  0  0  0
   -1.4026   28.6446    8.3148 C   0  0  0  0  0  0  0  0  0  0  0  0
    0.1103   28.6605    8.5776 C   0  0  0  0  0  0  0  0  0  0  0  0
    0.8958   29.4262    7.5161 C   0  0  0  0  0  0  0  0  0  0  0  0
    0.0532   29.6366    6.2586 C   0  0  0  0  0  0  0  0  0  0  0  0
   -1.2642   30.3605    6.5925 C   0  0  0  0  0  0  0  0  0  0  0  0
 13 14  1  0  0  0
 14  6  1  0  0  0
  6  7  1  0  0  0
  7  8  2  0  0  0
  8  5  1  0  0  0
  5  1  1  0  0  0
  1  2  2  0  0  0
  1  3  1  0  0  0
  3 15  1  0  0  0
 15 16  1  0  0  0
 16 22  1  0  0  0
 22 23  1  0  0  0
 23 24  1  0  0  0
 24 25  1  0  0  0
 25 26  1  0  0  0
 26 27  1  0  0  0
 16 17  1  0  0  0
 17 18  1  0  0  0
 18 19  1  0  0  0
 19 20  1  0  0  0
 20 21  1  0  0  0
  8  9  1  0  0  0
  9 10  2  0  0  0
 10 11  1  0  0  0
 11 12  1  0  0  0
 11  6  2  0  0  0
 21 16  1  0  0  0
 27 22  1  0  0  0
  3  4  1  0  0  0
M  END
> <minimizedAffinity>
-9.04203

$$$$
OCNT-2316942


 22 26  0  0  0  0  0  0  0  0999 V2000
   -5.5935   27.9267    4.5993 C   0  0  0  0  0  0  0  0  0  0  0  0
   -6.2388   29.0449    4.2230 N   0  0  0  0  0  0  0  0  0  0  0  0
   -5.7243   30.0302    5.0598 O   0  0  0  0  0  0  0  0  0  0  0  0
   -4.8240   29.4166    5.8787 C   0  0  0  0  0  0  0  0  0  0  0  0
   -4.7069   28.1270    5.6469 N   0  0  0  0  0  0  0  0  0  0  0  0
   -4.1548   30.2553    6.9115 C   0  0  0  0  0  0  0  0  0  0  0  0
   -2.8815   29.5583    7.4612 C   0  0  0  0  0  0  0  0  0  0  0  0
   -2.4290   30.0628    8.7711 N   0  0  0  0  0  0  0  0  0  0  0  0
   -1.0073   30.3986    8.8637 C   0  0  0  0  0  0  0  0  0  0  0  0
   -1.1071   31.8480    9.3172 C   0  0  0  0  0  0  0  0  0  0  0  0
   -2.1491   32.4381    8.3301 C   0  0  0  0  0  0  0  0  0  0  0  0
   -3.0647   31.3746    9.0581 C   0  0  0  0  0  0  0  0  0  0  0  0
   -4.5735   31.3933    8.9786 C   0  0  0  0  0  0  0  0  0  0  0  0
   -5.1030   30.5303    7.9526 O   0  0  0  0  0  0  0  0  0  0  0  0
   -2.2851   31.8494   10.3398 C   0  0  0  0  0  0  0  0  0  0  0  0
   -5.7017   24.9733    0.5659 C   0  0  0  0  0  0  0  0  0  0  0  0
   -5.8280   25.1787    2.0447 C   0  0  0  0  0  0  0  0  0  0  0  0
   -6.1943   24.1249    2.8812 C   0  0  0  0  0  0  0  0  0  0  0  0
   -6.3300   24.3714    4.2376 C   0  0  0  0  0  0  0  0  0  0  0  0
   -6.1373   25.5801    4.8058 N   0  0  0  0  0  0  0  0  0  0  0  0
   -5.7962   26.6091    3.9865 C   0  0  0  0  0  0  0  0  0  0  0  0
   -5.6377   26.4436    2.6100 C   0  0  0  0  0  0  0  0  0  0  0  0
 16 17  1  0  0  0
 17 18  2  0  0  0
 18 19  1  0  0  0
 19 20  2  0  0  0
 20 21  1  0  0  0
 21  1  1  0  0  0
  1  2  2  0  0  0
  2  3  1  0  0  0
  3  4  1  0  0  0
  4  6  1  0  0  0
  6  7  1  0  0  0
  7  8  1  0  0  0
  8  9  1  0  0  0
  9 10  1  0  0  0
 10 11  1  0  0  0
 11 12  1  0  0  0
 12 13  1  0  0  0
 13 14  1  0  0  0
 12 15  1  0  0  0
  4  5  2  0  0  0
 21 22  2  0  0  0
 22 17  1  0  0  0
  5  1  1  0  0  0
 14  6  1  0  0  0
 12  8  1  0  0  0
 15 10  1  0  0  0
M  END
> <minimizedAffinity>
-9.26300

$$$$
OCNT-2316951


 30 33  0  0  0  0  0  0  0  0999 V2000
   -1.2304   29.4785    7.1042 N   0  0  0  0  0  0  0  0  0  0  0  0
   -2.3969   28.6481    7.4260 C   0  0  0  0  0  0  0  0  0  0  0  0
   -2.8859   27.8609    6.1960 C   0  0  0  0  0  0  0  0  0  0  0  0
   -1.8342   27.0585    5.5671 N   0  0  0  0  0  0  0  0  0  0  0  0
   -2.0413   26.0801    4.6165 C   0  0  0  0  0  0  0  0  0  0  0  0
   -1.1554   25.3106    4.2535 O   0  0  0  0  0  0  0  0  0  0  0  0
   -3.3049   26.0233    4.0995 N   0  0  0  0  0  0  0  0  0  0  0  0
   -0.4906   27.2338    6.1109 C   0  0  0  0  0  0  0  0  0  0  0  0
   -0.1615   28.7076    6.4344 C   0  0  0  0  0  0  0  0  0  0  0  0
   -3.9947   26.6947    4.3873 H   0  0  0  0  0  0  0  0  0  0  0  0
   -0.7616   30.2367    8.2702 C   0  0  0  0  0  0  0  0  0  0  0  0
   -4.3508   33.7708    9.1538 C   0  0  0  0  0  0  0  0  0  0  0  0
   -3.2979   32.7334    9.2169 C   0  0  0  0  0  0  0  0  0  0  0  0
   -2.8177   32.3281   10.3983 N   0  0  0  0  0  0  0  0  0  0  0  0
   -1.8633   31.3695   10.1073 O   0  0  0  0  0  0  0  0  0  0  0  0
   -1.7699   31.2153    8.7576 C   0  0  0  0  0  0  0  0  0  0  0  0
   -2.6608   32.0654    8.1474 C   0  0  0  0  0  0  0  0  0  0  0  0
   -3.6982   25.0288    3.1304 C   0  0  0  0  0  0  0  0  0  0  0  0
   -4.9814   24.3597    3.5487 C   0  0  0  0  0  0  0  0  0  0  0  0
   -5.3867   24.3820    4.8880 C   0  0  0  0  0  0  0  0  0  0  0  0
   -6.5876   23.7814    5.2861 C   0  0  0  0  0  0  0  0  0  0  0  0
   -7.4164   23.1467    4.3472 C   0  0  0  0  0  0  0  0  0  0  0  0
   -7.0067   23.1370    3.0088 C   0  0  0  0  0  0  0  0  0  0  0  0
   -7.7372   22.5636    2.0441 F   0  0  0  0  0  0  0  0  0  0  0  0
   -5.8088   23.7358    2.6115 C   0  0  0  0  0  0  0  0  0  0  0  0
   -8.6374   22.5382    4.7620 N   0  0  0  0  0  0  0  0  0  0  0  0
   -9.6481   23.1248    5.5008 C   0  0  0  0  0  0  0  0  0  0  0  0
  -10.6220   22.1688    5.6591 C   0  0  0  0  0  0  0  0  0  0  0  0
  -10.2599   21.0079    5.0475 N   0  0  0  0  0  0  0  0  0  0  0  0
   -9.0766   21.2515    4.5253 C   0  0  0  0  0  0  0  0  0  0  0  0
 12 13  1  0  0  0
 13 14  2  0  0  0
 14 15  1  0  0  0
 15 16  1  0  0  0
 16 11  1  0  0  0
 11  1  1  0  0  0
  1  2  1  0  0  0
  2  3  1  0  0  0
  3  4  1  0  0  0
  4  5  1  0  0  0
  5  6  2  0  0  0
  5  7  1  0  0  0
  7 18  1  0  0  0
 18 19  1  0  0  0
 19 20  1  0  0  0
 20 21  2  0  0  0
 21 22  1  0  0  0
 22 26  1  0  0  0
 26 27  1  0  0  0
 27 28  2  0  0  0
 28 29  1  0  0  0
 29 30  2  0  0  0
 22 23  2  0  0  0
 23 24  1  0  0  0
 23 25  1  0  0  0
  4  8  1  0  0  0
  8  9  1  0  0  0
 16 17  2  0  0  0
 17 13  1  0  0  0
  9  1  1  0  0  0
 25 19  2  0  0  0
 30 26  1  0  0  0
  7 10  1  0  0  0
M  END
> <minimizedAffinity>
-8.94357

$$$$
OCNT-2316959


 24 26  0  0  0  0  0  0  0  0999 V2000
   -5.9997   23.7907    5.0349 C   0  0  0  0  0  0  0  0  0  0  0  0
   -4.8735   24.8207    4.9320 C   0  0  0  0  0  0  0  0  0  0  0  0
   -5.3941   26.2443    5.2173 C   0  0  0  0  0  0  0  0  0  0  0  0
   -4.3803   27.3468    4.8880 C   0  0  0  0  0  0  0  0  0  0  0  0
   -3.0632   26.7783    4.6196 N   0  0  0  0  0  0  0  0  0  0  0  0
   -2.0358   26.6965    5.5587 C   0  0  0  0  0  0  0  0  0  0  0  0
   -1.0806   25.9323    5.4003 O   0  0  0  0  0  0  0  0  0  0  0  0
   -3.0349   25.8809    3.4648 C   0  0  0  0  0  0  0  0  0  0  0  0
   -4.0403   24.7142    3.6216 C   0  0  0  0  0  0  0  0  0  0  0  0
   -4.8380   24.5350    2.4134 N   0  0  0  0  0  0  0  0  0  0  0  0
   -5.5147   25.5264    1.7532 C   0  0  0  0  0  0  0  0  0  0  0  0
   -6.1221   24.9001    0.6907 C   0  0  0  0  0  0  0  0  0  0  0  0
   -5.8377   23.5607    0.6913 N   0  0  0  0  0  0  0  0  0  0  0  0
   -5.0660   23.3698    1.7369 C   0  0  0  0  0  0  0  0  0  0  0  0
   -2.1507   27.5685    6.8271 C   0  0  0  0  0  0  0  0  0  0  0  0
   -2.3970   26.7128    7.9500 O   0  0  0  0  0  0  0  0  0  0  0  0
   -1.6012   26.1622    8.0627 H   0  0  0  0  0  0  0  0  0  0  0  0
   -0.8686   28.3892    7.0501 C   0  0  0  0  0  0  0  0  0  0  0  0
   -1.1540   29.7747    7.5885 C   0  0  0  0  0  0  0  0  0  0  0  0
   -1.8851   30.7009    6.8325 C   0  0  0  0  0  0  0  0  0  0  0  0
   -2.1368   31.9805    7.3301 C   0  0  0  0  0  0  0  0  0  0  0  0
   -1.6605   32.3474    8.5870 C   0  0  0  0  0  0  0  0  0  0  0  0
   -0.9308   31.4357    9.3469 C   0  0  0  0  0  0  0  0  0  0  0  0
   -0.6771   30.1558    8.8507 C   0  0  0  0  0  0  0  0  0  0  0  0
  1  2  1  0  0  0
  2  3  1  0  0  0
  3  4  1  0  0  0
  4  5  1  0  0  0
  5  6  1  0  0  0
  6  7  2  0  0  0
  6 15  1  0  0  0
 15 16  1  0  0  0
 15 18  1  0  0  0
 18 19  1  0  0  0
 19 20  2  0  0  0
 20 21  1  0  0  0
 21 22  2  0  0  0
 22 23  1  0  0  0
 23 24  2  0  0  0
  5  8  1  0  0  0
  8  9  1  0  0  0
  9 10  1  0  0  0
 10 11  1  0  0  0
 11 12  2  0  0  0
 12 13  1  0  0  0
 13 14  2  0  0  0
  9  2  1  0  0  0
 14 10  1  0  0  0
 24 19  1  0  0  0
 16 17  1  0  0  0
M  END
> <minimizedAffinity>
-9.00896

$$$$
OCNT-2316968


 26 29  0  0  0  0  0  0  0  0999 V2000
   -4.7318   25.3140    2.6008 N   0  0  0  0  0  0  0  0  0  0  0  0
   -5.6665   26.3892    3.0170 C   0  0  0  0  0  0  0  0  0  0  0  0
   -5.8564   26.3958    4.5517 C   0  0  0  0  0  0  0  0  0  0  0  0
   -4.5561   26.4478    5.2360 N   0  0  0  0  0  0  0  0  0  0  0  0
   -3.9522   27.6335    5.6614 C   0  0  0  0  0  0  0  0  0  0  0  0
   -2.7288   27.7139    5.7819 O   0  0  0  0  0  0  0  0  0  0  0  0
   -3.6833   25.3263    4.8716 C   0  0  0  0  0  0  0  0  0  0  0  0
   -3.4517   25.2944    3.3477 C   0  0  0  0  0  0  0  0  0  0  0  0
   -5.8497   24.0560    0.8082 C   0  0  0  0  0  0  0  0  0  0  0  0
   -6.4287   22.8543    0.3995 C   0  0  0  0  0  0  0  0  0  0  0  0
   -6.4969   21.7355    1.1561 N   0  0  0  0  0  0  0  0  0  0  0  0
   -5.9498   21.8175    2.3810 C   0  0  0  0  0  0  0  0  0  0  0  0
   -5.3575   22.9651    2.8896 C   0  0  0  0  0  0  0  0  0  0  0  0
   -5.3112   24.1337    2.1165 C   0  0  0  0  0  0  0  0  0  0  0  0
   -6.9062   25.5703   -0.7035 C   0  0  0  0  0  0  0  0  0  0  0  0
   -5.7456   25.1729    0.0145 O   0  0  0  0  0  0  0  0  0  0  0  0
   -4.8806   28.8070    5.9435 C   0  0  0  0  0  0  0  0  0  0  0  0
   -4.7007   29.3909    7.3121 C   0  0  0  0  0  0  0  0  0  0  0  0
   -5.6044   29.0784    8.2440 N   0  0  0  0  0  0  0  0  0  0  0  0
   -5.2184   29.8518    9.6506 S   0  0  0  0  0  0  0  0  0  0  0  0
   -3.8414   30.6816    9.0484 C   0  0  0  0  0  0  0  0  0  0  0  0
   -2.9832   31.5785    9.7072 C   0  0  0  0  0  0  0  0  0  0  0  0
   -1.9186   32.1268    8.9885 C   0  0  0  0  0  0  0  0  0  0  0  0
   -1.7143   31.7892    7.6561 C   0  0  0  0  0  0  0  0  0  0  0  0
   -2.5752   30.8949    7.0101 C   0  0  0  0  0  0  0  0  0  0  0  0
   -3.6662   30.3236    7.7098 C   0  0  0  0  0  0  0  0  0  0  0  0
 15 16  1  0  0  0
 16  9  1  0  0  0
  9 10  2  0  0  0
 10 11  1  0  0  0
 11 12  2  0  0  0
 12 13  1  0  0  0
 13 14  2  0  0  0
 14  1  1  0  0  0
  1  2  1  0  0  0
  2  3  1  0  0  0
  3  4  1  0  0  0
  4  5  1  0  0  0
  5  6  2  0  0  0
  5 17  1  0  0  0
 17 18  1  0  0  0
 18 19  2  0  0  0
 19 20  1  0  0  0
 20 21  1  0  0  0
 21 22  2  0  0  0
 22 23  1  0  0  0
 23 24  2  0  0  0
 24 25  1  0  0  0
 25 26  2  0  0  0
  4  7  1  0  0  0
  7  8  1  0  0  0
 14  9  1  0  0  0
  8  1  1  0  0  0
 26 18  1  0  0  0
 26 21  1  0  0  0
M  END
> <minimizedAffinity>
-8.80829

$$$$
OCNT-2316971


 25 28  0  0  0  0  0  0  0  0999 V2000
   -5.7061   28.7830    5.7549 C   0  0  0  0  0  0  0  0  0  0  0  0
   -6.4508   27.7831    6.1930 N   0  0  0  0  0  0  0  0  0  0  0  0
   -6.4816   26.7964    5.2345 N   0  0  0  0  0  0  0  0  0  0  0  0
   -5.7405   27.1912    4.2245 C   0  0  0  0  0  0  0  0  0  0  0  0
   -5.2387   28.4350    4.5124 N   0  0  0  0  0  0  0  0  0  0  0  0
   -4.6153   28.9734    3.9282 H   0  0  0  0  0  0  0  0  0  0  0  0
   -4.9410   32.3820    7.8158 C   0  0  0  0  0  0  0  0  0  0  0  0
   -4.0259   31.9724    6.8512 C   0  0  0  0  0  0  0  0  0  0  0  0
   -4.2513   30.7863    6.1489 C   0  0  0  0  0  0  0  0  0  0  0  0
   -5.3932   30.0392    6.4354 C   0  0  0  0  0  0  0  0  0  0  0  0
   -6.2920   30.4251    7.3717 N   0  0  0  0  0  0  0  0  0  0  0  0
   -6.0506   31.5807    8.0362 C   0  0  0  0  0  0  0  0  0  0  0  0
   -4.5758   34.6060    9.1697 C   0  0  0  0  0  0  0  0  0  0  0  0
   -4.7426   33.5903    8.5512 C   0  0  0  0  0  0  0  0  0  0  0  0
   -5.4754   26.4340    2.9575 C   0  0  0  0  0  0  0  0  0  0  0  0
   -3.9889   26.3351    2.6730 C   0  0  0  0  0  0  0  0  0  0  0  0
   -3.5654   25.0910    3.4277 C   0  0  0  0  0  0  0  0  0  0  0  0
   -4.7465   24.3151    3.6965 O   0  0  0  0  0  0  0  0  0  0  0  0
   -5.8816   24.9598    3.0667 C   0  0  0  0  0  0  0  0  0  0  0  0
   -6.2326   24.3075    1.7377 C   0  0  0  0  0  0  0  0  0  0  0  0
   -6.1590   22.9092    1.6120 C   0  0  0  0  0  0  0  0  0  0  0  0
   -6.4635   22.2808    0.4027 C   0  0  0  0  0  0  0  0  0  0  0  0
   -6.8348   23.0400   -0.7035 C   0  0  0  0  0  0  0  0  0  0  0  0
   -6.8946   24.4274   -0.6029 C   0  0  0  0  0  0  0  0  0  0  0  0
   -6.5904   25.0569    0.6065 C   0  0  0  0  0  0  0  0  0  0  0  0
 13 14  3  0  0  0
 14  7  1  0  0  0
  7  8  2  0  0  0
  8  9  1  0  0  0
  9 10  2  0  0  0
 10  1  1  0  0  0
  1  2  2  0  0  0
  2  3  1  0  0  0
  3  4  2  0  0  0
  4 15  1  0  0  0
 15 16  1  0  0  0
 16 17  1  0  0  0
 17 18  1  0  0  0
 18 19  1  0  0  0
 19 20  1  0  0  0
 20 21  2  0  0  0
 21 22  1  0  0  0
 22 23  2  0  0  0
 23 24  1  0  0  0
 24 25  2  0  0  0
  4  5  1  0  0  0
 10 11  1  0  0  0
 11 12  2  0  0  0
 12  7  1  0  0  0
  5  1  1  0  0  0
 19 15  1  0  0  0
 25 20  1  0  0  0
  5  6  1  0  0  0
M  END
> <minimizedAffinity>
-9.51807

$$$$
OCNT-2316975


 22 23  0  0  0  0  0  0  0  0999 V2000
   -5.0495   29.9747    8.7813 S   0  0  0  0  0  0  0  0  0  0  0  0
   -5.8264   31.1880    8.6626 O   0  0  0  0  0  0  0  0  0  0  0  0
   -5.3524   28.9708    9.7775 O   0  0  0  0  0  0  0  0  0  0  0  0
   -1.0066   29.8439    8.5283 C   0  0  0  0  0  0  0  0  0  0  0  0
   -0.6372   31.0341    9.1724 C   0  0  0  0  0  0  0  0  0  0  0  0
   -1.6070   31.8942    9.6933 C   0  0  0  0  0  0  0  0  0  0  0  0
   -2.9586   31.5756    9.5774 C   0  0  0  0  0  0  0  0  0  0  0  0
   -3.3318   30.3942    8.9324 C   0  0  0  0  0  0  0  0  0  0  0  0
   -2.3659   29.5226    8.4183 C   0  0  0  0  0  0  0  0  0  0  0  0
    0.5666   29.3519    6.6378 C   0  0  0  0  0  0  0  0  0  0  0  0
    0.0455   28.9050    7.9949 C   0  0  0  0  0  0  0  0  0  0  0  0
   -5.0796   29.1914    7.3035 N   0  0  0  0  0  0  0  0  0  0  0  0
   -5.3123   28.2015    7.3425 H   0  0  0  0  0  0  0  0  0  0  0  0
   -5.2608   29.9554    6.0732 C   0  0  0  0  0  0  0  0  0  0  0  0
   -6.4373   29.3602    5.3008 C   0  0  0  0  0  0  0  0  0  0  0  0
   -6.0374   28.8455    3.9143 C   0  0  0  0  0  0  0  0  0  0  0  0
   -5.9527   27.3450    3.8255 C   0  0  0  0  0  0  0  0  0  0  0  0
   -5.7266   26.6929    2.6097 C   0  0  0  0  0  0  0  0  0  0  0  0
   -5.6664   25.3032    2.5700 C   0  0  0  0  0  0  0  0  0  0  0  0
   -5.8296   24.6057    3.7541 C   0  0  0  0  0  0  0  0  0  0  0  0
   -6.0420   25.1969    4.9484 N   0  0  0  0  0  0  0  0  0  0  0  0
   -6.0947   26.5477    4.9579 C   0  0  0  0  0  0  0  0  0  0  0  0
 10 11  1  0  0  0
 11  4  1  0  0  0
  4  5  1  0  0  0
  5  6  2  0  0  0
  6  7  1  0  0  0
  7  8  2  0  0  0
  8  1  1  0  0  0
  1  2  2  0  0  0
  1  3  2  0  0  0
  1 12  1  0  0  0
 12 14  1  0  0  0
 14 15  1  0  0  0
 15 16  1  0  0  0
 16 17  1  0  0  0
 17 18  1  0  0  0
 18 19  2  0  0  0
 19 20  1  0  0  0
 20 21  2  0  0  0
 21 22  1  0  0  0
  8  9  1  0  0  0
  9  4  2  0  0  0
 22 17  2  0  0  0
 12 13  1  0  0  0
M  END
> <minimizedAffinity>
-8.29845

$$$$
OCNT-2316976


 25 28  0  0  0  0  0  0  0  0999 V2000
   -3.7673   25.2250    3.3919 O   0  0  0  0  0  0  0  0  0  0  0  0
   -4.9589   25.0272    3.1771 C   0  0  0  0  0  0  0  0  0  0  0  0
   -5.9919   25.8955    3.4763 N   0  0  0  0  0  0  0  0  0  0  0  0
   -6.9276   25.5729    3.2513 H   0  0  0  0  0  0  0  0  0  0  0  0
   -5.3539   23.7329    2.5386 C   0  0  0  0  0  0  0  0  0  0  0  0
   -4.9657   22.5294    3.1574 C   0  0  0  0  0  0  0  0  0  0  0  0
   -5.3072   21.2821    2.6042 C   0  0  0  0  0  0  0  0  0  0  0  0
   -6.0431   21.2143    1.4222 C   0  0  0  0  0  0  0  0  0  0  0  0
   -6.4154   22.4024    0.8290 C   0  0  0  0  0  0  0  0  0  0  0  0
   -6.0851   23.6302    1.3641 C   0  0  0  0  0  0  0  0  0  0  0  0
   -6.5657   24.6539    0.5978 O   0  0  0  0  0  0  0  0  0  0  0  0
   -7.2244   23.9315   -0.4651 C   0  0  0  0  0  0  0  0  0  0  0  0
   -7.1330   22.5040   -0.3224 O   0  0  0  0  0  0  0  0  0  0  0  0
   -5.9113   27.1732    4.0688 C   0  0  0  0  0  0  0  0  0  0  0  0
   -6.0768   28.2756    3.2227 C   0  0  0  0  0  0  0  0  0  0  0  0
   -6.0128   29.5742    3.7273 C   0  0  0  0  0  0  0  0  0  0  0  0
   -5.7813   29.7834    5.0866 C   0  0  0  0  0  0  0  0  0  0  0  0
   -5.6108   28.6972    5.9544 C   0  0  0  0  0  0  0  0  0  0  0  0
   -5.6755   27.3942    5.4291 C   0  0  0  0  0  0  0  0  0  0  0  0
   -5.3654   28.9283    7.3706 C   0  0  0  0  0  0  0  0  0  0  0  0
   -4.1234   29.0618    7.9560 C   0  0  0  0  0  0  0  0  0  0  0  0
   -4.3402   29.2556    9.2891 N   0  0  0  0  0  0  0  0  0  0  0  0
   -5.6396   29.2498    9.6265 N   0  0  0  0  0  0  0  0  0  0  0  0
   -6.2610   29.0538    8.4601 C   0  0  0  0  0  0  0  0  0  0  0  0
   -3.6525   29.3942   10.0218 H   0  0  0  0  0  0  0  0  0  0  0  0
  1  2  2  0  0  0
  2  3  1  0  0  0
  3 14  1  0  0  0
 14 15  2  0  0  0
 15 16  1  0  0  0
 16 17  2  0  0  0
 17 18  1  0  0  0
 18 20  1  0  0  0
 20 21  2  0  0  0
 21 22  1  0  0  0
 22 23  1  0  0  0
 23 24  2  0  0  0
 18 19  2  0  0  0
  2  5  1  0  0  0
  5  6  2  0  0  0
  6  7  1  0  0  0
  7  8  2  0  0  0
  8  9  1  0  0  0
  9 10  2  0  0  0
 10 11  1  0  0  0
 11 12  1  0  0  0
 12 13  1  0  0  0
 19 14  1  0  0  0
 10  5  1  0  0  0
 24 20  1  0  0  0
 13  9  1  0  0  0
  3  4  1  0  0  0
 22 25  1  0  0  0
M  END
> <minimizedAffinity>
-9.47680

$$$$
OCNT-2316987


 27 30  0  0  0  0  0  0  0  0999 V2000
   -4.2680   28.6095    6.2155 N   0  0  0  0  0  0  0  0  0  0  0  0
   -2.9026   28.0788    6.0453 C   0  0  0  0  0  0  0  0  0  0  0  0
   -2.7902   26.5432    6.0919 C   0  0  0  0  0  0  0  0  0  0  0  0
   -3.7388   25.9156    5.1735 N   0  0  0  0  0  0  0  0  0  0  0  0
   -3.2865   25.6703    3.8761 C   0  0  0  0  0  0  0  0  0  0  0  0
   -2.1853   26.0310    3.4653 O   0  0  0  0  0  0  0  0  0  0  0  0
   -5.1243   26.3312    5.4291 C   0  0  0  0  0  0  0  0  0  0  0  0
   -5.2567   27.8732    5.4103 C   0  0  0  0  0  0  0  0  0  0  0  0
   -4.1921   24.8561    2.9960 C   0  0  0  0  0  0  0  0  0  0  0  0
   -4.8679   25.4682    2.0128 C   0  0  0  0  0  0  0  0  0  0  0  0
   -5.7391   24.6751    1.1424 C   0  0  0  0  0  0  0  0  0  0  0  0
   -6.4725   25.2766    0.1150 C   0  0  0  0  0  0  0  0  0  0  0  0
   -7.2994   24.5008   -0.7031 C   0  0  0  0  0  0  0  0  0  0  0  0
   -7.3989   23.1227   -0.5021 C   0  0  0  0  0  0  0  0  0  0  0  0
   -6.6711   22.5119    0.5187 C   0  0  0  0  0  0  0  0  0  0  0  0
   -5.8447   23.2885    1.3366 C   0  0  0  0  0  0  0  0  0  0  0  0
   -5.0595   22.6541    2.4272 C   0  0  0  0  0  0  0  0  0  0  0  0
   -5.1059   21.4494    2.6460 O   0  0  0  0  0  0  0  0  0  0  0  0
   -4.2798   23.4965    3.1837 N   0  0  0  0  0  0  0  0  0  0  0  0
   -3.7152   23.0662    3.9069 H   0  0  0  0  0  0  0  0  0  0  0  0
   -6.1371   29.0756    7.8939 C   0  0  0  0  0  0  0  0  0  0  0  0
   -4.6409   28.9447    7.5961 C   0  0  0  0  0  0  0  0  0  0  0  0
   -3.8342   30.1738    8.0000 C   0  0  0  0  0  0  0  0  0  0  0  0
   -2.9049   30.2591    9.0241 C   0  0  0  0  0  0  0  0  0  0  0  0
   -2.1992   31.8105    9.1691 S   0  0  0  0  0  0  0  0  0  0  0  0
   -3.1238   32.4114    7.8670 C   0  0  0  0  0  0  0  0  0  0  0  0
   -3.9491   31.4469    7.3349 C   0  0  0  0  0  0  0  0  0  0  0  0
 21 22  1  0  0  0
 22 23  1  0  0  0
 23 24  2  0  0  0
 24 25  1  0  0  0
 25 26  1  0  0  0
 26 27  2  0  0  0
 22  1  1  0  0  0
  1  2  1  0  0  0
  2  3  1  0  0  0
  3  4  1  0  0  0
  4  5  1  0  0  0
  5  6  2  0  0  0
  5  9  1  0  0  0
  9 10  2  0  0  0
 10 11  1  0  0  0
 11 12  2  0  0  0
 12 13  1  0  0  0
 13 14  2  0  0  0
 14 15  1  0  0  0
 15 16  2  0  0  0
 16 17  1  0  0  0
 17 18  2  0  0  0
 17 19  1  0  0  0
  4  7  1  0  0  0
  7  8  1  0  0  0
 27 23  1  0  0  0
  8  1  1  0  0  0
 19  9  1  0  0  0
 16 11  1  0  0  0
 19 20  1  0  0  0
M  END
> <minimizedAffinity>
-9.69186

$$$$
OCNT-2317028


 24 26  0  0  0  0  0  0  0  0999 V2000
   -2.1976   29.1626    7.9217 N   0  0  0  0  0  0  0  0  0  0  0  0
   -1.2476   28.0042    7.8296 C   0  0  0  0  0  0  0  0  0  0  0  0
   -1.0990   27.4817    6.3970 C   0  0  0  0  0  0  0  0  0  0  0  0
   -2.3832   27.0704    5.8253 N   0  0  0  0  0  0  0  0  0  0  0  0
   -2.3593   26.2092    4.7305 C   0  0  0  0  0  0  0  0  0  0  0  0
   -1.3012   25.8895    4.1915 O   0  0  0  0  0  0  0  0  0  0  0  0
   -3.5498   27.8528    6.2540 C   0  0  0  0  0  0  0  0  0  0  0  0
   -3.1645   29.2440    6.7779 C   0  0  0  0  0  0  0  0  0  0  0  0
   -3.6176   25.6777    4.2323 C   0  0  0  0  0  0  0  0  0  0  0  0
   -3.9353   25.5018    2.8980 C   0  0  0  0  0  0  0  0  0  0  0  0
   -5.1923   24.9463    2.8332 N   0  0  0  0  0  0  0  0  0  0  0  0
   -5.6989   24.7423    4.0773 N   0  0  0  0  0  0  0  0  0  0  0  0
   -4.7359   25.1507    4.9038 C   0  0  0  0  0  0  0  0  0  0  0  0
   -5.9402   24.5995    1.6762 C   0  0  0  0  0  0  0  0  0  0  0  0
   -5.9374   25.4588    0.5728 C   0  0  0  0  0  0  0  0  0  0  0  0
   -6.6732   25.0964   -0.5420 C   0  0  0  0  0  0  0  0  0  0  0  0
   -7.3951   23.9592   -0.6267 N   0  0  0  0  0  0  0  0  0  0  0  0
   -7.3829   23.1479    0.4516 C   0  0  0  0  0  0  0  0  0  0  0  0
   -6.6801   23.4166    1.6159 C   0  0  0  0  0  0  0  0  0  0  0  0
   -1.5322   30.6644    8.3623 S   0  0  0  0  0  0  0  0  0  0  0  0
   -0.2296   30.4229    8.9425 O   0  0  0  0  0  0  0  0  0  0  0  0
   -1.6846   31.5513    7.2267 O   0  0  0  0  0  0  0  0  0  0  0  0
   -3.2839   32.6014    9.3382 C   0  0  0  0  0  0  0  0  0  0  0  0
   -2.6587   31.2544    9.6217 C   0  0  0  0  0  0  0  0  0  0  0  0
 23 24  1  0  0  0
 24 20  1  0  0  0
 20 21  2  0  0  0
 20 22  2  0  0  0
 20  1  1  0  0  0
  1  2  1  0  0  0
  2  3  1  0  0  0
  3  4  1  0  0  0
  4  5  1  0  0  0
  5  6  2  0  0  0
  5  9  1  0  0  0
  9 10  2  0  0  0
 10 11  1  0  0  0
 11 14  1  0  0  0
 14 15  2  0  0  0
 15 16  1  0  0  0
 16 17  2  0  0  0
 17 18  1  0  0  0
 18 19  2  0  0  0
 11 12  1  0  0  0
 12 13  2  0  0  0
  4  7  1  0  0  0
  7  8  1  0  0  0
  8  1  1  0  0  0
 13  9  1  0  0  0
 19 14  1  0  0  0
M  END
> <minimizedAffinity>
-8.68603

$$$$
OCNT-2317040


 25 27  0  0  0  0  0  0  0  0999 V2000
   -0.9676   26.8005    5.6346 O   0  0  0  0  0  0  0  0  0  0  0  0
   -2.0709   26.7490    6.1670 C   0  0  0  0  0  0  0  0  0  0  0  0
   -2.5356   27.5412    7.2030 N   0  0  0  0  0  0  0  0  0  0  0  0
   -3.2709   27.0863    7.7464 H   0  0  0  0  0  0  0  0  0  0  0  0
   -1.8779   28.6126    7.8516 C   0  0  0  0  0  0  0  0  0  0  0  0
   -0.5027   28.4432    8.0617 C   0  0  0  0  0  0  0  0  0  0  0  0
    0.3167   29.3366    8.6575 N   0  0  0  0  0  0  0  0  0  0  0  0
   -0.2660   30.4678    9.0907 C   0  0  0  0  0  0  0  0  0  0  0  0
   -1.6282   30.7443    8.9753 C   0  0  0  0  0  0  0  0  0  0  0  0
   -2.4687   29.7849    8.3598 C   0  0  0  0  0  0  0  0  0  0  0  0
   -3.9559   30.0513    8.3092 C   0  0  0  0  0  0  0  0  0  0  0  0
   -4.4385   31.0623    9.3497 C   0  0  0  0  0  0  0  0  0  0  0  0
   -3.5995   32.3267    9.2586 C   0  0  0  0  0  0  0  0  0  0  0  0
   -2.1471   32.0159    9.5987 C   0  0  0  0  0  0  0  0  0  0  0  0
   -3.0925   25.7163    5.7267 C   0  0  0  0  0  0  0  0  0  0  0  0
   -4.0891   26.3057    4.7654 C   0  0  0  0  0  0  0  0  0  0  0  0
   -4.4833   25.6134    3.6274 C   0  0  0  0  0  0  0  0  0  0  0  0
   -5.4177   26.1973    2.7792 C   0  0  0  0  0  0  0  0  0  0  0  0
   -5.9398   27.4491    3.0900 C   0  0  0  0  0  0  0  0  0  0  0  0
   -5.5192   28.0893    4.2553 C   0  0  0  0  0  0  0  0  0  0  0  0
   -4.5927   27.5268    5.0901 N   0  0  0  0  0  0  0  0  0  0  0  0
   -6.0836   29.4638    4.5937 C   0  0  0  0  0  0  0  0  0  0  0  0
   -7.1568   29.3990    5.4319 F   0  0  0  0  0  0  0  0  0  0  0  0
   -5.1776   30.2732    5.2167 F   0  0  0  0  0  0  0  0  0  0  0  0
   -6.5029   30.1585    3.4966 F   0  0  0  0  0  0  0  0  0  0  0  0
  1  2  2  0  0  0
  2 15  1  0  0  0
 15 16  1  0  0  0
 16 17  2  0  0  0
 17 18  1  0  0  0
 18 19  2  0  0  0
 19 20  1  0  0  0
 20 22  1  0  0  0
 22 23  1  0  0  0
 22 24  1  0  0  0
 22 25  1  0  0  0
 20 21  2  0  0  0
  2  3  1  0  0  0
  3  5  1  0  0  0
  5  6  1  0  0  0
  6  7  2  0  0  0
  7  8  1  0  0  0
  8  9  2  0  0  0
  9 10  1  0  0  0
 10 11  1  0  0  0
 11 12  1  0  0  0
 12 13  1  0  0  0
 13 14  1  0  0  0
 21 16  1  0  0  0
 10  5  2  0  0  0
 14  9  1  0  0  0
  3  4  1  0  0  0
M  END
> <minimizedAffinity>
-9.55214

$$$$
OCNT-2317064


 27 30  0  0  0  0  0  0  0  0999 V2000
   -6.0886   27.2601    3.9851 N   0  0  0  0  0  0  0  0  0  0  0  0
   -5.4014   28.4609    3.5251 C   0  0  0  0  0  0  0  0  0  0  0  0
   -6.1344   29.7038    4.0376 C   0  0  0  0  0  0  0  0  0  0  0  0
   -6.7982   29.5239    5.4066 C   0  0  0  0  0  0  0  0  0  0  0  0
   -6.1961   28.3847    6.2344 C   0  0  0  0  0  0  0  0  0  0  0  0
   -6.1847   27.0627    5.4359 C   0  0  0  0  0  0  0  0  0  0  0  0
   -4.8320   28.7320    6.7733 C   0  0  0  0  0  0  0  0  0  0  0  0
   -3.6753   28.1980    6.4352 N   0  0  0  0  0  0  0  0  0  0  0  0
   -2.7268   28.8439    7.1881 C   0  0  0  0  0  0  0  0  0  0  0  0
   -3.3128   29.8009    8.0052 C   0  0  0  0  0  0  0  0  0  0  0  0
   -2.5871   30.6072    8.8827 C   0  0  0  0  0  0  0  0  0  0  0  0
   -1.1993   30.4145    8.9112 C   0  0  0  0  0  0  0  0  0  0  0  0
   -0.5677   29.4679    8.0904 C   0  0  0  0  0  0  0  0  0  0  0  0
    0.9180   29.2676    8.1632 C   0  0  0  0  0  0  0  0  0  0  0  0
   -1.3363   28.6653    7.2281 C   0  0  0  0  0  0  0  0  0  0  0  0
   -4.6501   29.7163    7.7182 N   0  0  0  0  0  0  0  0  0  0  0  0
   -5.3767   30.2806    8.1333 H   0  0  0  0  0  0  0  0  0  0  0  0
   -5.4570   23.8263    3.2319 C   0  0  0  0  0  0  0  0  0  0  0  0
   -5.4254   23.7834    1.8669 C   0  0  0  0  0  0  0  0  0  0  0  0
   -5.6253   24.9903    1.2599 C   0  0  0  0  0  0  0  0  0  0  0  0
   -5.8361   26.1382    1.9246 N   0  0  0  0  0  0  0  0  0  0  0  0
   -5.8449   26.0917    3.2642 C   0  0  0  0  0  0  0  0  0  0  0  0
   -5.6602   24.9478    3.9445 N   0  0  0  0  0  0  0  0  0  0  0  0
   -5.1236   21.5195    2.9929 C   0  0  0  0  0  0  0  0  0  0  0  0
   -5.2585   22.6227    3.8830 O   0  0  0  0  0  0  0  0  0  0  0  0
   -5.6016   24.9887   -0.1225 O   0  0  0  0  0  0  0  0  0  0  0  0
   -6.8682   25.2844   -0.7033 C   0  0  0  0  0  0  0  0  0  0  0  0
 24 25  1  0  0  0
 25 18  1  0  0  0
 18 19  2  0  0  0
 19 20  1  0  0  0
 20 26  1  0  0  0
 26 27  1  0  0  0
 20 21  2  0  0  0
 21 22  1  0  0  0
 22  1  1  0  0  0
  1  2  1  0  0  0
  2  3  1  0  0  0
  3  4  1  0  0  0
  4  5  1  0  0  0
  5  7  1  0  0  0
  7  8  2  0  0  0
  8  9  1  0  0  0
  9 10  1  0  0  0
 10 11  2  0  0  0
 11 12  1  0  0  0
 12 13  2  0  0  0
 13 14  1  0  0  0
 13 15  1  0  0  0
 10 16  1  0  0  0
  5  6  1  0  0  0
 22 23  2  0  0  0
 23 18  1  0  0  0
  6  1  1  0  0  0
 16  7  1  0  0  0
 15  9  2  0  0  0
 16 17  1  0  0  0
M  END
> <minimizedAffinity>
-9.58579

$$$$
OCNT-2317084


 25 27  0  0  0  0  0  0  0  0999 V2000
   -2.1837   26.6071    6.1008 C   0  0  0  0  0  0  0  0  0  0  0  0
   -2.4106   25.6549    6.8432 O   0  0  0  0  0  0  0  0  0  0  0  0
   -3.1506   27.1759    5.3005 N   0  0  0  0  0  0  0  0  0  0  0  0
   -2.8258   27.8111    4.5717 H   0  0  0  0  0  0  0  0  0  0  0  0
   -4.4360   26.5370    5.1320 C   0  0  0  0  0  0  0  0  0  0  0  0
   -4.5178   25.8024    3.8277 C   0  0  0  0  0  0  0  0  0  0  0  0
   -3.7852   24.6898    3.4414 C   0  0  0  0  0  0  0  0  0  0  0  0
   -4.0059   24.1515    2.1739 C   0  0  0  0  0  0  0  0  0  0  0  0
   -4.9527   24.7231    1.3127 C   0  0  0  0  0  0  0  0  0  0  0  0
   -5.6903   25.8391    1.7122 C   0  0  0  0  0  0  0  0  0  0  0  0
   -5.4633   26.3679    2.9732 C   0  0  0  0  0  0  0  0  0  0  0  0
   -6.1098   27.5740    3.5799 C   0  0  0  0  0  0  0  0  0  0  0  0
   -5.6181   27.5496    5.0410 C   0  0  0  0  0  0  0  0  0  0  0  0
   -6.6922   27.1501    5.9052 O   0  0  0  0  0  0  0  0  0  0  0  0
   -6.3316   27.1807    6.8116 H   0  0  0  0  0  0  0  0  0  0  0  0
   -0.8284   27.2842    6.0251 C   0  0  0  0  0  0  0  0  0  0  0  0
   -1.5657   30.0315    8.2566 C   0  0  0  0  0  0  0  0  0  0  0  0
   -1.8268   29.1329    7.3266 N   0  0  0  0  0  0  0  0  0  0  0  0
   -0.7070   28.3594    7.0549 C   0  0  0  0  0  0  0  0  0  0  0  0
    0.4162   28.7027    7.7778 C   0  0  0  0  0  0  0  0  0  0  0  0
    0.0655   30.0134    8.8197 S   0  0  0  0  0  0  0  0  0  0  0  0
   -2.9995   31.9970    7.6536 C   0  0  0  0  0  0  0  0  0  0  0  0
   -2.5893   31.0327    8.7862 C   0  0  0  0  0  0  0  0  0  0  0  0
   -1.9770   31.8575    9.9322 C   0  0  0  0  0  0  0  0  0  0  0  0
   -3.8619   30.3243    9.2840 C   0  0  0  0  0  0  0  0  0  0  0  0
 22 23  1  0  0  0
 23 24  1  0  0  0
 23 25  1  0  0  0
 23 17  1  0  0  0
 17 18  2  0  0  0
 18 19  1  0  0  0
 19 16  1  0  0  0
 16  1  1  0  0  0
  1  2  2  0  0  0
  1  3  1  0  0  0
  3  5  1  0  0  0
  5  6  1  0  0  0
  6  7  2  0  0  0
  7  8  1  0  0  0
  8  9  2  0  0  0
  9 10  1  0  0  0
 10 11  2  0  0  0
 11 12  1  0  0  0
 12 13  1  0  0  0
 13 14  1  0  0  0
 19 20  2  0  0  0
 20 21  1  0  0  0
 21 17  1  0  0  0
 13  5  1  0  0  0
 11  6  1  0  0  0
  3  4  1  0  0  0
 14 15  1  0  0  0
M  END
> <minimizedAffinity>
-8.86875

$$$$
OCNT-2317090


 25 29  0  0  0  0  0  0  0  0999 V2000
   -7.0033   21.9388    1.5453 C   0  0  0  0  0  0  0  0  0  0  0  0
   -6.1641   22.5989    0.6493 C   0  0  0  0  0  0  0  0  0  0  0  0
   -5.5110   23.7676    1.0407 C   0  0  0  0  0  0  0  0  0  0  0  0
   -5.7024   24.2808    2.3245 C   0  0  0  0  0  0  0  0  0  0  0  0
   -5.0090   25.4184    2.6263 O   0  0  0  0  0  0  0  0  0  0  0  0
   -5.3478   26.1369    3.8388 C   0  0  0  0  0  0  0  0  0  0  0  0
   -6.1423   25.3273    4.8513 C   0  0  0  0  0  0  0  0  0  0  0  0
   -6.7018   24.1466    4.5728 C   0  0  0  0  0  0  0  0  0  0  0  0
   -6.5369   23.6204    3.2284 C   0  0  0  0  0  0  0  0  0  0  0  0
   -7.1876   22.4461    2.8335 C   0  0  0  0  0  0  0  0  0  0  0  0
   -6.1394   27.3888    3.3997 C   0  0  0  0  0  0  0  0  0  0  0  0
   -6.2492   28.4419    4.5017 C   0  0  0  0  0  0  0  0  0  0  0  0
   -4.8722   28.8123    5.0532 C   0  0  0  0  0  0  0  0  0  0  0  0
   -4.1895   27.5970    5.5310 N   0  0  0  0  0  0  0  0  0  0  0  0
   -3.9943   26.5834    4.4639 C   0  0  0  0  0  0  0  0  0  0  0  0
   -2.9839   27.8861    6.2072 C   0  0  0  0  0  0  0  0  0  0  0  0
   -1.9055   27.0182    6.0711 C   0  0  0  0  0  0  0  0  0  0  0  0
   -0.7200   27.2885    6.7466 C   0  0  0  0  0  0  0  0  0  0  0  0
   -0.6188   28.4053    7.5515 C   0  0  0  0  0  0  0  0  0  0  0  0
    0.5391   28.6598    8.2027 N   0  0  0  0  0  0  0  0  0  0  0  0
    0.5482   29.7675    8.9688 C   0  0  0  0  0  0  0  0  0  0  0  0
   -0.5566   30.5841    9.0759 C   0  0  0  0  0  0  0  0  0  0  0  0
   -1.7127   30.3290    8.4241 N   0  0  0  0  0  0  0  0  0  0  0  0
   -1.7608   29.2358    7.6530 C   0  0  0  0  0  0  0  0  0  0  0  0
   -2.8988   28.9714    7.0018 N   0  0  0  0  0  0  0  0  0  0  0  0
  1  2  2  0  0  0
  2  3  1  0  0  0
  3  4  2  0  0  0
  4  5  1  0  0  0
  5  6  1  0  0  0
  6  7  1  0  0  0
  7  8  2  0  0  0
  8  9  1  0  0  0
  9 10  2  0  0  0
  6 11  1  0  0  0
 11 12  1  0  0  0
 12 13  1  0  0  0
 13 14  1  0  0  0
 14 16  1  0  0  0
 16 17  2  0  0  0
 17 18  1  0  0  0
 18 19  2  0  0  0
 19 20  1  0  0  0
 20 21  2  0  0  0
 21 22  1  0  0  0
 22 23  2  0  0  0
 23 24  1  0  0  0
 24 25  2  0  0  0
 14 15  1  0  0  0
 10  1  1  0  0  0
 25 16  1  0  0  0
  9  4  1  0  0  0
 24 19  1  0  0  0
 15  6  1  0  0  0
M  END
> <minimizedAffinity>
-10.33748

$$$$
OCNT-2317099


 26 28  0  0  0  0  0  0  0  0999 V2000
   -5.5157   29.4985    5.5960 N   0  0  0  0  0  0  0  0  0  0  0  0
   -6.3147   29.9442    6.6299 C   0  0  0  0  0  0  0  0  0  0  0  0
   -7.5127   30.1885    6.4976 O   0  0  0  0  0  0  0  0  0  0  0  0
   -4.5557   29.2476    5.7843 H   0  0  0  0  0  0  0  0  0  0  0  0
   -6.0515   29.2058    4.2886 C   0  0  0  0  0  0  0  0  0  0  0  0
   -5.6028   25.8498    2.5274 C   0  0  0  0  0  0  0  0  0  0  0  0
   -5.8380   24.9685    3.5855 C   0  0  0  0  0  0  0  0  0  0  0  0
   -6.1473   25.4497    4.8575 C   0  0  0  0  0  0  0  0  0  0  0  0
   -6.2243   26.8226    5.0798 C   0  0  0  0  0  0  0  0  0  0  0  0
   -5.9988   27.7231    4.0292 C   0  0  0  0  0  0  0  0  0  0  0  0
   -5.6795   27.2261    2.7534 C   0  0  0  0  0  0  0  0  0  0  0  0
   -5.3090   23.8222    1.3185 C   0  0  0  0  0  0  0  0  0  0  0  0
   -5.3056   25.2442    1.3370 O   0  0  0  0  0  0  0  0  0  0  0  0
   -5.5729   30.1101    7.9629 C   0  0  0  0  0  0  0  0  0  0  0  0
   -4.8714   31.3933    8.0189 N   0  0  0  0  0  0  0  0  0  0  0  0
   -5.3366   32.3135    9.0498 C   0  0  0  0  0  0  0  0  0  0  0  0
   -4.3149   33.4262    8.9496 C   0  0  0  0  0  0  0  0  0  0  0  0
   -3.0051   32.7034    8.6706 C   0  0  0  0  0  0  0  0  0  0  0  0
   -3.3998   31.3123    8.1463 C   0  0  0  0  0  0  0  0  0  0  0  0
   -2.8393   30.1695    9.0483 C   0  0  0  0  0  0  0  0  0  0  0  0
   -1.6481   29.4670    8.5226 N   0  0  0  0  0  0  0  0  0  0  0  0
   -1.7473   29.3439    7.0588 C   0  0  0  0  0  0  0  0  0  0  0  0
   -0.5722   28.5519    6.4852 C   0  0  0  0  0  0  0  0  0  0  0  0
    0.7568   29.1924    6.8652 C   0  0  0  0  0  0  0  0  0  0  0  0
    0.8281   29.3966    8.3732 C   0  0  0  0  0  0  0  0  0  0  0  0
   -0.3975   30.1458    8.9015 C   0  0  0  0  0  0  0  0  0  0  0  0
 12 13  1  0  0  0
 13  6  1  0  0  0
  6  7  1  0  0  0
  7  8  2  0  0  0
  8  9  1  0  0  0
  9 10  2  0  0  0
 10  5  1  0  0  0
  5  1  1  0  0  0
  1  2  1  0  0  0
  2  3  2  0  0  0
  2 14  1  0  0  0
 14 15  1  0  0  0
 15 16  1  0  0  0
 16 17  1  0  0  0
 17 18  1  0  0  0
 18 19  1  0  0  0
 19 20  1  0  0  0
 20 21  1  0  0  0
 21 22  1  0  0  0
 22 23  1  0  0  0
 23 24  1  0  0  0
 24 25  1  0  0  0
 25 26  1  0  0  0
 10 11  1  0  0  0
 11  6  2  0  0  0
 19 15  1  0  0  0
 26 21  1  0  0  0
  1  4  1  0  0  0
M  END
> <minimizedAffinity>
-8.88298

$$$$
OCNT-2317105


 21 23  0  0  0  0  0  0  0  0999 V2000
   -4.9161   28.7497    6.0130 C   0  0  0  0  0  0  0  0  0  0  0  0
   -3.8266   28.2008    5.8329 O   0  0  0  0  0  0  0  0  0  0  0  0
   -5.0950   29.6381    7.0604 N   0  0  0  0  0  0  0  0  0  0  0  0
   -6.3440   30.2662    7.4708 C   0  0  0  0  0  0  0  0  0  0  0  0
   -5.9548   31.1917    8.6115 C   0  0  0  0  0  0  0  0  0  0  0  0
   -4.7778   30.4637    9.2475 C   0  0  0  0  0  0  0  0  0  0  0  0
   -4.0271   29.8751    8.0440 C   0  0  0  0  0  0  0  0  0  0  0  0
   -6.1078   29.6733    4.0211 C   0  0  0  0  0  0  0  0  0  0  0  0
   -6.0835   28.5469    5.0512 C   0  0  0  0  0  0  0  0  0  0  0  0
   -6.0498   27.2361    4.4166 N   0  0  0  0  0  0  0  0  0  0  0  0
   -6.1941   26.0023    4.9753 C   0  0  0  0  0  0  0  0  0  0  0  0
   -5.9960   25.0780    4.0632 N   0  0  0  0  0  0  0  0  0  0  0  0
   -5.7272   25.8058    2.9417 C   0  0  0  0  0  0  0  0  0  0  0  0
   -5.7330   27.1311    3.1062 N   0  0  0  0  0  0  0  0  0  0  0  0
   -2.9467   30.8198    7.4762 C   0  0  0  0  0  0  0  0  0  0  0  0
   -1.5443   30.2789    7.6201 C   0  0  0  0  0  0  0  0  0  0  0  0
   -0.8243   29.8753    6.4869 C   0  0  0  0  0  0  0  0  0  0  0  0
    0.4697   29.3687    6.6138 C   0  0  0  0  0  0  0  0  0  0  0  0
    1.0572   29.2628    7.8728 C   0  0  0  0  0  0  0  0  0  0  0  0
    0.3523   29.6656    9.0056 C   0  0  0  0  0  0  0  0  0  0  0  0
   -0.9421   30.1731    8.8810 C   0  0  0  0  0  0  0  0  0  0  0  0
  8  9  1  0  0  0
  9  1  1  0  0  0
  1  2  2  0  0  0
  1  3  1  0  0  0
  3  4  1  0  0  0
  4  5  1  0  0  0
  5  6  1  0  0  0
  6  7  1  0  0  0
  7 15  1  0  0  0
 15 16  1  0  0  0
 16 17  2  0  0  0
 17 18  1  0  0  0
 18 19  2  0  0  0
 19 20  1  0  0  0
 20 21  2  0  0  0
  9 10  1  0  0  0
 10 11  1  0  0  0
 11 12  2  0  0  0
 12 13  1  0  0  0
 13 14  2  0  0  0
  7  3  1  0  0  0
 21 16  1  0  0  0
 14 10  1  0  0  0
M  END
> <minimizedAffinity>
-8.30348

$$$$
OCNT-2317109


 25 27  0  0  0  0  0  0  0  0999 V2000
   -6.4780   28.7281    6.1200 C   0  0  0  0  0  0  0  0  0  0  0  0
   -7.1086   29.7591    5.9155 O   0  0  0  0  0  0  0  0  0  0  0  0
   -5.9570   28.3897    7.3521 N   0  0  0  0  0  0  0  0  0  0  0  0
   -5.2626   27.6589    7.4092 H   0  0  0  0  0  0  0  0  0  0  0  0
   -5.7290   25.8885    3.0598 C   0  0  0  0  0  0  0  0  0  0  0  0
   -5.7227   27.2381    2.7098 C   0  0  0  0  0  0  0  0  0  0  0  0
   -5.9643   28.1991    3.6934 C   0  0  0  0  0  0  0  0  0  0  0  0
   -6.2119   27.7902    5.0039 C   0  0  0  0  0  0  0  0  0  0  0  0
   -6.1811   26.4290    5.2713 C   0  0  0  0  0  0  0  0  0  0  0  0
   -5.9543   25.4769    4.3313 N   0  0  0  0  0  0  0  0  0  0  0  0
   -6.1246   23.5008    2.4082 C   0  0  0  0  0  0  0  0  0  0  0  0
   -5.4680   24.8238    2.0119 C   0  0  0  0  0  0  0  0  0  0  0  0
   -5.9553   25.2830    0.6368 C   0  0  0  0  0  0  0  0  0  0  0  0
   -6.0621   29.2866    8.4819 C   0  0  0  0  0  0  0  0  0  0  0  0
   -4.8193   30.1268    8.6182 C   0  0  0  0  0  0  0  0  0  0  0  0
   -4.9066   31.4404    9.0843 C   0  0  0  0  0  0  0  0  0  0  0  0
   -3.7493   32.1912    9.1716 C   0  0  0  0  0  0  0  0  0  0  0  0
   -2.5292   31.7274    8.8278 N   0  0  0  0  0  0  0  0  0  0  0  0
   -2.4451   30.4514    8.3700 C   0  0  0  0  0  0  0  0  0  0  0  0
   -3.5631   29.6264    8.2485 C   0  0  0  0  0  0  0  0  0  0  0  0
   -1.1524   29.9787    8.0071 N   0  0  0  0  0  0  0  0  0  0  0  0
   -0.7143   29.7431    6.7203 C   0  0  0  0  0  0  0  0  0  0  0  0
    0.5786   29.2946    6.8345 C   0  0  0  0  0  0  0  0  0  0  0  0
    0.9591   29.2446    8.1471 N   0  0  0  0  0  0  0  0  0  0  0  0
   -0.0906   29.6606    8.8230 C   0  0  0  0  0  0  0  0  0  0  0  0
 11 12  1  0  0  0
 12 13  1  0  0  0
 12  5  1  0  0  0
  5  6  2  0  0  0
  6  7  1  0  0  0
  7  8  2  0  0  0
  8  1  1  0  0  0
  1  2  2  0  0  0
  1  3  1  0  0  0
  3 14  1  0  0  0
 14 15  1  0  0  0
 15 16  2  0  0  0
 16 17  1  0  0  0
 17 18  2  0  0  0
 18 19  1  0  0  0
 19 21  1  0  0  0
 21 22  1  0  0  0
 22 23  2  0  0  0
 23 24  1  0  0  0
 24 25  2  0  0  0
 19 20  2  0  0  0
  8  9  1  0  0  0
  9 10  2  0  0  0
 10  5  1  0  0  0
 20 15  1  0  0  0
 25 21  1  0  0  0
  3  4  1  0  0  0
M  END
> <minimizedAffinity>
-8.87109

$$$$
OCNT-2317112


 24 25  0  0  0  0  0  0  0  0999 V2000
   -1.3584   28.3366    6.9786 N   0  0  0  0  0  0  0  0  0  0  0  0
   -0.1667   28.7507    6.2459 C   0  0  0  0  0  0  0  0  0  0  0  0
   -2.1997   29.1883    7.6947 C   0  0  0  0  0  0  0  0  0  0  0  0
   -3.2179   28.7632    8.2476 O   0  0  0  0  0  0  0  0  0  0  0  0
   -1.7719   30.6692    7.8441 C   0  0  0  0  0  0  0  0  0  0  0  0
   -0.9107   30.8124    9.1116 C   0  0  0  0  0  0  0  0  0  0  0  0
   -1.4544   32.0520    9.8145 C   0  0  0  0  0  0  0  0  0  0  0  0
   -2.9222   32.0587    9.4322 C   0  0  0  0  0  0  0  0  0  0  0  0
   -2.9122   31.5619    8.0752 N   0  0  0  0  0  0  0  0  0  0  0  0
   -3.9052   31.8779    7.1968 C   0  0  0  0  0  0  0  0  0  0  0  0
   -3.7611   31.3938    5.9387 N   0  0  0  0  0  0  0  0  0  0  0  0
   -4.8852   32.5598    7.4724 O   0  0  0  0  0  0  0  0  0  0  0  0
   -4.4974   31.7206    5.3268 H   0  0  0  0  0  0  0  0  0  0  0  0
   -2.8434   31.4539    5.5311 H   0  0  0  0  0  0  0  0  0  0  0  0
   -1.7776   26.9424    6.8028 C   0  0  0  0  0  0  0  0  0  0  0  0
   -4.6159   26.9261    4.2600 C   0  0  0  0  0  0  0  0  0  0  0  0
   -4.0076   26.3909    3.1306 C   0  0  0  0  0  0  0  0  0  0  0  0
   -2.6612   26.0188    3.1740 C   0  0  0  0  0  0  0  0  0  0  0  0
   -1.9128   26.1790    4.3459 C   0  0  0  0  0  0  0  0  0  0  0  0
   -0.0998   25.6119    4.2857 Br  0  0  0  0  0  0  0  0  0  0  0  0
   -2.5057   26.7205    5.4961 C   0  0  0  0  0  0  0  0  0  0  0  0
   -3.8650   27.0836    5.4290 C   0  0  0  0  0  0  0  0  0  0  0  0
   -6.1615   28.7246    4.4409 C   0  0  0  0  0  0  0  0  0  0  0  0
   -5.9198   27.3254    4.3587 O   0  0  0  0  0  0  0  0  0  0  0  0
 23 24  1  0  0  0
 24 16  1  0  0  0
 16 17  1  0  0  0
 17 18  2  0  0  0
 18 19  1  0  0  0
 19 20  1  0  0  0
 19 21  2  0  0  0
 21 15  1  0  0  0
 15  1  1  0  0  0
  1  2  1  0  0  0
  1  3  1  0  0  0
  3  4  2  0  0  0
  3  5  1  0  0  0
  5  6  1  0  0  0
  6  7  1  0  0  0
  7  8  1  0  0  0
  8  9  1  0  0  0
  9 10  1  0  0  0
 10 11  1  0  0  0
 10 12  2  0  0  0
 21 22  1  0  0  0
 22 16  2  0  0  0
  9  5  1  0  0  0
 11 13  1  0  0  0
 11 14  1  0  0  0
M  END
> <minimizedAffinity>
-8.17634

$$$$
OCNT-2317130


 28 31  0  0  0  0  0  0  0  0999 V2000
   -5.1378   26.8553    5.1950 C   0  0  0  0  0  0  0  0  0  0  0  0
   -6.0119   26.1458    4.3526 C   0  0  0  0  0  0  0  0  0  0  0  0
   -5.5431   25.4919    3.2144 C   0  0  0  0  0  0  0  0  0  0  0  0
   -4.1978   25.5510    2.9060 C   0  0  0  0  0  0  0  0  0  0  0  0
   -3.7432   24.9370    1.8063 F   0  0  0  0  0  0  0  0  0  0  0  0
   -3.3066   26.2405    3.7201 C   0  0  0  0  0  0  0  0  0  0  0  0
   -3.7468   26.8986    4.8878 C   0  0  0  0  0  0  0  0  0  0  0  0
   -2.7773   27.5961    5.7787 C   0  0  0  0  0  0  0  0  0  0  0  0
   -3.0269   28.7382    6.3983 N   0  0  0  0  0  0  0  0  0  0  0  0
   -1.9492   29.1122    7.1913 C   0  0  0  0  0  0  0  0  0  0  0  0
   -1.8707   30.2648    7.9993 C   0  0  0  0  0  0  0  0  0  0  0  0
   -0.7157   30.5173    8.7473 C   0  0  0  0  0  0  0  0  0  0  0  0
    0.3587   29.6350    8.7038 C   0  0  0  0  0  0  0  0  0  0  0  0
    0.3045   28.4823    7.9157 C   0  0  0  0  0  0  0  0  0  0  0  0
   -0.8613   28.2412    7.1686 C   0  0  0  0  0  0  0  0  0  0  0  0
   -1.2243   26.9263    6.1305 S   0  0  0  0  0  0  0  0  0  0  0  0
   -6.3519   28.7373    6.3452 C   0  0  0  0  0  0  0  0  0  0  0  0
   -6.8078   29.3142    5.3602 O   0  0  0  0  0  0  0  0  0  0  0  0
   -5.6250   27.5645    6.3247 N   0  0  0  0  0  0  0  0  0  0  0  0
   -5.4499   27.1014    7.2166 H   0  0  0  0  0  0  0  0  0  0  0  0
   -4.8536   32.1251    9.1166 C   0  0  0  0  0  0  0  0  0  0  0  0
   -6.2739   31.5679    9.0088 C   0  0  0  0  0  0  0  0  0  0  0  0
   -6.5419   30.8885    7.6536 C   0  0  0  0  0  0  0  0  0  0  0  0
   -6.5457   29.3539    7.7279 C   0  0  0  0  0  0  0  0  0  0  0  0
   -5.5559   28.8533    8.7748 C   0  0  0  0  0  0  0  0  0  0  0  0
   -5.8834   29.4261   10.1554 C   0  0  0  0  0  0  0  0  0  0  0  0
   -6.6055   30.7006   10.1425 N   0  0  0  0  0  0  0  0  0  0  0  0
   -7.6078   30.5062   10.1156 H   0  0  0  0  0  0  0  0  0  0  0  0
 21 22  1  0  0  0
 22 23  1  0  0  0
 23 24  1  0  0  0
 24 17  1  0  0  0
 17 18  2  0  0  0
 17 19  1  0  0  0
 19  1  1  0  0  0
  1  2  1  0  0  0
  2  3  2  0  0  0
  3  4  1  0  0  0
  4  5  1  0  0  0
  4  6  2  0  0  0
  6  7  1  0  0  0
  7  8  1  0  0  0
  8  9  2  0  0  0
  9 10  1  0  0  0
 10 11  2  0  0  0
 11 12  1  0  0  0
 12 13  2  0  0  0
 13 14  1  0  0  0
 14 15  2  0  0  0
 15 16  1  0  0  0
 24 25  1  0  0  0
 25 26  1  0  0  0
 26 27  1  0  0  0
 27 22  1  0  0  0
  7  1  2  0  0  0
 16  8  1  0  0  0
 15 10  1  0  0  0
 19 20  1  0  0  0
 27 28  1  0  0  0
M  END
> <minimizedAffinity>
-9.66411

$$$$
OCNT-2317145


 30 34  0  0  0  0  0  0  0  0999 V2000
   -4.2193   28.2654    6.9894 N   0  0  0  0  0  0  0  0  0  0  0  0
   -3.4567   27.5440    6.1039 C   0  0  0  0  0  0  0  0  0  0  0  0
   -2.2560   27.3534    6.2832 O   0  0  0  0  0  0  0  0  0  0  0  0
   -4.1441   27.0850    4.9926 N   0  0  0  0  0  0  0  0  0  0  0  0
   -3.3880   26.4502    3.9176 C   0  0  0  0  0  0  0  0  0  0  0  0
   -3.6773   24.9528    3.8576 C   0  0  0  0  0  0  0  0  0  0  0  0
   -5.1899   24.6782    3.7441 C   0  0  0  0  0  0  0  0  0  0  0  0
   -5.4275   23.1864    3.8671 C   0  0  0  0  0  0  0  0  0  0  0  0
   -5.9587   22.4378    2.8960 C   0  0  0  0  0  0  0  0  0  0  0  0
   -6.3381   23.0976    1.6582 C   0  0  0  0  0  0  0  0  0  0  0  0
   -6.8831   22.3698    0.5938 C   0  0  0  0  0  0  0  0  0  0  0  0
   -7.2638   23.0194   -0.5829 C   0  0  0  0  0  0  0  0  0  0  0  0
   -7.0957   24.3957   -0.7033 C   0  0  0  0  0  0  0  0  0  0  0  0
   -6.5453   25.1219    0.3529 C   0  0  0  0  0  0  0  0  0  0  0  0
   -6.1667   24.4747    1.5300 C   0  0  0  0  0  0  0  0  0  0  0  0
   -5.6441   25.2718    2.5065 O   0  0  0  0  0  0  0  0  0  0  0  0
   -5.9363   25.4073    4.8790 C   0  0  0  0  0  0  0  0  0  0  0  0
   -5.5931   26.8973    4.9069 C   0  0  0  0  0  0  0  0  0  0  0  0
   -4.9730   28.7769    6.5564 H   0  0  0  0  0  0  0  0  0  0  0  0
   -4.6591   29.1036    9.2307 C   0  0  0  0  0  0  0  0  0  0  0  0
   -3.6030   28.9397    8.1367 C   0  0  0  0  0  0  0  0  0  0  0  0
   -2.8833   30.2497    7.7164 C   0  0  0  0  0  0  0  0  0  0  0  0
   -1.6129   30.5338    8.5345 C   0  0  0  0  0  0  0  0  0  0  0  0
   -1.9330   31.4624    9.5999 O   0  0  0  0  0  0  0  0  0  0  0  0
   -3.0353   32.1231    9.1211 C   0  0  0  0  0  0  0  0  0  0  0  0
   -3.5390   33.2860    9.6605 C   0  0  0  0  0  0  0  0  0  0  0  0
   -4.6580   33.8564    9.0503 C   0  0  0  0  0  0  0  0  0  0  0  0
   -5.2480   33.2500    7.9298 C   0  0  0  0  0  0  0  0  0  0  0  0
   -4.7303   32.0617    7.4097 C   0  0  0  0  0  0  0  0  0  0  0  0
   -3.6237   31.5047    8.0278 C   0  0  0  0  0  0  0  0  0  0  0  0
 20 21  1  0  0  0
 21  1  1  0  0  0
  1  2  1  0  0  0
  2  3  2  0  0  0
  2  4  1  0  0  0
  4  5  1  0  0  0
  5  6  1  0  0  0
  6  7  1  0  0  0
  7  8  1  0  0  0
  8  9  2  0  0  0
  9 10  1  0  0  0
 10 11  2  0  0  0
 11 12  1  0  0  0
 12 13  2  0  0  0
 13 14  1  0  0  0
 14 15  2  0  0  0
 15 16  1  0  0  0
  7 17  1  0  0  0
 17 18  1  0  0  0
 21 22  1  0  0  0
 22 23  1  0  0  0
 23 24  1  0  0  0
 24 25  1  0  0  0
 25 26  2  0  0  0
 26 27  1  0  0  0
 27 28  2  0  0  0
 28 29  1  0  0  0
 29 30  2  0  0  0
 18  4  1  0  0  0
 30 22  1  0  0  0
 16  7  1  0  0  0
 30 25  1  0  0  0
 15 10  1  0  0  0
  1 19  1  0  0  0
M  END
> <minimizedAffinity>
-11.95548

$$$$
OCNT-2317158


 22 24  0  0  0  0  0  0  0  0999 V2000
   -5.6726   25.8677    3.4784 C   0  0  0  0  0  0  0  0  0  0  0  0
   -4.4935   25.7099    4.4538 C   0  0  0  0  0  0  0  0  0  0  0  0
   -4.1298   27.0227    5.1577 C   0  0  0  0  0  0  0  0  0  0  0  0
   -5.3416   27.7735    5.4867 N   0  0  0  0  0  0  0  0  0  0  0  0
   -6.0366   28.2352    4.2715 C   0  0  0  0  0  0  0  0  0  0  0  0
   -5.8323   27.3307    3.0505 C   0  0  0  0  0  0  0  0  0  0  0  0
   -4.3620   25.0414    1.4721 C   0  0  0  0  0  0  0  0  0  0  0  0
   -5.5731   24.9833    2.2893 N   0  0  0  0  0  0  0  0  0  0  0  0
   -6.0858   23.6818    2.4740 C   0  0  0  0  0  0  0  0  0  0  0  0
   -5.5665   22.6035    1.7584 C   0  0  0  0  0  0  0  0  0  0  0  0
   -6.0827   21.3212    1.9372 C   0  0  0  0  0  0  0  0  0  0  0  0
   -7.1160   21.1542    2.8302 C   0  0  0  0  0  0  0  0  0  0  0  0
   -7.6300   22.1857    3.5150 N   0  0  0  0  0  0  0  0  0  0  0  0
   -7.1128   23.4493    3.3226 N   0  0  0  0  0  0  0  0  0  0  0  0
   -5.1053   28.8986    6.4056 C   0  0  0  0  0  0  0  0  0  0  0  0
   -3.6115   29.1168    6.6838 C   0  0  0  0  0  0  0  0  0  0  0  0
   -3.2581   30.6070    6.6593 C   0  0  0  0  0  0  0  0  0  0  0  0
   -4.0349   31.2890    5.6469 O   0  0  0  0  0  0  0  0  0  0  0  0
   -3.2921   31.2885    8.0601 C   0  0  0  0  0  0  0  0  0  0  0  0
   -2.0178   32.0522    7.6564 C   0  0  0  0  0  0  0  0  0  0  0  0
   -1.7357   30.9323    6.6386 C   0  0  0  0  0  0  0  0  0  0  0  0
   -4.9612   31.1971    5.9322 H   0  0  0  0  0  0  0  0  0  0  0  0
  7  8  1  0  0  0
  8  9  1  0  0  0
  9 10  2  0  0  0
 10 11  1  0  0  0
 11 12  2  0  0  0
 12 13  1  0  0  0
 13 14  2  0  0  0
  8  1  1  0  0  0
  1  2  1  0  0  0
  2  3  1  0  0  0
  3  4  1  0  0  0
  4 15  1  0  0  0
 15 16  1  0  0  0
 16 17  1  0  0  0
 17 18  1  0  0  0
 17 19  1  0  0  0
 19 20  1  0  0  0
 20 21  1  0  0  0
  4  5  1  0  0  0
  5  6  1  0  0  0
 14  9  1  0  0  0
  6  1  1  0  0  0
 21 17  1  0  0  0
 18 22  1  0  0  0
M  END
> <minimizedAffinity>
-7.71942

$$$$
OCNT-2317163


 27 29  0  0  0  0  0  0  0  0999 V2000
   -4.5731   30.4348    7.7312 C   0  0  0  0  0  0  0  0  0  0  0  0
   -5.5322   30.2074    6.7483 C   0  0  0  0  0  0  0  0  0  0  0  0
   -5.3245   29.2039    5.7934 C   0  0  0  0  0  0  0  0  0  0  0  0
   -4.1549   28.4271    5.7744 C   0  0  0  0  0  0  0  0  0  0  0  0
   -3.2255   28.6573    6.8141 C   0  0  0  0  0  0  0  0  0  0  0  0
   -3.4097   29.6704    7.7692 C   0  0  0  0  0  0  0  0  0  0  0  0
   -5.0476   33.1757    7.9200 C   0  0  0  0  0  0  0  0  0  0  0  0
   -4.8116   31.7321    8.9231 S   0  0  0  0  0  0  0  0  0  0  0  0
   -3.5661   31.8937    9.6487 O   0  0  0  0  0  0  0  0  0  0  0  0
   -6.0508   31.4502    9.6192 O   0  0  0  0  0  0  0  0  0  0  0  0
   -1.7494   27.6615    6.9348 S   0  0  0  0  0  0  0  0  0  0  0  0
   -0.8571   28.3968    8.2811 C   0  0  0  0  0  0  0  0  0  0  0  0
   -0.9711   27.8735    5.7285 O   0  0  0  0  0  0  0  0  0  0  0  0
   -2.1615   26.3239    7.3256 O   0  0  0  0  0  0  0  0  0  0  0  0
   -3.9537   27.3933    4.8522 N   0  0  0  0  0  0  0  0  0  0  0  0
   -3.5288   27.7692    3.9905 H   0  0  0  0  0  0  0  0  0  0  0  0
   -4.9923   26.4035    4.5400 C   0  0  0  0  0  0  0  0  0  0  0  0
   -4.5429   24.9881    4.8916 C   0  0  0  0  0  0  0  0  0  0  0  0
   -5.4477   24.1089    4.0327 C   0  0  0  0  0  0  0  0  0  0  0  0
   -5.6691   24.8962    2.8252 N   0  0  0  0  0  0  0  0  0  0  0  0
   -5.2389   26.2817    3.0153 C   0  0  0  0  0  0  0  0  0  0  0  0
   -6.2522   24.4166    1.6772 C   0  0  0  0  0  0  0  0  0  0  0  0
   -6.2439   25.1492    0.4791 C   0  0  0  0  0  0  0  0  0  0  0  0
   -6.8363   24.6654   -0.6946 C   0  0  0  0  0  0  0  0  0  0  0  0
   -7.4577   23.4234   -0.7006 C   0  0  0  0  0  0  0  0  0  0  0  0
   -7.4829   22.6707    0.4663 C   0  0  0  0  0  0  0  0  0  0  0  0
   -6.8868   23.1646    1.6340 C   0  0  0  0  0  0  0  0  0  0  0  0
  7  8  1  0  0  0
  8  9  2  0  0  0
  8 10  2  0  0  0
  8  1  1  0  0  0
  1  2  1  0  0  0
  2  3  2  0  0  0
  3  4  1  0  0  0
  4 15  1  0  0  0
 15 17  1  0  0  0
 17 18  1  0  0  0
 18 19  1  0  0  0
 19 20  1  0  0  0
 20 22  1  0  0  0
 22 23  2  0  0  0
 23 24  1  0  0  0
 24 25  2  0  0  0
 25 26  1  0  0  0
 26 27  2  0  0  0
 20 21  1  0  0  0
  4  5  2  0  0  0
  5 11  1  0  0  0
 11 12  1  0  0  0
 11 13  2  0  0  0
 11 14  2  0  0  0
  5  6  1  0  0  0
  6  1  2  0  0  0
 21 17  1  0  0  0
 27 22  1  0  0  0
 15 16  1  0  0  0
M  END
> <minimizedAffinity>
-8.71063

$$$$
OCNT-2317169


 28 31  0  0  0  0  0  0  0  0999 V2000
   -5.7209   25.9379    1.7866 O   0  0  0  0  0  0  0  0  0  0  0  0
   -5.2052   25.0851    2.5049 C   0  0  0  0  0  0  0  0  0  0  0  0
   -4.8058   25.3545    3.7901 N   0  0  0  0  0  0  0  0  0  0  0  0
   -5.0028   23.7743    2.0985 N   0  0  0  0  0  0  0  0  0  0  0  0
   -5.7264   23.3206    0.9169 C   0  0  0  0  0  0  0  0  0  0  0  0
   -7.2323   23.1517    1.1633 C   0  0  0  0  0  0  0  0  0  0  0  0
   -7.6134   21.9919    2.0885 C   0  0  0  0  0  0  0  0  0  0  0  0
   -7.3589   22.2308    3.5636 C   0  0  0  0  0  0  0  0  0  0  0  0
   -8.4189   22.7023    4.3574 C   0  0  0  0  0  0  0  0  0  0  0  0
   -8.2508   22.9248    5.7244 C   0  0  0  0  0  0  0  0  0  0  0  0
   -7.0187   22.6848    6.3216 C   0  0  0  0  0  0  0  0  0  0  0  0
   -5.9513   22.2307    5.5505 C   0  0  0  0  0  0  0  0  0  0  0  0
   -6.1049   22.0027    4.1708 C   0  0  0  0  0  0  0  0  0  0  0  0
   -4.8946   21.5939    3.3649 C   0  0  0  0  0  0  0  0  0  0  0  0
   -4.1449   22.7998    2.7865 C   0  0  0  0  0  0  0  0  0  0  0  0
   -4.9758   24.5751    4.4100 H   0  0  0  0  0  0  0  0  0  0  0  0
   -5.0492   26.6637    4.3809 C   0  0  0  0  0  0  0  0  0  0  0  0
   -6.3245   26.6708    5.2293 C   0  0  0  0  0  0  0  0  0  0  0  0
   -6.4855   28.0165    5.9176 C   0  0  0  0  0  0  0  0  0  0  0  0
   -5.3338   28.3207    6.7041 O   0  0  0  0  0  0  0  0  0  0  0  0
   -4.1441   28.4283    5.9133 C   0  0  0  0  0  0  0  0  0  0  0  0
   -3.8506   27.0917    5.2272 C   0  0  0  0  0  0  0  0  0  0  0  0
   -2.9859   28.8467    6.7869 C   0  0  0  0  0  0  0  0  0  0  0  0
   -2.5760   30.1841    6.8423 C   0  0  0  0  0  0  0  0  0  0  0  0
   -1.4863   30.5448    7.6297 C   0  0  0  0  0  0  0  0  0  0  0  0
   -0.8298   29.5508    8.3364 C   0  0  0  0  0  0  0  0  0  0  0  0
   -1.1860   28.2501    8.3053 N   0  0  0  0  0  0  0  0  0  0  0  0
   -2.2544   27.9296    7.5367 C   0  0  0  0  0  0  0  0  0  0  0  0
  1  2  2  0  0  0
  2  3  1  0  0  0
  3 17  1  0  0  0
 17 18  1  0  0  0
 18 19  1  0  0  0
 19 20  1  0  0  0
 20 21  1  0  0  0
 21 23  1  0  0  0
 23 24  1  0  0  0
 24 25  2  0  0  0
 25 26  1  0  0  0
 26 27  2  0  0  0
 27 28  1  0  0  0
 21 22  1  0  0  0
  2  4  1  0  0  0
  4  5  1  0  0  0
  5  6  1  0  0  0
  6  7  1  0  0  0
  7  8  1  0  0  0
  8  9  2  0  0  0
  9 10  1  0  0  0
 10 11  2  0  0  0
 11 12  1  0  0  0
 12 13  2  0  0  0
 13 14  1  0  0  0
 14 15  1  0  0  0
 22 17  1  0  0  0
 15  4  1  0  0  0
 28 23  2  0  0  0
 13  8  1  0  0  0
  3 16  1  0  0  0
M  END
> <minimizedAffinity>
-10.46375

$$$$
OCNT-2317170


 27 30  0  0  0  0  0  0  0  0999 V2000
   -3.9930   25.5067    2.9257 C   0  0  0  0  0  0  0  0  0  0  0  0
   -4.2780   26.6831    2.7248 O   0  0  0  0  0  0  0  0  0  0  0  0
   -2.7961   25.1235    3.5003 N   0  0  0  0  0  0  0  0  0  0  0  0
   -2.5326   24.1546    3.4012 H   0  0  0  0  0  0  0  0  0  0  0  0
   -6.4527   21.1501    2.9931 C   0  0  0  0  0  0  0  0  0  0  0  0
   -5.9947   22.4567    2.5749 N   0  0  0  0  0  0  0  0  0  0  0  0
   -5.0685   23.2111    3.2466 C   0  0  0  0  0  0  0  0  0  0  0  0
   -4.8842   24.4028    2.5597 C   0  0  0  0  0  0  0  0  0  0  0  0
   -5.7613   24.3481    1.4211 C   0  0  0  0  0  0  0  0  0  0  0  0
   -6.0399   25.2350    0.3574 C   0  0  0  0  0  0  0  0  0  0  0  0
   -6.9637   24.8757   -0.6288 C   0  0  0  0  0  0  0  0  0  0  0  0
   -7.6133   23.6479   -0.5729 C   0  0  0  0  0  0  0  0  0  0  0  0
   -7.3609   22.7495    0.4668 C   0  0  0  0  0  0  0  0  0  0  0  0
   -6.4324   23.1215    1.4525 C   0  0  0  0  0  0  0  0  0  0  0  0
   -1.7463   26.0855    3.7683 C   0  0  0  0  0  0  0  0  0  0  0  0
   -1.4004   26.1458    5.2628 C   0  0  0  0  0  0  0  0  0  0  0  0
   -2.6499   26.3759    6.1318 C   0  0  0  0  0  0  0  0  0  0  0  0
   -2.8664   27.8532    6.4569 C   0  0  0  0  0  0  0  0  0  0  0  0
   -1.7077   28.3871    7.1815 N   0  0  0  0  0  0  0  0  0  0  0  0
   -0.3944   27.7885    6.9260 C   0  0  0  0  0  0  0  0  0  0  0  0
   -0.3368   27.2298    5.5058 C   0  0  0  0  0  0  0  0  0  0  0  0
   -1.8477   29.4500    8.0647 C   0  0  0  0  0  0  0  0  0  0  0  0
   -3.0897   29.8112    8.5992 C   0  0  0  0  0  0  0  0  0  0  0  0
   -3.1847   30.8843    9.4771 C   0  0  0  0  0  0  0  0  0  0  0  0
   -2.1360   31.6296    9.8719 N   0  0  0  0  0  0  0  0  0  0  0  0
   -0.9421   31.2796    9.3585 C   0  0  0  0  0  0  0  0  0  0  0  0
   -0.7562   30.2258    8.4718 C   0  0  0  0  0  0  0  0  0  0  0  0
  5  6  1  0  0  0
  6  7  1  0  0  0
  7  8  2  0  0  0
  8  1  1  0  0  0
  1  2  2  0  0  0
  1  3  1  0  0  0
  3 15  1  0  0  0
 15 16  1  0  0  0
 16 17  1  0  0  0
 17 18  1  0  0  0
 18 19  1  0  0  0
 19 22  1  0  0  0
 22 23  2  0  0  0
 23 24  1  0  0  0
 24 25  2  0  0  0
 25 26  1  0  0  0
 26 27  2  0  0  0
 19 20  1  0  0  0
 20 21  1  0  0  0
  8  9  1  0  0  0
  9 10  2  0  0  0
 10 11  1  0  0  0
 11 12  2  0  0  0
 12 13  1  0  0  0
 13 14  2  0  0  0
 14  6  1  0  0  0
 21 16  1  0  0  0
 14  9  1  0  0  0
 27 22  1  0  0  0
  3  4  1  0  0  0
M  END
> <minimizedAffinity>
-10.37518

$$$$
OCNT-2317172


 26 28  0  0  0  0  0  0  0  0999 V2000
   -2.4344   30.5481    7.4228 C   0  0  0  0  0  0  0  0  0  0  0  0
   -2.7179   32.0297    7.1575 C   0  0  0  0  0  0  0  0  0  0  0  0
   -3.0371   32.8114    8.4346 C   0  0  0  0  0  0  0  0  0  0  0  0
   -2.4463   32.1824    9.6954 C   0  0  0  0  0  0  0  0  0  0  0  0
   -1.1564   31.4244    9.4133 C   0  0  0  0  0  0  0  0  0  0  0  0
   -1.3057   30.3998    8.3773 N   0  0  0  0  0  0  0  0  0  0  0  0
   -0.2871   29.4511    8.2680 C   0  0  0  0  0  0  0  0  0  0  0  0
    0.5949   29.3111    9.1095 O   0  0  0  0  0  0  0  0  0  0  0  0
   -0.2689   28.5564    7.0975 C   0  0  0  0  0  0  0  0  0  0  0  0
   -1.0458   27.3962    7.1014 C   0  0  0  0  0  0  0  0  0  0  0  0
   -1.0223   26.5552    5.9893 C   0  0  0  0  0  0  0  0  0  0  0  0
   -0.2159   26.8682    4.8926 C   0  0  0  0  0  0  0  0  0  0  0  0
    0.5765   28.0179    4.9049 C   0  0  0  0  0  0  0  0  0  0  0  0
    0.5570   28.8650    6.0121 C   0  0  0  0  0  0  0  0  0  0  0  0
   -3.6830   28.9372    8.7589 O   0  0  0  0  0  0  0  0  0  0  0  0
   -3.7112   29.8072    7.8910 C   0  0  0  0  0  0  0  0  0  0  0  0
   -4.8666   30.2858    7.3078 N   0  0  0  0  0  0  0  0  0  0  0  0
   -4.8097   30.7310    6.3972 H   0  0  0  0  0  0  0  0  0  0  0  0
   -6.0446   29.5760    7.6414 O   0  0  0  0  0  0  0  0  0  0  0  0
   -6.9920   29.6725    6.5742 C   0  0  0  0  0  0  0  0  0  0  0  0
   -6.5252   28.8629    5.3994 C   0  0  0  0  0  0  0  0  0  0  0  0
   -6.2839   29.4395    4.1485 C   0  0  0  0  0  0  0  0  0  0  0  0
   -5.8905   28.6387    3.0805 C   0  0  0  0  0  0  0  0  0  0  0  0
   -5.7641   27.2769    3.2946 C   0  0  0  0  0  0  0  0  0  0  0  0
   -6.0041   26.6784    4.4809 N   0  0  0  0  0  0  0  0  0  0  0  0
   -6.3791   27.4830    5.5014 C   0  0  0  0  0  0  0  0  0  0  0  0
 15 16  2  0  0  0
 16 17  1  0  0  0
 17 19  1  0  0  0
 19 20  1  0  0  0
 20 21  1  0  0  0
 21 22  1  0  0  0
 22 23  2  0  0  0
 23 24  1  0  0  0
 24 25  2  0  0  0
 25 26  1  0  0  0
 16  1  1  0  0  0
  1  2  1  0  0  0
  2  3  1  0  0  0
  3  4  1  0  0  0
  4  5  1  0  0  0
  5  6  1  0  0  0
  6  7  1  0  0  0
  7  8  2  0  0  0
  7  9  1  0  0  0
  9 10  2  0  0  0
 10 11  1  0  0  0
 11 12  2  0  0  0
 12 13  1  0  0  0
 13 14  2  0  0  0
 26 21  2  0  0  0
  6  1  1  0  0  0
 14  9  1  0  0  0
 17 18  1  0  0  0
M  END
> <minimizedAffinity>
-8.96570

$$$$
OCNT-2317174


 25 26  0  0  0  0  0  0  0  0999 V2000
   -4.7543   27.4825    5.9420 N   0  0  0  0  0  0  0  0  0  0  0  0
   -4.2624   28.7399    6.1554 C   0  0  0  0  0  0  0  0  0  0  0  0
   -4.8910   29.7456    5.8195 O   0  0  0  0  0  0  0  0  0  0  0  0
   -3.0085   28.8047    6.7433 N   0  0  0  0  0  0  0  0  0  0  0  0
   -2.2338   27.6458    7.2125 C   0  0  0  0  0  0  0  0  0  0  0  0
   -0.7276   27.8911    7.1950 C   0  0  0  0  0  0  0  0  0  0  0  0
   -0.3954   29.0861    7.9065 O   0  0  0  0  0  0  0  0  0  0  0  0
   -0.9793   30.2210    7.2611 C   0  0  0  0  0  0  0  0  0  0  0  0
   -2.5152   30.1389    7.1487 C   0  0  0  0  0  0  0  0  0  0  0  0
   -4.4134   26.7418    6.5211 H   0  0  0  0  0  0  0  0  0  0  0  0
   -6.0739   27.2823    5.3864 C   0  0  0  0  0  0  0  0  0  0  0  0
   -6.0644   24.0488    2.4972 C   0  0  0  0  0  0  0  0  0  0  0  0
   -6.3381   23.7896    3.8413 C   0  0  0  0  0  0  0  0  0  0  0  0
   -6.3350   24.8305    4.7833 C   0  0  0  0  0  0  0  0  0  0  0  0
   -6.0646   26.1458    4.3954 C   0  0  0  0  0  0  0  0  0  0  0  0
   -5.7762   26.4005    3.0493 C   0  0  0  0  0  0  0  0  0  0  0  0
   -5.7802   25.3626    2.1206 C   0  0  0  0  0  0  0  0  0  0  0  0
   -5.5100   25.6544    0.8355 F   0  0  0  0  0  0  0  0  0  0  0  0
   -6.0511   23.1336    1.4823 O   0  0  0  0  0  0  0  0  0  0  0  0
   -7.6701   23.3142   -0.3266 C   0  0  0  0  0  0  0  0  0  0  0  0
   -7.2908   22.6281    0.9784 C   0  0  0  0  0  0  0  0  0  0  0  0
   -3.2751   30.7530    8.3558 C   0  0  0  0  0  0  0  0  0  0  0  0
   -2.8584   32.1329    8.9102 C   0  0  0  0  0  0  0  0  0  0  0  0
   -4.0254   33.1023    9.0821 C   0  0  0  0  0  0  0  0  0  0  0  0
   -2.1793   31.9326   10.2782 C   0  0  0  0  0  0  0  0  0  0  0  0
 20 21  1  0  0  0
 21 19  1  0  0  0
 19 12  1  0  0  0
 12 13  1  0  0  0
 13 14  2  0  0  0
 14 15  1  0  0  0
 15 11  1  0  0  0
 11  1  1  0  0  0
  1  2  1  0  0  0
  2  3  2  0  0  0
  2  4  1  0  0  0
  4  5  1  0  0  0
  5  6  1  0  0  0
  6  7  1  0  0  0
  7  8  1  0  0  0
  8  9  1  0  0  0
  9 22  1  0  0  0
 22 23  1  0  0  0
 23 24  1  0  0  0
 23 25  1  0  0  0
 15 16  2  0  0  0
 16 17  1  0  0  0
 17 18  1  0  0  0
 17 12  2  0  0  0
  9  4  1  0  0  0
  1 10  1  0  0  0
M  END
> <minimizedAffinity>
-8.88600

$$$$
OCNT-2317181


 29 31  0  0  0  0  0  0  0  0999 V2000
   -4.3563   29.0883    6.7415 N   0  0  0  0  0  0  0  0  0  0  0  0
   -5.0255   30.0856    5.8972 C   0  0  0  0  0  0  0  0  0  0  0  0
   -6.3287   29.5149    5.2859 C   0  0  0  0  0  0  0  0  0  0  0  0
   -6.2199   28.1859    4.6236 N   0  0  0  0  0  0  0  0  0  0  0  0
   -5.5591   27.2597    5.5760 C   0  0  0  0  0  0  0  0  0  0  0  0
   -4.2146   27.7479    6.1629 C   0  0  0  0  0  0  0  0  0  0  0  0
   -2.3973   31.9576   10.0402 C   0  0  0  0  0  0  0  0  0  0  0  0
   -2.2182   30.9421    8.9526 C   0  0  0  0  0  0  0  0  0  0  0  0
   -0.9593   30.5295    8.5844 C   0  0  0  0  0  0  0  0  0  0  0  0
   -0.8944   29.5950    7.5697 C   0  0  0  0  0  0  0  0  0  0  0  0
   -2.0124   29.1108    6.9710 N   0  0  0  0  0  0  0  0  0  0  0  0
   -3.2083   29.5593    7.3784 C   0  0  0  0  0  0  0  0  0  0  0  0
   -3.3313   30.4672    8.3601 N   0  0  0  0  0  0  0  0  0  0  0  0
    0.4662   29.0995    7.1153 C   0  0  0  0  0  0  0  0  0  0  0  0
    0.5075   27.7762    6.7921 F   0  0  0  0  0  0  0  0  0  0  0  0
    1.4272   29.2791    8.0692 F   0  0  0  0  0  0  0  0  0  0  0  0
    0.9210   29.7666    6.0138 F   0  0  0  0  0  0  0  0  0  0  0  0
   -5.4501   28.2689    3.3540 C   0  0  0  0  0  0  0  0  0  0  0  0
   -4.9408   26.8851    2.9167 C   0  0  0  0  0  0  0  0  0  0  0  0
   -3.7393   26.6392    2.8774 O   0  0  0  0  0  0  0  0  0  0  0  0
   -5.9764   26.0075    2.6508 N   0  0  0  0  0  0  0  0  0  0  0  0
   -6.8942   26.4472    2.6912 H   0  0  0  0  0  0  0  0  0  0  0  0
   -5.9058   24.6601    2.2638 C   0  0  0  0  0  0  0  0  0  0  0  0
   -5.4495   23.6351    3.0973 C   0  0  0  0  0  0  0  0  0  0  0  0
   -5.4109   22.3152    2.6368 C   0  0  0  0  0  0  0  0  0  0  0  0
   -5.8294   22.0240    1.3454 C   0  0  0  0  0  0  0  0  0  0  0  0
   -5.7922   20.7594    0.9064 F   0  0  0  0  0  0  0  0  0  0  0  0
   -6.2878   23.0281    0.5033 C   0  0  0  0  0  0  0  0  0  0  0  0
   -6.3264   24.3465    0.9632 C   0  0  0  0  0  0  0  0  0  0  0  0
  7  8  1  0  0  0
  8  9  2  0  0  0
  9 10  1  0  0  0
 10 14  1  0  0  0
 14 15  1  0  0  0
 14 16  1  0  0  0
 14 17  1  0  0  0
 10 11  2  0  0  0
 11 12  1  0  0  0
 12  1  1  0  0  0
  1  2  1  0  0  0
  2  3  1  0  0  0
  3  4  1  0  0  0
  4 18  1  0  0  0
 18 19  1  0  0  0
 19 20  2  0  0  0
 19 21  1  0  0  0
 21 23  1  0  0  0
 23 24  1  0  0  0
 24 25  2  0  0  0
 25 26  1  0  0  0
 26 27  1  0  0  0
 26 28  2  0  0  0
 28 29  1  0  0  0
  4  5  1  0  0  0
  5  6  1  0  0  0
 12 13  2  0  0  0
 13  8  1  0  0  0
  6  1  1  0  0  0
 29 23  2  0  0  0
 21 22  1  0  0  0
M  END
> <minimizedAffinity>
-10.02529

$$$$
OCNT-2317186


 27 28  0  0  0  0  0  0  0  0999 V2000
   -5.3301   29.9384    4.7343 N   0  0  0  0  0  0  0  0  0  0  0  0
   -5.0153   30.1655    6.0499 C   0  0  0  0  0  0  0  0  0  0  0  0
   -5.2320   29.3719    6.9530 O   0  0  0  0  0  0  0  0  0  0  0  0
   -4.4219   31.3936    6.1997 N   0  0  0  0  0  0  0  0  0  0  0  0
   -5.6038   30.7681    4.2235 H   0  0  0  0  0  0  0  0  0  0  0  0
   -3.9503   31.7141    5.3658 H   0  0  0  0  0  0  0  0  0  0  0  0
   -3.8967   31.8851    7.4731 C   0  0  0  0  0  0  0  0  0  0  0  0
   -4.7384   33.0590    7.9832 C   0  0  0  0  0  0  0  0  0  0  0  0
   -2.3698   32.1997    7.4138 C   0  0  0  0  0  0  0  0  0  0  0  0
   -1.6065   31.2548    6.4576 C   0  0  0  0  0  0  0  0  0  0  0  0
   -1.4922   29.8303    6.9981 C   0  0  0  0  0  0  0  0  0  0  0  0
   -0.8810   29.8092    8.3889 C   0  0  0  0  0  0  0  0  0  0  0  0
    0.4315   30.1499    8.3033 F   0  0  0  0  0  0  0  0  0  0  0  0
   -0.9179   28.5446    8.8786 F   0  0  0  0  0  0  0  0  0  0  0  0
   -1.5747   30.7477    9.3627 C   0  0  0  0  0  0  0  0  0  0  0  0
   -1.6820   32.1617    8.7948 C   0  0  0  0  0  0  0  0  0  0  0  0
   -6.0867   28.7508    4.3699 C   0  0  0  0  0  0  0  0  0  0  0  0
   -3.4464   25.9871    3.7716 N   0  0  0  0  0  0  0  0  0  0  0  0
   -4.0245   25.6536    2.4527 C   0  0  0  0  0  0  0  0  0  0  0  0
   -5.5583   25.6456    2.4959 C   0  0  0  0  0  0  0  0  0  0  0  0
   -6.1152   26.9355    2.7873 O   0  0  0  0  0  0  0  0  0  0  0  0
   -5.2262   27.7755    3.5585 C   0  0  0  0  0  0  0  0  0  0  0  0
   -4.3010   26.9602    4.4887 C   0  0  0  0  0  0  0  0  0  0  0  0
   -2.0497   26.4229    3.6326 C   0  0  0  0  0  0  0  0  0  0  0  0
    0.3400   25.6499    4.0683 C   0  0  0  0  0  0  0  0  0  0  0  0
   -1.0853   25.7302    4.6215 C   0  0  0  0  0  0  0  0  0  0  0  0
   -1.0831   26.4831    5.9547 C   0  0  0  0  0  0  0  0  0  0  0  0
 25 26  1  0  0  0
 26 27  1  0  0  0
 26 24  1  0  0  0
 24 18  1  0  0  0
 18 19  1  0  0  0
 19 20  1  0  0  0
 20 21  1  0  0  0
 21 22  1  0  0  0
 22 17  1  0  0  0
 17  1  1  0  0  0
  1  2  1  0  0  0
  2  3  2  0  0  0
  2  4  1  0  0  0
  4  7  1  0  0  0
  7  8  1  0  0  0
  7  9  1  0  0  0
  9 10  1  0  0  0
 10 11  1  0  0  0
 11 12  1  0  0  0
 12 13  1  0  0  0
 12 14  1  0  0  0
 12 15  1  0  0  0
 15 16  1  0  0  0
 22 23  1  0  0  0
 23 18  1  0  0  0
 16  9  1  0  0  0
  1  5  1  0  0  0
  4  6  1  0  0  0
M  END
> <minimizedAffinity>
-9.21150

$$$$
OCNT-2317192


 27 29  0  0  0  0  0  0  0  0999 V2000
   -3.7794   29.0519    7.0604 N   0  0  0  0  0  0  0  0  0  0  0  0
   -4.6517   29.1031    5.9997 C   0  0  0  0  0  0  0  0  0  0  0  0
   -5.3645   30.0737    5.7477 O   0  0  0  0  0  0  0  0  0  0  0  0
   -4.6862   27.9472    5.2078 N   0  0  0  0  0  0  0  0  0  0  0  0
   -3.9057   26.7331    5.4734 C   0  0  0  0  0  0  0  0  0  0  0  0
   -3.6005   25.9324    4.2121 C   0  0  0  0  0  0  0  0  0  0  0  0
   -4.8819   25.6712    3.4216 C   0  0  0  0  0  0  0  0  0  0  0  0
   -5.5402   27.0029    3.0535 C   0  0  0  0  0  0  0  0  0  0  0  0
   -5.8418   27.8037    4.3155 C   0  0  0  0  0  0  0  0  0  0  0  0
   -3.5206   28.1407    7.4130 H   0  0  0  0  0  0  0  0  0  0  0  0
   -2.2132   30.0069    8.6385 C   0  0  0  0  0  0  0  0  0  0  0  0
   -1.7533   30.9387    9.5036 N   0  0  0  0  0  0  0  0  0  0  0  0
   -2.5328   32.0295    9.6775 C   0  0  0  0  0  0  0  0  0  0  0  0
   -3.7385   32.2449    9.0170 C   0  0  0  0  0  0  0  0  0  0  0  0
   -4.5633   33.4658    9.2821 C   0  0  0  0  0  0  0  0  0  0  0  0
   -4.1873   31.2529    8.1376 C   0  0  0  0  0  0  0  0  0  0  0  0
   -3.4245   30.1036    7.9379 C   0  0  0  0  0  0  0  0  0  0  0  0
   -0.0613   29.0889    8.4471 C   0  0  0  0  0  0  0  0  0  0  0  0
   -1.4665   28.8536    8.4210 O   0  0  0  0  0  0  0  0  0  0  0  0
   -4.6342   24.7581    2.2740 N   0  0  0  0  0  0  0  0  0  0  0  0
   -3.7670   23.6134    2.5721 C   0  0  0  0  0  0  0  0  0  0  0  0
   -5.6937   24.4999    1.3941 C   0  0  0  0  0  0  0  0  0  0  0  0
   -5.9002   25.2359    0.2159 C   0  0  0  0  0  0  0  0  0  0  0  0
   -6.9699   24.9542   -0.6423 C   0  0  0  0  0  0  0  0  0  0  0  0
   -7.8507   23.9173   -0.3420 C   0  0  0  0  0  0  0  0  0  0  0  0
   -7.6665   23.1726    0.8207 C   0  0  0  0  0  0  0  0  0  0  0  0
   -6.6021   23.4688    1.6779 C   0  0  0  0  0  0  0  0  0  0  0  0
 18 19  1  0  0  0
 19 11  1  0  0  0
 11 12  1  0  0  0
 12 13  2  0  0  0
 13 14  1  0  0  0
 14 15  1  0  0  0
 14 16  2  0  0  0
 16 17  1  0  0  0
 17  1  1  0  0  0
  1  2  1  0  0  0
  2  3  2  0  0  0
  2  4  1  0  0  0
  4  5  1  0  0  0
  5  6  1  0  0  0
  6  7  1  0  0  0
  7 20  1  0  0  0
 20 21  1  0  0  0
 20 22  1  0  0  0
 22 23  2  0  0  0
 23 24  1  0  0  0
 24 25  2  0  0  0
 25 26  1  0  0  0
 26 27  2  0  0  0
  7  8  1  0  0  0
  8  9  1  0  0  0
 17 11  2  0  0  0
  9  4  1  0  0  0
 27 22  1  0  0  0
  1 10  1  0  0  0
M  END
> <minimizedAffinity>
-10.12130

$$$$
OCNT-2317197


 28 30  0  0  0  0  0  0  0  0999 V2000
   -5.4822   24.7230    3.5131 N   0  0  0  0  0  0  0  0  0  0  0  0
   -5.8045   26.0432    2.9583 C   0  0  0  0  0  0  0  0  0  0  0  0
   -4.4527   26.7112    2.7029 C   0  0  0  0  0  0  0  0  0  0  0  0
   -3.5107   26.0201    3.6783 C   0  0  0  0  0  0  0  0  0  0  0  0
   -4.0251   24.5682    3.6435 C   0  0  0  0  0  0  0  0  0  0  0  0
   -6.5858   22.8633    2.2903 C   0  0  0  0  0  0  0  0  0  0  0  0
   -7.5285   21.8195    2.2738 C   0  0  0  0  0  0  0  0  0  0  0  0
   -8.2470   21.5008    3.4194 C   0  0  0  0  0  0  0  0  0  0  0  0
   -8.0275   22.2353    4.5740 C   0  0  0  0  0  0  0  0  0  0  0  0
   -8.9006   21.8501    6.0083 Cl  0  0  0  0  0  0  0  0  0  0  0  0
   -7.1105   23.2918    4.5837 C   0  0  0  0  0  0  0  0  0  0  0  0
   -6.3733   23.6625    3.4396 C   0  0  0  0  0  0  0  0  0  0  0  0
   -6.8163   23.7106    0.1477 C   0  0  0  0  0  0  0  0  0  0  0  0
   -5.9307   23.1397    1.1116 O   0  0  0  0  0  0  0  0  0  0  0  0
   -3.6074   26.6157    5.0115 N   0  0  0  0  0  0  0  0  0  0  0  0
   -2.4544   26.9050    5.6994 C   0  0  0  0  0  0  0  0  0  0  0  0
   -1.3258   26.7785    5.2476 O   0  0  0  0  0  0  0  0  0  0  0  0
   -2.7446   27.3530    6.9634 N   0  0  0  0  0  0  0  0  0  0  0  0
   -4.3135   26.2043    5.6075 H   0  0  0  0  0  0  0  0  0  0  0  0
   -3.6001   27.8897    6.9955 H   0  0  0  0  0  0  0  0  0  0  0  0
   -1.6652   27.8240    7.8010 C   0  0  0  0  0  0  0  0  0  0  0  0
   -1.7366   29.3063    7.9246 C   0  0  0  0  0  0  0  0  0  0  0  0
   -0.5852   30.1479    8.4881 C   0  0  0  0  0  0  0  0  0  0  0  0
    0.6942   29.4828    8.9191 C   0  0  0  0  0  0  0  0  0  0  0  0
   -0.9532   31.3593    9.3025 C   0  0  0  0  0  0  0  0  0  0  0  0
   -0.9145   30.1630    7.0326 C   0  0  0  0  0  0  0  0  0  0  0  0
   -1.4785   31.2711    6.4437 F   0  0  0  0  0  0  0  0  0  0  0  0
   -0.0718   29.5960    6.1047 F   0  0  0  0  0  0  0  0  0  0  0  0
 13 14  1  0  0  0
 14  6  1  0  0  0
  6  7  1  0  0  0
  7  8  2  0  0  0
  8  9  1  0  0  0
  9 10  1  0  0  0
  9 11  2  0  0  0
 11 12  1  0  0  0
 12  1  1  0  0  0
  1  2  1  0  0  0
  2  3  1  0  0  0
  3  4  1  0  0  0
  4 15  1  0  0  0
 15 16  1  0  0  0
 16 17  2  0  0  0
 16 18  1  0  0  0
 18 21  1  0  0  0
 21 22  1  0  0  0
 22 23  1  0  0  0
 23 24  1  0  0  0
 23 25  1  0  0  0
 23 26  1  0  0  0
 26 27  1  0  0  0
 26 28  1  0  0  0
  4  5  1  0  0  0
 12  6  2  0  0  0
  5  1  1  0  0  0
 26 22  1  0  0  0
 15 19  1  0  0  0
 18 20  1  0  0  0
M  END
> <minimizedAffinity>
-9.12653

$$$$
OCNT-2317199


 30 33  0  0  0  0  0  0  0  0999 V2000
   -3.4471   25.2766    5.8029 N   0  0  0  0  0  0  0  0  0  0  0  0
   -4.6350   25.4922    5.1551 C   0  0  0  0  0  0  0  0  0  0  0  0
   -4.9188   26.4136    4.4020 O   0  0  0  0  0  0  0  0  0  0  0  0
   -5.5344   24.4812    5.4368 N   0  0  0  0  0  0  0  0  0  0  0  0
   -3.2733   24.3688    6.2018 H   0  0  0  0  0  0  0  0  0  0  0  0
   -5.4478   24.0694    6.3539 H   0  0  0  0  0  0  0  0  0  0  0  0
    0.7225   26.9195    4.1189 C   0  0  0  0  0  0  0  0  0  0  0  0
   -0.4085   26.8874    5.0831 C   0  0  0  0  0  0  0  0  0  0  0  0
   -0.5643   27.6691    6.2180 C   0  0  0  0  0  0  0  0  0  0  0  0
   -2.0319   27.2436    7.0027 S   0  0  0  0  0  0  0  0  0  0  0  0
   -2.3428   26.0867    5.7982 C   0  0  0  0  0  0  0  0  0  0  0  0
   -1.4320   25.9776    4.8609 N   0  0  0  0  0  0  0  0  0  0  0  0
    0.3123   28.7491    6.7762 C   0  0  0  0  0  0  0  0  0  0  0  0
   -0.4635   29.8984    7.3855 C   0  0  0  0  0  0  0  0  0  0  0  0
   -0.3576   30.1823    8.7579 C   0  0  0  0  0  0  0  0  0  0  0  0
   -1.0732   31.2410    9.3181 C   0  0  0  0  0  0  0  0  0  0  0  0
   -1.8981   32.0139    8.5106 C   0  0  0  0  0  0  0  0  0  0  0  0
   -2.5850   33.0298    9.0490 F   0  0  0  0  0  0  0  0  0  0  0  0
   -2.0224   31.7480    7.1526 C   0  0  0  0  0  0  0  0  0  0  0  0
   -1.3077   30.6898    6.5889 C   0  0  0  0  0  0  0  0  0  0  0  0
   -6.8813   24.5779    4.9289 C   0  0  0  0  0  0  0  0  0  0  0  0
   -7.2436   23.2596    4.3630 C   0  0  0  0  0  0  0  0  0  0  0  0
   -7.1368   22.7456    3.0903 C   0  0  0  0  0  0  0  0  0  0  0  0
   -7.6155   21.4311    3.1596 C   0  0  0  0  0  0  0  0  0  0  0  0
   -8.0241   21.1185    4.3910 N   0  0  0  0  0  0  0  0  0  0  0  0
   -7.7842   22.2372    5.1068 N   0  0  0  0  0  0  0  0  0  0  0  0
   -8.1043   22.2535    6.5162 C   0  0  0  0  0  0  0  0  0  0  0  0
   -6.5593   23.4482    1.8474 C   0  0  0  0  0  0  0  0  0  0  0  0
   -5.9809   22.6210    0.7290 C   0  0  0  0  0  0  0  0  0  0  0  0
   -5.0718   23.4258    1.6093 C   0  0  0  0  0  0  0  0  0  0  0  0
  7  8  1  0  0  0
  8  9  2  0  0  0
  9 13  1  0  0  0
 13 14  1  0  0  0
 14 15  1  0  0  0
 15 16  2  0  0  0
 16 17  1  0  0  0
 17 18  1  0  0  0
 17 19  2  0  0  0
 19 20  1  0  0  0
  9 10  1  0  0  0
 10 11  1  0  0  0
 11  1  1  0  0  0
  1  2  1  0  0  0
  2  3  2  0  0  0
  2  4  1  0  0  0
  4 21  1  0  0  0
 21 22  1  0  0  0
 22 23  2  0  0  0
 23 28  1  0  0  0
 28 29  1  0  0  0
 29 30  1  0  0  0
 23 24  1  0  0  0
 24 25  2  0  0  0
 25 26  1  0  0  0
 26 27  1  0  0  0
 11 12  2  0  0  0
 12  8  1  0  0  0
 20 14  2  0  0  0
 26 22  1  0  0  0
 30 28  1  0  0  0
  1  5  1  0  0  0
  4  6  1  0  0  0
M  END
> <minimizedAffinity>
-9.60101

$$$$
OCNT-2317204


 28 31  0  0  0  0  0  0  0  0999 V2000
    0.1992   30.3112    9.0473 C   0  0  0  0  0  0  0  0  0  0  0  0
   -0.8239   29.6229    8.2893 N   0  0  0  0  0  0  0  0  0  0  0  0
   -0.8431   28.2571    8.2125 C   0  0  0  0  0  0  0  0  0  0  0  0
   -1.7130   27.5644    7.5576 N   0  0  0  0  0  0  0  0  0  0  0  0
   -2.6953   28.2569    6.8882 C   0  0  0  0  0  0  0  0  0  0  0  0
   -2.7878   29.5970    6.8855 C   0  0  0  0  0  0  0  0  0  0  0  0
   -3.8681   30.3453    6.1716 C   0  0  0  0  0  0  0  0  0  0  0  0
   -5.0408   29.4371    5.8163 C   0  0  0  0  0  0  0  0  0  0  0  0
   -4.5889   28.1606    5.2687 N   0  0  0  0  0  0  0  0  0  0  0  0
   -5.4580   27.5251    4.3889 C   0  0  0  0  0  0  0  0  0  0  0  0
   -6.5364   28.0016    4.0473 O   0  0  0  0  0  0  0  0  0  0  0  0
   -5.0206   26.3107    3.9286 N   0  0  0  0  0  0  0  0  0  0  0  0
   -3.6774   27.3897    6.1234 C   0  0  0  0  0  0  0  0  0  0  0  0
   -1.7773   30.3740    7.6366 C   0  0  0  0  0  0  0  0  0  0  0  0
   -1.8152   31.6014    7.6550 O   0  0  0  0  0  0  0  0  0  0  0  0
   -4.0234   26.2422    3.7970 H   0  0  0  0  0  0  0  0  0  0  0  0
   -5.8169   25.5406    2.9816 C   0  0  0  0  0  0  0  0  0  0  0  0
   -5.3266   25.8035    1.5469 C   0  0  0  0  0  0  0  0  0  0  0  0
   -5.9383   24.8095    0.5701 C   0  0  0  0  0  0  0  0  0  0  0  0
   -5.4869   23.3928    0.9105 C   0  0  0  0  0  0  0  0  0  0  0  0
   -5.6614   23.0611    2.3703 C   0  0  0  0  0  0  0  0  0  0  0  0
   -5.6520   21.7159    2.7645 C   0  0  0  0  0  0  0  0  0  0  0  0
   -5.4951   20.7560    1.8413 F   0  0  0  0  0  0  0  0  0  0  0  0
   -5.8045   21.3411    4.0930 C   0  0  0  0  0  0  0  0  0  0  0  0
   -5.9710   22.3274    5.0547 C   0  0  0  0  0  0  0  0  0  0  0  0
   -6.1758   21.8865    6.7050 Cl  0  0  0  0  0  0  0  0  0  0  0  0
   -5.9717   23.6754    4.6933 C   0  0  0  0  0  0  0  0  0  0  0  0
   -5.7920   24.0640    3.3508 C   0  0  0  0  0  0  0  0  0  0  0  0
  1  2  1  0  0  0
  2  3  1  0  0  0
  3  4  2  0  0  0
  4  5  1  0  0  0
  5  6  2  0  0  0
  6  7  1  0  0  0
  7  8  1  0  0  0
  8  9  1  0  0  0
  9 10  1  0  0  0
 10 11  2  0  0  0
 10 12  1  0  0  0
 12 17  1  0  0  0
 17 18  1  0  0  0
 18 19  1  0  0  0
 19 20  1  0  0  0
 20 21  1  0  0  0
 21 22  1  0  0  0
 22 23  1  0  0  0
 22 24  2  0  0  0
 24 25  1  0  0  0
 25 26  1  0  0  0
 25 27  2  0  0  0
 27 28  1  0  0  0
  9 13  1  0  0  0
  6 14  1  0  0  0
 14 15  2  0  0  0
 14  2  1  0  0  0
 13  5  1  0  0  0
 28 17  1  0  0  0
 28 21  2  0  0  0
 12 16  1  0  0  0
M  END
> <minimizedAffinity>
-9.91396

$$$$
OCNT-2317216


 22 24  0  0  0  0  0  0  0  0999 V2000
   -3.5847   28.8309    8.6581 O   0  0  0  0  0  0  0  0  0  0  0  0
   -2.8700   28.7322    7.6621 C   0  0  0  0  0  0  0  0  0  0  0  0
   -1.5498   29.1372    7.6546 N   0  0  0  0  0  0  0  0  0  0  0  0
   -0.5793   28.8227    6.6122 C   0  0  0  0  0  0  0  0  0  0  0  0
    0.7432   29.3712    7.1244 C   0  0  0  0  0  0  0  0  0  0  0  0
    0.5754   29.2989    8.6374 C   0  0  0  0  0  0  0  0  0  0  0  0
   -0.8969   29.6798    8.8491 C   0  0  0  0  0  0  0  0  0  0  0  0
   -3.3925   28.1420    6.3707 C   0  0  0  0  0  0  0  0  0  0  0  0
   -4.9124   28.2222    6.3202 C   0  0  0  0  0  0  0  0  0  0  0  0
   -5.3940   28.4876    4.9827 N   0  0  0  0  0  0  0  0  0  0  0  0
   -5.4868   27.6225    3.9349 C   0  0  0  0  0  0  0  0  0  0  0  0
   -5.9900   28.3967    2.9178 C   0  0  0  0  0  0  0  0  0  0  0  0
   -6.1774   29.6734    3.3660 N   0  0  0  0  0  0  0  0  0  0  0  0
   -5.8108   29.7187    4.6401 N   0  0  0  0  0  0  0  0  0  0  0  0
   -1.0551   31.2076    8.9719 C   0  0  0  0  0  0  0  0  0  0  0  0
   -2.1767   31.6372    9.9214 C   0  0  0  0  0  0  0  0  0  0  0  0
   -3.2210   32.4567    9.2004 C   0  0  0  0  0  0  0  0  0  0  0  0
   -3.4864   32.2327    7.8427 C   0  0  0  0  0  0  0  0  0  0  0  0
   -4.4377   33.0026    7.1718 C   0  0  0  0  0  0  0  0  0  0  0  0
   -5.1287   34.0051    7.8499 C   0  0  0  0  0  0  0  0  0  0  0  0
   -4.8687   34.2392    9.1990 C   0  0  0  0  0  0  0  0  0  0  0  0
   -3.9177   33.4701    9.8717 C   0  0  0  0  0  0  0  0  0  0  0  0
  1  2  2  0  0  0
  2  8  1  0  0  0
  8  9  1  0  0  0
  9 10  1  0  0  0
 10 11  1  0  0  0
 11 12  2  0  0  0
 12 13  1  0  0  0
 13 14  2  0  0  0
  2  3  1  0  0  0
  3  4  1  0  0  0
  4  5  1  0  0  0
  5  6  1  0  0  0
  6  7  1  0  0  0
  7 15  1  0  0  0
 15 16  1  0  0  0
 16 17  1  0  0  0
 17 18  2  0  0  0
 18 19  1  0  0  0
 19 20  2  0  0  0
 20 21  1  0  0  0
 21 22  2  0  0  0
 14 10  1  0  0  0
  7  3  1  0  0  0
 22 17  1  0  0  0
M  END
> <minimizedAffinity>
-8.22101

$$$$
OCNT-2317221


 27 31  0  0  0  0  0  0  0  0999 V2000
   -4.3662   26.5868    4.0642 N   0  0  0  0  0  0  0  0  0  0  0  0
   -5.0574   26.1765    4.6894 H   0  0  0  0  0  0  0  0  0  0  0  0
   -3.1244   26.6623    4.6993 C   0  0  0  0  0  0  0  0  0  0  0  0
   -2.0538   25.9739    4.2224 N   0  0  0  0  0  0  0  0  0  0  0  0
   -0.8657   26.0933    4.8553 C   0  0  0  0  0  0  0  0  0  0  0  0
   -0.5709   26.8216    5.9480 N   0  0  0  0  0  0  0  0  0  0  0  0
   -1.6561   27.4816    6.3882 C   0  0  0  0  0  0  0  0  0  0  0  0
   -2.9328   27.4577    5.8460 C   0  0  0  0  0  0  0  0  0  0  0  0
   -3.8065   28.2403    6.5843 N   0  0  0  0  0  0  0  0  0  0  0  0
   -3.0654   28.7413    7.5529 C   0  0  0  0  0  0  0  0  0  0  0  0
   -1.7702   28.3224    7.4572 N   0  0  0  0  0  0  0  0  0  0  0  0
   -0.6917   28.6649    8.4025 C   0  0  0  0  0  0  0  0  0  0  0  0
    0.6532   29.1654    7.9314 C   0  0  0  0  0  0  0  0  0  0  0  0
   -0.2671   30.0902    8.6700 C   0  0  0  0  0  0  0  0  0  0  0  0
   -4.3358   26.0353    2.7246 C   0  0  0  0  0  0  0  0  0  0  0  0
   -5.8030   22.7237    3.7687 C   0  0  0  0  0  0  0  0  0  0  0  0
   -5.0794   23.8990    3.7968 C   0  0  0  0  0  0  0  0  0  0  0  0
   -5.1381   24.7534    2.6899 C   0  0  0  0  0  0  0  0  0  0  0  0
   -5.9571   24.3899    1.5901 C   0  0  0  0  0  0  0  0  0  0  0  0
   -6.1201   25.1838    0.4296 C   0  0  0  0  0  0  0  0  0  0  0  0
   -6.9348   24.7692   -0.6232 C   0  0  0  0  0  0  0  0  0  0  0  0
   -7.6018   23.5566   -0.5353 C   0  0  0  0  0  0  0  0  0  0  0  0
   -7.4535   22.7691    0.6079 C   0  0  0  0  0  0  0  0  0  0  0  0
   -6.6505   23.1591    1.6714 C   0  0  0  0  0  0  0  0  0  0  0  0
   -6.5733   22.3417    2.7332 N   0  0  0  0  0  0  0  0  0  0  0  0
   -6.2152   22.5334    6.0633 C   0  0  0  0  0  0  0  0  0  0  0  0
   -5.6990   21.9193    4.8869 O   0  0  0  0  0  0  0  0  0  0  0  0
 26 27  1  0  0  0
 27 16  1  0  0  0
 16 17  1  0  0  0
 17 18  2  0  0  0
 18 15  1  0  0  0
 15  1  1  0  0  0
  1  3  1  0  0  0
  3  4  1  0  0  0
  4  5  2  0  0  0
  5  6  1  0  0  0
  6  7  2  0  0  0
  7  8  1  0  0  0
  8  9  1  0  0  0
  9 10  2  0  0  0
 10 11  1  0  0  0
 11 12  1  0  0  0
 12 13  1  0  0  0
 13 14  1  0  0  0
 18 19  1  0  0  0
 19 20  2  0  0  0
 20 21  1  0  0  0
 21 22  2  0  0  0
 22 23  1  0  0  0
 23 24  2  0  0  0
 24 25  1  0  0  0
 25 16  2  0  0  0
  8  3  2  0  0  0
 14 12  1  0  0  0
 24 19  1  0  0  0
 11  7  1  0  0  0
  1  2  1  0  0  0
M  END
> <minimizedAffinity>
-9.87750

$$$$
OCNT-2317227


 27 29  0  0  0  0  0  0  0  0999 V2000
   -3.4707   30.1211    8.9406 C   0  0  0  0  0  0  0  0  0  0  0  0
   -3.3832   31.5625    9.4793 C   0  0  0  0  0  0  0  0  0  0  0  0
   -2.0524   32.0969    8.9710 C   0  0  0  0  0  0  0  0  0  0  0  0
   -1.2076   30.8506    8.7803 C   0  0  0  0  0  0  0  0  0  0  0  0
   -2.1515   29.8304    8.3779 N   0  0  0  0  0  0  0  0  0  0  0  0
   -1.6641   28.5565    8.1503 C   0  0  0  0  0  0  0  0  0  0  0  0
   -0.4707   28.2722    8.2553 O   0  0  0  0  0  0  0  0  0  0  0  0
   -2.6231   27.6414    7.7777 N   0  0  0  0  0  0  0  0  0  0  0  0
   -3.3474   28.0489    7.1771 H   0  0  0  0  0  0  0  0  0  0  0  0
   -3.7348   31.1665    6.0233 C   0  0  0  0  0  0  0  0  0  0  0  0
   -4.8064   30.3683    6.7209 C   0  0  0  0  0  0  0  0  0  0  0  0
   -5.9561   30.0653    5.9673 C   0  0  0  0  0  0  0  0  0  0  0  0
   -7.0106   29.3392    6.5162 C   0  0  0  0  0  0  0  0  0  0  0  0
   -6.9384   28.9063    7.8327 C   0  0  0  0  0  0  0  0  0  0  0  0
   -5.8061   29.1846    8.6156 C   0  0  0  0  0  0  0  0  0  0  0  0
   -5.8105   28.6778   10.0394 C   0  0  0  0  0  0  0  0  0  0  0  0
   -4.7001   29.8965    8.0584 C   0  0  0  0  0  0  0  0  0  0  0  0
   -2.2123   26.3118    7.3828 C   0  0  0  0  0  0  0  0  0  0  0  0
   -1.9764   26.2956    5.9030 C   0  0  0  0  0  0  0  0  0  0  0  0
   -0.7781   26.2432    5.3439 N   0  0  0  0  0  0  0  0  0  0  0  0
   -0.9863   26.2771    3.9920 C   0  0  0  0  0  0  0  0  0  0  0  0
   -2.3279   26.3601    3.7127 C   0  0  0  0  0  0  0  0  0  0  0  0
   -2.9562   26.3534    4.9349 N   0  0  0  0  0  0  0  0  0  0  0  0
   -4.3937   26.4379    5.1279 C   0  0  0  0  0  0  0  0  0  0  0  0
   -5.2033   26.1573    3.8510 C   0  0  0  0  0  0  0  0  0  0  0  0
   -6.2197   25.0292    4.0497 C   0  0  0  0  0  0  0  0  0  0  0  0
   -5.9244   27.4267    3.4053 C   0  0  0  0  0  0  0  0  0  0  0  0
 10 11  1  0  0  0
 11 12  1  0  0  0
 12 13  2  0  0  0
 13 14  1  0  0  0
 14 15  2  0  0  0
 15 16  1  0  0  0
 15 17  1  0  0  0
 17  1  1  0  0  0
  1  2  1  0  0  0
  2  3  1  0  0  0
  3  4  1  0  0  0
  4  5  1  0  0  0
  5  6  1  0  0  0
  6  7  2  0  0  0
  6  8  1  0  0  0
  8 18  1  0  0  0
 18 19  1  0  0  0
 19 20  2  0  0  0
 20 21  1  0  0  0
 21 22  2  0  0  0
 22 23  1  0  0  0
 23 24  1  0  0  0
 24 25  1  0  0  0
 25 26  1  0  0  0
 25 27  1  0  0  0
 17 11  2  0  0  0
  5  1  1  0  0  0
 23 19  1  0  0  0
  8  9  1  0  0  0
M  END
> <minimizedAffinity>
-8.58517

$$$$
OCNT-2317229


 28 29  0  0  0  0  0  0  0  0999 V2000
   -4.0263   28.3813    7.1466 N   0  0  0  0  0  0  0  0  0  0  0  0
   -4.5485   27.9890    5.9309 C   0  0  0  0  0  0  0  0  0  0  0  0
   -5.2488   28.7159    5.2391 O   0  0  0  0  0  0  0  0  0  0  0  0
   -4.1634   26.6964    5.6402 N   0  0  0  0  0  0  0  0  0  0  0  0
   -3.9179   27.6441    7.8201 H   0  0  0  0  0  0  0  0  0  0  0  0
   -3.3552   26.3693    6.1474 H   0  0  0  0  0  0  0  0  0  0  0  0
   -4.6433   25.8783    4.6002 C   0  0  0  0  0  0  0  0  0  0  0  0
   -5.9317   25.3387    4.5802 C   0  0  0  0  0  0  0  0  0  0  0  0
   -6.3370   24.5067    3.5308 C   0  0  0  0  0  0  0  0  0  0  0  0
   -5.4582   24.2290    2.4801 C   0  0  0  0  0  0  0  0  0  0  0  0
   -4.1578   24.7336    2.5083 C   0  0  0  0  0  0  0  0  0  0  0  0
   -3.7533   25.5558    3.5664 C   0  0  0  0  0  0  0  0  0  0  0  0
   -5.8570   23.3223    1.3770 C   0  0  0  0  0  0  0  0  0  0  0  0
   -5.6146   22.1256    1.5139 O   0  0  0  0  0  0  0  0  0  0  0  0
   -6.4972   23.8560    0.2581 N   0  0  0  0  0  0  0  0  0  0  0  0
   -6.4474   25.2607   -0.1315 C   0  0  0  0  0  0  0  0  0  0  0  0
   -7.0867   22.9382   -0.6989 C   0  0  0  0  0  0  0  0  0  0  0  0
   -4.3437   29.6825    7.6936 C   0  0  0  0  0  0  0  0  0  0  0  0
   -3.1312   31.5268    9.0380 C   0  0  0  0  0  0  0  0  0  0  0  0
   -1.9173   32.0154    9.5561 C   0  0  0  0  0  0  0  0  0  0  0  0
   -0.7108   31.3497    9.3365 C   0  0  0  0  0  0  0  0  0  0  0  0
   -0.6933   30.1734    8.5960 C   0  0  0  0  0  0  0  0  0  0  0  0
   -1.8840   29.6623    8.0887 C   0  0  0  0  0  0  0  0  0  0  0  0
   -3.1152   30.3138    8.3100 C   0  0  0  0  0  0  0  0  0  0  0  0
   -4.3952   32.3171    9.3188 C   0  0  0  0  0  0  0  0  0  0  0  0
   -5.2629   33.9662    7.5796 C   0  0  0  0  0  0  0  0  0  0  0  0
   -4.3734   33.7744    8.8086 C   0  0  0  0  0  0  0  0  0  0  0  0
   -4.8265   34.7221    9.9218 C   0  0  0  0  0  0  0  0  0  0  0  0
 26 27  1  0  0  0
 27 28  1  0  0  0
 27 25  1  0  0  0
 25 19  1  0  0  0
 19 20  2  0  0  0
 20 21  1  0  0  0
 21 22  2  0  0  0
 22 23  1  0  0  0
 23 24  2  0  0  0
 24 18  1  0  0  0
 18  1  1  0  0  0
  1  2  1  0  0  0
  2  3  2  0  0  0
  2  4  1  0  0  0
  4  7  1  0  0  0
  7  8  1  0  0  0
  8  9  2  0  0  0
  9 10  1  0  0  0
 10 13  1  0  0  0
 13 14  2  0  0  0
 13 15  1  0  0  0
 15 16  1  0  0  0
 15 17  1  0  0  0
 10 11  2  0  0  0
 11 12  1  0  0  0
 24 19  1  0  0  0
 12  7  2  0  0  0
  1  5  1  0  0  0
  4  6  1  0  0  0
M  END
> <minimizedAffinity>
-9.62656

$$$$
OCNT-2317255


 27 29  0  0  0  0  0  0  0  0999 V2000
   -3.8519   26.6731    4.3082 N   0  0  0  0  0  0  0  0  0  0  0  0
   -5.2137   27.1041    4.5981 C   0  0  0  0  0  0  0  0  0  0  0  0
   -2.8265   26.6171    5.2354 C   0  0  0  0  0  0  0  0  0  0  0  0
   -1.7171   26.1519    4.9888 O   0  0  0  0  0  0  0  0  0  0  0  0
   -3.1410   27.1295    6.4691 N   0  0  0  0  0  0  0  0  0  0  0  0
   -3.7484   27.9329    6.4341 H   0  0  0  0  0  0  0  0  0  0  0  0
   -3.5363   26.3796    2.9124 C   0  0  0  0  0  0  0  0  0  0  0  0
   -6.0251   23.1984    1.3550 C   0  0  0  0  0  0  0  0  0  0  0  0
   -6.1969   24.5141    0.9202 C   0  0  0  0  0  0  0  0  0  0  0  0
   -5.3908   25.5404    1.4174 C   0  0  0  0  0  0  0  0  0  0  0  0
   -4.3943   25.2640    2.3617 C   0  0  0  0  0  0  0  0  0  0  0  0
   -4.2266   23.9434    2.7986 C   0  0  0  0  0  0  0  0  0  0  0  0
   -5.0361   22.9168    2.2975 C   0  0  0  0  0  0  0  0  0  0  0  0
   -7.6465   22.7395   -0.3214 C   0  0  0  0  0  0  0  0  0  0  0  0
   -6.8803   22.2931    0.7899 O   0  0  0  0  0  0  0  0  0  0  0  0
   -2.1765   27.0999    7.5463 C   0  0  0  0  0  0  0  0  0  0  0  0
   -1.8065   28.4838    8.0110 C   0  0  0  0  0  0  0  0  0  0  0  0
   -0.4283   28.7371    8.1807 C   0  0  0  0  0  0  0  0  0  0  0  0
    0.0274   29.9444    8.6936 C   0  0  0  0  0  0  0  0  0  0  0  0
   -0.9120   30.8846    9.0453 C   0  0  0  0  0  0  0  0  0  0  0  0
   -2.2386   30.6944    8.9041 N   0  0  0  0  0  0  0  0  0  0  0  0
   -2.6873   29.5137    8.3774 C   0  0  0  0  0  0  0  0  0  0  0  0
   -4.1125   29.4437    8.2599 N   0  0  0  0  0  0  0  0  0  0  0  0
   -4.9647   29.8077    7.2407 C   0  0  0  0  0  0  0  0  0  0  0  0
   -6.2372   29.5136    7.6737 C   0  0  0  0  0  0  0  0  0  0  0  0
   -6.2156   29.0061    8.9369 N   0  0  0  0  0  0  0  0  0  0  0  0
   -4.9446   29.0061    9.2758 C   0  0  0  0  0  0  0  0  0  0  0  0
 14 15  1  0  0  0
 15  8  1  0  0  0
  8  9  1  0  0  0
  9 10  2  0  0  0
 10 11  1  0  0  0
 11  7  1  0  0  0
  7  1  1  0  0  0
  1  2  1  0  0  0
  1  3  1  0  0  0
  3  4  2  0  0  0
  3  5  1  0  0  0
  5 16  1  0  0  0
 16 17  1  0  0  0
 17 18  1  0  0  0
 18 19  2  0  0  0
 19 20  1  0  0  0
 20 21  2  0  0  0
 21 22  1  0  0  0
 22 23  1  0  0  0
 23 24  1  0  0  0
 24 25  2  0  0  0
 25 26  1  0  0  0
 26 27  2  0  0  0
 11 12  2  0  0  0
 12 13  1  0  0  0
 13  8  2  0  0  0
 22 17  2  0  0  0
 27 23  1  0  0  0
  5  6  1  0  0  0
M  END
> <minimizedAffinity>
-8.97089

$$$$
OCNT-2317262


 29 31  0  0  0  0  0  0  0  0999 V2000
   -4.9122   26.2896    2.7517 C   0  0  0  0  0  0  0  0  0  0  0  0
   -3.3805   26.3428    2.8149 C   0  0  0  0  0  0  0  0  0  0  0  0
   -2.8139   25.6702    4.0720 C   0  0  0  0  0  0  0  0  0  0  0  0
   -3.7624   25.7235    5.2715 C   0  0  0  0  0  0  0  0  0  0  0  0
   -4.6310   26.8932    5.1772 N   0  0  0  0  0  0  0  0  0  0  0  0
   -4.4980   28.0696    5.9154 C   0  0  0  0  0  0  0  0  0  0  0  0
   -5.0319   29.1163    5.5568 O   0  0  0  0  0  0  0  0  0  0  0  0
   -3.7454   27.9366    7.0602 N   0  0  0  0  0  0  0  0  0  0  0  0
   -5.5437   26.8821    4.0260 C   0  0  0  0  0  0  0  0  0  0  0  0
   -3.7565   27.0160    7.4678 H   0  0  0  0  0  0  0  0  0  0  0  0
   -3.2811   28.9684    7.9023 C   0  0  0  0  0  0  0  0  0  0  0  0
   -1.9046   29.2286    7.9041 C   0  0  0  0  0  0  0  0  0  0  0  0
   -1.3728   30.2460    8.7010 C   0  0  0  0  0  0  0  0  0  0  0  0
   -2.2143   31.0174    9.4980 C   0  0  0  0  0  0  0  0  0  0  0  0
   -3.5857   30.7738    9.4936 C   0  0  0  0  0  0  0  0  0  0  0  0
   -4.1178   29.7558    8.6958 C   0  0  0  0  0  0  0  0  0  0  0  0
   -6.4357   24.4635    3.2797 N   0  0  0  0  0  0  0  0  0  0  0  0
   -5.3958   24.8687    2.4671 C   0  0  0  0  0  0  0  0  0  0  0  0
   -4.9271   24.1516    1.5900 O   0  0  0  0  0  0  0  0  0  0  0  0
   -6.6813   25.0281    4.0829 H   0  0  0  0  0  0  0  0  0  0  0  0
   -6.9832   23.1194    3.1961 C   0  0  0  0  0  0  0  0  0  0  0  0
   -6.4332   22.1972    4.3040 C   0  0  0  0  0  0  0  0  0  0  0  0
   -5.4562   21.8676    7.0996 C   0  0  0  0  0  0  0  0  0  0  0  0
   -6.8700   22.3572    6.7553 C   0  0  0  0  0  0  0  0  0  0  0  0
   -7.8290   21.8625    7.8579 C   0  0  0  0  0  0  0  0  0  0  0  0
   -9.2701   22.2770    7.5885 C   0  0  0  0  0  0  0  0  0  0  0  0
   -9.6912   21.8363    6.1951 C   0  0  0  0  0  0  0  0  0  0  0  0
   -8.7042   22.3362    5.1422 C   0  0  0  0  0  0  0  0  0  0  0  0
   -7.3317   21.8882    5.4330 N   0  0  0  0  0  0  0  0  0  0  0  0
 23 24  1  0  0  0
 24 25  1  0  0  0
 25 26  1  0  0  0
 26 27  1  0  0  0
 27 28  1  0  0  0
 28 29  1  0  0  0
 29 22  1  0  0  0
 22 21  1  0  0  0
 21 17  1  0  0  0
 17 18  1  0  0  0
 18 19  2  0  0  0
 18  1  1  0  0  0
  1  2  1  0  0  0
  2  3  1  0  0  0
  3  4  1  0  0  0
  4  5  1  0  0  0
  5  6  1  0  0  0
  6  7  2  0  0  0
  6  8  1  0  0  0
  8 11  1  0  0  0
 11 12  2  0  0  0
 12 13  1  0  0  0
 13 14  2  0  0  0
 14 15  1  0  0  0
 15 16  2  0  0  0
  5  9  1  0  0  0
 29 24  1  0  0  0
  9  1  1  0  0  0
 16 11  1  0  0  0
 17 20  1  0  0  0
  8 10  1  0  0  0
M  END
> <minimizedAffinity>
-8.99975

$$$$
OCNT-2317271


 22 24  0  0  0  0  0  0  0  0999 V2000
   -4.5994   26.1031    3.0149 C   0  0  0  0  0  0  0  0  0  0  0  0
   -5.8295   26.7220    3.2566 C   0  0  0  0  0  0  0  0  0  0  0  0
   -5.9846   27.5686    4.3493 C   0  0  0  0  0  0  0  0  0  0  0  0
   -4.9148   27.7921    5.2129 C   0  0  0  0  0  0  0  0  0  0  0  0
   -3.6602   27.1714    5.0160 C   0  0  0  0  0  0  0  0  0  0  0  0
   -2.5423   27.3657    5.8768 C   0  0  0  0  0  0  0  0  0  0  0  0
   -1.3371   26.8020    5.6332 N   0  0  0  0  0  0  0  0  0  0  0  0
   -1.2149   26.0139    4.5501 C   0  0  0  0  0  0  0  0  0  0  0  0
   -2.2463   25.7455    3.6734 C   0  0  0  0  0  0  0  0  0  0  0  0
   -3.5032   26.3287    3.8897 C   0  0  0  0  0  0  0  0  0  0  0  0
   -2.6819   28.1464    7.0470 N   0  0  0  0  0  0  0  0  0  0  0  0
   -1.6848   27.7694    8.0768 C   0  0  0  0  0  0  0  0  0  0  0  0
   -0.8247   28.9699    8.4986 C   0  0  0  0  0  0  0  0  0  0  0  0
   -1.6071   30.0787    8.9587 O   0  0  0  0  0  0  0  0  0  0  0  0
   -2.7420   30.3876    8.1151 C   0  0  0  0  0  0  0  0  0  0  0  0
   -2.7354   29.5976    6.7815 C   0  0  0  0  0  0  0  0  0  0  0  0
   -4.0674   30.1479    8.8911 C   0  0  0  0  0  0  0  0  0  0  0  0
   -5.3430   30.1509    8.1401 N   0  0  0  0  0  0  0  0  0  0  0  0
   -6.0283   31.4379    8.2006 C   0  0  0  0  0  0  0  0  0  0  0  0
   -6.2375   29.0678    8.5390 C   0  0  0  0  0  0  0  0  0  0  0  0
   -5.3983   25.0949    0.9958 C   0  0  0  0  0  0  0  0  0  0  0  0
   -4.3605   25.2611    1.9531 O   0  0  0  0  0  0  0  0  0  0  0  0
 21 22  1  0  0  0
 22  1  1  0  0  0
  1  2  2  0  0  0
  2  3  1  0  0  0
  3  4  2  0  0  0
  4  5  1  0  0  0
  5  6  2  0  0  0
  6 11  1  0  0  0
 11 12  1  0  0  0
 12 13  1  0  0  0
 13 14  1  0  0  0
 14 15  1  0  0  0
 15 17  1  0  0  0
 17 18  1  0  0  0
 18 19  1  0  0  0
 18 20  1  0  0  0
 15 16  1  0  0  0
  6  7  1  0  0  0
  7  8  2  0  0  0
  8  9  1  0  0  0
  9 10  2  0  0  0
 10  1  1  0  0  0
 10  5  1  0  0  0
 16 11  1  0  0  0
M  END
> <minimizedAffinity>
-7.62603

$$$$
OCNT-2317273


 25 27  0  0  0  0  0  0  0  0999 V2000
   -5.2399   24.1976    1.8027 N   0  0  0  0  0  0  0  0  0  0  0  0
   -5.9535   25.3399    1.1883 C   0  0  0  0  0  0  0  0  0  0  0  0
   -6.5253   25.0695   -0.2095 C   0  0  0  0  0  0  0  0  0  0  0  0
   -7.6200   24.0150   -0.2432 C   0  0  0  0  0  0  0  0  0  0  0  0
   -7.0923   22.6776   -0.1391 N   0  0  0  0  0  0  0  0  0  0  0  0
   -6.3356   22.2029    0.8997 C   0  0  0  0  0  0  0  0  0  0  0  0
   -5.7714   21.1166    0.7631 O   0  0  0  0  0  0  0  0  0  0  0  0
   -6.2046   23.1004    2.1592 C   0  0  0  0  0  0  0  0  0  0  0  0
   -7.0684   22.0850   -0.9600 H   0  0  0  0  0  0  0  0  0  0  0  0
   -4.4110   24.6496    2.9397 C   0  0  0  0  0  0  0  0  0  0  0  0
   -5.7276   27.6150    4.4240 N   0  0  0  0  0  0  0  0  0  0  0  0
   -6.3577   26.7455    5.2672 C   0  0  0  0  0  0  0  0  0  0  0  0
   -5.9794   25.4870    4.8679 C   0  0  0  0  0  0  0  0  0  0  0  0
   -5.1116   25.6941    3.7677 C   0  0  0  0  0  0  0  0  0  0  0  0
   -4.9640   27.0006    3.4981 N   0  0  0  0  0  0  0  0  0  0  0  0
   -6.8059   29.5467    5.5209 C   0  0  0  0  0  0  0  0  0  0  0  0
   -5.8177   29.0711    4.4568 C   0  0  0  0  0  0  0  0  0  0  0  0
   -6.1620   29.6403    3.0810 C   0  0  0  0  0  0  0  0  0  0  0  0
   -5.8518   22.1949    3.3728 C   0  0  0  0  0  0  0  0  0  0  0  0
   -6.9385   22.1720    4.4316 C   0  0  0  0  0  0  0  0  0  0  0  0
   -6.6016   22.1492    5.7932 C   0  0  0  0  0  0  0  0  0  0  0  0
   -7.5988   22.1370    6.7696 C   0  0  0  0  0  0  0  0  0  0  0  0
   -8.9411   22.1487    6.3961 C   0  0  0  0  0  0  0  0  0  0  0  0
   -9.2869   22.1716    5.0466 C   0  0  0  0  0  0  0  0  0  0  0  0
   -8.2911   22.1820    4.0687 C   0  0  0  0  0  0  0  0  0  0  0  0
 16 17  1  0  0  0
 17 18  1  0  0  0
 17 11  1  0  0  0
 11 12  1  0  0  0
 12 13  2  0  0  0
 13 14  1  0  0  0
 14 10  1  0  0  0
 10  1  1  0  0  0
  1  2  1  0  0  0
  2  3  1  0  0  0
  3  4  1  0  0  0
  4  5  1  0  0  0
  5  6  1  0  0  0
  6  7  2  0  0  0
  6  8  1  0  0  0
  8 19  1  0  0  0
 19 20  1  0  0  0
 20 21  2  0  0  0
 21 22  1  0  0  0
 22 23  2  0  0  0
 23 24  1  0  0  0
 24 25  2  0  0  0
 14 15  2  0  0  0
 15 11  1  0  0  0
  8  1  1  0  0  0
 25 20  1  0  0  0
  5  9  1  0  0  0
M  END
> <minimizedAffinity>
-8.72624

$$$$
OCNT-2317274


 25 27  0  0  0  0  0  0  0  0999 V2000
   -5.3234   28.2486    6.0522 C   0  0  0  0  0  0  0  0  0  0  0  0
   -4.7416   27.4060    5.0533 O   0  0  0  0  0  0  0  0  0  0  0  0
   -1.1961   27.2374    6.1927 C   0  0  0  0  0  0  0  0  0  0  0  0
   -0.7166   26.3575    5.2218 C   0  0  0  0  0  0  0  0  0  0  0  0
   -1.5732   25.8562    4.2395 C   0  0  0  0  0  0  0  0  0  0  0  0
   -2.9140   26.2339    4.2222 C   0  0  0  0  0  0  0  0  0  0  0  0
   -3.4107   27.1150    5.1823 C   0  0  0  0  0  0  0  0  0  0  0  0
   -2.5498   27.6126    6.1652 C   0  0  0  0  0  0  0  0  0  0  0  0
    1.1503   29.1523    8.4450 C   0  0  0  0  0  0  0  0  0  0  0  0
    0.4611   28.8679    7.1334 C   0  0  0  0  0  0  0  0  0  0  0  0
    0.7022   29.5448    6.1406 O   0  0  0  0  0  0  0  0  0  0  0  0
   -0.3973   27.7863    7.2195 N   0  0  0  0  0  0  0  0  0  0  0  0
   -0.4562   27.3266    8.1190 H   0  0  0  0  0  0  0  0  0  0  0  0
   -5.3526   29.6822    5.5109 C   0  0  0  0  0  0  0  0  0  0  0  0
   -4.6504   30.6709    6.3436 N   0  0  0  0  0  0  0  0  0  0  0  0
   -3.7336   30.8165    5.9173 H   0  0  0  0  0  0  0  0  0  0  0  0
   -4.5690   30.2224    7.7379 C   0  0  0  0  0  0  0  0  0  0  0  0
   -3.1113   30.3857    8.2471 C   0  0  0  0  0  0  0  0  0  0  0  0
   -2.0498   31.3356    7.6922 C   0  0  0  0  0  0  0  0  0  0  0  0
   -1.4580   31.9492    8.9513 C   0  0  0  0  0  0  0  0  0  0  0  0
   -2.6801   32.2472    9.8109 C   0  0  0  0  0  0  0  0  0  0  0  0
   -3.6552   31.1085    9.5050 C   0  0  0  0  0  0  0  0  0  0  0  0
   -5.0201   31.3413    8.7429 C   0  0  0  0  0  0  0  0  0  0  0  0
   -5.2843   32.7540    8.2121 C   0  0  0  0  0  0  0  0  0  0  0  0
   -6.1995   30.9002    9.6231 C   0  0  0  0  0  0  0  0  0  0  0  0
  9 10  1  0  0  0
 10 11  2  0  0  0
 10 12  1  0  0  0
 12  3  1  0  0  0
  3  4  2  0  0  0
  4  5  1  0  0  0
  5  6  2  0  0  0
  6  7  1  0  0  0
  7  2  1  0  0  0
  2  1  1  0  0  0
  1 14  1  0  0  0
 14 15  1  0  0  0
 15 17  1  0  0  0
 17 18  1  0  0  0
 18 19  1  0  0  0
 19 20  1  0  0  0
 20 21  1  0  0  0
 21 22  1  0  0  0
 22 23  1  0  0  0
 23 24  1  0  0  0
 23 25  1  0  0  0
  7  8  2  0  0  0
  8  3  1  0  0  0
 23 17  1  0  0  0
 22 18  1  0  0  0
 12 13  1  0  0  0
 15 16  1  0  0  0
M  END
> <minimizedAffinity>
-8.92470

$$$$
OCNT-2317275


 23 26  0  0  0  0  0  0  0  0999 V2000
   -4.8108   31.0331    7.7522 C   0  0  0  0  0  0  0  0  0  0  0  0
   -5.9309   31.6691    8.5961 C   0  0  0  0  0  0  0  0  0  0  0  0
   -6.3116   30.5717    9.5782 C   0  0  0  0  0  0  0  0  0  0  0  0
   -6.2032   29.3087    8.7309 C   0  0  0  0  0  0  0  0  0  0  0  0
   -5.0868   29.5899    7.8402 N   0  0  0  0  0  0  0  0  0  0  0  0
   -4.7077   28.7650    6.8252 C   0  0  0  0  0  0  0  0  0  0  0  0
   -3.5358   28.1585    6.7626 N   0  0  0  0  0  0  0  0  0  0  0  0
   -3.3873   27.3618    5.6477 N   0  0  0  0  0  0  0  0  0  0  0  0
   -4.4634   27.3758    4.8910 C   0  0  0  0  0  0  0  0  0  0  0  0
   -5.7273   28.3618    5.4856 S   0  0  0  0  0  0  0  0  0  0  0  0
   -4.5526   26.5495    3.5628 C   0  0  0  0  0  0  0  0  0  0  0  0
   -3.5124   25.8966    3.0268 N   0  0  0  0  0  0  0  0  0  0  0  0
   -4.0012   25.3017    1.8747 O   0  0  0  0  0  0  0  0  0  0  0  0
   -5.3161   25.6024    1.7359 C   0  0  0  0  0  0  0  0  0  0  0  0
   -5.7182   26.3919    2.7800 C   0  0  0  0  0  0  0  0  0  0  0  0
   -3.4060   31.3556    8.2959 C   0  0  0  0  0  0  0  0  0  0  0  0
   -2.4271   31.3903    7.2535 O   0  0  0  0  0  0  0  0  0  0  0  0
    1.0293   29.1912    8.0089 C   0  0  0  0  0  0  0  0  0  0  0  0
    0.2976   29.7907    9.0302 C   0  0  0  0  0  0  0  0  0  0  0  0
   -0.8555   30.5161    8.7250 C   0  0  0  0  0  0  0  0  0  0  0  0
   -1.2881   30.6493    7.4021 C   0  0  0  0  0  0  0  0  0  0  0  0
   -0.5509   30.0451    6.3834 C   0  0  0  0  0  0  0  0  0  0  0  0
    0.6052   29.3186    6.6876 C   0  0  0  0  0  0  0  0  0  0  0  0
 18 19  2  0  0  0
 19 20  1  0  0  0
 20 21  2  0  0  0
 21 17  1  0  0  0
 17 16  1  0  0  0
 16  1  1  0  0  0
  1  2  1  0  0  0
  2  3  1  0  0  0
  3  4  1  0  0  0
  4  5  1  0  0  0
  5  6  1  0  0  0
  6  7  2  0  0  0
  7  8  1  0  0  0
  8  9  2  0  0  0
  9 11  1  0  0  0
 11 12  2  0  0  0
 12 13  1  0  0  0
 13 14  1  0  0  0
 14 15  2  0  0  0
  9 10  1  0  0  0
 21 22  1  0  0  0
 22 23  2  0  0  0
 23 18  1  0  0  0
  5  1  1  0  0  0
 10  6  1  0  0  0
 15 11  1  0  0  0
M  END
> <minimizedAffinity>
-8.45628

$$$$
OCNT-2317285


 22 24  0  0  0  0  0  0  0  0999 V2000
   -0.9580   26.5468    5.4613 O   0  0  0  0  0  0  0  0  0  0  0  0
   -2.1374   26.8524    5.6311 C   0  0  0  0  0  0  0  0  0  0  0  0
   -3.1461   26.3213    4.8573 N   0  0  0  0  0  0  0  0  0  0  0  0
   -4.5703   26.5972    4.9577 C   0  0  0  0  0  0  0  0  0  0  0  0
   -5.2204   25.5443    4.0713 C   0  0  0  0  0  0  0  0  0  0  0  0
   -4.1651   25.3150    2.9822 C   0  0  0  0  0  0  0  0  0  0  0  0
   -2.8596   25.3953    3.7749 C   0  0  0  0  0  0  0  0  0  0  0  0
   -2.5717   27.8311    6.7062 C   0  0  0  0  0  0  0  0  0  0  0  0
   -1.3986   28.2591    7.5862 C   0  0  0  0  0  0  0  0  0  0  0  0
   -1.7259   29.5018    8.3745 C   0  0  0  0  0  0  0  0  0  0  0  0
   -0.7181   30.3875    8.7635 C   0  0  0  0  0  0  0  0  0  0  0  0
   -1.0719   31.5287    9.4672 C   0  0  0  0  0  0  0  0  0  0  0  0
   -2.3417   31.8446    9.7991 N   0  0  0  0  0  0  0  0  0  0  0  0
   -3.3001   30.9755    9.4136 C   0  0  0  0  0  0  0  0  0  0  0  0
   -3.0471   29.8093    8.7076 C   0  0  0  0  0  0  0  0  0  0  0  0
   -4.3095   23.9915    2.2312 C   0  0  0  0  0  0  0  0  0  0  0  0
   -5.4726   23.9916    1.2698 C   0  0  0  0  0  0  0  0  0  0  0  0
   -6.3145   22.8751    1.1735 C   0  0  0  0  0  0  0  0  0  0  0  0
   -7.3821   22.8690    0.2748 C   0  0  0  0  0  0  0  0  0  0  0  0
   -7.6181   23.9771   -0.5364 C   0  0  0  0  0  0  0  0  0  0  0  0
   -6.7869   25.0922   -0.4494 C   0  0  0  0  0  0  0  0  0  0  0  0
   -5.7186   25.1002    0.4488 C   0  0  0  0  0  0  0  0  0  0  0  0
  1  2  2  0  0  0
  2  8  1  0  0  0
  8  9  1  0  0  0
  9 10  1  0  0  0
 10 11  2  0  0  0
 11 12  1  0  0  0
 12 13  2  0  0  0
 13 14  1  0  0  0
 14 15  2  0  0  0
  2  3  1  0  0  0
  3  4  1  0  0  0
  4  5  1  0  0  0
  5  6  1  0  0  0
  6 16  1  0  0  0
 16 17  1  0  0  0
 17 18  2  0  0  0
 18 19  1  0  0  0
 19 20  2  0  0  0
 20 21  1  0  0  0
 21 22  2  0  0  0
  6  7  1  0  0  0
 15 10  1  0  0  0
  7  3  1  0  0  0
 22 17  1  0  0  0
M  END
> <minimizedAffinity>
-8.88612

$$$$
OCNT-2317287


 27 30  0  0  0  0  0  0  0  0999 V2000
   -5.7897   28.0899    5.0069 C   0  0  0  0  0  0  0  0  0  0  0  0
   -5.5829   28.0887    3.4798 C   0  0  0  0  0  0  0  0  0  0  0  0
   -4.6245   26.9832    3.0422 C   0  0  0  0  0  0  0  0  0  0  0  0
   -5.0752   25.6389    3.4334 N   0  0  0  0  0  0  0  0  0  0  0  0
   -6.1422   25.6334    4.4316 C   0  0  0  0  0  0  0  0  0  0  0  0
   -5.8467   26.6384    5.5452 C   0  0  0  0  0  0  0  0  0  0  0  0
   -5.1767   24.6794    2.3013 C   0  0  0  0  0  0  0  0  0  0  0  0
   -4.1084   23.6211    2.5406 C   0  0  0  0  0  0  0  0  0  0  0  0
   -4.1872   22.3064    2.8096 C   0  0  0  0  0  0  0  0  0  0  0  0
   -5.4242   21.4822    2.9712 C   0  0  0  0  0  0  0  0  0  0  0  0
   -6.0497   21.0523    1.6432 C   0  0  0  0  0  0  0  0  0  0  0  0
   -6.0177   22.0814    0.5112 C   0  0  0  0  0  0  0  0  0  0  0  0
   -6.8302   23.3524    0.7345 C   0  0  0  0  0  0  0  0  0  0  0  0
   -6.6156   24.1694    2.0156 C   0  0  0  0  0  0  0  0  0  0  0  0
   -4.6749   28.8446    5.7013 C   0  0  0  0  0  0  0  0  0  0  0  0
   -3.5695   28.4043    6.2654 N   0  0  0  0  0  0  0  0  0  0  0  0
   -2.9398   29.5680    6.6725 C   0  0  0  0  0  0  0  0  0  0  0  0
   -3.6223   30.6812    6.3548 N   0  0  0  0  0  0  0  0  0  0  0  0
   -4.7597   30.2073    5.7153 O   0  0  0  0  0  0  0  0  0  0  0  0
   -1.6460   29.5576    7.3626 C   0  0  0  0  0  0  0  0  0  0  0  0
   -1.4346   30.3792    8.4694 C   0  0  0  0  0  0  0  0  0  0  0  0
   -0.1986   30.3425    9.1115 C   0  0  0  0  0  0  0  0  0  0  0  0
    0.7923   29.4951    8.6315 C   0  0  0  0  0  0  0  0  0  0  0  0
    0.5051   28.7133    7.5253 C   0  0  0  0  0  0  0  0  0  0  0  0
   -0.6840   28.7227    6.8855 N   0  0  0  0  0  0  0  0  0  0  0  0
   -7.4058   28.6278    6.7844 C   0  0  0  0  0  0  0  0  0  0  0  0
   -7.0481   28.6850    5.4113 O   0  0  0  0  0  0  0  0  0  0  0  0
 26 27  1  0  0  0
 27  1  1  0  0  0
  1 15  1  0  0  0
 15 16  2  0  0  0
 16 17  1  0  0  0
 17 20  1  0  0  0
 20 21  2  0  0  0
 21 22  1  0  0  0
 22 23  2  0  0  0
 23 24  1  0  0  0
 24 25  2  0  0  0
 17 18  2  0  0  0
 18 19  1  0  0  0
  1  2  1  0  0  0
  2  3  1  0  0  0
  3  4  1  0  0  0
  4  7  1  0  0  0
  7  8  1  0  0  0
  8  9  2  0  0  0
  9 10  1  0  0  0
 10 11  1  0  0  0
 11 12  1  0  0  0
 12 13  1  0  0  0
 13 14  1  0  0  0
  4  5  1  0  0  0
  5  6  1  0  0  0
  6  1  1  0  0  0
 19 15  1  0  0  0
 14  7  1  0  0  0
 25 20  1  0  0  0
M  END
> <minimizedAffinity>
-9.66574

$$$$
OCNT-2317297


 27 29  0  0  0  0  0  0  0  0999 V2000
   -6.5373   27.7922    5.2930 O   0  0  0  0  0  0  0  0  0  0  0  0
   -5.3444   27.5990    5.5068 C   0  0  0  0  0  0  0  0  0  0  0  0
   -4.7470   26.3882    5.2738 N   0  0  0  0  0  0  0  0  0  0  0  0
   -4.4965   28.5830    5.9977 N   0  0  0  0  0  0  0  0  0  0  0  0
   -5.0379   29.9390    6.1106 C   0  0  0  0  0  0  0  0  0  0  0  0
   -5.6097   30.2083    7.5022 C   0  0  0  0  0  0  0  0  0  0  0  0
   -4.5949   30.5283    8.4569 O   0  0  0  0  0  0  0  0  0  0  0  0
   -3.7111   29.4452    8.7592 C   0  0  0  0  0  0  0  0  0  0  0  0
   -2.6635   29.2642    7.6537 C   0  0  0  0  0  0  0  0  0  0  0  0
   -3.1703   28.3072    6.5537 C   0  0  0  0  0  0  0  0  0  0  0  0
   -3.7753   26.4332    5.0065 H   0  0  0  0  0  0  0  0  0  0  0  0
   -1.3142   28.7220    8.1727 C   0  0  0  0  0  0  0  0  0  0  0  0
   -0.1881   29.7003    8.5963 C   0  0  0  0  0  0  0  0  0  0  0  0
    0.6102   29.2965    7.3476 C   0  0  0  0  0  0  0  0  0  0  0  0
   -0.3212   28.0865    7.1684 C   0  0  0  0  0  0  0  0  0  0  0  0
   -5.4962   25.2854    4.6937 C   0  0  0  0  0  0  0  0  0  0  0  0
   -5.3254   25.1672    3.1739 C   0  0  0  0  0  0  0  0  0  0  0  0
   -5.4905   23.7484    2.6718 C   0  0  0  0  0  0  0  0  0  0  0  0
   -5.4187   22.6808    3.5808 C   0  0  0  0  0  0  0  0  0  0  0  0
   -5.5967   21.3661    3.1494 C   0  0  0  0  0  0  0  0  0  0  0  0
   -5.8605   21.1029    1.8075 C   0  0  0  0  0  0  0  0  0  0  0  0
   -5.9375   22.1528    0.8928 C   0  0  0  0  0  0  0  0  0  0  0  0
   -5.7321   23.4687    1.3185 C   0  0  0  0  0  0  0  0  0  0  0  0
   -5.8267   24.5247    0.4520 O   0  0  0  0  0  0  0  0  0  0  0  0
   -7.0100   24.4668   -0.3343 C   0  0  0  0  0  0  0  0  0  0  0  0
   -8.0342   24.0360    0.4439 F   0  0  0  0  0  0  0  0  0  0  0  0
   -7.3101   25.7390   -0.6998 F   0  0  0  0  0  0  0  0  0  0  0  0
  1  2  2  0  0  0
  2  3  1  0  0  0
  3 16  1  0  0  0
 16 17  1  0  0  0
 17 18  1  0  0  0
 18 19  2  0  0  0
 19 20  1  0  0  0
 20 21  2  0  0  0
 21 22  1  0  0  0
 22 23  2  0  0  0
 23 24  1  0  0  0
 24 25  1  0  0  0
 25 26  1  0  0  0
 25 27  1  0  0  0
  2  4  1  0  0  0
  4  5  1  0  0  0
  5  6  1  0  0  0
  6  7  1  0  0  0
  7  8  1  0  0  0
  8  9  1  0  0  0
  9 12  1  0  0  0
 12 13  1  0  0  0
 13 14  1  0  0  0
 14 15  1  0  0  0
  9 10  1  0  0  0
 23 18  1  0  0  0
 10  4  1  0  0  0
 15 12  1  0  0  0
  3 11  1  0  0  0
M  END
> <minimizedAffinity>
-9.49824

$$$$
OCNT-2317299


 25 27  0  0  0  0  0  0  0  0999 V2000
   -6.1474   28.7641    4.1513 O   0  0  0  0  0  0  0  0  0  0  0  0
   -6.0112   27.6873    4.7270 C   0  0  0  0  0  0  0  0  0  0  0  0
   -6.0484   27.5700    6.0914 N   0  0  0  0  0  0  0  0  0  0  0  0
   -5.8121   26.5004    4.0510 N   0  0  0  0  0  0  0  0  0  0  0  0
   -5.9579   25.1640    4.6385 C   0  0  0  0  0  0  0  0  0  0  0  0
   -6.3824   24.1063    3.6001 C   0  0  0  0  0  0  0  0  0  0  0  0
   -5.4551   24.0236    2.4643 N   0  0  0  0  0  0  0  0  0  0  0  0
   -4.9059   25.3245    2.0528 C   0  0  0  0  0  0  0  0  0  0  0  0
   -5.6664   26.5467    2.5956 C   0  0  0  0  0  0  0  0  0  0  0  0
   -5.5801   26.7760    6.4966 H   0  0  0  0  0  0  0  0  0  0  0  0
   -6.3455   28.7033    6.9548 C   0  0  0  0  0  0  0  0  0  0  0  0
   -5.1357   29.6360    7.1138 C   0  0  0  0  0  0  0  0  0  0  0  0
   -4.5513   29.5885    8.4190 O   0  0  0  0  0  0  0  0  0  0  0  0
   -3.1752   29.4909    8.4178 C   0  0  0  0  0  0  0  0  0  0  0  0
   -2.6120   28.3441    7.9602 N   0  0  0  0  0  0  0  0  0  0  0  0
   -1.2577   28.2916    7.9780 C   0  0  0  0  0  0  0  0  0  0  0  0
   -0.4488   29.3148    8.4535 C   0  0  0  0  0  0  0  0  0  0  0  0
    1.2617   29.1568    8.4447 Cl  0  0  0  0  0  0  0  0  0  0  0  0
   -1.0495   30.4675    8.9458 C   0  0  0  0  0  0  0  0  0  0  0  0
   -2.4393   30.5605    8.9326 C   0  0  0  0  0  0  0  0  0  0  0  0
   -3.1889   31.9888    9.5459 Cl  0  0  0  0  0  0  0  0  0  0  0  0
   -5.9113   23.1710    1.3686 C   0  0  0  0  0  0  0  0  0  0  0  0
   -7.2878   23.4800    0.8526 C   0  0  0  0  0  0  0  0  0  0  0  0
   -7.5116   24.3149   -0.3868 C   0  0  0  0  0  0  0  0  0  0  0  0
   -7.7497   22.8320   -0.4314 C   0  0  0  0  0  0  0  0  0  0  0  0
  1  2  2  0  0  0
  2  3  1  0  0  0
  3 11  1  0  0  0
 11 12  1  0  0  0
 12 13  1  0  0  0
 13 14  1  0  0  0
 14 15  1  0  0  0
 15 16  2  0  0  0
 16 17  1  0  0  0
 17 18  1  0  0  0
 17 19  2  0  0  0
 19 20  1  0  0  0
 20 21  1  0  0  0
  2  4  1  0  0  0
  4  5  1  0  0  0
  5  6  1  0  0  0
  6  7  1  0  0  0
  7 22  1  0  0  0
 22 23  1  0  0  0
 23 24  1  0  0  0
 24 25  1  0  0  0
  7  8  1  0  0  0
  8  9  1  0  0  0
 20 14  2  0  0  0
  9  4  1  0  0  0
 25 23  1  0  0  0
  3 10  1  0  0  0
M  END
> <minimizedAffinity>
-9.13452

$$$$
OCNT-2317300


 27 31  0  0  0  0  0  0  0  0999 V2000
   -4.0196   27.4087    4.8797 N   0  0  0  0  0  0  0  0  0  0  0  0
   -4.6118   27.9903    5.9788 C   0  0  0  0  0  0  0  0  0  0  0  0
   -5.8117   27.9149    6.2381 O   0  0  0  0  0  0  0  0  0  0  0  0
   -3.7625   28.7624    6.7506 N   0  0  0  0  0  0  0  0  0  0  0  0
   -4.3057   29.7044    7.7368 C   0  0  0  0  0  0  0  0  0  0  0  0
   -3.1336   30.6124    8.1711 C   0  0  0  0  0  0  0  0  0  0  0  0
   -3.2051   30.9767    9.6643 C   0  0  0  0  0  0  0  0  0  0  0  0
   -2.7914   32.4412    9.7324 C   0  0  0  0  0  0  0  0  0  0  0  0
   -3.3857   33.0232    8.4623 C   0  0  0  0  0  0  0  0  0  0  0  0
   -3.1038   31.9572    7.4089 C   0  0  0  0  0  0  0  0  0  0  0  0
   -1.9602   29.7418    7.7783 C   0  0  0  0  0  0  0  0  0  0  0  0
   -0.6243   29.8914    8.1316 C   0  0  0  0  0  0  0  0  0  0  0  0
    0.3017   28.9651    7.6522 C   0  0  0  0  0  0  0  0  0  0  0  0
   -0.1132   27.9012    6.8409 C   0  0  0  0  0  0  0  0  0  0  0  0
   -1.4580   27.7565    6.4853 C   0  0  0  0  0  0  0  0  0  0  0  0
   -2.3699   28.6969    6.9398 C   0  0  0  0  0  0  0  0  0  0  0  0
   -3.1729   27.8830    4.5965 H   0  0  0  0  0  0  0  0  0  0  0  0
   -5.7784   21.1063    1.9652 C   0  0  0  0  0  0  0  0  0  0  0  0
   -5.5666   22.5248    2.3177 C   0  0  0  0  0  0  0  0  0  0  0  0
   -4.9038   22.8962    3.4183 N   0  0  0  0  0  0  0  0  0  0  0  0
   -4.9464   24.2496    3.3417 N   0  0  0  0  0  0  0  0  0  0  0  0
   -4.4094   25.1807    4.2278 C   0  0  0  0  0  0  0  0  0  0  0  0
   -4.5431   26.4997    3.9900 C   0  0  0  0  0  0  0  0  0  0  0  0
   -5.2858   26.9035    2.7973 C   0  0  0  0  0  0  0  0  0  0  0  0
   -5.8058   26.0037    1.9389 C   0  0  0  0  0  0  0  0  0  0  0  0
   -5.6434   24.6168    2.1914 C   0  0  0  0  0  0  0  0  0  0  0  0
   -6.0379   23.5465    1.5406 N   0  0  0  0  0  0  0  0  0  0  0  0
 18 19  1  0  0  0
 19 20  2  0  0  0
 20 21  1  0  0  0
 21 22  1  0  0  0
 22 23  2  0  0  0
 23  1  1  0  0  0
  1  2  1  0  0  0
  2  3  2  0  0  0
  2  4  1  0  0  0
  4  5  1  0  0  0
  5  6  1  0  0  0
  6  7  1  0  0  0
  7  8  1  0  0  0
  8  9  1  0  0  0
  9 10  1  0  0  0
  6 11  1  0  0  0
 11 12  2  0  0  0
 12 13  1  0  0  0
 13 14  2  0  0  0
 14 15  1  0  0  0
 15 16  2  0  0  0
 23 24  1  0  0  0
 24 25  2  0  0  0
 25 26  1  0  0  0
 26 27  2  0  0  0
 27 19  1  0  0  0
 26 21  1  0  0  0
 16  4  1  0  0  0
 10  6  1  0  0  0
 16 11  1  0  0  0
  1 17  1  0  0  0
M  END
> <minimizedAffinity>
-11.16947

$$$$
OCNT-2317304


 27 31  0  0  0  0  0  0  0  0999 V2000
   -4.6622   27.9650    4.7367 N   0  0  0  0  0  0  0  0  0  0  0  0
   -3.9084   26.7186    4.9283 C   0  0  0  0  0  0  0  0  0  0  0  0
   -4.8245   25.4971    4.9025 C   0  0  0  0  0  0  0  0  0  0  0  0
   -5.7649   25.4895    3.6830 C   0  0  0  0  0  0  0  0  0  0  0  0
   -5.5598   26.7138    2.7800 C   0  0  0  0  0  0  0  0  0  0  0  0
   -5.6112   27.9954    3.6100 C   0  0  0  0  0  0  0  0  0  0  0  0
   -5.7044   24.1957    2.9089 C   0  0  0  0  0  0  0  0  0  0  0  0
   -5.1088   23.0256    3.3549 C   0  0  0  0  0  0  0  0  0  0  0  0
   -5.2527   22.0669    2.3879 N   0  0  0  0  0  0  0  0  0  0  0  0
   -5.9313   22.5822    1.3220 C   0  0  0  0  0  0  0  0  0  0  0  0
   -6.2346   21.8837    0.2120 N   0  0  0  0  0  0  0  0  0  0  0  0
   -6.9115   22.6162   -0.7004 C   0  0  0  0  0  0  0  0  0  0  0  0
   -7.2752   23.9486   -0.5590 C   0  0  0  0  0  0  0  0  0  0  0  0
   -6.9303   24.6245    0.6140 C   0  0  0  0  0  0  0  0  0  0  0  0
   -6.2292   23.9118    1.6038 C   0  0  0  0  0  0  0  0  0  0  0  0
   -4.9255   21.1136    2.4295 H   0  0  0  0  0  0  0  0  0  0  0  0
   -2.5601   30.2647    7.9550 C   0  0  0  0  0  0  0  0  0  0  0  0
   -2.9552   29.5820    6.8222 C   0  0  0  0  0  0  0  0  0  0  0  0
   -4.3373   29.1848    6.8545 C   0  0  0  0  0  0  0  0  0  0  0  0
   -5.1601   28.4797    5.9453 C   0  0  0  0  0  0  0  0  0  0  0  0
   -6.4637   28.3040    6.2772 N   0  0  0  0  0  0  0  0  0  0  0  0
   -6.9128   28.7840    7.4476 C   0  0  0  0  0  0  0  0  0  0  0  0
   -6.2215   29.4426    8.3800 N   0  0  0  0  0  0  0  0  0  0  0  0
   -4.9379   29.6187    8.0242 C   0  0  0  0  0  0  0  0  0  0  0  0
   -3.8608   30.4452    9.0537 S   0  0  0  0  0  0  0  0  0  0  0  0
   -1.2880   31.9198    9.3323 C   0  0  0  0  0  0  0  0  0  0  0  0
   -1.2082   30.8246    8.2799 C   0  0  0  0  0  0  0  0  0  0  0  0
 26 27  1  0  0  0
 27 17  1  0  0  0
 17 18  2  0  0  0
 18 19  1  0  0  0
 19 20  2  0  0  0
 20  1  1  0  0  0
  1  2  1  0  0  0
  2  3  1  0  0  0
  3  4  1  0  0  0
  4  7  1  0  0  0
  7  8  2  0  0  0
  8  9  1  0  0  0
  9 10  1  0  0  0
 10 11  1  0  0  0
 11 12  2  0  0  0
 12 13  1  0  0  0
 13 14  2  0  0  0
 14 15  1  0  0  0
  4  5  1  0  0  0
  5  6  1  0  0  0
 20 21  1  0  0  0
 21 22  2  0  0  0
 22 23  1  0  0  0
 23 24  2  0  0  0
 24 25  1  0  0  0
 25 17  1  0  0  0
 24 19  1  0  0  0
  6  1  1  0  0  0
 15  7  1  0  0  0
 15 10  2  0  0  0
  9 16  1  0  0  0
M  END
> <minimizedAffinity>
-9.63286

$$$$
OCNT-2317309


 29 32  0  0  0  0  0  0  0  0999 V2000
   -6.4243   28.6031    6.3470 C   0  0  0  0  0  0  0  0  0  0  0  0
   -7.3230   29.3894    6.0601 O   0  0  0  0  0  0  0  0  0  0  0  0
   -5.4499   28.7941    7.3087 N   0  0  0  0  0  0  0  0  0  0  0  0
   -4.6450   28.1795    7.1996 H   0  0  0  0  0  0  0  0  0  0  0  0
   -5.3064   29.9260    8.0868 C   0  0  0  0  0  0  0  0  0  0  0  0
   -6.2673   30.4299    8.9394 C   0  0  0  0  0  0  0  0  0  0  0  0
   -5.6677   31.5251    9.5740 C   0  0  0  0  0  0  0  0  0  0  0  0
   -4.4372   31.7602    9.1231 N   0  0  0  0  0  0  0  0  0  0  0  0
   -4.2536   30.8227    8.1490 N   0  0  0  0  0  0  0  0  0  0  0  0
   -3.1593   31.0528    7.2112 C   0  0  0  0  0  0  0  0  0  0  0  0
   -1.9253   30.2947    7.6246 C   0  0  0  0  0  0  0  0  0  0  0  0
   -0.9642   30.6660    8.5492 C   0  0  0  0  0  0  0  0  0  0  0  0
    0.0637   29.6888    8.6880 C   0  0  0  0  0  0  0  0  0  0  0  0
   -0.1502   28.5970    7.8738 C   0  0  0  0  0  0  0  0  0  0  0  0
   -1.5774   28.7560    6.9439 S   0  0  0  0  0  0  0  0  0  0  0  0
   -6.2141   27.3163    5.5297 C   0  0  0  0  0  0  0  0  0  0  0  0
   -5.7001   25.0092    3.1763 N   0  0  0  0  0  0  0  0  0  0  0  0
   -5.4577   26.1941    2.3404 C   0  0  0  0  0  0  0  0  0  0  0  0
   -5.5467   27.4889    3.1926 C   0  0  0  0  0  0  0  0  0  0  0  0
   -5.0550   27.4198    4.5983 N   0  0  0  0  0  0  0  0  0  0  0  0
   -4.1613   26.2401    4.7274 C   0  0  0  0  0  0  0  0  0  0  0  0
   -4.7767   24.8744    4.3217 C   0  0  0  0  0  0  0  0  0  0  0  0
   -7.6915   22.7446   -0.5670 C   0  0  0  0  0  0  0  0  0  0  0  0
   -6.8460   22.6970    0.6672 C   0  0  0  0  0  0  0  0  0  0  0  0
   -6.3720   21.5009    1.0512 N   0  0  0  0  0  0  0  0  0  0  0  0
   -5.6560   21.4946    2.1848 C   0  0  0  0  0  0  0  0  0  0  0  0
   -5.3970   22.6246    2.9254 C   0  0  0  0  0  0  0  0  0  0  0  0
   -5.9132   23.8207    2.4577 C   0  0  0  0  0  0  0  0  0  0  0  0
   -6.6531   23.8516    1.3333 N   0  0  0  0  0  0  0  0  0  0  0  0
 23 24  1  0  0  0
 24 25  2  0  0  0
 25 26  1  0  0  0
 26 27  2  0  0  0
 27 28  1  0  0  0
 28 17  1  0  0  0
 17 18  1  0  0  0
 18 19  1  0  0  0
 19 20  1  0  0  0
 20 16  1  0  0  0
 16  1  1  0  0  0
  1  2  2  0  0  0
  1  3  1  0  0  0
  3  5  1  0  0  0
  5  6  2  0  0  0
  6  7  1  0  0  0
  7  8  2  0  0  0
  8  9  1  0  0  0
  9 10  1  0  0  0
 10 11  1  0  0  0
 11 12  2  0  0  0
 12 13  1  0  0  0
 13 14  2  0  0  0
 14 15  1  0  0  0
 20 21  1  0  0  0
 21 22  1  0  0  0
 28 29  2  0  0  0
 29 24  1  0  0  0
 22 17  1  0  0  0
  9  5  1  0  0  0
 15 11  1  0  0  0
  3  4  1  0  0  0
M  END
> <minimizedAffinity>
-9.14829

$$$$
OCNT-2317310


 25 27  0  0  0  0  0  0  0  0999 V2000
   -5.2348   31.2816    8.5367 N   0  0  0  0  0  0  0  0  0  0  0  0
   -6.2552   30.6748    9.4069 C   0  0  0  0  0  0  0  0  0  0  0  0
   -6.1914   29.1404    9.3314 C   0  0  0  0  0  0  0  0  0  0  0  0
   -6.3769   28.6784    7.9865 O   0  0  0  0  0  0  0  0  0  0  0  0
   -5.3538   29.2200    7.1268 C   0  0  0  0  0  0  0  0  0  0  0  0
   -5.3862   30.7715    7.1596 C   0  0  0  0  0  0  0  0  0  0  0  0
   -5.5573   28.7056    5.7139 C   0  0  0  0  0  0  0  0  0  0  0  0
   -5.4225   27.3426    5.3989 C   0  0  0  0  0  0  0  0  0  0  0  0
   -5.6388   26.8821    4.0968 C   0  0  0  0  0  0  0  0  0  0  0  0
   -5.9980   27.7788    3.0935 C   0  0  0  0  0  0  0  0  0  0  0  0
   -6.1374   29.1265    3.4006 C   0  0  0  0  0  0  0  0  0  0  0  0
   -6.4868   29.9892    2.4371 F   0  0  0  0  0  0  0  0  0  0  0  0
   -5.9241   29.5958    4.6932 C   0  0  0  0  0  0  0  0  0  0  0  0
   -5.1789   32.7492    8.6229 C   0  0  0  0  0  0  0  0  0  0  0  0
   -3.9272   33.3610    9.2610 C   0  0  0  0  0  0  0  0  0  0  0  0
   -2.5225   31.9187   10.5831 O   0  0  0  0  0  0  0  0  0  0  0  0
   -2.8394   32.3183    9.4693 C   0  0  0  0  0  0  0  0  0  0  0  0
   -2.2907   31.9162    8.2607 N   0  0  0  0  0  0  0  0  0  0  0  0
   -2.6688   32.3436    7.4248 H   0  0  0  0  0  0  0  0  0  0  0  0
   -1.2626   30.9730    8.0531 C   0  0  0  0  0  0  0  0  0  0  0  0
   -0.4196   30.4995    9.0596 C   0  0  0  0  0  0  0  0  0  0  0  0
    0.5771   29.5622    8.7675 C   0  0  0  0  0  0  0  0  0  0  0  0
    0.7392   29.0907    7.4672 C   0  0  0  0  0  0  0  0  0  0  0  0
   -0.0957   29.5560    6.4558 C   0  0  0  0  0  0  0  0  0  0  0  0
   -1.0913   30.4922    6.7476 C   0  0  0  0  0  0  0  0  0  0  0  0
 16 17  2  0  0  0
 17 15  1  0  0  0
 15 14  1  0  0  0
 14  1  1  0  0  0
  1  2  1  0  0  0
  2  3  1  0  0  0
  3  4  1  0  0  0
  4  5  1  0  0  0
  5  7  1  0  0  0
  7  8  2  0  0  0
  8  9  1  0  0  0
  9 10  2  0  0  0
 10 11  1  0  0  0
 11 12  1  0  0  0
 11 13  2  0  0  0
  5  6  1  0  0  0
 17 18  1  0  0  0
 18 20  1  0  0  0
 20 21  2  0  0  0
 21 22  1  0  0  0
 22 23  2  0  0  0
 23 24  1  0  0  0
 24 25  2  0  0  0
  6  1  1  0  0  0
 25 20  1  0  0  0
 13  7  1  0  0  0
 18 19  1  0  0  0
M  END
> <minimizedAffinity>
-9.84607

$$$$
OCNT-2317311


 25 27  0  0  0  0  0  0  0  0999 V2000
   -3.2060   29.1634    6.6359 C   0  0  0  0  0  0  0  0  0  0  0  0
   -4.7244   29.1121    6.3990 C   0  0  0  0  0  0  0  0  0  0  0  0
   -5.0489   28.2517    5.1778 C   0  0  0  0  0  0  0  0  0  0  0  0
   -4.4775   26.9059    5.3575 N   0  0  0  0  0  0  0  0  0  0  0  0
   -3.0154   26.9002    5.5305 C   0  0  0  0  0  0  0  0  0  0  0  0
   -2.6387   27.7388    6.7522 C   0  0  0  0  0  0  0  0  0  0  0  0
   -0.3412   29.9071    7.2979 C   0  0  0  0  0  0  0  0  0  0  0  0
   -1.4996   30.3626    8.1439 C   0  0  0  0  0  0  0  0  0  0  0  0
   -1.2270   31.1566    9.2717 C   0  0  0  0  0  0  0  0  0  0  0  0
   -2.2591   31.6043   10.0863 C   0  0  0  0  0  0  0  0  0  0  0  0
   -1.9762   32.3594   11.1560 F   0  0  0  0  0  0  0  0  0  0  0  0
   -3.5757   31.2801    9.8069 C   0  0  0  0  0  0  0  0  0  0  0  0
   -3.8642   30.4937    8.6922 C   0  0  0  0  0  0  0  0  0  0  0  0
   -2.8403   30.0222    7.8430 C   0  0  0  0  0  0  0  0  0  0  0  0
   -4.8925   26.0122    4.3416 C   0  0  0  0  0  0  0  0  0  0  0  0
   -4.1420   25.9039    3.1732 C   0  0  0  0  0  0  0  0  0  0  0  0
   -4.5321   25.0191    2.1679 C   0  0  0  0  0  0  0  0  0  0  0  0
   -5.6739   24.2611    2.3587 C   0  0  0  0  0  0  0  0  0  0  0  0
   -6.3806   24.3467    3.5027 N   0  0  0  0  0  0  0  0  0  0  0  0
   -5.9853   25.2291    4.4907 N   0  0  0  0  0  0  0  0  0  0  0  0
   -6.0986   23.2736    1.3212 C   0  0  0  0  0  0  0  0  0  0  0  0
   -5.8493   22.0851    1.5396 O   0  0  0  0  0  0  0  0  0  0  0  0
   -6.7480   23.6888    0.1524 N   0  0  0  0  0  0  0  0  0  0  0  0
   -7.3597   22.6865   -0.7033 C   0  0  0  0  0  0  0  0  0  0  0  0
   -6.8958   25.0733   -0.2732 C   0  0  0  0  0  0  0  0  0  0  0  0
  7  8  1  0  0  0
  8  9  1  0  0  0
  9 10  2  0  0  0
 10 11  1  0  0  0
 10 12  1  0  0  0
 12 13  2  0  0  0
 13 14  1  0  0  0
 14  1  1  0  0  0
  1  2  1  0  0  0
  2  3  1  0  0  0
  3  4  1  0  0  0
  4 15  1  0  0  0
 15 16  2  0  0  0
 16 17  1  0  0  0
 17 18  2  0  0  0
 18 21  1  0  0  0
 21 22  2  0  0  0
 21 23  1  0  0  0
 23 24  1  0  0  0
 23 25  1  0  0  0
 18 19  1  0  0  0
 19 20  2  0  0  0
  4  5  1  0  0  0
  5  6  1  0  0  0
 14  8  2  0  0  0
  6  1  1  0  0  0
 20 15  1  0  0  0
M  END
> <minimizedAffinity>
-9.18499

$$$$
OCNT-2317322


 25 27  0  0  0  0  0  0  0  0999 V2000
   -3.9718   26.9331    3.3848 C   0  0  0  0  0  0  0  0  0  0  0  0
   -3.2499   26.3360    4.5278 N   0  0  0  0  0  0  0  0  0  0  0  0
   -1.8354   26.0794    4.1864 C   0  0  0  0  0  0  0  0  0  0  0  0
   -1.0291   26.3960    5.4432 C   0  0  0  0  0  0  0  0  0  0  0  0
   -2.0684   26.6980    6.5137 C   0  0  0  0  0  0  0  0  0  0  0  0
   -3.2385   27.2353    5.6858 C   0  0  0  0  0  0  0  0  0  0  0  0
   -1.6441   27.6902    7.6109 C   0  0  0  0  0  0  0  0  0  0  0  0
   -2.0436   29.0933    7.4889 N   0  0  0  0  0  0  0  0  0  0  0  0
   -2.7802   29.6224    8.6407 C   0  0  0  0  0  0  0  0  0  0  0  0
   -2.8422   31.1533    8.6791 C   0  0  0  0  0  0  0  0  0  0  0  0
   -2.8816   31.7488    7.2813 C   0  0  0  0  0  0  0  0  0  0  0  0
   -1.6988   31.2710    6.4334 C   0  0  0  0  0  0  0  0  0  0  0  0
   -1.0318   30.0019    6.9701 C   0  0  0  0  0  0  0  0  0  0  0  0
   -6.0912   25.8296    3.6947 O   0  0  0  0  0  0  0  0  0  0  0  0
   -5.1268   26.0141    2.9585 C   0  0  0  0  0  0  0  0  0  0  0  0
   -4.8902   25.4759    1.7030 N   0  0  0  0  0  0  0  0  0  0  0  0
   -4.1357   25.9477    1.2089 H   0  0  0  0  0  0  0  0  0  0  0  0
   -5.6403   24.5327    0.9739 C   0  0  0  0  0  0  0  0  0  0  0  0
   -5.4473   23.1888    1.3339 C   0  0  0  0  0  0  0  0  0  0  0  0
   -6.1367   22.1682    0.6770 C   0  0  0  0  0  0  0  0  0  0  0  0
   -5.9399   20.8906    1.0458 F   0  0  0  0  0  0  0  0  0  0  0  0
   -7.0298   22.4551   -0.3448 C   0  0  0  0  0  0  0  0  0  0  0  0
   -7.2438   23.7858   -0.7024 C   0  0  0  0  0  0  0  0  0  0  0  0
   -6.5622   24.8156   -0.0424 C   0  0  0  0  0  0  0  0  0  0  0  0
   -6.8616   26.0685   -0.4084 F   0  0  0  0  0  0  0  0  0  0  0  0
 14 15  2  0  0  0
 15  1  1  0  0  0
  1  2  1  0  0  0
  2  3  1  0  0  0
  3  4  1  0  0  0
  4  5  1  0  0  0
  5  7  1  0  0  0
  7  8  1  0  0  0
  8  9  1  0  0  0
  9 10  1  0  0  0
 10 11  1  0  0  0
 11 12  1  0  0  0
 12 13  1  0  0  0
  5  6  1  0  0  0
 15 16  1  0  0  0
 16 18  1  0  0  0
 18 19  1  0  0  0
 19 20  2  0  0  0
 20 21  1  0  0  0
 20 22  1  0  0  0
 22 23  2  0  0  0
 23 24  1  0  0  0
 24 25  1  0  0  0
  6  2  1  0  0  0
 24 18  2  0  0  0
 13  8  1  0  0  0
 16 17  1  0  0  0
M  END
> <minimizedAffinity>
-9.24890

$$$$
OCNT-2317326


 24 26  0  0  0  0  0  0  0  0999 V2000
   -5.4818   29.5693    7.1451 C   0  0  0  0  0  0  0  0  0  0  0  0
   -6.4972   28.9334    8.1188 C   0  0  0  0  0  0  0  0  0  0  0  0
   -6.3882   29.3850    9.5719 C   0  0  0  0  0  0  0  0  0  0  0  0
   -6.0913   30.8743    9.7409 C   0  0  0  0  0  0  0  0  0  0  0  0
   -5.7020   31.5897    8.4475 C   0  0  0  0  0  0  0  0  0  0  0  0
   -4.7770   30.7591    7.6783 N   0  0  0  0  0  0  0  0  0  0  0  0
   -3.4758   28.2612    7.1457 O   0  0  0  0  0  0  0  0  0  0  0  0
   -4.5318   28.5023    6.5444 C   0  0  0  0  0  0  0  0  0  0  0  0
   -4.8173   27.8649    5.3494 N   0  0  0  0  0  0  0  0  0  0  0  0
   -3.8670   26.8742    4.8333 C   0  0  0  0  0  0  0  0  0  0  0  0
   -4.5795   25.7781    4.0356 C   0  0  0  0  0  0  0  0  0  0  0  0
   -5.3402   26.2751    2.9256 O   0  0  0  0  0  0  0  0  0  0  0  0
   -5.8252   27.6123    3.1065 C   0  0  0  0  0  0  0  0  0  0  0  0
   -6.0536   27.9884    4.5743 C   0  0  0  0  0  0  0  0  0  0  0  0
   -4.0109   31.5140    6.6670 C   0  0  0  0  0  0  0  0  0  0  0  0
   -2.6639   32.1762    7.0334 C   0  0  0  0  0  0  0  0  0  0  0  0
   -1.5464   31.2379    7.4196 C   0  0  0  0  0  0  0  0  0  0  0  0
   -1.1320   31.1255    8.7576 C   0  0  0  0  0  0  0  0  0  0  0  0
   -0.0994   30.2527    9.1106 C   0  0  0  0  0  0  0  0  0  0  0  0
    0.5171   29.4851    8.1292 C   0  0  0  0  0  0  0  0  0  0  0  0
    1.5086   28.6518    8.4729 F   0  0  0  0  0  0  0  0  0  0  0  0
    0.1089   29.5797    6.8055 C   0  0  0  0  0  0  0  0  0  0  0  0
    0.7039   28.8382    5.8609 F   0  0  0  0  0  0  0  0  0  0  0  0
   -0.9195   30.4462    6.4448 C   0  0  0  0  0  0  0  0  0  0  0  0
  7  8  2  0  0  0
  8  1  1  0  0  0
  1  2  1  0  0  0
  2  3  1  0  0  0
  3  4  1  0  0  0
  4  5  1  0  0  0
  5  6  1  0  0  0
  6 15  1  0  0  0
 15 16  1  0  0  0
 16 17  1  0  0  0
 17 18  1  0  0  0
 18 19  2  0  0  0
 19 20  1  0  0  0
 20 21  1  0  0  0
 20 22  2  0  0  0
 22 23  1  0  0  0
 22 24  1  0  0  0
  8  9  1  0  0  0
  9 10  1  0  0  0
 10 11  1  0  0  0
 11 12  1  0  0  0
 12 13  1  0  0  0
 13 14  1  0  0  0
  6  1  1  0  0  0
 24 17  2  0  0  0
 14  9  1  0  0  0
M  END
> <minimizedAffinity>
-8.78523

$$$$
OCNT-2317327


 26 28  0  0  0  0  0  0  0  0999 V2000
   -4.3176   27.7266    5.5408 N   0  0  0  0  0  0  0  0  0  0  0  0
   -3.2477   26.7092    5.6095 C   0  0  0  0  0  0  0  0  0  0  0  0
   -2.7913   26.3316    4.2058 C   0  0  0  0  0  0  0  0  0  0  0  0
   -3.8762   26.3488    3.1299 C   0  0  0  0  0  0  0  0  0  0  0  0
   -5.0114   25.4868    3.4675 N   0  0  0  0  0  0  0  0  0  0  0  0
   -5.7696   25.7405    4.7153 C   0  0  0  0  0  0  0  0  0  0  0  0
   -5.6942   27.1808    5.2657 C   0  0  0  0  0  0  0  0  0  0  0  0
   -5.7317   24.8746    2.4358 C   0  0  0  0  0  0  0  0  0  0  0  0
   -5.7458   25.4523    1.1498 C   0  0  0  0  0  0  0  0  0  0  0  0
   -6.4594   24.8793    0.0914 C   0  0  0  0  0  0  0  0  0  0  0  0
   -7.1759   23.7126    0.3079 C   0  0  0  0  0  0  0  0  0  0  0  0
   -7.8604   23.1604   -0.7028 F   0  0  0  0  0  0  0  0  0  0  0  0
   -7.1825   23.1257    1.5639 C   0  0  0  0  0  0  0  0  0  0  0  0
   -7.8717   21.9954    1.7754 F   0  0  0  0  0  0  0  0  0  0  0  0
   -6.4723   23.6975    2.6195 C   0  0  0  0  0  0  0  0  0  0  0  0
   -4.2928   28.9546    6.7202 S   0  0  0  0  0  0  0  0  0  0  0  0
   -3.8702   30.1720    6.0610 O   0  0  0  0  0  0  0  0  0  0  0  0
   -5.5513   28.8888    7.4316 O   0  0  0  0  0  0  0  0  0  0  0  0
   -2.9767   28.4085    7.7939 C   0  0  0  0  0  0  0  0  0  0  0  0
   -1.8158   29.3982    7.7695 C   0  0  0  0  0  0  0  0  0  0  0  0
   -0.5055   28.7189    7.4379 C   0  0  0  0  0  0  0  0  0  0  0  0
    0.8102   29.2507    7.9542 C   0  0  0  0  0  0  0  0  0  0  0  0
    0.5035   29.3142    6.4832 C   0  0  0  0  0  0  0  0  0  0  0  0
   -1.7434   29.9805    9.0845 O   0  0  0  0  0  0  0  0  0  0  0  0
   -1.8070   32.1873    8.1798 C   0  0  0  0  0  0  0  0  0  0  0  0
   -2.4333   31.2263    9.1702 C   0  0  0  0  0  0  0  0  0  0  0  0
 25 26  1  0  0  0
 26 24  1  0  0  0
 24 20  1  0  0  0
 20 19  1  0  0  0
 19 16  1  0  0  0
 16 17  2  0  0  0
 16 18  2  0  0  0
 16  1  1  0  0  0
  1  2  1  0  0  0
  2  3  1  0  0  0
  3  4  1  0  0  0
  4  5  1  0  0  0
  5  8  1  0  0  0
  8  9  1  0  0  0
  9 10  2  0  0  0
 10 11  1  0  0  0
 11 12  1  0  0  0
 11 13  2  0  0  0
 13 14  1  0  0  0
 13 15  1  0  0  0
  5  6  1  0  0  0
  6  7  1  0  0  0
 20 21  1  0  0  0
 21 22  1  0  0  0
 22 23  1  0  0  0
  7  1  1  0  0  0
 23 21  1  0  0  0
 15  8  2  0  0  0
M  END
> <minimizedAffinity>
-8.95273

$$$$
OCNT-2317332


 26 28  0  0  0  0  0  0  0  0999 V2000
   -3.8298   31.4010    7.9810 N   0  0  0  0  0  0  0  0  0  0  0  0
   -4.7530   30.4184    7.6040 C   0  0  0  0  0  0  0  0  0  0  0  0
   -5.6463   30.0658    8.3797 O   0  0  0  0  0  0  0  0  0  0  0  0
   -4.3337   33.4210    9.3164 C   0  0  0  0  0  0  0  0  0  0  0  0
   -3.9319   31.9542    9.3312 C   0  0  0  0  0  0  0  0  0  0  0  0
   -2.6403   31.7557    7.2071 C   0  0  0  0  0  0  0  0  0  0  0  0
   -1.4599   30.8451    7.4524 C   0  0  0  0  0  0  0  0  0  0  0  0
   -0.9315   30.7158    8.7483 C   0  0  0  0  0  0  0  0  0  0  0  0
    0.1768   29.8991    8.9912 C   0  0  0  0  0  0  0  0  0  0  0  0
    0.7772   29.2110    7.9393 C   0  0  0  0  0  0  0  0  0  0  0  0
    0.2677   29.3478    6.6544 C   0  0  0  0  0  0  0  0  0  0  0  0
    0.8491   28.6912    5.6424 F   0  0  0  0  0  0  0  0  0  0  0  0
   -0.8353   30.1575    6.4013 C   0  0  0  0  0  0  0  0  0  0  0  0
   -4.6294   29.8376    6.1745 C   0  0  0  0  0  0  0  0  0  0  0  0
   -4.9101   28.3846    6.1161 N   0  0  0  0  0  0  0  0  0  0  0  0
   -3.7167   27.6241    5.6833 C   0  0  0  0  0  0  0  0  0  0  0  0
   -4.0631   26.3263    4.9219 C   0  0  0  0  0  0  0  0  0  0  0  0
   -4.7754   26.6024    3.6590 N   0  0  0  0  0  0  0  0  0  0  0  0
   -5.7289   27.7182    3.7986 C   0  0  0  0  0  0  0  0  0  0  0  0
   -6.0743   28.0942    5.2585 C   0  0  0  0  0  0  0  0  0  0  0  0
   -5.2915   25.3794    3.0195 C   0  0  0  0  0  0  0  0  0  0  0  0
   -5.7514   25.5322    1.5591 C   0  0  0  0  0  0  0  0  0  0  0  0
   -6.2242   24.1888    1.0159 C   0  0  0  0  0  0  0  0  0  0  0  0
   -5.1985   23.2045    1.1345 O   0  0  0  0  0  0  0  0  0  0  0  0
   -4.8357   22.9661    2.4936 C   0  0  0  0  0  0  0  0  0  0  0  0
   -4.2748   24.2298    3.1328 C   0  0  0  0  0  0  0  0  0  0  0  0
  4  5  1  0  0  0
  5  1  1  0  0  0
  1  6  1  0  0  0
  6  7  1  0  0  0
  7  8  2  0  0  0
  8  9  1  0  0  0
  9 10  2  0  0  0
 10 11  1  0  0  0
 11 12  1  0  0  0
 11 13  2  0  0  0
  1  2  1  0  0  0
  2  3  2  0  0  0
  2 14  1  0  0  0
 14 15  1  0  0  0
 15 16  1  0  0  0
 16 17  1  0  0  0
 17 18  1  0  0  0
 18 21  1  0  0  0
 21 22  1  0  0  0
 22 23  1  0  0  0
 23 24  1  0  0  0
 24 25  1  0  0  0
 25 26  1  0  0  0
 18 19  1  0  0  0
 19 20  1  0  0  0
 13  7  1  0  0  0
 20 15  1  0  0  0
 26 21  1  0  0  0
M  END
> <minimizedAffinity>
-9.10238

$$$$
OCNT-2317336


 31 33  0  0  0  0  0  0  0  0999 V2000
   -2.5378   28.8532    6.1929 N   0  0  0  0  0  0  0  0  0  0  0  0
   -2.6501   27.4939    6.0728 C   0  0  0  0  0  0  0  0  0  0  0  0
   -2.0261   26.6803    6.7398 O   0  0  0  0  0  0  0  0  0  0  0  0
   -3.5710   27.1613    5.1098 N   0  0  0  0  0  0  0  0  0  0  0  0
   -2.7342   29.3831    5.3569 H   0  0  0  0  0  0  0  0  0  0  0  0
   -4.2868   27.8583    4.9634 H   0  0  0  0  0  0  0  0  0  0  0  0
   -3.9443   25.7700    4.8736 C   0  0  0  0  0  0  0  0  0  0  0  0
   -3.2402   25.2493    3.6160 C   0  0  0  0  0  0  0  0  0  0  0  0
   -4.0210   24.0928    2.9989 C   0  0  0  0  0  0  0  0  0  0  0  0
   -5.3520   24.5117    2.5310 N   0  0  0  0  0  0  0  0  0  0  0  0
   -5.9505   25.5805    3.3481 C   0  0  0  0  0  0  0  0  0  0  0  0
   -5.4684   25.5894    4.7962 C   0  0  0  0  0  0  0  0  0  0  0  0
   -6.2726   23.3679    2.3712 C   0  0  0  0  0  0  0  0  0  0  0  0
   -5.9268   22.1188    3.2072 C   0  0  0  0  0  0  0  0  0  0  0  0
   -6.5576   22.1113    4.5807 C   0  0  0  0  0  0  0  0  0  0  0  0
   -5.7624   22.0859    5.7337 C   0  0  0  0  0  0  0  0  0  0  0  0
   -6.3487   22.0751    7.0006 C   0  0  0  0  0  0  0  0  0  0  0  0
   -7.7362   22.0881    7.1280 C   0  0  0  0  0  0  0  0  0  0  0  0
   -8.5384   22.1087    5.9889 C   0  0  0  0  0  0  0  0  0  0  0  0
   -7.9530   22.1183    4.7213 C   0  0  0  0  0  0  0  0  0  0  0  0
   -1.5429   29.4431    7.0612 C   0  0  0  0  0  0  0  0  0  0  0  0
   -3.5657   32.5161    8.1437 C   0  0  0  0  0  0  0  0  0  0  0  0
   -3.1911   32.6260    9.4815 C   0  0  0  0  0  0  0  0  0  0  0  0
   -2.2833   31.7139   10.0272 C   0  0  0  0  0  0  0  0  0  0  0  0
   -1.7549   30.6859    9.2430 C   0  0  0  0  0  0  0  0  0  0  0  0
   -2.1315   30.5459    7.9006 C   0  0  0  0  0  0  0  0  0  0  0  0
   -3.0254   31.4788    7.3673 C   0  0  0  0  0  0  0  0  0  0  0  0
   -3.3796   31.3875    6.0439 O   0  0  0  0  0  0  0  0  0  0  0  0
   -4.0166   32.1170    5.9074 H   0  0  0  0  0  0  0  0  0  0  0  0
   -4.9427   34.4533    8.2073 C   0  0  0  0  0  0  0  0  0  0  0  0
   -4.4325   33.3443    7.4755 O   0  0  0  0  0  0  0  0  0  0  0  0
 30 31  1  0  0  0
 31 22  1  0  0  0
 22 23  1  0  0  0
 23 24  2  0  0  0
 24 25  1  0  0  0
 25 26  2  0  0  0
 26 21  1  0  0  0
 21  1  1  0  0  0
  1  2  1  0  0  0
  2  3  2  0  0  0
  2  4  1  0  0  0
  4  7  1  0  0  0
  7  8  1  0  0  0
  8  9  1  0  0  0
  9 10  1  0  0  0
 10 13  1  0  0  0
 13 14  1  0  0  0
 14 15  1  0  0  0
 15 16  2  0  0  0
 16 17  1  0  0  0
 17 18  2  0  0  0
 18 19  1  0  0  0
 19 20  2  0  0  0
 10 11  1  0  0  0
 11 12  1  0  0  0
 26 27  1  0  0  0
 27 28  1  0  0  0
 27 22  2  0  0  0
 12  7  1  0  0  0
 20 15  1  0  0  0
  1  5  1  0  0  0
  4  6  1  0  0  0
 28 29  1  0  0  0
M  END
> <minimizedAffinity>
-9.56065

$$$$
OCNT-2317343


 31 33  0  0  0  0  0  0  0  0999 V2000
   -6.4317   29.7017    7.4265 C   0  0  0  0  0  0  0  0  0  0  0  0
   -6.6201   31.0763    8.0873 C   0  0  0  0  0  0  0  0  0  0  0  0
   -5.8404   31.1783    9.4012 C   0  0  0  0  0  0  0  0  0  0  0  0
   -4.4128   30.8527    9.2738 N   0  0  0  0  0  0  0  0  0  0  0  0
   -4.2358   29.5268    8.6729 C   0  0  0  0  0  0  0  0  0  0  0  0
   -4.9368   29.3661    7.3226 C   0  0  0  0  0  0  0  0  0  0  0  0
   -7.0869   29.6450    6.0424 C   0  0  0  0  0  0  0  0  0  0  0  0
   -6.1929   29.7770    3.3816 O   0  0  0  0  0  0  0  0  0  0  0  0
   -6.1405   28.7057    3.9740 C   0  0  0  0  0  0  0  0  0  0  0  0
   -6.6113   28.5217    5.2596 N   0  0  0  0  0  0  0  0  0  0  0  0
   -6.3032   27.6940    5.7545 H   0  0  0  0  0  0  0  0  0  0  0  0
   -5.5568   27.4418    3.3786 C   0  0  0  0  0  0  0  0  0  0  0  0
   -5.1568   26.4414    4.4593 C   0  0  0  0  0  0  0  0  0  0  0  0
   -3.6576   26.3760    4.6192 C   0  0  0  0  0  0  0  0  0  0  0  0
   -2.8377   26.1054    3.5149 C   0  0  0  0  0  0  0  0  0  0  0  0
   -1.4531   26.0227    3.6676 C   0  0  0  0  0  0  0  0  0  0  0  0
   -0.8863   26.2083    4.9223 C   0  0  0  0  0  0  0  0  0  0  0  0
    0.4705   26.1196    5.0259 O   0  0  0  0  0  0  0  0  0  0  0  0
   -1.6821   26.4742    6.0316 C   0  0  0  0  0  0  0  0  0  0  0  0
   -3.0682   26.5555    5.8789 C   0  0  0  0  0  0  0  0  0  0  0  0
    0.7216   26.2976    5.9469 H   0  0  0  0  0  0  0  0  0  0  0  0
   -3.6589   31.9352    8.6082 C   0  0  0  0  0  0  0  0  0  0  0  0
   -2.1352   32.0439    8.9170 C   0  0  0  0  0  0  0  0  0  0  0  0
   -1.9599   31.9420   10.3404 O   0  0  0  0  0  0  0  0  0  0  0  0
   -2.4287   32.6917   10.7415 H   0  0  0  0  0  0  0  0  0  0  0  0
   -1.1975   31.0337    8.2825 C   0  0  0  0  0  0  0  0  0  0  0  0
   -0.2601   30.3788    9.1038 C   0  0  0  0  0  0  0  0  0  0  0  0
    0.6362   29.4450    8.5794 C   0  0  0  0  0  0  0  0  0  0  0  0
    0.6122   29.1470    7.2208 C   0  0  0  0  0  0  0  0  0  0  0  0
   -0.3089   29.7807    6.3909 C   0  0  0  0  0  0  0  0  0  0  0  0
   -1.2069   30.7146    6.9175 C   0  0  0  0  0  0  0  0  0  0  0  0
  8  9  2  0  0  0
  9 12  1  0  0  0
 12 13  1  0  0  0
 13 14  1  0  0  0
 14 15  1  0  0  0
 15 16  2  0  0  0
 16 17  1  0  0  0
 17 18  1  0  0  0
 17 19  2  0  0  0
 19 20  1  0  0  0
  9 10  1  0  0  0
 10  7  1  0  0  0
  7  1  1  0  0  0
  1  2  1  0  0  0
  2  3  1  0  0  0
  3  4  1  0  0  0
  4 22  1  0  0  0
 22 23  1  0  0  0
 23 24  1  0  0  0
 23 26  1  0  0  0
 26 27  2  0  0  0
 27 28  1  0  0  0
 28 29  2  0  0  0
 29 30  1  0  0  0
 30 31  2  0  0  0
  4  5  1  0  0  0
  5  6  1  0  0  0
 20 14  2  0  0  0
  6  1  1  0  0  0
 31 26  1  0  0  0
 18 21  1  0  0  0
 10 11  1  0  0  0
 24 25  1  0  0  0
M  END
> <minimizedAffinity>
-9.79440

$$$$
OCNT-2317345


 25 27  0  0  0  0  0  0  0  0999 V2000
   -6.3074   29.5853    5.1102 C   0  0  0  0  0  0  0  0  0  0  0  0
   -6.1611   28.2096    4.5178 C   0  0  0  0  0  0  0  0  0  0  0  0
   -5.8369   28.0488    3.1663 C   0  0  0  0  0  0  0  0  0  0  0  0
   -5.6773   26.7717    2.6130 C   0  0  0  0  0  0  0  0  0  0  0  0
   -5.8319   25.6224    3.4056 C   0  0  0  0  0  0  0  0  0  0  0  0
   -6.1467   25.7942    4.7586 C   0  0  0  0  0  0  0  0  0  0  0  0
   -6.3042   24.7571    5.5908 F   0  0  0  0  0  0  0  0  0  0  0  0
   -6.3070   27.0676    5.3101 C   0  0  0  0  0  0  0  0  0  0  0  0
   -5.6659   24.3268    2.8332 N   0  0  0  0  0  0  0  0  0  0  0  0
   -6.4679   23.7338    1.8757 C   0  0  0  0  0  0  0  0  0  0  0  0
   -5.9268   22.4958    1.6250 C   0  0  0  0  0  0  0  0  0  0  0  0
   -4.8187   22.2920    2.3887 N   0  0  0  0  0  0  0  0  0  0  0  0
   -4.6861   23.3918    3.0994 C   0  0  0  0  0  0  0  0  0  0  0  0
   -3.0976   30.7103    6.3295 N   0  0  0  0  0  0  0  0  0  0  0  0
   -4.3260   30.0996    6.4241 C   0  0  0  0  0  0  0  0  0  0  0  0
   -4.8157   29.5299    7.3893 O   0  0  0  0  0  0  0  0  0  0  0  0
   -5.0172   30.2263    5.2275 N   0  0  0  0  0  0  0  0  0  0  0  0
   -2.9642   31.3594    5.5738 H   0  0  0  0  0  0  0  0  0  0  0  0
   -4.4330   30.1808    4.4066 H   0  0  0  0  0  0  0  0  0  0  0  0
    0.7540   29.4147    8.8217 C   0  0  0  0  0  0  0  0  0  0  0  0
   -0.4141   30.1739    8.4486 N   0  0  0  0  0  0  0  0  0  0  0  0
   -0.9302   31.2606    9.0870 C   0  0  0  0  0  0  0  0  0  0  0  0
   -2.0402   31.6211    8.3596 C   0  0  0  0  0  0  0  0  0  0  0  0
   -2.1172   30.6851    7.2973 C   0  0  0  0  0  0  0  0  0  0  0  0
   -1.1058   29.8198    7.3566 N   0  0  0  0  0  0  0  0  0  0  0  0
 20 21  1  0  0  0
 21 22  1  0  0  0
 22 23  2  0  0  0
 23 24  1  0  0  0
 24 14  1  0  0  0
 14 15  1  0  0  0
 15 16  2  0  0  0
 15 17  1  0  0  0
 17  1  1  0  0  0
  1  2  1  0  0  0
  2  3  1  0  0  0
  3  4  2  0  0  0
  4  5  1  0  0  0
  5  9  1  0  0  0
  9 10  1  0  0  0
 10 11  2  0  0  0
 11 12  1  0  0  0
 12 13  2  0  0  0
  5  6  2  0  0  0
  6  7  1  0  0  0
  6  8  1  0  0  0
 24 25  2  0  0  0
 25 21  1  0  0  0
  8  2  2  0  0  0
 13  9  1  0  0  0
 14 18  1  0  0  0
 17 19  1  0  0  0
M  END
> <minimizedAffinity>
-8.97894

$$$$
OCNT-2317346


 27 30  0  0  0  0  0  0  0  0999 V2000
   -5.8395   28.5364    6.6300 C   0  0  0  0  0  0  0  0  0  0  0  0
   -7.2853   29.0018    6.8733 C   0  0  0  0  0  0  0  0  0  0  0  0
   -4.8484   29.6449    6.7560 N   0  0  0  0  0  0  0  0  0  0  0  0
   -5.2529   30.7102    7.6704 C   0  0  0  0  0  0  0  0  0  0  0  0
   -4.3324   31.9306    7.5210 C   0  0  0  0  0  0  0  0  0  0  0  0
   -2.8478   31.5834    7.2827 C   0  0  0  0  0  0  0  0  0  0  0  0
   -1.9542   32.6476    7.9259 C   0  0  0  0  0  0  0  0  0  0  0  0
   -2.5573   30.1575    7.7890 C   0  0  0  0  0  0  0  0  0  0  0  0
   -3.4992   29.1324    7.1035 C   0  0  0  0  0  0  0  0  0  0  0  0
   -1.1649   29.7504    7.6593 N   0  0  0  0  0  0  0  0  0  0  0  0
   -0.3240   29.3466    8.6597 C   0  0  0  0  0  0  0  0  0  0  0  0
    0.8720   29.0817    8.0349 C   0  0  0  0  0  0  0  0  0  0  0  0
    0.7784   29.3126    6.6877 N   0  0  0  0  0  0  0  0  0  0  0  0
   -0.4567   29.7137    6.4905 C   0  0  0  0  0  0  0  0  0  0  0  0
   -5.7608   26.6569    3.5626 C   0  0  0  0  0  0  0  0  0  0  0  0
   -5.8397   27.9026    3.0643 N   0  0  0  0  0  0  0  0  0  0  0  0
   -5.8705   28.7133    4.1952 O   0  0  0  0  0  0  0  0  0  0  0  0
   -5.8052   27.8798    5.2728 C   0  0  0  0  0  0  0  0  0  0  0  0
   -5.7322   26.6100    4.9401 N   0  0  0  0  0  0  0  0  0  0  0  0
   -5.0288   21.7175    3.1964 C   0  0  0  0  0  0  0  0  0  0  0  0
   -5.3731   23.0328    2.5674 C   0  0  0  0  0  0  0  0  0  0  0  0
   -5.4188   24.2073    3.3345 C   0  0  0  0  0  0  0  0  0  0  0  0
   -5.7108   25.4498    2.7431 C   0  0  0  0  0  0  0  0  0  0  0  0
   -5.9481   25.5025    1.3604 C   0  0  0  0  0  0  0  0  0  0  0  0
   -5.8899   24.3407    0.5873 C   0  0  0  0  0  0  0  0  0  0  0  0
   -5.6002   23.1224    1.1931 C   0  0  0  0  0  0  0  0  0  0  0  0
   -5.5394   22.0205    0.4324 F   0  0  0  0  0  0  0  0  0  0  0  0
 20 21  1  0  0  0
 21 22  1  0  0  0
 22 23  2  0  0  0
 23 15  1  0  0  0
 15 16  2  0  0  0
 16 17  1  0  0  0
 17 18  1  0  0  0
 18  1  1  0  0  0
  1  2  1  0  0  0
  1  3  1  0  0  0
  3  4  1  0  0  0
  4  5  1  0  0  0
  5  6  1  0  0  0
  6  7  1  0  0  0
  6  8  1  0  0  0
  8 10  1  0  0  0
 10 11  1  0  0  0
 11 12  2  0  0  0
 12 13  1  0  0  0
 13 14  2  0  0  0
  8  9  1  0  0  0
 18 19  2  0  0  0
 23 24  1  0  0  0
 24 25  2  0  0  0
 25 26  1  0  0  0
 26 27  1  0  0  0
 26 21  2  0  0  0
 19 15  1  0  0  0
  9  3  1  0  0  0
 14 10  1  0  0  0
M  END
> <minimizedAffinity>
-10.05504

$$$$
OCNT-2317347


 29 31  0  0  0  0  0  0  0  0999 V2000
   -4.5488   26.0548    4.5136 N   0  0  0  0  0  0  0  0  0  0  0  0
   -3.2301   26.3398    4.7957 C   0  0  0  0  0  0  0  0  0  0  0  0
   -2.2545   25.9965    4.1419 O   0  0  0  0  0  0  0  0  0  0  0  0
   -3.1299   27.0991    5.9426 N   0  0  0  0  0  0  0  0  0  0  0  0
   -5.2251   26.4532    5.1480 H   0  0  0  0  0  0  0  0  0  0  0  0
   -3.9350   27.6731    6.1660 H   0  0  0  0  0  0  0  0  0  0  0  0
   -5.6963   23.2390    2.3461 C   0  0  0  0  0  0  0  0  0  0  0  0
   -6.0701   23.9366    1.1965 C   0  0  0  0  0  0  0  0  0  0  0  0
   -5.9428   25.3226    1.1719 C   0  0  0  0  0  0  0  0  0  0  0  0
   -5.4397   25.9981    2.2876 C   0  0  0  0  0  0  0  0  0  0  0  0
   -5.0570   25.2980    3.4406 C   0  0  0  0  0  0  0  0  0  0  0  0
   -5.2012   23.9107    3.4700 C   0  0  0  0  0  0  0  0  0  0  0  0
   -7.4468   21.1942    3.1336 C   0  0  0  0  0  0  0  0  0  0  0  0
   -5.8562   21.4712    2.3982 S   0  0  0  0  0  0  0  0  0  0  0  0
   -5.8904   21.0054    1.0262 O   0  0  0  0  0  0  0  0  0  0  0  0
   -4.8612   20.9703    3.3295 O   0  0  0  0  0  0  0  0  0  0  0  0
   -1.8598   27.6273    6.4057 C   0  0  0  0  0  0  0  0  0  0  0  0
   -1.8277   27.9651    7.9072 C   0  0  0  0  0  0  0  0  0  0  0  0
   -0.5791   28.7249    8.3525 C   0  0  0  0  0  0  0  0  0  0  0  0
   -0.9234   30.2063    8.1771 C   0  0  0  0  0  0  0  0  0  0  0  0
   -2.3882   30.2443    8.0515 N   0  0  0  0  0  0  0  0  0  0  0  0
   -2.9549   28.9197    8.3143 C   0  0  0  0  0  0  0  0  0  0  0  0
   -3.1018   31.4186    8.1811 C   0  0  0  0  0  0  0  0  0  0  0  0
   -3.8373   31.9524    7.1063 C   0  0  0  0  0  0  0  0  0  0  0  0
   -4.5861   33.1284    7.2313 C   0  0  0  0  0  0  0  0  0  0  0  0
   -4.6178   33.7903    8.4470 C   0  0  0  0  0  0  0  0  0  0  0  0
   -5.3345   34.9142    8.5731 F   0  0  0  0  0  0  0  0  0  0  0  0
   -3.9185   33.2952    9.5346 C   0  0  0  0  0  0  0  0  0  0  0  0
   -3.1725   32.1180    9.3988 C   0  0  0  0  0  0  0  0  0  0  0  0
 13 14  1  0  0  0
 14 15  2  0  0  0
 14 16  2  0  0  0
 14  7  1  0  0  0
  7  8  2  0  0  0
  8  9  1  0  0  0
  9 10  2  0  0  0
 10 11  1  0  0  0
 11  1  1  0  0  0
  1  2  1  0  0  0
  2  3  2  0  0  0
  2  4  1  0  0  0
  4 17  1  0  0  0
 17 18  1  0  0  0
 18 19  1  0  0  0
 19 20  1  0  0  0
 20 21  1  0  0  0
 21 23  1  0  0  0
 23 24  1  0  0  0
 24 25  2  0  0  0
 25 26  1  0  0  0
 26 27  1  0  0  0
 26 28  2  0  0  0
 28 29  1  0  0  0
 21 22  1  0  0  0
 11 12  2  0  0  0
 12  7  1  0  0  0
 22 18  1  0  0  0
 29 23  2  0  0  0
  1  5  1  0  0  0
  4  6  1  0  0  0
M  END
> <minimizedAffinity>
-9.85804

$$$$
OCNT-2317349


 24 27  0  0  0  0  0  0  0  0999 V2000
   -1.7248   27.0297    5.8600 C   0  0  0  0  0  0  0  0  0  0  0  0
   -0.7461   26.2814    5.8784 O   0  0  0  0  0  0  0  0  0  0  0  0
   -2.7592   26.8219    4.9455 N   0  0  0  0  0  0  0  0  0  0  0  0
   -2.5994   25.7754    3.9392 C   0  0  0  0  0  0  0  0  0  0  0  0
   -3.5288   25.9648    2.7244 C   0  0  0  0  0  0  0  0  0  0  0  0
   -4.9544   26.1851    3.0396 N   0  0  0  0  0  0  0  0  0  0  0  0
   -5.1803   26.4903    4.4620 C   0  0  0  0  0  0  0  0  0  0  0  0
   -4.0976   27.4142    5.0495 C   0  0  0  0  0  0  0  0  0  0  0  0
    0.4230   29.2061    6.4691 C   0  0  0  0  0  0  0  0  0  0  0  0
   -0.9338   29.1164    7.0955 C   0  0  0  0  0  0  0  0  0  0  0  0
   -1.8563   28.1198    6.8161 C   0  0  0  0  0  0  0  0  0  0  0  0
   -3.3299   28.3517    7.6416 S   0  0  0  0  0  0  0  0  0  0  0  0
   -2.7529   29.7506    8.4518 C   0  0  0  0  0  0  0  0  0  0  0  0
   -3.4580   30.5329    9.3884 C   0  0  0  0  0  0  0  0  0  0  0  0
   -2.8377   31.6549    9.9398 C   0  0  0  0  0  0  0  0  0  0  0  0
   -1.5467   31.9970    9.5677 C   0  0  0  0  0  0  0  0  0  0  0  0
   -0.8518   31.2176    8.6375 C   0  0  0  0  0  0  0  0  0  0  0  0
   -1.4484   30.0652    8.0627 C   0  0  0  0  0  0  0  0  0  0  0  0
   -5.8397   25.1037    2.5718 C   0  0  0  0  0  0  0  0  0  0  0  0
   -5.4616   24.5368    1.1789 C   0  0  0  0  0  0  0  0  0  0  0  0
   -6.1609   23.2118    0.8931 C   0  0  0  0  0  0  0  0  0  0  0  0
   -7.4269   23.6425    0.1965 C   0  0  0  0  0  0  0  0  0  0  0  0
   -6.9496   24.8288   -0.6088 C   0  0  0  0  0  0  0  0  0  0  0  0
   -5.8987   25.4444    0.1447 O   0  0  0  0  0  0  0  0  0  0  0  0
  9 10  1  0  0  0
 10 11  2  0  0  0
 11  1  1  0  0  0
  1  2  2  0  0  0
  1  3  1  0  0  0
  3  4  1  0  0  0
  4  5  1  0  0  0
  5  6  1  0  0  0
  6 19  1  0  0  0
 19 20  1  0  0  0
 20 21  1  0  0  0
 21 22  1  0  0  0
 22 23  1  0  0  0
 23 24  1  0  0  0
  6  7  1  0  0  0
  7  8  1  0  0  0
 11 12  1  0  0  0
 12 13  1  0  0  0
 13 14  2  0  0  0
 14 15  1  0  0  0
 15 16  2  0  0  0
 16 17  1  0  0  0
 17 18  2  0  0  0
 18 10  1  0  0  0
  8  3  1  0  0  0
 18 13  1  0  0  0
 24 20  1  0  0  0
M  END
> <minimizedAffinity>
-9.86400

$$$$
OCNT-2317353


 26 28  0  0  0  0  0  0  0  0999 V2000
   -4.8123   28.1288    6.4371 N   0  0  0  0  0  0  0  0  0  0  0  0
   -5.5946   28.4520    5.3530 C   0  0  0  0  0  0  0  0  0  0  0  0
   -5.7262   29.5772    4.8784 O   0  0  0  0  0  0  0  0  0  0  0  0
   -4.4694   27.1805    6.5185 H   0  0  0  0  0  0  0  0  0  0  0  0
   -4.5370   30.0215    8.0525 N   0  0  0  0  0  0  0  0  0  0  0  0
   -3.4074   30.6227    8.5905 C   0  0  0  0  0  0  0  0  0  0  0  0
   -3.2075   31.7243    9.4363 C   0  0  0  0  0  0  0  0  0  0  0  0
   -1.8903   32.0243    9.8047 C   0  0  0  0  0  0  0  0  0  0  0  0
   -0.8196   31.2534    9.3535 C   0  0  0  0  0  0  0  0  0  0  0  0
   -1.0374   30.1557    8.5142 C   0  0  0  0  0  0  0  0  0  0  0  0
   -2.3511   29.8454    8.1312 C   0  0  0  0  0  0  0  0  0  0  0  0
   -2.8016   28.8333    7.3318 N   0  0  0  0  0  0  0  0  0  0  0  0
   -4.1040   28.9950    7.2331 C   0  0  0  0  0  0  0  0  0  0  0  0
   -5.8874   30.3607    8.4638 C   0  0  0  0  0  0  0  0  0  0  0  0
   -6.0559   28.6122   10.3024 C   0  0  0  0  0  0  0  0  0  0  0  0
   -6.2084   30.0821    9.9347 C   0  0  0  0  0  0  0  0  0  0  0  0
   -6.2278   27.2186    4.6748 C   0  0  0  0  0  0  0  0  0  0  0  0
   -5.7137   26.8872    3.2795 C   0  0  0  0  0  0  0  0  0  0  0  0
   -5.8574   25.3702    3.1496 C   0  0  0  0  0  0  0  0  0  0  0  0
   -6.3011   24.8841    4.5257 C   0  0  0  0  0  0  0  0  0  0  0  0
   -5.8766   25.9880    5.3994 N   0  0  0  0  0  0  0  0  0  0  0  0
   -6.3168   25.9497    6.3189 H   0  0  0  0  0  0  0  0  0  0  0  0
   -5.6788   23.5586    4.9550 C   0  0  0  0  0  0  0  0  0  0  0  0
   -5.3981   22.6074    4.2423 O   0  0  0  0  0  0  0  0  0  0  0  0
   -5.3427   23.5337    6.2627 O   0  0  0  0  0  0  0  0  0  0  0  0
   -4.9399   22.6464    6.3739 H   0  0  0  0  0  0  0  0  0  0  0  0
 15 16  1  0  0  0
 16 14  1  0  0  0
 14  5  1  0  0  0
  5  6  1  0  0  0
  6  7  2  0  0  0
  7  8  1  0  0  0
  8  9  2  0  0  0
  9 10  1  0  0  0
 10 11  2  0  0  0
 11 12  1  0  0  0
 12 13  2  0  0  0
 13  1  1  0  0  0
  1  2  1  0  0  0
  2  3  2  0  0  0
  2 17  1  0  0  0
 17 18  1  0  0  0
 18 19  1  0  0  0
 19 20  1  0  0  0
 20 23  1  0  0  0
 23 24  2  0  0  0
 23 25  1  0  0  0
 20 21  1  0  0  0
 13  5  1  0  0  0
 21 17  1  0  0  0
 11  6  1  0  0  0
  1  4  1  0  0  0
 25 26  1  0  0  0
 21 22  1  0  0  0
M  END
> <minimizedAffinity>
-8.50199

$$$$
OCNT-2317361


 23 27  0  0  0  0  0  0  0  0999 V2000
   -6.7125   28.5553    5.6766 C   0  0  0  0  0  0  0  0  0  0  0  0
   -5.2959   28.0694    5.8005 C   0  0  0  0  0  0  0  0  0  0  0  0
   -4.4000   28.6668    6.6967 C   0  0  0  0  0  0  0  0  0  0  0  0
   -3.0972   28.3435    6.6906 N   0  0  0  0  0  0  0  0  0  0  0  0
   -2.7113   27.4001    5.8310 C   0  0  0  0  0  0  0  0  0  0  0  0
   -3.4982   26.7204    4.9961 N   0  0  0  0  0  0  0  0  0  0  0  0
   -4.8036   27.0359    4.9931 C   0  0  0  0  0  0  0  0  0  0  0  0
   -4.8319   29.6297    7.6158 N   0  0  0  0  0  0  0  0  0  0  0  0
   -4.4095   29.4141    9.0085 C   0  0  0  0  0  0  0  0  0  0  0  0
   -3.9347   30.7826    9.5027 C   0  0  0  0  0  0  0  0  0  0  0  0
   -4.6882   31.7606    8.6084 C   0  0  0  0  0  0  0  0  0  0  0  0
   -4.6125   31.0375    7.2568 C   0  0  0  0  0  0  0  0  0  0  0  0
   -4.1873   33.1741    8.5426 C   0  0  0  0  0  0  0  0  0  0  0  0
   -4.7008   34.2880    9.4206 C   0  0  0  0  0  0  0  0  0  0  0  0
   -5.0195   34.2829    7.9491 C   0  0  0  0  0  0  0  0  0  0  0  0
   -5.6463   26.3150    4.1408 N   0  0  0  0  0  0  0  0  0  0  0  0
   -5.8279   24.8913    4.4608 C   0  0  0  0  0  0  0  0  0  0  0  0
   -5.7798   24.1654    3.1156 C   0  0  0  0  0  0  0  0  0  0  0  0
   -6.1447   25.2498    2.1050 C   0  0  0  0  0  0  0  0  0  0  0  0
   -5.4147   26.4603    2.6959 C   0  0  0  0  0  0  0  0  0  0  0  0
   -5.8212   24.8465    0.6958 C   0  0  0  0  0  0  0  0  0  0  0  0
   -6.7197   23.9345   -0.1012 C   0  0  0  0  0  0  0  0  0  0  0  0
   -6.5582   25.3747   -0.5102 C   0  0  0  0  0  0  0  0  0  0  0  0
  1  2  1  0  0  0
  2  3  2  0  0  0
  3  8  1  0  0  0
  8  9  1  0  0  0
  9 10  1  0  0  0
 10 11  1  0  0  0
 11 13  1  0  0  0
 13 14  1  0  0  0
 14 15  1  0  0  0
 11 12  1  0  0  0
  3  4  1  0  0  0
  4  5  2  0  0  0
  5  6  1  0  0  0
  6  7  2  0  0  0
  7 16  1  0  0  0
 16 17  1  0  0  0
 17 18  1  0  0  0
 18 19  1  0  0  0
 19 21  1  0  0  0
 21 22  1  0  0  0
 22 23  1  0  0  0
 19 20  1  0  0  0
  7  2  1  0  0  0
 20 16  1  0  0  0
 12  8  1  0  0  0
 23 21  1  0  0  0
 15 13  1  0  0  0
M  END
> <minimizedAffinity>
-9.05135

$$$$
OCNT-2317363


 22 24  0  0  0  0  0  0  0  0999 V2000
   -3.2956   30.7669    7.8664 C   0  0  0  0  0  0  0  0  0  0  0  0
   -3.3771   32.2511    8.2563 C   0  0  0  0  0  0  0  0  0  0  0  0
   -4.6787   32.5896    8.9851 C   0  0  0  0  0  0  0  0  0  0  0  0
   -5.8195   31.6695    8.5545 C   0  0  0  0  0  0  0  0  0  0  0  0
   -5.5569   30.2584    8.8808 N   0  0  0  0  0  0  0  0  0  0  0  0
   -4.1233   29.9010    8.8282 C   0  0  0  0  0  0  0  0  0  0  0  0
    1.2914   29.1409    8.7409 C   0  0  0  0  0  0  0  0  0  0  0  0
    0.0679   29.6177    8.0710 C   0  0  0  0  0  0  0  0  0  0  0  0
   -0.0073   29.7748    6.7435 N   0  0  0  0  0  0  0  0  0  0  0  0
   -1.3119   30.2305    6.5499 O   0  0  0  0  0  0  0  0  0  0  0  0
   -1.8844   30.3016    7.7883 C   0  0  0  0  0  0  0  0  0  0  0  0
   -1.0761   29.9342    8.7575 N   0  0  0  0  0  0  0  0  0  0  0  0
   -6.3768   29.3335    8.0764 C   0  0  0  0  0  0  0  0  0  0  0  0
   -6.8765   29.9440    6.7548 C   0  0  0  0  0  0  0  0  0  0  0  0
   -6.5413   29.0647    5.5717 C   0  0  0  0  0  0  0  0  0  0  0  0
   -6.2932   29.6315    4.3107 C   0  0  0  0  0  0  0  0  0  0  0  0
   -5.9670   28.8197    3.2212 C   0  0  0  0  0  0  0  0  0  0  0  0
   -5.8845   27.4420    3.3910 C   0  0  0  0  0  0  0  0  0  0  0  0
   -5.5703   26.6686    2.3426 F   0  0  0  0  0  0  0  0  0  0  0  0
   -6.1229   26.8726    4.6350 C   0  0  0  0  0  0  0  0  0  0  0  0
   -6.0390   25.5448    4.7970 F   0  0  0  0  0  0  0  0  0  0  0  0
   -6.4484   27.6734    5.7264 C   0  0  0  0  0  0  0  0  0  0  0  0
  7  8  1  0  0  0
  8  9  2  0  0  0
  9 10  1  0  0  0
 10 11  1  0  0  0
 11  1  1  0  0  0
  1  2  1  0  0  0
  2  3  1  0  0  0
  3  4  1  0  0  0
  4  5  1  0  0  0
  5 13  1  0  0  0
 13 14  1  0  0  0
 14 15  1  0  0  0
 15 16  1  0  0  0
 16 17  2  0  0  0
 17 18  1  0  0  0
 18 19  1  0  0  0
 18 20  2  0  0  0
 20 21  1  0  0  0
 20 22  1  0  0  0
  5  6  1  0  0  0
 11 12  2  0  0  0
 12  8  1  0  0  0
  6  1  1  0  0  0
 22 15  2  0  0  0
M  END
> <minimizedAffinity>
-8.85388

$$$$
OCNT-2317371


 27 29  0  0  0  0  0  0  0  0999 V2000
   -6.2509   28.8630    4.6003 C   0  0  0  0  0  0  0  0  0  0  0  0
   -6.3143   27.8394    5.7513 C   0  0  0  0  0  0  0  0  0  0  0  0
   -6.4405   26.4079    5.2326 C   0  0  0  0  0  0  0  0  0  0  0  0
   -5.2651   26.0453    4.4435 N   0  0  0  0  0  0  0  0  0  0  0  0
   -4.8031   27.0779    3.5110 C   0  0  0  0  0  0  0  0  0  0  0  0
   -5.8185   28.1969    3.2816 C   0  0  0  0  0  0  0  0  0  0  0  0
   -5.3305   30.0413    4.9503 C   0  0  0  0  0  0  0  0  0  0  0  0
   -3.5401   30.6235    6.5496 C   0  0  0  0  0  0  0  0  0  0  0  0
   -3.8090   31.8195    6.4601 O   0  0  0  0  0  0  0  0  0  0  0  0
   -4.2973   29.6686    5.8958 N   0  0  0  0  0  0  0  0  0  0  0  0
   -3.9148   28.7324    5.8602 H   0  0  0  0  0  0  0  0  0  0  0  0
   -1.6667   32.2677    8.5291 C   0  0  0  0  0  0  0  0  0  0  0  0
   -1.5898   30.8189    8.1928 C   0  0  0  0  0  0  0  0  0  0  0  0
   -2.4182   30.1181    7.3245 C   0  0  0  0  0  0  0  0  0  0  0  0
   -1.9238   28.4697    7.2732 S   0  0  0  0  0  0  0  0  0  0  0  0
   -0.6751   28.8163    8.3882 C   0  0  0  0  0  0  0  0  0  0  0  0
   -0.5935   30.0615    8.7957 N   0  0  0  0  0  0  0  0  0  0  0  0
   -5.3410   24.6952    3.8510 C   0  0  0  0  0  0  0  0  0  0  0  0
   -4.6135   24.4356    2.4997 C   0  0  0  0  0  0  0  0  0  0  0  0
   -3.7112   23.3292    2.5923 O   0  0  0  0  0  0  0  0  0  0  0  0
   -3.5813   22.9921    1.6897 H   0  0  0  0  0  0  0  0  0  0  0  0
   -5.6013   24.1699    1.3777 C   0  0  0  0  0  0  0  0  0  0  0  0
   -6.0603   25.2148    0.5587 C   0  0  0  0  0  0  0  0  0  0  0  0
   -6.9633   24.9636   -0.4748 C   0  0  0  0  0  0  0  0  0  0  0  0
   -7.4181   23.6666   -0.7023 C   0  0  0  0  0  0  0  0  0  0  0  0
   -6.9714   22.6204    0.1028 C   0  0  0  0  0  0  0  0  0  0  0  0
   -6.0674   22.8690    1.1373 C   0  0  0  0  0  0  0  0  0  0  0  0
 12 13  1  0  0  0
 13 14  2  0  0  0
 14  8  1  0  0  0
  8  9  2  0  0  0
  8 10  1  0  0  0
 10  7  1  0  0  0
  7  1  1  0  0  0
  1  2  1  0  0  0
  2  3  1  0  0  0
  3  4  1  0  0  0
  4 18  1  0  0  0
 18 19  1  0  0  0
 19 20  1  0  0  0
 19 22  1  0  0  0
 22 23  2  0  0  0
 23 24  1  0  0  0
 24 25  2  0  0  0
 25 26  1  0  0  0
 26 27  2  0  0  0
  4  5  1  0  0  0
  5  6  1  0  0  0
 14 15  1  0  0  0
 15 16  1  0  0  0
 16 17  2  0  0  0
 17 13  1  0  0  0
  6  1  1  0  0  0
 27 22  1  0  0  0
 10 11  1  0  0  0
 20 21  1  0  0  0
M  END
> <minimizedAffinity>
-9.41805

$$$$
OCNT-2317383


 23 25  0  0  0  0  0  0  0  0999 V2000
   -4.9683   31.0055    6.4295 N   0  0  0  0  0  0  0  0  0  0  0  0
   -5.5932   31.4453    5.7529 H   0  0  0  0  0  0  0  0  0  0  0  0
   -4.9864   29.5450    6.1947 C   0  0  0  0  0  0  0  0  0  0  0  0
   -7.2705   28.4641    6.6414 C   0  0  0  0  0  0  0  0  0  0  0  0
   -6.2981   28.9761    5.5759 C   0  0  0  0  0  0  0  0  0  0  0  0
   -6.9504   30.0695    4.9014 O   0  0  0  0  0  0  0  0  0  0  0  0
   -7.5131   29.6575    4.2189 H   0  0  0  0  0  0  0  0  0  0  0  0
   -6.0448   27.9201    4.5362 C   0  0  0  0  0  0  0  0  0  0  0  0
   -5.8500   27.9320    3.1691 C   0  0  0  0  0  0  0  0  0  0  0  0
   -5.6588   26.5864    2.7734 C   0  0  0  0  0  0  0  0  0  0  0  0
   -5.7369   25.8337    3.9217 C   0  0  0  0  0  0  0  0  0  0  0  0
   -5.9643   26.6297    4.9974 O   0  0  0  0  0  0  0  0  0  0  0  0
   -3.6272   31.5760    6.2552 C   0  0  0  0  0  0  0  0  0  0  0  0
   -2.7837   31.4968    7.5035 C   0  0  0  0  0  0  0  0  0  0  0  0
   -3.2209   32.2015    8.6289 C   0  0  0  0  0  0  0  0  0  0  0  0
   -2.5855   32.2284    9.8182 N   0  0  0  0  0  0  0  0  0  0  0  0
   -1.4522   31.5000    9.9026 C   0  0  0  0  0  0  0  0  0  0  0  0
   -0.9075   30.7486    8.8593 C   0  0  0  0  0  0  0  0  0  0  0  0
    0.2770   30.0078    9.0339 C   0  0  0  0  0  0  0  0  0  0  0  0
    0.8019   29.2484    7.9906 C   0  0  0  0  0  0  0  0  0  0  0  0
    0.1532   29.2264    6.7631 C   0  0  0  0  0  0  0  0  0  0  0  0
   -1.0207   29.9650    6.5774 C   0  0  0  0  0  0  0  0  0  0  0  0
   -1.5857   30.7415    7.6182 C   0  0  0  0  0  0  0  0  0  0  0  0
  4  5  1  0  0  0
  5  6  1  0  0  0
  5  3  1  0  0  0
  3  1  1  0  0  0
  1 13  1  0  0  0
 13 14  1  0  0  0
 14 15  1  0  0  0
 15 16  2  0  0  0
 16 17  1  0  0  0
 17 18  2  0  0  0
 18 19  1  0  0  0
 19 20  2  0  0  0
 20 21  1  0  0  0
 21 22  2  0  0  0
 22 23  1  0  0  0
  5  8  1  0  0  0
  8  9  2  0  0  0
  9 10  1  0  0  0
 10 11  2  0  0  0
 11 12  1  0  0  0
 23 14  2  0  0  0
 12  8  1  0  0  0
 23 18  1  0  0  0
  6  7  1  0  0  0
  1  2  1  0  0  0
M  END
> <minimizedAffinity>
-8.64440

$$$$
OCNT-2317404


 26 29  0  0  0  0  0  0  0  0999 V2000
   -5.8186   26.6798    3.8911 C   0  0  0  0  0  0  0  0  0  0  0  0
   -6.0099   27.0631    5.2203 C   0  0  0  0  0  0  0  0  0  0  0  0
   -6.2130   28.4153    5.5526 C   0  0  0  0  0  0  0  0  0  0  0  0
   -6.2350   29.3746    4.5314 C   0  0  0  0  0  0  0  0  0  0  0  0
   -6.0466   28.9948    3.2046 C   0  0  0  0  0  0  0  0  0  0  0  0
   -5.8391   27.6524    2.8891 C   0  0  0  0  0  0  0  0  0  0  0  0
   -5.6112   25.4050    3.4413 O   0  0  0  0  0  0  0  0  0  0  0  0
   -4.9266   25.2573    2.1948 C   0  0  0  0  0  0  0  0  0  0  0  0
   -7.2322   22.9589   -0.5564 C   0  0  0  0  0  0  0  0  0  0  0  0
   -7.2034   24.3396   -0.7034 C   0  0  0  0  0  0  0  0  0  0  0  0
   -6.4623   25.1055    0.1923 C   0  0  0  0  0  0  0  0  0  0  0  0
   -5.7732   24.4652    1.2218 C   0  0  0  0  0  0  0  0  0  0  0  0
   -5.7814   23.1141    1.3667 N   0  0  0  0  0  0  0  0  0  0  0  0
   -6.5119   22.3977    0.4836 C   0  0  0  0  0  0  0  0  0  0  0  0
   -6.4554   28.8241    6.9886 C   0  0  0  0  0  0  0  0  0  0  0  0
   -5.2310   28.6948    7.7634 N   0  0  0  0  0  0  0  0  0  0  0  0
   -5.3922   28.6441    8.7619 H   0  0  0  0  0  0  0  0  0  0  0  0
   -4.1837   29.5597    7.4429 C   0  0  0  0  0  0  0  0  0  0  0  0
   -2.8551   29.1015    7.3099 C   0  0  0  0  0  0  0  0  0  0  0  0
   -2.2412   27.8073    7.4474 C   0  0  0  0  0  0  0  0  0  0  0  0
   -0.8814   27.8365    7.2265 C   0  0  0  0  0  0  0  0  0  0  0  0
   -0.3319   29.4106    6.8502 S   0  0  0  0  0  0  0  0  0  0  0  0
   -1.9056   30.0558    6.9779 C   0  0  0  0  0  0  0  0  0  0  0  0
   -2.1241   31.3630    6.7636 N   0  0  0  0  0  0  0  0  0  0  0  0
   -3.4120   31.6836    6.8994 C   0  0  0  0  0  0  0  0  0  0  0  0
   -4.4310   30.8718    7.2229 N   0  0  0  0  0  0  0  0  0  0  0  0
  9 10  2  0  0  0
 10 11  1  0  0  0
 11 12  2  0  0  0
 12  8  1  0  0  0
  8  7  1  0  0  0
  7  1  1  0  0  0
  1  2  2  0  0  0
  2  3  1  0  0  0
  3 15  1  0  0  0
 15 16  1  0  0  0
 16 18  1  0  0  0
 18 19  2  0  0  0
 19 20  1  0  0  0
 20 21  2  0  0  0
 21 22  1  0  0  0
 22 23  1  0  0  0
 23 24  2  0  0  0
 24 25  1  0  0  0
 25 26  2  0  0  0
  3  4  2  0  0  0
  4  5  1  0  0  0
  5  6  2  0  0  0
 12 13  1  0  0  0
 13 14  2  0  0  0
 14  9  1  0  0  0
  6  1  1  0  0  0
 26 18  1  0  0  0
 23 19  1  0  0  0
 16 17  1  0  0  0
M  END
> <minimizedAffinity>
-9.66127

$$$$
OCNT-2317414


 25 27  0  0  0  0  0  0  0  0999 V2000
   -5.6708   29.7448    8.2663 O   0  0  0  0  0  0  0  0  0  0  0  0
   -4.5913   29.7000    7.6703 C   0  0  0  0  0  0  0  0  0  0  0  0
   -3.4683   30.3753    8.1567 N   0  0  0  0  0  0  0  0  0  0  0  0
   -2.2692   30.6234    7.3492 C   0  0  0  0  0  0  0  0  0  0  0  0
   -1.0070   30.7207    8.1973 C   0  0  0  0  0  0  0  0  0  0  0  0
   -1.1589   31.7516    9.3055 C   0  0  0  0  0  0  0  0  0  0  0  0
   -2.3933   31.4446   10.1486 C   0  0  0  0  0  0  0  0  0  0  0  0
   -3.6710   31.2652    9.3156 C   0  0  0  0  0  0  0  0  0  0  0  0
   -4.2585   32.5729    8.8461 C   0  0  0  0  0  0  0  0  0  0  0  0
   -4.2309   33.7497    9.4425 N   0  0  0  0  0  0  0  0  0  0  0  0
   -4.8996   34.6067    8.6071 C   0  0  0  0  0  0  0  0  0  0  0  0
   -5.3394   33.9499    7.4843 C   0  0  0  0  0  0  0  0  0  0  0  0
   -4.9279   32.6581    7.6455 N   0  0  0  0  0  0  0  0  0  0  0  0
   -5.0419   31.8862    6.9964 H   0  0  0  0  0  0  0  0  0  0  0  0
   -4.4133   28.8873    6.3991 C   0  0  0  0  0  0  0  0  0  0  0  0
   -5.6437   28.9629    5.4926 C   0  0  0  0  0  0  0  0  0  0  0  0
   -5.5235   30.0962    4.6275 O   0  0  0  0  0  0  0  0  0  0  0  0
   -6.2486   30.0317    3.9812 H   0  0  0  0  0  0  0  0  0  0  0  0
   -5.7723   27.7194    4.6316 C   0  0  0  0  0  0  0  0  0  0  0  0
   -6.0249   26.4742    5.2272 C   0  0  0  0  0  0  0  0  0  0  0  0
   -6.1287   25.3218    4.4441 C   0  0  0  0  0  0  0  0  0  0  0  0
   -5.9783   25.4063    3.0616 C   0  0  0  0  0  0  0  0  0  0  0  0
   -6.1044   23.9856    2.0995 Cl  0  0  0  0  0  0  0  0  0  0  0  0
   -5.7256   26.6335    2.4539 C   0  0  0  0  0  0  0  0  0  0  0  0
   -5.6221   27.7857    3.2363 C   0  0  0  0  0  0  0  0  0  0  0  0
  1  2  2  0  0  0
  2 15  1  0  0  0
 15 16  1  0  0  0
 16 17  1  0  0  0
 16 19  1  0  0  0
 19 20  1  0  0  0
 20 21  2  0  0  0
 21 22  1  0  0  0
 22 23  1  0  0  0
 22 24  2  0  0  0
 24 25  1  0  0  0
  2  3  1  0  0  0
  3  4  1  0  0  0
  4  5  1  0  0  0
  5  6  1  0  0  0
  6  7  1  0  0  0
  7  8  1  0  0  0
  8  9  1  0  0  0
  9 10  2  0  0  0
 10 11  1  0  0  0
 11 12  2  0  0  0
 12 13  1  0  0  0
 25 19  2  0  0  0
  8  3  1  0  0  0
 13  9  1  0  0  0
 17 18  1  0  0  0
 13 14  1  0  0  0
M  END
> <minimizedAffinity>
-9.22417

$$$$
OCNT-2317417


 34 37  0  0  0  0  0  0  0  0999 V2000
   -2.7160   26.0164    3.8866 C   0  0  0  0  0  0  0  0  0  0  0  0
   -1.5930   26.1746    3.4257 O   0  0  0  0  0  0  0  0  0  0  0  0
   -3.2377   26.5613    5.0357 N   0  0  0  0  0  0  0  0  0  0  0  0
   -4.2201   26.4625    5.2458 H   0  0  0  0  0  0  0  0  0  0  0  0
   -5.4686   23.6433    1.6213 C   0  0  0  0  0  0  0  0  0  0  0  0
   -4.5117   23.0018    2.4162 C   0  0  0  0  0  0  0  0  0  0  0  0
   -3.6046   23.7643    3.1576 C   0  0  0  0  0  0  0  0  0  0  0  0
   -3.6690   25.1653    3.1180 C   0  0  0  0  0  0  0  0  0  0  0  0
   -4.6330   25.7979    2.3200 C   0  0  0  0  0  0  0  0  0  0  0  0
   -5.5433   25.0389    1.5819 C   0  0  0  0  0  0  0  0  0  0  0  0
   -6.6564   22.6745    0.7058 S   0  0  0  0  0  0  0  0  0  0  0  0
   -7.4054   23.5954   -0.1272 O   0  0  0  0  0  0  0  0  0  0  0  0
   -5.9399   21.5619    0.1148 O   0  0  0  0  0  0  0  0  0  0  0  0
   -7.7155   22.0795    1.9237 N   0  0  0  0  0  0  0  0  0  0  0  0
   -8.0561   23.0126    3.0091 C   0  0  0  0  0  0  0  0  0  0  0  0
   -7.2420   20.7806    3.7914 C   0  0  0  0  0  0  0  0  0  0  0  0
   -7.2097   20.8004    2.3658 O   0  0  0  0  0  0  0  0  0  0  0  0
   -2.5859   27.3570    5.9424 C   0  0  0  0  0  0  0  0  0  0  0  0
   -3.1720   28.4191    6.4425 N   0  0  0  0  0  0  0  0  0  0  0  0
   -2.3169   29.0617    7.3301 C   0  0  0  0  0  0  0  0  0  0  0  0
   -1.0967   28.4349    7.4989 C   0  0  0  0  0  0  0  0  0  0  0  0
   -1.0167   27.0354    6.5120 S   0  0  0  0  0  0  0  0  0  0  0  0
   -2.7290   30.2820    8.0211 C   0  0  0  0  0  0  0  0  0  0  0  0
   -2.1233   30.6174    9.2424 C   0  0  0  0  0  0  0  0  0  0  0  0
   -2.4938   31.7723    9.9375 C   0  0  0  0  0  0  0  0  0  0  0  0
   -3.4704   32.6101    9.4081 C   0  0  0  0  0  0  0  0  0  0  0  0
   -3.8473   33.7619   10.1034 N   0  0  0  0  0  0  0  0  0  0  0  0
   -4.6796   34.7259    9.5998 C   0  0  0  0  0  0  0  0  0  0  0  0
   -5.0198   35.6883   10.2839 O   0  0  0  0  0  0  0  0  0  0  0  0
   -5.0498   34.6001    8.1401 C   0  0  0  0  0  0  0  0  0  0  0  0
   -5.2371   33.1511    7.7215 C   0  0  0  0  0  0  0  0  0  0  0  0
   -4.0986   32.2936    8.2006 C   0  0  0  0  0  0  0  0  0  0  0  0
   -3.7314   31.1251    7.5159 C   0  0  0  0  0  0  0  0  0  0  0  0
   -3.5017   33.9264   11.0403 H   0  0  0  0  0  0  0  0  0  0  0  0
 16 17  1  0  0  0
 17 14  1  0  0  0
 14 15  1  0  0  0
 14 11  1  0  0  0
 11 12  2  0  0  0
 11 13  2  0  0  0
 11  5  1  0  0  0
  5  6  1  0  0  0
  6  7  2  0  0  0
  7  8  1  0  0  0
  8  1  1  0  0  0
  1  2  2  0  0  0
  1  3  1  0  0  0
  3 18  1  0  0  0
 18 19  2  0  0  0
 19 20  1  0  0  0
 20 23  1  0  0  0
 23 24  1  0  0  0
 24 25  2  0  0  0
 25 26  1  0  0  0
 26 27  1  0  0  0
 27 28  1  0  0  0
 28 29  2  0  0  0
 28 30  1  0  0  0
 30 31  1  0  0  0
 31 32  1  0  0  0
 32 33  1  0  0  0
 20 21  2  0  0  0
 21 22  1  0  0  0
  8  9  2  0  0  0
  9 10  1  0  0  0
 10  5  2  0  0  0
 22 18  1  0  0  0
 33 23  2  0  0  0
 32 26  2  0  0  0
  3  4  1  0  0  0
 27 34  1  0  0  0
M  END
> <minimizedAffinity>
-9.20193

$$$$
OCNT-2317425


 31 33  0  0  0  0  0  0  0  0999 V2000
   -4.7794   27.1222    4.2418 C   0  0  0  0  0  0  0  0  0  0  0  0
   -5.5930   27.5178    3.1807 C   0  0  0  0  0  0  0  0  0  0  0  0
   -6.2007   28.7673    3.2278 C   0  0  0  0  0  0  0  0  0  0  0  0
   -5.9789   29.6152    4.3204 C   0  0  0  0  0  0  0  0  0  0  0  0
   -5.1237   29.2495    5.3698 C   0  0  0  0  0  0  0  0  0  0  0  0
   -4.5493   27.9724    5.3288 C   0  0  0  0  0  0  0  0  0  0  0  0
   -4.0317   25.5143    4.1958 S   0  0  0  0  0  0  0  0  0  0  0  0
   -2.6836   25.6917    3.6983 O   0  0  0  0  0  0  0  0  0  0  0  0
   -4.2842   24.8432    5.4537 O   0  0  0  0  0  0  0  0  0  0  0  0
   -7.1346   23.5544   -0.7032 C   0  0  0  0  0  0  0  0  0  0  0  0
   -6.3356   23.5947    0.5286 N   0  0  0  0  0  0  0  0  0  0  0  0
   -7.2304   23.5198    1.6976 C   0  0  0  0  0  0  0  0  0  0  0  0
   -6.5918   22.8724    2.9269 C   0  0  0  0  0  0  0  0  0  0  0  0
   -5.1479   23.2550    3.2093 C   0  0  0  0  0  0  0  0  0  0  0  0
   -4.9455   24.7150    2.9946 N   0  0  0  0  0  0  0  0  0  0  0  0
   -4.4400   24.9663    1.6069 C   0  0  0  0  0  0  0  0  0  0  0  0
   -5.5600   24.8627    0.5518 C   0  0  0  0  0  0  0  0  0  0  0  0
   -4.9245   30.0288    6.5133 N   0  0  0  0  0  0  0  0  0  0  0  0
   -4.7046   29.4588    7.3278 H   0  0  0  0  0  0  0  0  0  0  0  0
   -4.1007   31.2261    6.4356 C   0  0  0  0  0  0  0  0  0  0  0  0
   -2.9188   31.0718    7.3653 C   0  0  0  0  0  0  0  0  0  0  0  0
   -2.9138   31.7160    8.6101 C   0  0  0  0  0  0  0  0  0  0  0  0
   -1.8307   31.5652    9.4677 C   0  0  0  0  0  0  0  0  0  0  0  0
   -1.8342   32.1921   10.6508 F   0  0  0  0  0  0  0  0  0  0  0  0
   -0.7426   30.7743    9.1182 C   0  0  0  0  0  0  0  0  0  0  0  0
   -0.7307   30.1040    7.8871 C   0  0  0  0  0  0  0  0  0  0  0  0
   -1.8238   30.2640    7.0150 C   0  0  0  0  0  0  0  0  0  0  0  0
    0.4525   29.2569    7.4893 C   0  0  0  0  0  0  0  0  0  0  0  0
    0.1363   27.9355    7.4121 F   0  0  0  0  0  0  0  0  0  0  0  0
    1.4877   29.3438    8.3702 F   0  0  0  0  0  0  0  0  0  0  0  0
    0.9679   29.5928    6.2748 F   0  0  0  0  0  0  0  0  0  0  0  0
 10 11  1  0  0  0
 11 12  1  0  0  0
 12 13  1  0  0  0
 13 14  1  0  0  0
 14 15  1  0  0  0
 15  7  1  0  0  0
  7  8  2  0  0  0
  7  9  2  0  0  0
  7  1  1  0  0  0
  1  2  2  0  0  0
  2  3  1  0  0  0
  3  4  2  0  0  0
  4  5  1  0  0  0
  5 18  1  0  0  0
 18 20  1  0  0  0
 20 21  1  0  0  0
 21 22  2  0  0  0
 22 23  1  0  0  0
 23 24  1  0  0  0
 23 25  2  0  0  0
 25 26  1  0  0  0
 26 28  1  0  0  0
 28 29  1  0  0  0
 28 30  1  0  0  0
 28 31  1  0  0  0
 26 27  2  0  0  0
  5  6  2  0  0  0
 15 16  1  0  0  0
 16 17  1  0  0  0
 17 11  1  0  0  0
  6  1  1  0  0  0
 27 21  1  0  0  0
 18 19  1  0  0  0
M  END
> <minimizedAffinity>
-10.78876

$$$$
OCNT-2317432


 24 26  0  0  0  0  0  0  0  0999 V2000
   -3.0000   26.5905    5.6810 N   0  0  0  0  0  0  0  0  0  0  0  0
   -2.7691   26.2100    4.3823 C   0  0  0  0  0  0  0  0  0  0  0  0
   -1.7083   26.3610    3.7940 O   0  0  0  0  0  0  0  0  0  0  0  0
   -3.8860   25.6355    3.8357 N   0  0  0  0  0  0  0  0  0  0  0  0
   -3.6476   25.9799    6.1598 H   0  0  0  0  0  0  0  0  0  0  0  0
   -4.7556   26.0066    4.1897 H   0  0  0  0  0  0  0  0  0  0  0  0
   -1.9000   27.0981    6.4697 C   0  0  0  0  0  0  0  0  0  0  0  0
   -1.5945   30.9918    6.5170 C   0  0  0  0  0  0  0  0  0  0  0  0
   -1.1339   29.6046    6.8775 C   0  0  0  0  0  0  0  0  0  0  0  0
    0.2790   29.3003    6.4586 C   0  0  0  0  0  0  0  0  0  0  0  0
   -2.1919   28.4949    6.8935 C   0  0  0  0  0  0  0  0  0  0  0  0
   -1.6247   29.0212    8.1603 C   0  0  0  0  0  0  0  0  0  0  0  0
   -2.4208   29.7510    9.0128 F   0  0  0  0  0  0  0  0  0  0  0  0
   -0.8126   28.2320    8.9417 F   0  0  0  0  0  0  0  0  0  0  0  0
   -3.8819   25.2800    2.4350 C   0  0  0  0  0  0  0  0  0  0  0  0
   -4.6489   24.0014    2.2100 C   0  0  0  0  0  0  0  0  0  0  0  0
   -4.3751   22.8891    3.0309 C   0  0  0  0  0  0  0  0  0  0  0  0
   -5.0572   21.6897    2.8841 C   0  0  0  0  0  0  0  0  0  0  0  0
   -6.0489   21.5643    1.9127 C   0  0  0  0  0  0  0  0  0  0  0  0
   -6.3756   22.6563    1.0750 C   0  0  0  0  0  0  0  0  0  0  0  0
   -5.6744   23.8576    1.2385 C   0  0  0  0  0  0  0  0  0  0  0  0
   -6.2519   25.0533    0.1261 S   0  0  0  0  0  0  0  0  0  0  0  0
   -7.3892   23.9912   -0.5615 C   0  0  0  0  0  0  0  0  0  0  0  0
   -7.3559   22.7522    0.0299 C   0  0  0  0  0  0  0  0  0  0  0  0
  8  9  1  0  0  0
  9 10  1  0  0  0
  9 11  1  0  0  0
 11  7  1  0  0  0
  7  1  1  0  0  0
  1  2  1  0  0  0
  2  3  2  0  0  0
  2  4  1  0  0  0
  4 15  1  0  0  0
 15 16  1  0  0  0
 16 17  1  0  0  0
 17 18  2  0  0  0
 18 19  1  0  0  0
 19 20  2  0  0  0
 20 21  1  0  0  0
 21 22  1  0  0  0
 22 23  1  0  0  0
 23 24  2  0  0  0
 11 12  1  0  0  0
 12 13  1  0  0  0
 12 14  1  0  0  0
 12  9  1  0  0  0
 21 16  2  0  0  0
 24 20  1  0  0  0
  1  5  1  0  0  0
  4  6  1  0  0  0
M  END
> <minimizedAffinity>
-9.21447

$$$$
OCNT-2317433


 22 24  0  0  0  0  0  0  0  0999 V2000
   -5.9143   27.9332    5.2667 C   0  0  0  0  0  0  0  0  0  0  0  0
   -6.8774   29.0863    5.5794 C   0  0  0  0  0  0  0  0  0  0  0  0
   -6.2459   29.8385    6.7492 C   0  0  0  0  0  0  0  0  0  0  0  0
   -5.2031   28.9379    7.2246 N   0  0  0  0  0  0  0  0  0  0  0  0
   -4.6441   28.3029    6.0305 C   0  0  0  0  0  0  0  0  0  0  0  0
   -5.6988   27.7336    3.7641 C   0  0  0  0  0  0  0  0  0  0  0  0
   -6.1097   23.5977    2.5314 C   0  0  0  0  0  0  0  0  0  0  0  0
   -5.8323   24.6021    1.5934 C   0  0  0  0  0  0  0  0  0  0  0  0
   -5.6949   25.9345    1.9917 C   0  0  0  0  0  0  0  0  0  0  0  0
   -5.8294   26.2923    3.3377 C   0  0  0  0  0  0  0  0  0  0  0  0
   -6.1074   25.2938    4.2774 C   0  0  0  0  0  0  0  0  0  0  0  0
   -6.2456   23.9617    3.8782 C   0  0  0  0  0  0  0  0  0  0  0  0
   -5.3374   21.2308    2.9279 C   0  0  0  0  0  0  0  0  0  0  0  0
   -6.2656   22.1439    2.1231 C   0  0  0  0  0  0  0  0  0  0  0  0
   -6.0470   21.9553    0.6198 C   0  0  0  0  0  0  0  0  0  0  0  0
   -4.2079   29.5157    8.1292 C   0  0  0  0  0  0  0  0  0  0  0  0
   -2.9994   30.1104    7.4916 C   0  0  0  0  0  0  0  0  0  0  0  0
   -2.9140   31.2458    6.8240 N   0  0  0  0  0  0  0  0  0  0  0  0
   -1.6096   31.3559    6.4111 N   0  0  0  0  0  0  0  0  0  0  0  0
   -0.8988   30.3080    6.8002 N   0  0  0  0  0  0  0  0  0  0  0  0
   -1.7610   29.5290    7.4701 N   0  0  0  0  0  0  0  0  0  0  0  0
   -1.3314   28.2785    8.0297 C   0  0  0  0  0  0  0  0  0  0  0  0
 13 14  1  0  0  0
 14 15  1  0  0  0
 14  7  1  0  0  0
  7  8  1  0  0  0
  8  9  2  0  0  0
  9 10  1  0  0  0
 10  6  1  0  0  0
  6  1  1  0  0  0
  1  2  1  0  0  0
  2  3  1  0  0  0
  3  4  1  0  0  0
  4 16  1  0  0  0
 16 17  1  0  0  0
 17 18  2  0  0  0
 18 19  1  0  0  0
 19 20  2  0  0  0
 20 21  1  0  0  0
 21 22  1  0  0  0
  4  5  1  0  0  0
 10 11  2  0  0  0
 11 12  1  0  0  0
 12  7  2  0  0  0
  5  1  1  0  0  0
 21 17  1  0  0  0
M  END
> <minimizedAffinity>
-8.50376

$$$$
OCNT-2317446


 28 31  0  0  0  0  0  0  0  0999 V2000
   -5.6091   24.7538    5.5910 N   0  0  0  0  0  0  0  0  0  0  0  0
   -5.5810   26.0850    5.2862 C   0  0  0  0  0  0  0  0  0  0  0  0
   -6.5854   26.6925    4.9177 O   0  0  0  0  0  0  0  0  0  0  0  0
   -4.3504   26.6973    5.4248 N   0  0  0  0  0  0  0  0  0  0  0  0
   -3.0693   26.0267    5.6727 C   0  0  0  0  0  0  0  0  0  0  0  0
   -2.3000   26.7205    6.7966 C   0  0  0  0  0  0  0  0  0  0  0  0
   -2.1766   28.2287    6.5410 C   0  0  0  0  0  0  0  0  0  0  0  0
   -3.5466   28.8845    6.2603 C   0  0  0  0  0  0  0  0  0  0  0  0
   -4.2350   28.1239    5.1161 C   0  0  0  0  0  0  0  0  0  0  0  0
   -5.0450   24.4840    6.3816 H   0  0  0  0  0  0  0  0  0  0  0  0
   -6.7357   23.0252    1.6907 C   0  0  0  0  0  0  0  0  0  0  0  0
   -7.2659   21.7239    1.8397 C   0  0  0  0  0  0  0  0  0  0  0  0
   -7.6238   21.2241    3.0955 C   0  0  0  0  0  0  0  0  0  0  0  0
   -7.4261   22.0269    4.2054 C   0  0  0  0  0  0  0  0  0  0  0  0
   -7.7557   21.7209    5.6333 C   0  0  0  0  0  0  0  0  0  0  0  0
   -6.9151   22.7753    6.3677 C   0  0  0  0  0  0  0  0  0  0  0  0
   -6.8254   23.9906    5.4222 C   0  0  0  0  0  0  0  0  0  0  0  0
   -6.8982   23.3159    4.0791 C   0  0  0  0  0  0  0  0  0  0  0  0
   -6.5602   23.8266    2.8330 C   0  0  0  0  0  0  0  0  0  0  0  0
   -5.9353   25.0442    0.3864 C   0  0  0  0  0  0  0  0  0  0  0  0
   -6.3391   23.5689    0.3274 C   0  0  0  0  0  0  0  0  0  0  0  0
   -7.4537   23.3457   -0.7030 C   0  0  0  0  0  0  0  0  0  0  0  0
   -4.3812   28.9711    7.5172 C   0  0  0  0  0  0  0  0  0  0  0  0
   -3.9399   29.3408    8.7099 N   0  0  0  0  0  0  0  0  0  0  0  0
   -5.0294   29.3204    9.5387 C   0  0  0  0  0  0  0  0  0  0  0  0
   -6.1586   28.9409    8.8481 C   0  0  0  0  0  0  0  0  0  0  0  0
   -5.7385   28.7147    7.5649 N   0  0  0  0  0  0  0  0  0  0  0  0
   -6.3219   28.4036    6.7924 H   0  0  0  0  0  0  0  0  0  0  0  0
 20 21  1  0  0  0
 21 22  1  0  0  0
 21 11  1  0  0  0
 11 12  1  0  0  0
 12 13  2  0  0  0
 13 14  1  0  0  0
 14 15  1  0  0  0
 15 16  1  0  0  0
 16 17  1  0  0  0
 17  1  1  0  0  0
  1  2  1  0  0  0
  2  3  2  0  0  0
  2  4  1  0  0  0
  4  5  1  0  0  0
  5  6  1  0  0  0
  6  7  1  0  0  0
  7  8  1  0  0  0
  8 23  1  0  0  0
 23 24  2  0  0  0
 24 25  1  0  0  0
 25 26  2  0  0  0
 26 27  1  0  0  0
  8  9  1  0  0  0
 17 18  1  0  0  0
 18 19  1  0  0  0
 19 11  2  0  0  0
 18 14  2  0  0  0
  9  4  1  0  0  0
 27 23  1  0  0  0
  1 10  1  0  0  0
 27 28  1  0  0  0
M  END
> <minimizedAffinity>
-9.18004

$$$$
OCNT-2317449


 25 27  0  0  0  0  0  0  0  0999 V2000
   -5.8734   27.9989    4.0843 C   0  0  0  0  0  0  0  0  0  0  0  0
   -6.1071   28.8482    3.2148 O   0  0  0  0  0  0  0  0  0  0  0  0
   -5.4966   26.7080    3.7197 N   0  0  0  0  0  0  0  0  0  0  0  0
   -5.0189   25.6921    4.6679 C   0  0  0  0  0  0  0  0  0  0  0  0
   -4.4350   24.4224    4.0347 C   0  0  0  0  0  0  0  0  0  0  0  0
   -5.2775   23.9580    2.8804 C   0  0  0  0  0  0  0  0  0  0  0  0
   -5.5150   22.6043    2.6267 C   0  0  0  0  0  0  0  0  0  0  0  0
   -6.2781   22.2298    1.5201 C   0  0  0  0  0  0  0  0  0  0  0  0
   -6.7889   23.2063    0.6652 C   0  0  0  0  0  0  0  0  0  0  0  0
   -7.7220   22.7371   -0.7030 Cl  0  0  0  0  0  0  0  0  0  0  0  0
   -6.5436   24.5583    0.9032 C   0  0  0  0  0  0  0  0  0  0  0  0
   -5.7891   24.9419    2.0176 C   0  0  0  0  0  0  0  0  0  0  0  0
   -5.4584   26.3888    2.2920 C   0  0  0  0  0  0  0  0  0  0  0  0
   -7.0127   29.6092    5.5792 C   0  0  0  0  0  0  0  0  0  0  0  0
   -6.1581   28.3281    5.5913 C   0  0  0  0  0  0  0  0  0  0  0  0
   -6.9171   27.4040    6.3633 O   0  0  0  0  0  0  0  0  0  0  0  0
   -6.3004   26.7556    6.7669 H   0  0  0  0  0  0  0  0  0  0  0  0
   -4.8153   28.6505    6.3199 C   0  0  0  0  0  0  0  0  0  0  0  0
   -4.8063   29.8730    7.1511 N   0  0  0  0  0  0  0  0  0  0  0  0
   -4.1864   31.0125    6.6562 C   0  0  0  0  0  0  0  0  0  0  0  0
   -4.1825   32.1607    7.3437 C   0  0  0  0  0  0  0  0  0  0  0  0
   -4.8402   32.2384    8.6212 C   0  0  0  0  0  0  0  0  0  0  0  0
   -5.4453   31.1616    9.1364 C   0  0  0  0  0  0  0  0  0  0  0  0
   -5.4412   29.8756    8.3898 C   0  0  0  0  0  0  0  0  0  0  0  0
   -5.9631   28.8836    8.8944 O   0  0  0  0  0  0  0  0  0  0  0  0
 14 15  1  0  0  0
 15 16  1  0  0  0
 15 18  1  0  0  0
 18 19  1  0  0  0
 19 20  1  0  0  0
 20 21  2  0  0  0
 21 22  1  0  0  0
 22 23  2  0  0  0
 23 24  1  0  0  0
 24 25  2  0  0  0
 15  1  1  0  0  0
  1  2  2  0  0  0
  1  3  1  0  0  0
  3  4  1  0  0  0
  4  5  1  0  0  0
  5  6  1  0  0  0
  6  7  1  0  0  0
  7  8  2  0  0  0
  8  9  1  0  0  0
  9 10  1  0  0  0
  9 11  2  0  0  0
 11 12  1  0  0  0
 12 13  1  0  0  0
 24 19  1  0  0  0
 13  3  1  0  0  0
 12  6  2  0  0  0
 16 17  1  0  0  0
M  END
> <minimizedAffinity>
-9.42325

$$$$
OCNT-2317457


 26 29  0  0  0  0  0  0  0  0999 V2000
   -3.8826   32.0667    6.6455 C   0  0  0  0  0  0  0  0  0  0  0  0
   -4.7429   32.3646    7.9048 C   0  0  0  0  0  0  0  0  0  0  0  0
   -3.8961   32.9701    9.0438 C   0  0  0  0  0  0  0  0  0  0  0  0
   -2.7941   32.0065    9.5246 C   0  0  0  0  0  0  0  0  0  0  0  0
   -2.1179   31.3443    8.3727 C   0  0  0  0  0  0  0  0  0  0  0  0
   -2.6416   31.3627    7.0951 C   0  0  0  0  0  0  0  0  0  0  0  0
   -1.8078   30.6463    6.2823 N   0  0  0  0  0  0  0  0  0  0  0  0
   -0.7423   30.1629    7.0084 C   0  0  0  0  0  0  0  0  0  0  0  0
    0.3475   29.3842    6.6009 C   0  0  0  0  0  0  0  0  0  0  0  0
    1.2903   29.0303    7.5710 C   0  0  0  0  0  0  0  0  0  0  0  0
    1.1462   29.4381    8.8953 C   0  0  0  0  0  0  0  0  0  0  0  0
    0.0499   30.2150    9.2879 C   0  0  0  0  0  0  0  0  0  0  0  0
   -0.9132   30.5874    8.3295 C   0  0  0  0  0  0  0  0  0  0  0  0
   -1.9756   30.4795    5.3000 H   0  0  0  0  0  0  0  0  0  0  0  0
   -4.5737   31.2199    5.6746 N   0  0  0  0  0  0  0  0  0  0  0  0
   -3.9179   30.9287    4.9555 H   0  0  0  0  0  0  0  0  0  0  0  0
   -5.2594   30.0710    6.2506 C   0  0  0  0  0  0  0  0  0  0  0  0
   -4.8630   26.9970    4.2912 C   0  0  0  0  0  0  0  0  0  0  0  0
   -5.9317   27.4648    3.6872 N   0  0  0  0  0  0  0  0  0  0  0  0
   -6.2172   28.6541    4.2964 C   0  0  0  0  0  0  0  0  0  0  0  0
   -5.3425   28.9106    5.3318 C   0  0  0  0  0  0  0  0  0  0  0  0
   -4.4813   27.8325    5.3207 N   0  0  0  0  0  0  0  0  0  0  0  0
   -3.3899   27.5978    6.2356 C   0  0  0  0  0  0  0  0  0  0  0  0
   -3.2739   25.9341    2.8756 C   0  0  0  0  0  0  0  0  0  0  0  0
   -4.1947   25.8405    4.0140 N   0  0  0  0  0  0  0  0  0  0  0  0
   -5.0717   24.6661    3.9219 C   0  0  0  0  0  0  0  0  0  0  0  0
 24 25  1  0  0  0
 25 26  1  0  0  0
 25 18  1  0  0  0
 18 19  2  0  0  0
 19 20  1  0  0  0
 20 21  2  0  0  0
 21 17  1  0  0  0
 17 15  1  0  0  0
 15  1  1  0  0  0
  1  2  1  0  0  0
  2  3  1  0  0  0
  3  4  1  0  0  0
  4  5  1  0  0  0
  5  6  2  0  0  0
  6  7  1  0  0  0
  7  8  1  0  0  0
  8  9  2  0  0  0
  9 10  1  0  0  0
 10 11  2  0  0  0
 11 12  1  0  0  0
 12 13  2  0  0  0
 21 22  1  0  0  0
 22 23  1  0  0  0
 22 18  1  0  0  0
  6  1  1  0  0  0
 13  8  1  0  0  0
 13  5  1  0  0  0
 15 16  1  0  0  0
  7 14  1  0  0  0
M  END
> <minimizedAffinity>
-9.13315

$$$$
OCNT-2317458


 23 26  0  0  0  0  0  0  0  0999 V2000
   -1.0375   28.6950    7.8256 C   0  0  0  0  0  0  0  0  0  0  0  0
   -2.4140   28.9749    7.8643 C   0  0  0  0  0  0  0  0  0  0  0  0
   -3.3103   28.3405    6.9968 C   0  0  0  0  0  0  0  0  0  0  0  0
   -2.8098   27.4236    6.0914 C   0  0  0  0  0  0  0  0  0  0  0  0
   -1.4448   27.1413    6.0483 C   0  0  0  0  0  0  0  0  0  0  0  0
   -0.5458   27.7661    6.9062 C   0  0  0  0  0  0  0  0  0  0  0  0
   -1.1304   26.1239    4.9998 C   0  0  0  0  0  0  0  0  0  0  0  0
   -2.5136   25.8351    4.4027 C   0  0  0  0  0  0  0  0  0  0  0  0
   -3.4951   26.6654    5.1258 N   0  0  0  0  0  0  0  0  0  0  0  0
   -4.8606   26.7012    4.8969 C   0  0  0  0  0  0  0  0  0  0  0  0
   -5.6899   27.3797    5.4938 O   0  0  0  0  0  0  0  0  0  0  0  0
   -5.3675   25.8279    3.8182 C   0  0  0  0  0  0  0  0  0  0  0  0
   -5.3692   26.3507    2.5181 C   0  0  0  0  0  0  0  0  0  0  0  0
   -5.8535   25.5794    1.4671 C   0  0  0  0  0  0  0  0  0  0  0  0
   -6.3285   24.2910    1.7152 C   0  0  0  0  0  0  0  0  0  0  0  0
   -6.3141   23.7534    3.0172 C   0  0  0  0  0  0  0  0  0  0  0  0
   -6.7764   22.4641    3.2932 C   0  0  0  0  0  0  0  0  0  0  0  0
   -6.7838   21.8940    4.5195 N   0  0  0  0  0  0  0  0  0  0  0  0
   -6.2922   22.6353    5.5307 C   0  0  0  0  0  0  0  0  0  0  0  0
   -5.8102   23.9247    5.3755 C   0  0  0  0  0  0  0  0  0  0  0  0
   -5.8208   24.5161    4.0956 C   0  0  0  0  0  0  0  0  0  0  0  0
   -0.7366   30.7050    9.0606 C   0  0  0  0  0  0  0  0  0  0  0  0
   -0.2916   29.3946    8.7351 O   0  0  0  0  0  0  0  0  0  0  0  0
 22 23  1  0  0  0
 23  1  1  0  0  0
  1  2  1  0  0  0
  2  3  2  0  0  0
  3  4  1  0  0  0
  4  5  2  0  0  0
  5  6  1  0  0  0
  5  7  1  0  0  0
  7  8  1  0  0  0
  8  9  1  0  0  0
  9 10  1  0  0  0
 10 11  2  0  0  0
 10 12  1  0  0  0
 12 13  2  0  0  0
 13 14  1  0  0  0
 14 15  2  0  0  0
 15 16  1  0  0  0
 16 17  2  0  0  0
 17 18  1  0  0  0
 18 19  2  0  0  0
 19 20  1  0  0  0
 20 21  2  0  0  0
  6  1  2  0  0  0
 21 12  1  0  0  0
  9  4  1  0  0  0
 21 16  1  0  0  0
M  END
> <minimizedAffinity>
-9.08802

$$$$
OCNT-2317464


 27 29  0  0  0  0  0  0  0  0999 V2000
   -3.5270   26.6272    5.5646 C   0  0  0  0  0  0  0  0  0  0  0  0
   -2.3631   27.5439    5.9967 C   0  0  0  0  0  0  0  0  0  0  0  0
   -1.1901   27.2104    5.8009 O   0  0  0  0  0  0  0  0  0  0  0  0
   -2.6855   28.7206    6.6632 N   0  0  0  0  0  0  0  0  0  0  0  0
   -1.5951   29.5576    7.1793 C   0  0  0  0  0  0  0  0  0  0  0  0
   -1.9621   30.2514    8.4963 C   0  0  0  0  0  0  0  0  0  0  0  0
   -3.2052   31.0217    8.4056 N   0  0  0  0  0  0  0  0  0  0  0  0
   -3.3886   32.0831    9.2797 C   0  0  0  0  0  0  0  0  0  0  0  0
   -2.5905   32.3768   10.1626 O   0  0  0  0  0  0  0  0  0  0  0  0
   -4.1437   30.6453    7.3467 C   0  0  0  0  0  0  0  0  0  0  0  0
   -4.0517   29.1587    6.9705 C   0  0  0  0  0  0  0  0  0  0  0  0
   -4.6268   32.8944    9.1068 C   0  0  0  0  0  0  0  0  0  0  0  0
   -4.7084   34.2813    9.7059 C   0  0  0  0  0  0  0  0  0  0  0  0
   -4.6210   34.1196    8.2190 C   0  0  0  0  0  0  0  0  0  0  0  0
   -3.9673   26.9925    4.2137 N   0  0  0  0  0  0  0  0  0  0  0  0
   -3.4844   26.4001    3.5310 H   0  0  0  0  0  0  0  0  0  0  0  0
   -5.4181   26.9937    3.9479 C   0  0  0  0  0  0  0  0  0  0  0  0
   -5.8583   28.2344    3.1392 C   0  0  0  0  0  0  0  0  0  0  0  0
   -6.1645   27.0014    5.3023 C   0  0  0  0  0  0  0  0  0  0  0  0
   -6.3877   23.5254    1.4368 C   0  0  0  0  0  0  0  0  0  0  0  0
   -6.0052   24.7438    0.8715 C   0  0  0  0  0  0  0  0  0  0  0  0
   -5.6929   25.8355    1.6872 C   0  0  0  0  0  0  0  0  0  0  0  0
   -5.7498   25.7495    3.0935 C   0  0  0  0  0  0  0  0  0  0  0  0
   -6.1447   24.5196    3.6445 C   0  0  0  0  0  0  0  0  0  0  0  0
   -6.4594   23.4248    2.8291 C   0  0  0  0  0  0  0  0  0  0  0  0
   -7.6221   22.7641   -0.6091 C   0  0  0  0  0  0  0  0  0  0  0  0
   -6.7419   22.3517    0.5615 C   0  0  0  0  0  0  0  0  0  0  0  0
 26 27  1  0  0  0
 27 20  1  0  0  0
 20 21  1  0  0  0
 21 22  2  0  0  0
 22 23  1  0  0  0
 23 17  1  0  0  0
 17 18  1  0  0  0
 17 19  1  0  0  0
 17 15  1  0  0  0
 15  1  1  0  0  0
  1  2  1  0  0  0
  2  3  2  0  0  0
  2  4  1  0  0  0
  4  5  1  0  0  0
  5  6  1  0  0  0
  6  7  1  0  0  0
  7  8  1  0  0  0
  8  9  2  0  0  0
  8 12  1  0  0  0
 12 13  1  0  0  0
 13 14  1  0  0  0
  7 10  1  0  0  0
 10 11  1  0  0  0
 23 24  2  0  0  0
 24 25  1  0  0  0
 25 20  2  0  0  0
 11  4  1  0  0  0
 14 12  1  0  0  0
 15 16  1  0  0  0
M  END
> <minimizedAffinity>
-9.97959

$$$$
OCNT-2317466


 25 28  0  0  0  0  0  0  0  0999 V2000
   -6.6925   30.1344    6.5244 N   0  0  0  0  0  0  0  0  0  0  0  0
   -7.6931   30.3170    6.5923 H   0  0  0  0  0  0  0  0  0  0  0  0
   -6.0963   24.5826    5.2347 C   0  0  0  0  0  0  0  0  0  0  0  0
   -5.9802   25.6994    4.2658 C   0  0  0  0  0  0  0  0  0  0  0  0
   -5.7180   25.4513    2.9725 N   0  0  0  0  0  0  0  0  0  0  0  0
   -5.6911   26.6800    2.4147 N   0  0  0  0  0  0  0  0  0  0  0  0
   -5.9175   27.6937    3.2972 C   0  0  0  0  0  0  0  0  0  0  0  0
   -5.9569   29.0075    3.0133 N   0  0  0  0  0  0  0  0  0  0  0  0
   -6.2114   29.7616    4.1186 C   0  0  0  0  0  0  0  0  0  0  0  0
   -6.3806   29.3120    5.4362 C   0  0  0  0  0  0  0  0  0  0  0  0
   -6.3646   27.9222    5.6289 C   0  0  0  0  0  0  0  0  0  0  0  0
   -6.1082   27.0895    4.5270 C   0  0  0  0  0  0  0  0  0  0  0  0
   -5.5162   26.7694    1.4224 H   0  0  0  0  0  0  0  0  0  0  0  0
   -6.1228   29.8801    7.8456 C   0  0  0  0  0  0  0  0  0  0  0  0
   -4.9621   30.7949    8.1345 C   0  0  0  0  0  0  0  0  0  0  0  0
   -5.1365   31.9985    8.8306 C   0  0  0  0  0  0  0  0  0  0  0  0
   -4.0447   32.8323    9.0836 C   0  0  0  0  0  0  0  0  0  0  0  0
   -2.7681   32.4785    8.6398 C   0  0  0  0  0  0  0  0  0  0  0  0
   -2.5818   31.2917    7.9301 C   0  0  0  0  0  0  0  0  0  0  0  0
   -3.6768   30.4568    7.6951 C   0  0  0  0  0  0  0  0  0  0  0  0
   -3.5019   29.3085    7.0199 F   0  0  0  0  0  0  0  0  0  0  0  0
   -1.3643   30.8553    7.4702 O   0  0  0  0  0  0  0  0  0  0  0  0
   -0.5476   30.1512    8.4246 C   0  0  0  0  0  0  0  0  0  0  0  0
    0.5866   29.3674    7.8191 C   0  0  0  0  0  0  0  0  0  0  0  0
   -0.6050   28.6482    8.3775 C   0  0  0  0  0  0  0  0  0  0  0  0
  3  4  1  0  0  0
  4  5  2  0  0  0
  5  6  1  0  0  0
  6  7  1  0  0  0
  7  8  1  0  0  0
  8  9  2  0  0  0
  9 10  1  0  0  0
 10  1  1  0  0  0
  1 14  1  0  0  0
 14 15  1  0  0  0
 15 16  2  0  0  0
 16 17  1  0  0  0
 17 18  2  0  0  0
 18 19  1  0  0  0
 19 22  1  0  0  0
 22 23  1  0  0  0
 23 24  1  0  0  0
 24 25  1  0  0  0
 19 20  2  0  0  0
 20 21  1  0  0  0
 10 11  2  0  0  0
 11 12  1  0  0  0
 12  4  1  0  0  0
 12  7  2  0  0  0
 20 15  1  0  0  0
 25 23  1  0  0  0
  6 13  1  0  0  0
  1  2  1  0  0  0
M  END
> <minimizedAffinity>
-8.61573

$$$$
OCNT-2317467


 24 26  0  0  0  0  0  0  0  0999 V2000
   -3.5434   28.0124    5.7440 N   0  0  0  0  0  0  0  0  0  0  0  0
   -2.8448   28.1115    6.9349 C   0  0  0  0  0  0  0  0  0  0  0  0
   -2.2643   27.1793    7.4867 O   0  0  0  0  0  0  0  0  0  0  0  0
   -3.8188   28.9171    5.3673 H   0  0  0  0  0  0  0  0  0  0  0  0
   -2.8325   29.5690    7.5183 C   0  0  0  0  0  0  0  0  0  0  0  0
   -2.5822   30.5099    6.3765 N   0  0  0  0  0  0  0  0  0  0  0  0
   -1.8388   31.6933    6.8379 C   0  0  0  0  0  0  0  0  0  0  0  0
   -2.4155   32.3336    8.1018 C   0  0  0  0  0  0  0  0  0  0  0  0
   -3.8392   32.4046    8.0049 O   0  0  0  0  0  0  0  0  0  0  0  0
   -4.4883   31.2988    8.5003 C   0  0  0  0  0  0  0  0  0  0  0  0
   -5.6669   31.6139    9.1901 C   0  0  0  0  0  0  0  0  0  0  0  0
   -6.4378   30.6131    9.7695 C   0  0  0  0  0  0  0  0  0  0  0  0
   -6.0318   29.2909    9.6571 C   0  0  0  0  0  0  0  0  0  0  0  0
   -4.8706   28.9696    8.9460 C   0  0  0  0  0  0  0  0  0  0  0  0
   -4.0834   29.9571    8.3180 C   0  0  0  0  0  0  0  0  0  0  0  0
   -3.5064   30.8402    6.0761 H   0  0  0  0  0  0  0  0  0  0  0  0
   -6.6394   24.3772    4.5946 C   0  0  0  0  0  0  0  0  0  0  0  0
   -5.3167   25.0597    4.4093 C   0  0  0  0  0  0  0  0  0  0  0  0
   -5.0131   26.2173    5.1411 C   0  0  0  0  0  0  0  0  0  0  0  0
   -3.7872   26.8626    4.9755 C   0  0  0  0  0  0  0  0  0  0  0  0
   -2.8975   26.3041    4.0689 C   0  0  0  0  0  0  0  0  0  0  0  0
   -3.1523   25.1832    3.3468 N   0  0  0  0  0  0  0  0  0  0  0  0
   -4.3500   24.5750    3.5215 C   0  0  0  0  0  0  0  0  0  0  0  0
   -4.5838   23.3423    2.6969 C   0  0  0  0  0  0  0  0  0  0  0  0
 17 18  1  0  0  0
 18 19  1  0  0  0
 19 20  2  0  0  0
 20  1  1  0  0  0
  1  2  1  0  0  0
  2  3  2  0  0  0
  2  5  1  0  0  0
  5  6  1  0  0  0
  6  7  1  0  0  0
  7  8  1  0  0  0
  8  9  1  0  0  0
  9 10  1  0  0  0
 10 11  2  0  0  0
 11 12  1  0  0  0
 12 13  2  0  0  0
 13 14  1  0  0  0
 14 15  2  0  0  0
 20 21  1  0  0  0
 21 22  2  0  0  0
 22 23  1  0  0  0
 23 24  1  0  0  0
 23 18  2  0  0  0
 15  5  1  0  0  0
 15 10  1  0  0  0
  1  4  1  0  0  0
  6 16  1  0  0  0
M  END
> <minimizedAffinity>
-8.52665

$$$$
OCNT-2317470


 24 26  0  0  0  0  0  0  0  0999 V2000
   -1.4110   26.3072    3.7776 O   0  0  0  0  0  0  0  0  0  0  0  0
   -2.3485   26.2350    4.5738 C   0  0  0  0  0  0  0  0  0  0  0  0
   -3.6562   25.9625    4.1523 N   0  0  0  0  0  0  0  0  0  0  0  0
   -4.7607   25.7549    5.0862 C   0  0  0  0  0  0  0  0  0  0  0  0
   -6.0431   25.1321    4.5396 C   0  0  0  0  0  0  0  0  0  0  0  0
   -5.8319   23.7528    3.9073 C   0  0  0  0  0  0  0  0  0  0  0  0
   -5.4079   23.7379    2.5016 N   0  0  0  0  0  0  0  0  0  0  0  0
   -4.0616   24.3137    2.3191 C   0  0  0  0  0  0  0  0  0  0  0  0
   -3.8922   25.7915    2.7154 C   0  0  0  0  0  0  0  0  0  0  0  0
   -6.4105   24.2440    1.5513 C   0  0  0  0  0  0  0  0  0  0  0  0
   -7.2192   23.1475    0.8426 C   0  0  0  0  0  0  0  0  0  0  0  0
   -7.8596   23.8564   -0.3453 C   0  0  0  0  0  0  0  0  0  0  0  0
   -6.9313   25.0176   -0.6881 C   0  0  0  0  0  0  0  0  0  0  0  0
   -5.8082   24.9789    0.3441 C   0  0  0  0  0  0  0  0  0  0  0  0
   -2.1370   26.4682    6.0834 C   0  0  0  0  0  0  0  0  0  0  0  0
   -1.0955   27.3652    6.4383 O   0  0  0  0  0  0  0  0  0  0  0  0
   -1.3741   28.3745    7.3178 C   0  0  0  0  0  0  0  0  0  0  0  0
   -2.6438   28.7223    7.7867 C   0  0  0  0  0  0  0  0  0  0  0  0
   -2.7908   29.7880    8.6814 C   0  0  0  0  0  0  0  0  0  0  0  0
   -1.6731   30.5025    9.1008 C   0  0  0  0  0  0  0  0  0  0  0  0
   -1.8259   31.5194    9.9587 F   0  0  0  0  0  0  0  0  0  0  0  0
   -0.4065   30.1778    8.6430 C   0  0  0  0  0  0  0  0  0  0  0  0
   -0.2682   29.1186    7.7530 C   0  0  0  0  0  0  0  0  0  0  0  0
    0.9632   28.8059    7.3203 F   0  0  0  0  0  0  0  0  0  0  0  0
  1  2  2  0  0  0
  2 15  1  0  0  0
 15 16  1  0  0  0
 16 17  1  0  0  0
 17 18  1  0  0  0
 18 19  2  0  0  0
 19 20  1  0  0  0
 20 21  1  0  0  0
 20 22  2  0  0  0
 22 23  1  0  0  0
 23 24  1  0  0  0
  2  3  1  0  0  0
  3  4  1  0  0  0
  4  5  1  0  0  0
  5  6  1  0  0  0
  6  7  1  0  0  0
  7 10  1  0  0  0
 10 11  1  0  0  0
 11 12  1  0  0  0
 12 13  1  0  0  0
 13 14  1  0  0  0
  7  8  1  0  0  0
  8  9  1  0  0  0
 23 17  2  0  0  0
  9  3  1  0  0  0
 14 10  1  0  0  0
M  END
> <minimizedAffinity>
-9.58158

$$$$
OCNT-2317471


 23 25  0  0  0  0  0  0  0  0999 V2000
   -3.7305   31.0495    7.0132 C   0  0  0  0  0  0  0  0  0  0  0  0
   -5.3873   26.3141    4.4887 C   0  0  0  0  0  0  0  0  0  0  0  0
   -5.5765   26.3667    2.9693 C   0  0  0  0  0  0  0  0  0  0  0  0
   -6.3602   27.2291    5.2758 C   0  0  0  0  0  0  0  0  0  0  0  0
   -5.2767   28.1973    5.3387 N   0  0  0  0  0  0  0  0  0  0  0  0
   -5.2387   29.3364    6.0914 C   0  0  0  0  0  0  0  0  0  0  0  0
   -6.2370   29.8184    6.6173 O   0  0  0  0  0  0  0  0  0  0  0  0
   -3.9929   29.8949    6.1930 N   0  0  0  0  0  0  0  0  0  0  0  0
   -4.2437   27.2464    4.9695 C   0  0  0  0  0  0  0  0  0  0  0  0
   -3.2101   29.3613    5.8432 H   0  0  0  0  0  0  0  0  0  0  0  0
   -6.5917   24.1884    5.1890 C   0  0  0  0  0  0  0  0  0  0  0  0
   -5.2484   24.8851    5.0318 C   0  0  0  0  0  0  0  0  0  0  0  0
   -2.2680   31.2155    7.3598 C   0  0  0  0  0  0  0  0  0  0  0  0
   -1.3712   30.1082    6.8686 C   0  0  0  0  0  0  0  0  0  0  0  0
   -0.7549   29.5632    8.0908 N   0  0  0  0  0  0  0  0  0  0  0  0
   -0.6694   30.6443    9.0878 C   0  0  0  0  0  0  0  0  0  0  0  0
   -1.8072   31.5588    8.7575 C   0  0  0  0  0  0  0  0  0  0  0  0
   -1.6391   32.5737    7.6413 C   0  0  0  0  0  0  0  0  0  0  0  0
   -1.3763   28.8418    8.4584 H   0  0  0  0  0  0  0  0  0  0  0  0
   -2.7300   31.8338    9.8943 C   0  0  0  0  0  0  0  0  0  0  0  0
   -3.5504   30.7807   10.1121 F   0  0  0  0  0  0  0  0  0  0  0  0
   -3.5011   32.9145    9.6330 F   0  0  0  0  0  0  0  0  0  0  0  0
   -2.0702   32.0782   11.0537 F   0  0  0  0  0  0  0  0  0  0  0  0
 11 12  1  0  0  0
 12  2  1  0  0  0
  2  3  1  0  0  0
  2  4  1  0  0  0
  4  5  1  0  0  0
  5  6  1  0  0  0
  6  7  2  0  0  0
  6  8  1  0  0  0
  8  1  1  0  0  0
 13  1  1  0  0  0
 13 14  1  0  0  0
 14 15  1  0  0  0
 15 16  1  0  0  0
 16 17  1  0  0  0
 17 20  1  0  0  0
 20 21  1  0  0  0
 20 22  1  0  0  0
 20 23  1  0  0  0
 17 18  1  0  0  0
  5  9  1  0  0  0
  9  2  1  0  0  0
 17 13  1  0  0  0
 18 13  1  0  0  0
  8 10  1  0  0  0
 15 19  1  0  0  0
M  END
> <minimizedAffinity>
-7.97893

$$$$
OCNT-2317479


 29 31  0  0  0  0  0  0  0  0999 V2000
   -4.4637   25.6483    2.7088 N   0  0  0  0  0  0  0  0  0  0  0  0
   -4.9315   25.8444    3.9860 C   0  0  0  0  0  0  0  0  0  0  0  0
   -5.1229   24.9198    4.7702 O   0  0  0  0  0  0  0  0  0  0  0  0
   -4.4890   26.4024    2.0384 H   0  0  0  0  0  0  0  0  0  0  0  0
   -5.2067   27.2342    4.3404 C   0  0  0  0  0  0  0  0  0  0  0  0
   -4.5509   27.9874    5.3124 C   0  0  0  0  0  0  0  0  0  0  0  0
   -3.3324   27.6342    6.0936 C   0  0  0  0  0  0  0  0  0  0  0  0
   -5.2113   29.2148    5.3846 N   0  0  0  0  0  0  0  0  0  0  0  0
   -6.1005   29.3384    4.3587 N   0  0  0  0  0  0  0  0  0  0  0  0
   -6.1280   28.1409    3.7834 C   0  0  0  0  0  0  0  0  0  0  0  0
   -5.1193   30.2883    6.3093 C   0  0  0  0  0  0  0  0  0  0  0  0
   -4.2282   31.2225    6.1448 N   0  0  0  0  0  0  0  0  0  0  0  0
   -4.1920   32.2173    7.0835 N   0  0  0  0  0  0  0  0  0  0  0  0
   -5.0078   32.3131    8.1803 C   0  0  0  0  0  0  0  0  0  0  0  0
   -4.9191   33.2030    9.0173 O   0  0  0  0  0  0  0  0  0  0  0  0
   -6.0447   31.2697    8.2979 C   0  0  0  0  0  0  0  0  0  0  0  0
   -6.1229   30.2830    7.3998 C   0  0  0  0  0  0  0  0  0  0  0  0
   -3.4769   32.9272    6.9616 H   0  0  0  0  0  0  0  0  0  0  0  0
   -4.3641   24.3283    2.1293 C   0  0  0  0  0  0  0  0  0  0  0  0
   -6.1685   22.8073    1.1766 C   0  0  0  0  0  0  0  0  0  0  0  0
   -7.2473   22.5973    0.3121 C   0  0  0  0  0  0  0  0  0  0  0  0
   -7.6622   23.6103   -0.5552 C   0  0  0  0  0  0  0  0  0  0  0  0
   -7.0059   24.8377   -0.5627 C   0  0  0  0  0  0  0  0  0  0  0  0
   -5.9391   25.0606    0.3062 C   0  0  0  0  0  0  0  0  0  0  0  0
   -5.5165   24.0559    1.1913 C   0  0  0  0  0  0  0  0  0  0  0  0
   -5.6851   21.8687    2.0527 O   0  0  0  0  0  0  0  0  0  0  0  0
   -6.6483   21.1579    2.8292 C   0  0  0  0  0  0  0  0  0  0  0  0
   -8.0829   22.6352    4.2763 C   0  0  0  0  0  0  0  0  0  0  0  0
   -6.9295   21.9960    4.0400 C   0  0  0  0  0  0  0  0  0  0  0  0
 28 29  2  0  0  0
 29 27  1  0  0  0
 27 26  1  0  0  0
 26 20  1  0  0  0
 20 21  2  0  0  0
 21 22  1  0  0  0
 22 23  2  0  0  0
 23 24  1  0  0  0
 24 25  2  0  0  0
 25 19  1  0  0  0
 19  1  1  0  0  0
  1  2  1  0  0  0
  2  3  2  0  0  0
  2  5  1  0  0  0
  5  6  2  0  0  0
  6  7  1  0  0  0
  6  8  1  0  0  0
  8 11  1  0  0  0
 11 12  2  0  0  0
 12 13  1  0  0  0
 13 14  1  0  0  0
 14 15  2  0  0  0
 14 16  1  0  0  0
 16 17  2  0  0  0
  8  9  1  0  0  0
  9 10  2  0  0  0
 25 20  1  0  0  0
 10  5  1  0  0  0
 17 11  1  0  0  0
  1  4  1  0  0  0
 13 18  1  0  0  0
M  END
> <minimizedAffinity>
-8.92213

$$$$
OCNT-2317486


 24 26  0  0  0  0  0  0  0  0999 V2000
   -3.7677   28.8469    5.8900 N   0  0  0  0  0  0  0  0  0  0  0  0
   -4.9883   28.2258    5.7611 C   0  0  0  0  0  0  0  0  0  0  0  0
   -5.8947   28.2457    6.5896 O   0  0  0  0  0  0  0  0  0  0  0  0
   -5.1241   27.5499    4.5668 N   0  0  0  0  0  0  0  0  0  0  0  0
   -6.1382   26.5400    4.2811 C   0  0  0  0  0  0  0  0  0  0  0  0
   -5.2715   26.1488    3.0690 C   0  0  0  0  0  0  0  0  0  0  0  0
   -4.1074   26.8907    3.7573 C   0  0  0  0  0  0  0  0  0  0  0  0
   -3.1534   28.8582    5.0892 H   0  0  0  0  0  0  0  0  0  0  0  0
   -2.3955   29.1431    7.9560 C   0  0  0  0  0  0  0  0  0  0  0  0
   -2.1796   30.0526    8.9087 N   0  0  0  0  0  0  0  0  0  0  0  0
   -2.9875   31.0687    8.5428 N   0  0  0  0  0  0  0  0  0  0  0  0
   -3.0275   32.2679    9.3435 C   0  0  0  0  0  0  0  0  0  0  0  0
   -3.7017   30.8216    7.4061 C   0  0  0  0  0  0  0  0  0  0  0  0
   -3.3359   29.5650    6.9885 C   0  0  0  0  0  0  0  0  0  0  0  0
   -0.5350   27.9415    7.2338 C   0  0  0  0  0  0  0  0  0  0  0  0
   -1.7591   27.9489    7.9592 O   0  0  0  0  0  0  0  0  0  0  0  0
   -5.1222   24.6497    2.8483 C   0  0  0  0  0  0  0  0  0  0  0  0
   -5.8892   24.2189    1.6180 C   0  0  0  0  0  0  0  0  0  0  0  0
   -6.1214   25.1711    0.6082 C   0  0  0  0  0  0  0  0  0  0  0  0
   -6.8415   24.8421   -0.5416 C   0  0  0  0  0  0  0  0  0  0  0  0
   -7.3439   23.5551   -0.7031 C   0  0  0  0  0  0  0  0  0  0  0  0
   -7.1246   22.5964    0.2846 C   0  0  0  0  0  0  0  0  0  0  0  0
   -6.4029   22.9227    1.4387 C   0  0  0  0  0  0  0  0  0  0  0  0
   -6.1556   21.5395    2.7184 Br  0  0  0  0  0  0  0  0  0  0  0  0
 15 16  1  0  0  0
 16  9  1  0  0  0
  9 10  2  0  0  0
 10 11  1  0  0  0
 11 12  1  0  0  0
 11 13  1  0  0  0
 13 14  2  0  0  0
 14  1  1  0  0  0
  1  2  1  0  0  0
  2  3  2  0  0  0
  2  4  1  0  0  0
  4  5  1  0  0  0
  5  6  1  0  0  0
  6 17  1  0  0  0
 17 18  1  0  0  0
 18 19  2  0  0  0
 19 20  1  0  0  0
 20 21  2  0  0  0
 21 22  1  0  0  0
 22 23  2  0  0  0
 23 24  1  0  0  0
  6  7  1  0  0  0
 14  9  1  0  0  0
  7  4  1  0  0  0
 23 18  1  0  0  0
  1  8  1  0  0  0
M  END
> <minimizedAffinity>
-9.03340

$$$$
OCNT-2317489


 25 28  0  0  0  0  0  0  0  0999 V2000
   -5.7492   30.2034    6.9737 O   0  0  0  0  0  0  0  0  0  0  0  0
   -4.8262   29.9087    6.2284 C   0  0  0  0  0  0  0  0  0  0  0  0
   -4.9559   29.1604    5.0875 N   0  0  0  0  0  0  0  0  0  0  0  0
   -3.5200   30.2851    6.4226 N   0  0  0  0  0  0  0  0  0  0  0  0
   -4.1297   28.6447    4.8241 H   0  0  0  0  0  0  0  0  0  0  0  0
   -2.9882   30.3925    5.5717 H   0  0  0  0  0  0  0  0  0  0  0  0
   -3.1690   31.1533    7.5335 C   0  0  0  0  0  0  0  0  0  0  0  0
   -1.7957   31.8324    7.3391 C   0  0  0  0  0  0  0  0  0  0  0  0
   -1.0103   31.3845    8.5858 C   0  0  0  0  0  0  0  0  0  0  0  0
   -1.6036   32.0719    9.8278 C   0  0  0  0  0  0  0  0  0  0  0  0
   -2.9454   31.3477   10.0170 C   0  0  0  0  0  0  0  0  0  0  0  0
   -2.9690   30.3546    8.8412 C   0  0  0  0  0  0  0  0  0  0  0  0
   -1.4955   29.9472    8.7614 C   0  0  0  0  0  0  0  0  0  0  0  0
   -6.2281   28.5728    4.7274 C   0  0  0  0  0  0  0  0  0  0  0  0
   -6.0542   27.2243    4.0897 C   0  0  0  0  0  0  0  0  0  0  0  0
   -5.7191   27.0930    2.7394 C   0  0  0  0  0  0  0  0  0  0  0  0
   -5.5823   25.8246    2.1827 C   0  0  0  0  0  0  0  0  0  0  0  0
   -5.7884   24.7228    2.9960 C   0  0  0  0  0  0  0  0  0  0  0  0
   -6.1161   24.8076    4.3032 N   0  0  0  0  0  0  0  0  0  0  0  0
   -6.2401   26.0526    4.8165 C   0  0  0  0  0  0  0  0  0  0  0  0
   -5.6412   23.4880    2.3976 O   0  0  0  0  0  0  0  0  0  0  0  0
   -6.8600   22.9769    1.8597 C   0  0  0  0  0  0  0  0  0  0  0  0
   -6.7459   22.9994    0.3633 C   0  0  0  0  0  0  0  0  0  0  0  0
   -7.4132   24.0863   -0.4404 C   0  0  0  0  0  0  0  0  0  0  0  0
   -7.9374   22.6773   -0.5022 C   0  0  0  0  0  0  0  0  0  0  0  0
  1  2  2  0  0  0
  2  3  1  0  0  0
  3 14  1  0  0  0
 14 15  1  0  0  0
 15 16  2  0  0  0
 16 17  1  0  0  0
 17 18  2  0  0  0
 18 21  1  0  0  0
 21 22  1  0  0  0
 22 23  1  0  0  0
 23 24  1  0  0  0
 24 25  1  0  0  0
 18 19  1  0  0  0
 19 20  2  0  0  0
  2  4  1  0  0  0
  4  7  1  0  0  0
  7  8  1  0  0  0
  8  9  1  0  0  0
  9 10  1  0  0  0
 10 11  1  0  0  0
 11 12  1  0  0  0
 12 13  1  0  0  0
 20 15  1  0  0  0
 12  7  1  0  0  0
 25 23  1  0  0  0
 13  9  1  0  0  0
  3  5  1  0  0  0
  4  6  1  0  0  0
M  END
> <minimizedAffinity>
-9.20995

$$$$
OCNT-2317493


 25 28  0  0  0  0  0  0  0  0999 V2000
   -5.0108   27.8861    5.4455 N   0  0  0  0  0  0  0  0  0  0  0  0
   -5.7845   26.8948    4.9185 C   0  0  0  0  0  0  0  0  0  0  0  0
   -4.9096   25.8413    4.7507 C   0  0  0  0  0  0  0  0  0  0  0  0
   -3.6526   26.2456    5.1327 N   0  0  0  0  0  0  0  0  0  0  0  0
   -3.7259   27.5024    5.5498 N   0  0  0  0  0  0  0  0  0  0  0  0
   -5.4151   29.2167    5.8532 C   0  0  0  0  0  0  0  0  0  0  0  0
   -3.0642   30.6637    8.2672 C   0  0  0  0  0  0  0  0  0  0  0  0
   -3.4783   30.5796    6.9583 C   0  0  0  0  0  0  0  0  0  0  0  0
   -4.5751   29.6850    6.9850 C   0  0  0  0  0  0  0  0  0  0  0  0
   -4.8210   29.2625    8.2318 N   0  0  0  0  0  0  0  0  0  0  0  0
   -3.8737   29.8740    9.0304 O   0  0  0  0  0  0  0  0  0  0  0  0
   -2.4155   31.7132   10.4289 C   0  0  0  0  0  0  0  0  0  0  0  0
   -1.9679   31.3968    8.9906 C   0  0  0  0  0  0  0  0  0  0  0  0
   -1.6301   32.7210    8.2808 C   0  0  0  0  0  0  0  0  0  0  0  0
   -0.6998   30.5254    9.0294 C   0  0  0  0  0  0  0  0  0  0  0  0
   -5.1541   24.4672    4.2179 C   0  0  0  0  0  0  0  0  0  0  0  0
   -4.3677   24.2337    2.9914 N   0  0  0  0  0  0  0  0  0  0  0  0
   -4.7085   22.9216    2.3693 C   0  0  0  0  0  0  0  0  0  0  0  0
   -5.6833   23.2247    1.2766 C   0  0  0  0  0  0  0  0  0  0  0  0
   -6.4686   22.3629    0.5318 C   0  0  0  0  0  0  0  0  0  0  0  0
   -7.2848   22.9094   -0.4611 C   0  0  0  0  0  0  0  0  0  0  0  0
   -7.2949   24.2940   -0.6979 C   0  0  0  0  0  0  0  0  0  0  0  0
   -6.4887   25.1509    0.0549 C   0  0  0  0  0  0  0  0  0  0  0  0
   -5.6932   24.5969    1.0420 C   0  0  0  0  0  0  0  0  0  0  0  0
   -4.7226   25.2574    1.9664 C   0  0  0  0  0  0  0  0  0  0  0  0
 12 13  1  0  0  0
 13 14  1  0  0  0
 13 15  1  0  0  0
 13  7  1  0  0  0
  7  8  2  0  0  0
  8  9  1  0  0  0
  9  6  1  0  0  0
  6  1  1  0  0  0
  1  2  1  0  0  0
  2  3  2  0  0  0
  3 16  1  0  0  0
 16 17  1  0  0  0
 17 18  1  0  0  0
 18 19  1  0  0  0
 19 20  2  0  0  0
 20 21  1  0  0  0
 21 22  2  0  0  0
 22 23  1  0  0  0
 23 24  2  0  0  0
 24 25  1  0  0  0
  3  4  1  0  0  0
  4  5  2  0  0  0
  9 10  2  0  0  0
 10 11  1  0  0  0
 11  7  1  0  0  0
  5  1  1  0  0  0
 25 17  1  0  0  0
 24 19  1  0  0  0
M  END
> <minimizedAffinity>
-9.43263

$$$$
OCNT-2317505


 23 25  0  0  0  0  0  0  0  0999 V2000
   -3.7927   26.0787    3.7973 C   0  0  0  0  0  0  0  0  0  0  0  0
   -3.0820   26.3795    2.8406 O   0  0  0  0  0  0  0  0  0  0  0  0
   -4.3832   24.8330    3.9620 N   0  0  0  0  0  0  0  0  0  0  0  0
   -5.1760   24.4479    5.1241 C   0  0  0  0  0  0  0  0  0  0  0  0
   -1.8227   26.5603    5.9790 C   0  0  0  0  0  0  0  0  0  0  0  0
   -3.1302   27.2920    5.8534 C   0  0  0  0  0  0  0  0  0  0  0  0
   -4.0354   27.0896    4.8654 C   0  0  0  0  0  0  0  0  0  0  0  0
   -5.2864   27.8463    4.8519 C   0  0  0  0  0  0  0  0  0  0  0  0
   -5.5634   28.7721    5.7872 C   0  0  0  0  0  0  0  0  0  0  0  0
   -4.6182   29.0106    6.8164 C   0  0  0  0  0  0  0  0  0  0  0  0
   -4.5360   29.8442    7.9074 C   0  0  0  0  0  0  0  0  0  0  0  0
   -3.3631   29.6443    8.5870 N   0  0  0  0  0  0  0  0  0  0  0  0
   -2.7384   28.6948    7.9242 C   0  0  0  0  0  0  0  0  0  0  0  0
   -3.4456   28.2638    6.8236 N   0  0  0  0  0  0  0  0  0  0  0  0
   -3.9912   23.7681    3.0436 C   0  0  0  0  0  0  0  0  0  0  0  0
   -5.0676   23.4691    2.0239 C   0  0  0  0  0  0  0  0  0  0  0  0
   -5.5875   22.1696    1.9028 C   0  0  0  0  0  0  0  0  0  0  0  0
   -6.5966   21.8926    0.9789 C   0  0  0  0  0  0  0  0  0  0  0  0
   -7.0938   22.9129    0.1747 C   0  0  0  0  0  0  0  0  0  0  0  0
   -8.0660   22.6256   -0.7034 F   0  0  0  0  0  0  0  0  0  0  0  0
   -6.5925   24.2076    0.2840 C   0  0  0  0  0  0  0  0  0  0  0  0
   -7.2092   25.4759   -0.7034 Cl  0  0  0  0  0  0  0  0  0  0  0  0
   -5.5819   24.4884    1.2061 C   0  0  0  0  0  0  0  0  0  0  0  0
  5  6  1  0  0  0
  6  7  2  0  0  0
  7  1  1  0  0  0
  1  2  2  0  0  0
  1  3  1  0  0  0
  3  4  1  0  0  0
  3 15  1  0  0  0
 15 16  1  0  0  0
 16 17  1  0  0  0
 17 18  2  0  0  0
 18 19  1  0  0  0
 19 20  1  0  0  0
 19 21  2  0  0  0
 21 22  1  0  0  0
 21 23  1  0  0  0
  7  8  1  0  0  0
  8  9  2  0  0  0
  9 10  1  0  0  0
 10 11  2  0  0  0
 11 12  1  0  0  0
 12 13  2  0  0  0
 13 14  1  0  0  0
 14  6  1  0  0  0
 23 16  2  0  0  0
 14 10  1  0  0  0
M  END
> <minimizedAffinity>
-8.96277

$$$$
OCNT-2317506


 25 27  0  0  0  0  0  0  0  0999 V2000
    1.4414   26.4395    3.3400 C   0  0  0  0  0  0  0  0  0  0  0  0
    0.2737   26.5692    4.2694 C   0  0  0  0  0  0  0  0  0  0  0  0
   -0.8205   25.7357    4.1451 C   0  0  0  0  0  0  0  0  0  0  0  0
   -1.8887   25.9141    5.0168 C   0  0  0  0  0  0  0  0  0  0  0  0
   -1.8640   26.9143    6.0119 C   0  0  0  0  0  0  0  0  0  0  0  0
   -0.6899   27.6787    6.1092 C   0  0  0  0  0  0  0  0  0  0  0  0
    0.3433   27.5194    5.2233 N   0  0  0  0  0  0  0  0  0  0  0  0
   -0.4638   28.6794    7.1235 N   0  0  0  0  0  0  0  0  0  0  0  0
   -1.2113   29.7962    7.4444 C   0  0  0  0  0  0  0  0  0  0  0  0
   -0.5689   30.4357    8.4723 C   0  0  0  0  0  0  0  0  0  0  0  0
   -1.0061   31.8744    9.2434 Cl  0  0  0  0  0  0  0  0  0  0  0  0
    0.5208   29.6182    8.7809 C   0  0  0  0  0  0  0  0  0  0  0  0
    0.5736   28.5325    8.0098 N   0  0  0  0  0  0  0  0  0  0  0  0
   -3.1288   27.0865    6.8132 C   0  0  0  0  0  0  0  0  0  0  0  0
   -4.2820   27.5859    6.0628 N   0  0  0  0  0  0  0  0  0  0  0  0
   -4.0417   27.5631    5.0707 H   0  0  0  0  0  0  0  0  0  0  0  0
   -4.6950   28.9559    6.3998 C   0  0  0  0  0  0  0  0  0  0  0  0
   -4.6554   29.3225    7.8755 C   0  0  0  0  0  0  0  0  0  0  0  0
   -5.5617   30.5550    7.9450 C   0  0  0  0  0  0  0  0  0  0  0  0
   -4.7739   31.8525    7.7447 C   0  0  0  0  0  0  0  0  0  0  0  0
   -6.3414   30.6141    9.2559 C   0  0  0  0  0  0  0  0  0  0  0  0
   -6.4998   30.4495    6.8541 O   0  0  0  0  0  0  0  0  0  0  0  0
   -6.1720   29.2901    6.0580 C   0  0  0  0  0  0  0  0  0  0  0  0
   -7.1684   28.1839    6.4389 C   0  0  0  0  0  0  0  0  0  0  0  0
   -6.3518   29.6535    4.5844 C   0  0  0  0  0  0  0  0  0  0  0  0
  1  2  1  0  0  0
  2  3  2  0  0  0
  3  4  1  0  0  0
  4  5  2  0  0  0
  5 14  1  0  0  0
 14 15  1  0  0  0
 15 17  1  0  0  0
 17 18  1  0  0  0
 18 19  1  0  0  0
 19 20  1  0  0  0
 19 21  1  0  0  0
 19 22  1  0  0  0
 22 23  1  0  0  0
 23 24  1  0  0  0
 23 25  1  0  0  0
  5  6  1  0  0  0
  6  8  1  0  0  0
  8  9  1  0  0  0
  9 10  2  0  0  0
 10 11  1  0  0  0
 10 12  1  0  0  0
 12 13  2  0  0  0
  6  7  2  0  0  0
  7  2  1  0  0  0
 23 17  1  0  0  0
 13  8  1  0  0  0
 15 16  1  0  0  0
M  END
> <minimizedAffinity>
-8.46242

$$$$
OCNT-2317510


 24 26  0  0  0  0  0  0  0  0999 V2000
   -5.3786   27.0484    4.0327 N   0  0  0  0  0  0  0  0  0  0  0  0
   -4.4573   27.1234    5.0542 C   0  0  0  0  0  0  0  0  0  0  0  0
   -3.6991   26.2266    5.4093 O   0  0  0  0  0  0  0  0  0  0  0  0
   -4.4378   28.3525    5.6714 N   0  0  0  0  0  0  0  0  0  0  0  0
   -5.4291   29.4109    5.7572 C   0  0  0  0  0  0  0  0  0  0  0  0
   -4.8226   29.7850    7.1261 C   0  0  0  0  0  0  0  0  0  0  0  0
   -3.7574   28.6931    6.9119 C   0  0  0  0  0  0  0  0  0  0  0  0
   -5.8085   27.9255    3.7817 H   0  0  0  0  0  0  0  0  0  0  0  0
   -6.3298   23.7914    1.5022 C   0  0  0  0  0  0  0  0  0  0  0  0
   -6.4779   23.6553    2.8862 C   0  0  0  0  0  0  0  0  0  0  0  0
   -6.1695   24.7192    3.7443 C   0  0  0  0  0  0  0  0  0  0  0  0
   -5.7028   25.9334    3.2356 C   0  0  0  0  0  0  0  0  0  0  0  0
   -5.5542   26.0706    1.8524 C   0  0  0  0  0  0  0  0  0  0  0  0
   -5.8601   25.0074    1.0057 C   0  0  0  0  0  0  0  0  0  0  0  0
   -5.6911   25.1697   -0.3147 F   0  0  0  0  0  0  0  0  0  0  0  0
   -7.8450   22.9390   -0.3017 C   0  0  0  0  0  0  0  0  0  0  0  0
   -6.6385   22.6466    0.5764 C   0  0  0  0  0  0  0  0  0  0  0  0
   -5.8488   29.5062    8.2610 C   0  0  0  0  0  0  0  0  0  0  0  0
   -5.2910   29.2142    9.6739 C   0  0  0  0  0  0  0  0  0  0  0  0
   -6.4478   30.0796   10.2208 C   0  0  0  0  0  0  0  0  0  0  0  0
   -6.4721   30.7924    8.8514 C   0  0  0  0  0  0  0  0  0  0  0  0
   -4.2291   31.1922    7.1715 C   0  0  0  0  0  0  0  0  0  0  0  0
   -3.1004   31.1866    8.0476 O   0  0  0  0  0  0  0  0  0  0  0  0
   -3.0891   32.3266    8.8973 C   0  0  0  0  0  0  0  0  0  0  0  0
 16 17  1  0  0  0
 17  9  1  0  0  0
  9 10  1  0  0  0
 10 11  2  0  0  0
 11 12  1  0  0  0
 12  1  1  0  0  0
  1  2  1  0  0  0
  2  3  2  0  0  0
  2  4  1  0  0  0
  4  5  1  0  0  0
  5  6  1  0  0  0
  6 22  1  0  0  0
 22 23  1  0  0  0
 23 24  1  0  0  0
  6 18  1  0  0  0
 18 19  1  0  0  0
 19 20  1  0  0  0
 20 21  1  0  0  0
  6  7  1  0  0  0
 12 13  2  0  0  0
 13 14  1  0  0  0
 14 15  1  0  0  0
 14  9  2  0  0  0
  7  4  1  0  0  0
 21 18  1  0  0  0
  1  8  1  0  0  0
M  END
> <minimizedAffinity>
-8.23874

$$$$
OCNT-2317519


 25 28  0  0  0  0  0  0  0  0999 V2000
   -3.0444   26.4340    5.9930 N   0  0  0  0  0  0  0  0  0  0  0  0
   -2.8585   25.7551    6.7225 H   0  0  0  0  0  0  0  0  0  0  0  0
   -0.8431   29.1508    6.9020 C   0  0  0  0  0  0  0  0  0  0  0  0
   -1.2784   27.9321    6.5259 N   0  0  0  0  0  0  0  0  0  0  0  0
   -2.5987   27.7102    6.3532 C   0  0  0  0  0  0  0  0  0  0  0  0
   -3.4861   28.7863    6.5447 C   0  0  0  0  0  0  0  0  0  0  0  0
   -4.9130   28.9207    6.4272 C   0  0  0  0  0  0  0  0  0  0  0  0
   -5.3528   30.1921    6.7255 C   0  0  0  0  0  0  0  0  0  0  0  0
   -4.0608   31.2297    7.1460 S   0  0  0  0  0  0  0  0  0  0  0  0
   -2.9127   29.9879    6.9270 C   0  0  0  0  0  0  0  0  0  0  0  0
   -1.6079   30.2248    7.1286 N   0  0  0  0  0  0  0  0  0  0  0  0
    0.9623   29.2819    8.6194 C   0  0  0  0  0  0  0  0  0  0  0  0
    0.6361   29.2989    7.1344 C   0  0  0  0  0  0  0  0  0  0  0  0
   -2.6346   25.9878    4.6555 C   0  0  0  0  0  0  0  0  0  0  0  0
   -3.7107   25.8290    3.6308 C   0  0  0  0  0  0  0  0  0  0  0  0
   -4.0271   24.7989    2.8780 N   0  0  0  0  0  0  0  0  0  0  0  0
   -5.1123   25.2668    2.1689 C   0  0  0  0  0  0  0  0  0  0  0  0
   -5.4315   26.5430    2.4434 N   0  0  0  0  0  0  0  0  0  0  0  0
   -4.5051   26.9162    3.4136 O   0  0  0  0  0  0  0  0  0  0  0  0
   -5.8281   24.4343    1.2106 C   0  0  0  0  0  0  0  0  0  0  0  0
   -6.5747   25.0019    0.1746 C   0  0  0  0  0  0  0  0  0  0  0  0
   -7.2339   24.1583   -0.7033 C   0  0  0  0  0  0  0  0  0  0  0  0
   -7.1991   22.8120   -0.6189 N   0  0  0  0  0  0  0  0  0  0  0  0
   -6.4745   22.2835    0.3893 C   0  0  0  0  0  0  0  0  0  0  0  0
   -5.7809   23.0416    1.3165 C   0  0  0  0  0  0  0  0  0  0  0  0
 12 13  1  0  0  0
 13  3  1  0  0  0
  3  4  2  0  0  0
  4  5  1  0  0  0
  5  1  1  0  0  0
  1 14  1  0  0  0
 14 15  1  0  0  0
 15 16  2  0  0  0
 16 17  1  0  0  0
 17 20  1  0  0  0
 20 21  2  0  0  0
 21 22  1  0  0  0
 22 23  2  0  0  0
 23 24  1  0  0  0
 24 25  2  0  0  0
 17 18  2  0  0  0
 18 19  1  0  0  0
  5  6  2  0  0  0
  6  7  1  0  0  0
  7  8  2  0  0  0
  8  9  1  0  0  0
  9 10  1  0  0  0
 10 11  2  0  0  0
 11  3  1  0  0  0
 19 15  1  0  0  0
 10  6  1  0  0  0
 25 20  1  0  0  0
  1  2  1  0  0  0
M  END
> <minimizedAffinity>
-8.78767

$$$$
OCNT-2317520


 28 31  0  0  0  0  0  0  0  0999 V2000
   -2.0189   26.2192    6.2806 O   0  0  0  0  0  0  0  0  0  0  0  0
   -2.7859   27.1706    6.1650 C   0  0  0  0  0  0  0  0  0  0  0  0
   -3.8115   27.1783    5.2501 N   0  0  0  0  0  0  0  0  0  0  0  0
   -2.6950   28.3233    6.9386 N   0  0  0  0  0  0  0  0  0  0  0  0
   -1.6470   28.3413    7.9569 C   0  0  0  0  0  0  0  0  0  0  0  0
   -1.1739   29.7621    8.2511 C   0  0  0  0  0  0  0  0  0  0  0  0
   -2.3304   30.6810    8.5301 C   0  0  0  0  0  0  0  0  0  0  0  0
   -2.1374   31.8669    9.2458 C   0  0  0  0  0  0  0  0  0  0  0  0
   -0.9188   32.1728    9.7124 F   0  0  0  0  0  0  0  0  0  0  0  0
   -3.1896   32.7455    9.4890 C   0  0  0  0  0  0  0  0  0  0  0  0
   -4.4602   32.4455    9.0037 C   0  0  0  0  0  0  0  0  0  0  0  0
   -4.6572   31.2732    8.2783 C   0  0  0  0  0  0  0  0  0  0  0  0
   -5.8839   30.9992    7.8124 F   0  0  0  0  0  0  0  0  0  0  0  0
   -3.6068   30.3838    8.0239 C   0  0  0  0  0  0  0  0  0  0  0  0
   -3.8832   29.1290    7.2370 C   0  0  0  0  0  0  0  0  0  0  0  0
   -3.9771   28.0843    4.8382 H   0  0  0  0  0  0  0  0  0  0  0  0
   -4.0269   26.0365    4.3594 C   0  0  0  0  0  0  0  0  0  0  0  0
   -3.1454   26.1502    3.1056 C   0  0  0  0  0  0  0  0  0  0  0  0
   -3.6792   25.2631    1.9874 C   0  0  0  0  0  0  0  0  0  0  0  0
   -5.0476   25.6571    1.6092 N   0  0  0  0  0  0  0  0  0  0  0  0
   -5.8175   26.4048    2.6164 C   0  0  0  0  0  0  0  0  0  0  0  0
   -5.5182   25.8899    4.0195 C   0  0  0  0  0  0  0  0  0  0  0  0
   -5.7627   24.6318    0.9549 C   0  0  0  0  0  0  0  0  0  0  0  0
   -6.7514   24.9500    0.0254 C   0  0  0  0  0  0  0  0  0  0  0  0
   -7.4606   23.9395   -0.6196 C   0  0  0  0  0  0  0  0  0  0  0  0
   -7.1588   22.6331   -0.3082 C   0  0  0  0  0  0  0  0  0  0  0  0
   -6.2150   22.3194    0.5926 N   0  0  0  0  0  0  0  0  0  0  0  0
   -5.5246   23.3285    1.2258 N   0  0  0  0  0  0  0  0  0  0  0  0
  1  2  2  0  0  0
  2  3  1  0  0  0
  3 17  1  0  0  0
 17 18  1  0  0  0
 18 19  1  0  0  0
 19 20  1  0  0  0
 20 23  1  0  0  0
 23 24  2  0  0  0
 24 25  1  0  0  0
 25 26  2  0  0  0
 26 27  1  0  0  0
 27 28  2  0  0  0
 20 21  1  0  0  0
 21 22  1  0  0  0
  2  4  1  0  0  0
  4  5  1  0  0  0
  5  6  1  0  0  0
  6  7  1  0  0  0
  7  8  2  0  0  0
  8  9  1  0  0  0
  8 10  1  0  0  0
 10 11  2  0  0  0
 11 12  1  0  0  0
 12 13  1  0  0  0
 12 14  2  0  0  0
 14 15  1  0  0  0
 22 17  1  0  0  0
 15  4  1  0  0  0
 28 23  1  0  0  0
 14  7  1  0  0  0
  3 16  1  0  0  0
M  END
> <minimizedAffinity>
-11.27356

$$$$
OCNT-2317521


 26 28  0  0  0  0  0  0  0  0999 V2000
   -6.2568   27.6644    5.1873 N   0  0  0  0  0  0  0  0  0  0  0  0
   -5.7102   26.4376    4.9746 C   0  0  0  0  0  0  0  0  0  0  0  0
   -5.1726   26.5250    3.7049 C   0  0  0  0  0  0  0  0  0  0  0  0
   -5.4386   27.7752    3.1981 N   0  0  0  0  0  0  0  0  0  0  0  0
   -6.0947   28.4673    4.1183 N   0  0  0  0  0  0  0  0  0  0  0  0
   -4.4482   25.5084    2.8871 C   0  0  0  0  0  0  0  0  0  0  0  0
   -3.3970   26.0924    2.1176 O   0  0  0  0  0  0  0  0  0  0  0  0
   -2.8175   26.5367    2.7594 H   0  0  0  0  0  0  0  0  0  0  0  0
   -5.4994   24.8681    1.9977 C   0  0  0  0  0  0  0  0  0  0  0  0
   -6.2937   23.7959    2.4455 C   0  0  0  0  0  0  0  0  0  0  0  0
   -7.2493   23.2174    1.6077 C   0  0  0  0  0  0  0  0  0  0  0  0
   -7.4162   23.7053    0.3182 C   0  0  0  0  0  0  0  0  0  0  0  0
   -8.3319   23.1481   -0.4851 F   0  0  0  0  0  0  0  0  0  0  0  0
   -6.6464   24.7618   -0.1513 C   0  0  0  0  0  0  0  0  0  0  0  0
   -5.6909   25.3426    0.6848 C   0  0  0  0  0  0  0  0  0  0  0  0
   -6.9448   28.1505    6.3587 C   0  0  0  0  0  0  0  0  0  0  0  0
   -6.8737   30.4022    7.1764 O   0  0  0  0  0  0  0  0  0  0  0  0
   -6.2558   29.3713    6.9212 C   0  0  0  0  0  0  0  0  0  0  0  0
   -4.9026   29.2163    7.1581 N   0  0  0  0  0  0  0  0  0  0  0  0
   -4.4382   28.4533    6.6680 H   0  0  0  0  0  0  0  0  0  0  0  0
   -4.0694   30.3345    7.5789 C   0  0  0  0  0  0  0  0  0  0  0  0
   -3.8218   30.2666    9.0898 C   0  0  0  0  0  0  0  0  0  0  0  0
   -2.9002   31.3879    9.5617 C   0  0  0  0  0  0  0  0  0  0  0  0
   -1.5860   31.3980    8.7871 C   0  0  0  0  0  0  0  0  0  0  0  0
   -1.8219   31.4651    7.2813 C   0  0  0  0  0  0  0  0  0  0  0  0
   -2.7441   30.3461    6.8044 C   0  0  0  0  0  0  0  0  0  0  0  0
 17 18  2  0  0  0
 18 16  1  0  0  0
 16  1  1  0  0  0
  1  2  1  0  0  0
  2  3  2  0  0  0
  3  6  1  0  0  0
  6  7  1  0  0  0
  6  9  1  0  0  0
  9 10  1  0  0  0
 10 11  2  0  0  0
 11 12  1  0  0  0
 12 13  1  0  0  0
 12 14  2  0  0  0
 14 15  1  0  0  0
  3  4  1  0  0  0
  4  5  2  0  0  0
 18 19  1  0  0  0
 19 21  1  0  0  0
 21 22  1  0  0  0
 22 23  1  0  0  0
 23 24  1  0  0  0
 24 25  1  0  0  0
 25 26  1  0  0  0
  5  1  1  0  0  0
 26 21  1  0  0  0
 15  9  2  0  0  0
  7  8  1  0  0  0
 19 20  1  0  0  0
M  END
> <minimizedAffinity>
-8.93485

$$$$
OCNT-2317535


 26 28  0  0  0  0  0  0  0  0999 V2000
   -4.7498   28.6242    6.8347 N   0  0  0  0  0  0  0  0  0  0  0  0
   -4.2851   29.8639    7.2299 C   0  0  0  0  0  0  0  0  0  0  0  0
   -4.9511   30.8828    7.0649 O   0  0  0  0  0  0  0  0  0  0  0  0
   -4.2281   27.7861    7.0580 H   0  0  0  0  0  0  0  0  0  0  0  0
   -2.8919   29.8679    7.8717 C   0  0  0  0  0  0  0  0  0  0  0  0
   -2.9788   30.5013    9.2738 C   0  0  0  0  0  0  0  0  0  0  0  0
   -1.8482   31.4256    9.3758 N   0  0  0  0  0  0  0  0  0  0  0  0
   -1.7094   31.9860    8.0382 C   0  0  0  0  0  0  0  0  0  0  0  0
   -1.8959   30.7848    7.1115 C   0  0  0  0  0  0  0  0  0  0  0  0
   -0.5777   30.0624    6.7944 C   0  0  0  0  0  0  0  0  0  0  0  0
   -0.0897   29.1801    7.9356 C   0  0  0  0  0  0  0  0  0  0  0  0
   -1.0712   28.2888    8.4602 O   0  0  0  0  0  0  0  0  0  0  0  0
   -2.3729   28.4220    7.8999 C   0  0  0  0  0  0  0  0  0  0  0  0
   -2.0326   32.1564   10.0618 H   0  0  0  0  0  0  0  0  0  0  0  0
   -6.0631   28.4625    6.2351 C   0  0  0  0  0  0  0  0  0  0  0  0
   -6.0036   28.4709    4.7058 C   0  0  0  0  0  0  0  0  0  0  0  0
   -5.6098   25.5626    2.2779 C   0  0  0  0  0  0  0  0  0  0  0  0
   -5.6458   26.8572    2.7982 C   0  0  0  0  0  0  0  0  0  0  0  0
   -5.9883   27.0729    4.1414 C   0  0  0  0  0  0  0  0  0  0  0  0
   -6.2853   25.9727    4.9555 C   0  0  0  0  0  0  0  0  0  0  0  0
   -6.2524   24.6734    4.4442 C   0  0  0  0  0  0  0  0  0  0  0  0
   -5.9146   24.4756    3.1055 C   0  0  0  0  0  0  0  0  0  0  0  0
   -6.3663   24.8300    0.1445 C   0  0  0  0  0  0  0  0  0  0  0  0
   -5.2922   25.2246    0.9896 O   0  0  0  0  0  0  0  0  0  0  0  0
   -6.5649   23.6962    5.3497 O   0  0  0  0  0  0  0  0  0  0  0  0
   -7.9450   23.3930    5.5135 C   0  0  0  0  0  0  0  0  0  0  0  0
 23 24  1  0  0  0
 24 17  1  0  0  0
 17 18  1  0  0  0
 18 19  2  0  0  0
 19 16  1  0  0  0
 16 15  1  0  0  0
 15  1  1  0  0  0
  1  2  1  0  0  0
  2  3  2  0  0  0
  5  2  1  0  0  0
  5  6  1  0  0  0
  6  7  1  0  0  0
  7  8  1  0  0  0
  8  9  1  0  0  0
  9 10  1  0  0  0
 10 11  1  0  0  0
 11 12  1  0  0  0
 12 13  1  0  0  0
 19 20  1  0  0  0
 20 21  2  0  0  0
 21 25  1  0  0  0
 25 26  1  0  0  0
 21 22  1  0  0  0
 22 17  2  0  0  0
  9  5  1  0  0  0
 13  5  1  0  0  0
  1  4  1  0  0  0
  7 14  1  0  0  0
M  END
> <minimizedAffinity>
-8.31042

$$$$
OCNT-2317536


 26 29  0  0  0  0  0  0  0  0999 V2000
   -1.6618   30.1999    6.7871 C   0  0  0  0  0  0  0  0  0  0  0  0
   -2.1458   31.6594    6.8935 C   0  0  0  0  0  0  0  0  0  0  0  0
   -3.6123   31.7640    6.5354 C   0  0  0  0  0  0  0  0  0  0  0  0
   -4.4041   30.8698    7.4424 C   0  0  0  0  0  0  0  0  0  0  0  0
   -5.7240   31.2262    7.7663 C   0  0  0  0  0  0  0  0  0  0  0  0
   -6.5062   30.3968    8.5648 C   0  0  0  0  0  0  0  0  0  0  0  0
   -5.9797   29.2007    9.0358 C   0  0  0  0  0  0  0  0  0  0  0  0
   -4.6729   28.8322    8.7051 C   0  0  0  0  0  0  0  0  0  0  0  0
   -3.8644   29.6567    7.9054 C   0  0  0  0  0  0  0  0  0  0  0  0
   -2.5352   29.2580    7.5274 N   0  0  0  0  0  0  0  0  0  0  0  0
   -2.2212   27.8900    7.5672 C   0  0  0  0  0  0  0  0  0  0  0  0
   -2.0134   27.2949    8.6240 O   0  0  0  0  0  0  0  0  0  0  0  0
   -2.1942   27.1919    6.2660 C   0  0  0  0  0  0  0  0  0  0  0  0
   -1.0875   26.5716    5.7087 C   0  0  0  0  0  0  0  0  0  0  0  0
   -1.4790   25.8976    4.1844 S   0  0  0  0  0  0  0  0  0  0  0  0
   -3.0781   26.4949    4.3408 C   0  0  0  0  0  0  0  0  0  0  0  0
   -3.3285   27.1481    5.4533 N   0  0  0  0  0  0  0  0  0  0  0  0
   -4.1805   26.2928    3.2629 C   0  0  0  0  0  0  0  0  0  0  0  0
   -4.2386   25.3289    2.2830 C   0  0  0  0  0  0  0  0  0  0  0  0
   -5.3925   25.5743    1.5947 N   0  0  0  0  0  0  0  0  0  0  0  0
   -5.9033   24.8372    0.4642 C   0  0  0  0  0  0  0  0  0  0  0  0
   -6.0868   26.6283    2.0641 N   0  0  0  0  0  0  0  0  0  0  0  0
   -5.3404   27.0669    3.0838 C   0  0  0  0  0  0  0  0  0  0  0  0
    0.0615   29.7854    8.6899 C   0  0  0  0  0  0  0  0  0  0  0  0
   -0.1539   30.1630    7.2200 C   0  0  0  0  0  0  0  0  0  0  0  0
    0.7296   29.2893    6.3248 C   0  0  0  0  0  0  0  0  0  0  0  0
 24 25  1  0  0  0
 25 26  1  0  0  0
 25  1  1  0  0  0
  1  2  1  0  0  0
  2  3  1  0  0  0
  3  4  1  0  0  0
  4  5  2  0  0  0
  5  6  1  0  0  0
  6  7  2  0  0  0
  7  8  1  0  0  0
  8  9  2  0  0  0
  9 10  1  0  0  0
 10 11  1  0  0  0
 11 12  2  0  0  0
 11 13  1  0  0  0
 13 14  2  0  0  0
 14 15  1  0  0  0
 15 16  1  0  0  0
 16 18  1  0  0  0
 18 19  2  0  0  0
 19 20  1  0  0  0
 20 21  1  0  0  0
 20 22  1  0  0  0
 22 23  2  0  0  0
 16 17  2  0  0  0
 10  1  1  0  0  0
 17 13  1  0  0  0
  9  4  1  0  0  0
 23 18  1  0  0  0
M  END
> <minimizedAffinity>
-9.12070

$$$$
OCNT-2317551


 26 29  0  0  0  0  0  0  0  0999 V2000
   -5.8407   28.3522    3.0555 C   0  0  0  0  0  0  0  0  0  0  0  0
   -6.1097   27.4811    4.2874 C   0  0  0  0  0  0  0  0  0  0  0  0
   -6.2958   28.3439    5.5687 C   0  0  0  0  0  0  0  0  0  0  0  0
   -4.9968   28.9361    5.9884 N   0  0  0  0  0  0  0  0  0  0  0  0
   -3.9449   27.9105    6.2151 C   0  0  0  0  0  0  0  0  0  0  0  0
   -3.7525   27.0793    4.9312 C   0  0  0  0  0  0  0  0  0  0  0  0
   -5.0286   26.4845    4.5001 N   0  0  0  0  0  0  0  0  0  0  0  0
   -5.2741   25.1675    4.9007 C   0  0  0  0  0  0  0  0  0  0  0  0
   -4.4206   24.5072    5.5013 O   0  0  0  0  0  0  0  0  0  0  0  0
   -5.1475   29.8284    7.0797 C   0  0  0  0  0  0  0  0  0  0  0  0
   -6.3248   29.8578    7.8476 C   0  0  0  0  0  0  0  0  0  0  0  0
   -6.4673   30.7455    8.9127 C   0  0  0  0  0  0  0  0  0  0  0  0
   -5.4343   31.6232    9.2280 C   0  0  0  0  0  0  0  0  0  0  0  0
   -4.2468   31.6212    8.4787 C   0  0  0  0  0  0  0  0  0  0  0  0
   -3.1886   32.4889    8.7641 C   0  0  0  0  0  0  0  0  0  0  0  0
   -2.0214   32.5359    8.0818 N   0  0  0  0  0  0  0  0  0  0  0  0
   -1.8962   31.6699    7.0577 C   0  0  0  0  0  0  0  0  0  0  0  0
   -2.8790   30.7669    6.6859 C   0  0  0  0  0  0  0  0  0  0  0  0
   -4.0909   30.7255    7.3988 C   0  0  0  0  0  0  0  0  0  0  0  0
   -6.6596   24.5537    4.5758 C   0  0  0  0  0  0  0  0  0  0  0  0
   -6.5226   23.4131    3.5540 C   0  0  0  0  0  0  0  0  0  0  0  0
   -7.8706   22.7521    3.2815 C   0  0  0  0  0  0  0  0  0  0  0  0
   -8.5258   22.3161    4.5876 C   0  0  0  0  0  0  0  0  0  0  0  0
   -8.5801   23.4671    5.5894 C   0  0  0  0  0  0  0  0  0  0  0  0
   -7.2570   24.0448    5.8367 N   0  0  0  0  0  0  0  0  0  0  0  0
   -6.6389   23.3120    6.1951 H   0  0  0  0  0  0  0  0  0  0  0  0
  1  2  1  0  0  0
  2  3  1  0  0  0
  3  4  1  0  0  0
  4 10  1  0  0  0
 10 11  2  0  0  0
 11 12  1  0  0  0
 12 13  2  0  0  0
 13 14  1  0  0  0
 14 15  2  0  0  0
 15 16  1  0  0  0
 16 17  2  0  0  0
 17 18  1  0  0  0
 18 19  2  0  0  0
  4  5  1  0  0  0
  5  6  1  0  0  0
  6  7  1  0  0  0
  7  8  1  0  0  0
  8  9  2  0  0  0
  8 20  1  0  0  0
 20 21  1  0  0  0
 21 22  1  0  0  0
 22 23  1  0  0  0
 23 24  1  0  0  0
 24 25  1  0  0  0
  7  2  1  0  0  0
 25 20  1  0  0  0
 19 10  1  0  0  0
 19 14  1  0  0  0
 25 26  1  0  0  0
M  END
> <minimizedAffinity>
-9.03504

$$$$
OCNT-2317552


 30 32  0  0  0  0  0  0  0  0999 V2000
   -3.0897   25.8081    3.9807 C   0  0  0  0  0  0  0  0  0  0  0  0
   -1.5606   26.0781    6.2775 O   0  0  0  0  0  0  0  0  0  0  0  0
   -2.2677   27.0209    5.9372 C   0  0  0  0  0  0  0  0  0  0  0  0
   -3.0886   26.9804    4.8384 N   0  0  0  0  0  0  0  0  0  0  0  0
   -2.3056   28.2142    6.6366 N   0  0  0  0  0  0  0  0  0  0  0  0
   -3.3015   29.2726    6.4458 C   0  0  0  0  0  0  0  0  0  0  0  0
   -3.6636   29.9431    7.7651 C   0  0  0  0  0  0  0  0  0  0  0  0
   -2.4484   30.5620    8.4611 C   0  0  0  0  0  0  0  0  0  0  0  0
   -2.7131   30.5978    9.8717 O   0  0  0  0  0  0  0  0  0  0  0  0
   -1.1350   29.8377    8.1287 C   0  0  0  0  0  0  0  0  0  0  0  0
   -0.5304   30.4900    7.0942 F   0  0  0  0  0  0  0  0  0  0  0  0
   -0.2827   29.9433    9.1827 F   0  0  0  0  0  0  0  0  0  0  0  0
   -1.3505   28.3811    7.7428 C   0  0  0  0  0  0  0  0  0  0  0  0
   -3.1141   27.8610    4.3489 H   0  0  0  0  0  0  0  0  0  0  0  0
   -1.8648   30.7978   10.3145 H   0  0  0  0  0  0  0  0  0  0  0  0
   -4.3253   25.7231    3.0634 C   0  0  0  0  0  0  0  0  0  0  0  0
   -5.6642   25.8009    3.8336 C   0  0  0  0  0  0  0  0  0  0  0  0
   -6.0355   27.1921    4.2910 C   0  0  0  0  0  0  0  0  0  0  0  0
   -5.9175   28.2813    3.4163 C   0  0  0  0  0  0  0  0  0  0  0  0
   -6.2511   29.5688    3.8385 C   0  0  0  0  0  0  0  0  0  0  0  0
   -6.7104   29.7804    5.1366 C   0  0  0  0  0  0  0  0  0  0  0  0
   -6.8416   28.7041    6.0116 C   0  0  0  0  0  0  0  0  0  0  0  0
   -6.5092   27.4151    5.5910 C   0  0  0  0  0  0  0  0  0  0  0  0
   -4.2493   24.4373    2.2070 C   0  0  0  0  0  0  0  0  0  0  0  0
   -5.4391   24.2423    1.2960 C   0  0  0  0  0  0  0  0  0  0  0  0
   -6.2185   23.0806    1.3842 C   0  0  0  0  0  0  0  0  0  0  0  0
   -7.3125   22.8957    0.5376 C   0  0  0  0  0  0  0  0  0  0  0  0
   -7.6392   23.8699   -0.4034 C   0  0  0  0  0  0  0  0  0  0  0  0
   -6.8739   25.0306   -0.4971 C   0  0  0  0  0  0  0  0  0  0  0  0
   -5.7796   25.2176    0.3490 C   0  0  0  0  0  0  0  0  0  0  0  0
  2  3  2  0  0  0
  3  4  1  0  0  0
  4  1  1  0  0  0
  1 16  1  0  0  0
 16 17  1  0  0  0
 17 18  1  0  0  0
 18 19  2  0  0  0
 19 20  1  0  0  0
 20 21  2  0  0  0
 21 22  1  0  0  0
 22 23  2  0  0  0
 16 24  1  0  0  0
 24 25  1  0  0  0
 25 26  2  0  0  0
 26 27  1  0  0  0
 27 28  2  0  0  0
 28 29  1  0  0  0
 29 30  2  0  0  0
  3  5  1  0  0  0
  5  6  1  0  0  0
  6  7  1  0  0  0
  7  8  1  0  0  0
  8  9  1  0  0  0
  8 10  1  0  0  0
 10 11  1  0  0  0
 10 12  1  0  0  0
 10 13  1  0  0  0
 23 18  1  0  0  0
 30 25  1  0  0  0
 13  5  1  0  0  0
  4 14  1  0  0  0
  9 15  1  0  0  0
M  END
> <minimizedAffinity>
-11.10290

$$$$
OCNT-2317570


 25 27  0  0  0  0  0  0  0  0999 V2000
   -4.4098   26.8088    4.4365 C   0  0  0  0  0  0  0  0  0  0  0  0
   -5.2053   27.7272    4.2377 O   0  0  0  0  0  0  0  0  0  0  0  0
   -3.3616   26.9428    5.3434 N   0  0  0  0  0  0  0  0  0  0  0  0
   -2.2908   25.9623    5.5348 C   0  0  0  0  0  0  0  0  0  0  0  0
   -0.9662   26.6447    5.8576 C   0  0  0  0  0  0  0  0  0  0  0  0
   -1.0440   27.5195    7.1107 C   0  0  0  0  0  0  0  0  0  0  0  0
   -2.4684   28.0102    7.4179 C   0  0  0  0  0  0  0  0  0  0  0  0
   -3.2999   28.1716    6.1402 C   0  0  0  0  0  0  0  0  0  0  0  0
   -2.4455   29.2533    8.2557 C   0  0  0  0  0  0  0  0  0  0  0  0
   -3.5018   29.8795    8.7343 N   0  0  0  0  0  0  0  0  0  0  0  0
   -3.0181   30.9484    9.4411 C   0  0  0  0  0  0  0  0  0  0  0  0
   -1.6462   30.9736    9.4024 C   0  0  0  0  0  0  0  0  0  0  0  0
   -1.2911   29.8897    8.6494 N   0  0  0  0  0  0  0  0  0  0  0  0
   -0.3478   29.6066    8.4217 H   0  0  0  0  0  0  0  0  0  0  0  0
   -4.5091   25.4820    3.6981 C   0  0  0  0  0  0  0  0  0  0  0  0
   -5.9400   24.9190    3.6282 C   0  0  0  0  0  0  0  0  0  0  0  0
   -6.5692   24.7918    5.0257 C   0  0  0  0  0  0  0  0  0  0  0  0
   -6.2084   23.5593    1.4800 C   0  0  0  0  0  0  0  0  0  0  0  0
   -6.1677   22.3429    0.7878 C   0  0  0  0  0  0  0  0  0  0  0  0
   -5.8345   21.1604    1.4499 C   0  0  0  0  0  0  0  0  0  0  0  0
   -5.5301   21.1849    2.8055 C   0  0  0  0  0  0  0  0  0  0  0  0
   -5.5651   22.3909    3.5050 C   0  0  0  0  0  0  0  0  0  0  0  0
   -5.9180   23.5923    2.8623 C   0  0  0  0  0  0  0  0  0  0  0  0
   -6.8185   24.7683   -0.4878 C   0  0  0  0  0  0  0  0  0  0  0  0
   -6.4931   24.7667    0.8955 O   0  0  0  0  0  0  0  0  0  0  0  0
 24 25  1  0  0  0
 25 18  1  0  0  0
 18 19  2  0  0  0
 19 20  1  0  0  0
 20 21  2  0  0  0
 21 22  1  0  0  0
 22 23  2  0  0  0
 23 16  1  0  0  0
 16 17  1  0  0  0
 16 15  1  0  0  0
 15  1  1  0  0  0
  1  2  2  0  0  0
  1  3  1  0  0  0
  3  4  1  0  0  0
  4  5  1  0  0  0
  5  6  1  0  0  0
  6  7  1  0  0  0
  7  9  1  0  0  0
  9 10  2  0  0  0
 10 11  1  0  0  0
 11 12  2  0  0  0
 12 13  1  0  0  0
  7  8  1  0  0  0
 23 18  1  0  0  0
  8  3  1  0  0  0
 13  9  1  0  0  0
 13 14  1  0  0  0
M  END
> <minimizedAffinity>
-8.59594

$$$$
OCNT-2317579


 22 24  0  0  0  0  0  0  0  0999 V2000
   -5.4132   24.6114    1.9401 C   0  0  0  0  0  0  0  0  0  0  0  0
   -5.9679   25.4588    2.7755 N   0  0  0  0  0  0  0  0  0  0  0  0
   -4.9286   26.3258    3.0645 C   0  0  0  0  0  0  0  0  0  0  0  0
   -3.7947   26.0370    2.4052 N   0  0  0  0  0  0  0  0  0  0  0  0
   -4.1087   24.8987    1.6722 O   0  0  0  0  0  0  0  0  0  0  0  0
   -5.1179   27.4641    3.9627 C   0  0  0  0  0  0  0  0  0  0  0  0
   -5.9811   28.4907    3.5461 C   0  0  0  0  0  0  0  0  0  0  0  0
   -6.1712   29.5871    4.3660 C   0  0  0  0  0  0  0  0  0  0  0  0
   -5.5715   29.7304    5.5615 N   0  0  0  0  0  0  0  0  0  0  0  0
   -4.7503   28.7261    5.9541 C   0  0  0  0  0  0  0  0  0  0  0  0
   -4.4837   27.5778    5.2112 C   0  0  0  0  0  0  0  0  0  0  0  0
   -3.6811   26.5538    5.6305 O   0  0  0  0  0  0  0  0  0  0  0  0
   -2.3107   26.8410    5.8755 C   0  0  0  0  0  0  0  0  0  0  0  0
   -6.0174   23.4123    1.2729 C   0  0  0  0  0  0  0  0  0  0  0  0
   -7.6196   22.8373   -0.6822 C   0  0  0  0  0  0  0  0  0  0  0  0
   -7.2225   23.8260    0.4084 C   0  0  0  0  0  0  0  0  0  0  0  0
   -6.2754   22.2822    2.2954 C   0  0  0  0  0  0  0  0  0  0  0  0
   -7.6629   22.1808    2.9486 C   0  0  0  0  0  0  0  0  0  0  0  0
   -8.1415   20.7661    3.2973 C   0  0  0  0  0  0  0  0  0  0  0  0
   -9.0854   20.9251    4.4926 C   0  0  0  0  0  0  0  0  0  0  0  0
   -9.2074   22.4241    4.7371 C   0  0  0  0  0  0  0  0  0  0  0  0
   -7.8868   22.9821    4.2287 C   0  0  0  0  0  0  0  0  0  0  0  0
 15 16  1  0  0  0
 16 14  1  0  0  0
 14 17  1  0  0  0
 17 18  1  0  0  0
 18 19  1  0  0  0
 19 20  1  0  0  0
 20 21  1  0  0  0
 21 22  1  0  0  0
 14  1  1  0  0  0
  1  2  2  0  0  0
  2  3  1  0  0  0
  3  6  1  0  0  0
  6  7  2  0  0  0
  7  8  1  0  0  0
  8  9  2  0  0  0
  9 10  1  0  0  0
 10 11  2  0  0  0
 11 12  1  0  0  0
 12 13  1  0  0  0
  3  4  2  0  0  0
  4  5  1  0  0  0
 22 18  1  0  0  0
  5  1  1  0  0  0
 11  6  1  0  0  0
M  END
> <minimizedAffinity>
-7.95689

$$$$
OCNT-2317589


 28 31  0  0  0  0  0  0  0  0999 V2000
   -3.2124   25.7684    5.5633 O   0  0  0  0  0  0  0  0  0  0  0  0
   -4.0114   26.6890    5.6970 C   0  0  0  0  0  0  0  0  0  0  0  0
   -3.7206   27.8338    6.3937 N   0  0  0  0  0  0  0  0  0  0  0  0
   -5.2846   26.6744    5.1456 N   0  0  0  0  0  0  0  0  0  0  0  0
   -5.9046   27.8883    4.6015 C   0  0  0  0  0  0  0  0  0  0  0  0
   -5.5096   28.0446    3.1246 C   0  0  0  0  0  0  0  0  0  0  0  0
   -5.8770   26.8851    2.3577 O   0  0  0  0  0  0  0  0  0  0  0  0
   -5.2647   25.6851    2.8857 C   0  0  0  0  0  0  0  0  0  0  0  0
   -5.6551   25.4848    4.3698 C   0  0  0  0  0  0  0  0  0  0  0  0
   -4.5251   28.2190    6.8678 H   0  0  0  0  0  0  0  0  0  0  0  0
   -5.6614   24.5231    2.0073 C   0  0  0  0  0  0  0  0  0  0  0  0
   -6.5470   24.7183    0.9345 C   0  0  0  0  0  0  0  0  0  0  0  0
   -6.9198   23.6502    0.1132 C   0  0  0  0  0  0  0  0  0  0  0  0
   -6.4162   22.3723    0.3531 C   0  0  0  0  0  0  0  0  0  0  0  0
   -5.5414   22.1628    1.4163 C   0  0  0  0  0  0  0  0  0  0  0  0
   -5.1742   23.2309    2.2321 C   0  0  0  0  0  0  0  0  0  0  0  0
   -4.3273   22.9938    3.2441 F   0  0  0  0  0  0  0  0  0  0  0  0
   -2.4480   27.9926    7.0815 C   0  0  0  0  0  0  0  0  0  0  0  0
   -1.7453   29.3268    6.7491 C   0  0  0  0  0  0  0  0  0  0  0  0
   -0.2168   29.2350    6.7118 C   0  0  0  0  0  0  0  0  0  0  0  0
    0.3275   29.1281    8.1266 C   0  0  0  0  0  0  0  0  0  0  0  0
    0.0175   30.2817    8.9136 O   0  0  0  0  0  0  0  0  0  0  0  0
   -1.2511   30.7750    8.7697 C   0  0  0  0  0  0  0  0  0  0  0  0
   -1.6218   31.7571    9.6894 C   0  0  0  0  0  0  0  0  0  0  0  0
   -2.8818   32.3496    9.6175 C   0  0  0  0  0  0  0  0  0  0  0  0
   -3.7725   31.9659    8.6181 C   0  0  0  0  0  0  0  0  0  0  0  0
   -3.4027   30.9902    7.6913 C   0  0  0  0  0  0  0  0  0  0  0  0
   -2.1374   30.3842    7.7583 C   0  0  0  0  0  0  0  0  0  0  0  0
  1  2  2  0  0  0
  2  3  1  0  0  0
  3 18  1  0  0  0
 18 19  1  0  0  0
 19 20  1  0  0  0
 20 21  1  0  0  0
 21 22  1  0  0  0
 22 23  1  0  0  0
 23 24  2  0  0  0
 24 25  1  0  0  0
 25 26  2  0  0  0
 26 27  1  0  0  0
 27 28  2  0  0  0
  2  4  1  0  0  0
  4  5  1  0  0  0
  5  6  1  0  0  0
  6  7  1  0  0  0
  7  8  1  0  0  0
  8 11  1  0  0  0
 11 12  2  0  0  0
 12 13  1  0  0  0
 13 14  2  0  0  0
 14 15  1  0  0  0
 15 16  2  0  0  0
 16 17  1  0  0  0
  8  9  1  0  0  0
 28 19  1  0  0  0
  9  4  1  0  0  0
 28 23  1  0  0  0
 16 11  1  0  0  0
  3 10  1  0  0  0
M  END
> <minimizedAffinity>
-10.72476

$$$$
OCNT-2317592


 23 24  0  0  0  0  0  0  0  0999 V2000
   -6.1712   28.6503    4.0831 C   0  0  0  0  0  0  0  0  0  0  0  0
   -6.0320   29.4118    3.1231 O   0  0  0  0  0  0  0  0  0  0  0  0
   -5.8814   27.2904    3.9922 N   0  0  0  0  0  0  0  0  0  0  0  0
   -6.0815   26.3321    5.0812 C   0  0  0  0  0  0  0  0  0  0  0  0
   -6.2348   24.9048    4.5722 C   0  0  0  0  0  0  0  0  0  0  0  0
   -5.0222   24.4601    3.7348 C   0  0  0  0  0  0  0  0  0  0  0  0
   -4.3507   25.6331    2.9994 C   0  0  0  0  0  0  0  0  0  0  0  0
   -5.3282   26.7724    2.7397 C   0  0  0  0  0  0  0  0  0  0  0  0
   -5.4364   23.3879    2.7572 C   0  0  0  0  0  0  0  0  0  0  0  0
   -5.8786   23.6297    1.5400 N   0  0  0  0  0  0  0  0  0  0  0  0
   -6.1692   22.4391    0.9046 C   0  0  0  0  0  0  0  0  0  0  0  0
   -5.9409   21.2995    1.6436 C   0  0  0  0  0  0  0  0  0  0  0  0
   -5.3399   21.7241    3.1898 S   0  0  0  0  0  0  0  0  0  0  0  0
   -6.6525   29.1581    5.4246 C   0  0  0  0  0  0  0  0  0  0  0  0
   -5.7580   29.9262    7.5010 O   0  0  0  0  0  0  0  0  0  0  0  0
   -5.6752   29.9427    6.2722 C   0  0  0  0  0  0  0  0  0  0  0  0
   -4.6569   30.5977    5.6241 N   0  0  0  0  0  0  0  0  0  0  0  0
   -4.8511   30.8585    4.6528 H   0  0  0  0  0  0  0  0  0  0  0  0
   -3.7470   31.4666    6.3729 C   0  0  0  0  0  0  0  0  0  0  0  0
   -2.3958   30.8476    6.7168 C   0  0  0  0  0  0  0  0  0  0  0  0
   -2.3917   29.5218    6.4453 F   0  0  0  0  0  0  0  0  0  0  0  0
   -1.3914   31.4132    6.0099 F   0  0  0  0  0  0  0  0  0  0  0  0
   -2.1107   30.9961    8.0309 F   0  0  0  0  0  0  0  0  0  0  0  0
 15 16  2  0  0  0
 16 14  1  0  0  0
 14  1  1  0  0  0
  1  2  2  0  0  0
  1  3  1  0  0  0
  3  4  1  0  0  0
  4  5  1  0  0  0
  5  6  1  0  0  0
  6  9  1  0  0  0
  9 10  2  0  0  0
 10 11  1  0  0  0
 11 12  2  0  0  0
 12 13  1  0  0  0
  6  7  1  0  0  0
  7  8  1  0  0  0
 16 17  1  0  0  0
 17 19  1  0  0  0
 19 20  1  0  0  0
 20 21  1  0  0  0
 20 22  1  0  0  0
 20 23  1  0  0  0
  8  3  1  0  0  0
 13  9  1  0  0  0
 17 18  1  0  0  0
M  END
> <minimizedAffinity>
-7.87729

$$$$
OCNT-2317599


 24 26  0  0  0  0  0  0  0  0999 V2000
   -6.3955   30.4987    7.1848 N   0  0  0  0  0  0  0  0  0  0  0  0
   -7.0567   31.1173    7.6651 H   0  0  0  0  0  0  0  0  0  0  0  0
   -5.8520   29.6149    8.2292 C   0  0  0  0  0  0  0  0  0  0  0  0
   -1.5789   28.0139    6.5942 C   0  0  0  0  0  0  0  0  0  0  0  0
   -2.4941   28.8388    7.3462 N   0  0  0  0  0  0  0  0  0  0  0  0
   -3.8186   28.6187    7.2436 N   0  0  0  0  0  0  0  0  0  0  0  0
   -4.3603   29.5395    8.0610 C   0  0  0  0  0  0  0  0  0  0  0  0
   -3.3675   30.3548    8.6719 C   0  0  0  0  0  0  0  0  0  0  0  0
   -3.3589   31.4342    9.5761 C   0  0  0  0  0  0  0  0  0  0  0  0
   -2.1336   31.9961    9.9545 C   0  0  0  0  0  0  0  0  0  0  0  0
   -0.9348   31.4985    9.4467 C   0  0  0  0  0  0  0  0  0  0  0  0
   -0.9208   30.4265    8.5487 C   0  0  0  0  0  0  0  0  0  0  0  0
   -2.1564   29.8744    8.1809 C   0  0  0  0  0  0  0  0  0  0  0  0
   -7.1221   29.7471    6.1468 C   0  0  0  0  0  0  0  0  0  0  0  0
   -6.3917   29.6318    4.7842 C   0  0  0  0  0  0  0  0  0  0  0  0
   -5.1203   30.2908    4.8370 O   0  0  0  0  0  0  0  0  0  0  0  0
   -4.6068   29.9680    4.0762 H   0  0  0  0  0  0  0  0  0  0  0  0
   -6.1685   28.1846    4.3846 C   0  0  0  0  0  0  0  0  0  0  0  0
   -5.8378   27.8611    3.0595 C   0  0  0  0  0  0  0  0  0  0  0  0
   -5.6362   26.5305    2.6831 C   0  0  0  0  0  0  0  0  0  0  0  0
   -5.7660   25.5151    3.6281 C   0  0  0  0  0  0  0  0  0  0  0  0
   -5.5168   23.8775    3.1630 Cl  0  0  0  0  0  0  0  0  0  0  0  0
   -6.0974   25.8176    4.9468 C   0  0  0  0  0  0  0  0  0  0  0  0
   -6.2989   27.1474    5.3236 C   0  0  0  0  0  0  0  0  0  0  0  0
  4  5  1  0  0  0
  5  6  1  0  0  0
  6  7  2  0  0  0
  7  3  1  0  0  0
  3  1  1  0  0  0
  1 14  1  0  0  0
 14 15  1  0  0  0
 15 16  1  0  0  0
 15 18  1  0  0  0
 18 19  1  0  0  0
 19 20  2  0  0  0
 20 21  1  0  0  0
 21 22  1  0  0  0
 21 23  2  0  0  0
 23 24  1  0  0  0
  7  8  1  0  0  0
  8  9  2  0  0  0
  9 10  1  0  0  0
 10 11  2  0  0  0
 11 12  1  0  0  0
 12 13  2  0  0  0
 13  5  1  0  0  0
 24 18  2  0  0  0
 13  8  1  0  0  0
  1  2  1  0  0  0
 16 17  1  0  0  0
M  END
> <minimizedAffinity>
-9.02946

$$$$
OCNT-2317600


 31 33  0  0  0  0  0  0  0  0999 V2000
   -4.2116   25.2338    3.8803 N   0  0  0  0  0  0  0  0  0  0  0  0
   -4.4550   25.2635    2.5276 C   0  0  0  0  0  0  0  0  0  0  0  0
   -3.8916   26.0265    1.7467 O   0  0  0  0  0  0  0  0  0  0  0  0
   -5.4094   24.3450    2.0786 N   0  0  0  0  0  0  0  0  0  0  0  0
   -5.7401   24.3744    0.6585 C   0  0  0  0  0  0  0  0  0  0  0  0
   -4.9155   24.8004    4.4503 H   0  0  0  0  0  0  0  0  0  0  0  0
   -1.3323   27.3431    6.1084 C   0  0  0  0  0  0  0  0  0  0  0  0
   -0.9015   26.3592    5.2232 C   0  0  0  0  0  0  0  0  0  0  0  0
   -1.8369   25.6482    4.4645 C   0  0  0  0  0  0  0  0  0  0  0  0
   -3.2029   25.9135    4.5949 C   0  0  0  0  0  0  0  0  0  0  0  0
   -3.6211   26.8855    5.5158 C   0  0  0  0  0  0  0  0  0  0  0  0
   -2.6889   27.5930    6.2777 C   0  0  0  0  0  0  0  0  0  0  0  0
   -0.4214   28.0191    6.8698 O   0  0  0  0  0  0  0  0  0  0  0  0
   -0.9433   28.2936    8.1656 C   0  0  0  0  0  0  0  0  0  0  0  0
   -1.4909   31.8531    9.3937 C   0  0  0  0  0  0  0  0  0  0  0  0
   -1.6408   30.5463    8.8029 N   0  0  0  0  0  0  0  0  0  0  0  0
   -0.5697   29.6694    8.7386 C   0  0  0  0  0  0  0  0  0  0  0  0
    0.5641   29.9795    9.0938 O   0  0  0  0  0  0  0  0  0  0  0  0
   -2.5764   30.1804    8.6895 H   0  0  0  0  0  0  0  0  0  0  0  0
   -5.9803   23.2067    2.8369 C   0  0  0  0  0  0  0  0  0  0  0  0
   -5.6305   21.8462    2.2070 C   0  0  0  0  0  0  0  0  0  0  0  0
   -6.7902   20.8593    2.2756 C   0  0  0  0  0  0  0  0  0  0  0  0
   -7.4678   20.8774    3.6447 C   0  0  0  0  0  0  0  0  0  0  0  0
   -7.9428   22.2220    3.9948 N   0  0  0  0  0  0  0  0  0  0  0  0
   -7.4808   23.3631    3.1923 C   0  0  0  0  0  0  0  0  0  0  0  0
   -9.0525   22.3422    4.8288 C   0  0  0  0  0  0  0  0  0  0  0  0
   -9.9789   21.2926    4.9650 C   0  0  0  0  0  0  0  0  0  0  0  0
  -11.0961   21.3901    5.8029 C   0  0  0  0  0  0  0  0  0  0  0  0
  -11.3168   22.5491    6.5355 C   0  0  0  0  0  0  0  0  0  0  0  0
  -10.4184   23.6030    6.4303 C   0  0  0  0  0  0  0  0  0  0  0  0
   -9.3023   23.4956    5.5904 C   0  0  0  0  0  0  0  0  0  0  0  0
 15 16  1  0  0  0
 16 17  1  0  0  0
 17 18  2  0  0  0
 17 14  1  0  0  0
 14 13  1  0  0  0
 13  7  1  0  0  0
  7  8  1  0  0  0
  8  9  2  0  0  0
  9 10  1  0  0  0
 10  1  1  0  0  0
  1  2  1  0  0  0
  2  3  2  0  0  0
  2  4  1  0  0  0
  4  5  1  0  0  0
  4 20  1  0  0  0
 20 21  1  0  0  0
 21 22  1  0  0  0
 22 23  1  0  0  0
 23 24  1  0  0  0
 24 26  1  0  0  0
 26 27  2  0  0  0
 27 28  1  0  0  0
 28 29  2  0  0  0
 29 30  1  0  0  0
 30 31  2  0  0  0
 24 25  1  0  0  0
 10 11  2  0  0  0
 11 12  1  0  0  0
 12  7  2  0  0  0
 25 20  1  0  0  0
 31 26  1  0  0  0
 16 19  1  0  0  0
  1  6  1  0  0  0
M  END
> <minimizedAffinity>
-9.02848

$$$$
OCNT-2317602


 29 32  0  0  0  0  0  0  0  0999 V2000
   -5.7882   29.8364    8.1913 C   0  0  0  0  0  0  0  0  0  0  0  0
   -6.7309   30.8441    7.9524 C   0  0  0  0  0  0  0  0  0  0  0  0
   -7.5342   30.7968    6.8153 C   0  0  0  0  0  0  0  0  0  0  0  0
   -7.4061   29.7399    5.9122 C   0  0  0  0  0  0  0  0  0  0  0  0
   -6.4792   28.7172    6.1393 C   0  0  0  0  0  0  0  0  0  0  0  0
   -5.6762   28.7704    7.2811 C   0  0  0  0  0  0  0  0  0  0  0  0
   -6.4188   27.6859    5.1892 N   0  0  0  0  0  0  0  0  0  0  0  0
   -5.3077   27.0880    4.6307 C   0  0  0  0  0  0  0  0  0  0  0  0
   -4.1334   27.3601    4.8545 O   0  0  0  0  0  0  0  0  0  0  0  0
   -7.2945   27.3052    4.8395 H   0  0  0  0  0  0  0  0  0  0  0  0
   -5.6865   26.0294    3.6736 C   0  0  0  0  0  0  0  0  0  0  0  0
   -6.1705   24.8346    4.0877 N   0  0  0  0  0  0  0  0  0  0  0  0
   -6.3837   24.1600    2.9422 N   0  0  0  0  0  0  0  0  0  0  0  0
   -6.0645   24.8711    1.8263 C   0  0  0  0  0  0  0  0  0  0  0  0
   -5.6028   26.0873    2.2571 C   0  0  0  0  0  0  0  0  0  0  0  0
   -6.7580   23.2177    2.9943 H   0  0  0  0  0  0  0  0  0  0  0  0
   -6.1805   24.3807    0.3680 C   0  0  0  0  0  0  0  0  0  0  0  0
   -6.7316   25.3102   -0.6795 C   0  0  0  0  0  0  0  0  0  0  0  0
   -7.5522   24.1462   -0.2065 C   0  0  0  0  0  0  0  0  0  0  0  0
   -4.9179   29.8747    9.4267 C   0  0  0  0  0  0  0  0  0  0  0  0
    0.8955   29.2979    6.6135 C   0  0  0  0  0  0  0  0  0  0  0  0
   -0.0197   28.9654    7.7016 N   0  0  0  0  0  0  0  0  0  0  0  0
   -1.3627   28.6571    7.1727 C   0  0  0  0  0  0  0  0  0  0  0  0
   -2.4846   28.8002    8.2173 C   0  0  0  0  0  0  0  0  0  0  0  0
   -2.5411   30.1556    8.7736 N   0  0  0  0  0  0  0  0  0  0  0  0
   -3.6802   30.7573    9.2951 C   0  0  0  0  0  0  0  0  0  0  0  0
   -3.6877   31.9499    9.6026 O   0  0  0  0  0  0  0  0  0  0  0  0
   -1.2985   30.9268    8.7101 C   0  0  0  0  0  0  0  0  0  0  0  0
   -0.0513   30.0239    8.7318 C   0  0  0  0  0  0  0  0  0  0  0  0
 21 22  1  0  0  0
 22 23  1  0  0  0
 23 24  1  0  0  0
 24 25  1  0  0  0
 25 26  1  0  0  0
 26 27  2  0  0  0
 26 20  1  0  0  0
 20  1  1  0  0  0
  1  2  2  0  0  0
  2  3  1  0  0  0
  3  4  2  0  0  0
  4  5  1  0  0  0
  5  7  1  0  0  0
  7  8  1  0  0  0
  8  9  2  0  0  0
  8 11  1  0  0  0
 11 12  2  0  0  0
 12 13  1  0  0  0
 13 14  1  0  0  0
 14 17  1  0  0  0
 17 18  1  0  0  0
 18 19  1  0  0  0
 14 15  2  0  0  0
  5  6  2  0  0  0
 25 28  1  0  0  0
 28 29  1  0  0  0
 29 22  1  0  0  0
  6  1  1  0  0  0
 15 11  1  0  0  0
 19 17  1  0  0  0
  7 10  1  0  0  0
 13 16  1  0  0  0
M  END
> <minimizedAffinity>
-9.46600

$$$$
OCNT-2317611


 31 34  0  0  0  0  0  0  0  0999 V2000
   -6.2114   24.6327    2.0390 N   0  0  0  0  0  0  0  0  0  0  0  0
   -5.7567   23.3516    2.2514 C   0  0  0  0  0  0  0  0  0  0  0  0
   -4.5710   23.0606    2.3535 O   0  0  0  0  0  0  0  0  0  0  0  0
   -7.1904   24.7620    2.2943 H   0  0  0  0  0  0  0  0  0  0  0  0
   -5.3204   25.7598    2.1585 C   0  0  0  0  0  0  0  0  0  0  0  0
   -6.3819   28.5052    5.3386 C   0  0  0  0  0  0  0  0  0  0  0  0
   -6.1141   28.9793    4.0512 C   0  0  0  0  0  0  0  0  0  0  0  0
   -5.7927   28.0972    3.0151 C   0  0  0  0  0  0  0  0  0  0  0  0
   -5.7448   26.7170    3.2440 C   0  0  0  0  0  0  0  0  0  0  0  0
   -6.0174   26.2463    4.5332 C   0  0  0  0  0  0  0  0  0  0  0  0
   -6.3395   27.1300    5.5702 C   0  0  0  0  0  0  0  0  0  0  0  0
   -5.7598   30.1504    7.1338 C   0  0  0  0  0  0  0  0  0  0  0  0
   -4.5403   30.0247    7.1318 O   0  0  0  0  0  0  0  0  0  0  0  0
   -6.6650   29.4663    6.3313 N   0  0  0  0  0  0  0  0  0  0  0  0
   -7.6415   29.7088    6.4395 H   0  0  0  0  0  0  0  0  0  0  0  0
   -6.4760   31.1392    8.0446 C   0  0  0  0  0  0  0  0  0  0  0  0
   -4.8978   33.0038    8.7434 C   0  0  0  0  0  0  0  0  0  0  0  0
   -5.5982   31.7127    9.1526 C   0  0  0  0  0  0  0  0  0  0  0  0
   -6.8724   22.2998    2.2624 C   0  0  0  0  0  0  0  0  0  0  0  0
   -6.8710   21.5503    3.5482 N   0  0  0  0  0  0  0  0  0  0  0  0
   -8.1386   20.8065    3.7366 C   0  0  0  0  0  0  0  0  0  0  0  0
   -9.1406   21.8306    4.2470 C   0  0  0  0  0  0  0  0  0  0  0  0
  -10.1265   21.3565    5.3060 C   0  0  0  0  0  0  0  0  0  0  0  0
  -10.2239   22.5410    6.1631 N   0  0  0  0  0  0  0  0  0  0  0  0
  -10.9752   22.3489    7.3981 C   0  0  0  0  0  0  0  0  0  0  0  0
  -10.2349   21.5680    8.4825 C   0  0  0  0  0  0  0  0  0  0  0  0
   -8.8630   22.1805    8.7425 C   0  0  0  0  0  0  0  0  0  0  0  0
   -8.0724   22.2605    7.4431 C   0  0  0  0  0  0  0  0  0  0  0  0
   -8.8462   23.0271    6.3547 C   0  0  0  0  0  0  0  0  0  0  0  0
   -8.2911   22.9094    4.9263 C   0  0  0  0  0  0  0  0  0  0  0  0
   -6.8451   22.4810    4.6988 C   0  0  0  0  0  0  0  0  0  0  0  0
 17 18  1  0  0  0
 18 16  1  0  0  0
 16 12  1  0  0  0
 12 13  2  0  0  0
 12 14  1  0  0  0
 14  6  1  0  0  0
  6  7  1  0  0  0
  7  8  2  0  0  0
  8  9  1  0  0  0
  9  5  1  0  0  0
  5  1  1  0  0  0
  1  2  1  0  0  0
  2  3  2  0  0  0
  2 19  1  0  0  0
 19 20  1  0  0  0
 20 21  1  0  0  0
 21 22  1  0  0  0
 22 23  1  0  0  0
 23 24  1  0  0  0
 24 25  1  0  0  0
 25 26  1  0  0  0
 26 27  1  0  0  0
 27 28  1  0  0  0
 28 29  1  0  0  0
 29 30  1  0  0  0
 30 31  1  0  0  0
  9 10  2  0  0  0
 10 11  1  0  0  0
 11  6  2  0  0  0
 31 20  1  0  0  0
 30 22  1  0  0  0
 29 24  1  0  0  0
 14 15  1  0  0  0
  1  4  1  0  0  0
M  END
> <minimizedAffinity>
-9.35672

$$$$
OCNT-2317626


 27 30  0  0  0  0  0  0  0  0999 V2000
   -5.8993   30.3108    6.9977 O   0  0  0  0  0  0  0  0  0  0  0  0
   -5.0570   30.5968    6.1550 C   0  0  0  0  0  0  0  0  0  0  0  0
   -5.1139   30.1341    4.8535 N   0  0  0  0  0  0  0  0  0  0  0  0
   -4.4693   30.5144    4.1755 H   0  0  0  0  0  0  0  0  0  0  0  0
   -3.8064   31.4234    6.4302 C   0  0  0  0  0  0  0  0  0  0  0  0
   -2.7440   30.7593    7.3581 C   0  0  0  0  0  0  0  0  0  0  0  0
   -1.5920   31.7921    7.6045 C   0  0  0  0  0  0  0  0  0  0  0  0
   -1.7270   32.2652    9.0484 C   0  0  0  0  0  0  0  0  0  0  0  0
   -2.3591   31.0951    9.7714 C   0  0  0  0  0  0  0  0  0  0  0  0
   -3.3908   30.5954    8.7712 C   0  0  0  0  0  0  0  0  0  0  0  0
   -2.2177   29.4773    6.8043 N   0  0  0  0  0  0  0  0  0  0  0  0
   -2.8419   28.2471    7.3434 C   0  0  0  0  0  0  0  0  0  0  0  0
   -2.3315   26.9857    6.6231 C   0  0  0  0  0  0  0  0  0  0  0  0
   -0.9082   26.8669    6.7241 O   0  0  0  0  0  0  0  0  0  0  0  0
   -0.2948   28.0230    6.1411 C   0  0  0  0  0  0  0  0  0  0  0  0
   -0.7465   29.3069    6.8583 C   0  0  0  0  0  0  0  0  0  0  0  0
   -6.3056   29.5000    4.3357 C   0  0  0  0  0  0  0  0  0  0  0  0
   -6.0739   28.0193    4.1689 C   0  0  0  0  0  0  0  0  0  0  0  0
   -6.0737   27.1620    5.2798 C   0  0  0  0  0  0  0  0  0  0  0  0
   -5.8225   25.7968    5.1209 C   0  0  0  0  0  0  0  0  0  0  0  0
   -5.5660   25.2794    3.8535 C   0  0  0  0  0  0  0  0  0  0  0  0
   -5.3427   23.9286    3.7723 O   0  0  0  0  0  0  0  0  0  0  0  0
   -5.4291   23.4676    2.4185 C   0  0  0  0  0  0  0  0  0  0  0  0
   -4.6613   24.3906    1.4868 C   0  0  0  0  0  0  0  0  0  0  0  0
   -5.2470   25.6969    1.4754 O   0  0  0  0  0  0  0  0  0  0  0  0
   -5.5324   26.1295    2.7449 C   0  0  0  0  0  0  0  0  0  0  0  0
   -5.7975   27.4893    2.8987 C   0  0  0  0  0  0  0  0  0  0  0  0
  1  2  2  0  0  0
  2  5  1  0  0  0
  5  6  1  0  0  0
  6 11  1  0  0  0
 11 12  1  0  0  0
 12 13  1  0  0  0
 13 14  1  0  0  0
 14 15  1  0  0  0
 15 16  1  0  0  0
  6  7  1  0  0  0
  7  8  1  0  0  0
  8  9  1  0  0  0
  9 10  1  0  0  0
  2  3  1  0  0  0
  3 17  1  0  0  0
 17 18  1  0  0  0
 18 19  1  0  0  0
 19 20  2  0  0  0
 20 21  1  0  0  0
 21 22  1  0  0  0
 22 23  1  0  0  0
 23 24  1  0  0  0
 24 25  1  0  0  0
 25 26  1  0  0  0
 26 27  1  0  0  0
 10  6  1  0  0  0
 27 18  2  0  0  0
 16 11  1  0  0  0
 26 21  2  0  0  0
  3  4  1  0  0  0
M  END
> <minimizedAffinity>
-9.48570

$$$$
OCNT-2317634


 28 31  0  0  0  0  0  0  0  0999 V2000
   -6.0363   22.6138    3.0727 C   0  0  0  0  0  0  0  0  0  0  0  0
   -5.5952   21.4688    2.1484 C   0  0  0  0  0  0  0  0  0  0  0  0
   -6.1446   21.8809    0.7881 C   0  0  0  0  0  0  0  0  0  0  0  0
   -5.9517   23.3894    0.7826 C   0  0  0  0  0  0  0  0  0  0  0  0
   -5.9667   23.7849    2.1829 N   0  0  0  0  0  0  0  0  0  0  0  0
   -5.8670   25.1202    2.5213 C   0  0  0  0  0  0  0  0  0  0  0  0
   -5.8569   25.9932    1.6519 O   0  0  0  0  0  0  0  0  0  0  0  0
   -5.6726   25.4664    3.9975 C   0  0  0  0  0  0  0  0  0  0  0  0
   -5.9280   26.9575    4.2715 C   0  0  0  0  0  0  0  0  0  0  0  0
   -5.1568   27.4263    5.5009 C   0  0  0  0  0  0  0  0  0  0  0  0
   -3.7198   27.2856    5.2626 N   0  0  0  0  0  0  0  0  0  0  0  0
   -3.2663   26.1845    4.4109 C   0  0  0  0  0  0  0  0  0  0  0  0
   -4.2668   25.0294    4.4448 C   0  0  0  0  0  0  0  0  0  0  0  0
   -2.8801   27.7873    6.2508 C   0  0  0  0  0  0  0  0  0  0  0  0
   -3.3279   28.6743    7.2399 C   0  0  0  0  0  0  0  0  0  0  0  0
   -2.5497   29.1905    8.2296 N   0  0  0  0  0  0  0  0  0  0  0  0
   -1.2732   28.7659    8.2199 C   0  0  0  0  0  0  0  0  0  0  0  0
   -0.8054   27.8777    7.2717 C   0  0  0  0  0  0  0  0  0  0  0  0
   -1.5881   27.3785    6.2862 N   0  0  0  0  0  0  0  0  0  0  0  0
   -7.4651   22.4146    3.6293 C   0  0  0  0  0  0  0  0  0  0  0  0
   -8.7319   22.1986    5.8330 C   0  0  0  0  0  0  0  0  0  0  0  0
   -8.7250   22.0519    7.2240 C   0  0  0  0  0  0  0  0  0  0  0  0
   -7.5182   21.9473    7.9198 C   0  0  0  0  0  0  0  0  0  0  0  0
   -6.3093   21.9867    7.2328 C   0  0  0  0  0  0  0  0  0  0  0  0
   -6.3041   22.1341    5.8474 C   0  0  0  0  0  0  0  0  0  0  0  0
   -7.5098   22.2467    5.1345 C   0  0  0  0  0  0  0  0  0  0  0  0
  -10.8347   21.2703    5.1863 C   0  0  0  0  0  0  0  0  0  0  0  0
   -9.8624   22.3016    5.0659 O   0  0  0  0  0  0  0  0  0  0  0  0
 27 28  1  0  0  0
 28 21  1  0  0  0
 21 22  2  0  0  0
 22 23  1  0  0  0
 23 24  2  0  0  0
 24 25  1  0  0  0
 25 26  2  0  0  0
 26 20  1  0  0  0
 20  1  1  0  0  0
  1  2  1  0  0  0
  2  3  1  0  0  0
  3  4  1  0  0  0
  4  5  1  0  0  0
  5  6  1  0  0  0
  6  7  2  0  0  0
  6  8  1  0  0  0
  8  9  1  0  0  0
  9 10  1  0  0  0
 10 11  1  0  0  0
 11 14  1  0  0  0
 14 15  2  0  0  0
 15 16  1  0  0  0
 16 17  2  0  0  0
 17 18  1  0  0  0
 18 19  2  0  0  0
 11 12  1  0  0  0
 12 13  1  0  0  0
 26 21  1  0  0  0
  5  1  1  0  0  0
 13  8  1  0  0  0
 19 14  1  0  0  0
M  END
> <minimizedAffinity>
-9.57159

$$$$
OCNT-2317648


 28 31  0  0  0  0  0  0  0  0999 V2000
   -6.9143   27.6285    5.7363 O   0  0  0  0  0  0  0  0  0  0  0  0
   -5.7030   27.4976    5.8205 C   0  0  0  0  0  0  0  0  0  0  0  0
   -4.9656   26.5388    5.1779 N   0  0  0  0  0  0  0  0  0  0  0  0
   -4.8891   28.2885    6.5940 N   0  0  0  0  0  0  0  0  0  0  0  0
   -4.0634   26.8865    4.8864 H   0  0  0  0  0  0  0  0  0  0  0  0
   -4.0645   27.8123    6.9289 H   0  0  0  0  0  0  0  0  0  0  0  0
   -5.4519   29.3070    7.4691 C   0  0  0  0  0  0  0  0  0  0  0  0
   -5.2775   28.9218    8.9495 C   0  0  0  0  0  0  0  0  0  0  0  0
   -5.2383   30.1269    9.8929 C   0  0  0  0  0  0  0  0  0  0  0  0
   -6.0316   31.3071    9.3448 C   0  0  0  0  0  0  0  0  0  0  0  0
   -5.4823   31.7952    7.9903 C   0  0  0  0  0  0  0  0  0  0  0  0
   -4.8195   30.6672    7.1767 C   0  0  0  0  0  0  0  0  0  0  0  0
   -4.5026   32.9300    8.1856 C   0  0  0  0  0  0  0  0  0  0  0  0
   -4.5760   33.7964    9.4173 C   0  0  0  0  0  0  0  0  0  0  0  0
   -4.9728   34.3587    8.0798 C   0  0  0  0  0  0  0  0  0  0  0  0
   -5.5698   25.6062    4.2221 C   0  0  0  0  0  0  0  0  0  0  0  0
   -6.1425   24.4373    4.9772 C   0  0  0  0  0  0  0  0  0  0  0  0
   -7.4095   24.0588    5.0380 N   0  0  0  0  0  0  0  0  0  0  0  0
   -7.3827   22.9589    5.8568 C   0  0  0  0  0  0  0  0  0  0  0  0
   -6.0950   22.6991    6.2484 C   0  0  0  0  0  0  0  0  0  0  0  0
   -5.2848   23.6345    5.6829 O   0  0  0  0  0  0  0  0  0  0  0  0
   -4.6726   25.2016    3.0354 C   0  0  0  0  0  0  0  0  0  0  0  0
   -5.4177   24.4677    1.9408 C   0  0  0  0  0  0  0  0  0  0  0  0
   -5.4434   23.0671    1.9060 C   0  0  0  0  0  0  0  0  0  0  0  0
   -6.1450   22.3980    0.9015 C   0  0  0  0  0  0  0  0  0  0  0  0
   -6.8247   23.1211   -0.0757 C   0  0  0  0  0  0  0  0  0  0  0  0
   -6.8043   24.5141   -0.0508 C   0  0  0  0  0  0  0  0  0  0  0  0
   -6.1041   25.1845    0.9524 C   0  0  0  0  0  0  0  0  0  0  0  0
  1  2  2  0  0  0
  2  3  1  0  0  0
  3 16  1  0  0  0
 16 22  1  0  0  0
 22 23  1  0  0  0
 23 24  2  0  0  0
 24 25  1  0  0  0
 25 26  2  0  0  0
 26 27  1  0  0  0
 27 28  2  0  0  0
 16 17  1  0  0  0
 17 18  2  0  0  0
 18 19  1  0  0  0
 19 20  2  0  0  0
 20 21  1  0  0  0
  2  4  1  0  0  0
  4  7  1  0  0  0
  7  8  1  0  0  0
  8  9  1  0  0  0
  9 10  1  0  0  0
 10 11  1  0  0  0
 11 13  1  0  0  0
 13 14  1  0  0  0
 14 15  1  0  0  0
 11 12  1  0  0  0
 28 23  1  0  0  0
 21 17  1  0  0  0
 12  7  1  0  0  0
 15 13  1  0  0  0
  3  5  1  0  0  0
  4  6  1  0  0  0
M  END
> <minimizedAffinity>
-9.46536

$$$$
OCNT-2317650


 29 32  0  0  0  0  0  0  0  0999 V2000
   -3.5647   26.3943    5.5590 O   0  0  0  0  0  0  0  0  0  0  0  0
   -2.5157   26.3961    4.9293 C   0  0  0  0  0  0  0  0  0  0  0  0
   -1.2751   26.5623    5.4929 N   0  0  0  0  0  0  0  0  0  0  0  0
   -2.4338   26.1766    3.5806 N   0  0  0  0  0  0  0  0  0  0  0  0
   -0.5647   26.9065    4.8667 H   0  0  0  0  0  0  0  0  0  0  0  0
   -1.6240   26.5390    3.0960 H   0  0  0  0  0  0  0  0  0  0  0  0
   -1.1534   26.8935    6.8996 C   0  0  0  0  0  0  0  0  0  0  0  0
   -1.1492   28.4021    7.1818 C   0  0  0  0  0  0  0  0  0  0  0  0
    0.1355   28.8683    7.8884 C   0  0  0  0  0  0  0  0  0  0  0  0
   -0.0991   30.0949    8.7697 C   0  0  0  0  0  0  0  0  0  0  0  0
   -1.1984   30.9922    8.2082 C   0  0  0  0  0  0  0  0  0  0  0  0
   -2.4945   30.3160    8.0478 N   0  0  0  0  0  0  0  0  0  0  0  0
   -2.3957   28.8490    7.9593 C   0  0  0  0  0  0  0  0  0  0  0  0
   -3.4741   30.6993    9.0798 C   0  0  0  0  0  0  0  0  0  0  0  0
   -4.0301   32.0816    8.8597 C   0  0  0  0  0  0  0  0  0  0  0  0
   -4.0593   33.1490    9.7378 C   0  0  0  0  0  0  0  0  0  0  0  0
   -4.6544   34.3099    9.1675 C   0  0  0  0  0  0  0  0  0  0  0  0
   -5.0565   34.0944    7.8693 C   0  0  0  0  0  0  0  0  0  0  0  0
   -4.7162   32.5020    7.3455 S   0  0  0  0  0  0  0  0  0  0  0  0
   -3.6392   26.0929    2.7744 C   0  0  0  0  0  0  0  0  0  0  0  0
   -4.0061   24.6309    2.4952 C   0  0  0  0  0  0  0  0  0  0  0  0
   -5.1703   24.1445    3.3441 C   0  0  0  0  0  0  0  0  0  0  0  0
   -6.3665   24.4172    2.4628 C   0  0  0  0  0  0  0  0  0  0  0  0
   -5.8046   24.1569    1.0696 C   0  0  0  0  0  0  0  0  0  0  0  0
   -5.9530   22.7022    0.6166 C   0  0  0  0  0  0  0  0  0  0  0  0
   -7.3599   22.6163    0.0304 C   0  0  0  0  0  0  0  0  0  0  0  0
   -7.7611   24.0491   -0.3256 C   0  0  0  0  0  0  0  0  0  0  0  0
   -6.5339   24.9052   -0.0406 C   0  0  0  0  0  0  0  0  0  0  0  0
   -4.4207   24.5192    1.1137 O   0  0  0  0  0  0  0  0  0  0  0  0
  1  2  2  0  0  0
  2  3  1  0  0  0
  3  7  1  0  0  0
  7  8  1  0  0  0
  8  9  1  0  0  0
  9 10  1  0  0  0
 10 11  1  0  0  0
 11 12  1  0  0  0
 12 14  1  0  0  0
 14 15  1  0  0  0
 15 16  2  0  0  0
 16 17  1  0  0  0
 17 18  2  0  0  0
 18 19  1  0  0  0
 12 13  1  0  0  0
  2  4  1  0  0  0
  4 20  1  0  0  0
 20 21  1  0  0  0
 21 22  1  0  0  0
 22 23  1  0  0  0
 23 24  1  0  0  0
 24 25  1  0  0  0
 25 26  1  0  0  0
 26 27  1  0  0  0
 27 28  1  0  0  0
 24 29  1  0  0  0
 13  8  1  0  0  0
 29 21  1  0  0  0
 19 15  1  0  0  0
 28 24  1  0  0  0
  3  5  1  0  0  0
  4  6  1  0  0  0
M  END
> <minimizedAffinity>
-9.94016

$$$$
OCNT-2317654


 29 31  0  0  0  0  0  0  0  0999 V2000
   -6.3796   28.2974    4.2845 N   0  0  0  0  0  0  0  0  0  0  0  0
   -5.4154   28.1888    3.1751 C   0  0  0  0  0  0  0  0  0  0  0  0
   -4.8065   26.7867    3.0177 C   0  0  0  0  0  0  0  0  0  0  0  0
   -5.7936   25.6975    3.4580 C   0  0  0  0  0  0  0  0  0  0  0  0
   -6.1746   25.9289    4.9370 C   0  0  0  0  0  0  0  0  0  0  0  0
   -6.0341   27.3901    5.3806 C   0  0  0  0  0  0  0  0  0  0  0  0
   -5.2407   24.2811    3.1873 C   0  0  0  0  0  0  0  0  0  0  0  0
   -5.4625   23.4313    4.3157 O   0  0  0  0  0  0  0  0  0  0  0  0
   -4.8058   23.6759    4.9883 H   0  0  0  0  0  0  0  0  0  0  0  0
   -5.8110   23.6552    1.9259 C   0  0  0  0  0  0  0  0  0  0  0  0
   -5.6302   22.2973    1.6231 C   0  0  0  0  0  0  0  0  0  0  0  0
   -6.1717   21.7439    0.4611 C   0  0  0  0  0  0  0  0  0  0  0  0
   -6.9039   22.5409   -0.4145 C   0  0  0  0  0  0  0  0  0  0  0  0
   -7.0936   23.8912   -0.1306 C   0  0  0  0  0  0  0  0  0  0  0  0
   -6.5491   24.4458    1.0297 C   0  0  0  0  0  0  0  0  0  0  0  0
   -6.5136   29.6920    4.7689 C   0  0  0  0  0  0  0  0  0  0  0  0
   -6.7274   29.8343    6.3033 C   0  0  0  0  0  0  0  0  0  0  0  0
   -7.7810   30.7625    6.5919 O   0  0  0  0  0  0  0  0  0  0  0  0
   -7.7158   30.9676    7.5405 H   0  0  0  0  0  0  0  0  0  0  0  0
   -3.1682   31.1925    8.3375 C   0  0  0  0  0  0  0  0  0  0  0  0
   -4.2814   30.8033    9.0866 C   0  0  0  0  0  0  0  0  0  0  0  0
   -5.4292   30.3587    8.4287 C   0  0  0  0  0  0  0  0  0  0  0  0
   -5.4810   30.3194    7.0237 C   0  0  0  0  0  0  0  0  0  0  0  0
   -4.3542   30.7258    6.2890 C   0  0  0  0  0  0  0  0  0  0  0  0
   -3.2008   31.1665    6.9420 C   0  0  0  0  0  0  0  0  0  0  0  0
   -0.5878   30.4017    9.0237 C   0  0  0  0  0  0  0  0  0  0  0  0
   -1.7115   31.7663    9.1781 S   0  0  0  0  0  0  0  0  0  0  0  0
   -2.0530   31.9176   10.5797 O   0  0  0  0  0  0  0  0  0  0  0  0
   -1.1706   32.8772    8.4179 O   0  0  0  0  0  0  0  0  0  0  0  0
 26 27  1  0  0  0
 27 28  2  0  0  0
 27 29  2  0  0  0
 27 20  1  0  0  0
 20 21  1  0  0  0
 21 22  2  0  0  0
 22 23  1  0  0  0
 23 17  1  0  0  0
 17 18  1  0  0  0
 17 16  1  0  0  0
 16  1  1  0  0  0
  1  2  1  0  0  0
  2  3  1  0  0  0
  3  4  1  0  0  0
  4  7  1  0  0  0
  7  8  1  0  0  0
  7 10  1  0  0  0
 10 11  2  0  0  0
 11 12  1  0  0  0
 12 13  2  0  0  0
 13 14  1  0  0  0
 14 15  2  0  0  0
  4  5  1  0  0  0
  5  6  1  0  0  0
 23 24  2  0  0  0
 24 25  1  0  0  0
 25 20  2  0  0  0
  6  1  1  0  0  0
 15 10  1  0  0  0
 18 19  1  0  0  0
  8  9  1  0  0  0
M  END
> <minimizedAffinity>
-9.25499

$$$$
OCNT-2317662


 28 30  0  0  0  0  0  0  0  0999 V2000
   -5.4832   28.2799    6.6271 N   0  0  0  0  0  0  0  0  0  0  0  0
   -5.2957   29.5401    7.1279 C   0  0  0  0  0  0  0  0  0  0  0  0
   -5.9251   30.5091    6.7112 O   0  0  0  0  0  0  0  0  0  0  0  0
   -4.3250   29.6488    8.1166 N   0  0  0  0  0  0  0  0  0  0  0  0
   -4.0570   30.9821    8.6308 C   0  0  0  0  0  0  0  0  0  0  0  0
   -3.2105   31.8541    7.7063 C   0  0  0  0  0  0  0  0  0  0  0  0
   -2.2043   31.1560    6.7860 C   0  0  0  0  0  0  0  0  0  0  0  0
   -1.3297   30.0336    7.3876 C   0  0  0  0  0  0  0  0  0  0  0  0
   -0.6605   30.4323    8.7128 C   0  0  0  0  0  0  0  0  0  0  0  0
    0.5524   29.5159    8.8377 C   0  0  0  0  0  0  0  0  0  0  0  0
    0.9715   29.1818    7.4088 C   0  0  0  0  0  0  0  0  0  0  0  0
   -0.0795   29.8162    6.4982 C   0  0  0  0  0  0  0  0  0  0  0  0
   -2.1163   28.6926    7.4597 C   0  0  0  0  0  0  0  0  0  0  0  0
   -3.3046   28.6486    8.4182 C   0  0  0  0  0  0  0  0  0  0  0  0
   -5.2704   27.5123    7.2363 H   0  0  0  0  0  0  0  0  0  0  0  0
   -6.4926   28.0207    5.6221 C   0  0  0  0  0  0  0  0  0  0  0  0
   -5.3616   24.9125    2.7756 C   0  0  0  0  0  0  0  0  0  0  0  0
   -5.7810   24.5749    4.0645 C   0  0  0  0  0  0  0  0  0  0  0  0
   -6.1491   25.5583    4.9952 C   0  0  0  0  0  0  0  0  0  0  0  0
   -6.1501   26.9145    4.6492 C   0  0  0  0  0  0  0  0  0  0  0  0
   -5.7658   27.2549    3.3468 C   0  0  0  0  0  0  0  0  0  0  0  0
   -5.3976   26.2680    2.4247 C   0  0  0  0  0  0  0  0  0  0  0  0
   -5.0513   23.9737    1.7837 N   0  0  0  0  0  0  0  0  0  0  0  0
   -4.4832   23.2201    2.1744 H   0  0  0  0  0  0  0  0  0  0  0  0
   -6.1119   23.4069    0.9453 C   0  0  0  0  0  0  0  0  0  0  0  0
   -6.0923   21.8703    0.9824 C   0  0  0  0  0  0  0  0  0  0  0  0
   -6.9362   21.1329    3.0879 C   0  0  0  0  0  0  0  0  0  0  0  0
   -5.7857   21.3587    2.2863 O   0  0  0  0  0  0  0  0  0  0  0  0
 27 28  1  0  0  0
 28 26  1  0  0  0
 26 25  1  0  0  0
 25 23  1  0  0  0
 23 17  1  0  0  0
 17 18  1  0  0  0
 18 19  2  0  0  0
 19 20  1  0  0  0
 20 16  1  0  0  0
 16  1  1  0  0  0
  1  2  1  0  0  0
  2  3  2  0  0  0
  2  4  1  0  0  0
  4  5  1  0  0  0
  5  6  1  0  0  0
  6  7  1  0  0  0
  7  8  1  0  0  0
  8  9  1  0  0  0
  9 10  1  0  0  0
 10 11  1  0  0  0
 11 12  1  0  0  0
  8 13  1  0  0  0
 13 14  1  0  0  0
 20 21  2  0  0  0
 21 22  1  0  0  0
 22 17  2  0  0  0
 14  4  1  0  0  0
 12  8  1  0  0  0
 23 24  1  0  0  0
  1 15  1  0  0  0
M  END
> <minimizedAffinity>
-9.39881

$$$$
OCNT-2317667


 25 28  0  0  0  0  0  0  0  0999 V2000
   -2.8078   27.8734    6.5528 C   0  0  0  0  0  0  0  0  0  0  0  0
   -2.0263   27.2699    7.2899 O   0  0  0  0  0  0  0  0  0  0  0  0
   -3.4022   27.2558    5.4608 N   0  0  0  0  0  0  0  0  0  0  0  0
   -3.1064   25.8433    5.1999 C   0  0  0  0  0  0  0  0  0  0  0  0
   -4.3581   25.0275    4.8261 C   0  0  0  0  0  0  0  0  0  0  0  0
   -5.0988   25.6263    3.6950 N   0  0  0  0  0  0  0  0  0  0  0  0
   -4.7994   27.0319    3.3740 C   0  0  0  0  0  0  0  0  0  0  0  0
   -4.4742   27.8402    4.6455 C   0  0  0  0  0  0  0  0  0  0  0  0
   -6.3329   31.0117    9.6420 C   0  0  0  0  0  0  0  0  0  0  0  0
   -5.1458   31.5885    9.0587 N   0  0  0  0  0  0  0  0  0  0  0  0
   -4.8974   32.9055    9.2259 N   0  0  0  0  0  0  0  0  0  0  0  0
   -3.7387   33.1023    8.5898 C   0  0  0  0  0  0  0  0  0  0  0  0
   -3.2411   31.9196    8.0168 C   0  0  0  0  0  0  0  0  0  0  0  0
   -4.1791   30.9605    8.3310 C   0  0  0  0  0  0  0  0  0  0  0  0
   -4.1151   29.5231    7.9541 C   0  0  0  0  0  0  0  0  0  0  0  0
   -3.1104   29.3513    6.7848 C   0  0  0  0  0  0  0  0  0  0  0  0
   -1.7951   30.1227    7.0724 C   0  0  0  0  0  0  0  0  0  0  0  0
   -2.0274   31.6418    7.2107 C   0  0  0  0  0  0  0  0  0  0  0  0
   -5.8310   24.8244    2.8312 C   0  0  0  0  0  0  0  0  0  0  0  0
   -6.5538   23.6935    3.2455 C   0  0  0  0  0  0  0  0  0  0  0  0
   -7.2938   22.8751    2.4479 N   0  0  0  0  0  0  0  0  0  0  0  0
   -7.3221   23.1903    1.1372 C   0  0  0  0  0  0  0  0  0  0  0  0
   -6.6433   24.2679    0.6090 C   0  0  0  0  0  0  0  0  0  0  0  0
   -6.6971   24.5301   -0.7033 F   0  0  0  0  0  0  0  0  0  0  0  0
   -5.8946   25.0820    1.4551 C   0  0  0  0  0  0  0  0  0  0  0  0
  9 10  1  0  0  0
 10 11  1  0  0  0
 11 12  2  0  0  0
 12 13  1  0  0  0
 13 14  2  0  0  0
 14 15  1  0  0  0
 15 16  1  0  0  0
 16  1  1  0  0  0
  1  2  2  0  0  0
  1  3  1  0  0  0
  3  4  1  0  0  0
  4  5  1  0  0  0
  5  6  1  0  0  0
  6 19  1  0  0  0
 19 20  2  0  0  0
 20 21  1  0  0  0
 21 22  2  0  0  0
 22 23  1  0  0  0
 23 24  1  0  0  0
 23 25  2  0  0  0
  6  7  1  0  0  0
  7  8  1  0  0  0
 16 17  1  0  0  0
 17 18  1  0  0  0
 14 10  1  0  0  0
  8  3  1  0  0  0
 18 13  1  0  0  0
 25 19  1  0  0  0
M  END
> <minimizedAffinity>
-8.83274

$$$$
OCNT-2317673


 23 26  0  0  0  0  0  0  0  0999 V2000
   -4.6482   30.7578    7.0454 C   0  0  0  0  0  0  0  0  0  0  0  0
   -5.1160   31.4637    8.3420 C   0  0  0  0  0  0  0  0  0  0  0  0
   -5.5482   30.3367    9.2671 C   0  0  0  0  0  0  0  0  0  0  0  0
   -4.6017   29.2043    8.8940 C   0  0  0  0  0  0  0  0  0  0  0  0
   -4.5019   29.3483    7.4507 N   0  0  0  0  0  0  0  0  0  0  0  0
   -3.9296   28.3440    6.6936 C   0  0  0  0  0  0  0  0  0  0  0  0
   -2.8232   27.7625    7.2335 N   0  0  0  0  0  0  0  0  0  0  0  0
   -2.2072   26.7833    6.5554 C   0  0  0  0  0  0  0  0  0  0  0  0
   -2.6489   26.3176    5.3421 C   0  0  0  0  0  0  0  0  0  0  0  0
   -3.7835   26.8687    4.7896 C   0  0  0  0  0  0  0  0  0  0  0  0
   -4.1968   26.3656    3.6078 N   0  0  0  0  0  0  0  0  0  0  0  0
   -5.3202   26.8910    3.0815 C   0  0  0  0  0  0  0  0  0  0  0  0
   -6.0169   27.8958    3.7091 C   0  0  0  0  0  0  0  0  0  0  0  0
   -5.6135   28.4185    4.8850 N   0  0  0  0  0  0  0  0  0  0  0  0
   -4.4742   27.9108    5.4558 C   0  0  0  0  0  0  0  0  0  0  0  0
   -3.3533   31.4088    6.5081 C   0  0  0  0  0  0  0  0  0  0  0  0
   -2.4543   31.7107    7.5826 O   0  0  0  0  0  0  0  0  0  0  0  0
    0.8509   29.1859    7.7742 C   0  0  0  0  0  0  0  0  0  0  0  0
    0.3307   29.6840    8.9677 C   0  0  0  0  0  0  0  0  0  0  0  0
   -0.7780   30.5365    8.9523 C   0  0  0  0  0  0  0  0  0  0  0  0
   -1.3696   30.8944    7.7404 C   0  0  0  0  0  0  0  0  0  0  0  0
   -0.8430   30.3902    6.5484 C   0  0  0  0  0  0  0  0  0  0  0  0
    0.2636   29.5393    6.5621 C   0  0  0  0  0  0  0  0  0  0  0  0
 18 19  2  0  0  0
 19 20  1  0  0  0
 20 21  2  0  0  0
 21 17  1  0  0  0
 17 16  1  0  0  0
 16  1  1  0  0  0
  1  2  1  0  0  0
  2  3  1  0  0  0
  3  4  1  0  0  0
  4  5  1  0  0  0
  5  6  1  0  0  0
  6  7  1  0  0  0
  7  8  2  0  0  0
  8  9  1  0  0  0
  9 10  2  0  0  0
 10 11  1  0  0  0
 11 12  2  0  0  0
 12 13  1  0  0  0
 13 14  2  0  0  0
 14 15  1  0  0  0
 21 22  1  0  0  0
 22 23  2  0  0  0
 23 18  1  0  0  0
  5  1  1  0  0  0
 15  6  2  0  0  0
 15 10  1  0  0  0
M  END
> <minimizedAffinity>
-8.66055

$$$$
OCNT-2317689


 27 30  0  0  0  0  0  0  0  0999 V2000
   -4.6880   31.3106    7.1948 O   0  0  0  0  0  0  0  0  0  0  0  0
   -4.2045   30.1832    7.3061 C   0  0  0  0  0  0  0  0  0  0  0  0
   -4.5138   29.1602    6.4118 N   0  0  0  0  0  0  0  0  0  0  0  0
   -3.9605   27.8072    6.4786 C   0  0  0  0  0  0  0  0  0  0  0  0
   -3.8495   27.1469    5.1082 C   0  0  0  0  0  0  0  0  0  0  0  0
   -5.1519   27.2015    4.2895 C   0  0  0  0  0  0  0  0  0  0  0  0
   -6.1867   28.1698    4.8742 C   0  0  0  0  0  0  0  0  0  0  0  0
   -5.5076   29.4363    5.3769 C   0  0  0  0  0  0  0  0  0  0  0  0
   -5.7248   25.8332    4.0034 C   0  0  0  0  0  0  0  0  0  0  0  0
   -6.1674   24.9505    4.9729 C   0  0  0  0  0  0  0  0  0  0  0  0
   -6.6298   23.8199    4.3603 N   0  0  0  0  0  0  0  0  0  0  0  0
   -6.5048   23.9351    2.9976 C   0  0  0  0  0  0  0  0  0  0  0  0
   -6.8501   23.0293    1.9868 C   0  0  0  0  0  0  0  0  0  0  0  0
   -6.6034   23.4154    0.6722 C   0  0  0  0  0  0  0  0  0  0  0  0
   -6.9203   22.5759   -0.3235 F   0  0  0  0  0  0  0  0  0  0  0  0
   -6.0377   24.6439    0.3655 C   0  0  0  0  0  0  0  0  0  0  0  0
   -5.7000   25.5374    1.3887 C   0  0  0  0  0  0  0  0  0  0  0  0
   -5.9365   25.1861    2.7372 C   0  0  0  0  0  0  0  0  0  0  0  0
   -7.0126   23.0143    4.8363 H   0  0  0  0  0  0  0  0  0  0  0  0
   -3.2414   29.8430    8.4276 C   0  0  0  0  0  0  0  0  0  0  0  0
   -2.0275   30.7675    8.4282 C   0  0  0  0  0  0  0  0  0  0  0  0
   -0.7967   30.0733    7.9577 C   0  0  0  0  0  0  0  0  0  0  0  0
    0.2139   29.5007    8.7009 C   0  0  0  0  0  0  0  0  0  0  0  0
    1.1035   29.0136    7.7840 N   0  0  0  0  0  0  0  0  0  0  0  0
    0.6083   29.2912    6.5423 C   0  0  0  0  0  0  0  0  0  0  0  0
   -0.5360   29.9301    6.6132 N   0  0  0  0  0  0  0  0  0  0  0  0
    1.9698   28.5320    7.9832 H   0  0  0  0  0  0  0  0  0  0  0  0
  1  2  2  0  0  0
  2 20  1  0  0  0
 20 21  1  0  0  0
 21 22  1  0  0  0
 22 23  2  0  0  0
 23 24  1  0  0  0
 24 25  1  0  0  0
 25 26  2  0  0  0
  2  3  1  0  0  0
  3  4  1  0  0  0
  4  5  1  0  0  0
  5  6  1  0  0  0
  6  9  1  0  0  0
  9 10  2  0  0  0
 10 11  1  0  0  0
 11 12  1  0  0  0
 12 13  2  0  0  0
 13 14  1  0  0  0
 14 15  1  0  0  0
 14 16  2  0  0  0
 16 17  1  0  0  0
 17 18  2  0  0  0
  6  7  1  0  0  0
  7  8  1  0  0  0
 26 22  1  0  0  0
  8  3  1  0  0  0
 18  9  1  0  0  0
 18 12  1  0  0  0
 24 27  1  0  0  0
 11 19  1  0  0  0
M  END
> <minimizedAffinity>
-9.18193

$$$$
OCNT-2317693


 31 34  0  0  0  0  0  0  0  0999 V2000
   -0.4840   28.1155    6.3272 C   0  0  0  0  0  0  0  0  0  0  0  0
    0.5260   28.2780    5.6423 O   0  0  0  0  0  0  0  0  0  0  0  0
   -1.3004   26.9991    6.1652 N   0  0  0  0  0  0  0  0  0  0  0  0
   -2.7380   26.9804    6.4988 C   0  0  0  0  0  0  0  0  0  0  0  0
   -3.5692   27.1984    5.2193 C   0  0  0  0  0  0  0  0  0  0  0  0
   -3.1951   26.2138    4.1927 N   0  0  0  0  0  0  0  0  0  0  0  0
   -3.9938   25.0719    4.0706 C   0  0  0  0  0  0  0  0  0  0  0  0
   -4.9832   24.9117    4.7869 O   0  0  0  0  0  0  0  0  0  0  0  0
   -1.7579   26.2308    3.8606 C   0  0  0  0  0  0  0  0  0  0  0  0
   -0.9251   26.0146    5.1396 C   0  0  0  0  0  0  0  0  0  0  0  0
   -0.9253   29.1392    7.3616 C   0  0  0  0  0  0  0  0  0  0  0  0
   -1.3452   30.4773    6.7512 C   0  0  0  0  0  0  0  0  0  0  0  0
   -1.2820   32.0224    9.6103 C   0  0  0  0  0  0  0  0  0  0  0  0
   -2.4532   31.7918    8.7280 C   0  0  0  0  0  0  0  0  0  0  0  0
   -3.6577   32.2504    9.0834 N   0  0  0  0  0  0  0  0  0  0  0  0
   -4.4612   31.8646    8.0839 N   0  0  0  0  0  0  0  0  0  0  0  0
   -3.8196   31.1724    7.0962 C   0  0  0  0  0  0  0  0  0  0  0  0
   -4.5445   30.6610    5.9092 C   0  0  0  0  0  0  0  0  0  0  0  0
   -2.4908   31.1127    7.4752 C   0  0  0  0  0  0  0  0  0  0  0  0
   -5.4447   32.1058    8.1401 H   0  0  0  0  0  0  0  0  0  0  0  0
   -3.5647   24.0531    3.0164 C   0  0  0  0  0  0  0  0  0  0  0  0
   -4.7092   23.3136    2.3972 C   0  0  0  0  0  0  0  0  0  0  0  0
   -5.1225   22.0302    2.7013 C   0  0  0  0  0  0  0  0  0  0  0  0
   -6.1966   21.7255    1.9097 N   0  0  0  0  0  0  0  0  0  0  0  0
   -6.4863   22.7769    1.0725 C   0  0  0  0  0  0  0  0  0  0  0  0
   -7.4825   22.9053    0.0971 C   0  0  0  0  0  0  0  0  0  0  0  0
   -7.5481   24.1106   -0.6076 C   0  0  0  0  0  0  0  0  0  0  0  0
   -6.6538   25.1450   -0.3434 C   0  0  0  0  0  0  0  0  0  0  0  0
   -5.6641   24.9998    0.6359 C   0  0  0  0  0  0  0  0  0  0  0  0
   -5.5738   23.7924    1.3591 C   0  0  0  0  0  0  0  0  0  0  0  0
   -6.7088   20.8551    1.9319 H   0  0  0  0  0  0  0  0  0  0  0  0
 13 14  1  0  0  0
 14 15  2  0  0  0
 15 16  1  0  0  0
 16 17  1  0  0  0
 17 18  1  0  0  0
 17 19  2  0  0  0
 19 12  1  0  0  0
 12 11  1  0  0  0
 11  1  1  0  0  0
  1  2  2  0  0  0
  1  3  1  0  0  0
  3  4  1  0  0  0
  4  5  1  0  0  0
  5  6  1  0  0  0
  6  7  1  0  0  0
  7  8  2  0  0  0
  7 21  1  0  0  0
 21 22  1  0  0  0
 22 23  2  0  0  0
 23 24  1  0  0  0
 24 25  1  0  0  0
 25 26  2  0  0  0
 26 27  1  0  0  0
 27 28  2  0  0  0
 28 29  1  0  0  0
 29 30  2  0  0  0
  6  9  1  0  0  0
  9 10  1  0  0  0
 19 14  1  0  0  0
 10  3  1  0  0  0
 30 22  1  0  0  0
 30 25  1  0  0  0
 16 20  1  0  0  0
 24 31  1  0  0  0
M  END
> <minimizedAffinity>
-10.20925

$$$$
OCNT-2317695


 24 26  0  0  0  0  0  0  0  0999 V2000
   -5.6619   27.1777    3.5645 C   0  0  0  0  0  0  0  0  0  0  0  0
   -5.8162   28.5173    3.1839 C   0  0  0  0  0  0  0  0  0  0  0  0
   -6.3223   29.4584    4.0889 C   0  0  0  0  0  0  0  0  0  0  0  0
   -6.6968   29.0788    5.3840 C   0  0  0  0  0  0  0  0  0  0  0  0
   -6.5393   27.7423    5.7642 C   0  0  0  0  0  0  0  0  0  0  0  0
   -6.0375   26.8053    4.8610 C   0  0  0  0  0  0  0  0  0  0  0  0
   -5.8784   25.5503    5.3062 F   0  0  0  0  0  0  0  0  0  0  0  0
   -2.7149   26.0069    3.3829 C   0  0  0  0  0  0  0  0  0  0  0  0
   -3.8617   25.7394    2.4743 C   0  0  0  0  0  0  0  0  0  0  0  0
   -3.7768   24.9216    1.4397 N   0  0  0  0  0  0  0  0  0  0  0  0
   -5.0442   24.7867    0.9628 C   0  0  0  0  0  0  0  0  0  0  0  0
   -5.9186   25.5415    1.7001 C   0  0  0  0  0  0  0  0  0  0  0  0
   -5.1656   26.2082    2.6471 N   0  0  0  0  0  0  0  0  0  0  0  0
   -7.2153   30.1044    6.3638 C   0  0  0  0  0  0  0  0  0  0  0  0
   -6.6280   29.8834    7.6824 N   0  0  0  0  0  0  0  0  0  0  0  0
   -6.0174   29.0624    7.6200 H   0  0  0  0  0  0  0  0  0  0  0  0
   -5.7560   30.9986    8.0900 C   0  0  0  0  0  0  0  0  0  0  0  0
   -5.5898   30.9432    9.6091 C   0  0  0  0  0  0  0  0  0  0  0  0
   -4.4190   30.8816    7.4042 C   0  0  0  0  0  0  0  0  0  0  0  0
   -3.8359   31.7362    6.4912 C   0  0  0  0  0  0  0  0  0  0  0  0
   -2.6279   31.1725    6.1864 N   0  0  0  0  0  0  0  0  0  0  0  0
   -2.5190   30.0148    6.9021 C   0  0  0  0  0  0  0  0  0  0  0  0
   -3.5819   29.8052    7.6431 N   0  0  0  0  0  0  0  0  0  0  0  0
   -1.9349   31.5415    5.5497 H   0  0  0  0  0  0  0  0  0  0  0  0
  8  9  1  0  0  0
  9 10  2  0  0  0
 10 11  1  0  0  0
 11 12  2  0  0  0
 12 13  1  0  0  0
 13  1  1  0  0  0
  1  2  1  0  0  0
  2  3  2  0  0  0
  3  4  1  0  0  0
  4 14  1  0  0  0
 14 15  1  0  0  0
 15 17  1  0  0  0
 17 18  1  0  0  0
 17 19  1  0  0  0
 19 20  2  0  0  0
 20 21  1  0  0  0
 21 22  1  0  0  0
 22 23  2  0  0  0
  4  5  2  0  0  0
  5  6  1  0  0  0
  6  7  1  0  0  0
 13  9  1  0  0  0
  6  1  2  0  0  0
 23 19  1  0  0  0
 15 16  1  0  0  0
 21 24  1  0  0  0
M  END
> <minimizedAffinity>
-7.90931

$$$$
OCNT-2317700


 30 33  0  0  0  0  0  0  0  0999 V2000
   -2.4233   26.2321    6.3877 O   0  0  0  0  0  0  0  0  0  0  0  0
   -3.0542   27.2443    6.1204 C   0  0  0  0  0  0  0  0  0  0  0  0
   -2.9748   28.4177    6.8259 N   0  0  0  0  0  0  0  0  0  0  0  0
   -3.9389   27.3620    5.0781 N   0  0  0  0  0  0  0  0  0  0  0  0
   -3.1395   29.2412    6.2634 H   0  0  0  0  0  0  0  0  0  0  0  0
   -4.6774   28.0316    5.2431 H   0  0  0  0  0  0  0  0  0  0  0  0
   -4.2701   26.2075    4.2463 C   0  0  0  0  0  0  0  0  0  0  0  0
   -5.2338   25.2442    4.9911 C   0  0  0  0  0  0  0  0  0  0  0  0
   -5.5319   23.9699    4.1767 C   0  0  0  0  0  0  0  0  0  0  0  0
   -5.7857   24.3398    2.7647 C   0  0  0  0  0  0  0  0  0  0  0  0
   -5.4755   25.5359    2.1604 C   0  0  0  0  0  0  0  0  0  0  0  0
   -5.8921   25.3751    0.8286 C   0  0  0  0  0  0  0  0  0  0  0  0
   -6.4223   24.1667    0.6089 N   0  0  0  0  0  0  0  0  0  0  0  0
   -6.3410   23.5511    1.8040 N   0  0  0  0  0  0  0  0  0  0  0  0
   -4.8559   26.6731    2.8850 C   0  0  0  0  0  0  0  0  0  0  0  0
   -6.6818   22.5983    1.8813 H   0  0  0  0  0  0  0  0  0  0  0  0
   -2.0216   28.5413    7.9151 C   0  0  0  0  0  0  0  0  0  0  0  0
   -1.2559   29.8967    7.9398 C   0  0  0  0  0  0  0  0  0  0  0  0
    0.0627   29.8117    8.7465 C   0  0  0  0  0  0  0  0  0  0  0  0
    1.0450   29.0621    7.8532 C   0  0  0  0  0  0  0  0  0  0  0  0
    0.6084   29.3495    6.4227 C   0  0  0  0  0  0  0  0  0  0  0  0
   -0.6697   30.1791    6.5301 C   0  0  0  0  0  0  0  0  0  0  0  0
   -2.1970   31.0079    8.4237 C   0  0  0  0  0  0  0  0  0  0  0  0
   -2.2098   31.4254    9.7699 C   0  0  0  0  0  0  0  0  0  0  0  0
   -3.0626   32.4456   10.2114 C   0  0  0  0  0  0  0  0  0  0  0  0
   -3.9134   33.0840    9.3145 C   0  0  0  0  0  0  0  0  0  0  0  0
   -3.8958   32.7046    7.9803 C   0  0  0  0  0  0  0  0  0  0  0  0
   -4.6925   33.3376    7.1077 F   0  0  0  0  0  0  0  0  0  0  0  0
   -3.0492   31.6892    7.5394 C   0  0  0  0  0  0  0  0  0  0  0  0
   -3.0294   31.4027    6.2288 F   0  0  0  0  0  0  0  0  0  0  0  0
  1  2  2  0  0  0
  2  3  1  0  0  0
  3 17  1  0  0  0
 17 18  1  0  0  0
 18 23  1  0  0  0
 23 24  2  0  0  0
 24 25  1  0  0  0
 25 26  2  0  0  0
 26 27  1  0  0  0
 27 28  1  0  0  0
 27 29  2  0  0  0
 29 30  1  0  0  0
 18 19  1  0  0  0
 19 20  1  0  0  0
 20 21  1  0  0  0
 21 22  1  0  0  0
  2  4  1  0  0  0
  4  7  1  0  0  0
  7  8  1  0  0  0
  8  9  1  0  0  0
  9 10  1  0  0  0
 10 11  2  0  0  0
 11 12  1  0  0  0
 12 13  2  0  0  0
 13 14  1  0  0  0
 11 15  1  0  0  0
 22 18  1  0  0  0
 15  7  1  0  0  0
 29 23  1  0  0  0
 14 10  1  0  0  0
  3  5  1  0  0  0
  4  6  1  0  0  0
 14 16  1  0  0  0
M  END
> <minimizedAffinity>
-10.93271

$$$$
OCNT-2317709


 24 26  0  0  0  0  0  0  0  0999 V2000
   -4.5701   27.7446    5.6843 N   0  0  0  0  0  0  0  0  0  0  0  0
   -3.4004   28.2300    6.2336 C   0  0  0  0  0  0  0  0  0  0  0  0
   -2.4155   27.4270    5.8818 N   0  0  0  0  0  0  0  0  0  0  0  0
   -2.9233   26.4506    5.0647 N   0  0  0  0  0  0  0  0  0  0  0  0
   -4.2098   26.6682    4.9037 C   0  0  0  0  0  0  0  0  0  0  0  0
   -3.2650   29.3792    7.1161 C   0  0  0  0  0  0  0  0  0  0  0  0
   -2.7639   30.6078    6.6798 C   0  0  0  0  0  0  0  0  0  0  0  0
   -2.6603   31.6707    7.5756 C   0  0  0  0  0  0  0  0  0  0  0  0
   -3.0571   31.4674    8.8873 C   0  0  0  0  0  0  0  0  0  0  0  0
   -3.5324   30.2929    9.3512 N   0  0  0  0  0  0  0  0  0  0  0  0
   -3.6095   29.2732    8.4602 C   0  0  0  0  0  0  0  0  0  0  0  0
   -5.1117   25.9447    4.1811 N   0  0  0  0  0  0  0  0  0  0  0  0
   -5.3203   26.3629    2.7745 C   0  0  0  0  0  0  0  0  0  0  0  0
   -4.8998   25.2730    1.7600 C   0  0  0  0  0  0  0  0  0  0  0  0
   -5.5573   23.9548    1.9328 N   0  0  0  0  0  0  0  0  0  0  0  0
   -5.9290   23.7506    3.3540 C   0  0  0  0  0  0  0  0  0  0  0  0
   -4.9937   24.4761    4.3454 C   0  0  0  0  0  0  0  0  0  0  0  0
   -6.6657   23.7023    0.9883 C   0  0  0  0  0  0  0  0  0  0  0  0
   -6.5909   22.3112    0.3322 C   0  0  0  0  0  0  0  0  0  0  0  0
   -6.6626   24.7373   -0.1504 C   0  0  0  0  0  0  0  0  0  0  0  0
   -5.9184   28.1829    5.9848 C   0  0  0  0  0  0  0  0  0  0  0  0
   -6.2081   29.6786    3.9900 C   0  0  0  0  0  0  0  0  0  0  0  0
   -6.2361   29.6158    5.5186 C   0  0  0  0  0  0  0  0  0  0  0  0
   -7.5948   30.0975    6.0321 C   0  0  0  0  0  0  0  0  0  0  0  0
 22 23  1  0  0  0
 23 24  1  0  0  0
 23 21  1  0  0  0
 21  1  1  0  0  0
  1  2  1  0  0  0
  2  6  1  0  0  0
  6  7  1  0  0  0
  7  8  2  0  0  0
  8  9  1  0  0  0
  9 10  2  0  0  0
 10 11  1  0  0  0
  2  3  2  0  0  0
  3  4  1  0  0  0
  4  5  2  0  0  0
  5 12  1  0  0  0
 12 13  1  0  0  0
 13 14  1  0  0  0
 14 15  1  0  0  0
 15 18  1  0  0  0
 18 19  1  0  0  0
 18 20  1  0  0  0
 15 16  1  0  0  0
 16 17  1  0  0  0
  5  1  1  0  0  0
 17 12  1  0  0  0
 11  6  2  0  0  0
M  END
> <minimizedAffinity>
-8.14804

$$$$
OCNT-2317724


 26 29  0  0  0  0  0  0  0  0999 V2000
   -6.6850   30.1223    7.0968 O   0  0  0  0  0  0  0  0  0  0  0  0
   -5.5313   30.1426    6.6725 C   0  0  0  0  0  0  0  0  0  0  0  0
   -5.2432   29.8503    5.3490 N   0  0  0  0  0  0  0  0  0  0  0  0
   -4.2833   29.6902    5.0856 H   0  0  0  0  0  0  0  0  0  0  0  0
   -4.3569   30.4550    7.5149 C   0  0  0  0  0  0  0  0  0  0  0  0
   -3.1041   30.3551    7.0326 N   0  0  0  0  0  0  0  0  0  0  0  0
   -2.3038   30.7056    8.0522 N   0  0  0  0  0  0  0  0  0  0  0  0
   -2.9919   31.0331    9.1835 C   0  0  0  0  0  0  0  0  0  0  0  0
   -4.3220   30.8776    8.8750 C   0  0  0  0  0  0  0  0  0  0  0  0
   -0.8634   30.7080    7.8549 C   0  0  0  0  0  0  0  0  0  0  0  0
   -0.1051   30.0420    9.0148 C   0  0  0  0  0  0  0  0  0  0  0  0
    0.9964   29.2281    8.3504 C   0  0  0  0  0  0  0  0  0  0  0  0
    0.3537   28.7560    7.0579 C   0  0  0  0  0  0  0  0  0  0  0  0
   -0.4124   29.9812    6.5754 C   0  0  0  0  0  0  0  0  0  0  0  0
   -6.2754   29.4101    4.4411 C   0  0  0  0  0  0  0  0  0  0  0  0
   -6.1185   27.9561    4.1045 C   0  0  0  0  0  0  0  0  0  0  0  0
   -5.7720   27.5307    2.8204 C   0  0  0  0  0  0  0  0  0  0  0  0
   -5.6212   26.1688    2.5519 C   0  0  0  0  0  0  0  0  0  0  0  0
   -5.8171   25.2581    3.5868 C   0  0  0  0  0  0  0  0  0  0  0  0
   -6.1460   25.6512    4.8440 N   0  0  0  0  0  0  0  0  0  0  0  0
   -6.2841   26.9770    5.0761 C   0  0  0  0  0  0  0  0  0  0  0  0
   -5.6746   23.8605    3.3605 N   0  0  0  0  0  0  0  0  0  0  0  0
   -5.6501   22.8861    4.3367 C   0  0  0  0  0  0  0  0  0  0  0  0
   -5.4959   21.6912    3.6777 C   0  0  0  0  0  0  0  0  0  0  0  0
   -5.4241   21.8895    2.3264 N   0  0  0  0  0  0  0  0  0  0  0  0
   -5.5341   23.1912    2.1661 C   0  0  0  0  0  0  0  0  0  0  0  0
  1  2  2  0  0  0
  2  3  1  0  0  0
  3 15  1  0  0  0
 15 16  1  0  0  0
 16 17  2  0  0  0
 17 18  1  0  0  0
 18 19  2  0  0  0
 19 22  1  0  0  0
 22 23  1  0  0  0
 23 24  2  0  0  0
 24 25  1  0  0  0
 25 26  2  0  0  0
 19 20  1  0  0  0
 20 21  2  0  0  0
  2  5  1  0  0  0
  5  6  2  0  0  0
  6  7  1  0  0  0
  7 10  1  0  0  0
 10 11  1  0  0  0
 11 12  1  0  0  0
 12 13  1  0  0  0
 13 14  1  0  0  0
  7  8  1  0  0  0
  8  9  2  0  0  0
 21 16  1  0  0  0
  9  5  1  0  0  0
 26 22  1  0  0  0
 14 10  1  0  0  0
  3  4  1  0  0  0
M  END
> <minimizedAffinity>
-9.04697

$$$$
OCNT-2317729


 26 29  0  0  0  0  0  0  0  0999 V2000
   -4.2635   26.3337    4.9913 C   0  0  0  0  0  0  0  0  0  0  0  0
   -3.1094   26.8285    5.7676 C   0  0  0  0  0  0  0  0  0  0  0  0
   -2.2112   26.0052    6.3298 N   0  0  0  0  0  0  0  0  0  0  0  0
   -1.3047   26.8820    6.9270 O   0  0  0  0  0  0  0  0  0  0  0  0
   -1.7331   28.1492    6.6370 C   0  0  0  0  0  0  0  0  0  0  0  0
   -2.8305   28.1642    5.9104 N   0  0  0  0  0  0  0  0  0  0  0  0
   -1.0117   29.4415    7.1299 C   0  0  0  0  0  0  0  0  0  0  0  0
    0.4855   29.5305    6.7011 C   0  0  0  0  0  0  0  0  0  0  0  0
    0.8774   29.0447    8.1095 C   0  0  0  0  0  0  0  0  0  0  0  0
   -0.5352   29.4287    8.5949 C   0  0  0  0  0  0  0  0  0  0  0  0
   -0.7775   30.8529    9.0717 C   0  0  0  0  0  0  0  0  0  0  0  0
   -1.9525   31.3250    8.3395 N   0  0  0  0  0  0  0  0  0  0  0  0
   -1.8611   30.7017    7.0059 C   0  0  0  0  0  0  0  0  0  0  0  0
   -2.7889   30.9650    8.8053 H   0  0  0  0  0  0  0  0  0  0  0  0
   -4.4311   24.4620    3.4422 N   0  0  0  0  0  0  0  0  0  0  0  0
   -3.7984   25.6577    3.7207 C   0  0  0  0  0  0  0  0  0  0  0  0
   -2.9197   26.1270    3.0031 O   0  0  0  0  0  0  0  0  0  0  0  0
   -5.3281   24.2887    3.8696 H   0  0  0  0  0  0  0  0  0  0  0  0
   -4.1606   23.7713    2.2022 C   0  0  0  0  0  0  0  0  0  0  0  0
   -5.9086   21.3469    1.7772 C   0  0  0  0  0  0  0  0  0  0  0  0
   -6.1856   22.6600    1.0978 C   0  0  0  0  0  0  0  0  0  0  0  0
   -7.2859   22.7566    0.2301 C   0  0  0  0  0  0  0  0  0  0  0  0
   -7.5781   23.9521   -0.4279 C   0  0  0  0  0  0  0  0  0  0  0  0
   -6.7726   25.0674   -0.2310 C   0  0  0  0  0  0  0  0  0  0  0  0
   -5.6768   24.9888    0.6275 C   0  0  0  0  0  0  0  0  0  0  0  0
   -5.3750   23.7959    1.3094 C   0  0  0  0  0  0  0  0  0  0  0  0
 20 21  1  0  0  0
 21 22  2  0  0  0
 22 23  1  0  0  0
 23 24  2  0  0  0
 24 25  1  0  0  0
 25 26  2  0  0  0
 26 19  1  0  0  0
 19 15  1  0  0  0
 15 16  1  0  0  0
 16 17  2  0  0  0
 16  1  1  0  0  0
  1  2  1  0  0  0
  2  3  2  0  0  0
  3  4  1  0  0  0
  4  5  1  0  0  0
  7  5  1  0  0  0
  7  8  1  0  0  0
  8  9  1  0  0  0
  9 10  1  0  0  0
 10 11  1  0  0  0
 11 12  1  0  0  0
 12 13  1  0  0  0
  5  6  2  0  0  0
 26 21  1  0  0  0
  6  2  1  0  0  0
 10  7  1  0  0  0
 13  7  1  0  0  0
 15 18  1  0  0  0
 12 14  1  0  0  0
M  END
> <minimizedAffinity>
-9.95056

$$$$
OCNT-2317738


 29 32  0  0  0  0  0  0  0  0999 V2000
   -5.5140   24.8906    4.5673 N   0  0  0  0  0  0  0  0  0  0  0  0
   -6.5223   25.0507    4.5900 H   0  0  0  0  0  0  0  0  0  0  0  0
   -5.2071   23.6526    3.8426 C   0  0  0  0  0  0  0  0  0  0  0  0
   -6.4139   22.6474    3.7117 C   0  0  0  0  0  0  0  0  0  0  0  0
   -7.3883   23.1386    2.6068 C   0  0  0  0  0  0  0  0  0  0  0  0
   -6.7269   23.2186    1.2297 C   0  0  0  0  0  0  0  0  0  0  0  0
   -5.6669   22.2782    1.0575 O   0  0  0  0  0  0  0  0  0  0  0  0
   -5.9135   21.0544    1.7309 C   0  0  0  0  0  0  0  0  0  0  0  0
   -5.8687   21.2564    3.2449 C   0  0  0  0  0  0  0  0  0  0  0  0
   -9.0133   21.9087    9.3569 Br  0  0  0  0  0  0  0  0  0  0  0  0
   -8.2388   22.1229    7.6474 C   0  0  0  0  0  0  0  0  0  0  0  0
   -9.0297   22.5165    6.5734 C   0  0  0  0  0  0  0  0  0  0  0  0
   -8.4568   22.6832    5.3076 C   0  0  0  0  0  0  0  0  0  0  0  0
   -7.0851   22.4600    5.0934 C   0  0  0  0  0  0  0  0  0  0  0  0
   -6.3105   22.0602    6.2028 C   0  0  0  0  0  0  0  0  0  0  0  0
   -6.8802   21.8924    7.4682 C   0  0  0  0  0  0  0  0  0  0  0  0
   -4.9031   26.1191    4.0311 C   0  0  0  0  0  0  0  0  0  0  0  0
   -5.5954   27.3964    4.4681 C   0  0  0  0  0  0  0  0  0  0  0  0
   -5.6689   28.5368    3.6581 C   0  0  0  0  0  0  0  0  0  0  0  0
   -6.3178   29.6782    4.1202 C   0  0  0  0  0  0  0  0  0  0  0  0
   -6.8795   29.6462    5.3848 C   0  0  0  0  0  0  0  0  0  0  0  0
   -6.8383   28.5690    6.1974 N   0  0  0  0  0  0  0  0  0  0  0  0
   -6.2054   27.4733    5.7184 C   0  0  0  0  0  0  0  0  0  0  0  0
   -3.4415   26.1366    4.4314 C   0  0  0  0  0  0  0  0  0  0  0  0
   -2.3876   26.0523    3.6353 N   0  0  0  0  0  0  0  0  0  0  0  0
   -1.2939   26.1139    4.4580 C   0  0  0  0  0  0  0  0  0  0  0  0
   -1.6778   26.2391    5.7704 C   0  0  0  0  0  0  0  0  0  0  0  0
   -3.0441   26.2556    5.7423 N   0  0  0  0  0  0  0  0  0  0  0  0
   -3.6601   26.3427    6.5390 H   0  0  0  0  0  0  0  0  0  0  0  0
 10 11  1  0  0  0
 11 12  1  0  0  0
 12 13  2  0  0  0
 13 14  1  0  0  0
 14  4  1  0  0  0
  4  3  1  0  0  0
  3  1  1  0  0  0
  1 17  1  0  0  0
 17 18  1  0  0  0
 18 19  1  0  0  0
 19 20  2  0  0  0
 20 21  1  0  0  0
 21 22  2  0  0  0
 22 23  1  0  0  0
 17 24  1  0  0  0
 24 25  2  0  0  0
 25 26  1  0  0  0
 26 27  2  0  0  0
 27 28  1  0  0  0
  4  5  1  0  0  0
  5  6  1  0  0  0
  6  7  1  0  0  0
  7  8  1  0  0  0
  8  9  1  0  0  0
 14 15  2  0  0  0
 15 16  1  0  0  0
 16 11  2  0  0  0
  9  4  1  0  0  0
 23 18  2  0  0  0
 28 24  1  0  0  0
  1  2  1  0  0  0
 28 29  1  0  0  0
M  END
> <minimizedAffinity>
-9.04076

$$$$
OCNT-2317740


 27 30  0  0  0  0  0  0  0  0999 V2000
   -1.0458   27.1730    6.7466 C   0  0  0  0  0  0  0  0  0  0  0  0
    0.1758   27.9190    7.0751 N   0  0  0  0  0  0  0  0  0  0  0  0
    0.9775   27.4259    6.6803 H   0  0  0  0  0  0  0  0  0  0  0  0
    0.1678   29.2779    6.5343 C   0  0  0  0  0  0  0  0  0  0  0  0
   -0.7406   30.1692    7.3482 C   0  0  0  0  0  0  0  0  0  0  0  0
   -0.4564   30.4475    8.6941 C   0  0  0  0  0  0  0  0  0  0  0  0
   -1.3082   31.2616    9.4451 C   0  0  0  0  0  0  0  0  0  0  0  0
   -2.4531   31.7970    8.8602 C   0  0  0  0  0  0  0  0  0  0  0  0
   -3.2536   32.5677    9.6646 O   0  0  0  0  0  0  0  0  0  0  0  0
   -4.5451   32.7623    9.0770 C   0  0  0  0  0  0  0  0  0  0  0  0
   -4.4157   33.1339    7.6092 C   0  0  0  0  0  0  0  0  0  0  0  0
   -3.8276   32.0613    6.8652 O   0  0  0  0  0  0  0  0  0  0  0  0
   -2.7360   31.5431    7.5149 C   0  0  0  0  0  0  0  0  0  0  0  0
   -1.8946   30.7197    6.7682 C   0  0  0  0  0  0  0  0  0  0  0  0
   -0.9996   26.4993    5.3685 C   0  0  0  0  0  0  0  0  0  0  0  0
   -3.8803   25.5180    3.5293 C   0  0  0  0  0  0  0  0  0  0  0  0
   -2.5810   25.4373    3.7504 N   0  0  0  0  0  0  0  0  0  0  0  0
   -2.3602   26.2998    4.8004 C   0  0  0  0  0  0  0  0  0  0  0  0
   -3.5522   26.8747    5.1742 C   0  0  0  0  0  0  0  0  0  0  0  0
   -4.5329   26.3857    4.3674 O   0  0  0  0  0  0  0  0  0  0  0  0
   -6.9552   22.7744   -0.2634 F   0  0  0  0  0  0  0  0  0  0  0  0
   -6.2226   23.4365    0.6413 C   0  0  0  0  0  0  0  0  0  0  0  0
   -5.4235   22.7267    1.5281 C   0  0  0  0  0  0  0  0  0  0  0  0
   -4.6597   23.4194    2.4712 C   0  0  0  0  0  0  0  0  0  0  0  0
   -4.6911   24.8236    2.5320 C   0  0  0  0  0  0  0  0  0  0  0  0
   -5.5084   25.5171    1.6234 C   0  0  0  0  0  0  0  0  0  0  0  0
   -6.2727   24.8244    0.6797 C   0  0  0  0  0  0  0  0  0  0  0  0
 21 22  1  0  0  0
 22 23  1  0  0  0
 23 24  2  0  0  0
 24 25  1  0  0  0
 25 16  1  0  0  0
 16 17  2  0  0  0
 17 18  1  0  0  0
 18 15  1  0  0  0
 15  1  1  0  0  0
  1  2  1  0  0  0
  2  4  1  0  0  0
  4  5  1  0  0  0
  5  6  1  0  0  0
  6  7  2  0  0  0
  7  8  1  0  0  0
  8  9  1  0  0  0
  9 10  1  0  0  0
 10 11  1  0  0  0
 11 12  1  0  0  0
 12 13  1  0  0  0
 13 14  1  0  0  0
 18 19  2  0  0  0
 19 20  1  0  0  0
 25 26  2  0  0  0
 26 27  1  0  0  0
 27 22  2  0  0  0
 20 16  1  0  0  0
 14  5  2  0  0  0
 13  8  2  0  0  0
  2  3  1  0  0  0
M  END
> <minimizedAffinity>
-9.65060

$$$$
OCNT-2317761


 26 29  0  0  0  0  0  0  0  0999 V2000
   -2.5093   25.7004    4.0348 O   0  0  0  0  0  0  0  0  0  0  0  0
   -3.1607   26.0794    5.0002 C   0  0  0  0  0  0  0  0  0  0  0  0
   -4.4378   25.6824    5.3557 N   0  0  0  0  0  0  0  0  0  0  0  0
   -4.8950   26.1890    6.1034 H   0  0  0  0  0  0  0  0  0  0  0  0
   -2.5526   27.1087    5.8770 C   0  0  0  0  0  0  0  0  0  0  0  0
   -3.3125   28.1355    6.4338 C   0  0  0  0  0  0  0  0  0  0  0  0
   -2.8419   29.1237    7.2344 N   0  0  0  0  0  0  0  0  0  0  0  0
   -1.5163   29.0360    7.5075 C   0  0  0  0  0  0  0  0  0  0  0  0
   -0.6654   29.8433    8.2868 C   0  0  0  0  0  0  0  0  0  0  0  0
    0.5963   29.3962    8.2986 N   0  0  0  0  0  0  0  0  0  0  0  0
    0.5428   28.2917    7.5278 N   0  0  0  0  0  0  0  0  0  0  0  0
   -0.6985   28.0279    7.0150 C   0  0  0  0  0  0  0  0  0  0  0  0
   -1.1906   27.0224    6.1832 C   0  0  0  0  0  0  0  0  0  0  0  0
    1.3969   27.7622    7.3898 H   0  0  0  0  0  0  0  0  0  0  0  0
   -5.2332   24.6970    4.7285 C   0  0  0  0  0  0  0  0  0  0  0  0
   -5.6920   23.6460    5.5309 C   0  0  0  0  0  0  0  0  0  0  0  0
   -6.4772   22.6291    4.9878 C   0  0  0  0  0  0  0  0  0  0  0  0
   -6.8101   22.6521    3.6339 C   0  0  0  0  0  0  0  0  0  0  0  0
   -6.3608   23.6907    2.8085 C   0  0  0  0  0  0  0  0  0  0  0  0
   -5.5718   24.7098    3.3716 C   0  0  0  0  0  0  0  0  0  0  0  0
   -6.7168   23.7040    1.3970 C   0  0  0  0  0  0  0  0  0  0  0  0
   -6.4202   24.7143    0.5056 C   0  0  0  0  0  0  0  0  0  0  0  0
   -6.9225   24.3270   -0.7027 N   0  0  0  0  0  0  0  0  0  0  0  0
   -7.5227   23.1269   -0.6727 N   0  0  0  0  0  0  0  0  0  0  0  0
   -7.3996   22.7507    0.6032 C   0  0  0  0  0  0  0  0  0  0  0  0
   -6.8889   24.8272   -1.5849 H   0  0  0  0  0  0  0  0  0  0  0  0
  1  2  2  0  0  0
  2  3  1  0  0  0
  3 15  1  0  0  0
 15 16  2  0  0  0
 16 17  1  0  0  0
 17 18  2  0  0  0
 18 19  1  0  0  0
 19 21  1  0  0  0
 21 22  2  0  0  0
 22 23  1  0  0  0
 23 24  1  0  0  0
 24 25  2  0  0  0
 19 20  2  0  0  0
  2  5  1  0  0  0
  5  6  1  0  0  0
  6  7  2  0  0  0
  7  8  1  0  0  0
  8  9  1  0  0  0
  9 10  2  0  0  0
 10 11  1  0  0  0
 11 12  1  0  0  0
 12 13  1  0  0  0
 20 15  1  0  0  0
 13  5  2  0  0  0
 25 21  1  0  0  0
 12  8  2  0  0  0
  3  4  1  0  0  0
 23 26  1  0  0  0
 11 14  1  0  0  0
M  END
> <minimizedAffinity>
-9.01715

$$$$
OCNT-2317763


 27 29  0  0  0  0  0  0  0  0999 V2000
   -1.2465   28.5536    7.4168 C   0  0  0  0  0  0  0  0  0  0  0  0
   -0.6232   29.9387    7.7461 C   0  0  0  0  0  0  0  0  0  0  0  0
    0.1901   29.8314    8.9167 O   0  0  0  0  0  0  0  0  0  0  0  0
    0.9106   29.2121    8.7129 H   0  0  0  0  0  0  0  0  0  0  0  0
   -1.6485   31.0249    7.9978 C   0  0  0  0  0  0  0  0  0  0  0  0
   -1.8453   31.5527    9.2824 C   0  0  0  0  0  0  0  0  0  0  0  0
   -2.8020   32.5454    9.5092 C   0  0  0  0  0  0  0  0  0  0  0  0
   -3.5759   33.0434    8.4523 C   0  0  0  0  0  0  0  0  0  0  0  0
   -3.3795   32.5193    7.1666 C   0  0  0  0  0  0  0  0  0  0  0  0
   -2.4220   31.5266    6.9414 C   0  0  0  0  0  0  0  0  0  0  0  0
   -4.6231   34.1014    8.6971 C   0  0  0  0  0  0  0  0  0  0  0  0
   -5.7862   33.8661    8.0269 F   0  0  0  0  0  0  0  0  0  0  0  0
   -4.2262   35.3500    8.3236 F   0  0  0  0  0  0  0  0  0  0  0  0
   -4.9639   34.1951   10.0122 F   0  0  0  0  0  0  0  0  0  0  0  0
   -2.3600   28.1077    8.2654 N   0  0  0  0  0  0  0  0  0  0  0  0
   -2.4429   28.7349    9.0661 H   0  0  0  0  0  0  0  0  0  0  0  0
   -5.4864   26.8847    5.3027 C   0  0  0  0  0  0  0  0  0  0  0  0
   -4.7275   28.2103    5.2948 C   0  0  0  0  0  0  0  0  0  0  0  0
   -3.4021   28.1740    6.0503 C   0  0  0  0  0  0  0  0  0  0  0  0
   -3.6424   27.9943    7.5513 C   0  0  0  0  0  0  0  0  0  0  0  0
   -4.6657   29.0146    8.0011 C   0  0  0  0  0  0  0  0  0  0  0  0
   -4.7758   29.4065    9.3471 C   0  0  0  0  0  0  0  0  0  0  0  0
   -5.7467   30.3245    9.7542 C   0  0  0  0  0  0  0  0  0  0  0  0
   -6.6301   30.8608    8.8235 C   0  0  0  0  0  0  0  0  0  0  0  0
   -6.5423   30.4750    7.4880 C   0  0  0  0  0  0  0  0  0  0  0  0
   -5.5746   29.5527    7.0790 C   0  0  0  0  0  0  0  0  0  0  0  0
   -5.5923   29.2572    5.7427 O   0  0  0  0  0  0  0  0  0  0  0  0
 17 18  1  0  0  0
 18 19  1  0  0  0
 19 20  1  0  0  0
 20 15  1  0  0  0
 15  1  1  0  0  0
  1  2  1  0  0  0
  2  3  1  0  0  0
  2  5  1  0  0  0
  5  6  1  0  0  0
  6  7  2  0  0  0
  7  8  1  0  0  0
  8 11  1  0  0  0
 11 12  1  0  0  0
 11 13  1  0  0  0
 11 14  1  0  0  0
  8  9  2  0  0  0
  9 10  1  0  0  0
 20 21  1  0  0  0
 21 22  2  0  0  0
 22 23  1  0  0  0
 23 24  2  0  0  0
 24 25  1  0  0  0
 25 26  2  0  0  0
 26 27  1  0  0  0
 27 18  1  0  0  0
 10  5  2  0  0  0
 26 21  1  0  0  0
 15 16  1  0  0  0
  3  4  1  0  0  0
M  END
> <minimizedAffinity>
-8.87934

$$$$
OCNT-2317790


 23 25  0  0  0  0  0  0  0  0999 V2000
   -3.8774   26.6984    4.9670 C   0  0  0  0  0  0  0  0  0  0  0  0
   -5.3086   26.7407    4.4372 C   0  0  0  0  0  0  0  0  0  0  0  0
   -5.7197   25.3827    3.8550 C   0  0  0  0  0  0  0  0  0  0  0  0
   -4.6270   24.6495    3.2017 N   0  0  0  0  0  0  0  0  0  0  0  0
   -3.5985   25.5602    2.6896 C   0  0  0  0  0  0  0  0  0  0  0  0
   -2.9104   26.3031    3.8389 C   0  0  0  0  0  0  0  0  0  0  0  0
   -2.1390   27.0397    7.1429 O   0  0  0  0  0  0  0  0  0  0  0  0
   -2.6762   28.0343    6.6696 C   0  0  0  0  0  0  0  0  0  0  0  0
   -3.5144   27.9808    5.5704 N   0  0  0  0  0  0  0  0  0  0  0  0
   -4.1892   28.7272    5.4902 H   0  0  0  0  0  0  0  0  0  0  0  0
   -2.5138   29.3590    7.2315 C   0  0  0  0  0  0  0  0  0  0  0  0
   -2.3738   29.7015    8.5691 C   0  0  0  0  0  0  0  0  0  0  0  0
   -2.2311   31.1034    8.6520 C   0  0  0  0  0  0  0  0  0  0  0  0
   -2.0457   31.9881   10.0859 Cl  0  0  0  0  0  0  0  0  0  0  0  0
   -2.2615   31.5968    7.3710 C   0  0  0  0  0  0  0  0  0  0  0  0
   -2.4144   30.5357    6.5177 N   0  0  0  0  0  0  0  0  0  0  0  0
   -2.4129   30.5981    5.5084 H   0  0  0  0  0  0  0  0  0  0  0  0
   -5.0833   23.7208    2.1540 C   0  0  0  0  0  0  0  0  0  0  0  0
   -6.3469   24.1625    1.4047 C   0  0  0  0  0  0  0  0  0  0  0  0
   -7.0420   23.0040    0.7097 C   0  0  0  0  0  0  0  0  0  0  0  0
   -7.9250   23.7202   -0.2859 C   0  0  0  0  0  0  0  0  0  0  0  0
   -7.1984   24.8815   -0.7025 O   0  0  0  0  0  0  0  0  0  0  0  0
   -6.1368   25.1160    0.2387 C   0  0  0  0  0  0  0  0  0  0  0  0
  7  8  2  0  0  0
  8  9  1  0  0  0
  9  1  1  0  0  0
  1  2  1  0  0  0
  2  3  1  0  0  0
  3  4  1  0  0  0
  4 18  1  0  0  0
 18 19  1  0  0  0
 19 20  1  0  0  0
 20 21  1  0  0  0
 21 22  1  0  0  0
 22 23  1  0  0  0
  4  5  1  0  0  0
  5  6  1  0  0  0
  8 11  1  0  0  0
 11 12  2  0  0  0
 12 13  1  0  0  0
 13 14  1  0  0  0
 13 15  2  0  0  0
 15 16  1  0  0  0
  6  1  1  0  0  0
 16 11  1  0  0  0
 23 19  1  0  0  0
  9 10  1  0  0  0
 16 17  1  0  0  0
M  END
> <minimizedAffinity>
-8.09591

$$$$
OCNT-2317809


 24 27  0  0  0  0  0  0  0  0999 V2000
   -1.0313   27.9722    6.5659 O   0  0  0  0  0  0  0  0  0  0  0  0
   -0.2537   29.1693    6.8093 S   0  0  0  0  0  0  0  0  0  0  0  0
    0.9261   29.4946    6.0351 O   0  0  0  0  0  0  0  0  0  0  0  0
    0.1730   29.2176    8.5405 C   0  0  0  0  0  0  0  0  0  0  0  0
   -0.2926   30.5851    9.0263 C   0  0  0  0  0  0  0  0  0  0  0  0
   -1.6261   30.9091    8.3081 C   0  0  0  0  0  0  0  0  0  0  0  0
   -1.9797   32.4124    8.4549 C   0  0  0  0  0  0  0  0  0  0  0  0
   -3.0518   32.6310    9.5155 C   0  0  0  0  0  0  0  0  0  0  0  0
   -4.3272   31.8455    9.1786 C   0  0  0  0  0  0  0  0  0  0  0  0
   -4.0614   30.5788    8.4736 N   0  0  0  0  0  0  0  0  0  0  0  0
   -2.7720   30.0123    8.8633 C   0  0  0  0  0  0  0  0  0  0  0  0
   -1.3434   30.5890    6.8207 C   0  0  0  0  0  0  0  0  0  0  0  0
   -5.1590   29.6096    8.6333 C   0  0  0  0  0  0  0  0  0  0  0  0
   -5.8623   29.3245    7.3573 C   0  0  0  0  0  0  0  0  0  0  0  0
   -6.8825   29.9277    6.6612 C   0  0  0  0  0  0  0  0  0  0  0  0
   -7.1470   29.2277    5.5121 N   0  0  0  0  0  0  0  0  0  0  0  0
   -6.2873   28.2244    5.5427 C   0  0  0  0  0  0  0  0  0  0  0  0
   -5.4762   28.2194    6.6485 O   0  0  0  0  0  0  0  0  0  0  0  0
   -6.0932   27.1439    4.5791 C   0  0  0  0  0  0  0  0  0  0  0  0
   -6.1756   25.8099    5.0072 C   0  0  0  0  0  0  0  0  0  0  0  0
   -5.9943   24.7558    4.1078 C   0  0  0  0  0  0  0  0  0  0  0  0
   -5.7281   25.0230    2.7669 C   0  0  0  0  0  0  0  0  0  0  0  0
   -5.6431   26.3416    2.3245 C   0  0  0  0  0  0  0  0  0  0  0  0
   -5.8247   27.3953    3.2249 C   0  0  0  0  0  0  0  0  0  0  0  0
  1  2  2  0  0  0
  2  3  2  0  0  0
  2  4  1  0  0  0
  4  5  1  0  0  0
  5  6  1  0  0  0
  6  7  1  0  0  0
  7  8  1  0  0  0
  8  9  1  0  0  0
  9 10  1  0  0  0
 10 13  1  0  0  0
 13 14  1  0  0  0
 14 15  2  0  0  0
 15 16  1  0  0  0
 16 17  2  0  0  0
 17 19  1  0  0  0
 19 20  2  0  0  0
 20 21  1  0  0  0
 21 22  2  0  0  0
 22 23  1  0  0  0
 23 24  2  0  0  0
 17 18  1  0  0  0
 10 11  1  0  0  0
  6 12  1  0  0  0
 12  2  1  0  0  0
 11  6  1  0  0  0
 18 14  1  0  0  0
 24 19  1  0  0  0
M  END
> <minimizedAffinity>
-10.03166

$$$$
OCNT-2317811


 25 27  0  0  0  0  0  0  0  0999 V2000
   -1.5180   28.3308    7.7404 C   0  0  0  0  0  0  0  0  0  0  0  0
   -1.3374   27.4345    6.6813 C   0  0  0  0  0  0  0  0  0  0  0  0
   -2.3711   27.1912    5.7647 C   0  0  0  0  0  0  0  0  0  0  0  0
   -3.6096   27.8286    5.9213 C   0  0  0  0  0  0  0  0  0  0  0  0
   -3.7870   28.7348    6.9793 C   0  0  0  0  0  0  0  0  0  0  0  0
   -2.7545   28.9880    7.8904 C   0  0  0  0  0  0  0  0  0  0  0  0
   -4.7310   27.6085    4.9265 C   0  0  0  0  0  0  0  0  0  0  0  0
   -4.5783   26.3918    4.1085 N   0  0  0  0  0  0  0  0  0  0  0  0
   -3.2253   26.3435    3.5379 C   0  0  0  0  0  0  0  0  0  0  0  0
   -2.1765   26.1966    4.6491 C   0  0  0  0  0  0  0  0  0  0  0  0
    0.6593   29.1971    8.2103 C   0  0  0  0  0  0  0  0  0  0  0  0
   -0.5573   28.6320    8.6750 O   0  0  0  0  0  0  0  0  0  0  0  0
   -2.8502   29.8588    8.9486 O   0  0  0  0  0  0  0  0  0  0  0  0
   -4.0521   30.6021    9.0841 C   0  0  0  0  0  0  0  0  0  0  0  0
   -5.6296   26.3623    3.0738 C   0  0  0  0  0  0  0  0  0  0  0  0
   -5.7303   25.0072    2.4258 C   0  0  0  0  0  0  0  0  0  0  0  0
   -5.6323   24.8646    1.0946 N   0  0  0  0  0  0  0  0  0  0  0  0
   -5.7775   23.5481    0.8886 N   0  0  0  0  0  0  0  0  0  0  0  0
   -5.9162   22.8291    2.0371 C   0  0  0  0  0  0  0  0  0  0  0  0
   -5.8820   23.7494    3.0618 C   0  0  0  0  0  0  0  0  0  0  0  0
   -5.7639   23.2066   -0.0689 H   0  0  0  0  0  0  0  0  0  0  0  0
   -6.0667   21.3690    2.0001 C   0  0  0  0  0  0  0  0  0  0  0  0
   -7.3406   20.9883    2.2754 F   0  0  0  0  0  0  0  0  0  0  0  0
   -5.7567   20.8610    0.7829 F   0  0  0  0  0  0  0  0  0  0  0  0
   -5.2662   20.7560    2.9051 F   0  0  0  0  0  0  0  0  0  0  0  0
 11 12  1  0  0  0
 12  1  1  0  0  0
  1  2  2  0  0  0
  2  3  1  0  0  0
  3  4  2  0  0  0
  4  5  1  0  0  0
  5  6  2  0  0  0
  6 13  1  0  0  0
 13 14  1  0  0  0
  4  7  1  0  0  0
  7  8  1  0  0  0
  8 15  1  0  0  0
 15 16  1  0  0  0
 16 17  2  0  0  0
 17 18  1  0  0  0
 18 19  1  0  0  0
 19 22  1  0  0  0
 22 23  1  0  0  0
 22 24  1  0  0  0
 22 25  1  0  0  0
 19 20  2  0  0  0
  8  9  1  0  0  0
  9 10  1  0  0  0
  6  1  1  0  0  0
 20 16  1  0  0  0
 10  3  1  0  0  0
 18 21  1  0  0  0
M  END
> <minimizedAffinity>
-8.40886

$$$$
OCNT-2317813


 24 26  0  0  0  0  0  0  0  0999 V2000
   -2.2956   27.4366    7.7603 N   0  0  0  0  0  0  0  0  0  0  0  0
   -2.3867   26.6799    8.4287 H   0  0  0  0  0  0  0  0  0  0  0  0
   -1.0705   26.0471    4.6596 C   0  0  0  0  0  0  0  0  0  0  0  0
   -1.1134   26.4698    5.9389 N   0  0  0  0  0  0  0  0  0  0  0  0
   -2.2564   26.9863    6.4418 C   0  0  0  0  0  0  0  0  0  0  0  0
   -3.3749   27.0794    5.5905 C   0  0  0  0  0  0  0  0  0  0  0  0
   -4.7108   27.5822    5.7687 C   0  0  0  0  0  0  0  0  0  0  0  0
   -5.4792   27.4650    4.6309 C   0  0  0  0  0  0  0  0  0  0  0  0
   -4.6046   26.7582    3.3434 S   0  0  0  0  0  0  0  0  0  0  0  0
   -3.1998   26.6108    4.2989 C   0  0  0  0  0  0  0  0  0  0  0  0
   -2.0786   26.0874    3.7817 N   0  0  0  0  0  0  0  0  0  0  0  0
    1.0279   26.5874    3.4226 C   0  0  0  0  0  0  0  0  0  0  0  0
    0.2475   25.5153    4.1654 C   0  0  0  0  0  0  0  0  0  0  0  0
   -1.3516   28.4783    8.1527 C   0  0  0  0  0  0  0  0  0  0  0  0
   -2.0080   29.8802    8.2840 C   0  0  0  0  0  0  0  0  0  0  0  0
   -2.0277   30.4654    6.9687 O   0  0  0  0  0  0  0  0  0  0  0  0
   -3.4615   29.8300    8.7770 C   0  0  0  0  0  0  0  0  0  0  0  0
   -4.1336   31.2096    8.7956 C   0  0  0  0  0  0  0  0  0  0  0  0
   -3.1799   32.3441    9.1439 C   0  0  0  0  0  0  0  0  0  0  0  0
   -2.7894   32.9842    8.0127 F   0  0  0  0  0  0  0  0  0  0  0  0
   -3.8490   33.2712    9.8798 F   0  0  0  0  0  0  0  0  0  0  0  0
   -1.9558   31.8875    9.9110 C   0  0  0  0  0  0  0  0  0  0  0  0
   -1.1500   30.8161    9.1680 C   0  0  0  0  0  0  0  0  0  0  0  0
   -2.6284   29.9400    6.4106 H   0  0  0  0  0  0  0  0  0  0  0  0
 12 13  1  0  0  0
 13  3  1  0  0  0
  3  4  2  0  0  0
  4  5  1  0  0  0
  5  1  1  0  0  0
  1 14  1  0  0  0
 14 15  1  0  0  0
 15 16  1  0  0  0
 15 17  1  0  0  0
 17 18  1  0  0  0
 18 19  1  0  0  0
 19 20  1  0  0  0
 19 21  1  0  0  0
 19 22  1  0  0  0
 22 23  1  0  0  0
  5  6  2  0  0  0
  6  7  1  0  0  0
  7  8  2  0  0  0
  8  9  1  0  0  0
  9 10  1  0  0  0
 10 11  2  0  0  0
 11  3  1  0  0  0
 23 15  1  0  0  0
 10  6  1  0  0  0
  1  2  1  0  0  0
 16 24  1  0  0  0
M  END
> <minimizedAffinity>
-9.08010

$$$$
OCNT-2317818


 25 27  0  0  0  0  0  0  0  0999 V2000
   -3.6466   26.6452    3.8235 N   0  0  0  0  0  0  0  0  0  0  0  0
   -2.6670   26.4895    4.7663 C   0  0  0  0  0  0  0  0  0  0  0  0
   -1.6248   25.8838    4.5319 O   0  0  0  0  0  0  0  0  0  0  0  0
   -2.9382   27.0652    5.9988 N   0  0  0  0  0  0  0  0  0  0  0  0
   -4.0544   27.9625    6.2982 C   0  0  0  0  0  0  0  0  0  0  0  0
   -3.5750   29.2553    6.9562 C   0  0  0  0  0  0  0  0  0  0  0  0
   -2.6686   28.9578    8.1567 C   0  0  0  0  0  0  0  0  0  0  0  0
   -1.5065   28.0445    7.7491 C   0  0  0  0  0  0  0  0  0  0  0  0
   -2.0440   26.7680    7.1157 C   0  0  0  0  0  0  0  0  0  0  0  0
   -4.5880   26.6534    4.1771 H   0  0  0  0  0  0  0  0  0  0  0  0
   -2.2072   30.1754    8.8088 N   0  0  0  0  0  0  0  0  0  0  0  0
   -2.9516   31.0536    9.5475 C   0  0  0  0  0  0  0  0  0  0  0  0
   -2.0652   32.0320    9.9350 C   0  0  0  0  0  0  0  0  0  0  0  0
   -0.8095   31.7712    9.4537 N   0  0  0  0  0  0  0  0  0  0  0  0
   -0.9245   30.6489    8.7798 C   0  0  0  0  0  0  0  0  0  0  0  0
   -3.4888   26.1060    2.4900 C   0  0  0  0  0  0  0  0  0  0  0  0
   -6.1788   22.7873    1.8121 C   0  0  0  0  0  0  0  0  0  0  0  0
   -6.4864   24.0551    1.3257 C   0  0  0  0  0  0  0  0  0  0  0  0
   -5.6140   25.1264    1.5502 C   0  0  0  0  0  0  0  0  0  0  0  0
   -4.4179   24.9444    2.2553 C   0  0  0  0  0  0  0  0  0  0  0  0
   -4.1183   23.6716    2.7515 C   0  0  0  0  0  0  0  0  0  0  0  0
   -4.9909   22.6036    2.5257 C   0  0  0  0  0  0  0  0  0  0  0  0
   -6.9276   21.6536    1.6587 O   0  0  0  0  0  0  0  0  0  0  0  0
   -8.3761   21.6181    3.6053 C   0  0  0  0  0  0  0  0  0  0  0  0
   -7.2872   20.9057    2.8194 C   0  0  0  0  0  0  0  0  0  0  0  0
 24 25  1  0  0  0
 25 23  1  0  0  0
 23 17  1  0  0  0
 17 18  1  0  0  0
 18 19  2  0  0  0
 19 20  1  0  0  0
 20 16  1  0  0  0
 16  1  1  0  0  0
  1  2  1  0  0  0
  2  3  2  0  0  0
  2  4  1  0  0  0
  4  5  1  0  0  0
  5  6  1  0  0  0
  6  7  1  0  0  0
  7 11  1  0  0  0
 11 12  1  0  0  0
 12 13  2  0  0  0
 13 14  1  0  0  0
 14 15  2  0  0  0
  7  8  1  0  0  0
  8  9  1  0  0  0
 20 21  2  0  0  0
 21 22  1  0  0  0
 22 17  2  0  0  0
  9  4  1  0  0  0
 15 11  1  0  0  0
  1 10  1  0  0  0
M  END
> <minimizedAffinity>
-8.40277

$$$$
OCNT-2317832


 29 33  0  0  0  0  0  0  0  0999 V2000
   -2.4324   28.2973    7.5483 C   0  0  0  0  0  0  0  0  0  0  0  0
   -1.6768   27.8448    8.4049 O   0  0  0  0  0  0  0  0  0  0  0  0
   -2.6153   27.6574    6.3179 N   0  0  0  0  0  0  0  0  0  0  0  0
   -3.7861   27.8597    5.4559 C   0  0  0  0  0  0  0  0  0  0  0  0
   -4.3320   26.5302    4.9406 C   0  0  0  0  0  0  0  0  0  0  0  0
   -3.2788   25.7253    4.1472 C   0  0  0  0  0  0  0  0  0  0  0  0
   -1.8445   26.0983    4.5700 C   0  0  0  0  0  0  0  0  0  0  0  0
   -1.7752   26.4997    6.0365 C   0  0  0  0  0  0  0  0  0  0  0  0
   -1.7137   31.3544    6.5797 C   0  0  0  0  0  0  0  0  0  0  0  0
   -2.8343   30.7953    7.3648 C   0  0  0  0  0  0  0  0  0  0  0  0
   -3.1718   29.5217    7.7939 C   0  0  0  0  0  0  0  0  0  0  0  0
   -4.3498   29.6755    8.5880 C   0  0  0  0  0  0  0  0  0  0  0  0
   -5.1822   28.8185    9.3320 C   0  0  0  0  0  0  0  0  0  0  0  0
   -6.2971   29.3588    9.9897 C   0  0  0  0  0  0  0  0  0  0  0  0
   -6.5882   30.7229    9.9070 C   0  0  0  0  0  0  0  0  0  0  0  0
   -5.7762   31.5925    9.1698 C   0  0  0  0  0  0  0  0  0  0  0  0
   -4.6734   31.0251    8.5365 C   0  0  0  0  0  0  0  0  0  0  0  0
   -3.7565   31.7020    7.7963 O   0  0  0  0  0  0  0  0  0  0  0  0
   -3.4193   25.8894    2.6212 C   0  0  0  0  0  0  0  0  0  0  0  0
   -4.4992   25.0374    2.0436 C   0  0  0  0  0  0  0  0  0  0  0  0
   -4.8185   23.8177    2.4250 N   0  0  0  0  0  0  0  0  0  0  0  0
   -5.8482   23.4299    1.6023 C   0  0  0  0  0  0  0  0  0  0  0  0
   -6.5595   22.2218    1.5619 C   0  0  0  0  0  0  0  0  0  0  0  0
   -7.5702   22.0695    0.6024 C   0  0  0  0  0  0  0  0  0  0  0  0
   -7.8634   23.0977   -0.2990 C   0  0  0  0  0  0  0  0  0  0  0  0
   -7.1703   24.3137   -0.2661 C   0  0  0  0  0  0  0  0  0  0  0  0
   -6.1719   24.4399    0.7033 C   0  0  0  0  0  0  0  0  0  0  0  0
   -5.3135   25.4603    1.0217 N   0  0  0  0  0  0  0  0  0  0  0  0
   -5.2632   26.3555    0.5582 H   0  0  0  0  0  0  0  0  0  0  0  0
  9 10  1  0  0  0
 10 11  2  0  0  0
 11  1  1  0  0  0
  1  2  2  0  0  0
  1  3  1  0  0  0
  3  4  1  0  0  0
  4  5  1  0  0  0
  5  6  1  0  0  0
  6 19  1  0  0  0
 19 20  1  0  0  0
 20 21  2  0  0  0
 21 22  1  0  0  0
 22 23  2  0  0  0
 23 24  1  0  0  0
 24 25  2  0  0  0
 25 26  1  0  0  0
 26 27  2  0  0  0
 27 28  1  0  0  0
  6  7  1  0  0  0
  7  8  1  0  0  0
 11 12  1  0  0  0
 12 13  2  0  0  0
 13 14  1  0  0  0
 14 15  2  0  0  0
 15 16  1  0  0  0
 16 17  2  0  0  0
 17 18  1  0  0  0
 18 10  1  0  0  0
  8  3  1  0  0  0
 17 12  1  0  0  0
 28 20  1  0  0  0
 27 22  1  0  0  0
 28 29  1  0  0  0
M  END
> <minimizedAffinity>
-11.04220

$$$$
OCNT-2317840


 26 29  0  0  0  0  0  0  0  0999 V2000
   -5.4547   23.9575    5.2953 C   0  0  0  0  0  0  0  0  0  0  0  0
   -5.0523   25.2873    4.6550 C   0  0  0  0  0  0  0  0  0  0  0  0
   -3.9191   25.9831    5.4210 C   0  0  0  0  0  0  0  0  0  0  0  0
   -2.7396   25.7980    4.5701 N   0  0  0  0  0  0  0  0  0  0  0  0
   -3.2475   25.9462    3.2035 C   0  0  0  0  0  0  0  0  0  0  0  0
   -4.4980   25.0757    3.2265 C   0  0  0  0  0  0  0  0  0  0  0  0
   -5.4656   25.4873    2.1218 C   0  0  0  0  0  0  0  0  0  0  0  0
   -5.8412   26.6567    2.0144 O   0  0  0  0  0  0  0  0  0  0  0  0
   -5.9121   24.5072    1.2400 N   0  0  0  0  0  0  0  0  0  0  0  0
   -5.3383   23.1621    1.1052 C   0  0  0  0  0  0  0  0  0  0  0  0
   -6.3618   22.1545    0.5698 C   0  0  0  0  0  0  0  0  0  0  0  0
   -6.9691   22.6228   -0.6408 O   0  0  0  0  0  0  0  0  0  0  0  0
   -7.6619   23.8560   -0.3999 C   0  0  0  0  0  0  0  0  0  0  0  0
   -6.6978   24.9432    0.0796 C   0  0  0  0  0  0  0  0  0  0  0  0
   -1.6528   26.7445    4.8598 C   0  0  0  0  0  0  0  0  0  0  0  0
   -1.0203   26.5758    6.2548 C   0  0  0  0  0  0  0  0  0  0  0  0
   -0.9981   27.8476    7.0720 C   0  0  0  0  0  0  0  0  0  0  0  0
    0.2080   28.5153    7.3134 C   0  0  0  0  0  0  0  0  0  0  0  0
    0.2295   29.6891    8.0715 C   0  0  0  0  0  0  0  0  0  0  0  0
   -0.9536   30.2186    8.6105 C   0  0  0  0  0  0  0  0  0  0  0  0
   -0.9482   31.3950    9.3787 C   0  0  0  0  0  0  0  0  0  0  0  0
   -2.1333   31.9041    9.9126 C   0  0  0  0  0  0  0  0  0  0  0  0
   -3.3379   31.2451    9.6842 C   0  0  0  0  0  0  0  0  0  0  0  0
   -3.3598   30.0764    8.9205 C   0  0  0  0  0  0  0  0  0  0  0  0
   -2.1765   29.5507    8.3772 C   0  0  0  0  0  0  0  0  0  0  0  0
   -2.1824   28.3735    7.6095 C   0  0  0  0  0  0  0  0  0  0  0  0
  1  2  1  0  0  0
  2  3  1  0  0  0
  3  4  1  0  0  0
  4 15  1  0  0  0
 15 16  1  0  0  0
 16 17  1  0  0  0
 17 18  1  0  0  0
 18 19  2  0  0  0
 19 20  1  0  0  0
 20 21  2  0  0  0
 21 22  1  0  0  0
 22 23  2  0  0  0
 23 24  1  0  0  0
 24 25  2  0  0  0
 25 26  1  0  0  0
  4  5  1  0  0  0
  5  6  1  0  0  0
  6  7  1  0  0  0
  7  8  2  0  0  0
  7  9  1  0  0  0
  9 10  1  0  0  0
 10 11  1  0  0  0
 11 12  1  0  0  0
 12 13  1  0  0  0
 13 14  1  0  0  0
  6  2  1  0  0  0
 14  9  1  0  0  0
 26 17  2  0  0  0
 25 20  1  0  0  0
M  END
> <minimizedAffinity>
-10.24684

$$$$
OCNT-2317842


 23 25  0  0  0  0  0  0  0  0999 V2000
   -5.3945   29.7966    6.8696 C   0  0  0  0  0  0  0  0  0  0  0  0
   -6.4615   29.4280    7.9138 C   0  0  0  0  0  0  0  0  0  0  0  0
   -5.6843   29.1231    9.1865 C   0  0  0  0  0  0  0  0  0  0  0  0
   -4.3450   29.7985    8.9676 C   0  0  0  0  0  0  0  0  0  0  0  0
   -4.1065   29.5475    7.5465 N   0  0  0  0  0  0  0  0  0  0  0  0
   -5.8219   27.5075    3.2101 C   0  0  0  0  0  0  0  0  0  0  0  0
   -6.0828   28.8764    3.2111 C   0  0  0  0  0  0  0  0  0  0  0  0
   -5.9449   29.6167    4.3904 C   0  0  0  0  0  0  0  0  0  0  0  0
   -5.5492   29.0025    5.5890 C   0  0  0  0  0  0  0  0  0  0  0  0
   -5.2827   27.6276    5.5758 C   0  0  0  0  0  0  0  0  0  0  0  0
   -5.4197   26.8907    4.3963 C   0  0  0  0  0  0  0  0  0  0  0  0
   -5.9177   26.6688    2.1341 O   0  0  0  0  0  0  0  0  0  0  0  0
   -4.9323   24.7962    1.0401 C   0  0  0  0  0  0  0  0  0  0  0  0
   -5.5339   25.3098    2.3360 C   0  0  0  0  0  0  0  0  0  0  0  0
   -3.0140   30.3388    6.9827 C   0  0  0  0  0  0  0  0  0  0  0  0
   -1.7137   29.9782    7.6039 C   0  0  0  0  0  0  0  0  0  0  0  0
   -0.9685   30.6064    8.5862 C   0  0  0  0  0  0  0  0  0  0  0  0
   -1.2373   31.8673    9.3057 C   0  0  0  0  0  0  0  0  0  0  0  0
    0.1565   29.8712    8.8457 N   0  0  0  0  0  0  0  0  0  0  0  0
    0.1415   28.8037    8.0621 N   0  0  0  0  0  0  0  0  0  0  0  0
   -0.9726   28.8639    7.3114 N   0  0  0  0  0  0  0  0  0  0  0  0
   -1.2282   27.8165    6.3473 C   0  0  0  0  0  0  0  0  0  0  0  0
   -1.9691   26.6408    6.9587 C   0  0  0  0  0  0  0  0  0  0  0  0
 13 14  1  0  0  0
 14 12  1  0  0  0
 12  6  1  0  0  0
  6  7  1  0  0  0
  7  8  2  0  0  0
  8  9  1  0  0  0
  9  1  1  0  0  0
  1  2  1  0  0  0
  2  3  1  0  0  0
  3  4  1  0  0  0
  4  5  1  0  0  0
  5 15  1  0  0  0
 15 16  1  0  0  0
 16 17  2  0  0  0
 17 18  1  0  0  0
 17 19  1  0  0  0
 19 20  2  0  0  0
 20 21  1  0  0  0
 21 22  1  0  0  0
 22 23  1  0  0  0
  9 10  2  0  0  0
 10 11  1  0  0  0
 11  6  2  0  0  0
  5  1  1  0  0  0
 21 16  1  0  0  0
M  END
> <minimizedAffinity>
-8.14919

$$$$
OCNT-2317846


 24 25  0  0  0  0  0  0  0  0999 V2000
   -5.1614   30.2180    5.0497 N   0  0  0  0  0  0  0  0  0  0  0  0
   -4.5304   30.1058    6.2720 C   0  0  0  0  0  0  0  0  0  0  0  0
   -5.0151   29.4784    7.2033 O   0  0  0  0  0  0  0  0  0  0  0  0
   -3.3403   30.7998    6.2652 N   0  0  0  0  0  0  0  0  0  0  0  0
   -4.5457   30.2661    4.2517 H   0  0  0  0  0  0  0  0  0  0  0  0
   -3.2379   31.4406    5.4939 H   0  0  0  0  0  0  0  0  0  0  0  0
   -2.3682   30.8646    7.2908 C   0  0  0  0  0  0  0  0  0  0  0  0
   -1.2844   29.9885    7.3464 C   0  0  0  0  0  0  0  0  0  0  0  0
   -0.3680   30.1208    8.3765 C   0  0  0  0  0  0  0  0  0  0  0  0
   -0.4517   31.0573    9.3403 N   0  0  0  0  0  0  0  0  0  0  0  0
   -1.5030   31.8994    9.2685 C   0  0  0  0  0  0  0  0  0  0  0  0
   -2.4842   31.8584    8.2785 C   0  0  0  0  0  0  0  0  0  0  0  0
   -3.6023   32.8568    8.3160 C   0  0  0  0  0  0  0  0  0  0  0  0
   -6.4072   29.5161    4.8370 C   0  0  0  0  0  0  0  0  0  0  0  0
   -6.0914   25.7297    4.7456 C   0  0  0  0  0  0  0  0  0  0  0  0
   -6.3041   27.0260    5.2120 C   0  0  0  0  0  0  0  0  0  0  0  0
   -6.1505   28.1189    4.3494 C   0  0  0  0  0  0  0  0  0  0  0  0
   -5.7897   27.8695    3.0278 C   0  0  0  0  0  0  0  0  0  0  0  0
   -5.6032   26.5554    2.6395 C   0  0  0  0  0  0  0  0  0  0  0  0
   -5.7513   25.4955    3.4639 N   0  0  0  0  0  0  0  0  0  0  0  0
   -6.2876   24.6692    5.6477 N   0  0  0  0  0  0  0  0  0  0  0  0
   -5.8339   24.9132    6.5238 H   0  0  0  0  0  0  0  0  0  0  0  0
   -5.9145   22.3292    6.3102 C   0  0  0  0  0  0  0  0  0  0  0  0
   -5.8719   23.3483    5.1820 C   0  0  0  0  0  0  0  0  0  0  0  0
 23 24  1  0  0  0
 24 21  1  0  0  0
 21 15  1  0  0  0
 15 16  2  0  0  0
 16 17  1  0  0  0
 17 14  1  0  0  0
 14  1  1  0  0  0
  1  2  1  0  0  0
  2  3  2  0  0  0
  2  4  1  0  0  0
  4  7  1  0  0  0
  7  8  2  0  0  0
  8  9  1  0  0  0
  9 10  2  0  0  0
 10 11  1  0  0  0
 11 12  2  0  0  0
 12 13  1  0  0  0
 17 18  2  0  0  0
 18 19  1  0  0  0
 19 20  2  0  0  0
 20 15  1  0  0  0
 12  7  1  0  0  0
 21 22  1  0  0  0
  1  5  1  0  0  0
  4  6  1  0  0  0
M  END
> <minimizedAffinity>
-8.40324

$$$$
OCNT-2317874


 25 27  0  0  0  0  0  0  0  0999 V2000
   -4.5178   26.1260    4.6828 N   0  0  0  0  0  0  0  0  0  0  0  0
   -4.3088   25.8251    3.3486 C   0  0  0  0  0  0  0  0  0  0  0  0
   -3.3601   26.2198    2.6744 O   0  0  0  0  0  0  0  0  0  0  0  0
   -5.3902   25.7740    5.0837 H   0  0  0  0  0  0  0  0  0  0  0  0
   -5.4699   25.0089    2.7161 C   0  0  0  0  0  0  0  0  0  0  0  0
   -5.7497   25.4635    1.2713 C   0  0  0  0  0  0  0  0  0  0  0  0
   -6.1472   24.1861    0.5469 C   0  0  0  0  0  0  0  0  0  0  0  0
   -7.5304   23.9073    0.7634 O   0  0  0  0  0  0  0  0  0  0  0  0
   -5.2738   23.1256    1.2099 C   0  0  0  0  0  0  0  0  0  0  0  0
   -5.2095   23.5586    2.6032 N   0  0  0  0  0  0  0  0  0  0  0  0
   -5.2424   22.7211    3.6942 C   0  0  0  0  0  0  0  0  0  0  0  0
   -5.0230   21.2513    3.4497 C   0  0  0  0  0  0  0  0  0  0  0  0
   -5.4286   23.1567    4.8315 O   0  0  0  0  0  0  0  0  0  0  0  0
   -7.6639   23.7293    1.7114 H   0  0  0  0  0  0  0  0  0  0  0  0
   -1.6718   30.0623    8.4020 C   0  0  0  0  0  0  0  0  0  0  0  0
   -1.0997   28.9040    8.1563 N   0  0  0  0  0  0  0  0  0  0  0  0
   -1.8925   28.1583    7.3006 C   0  0  0  0  0  0  0  0  0  0  0  0
   -1.6023   26.8680    6.8210 C   0  0  0  0  0  0  0  0  0  0  0  0
   -2.5012   26.2315    5.9559 C   0  0  0  0  0  0  0  0  0  0  0  0
   -3.6878   26.8545    5.5575 C   0  0  0  0  0  0  0  0  0  0  0  0
   -3.9888   28.1381    6.0257 C   0  0  0  0  0  0  0  0  0  0  0  0
   -3.0784   28.7697    6.8954 C   0  0  0  0  0  0  0  0  0  0  0  0
   -3.1791   30.3274    7.6241 S   0  0  0  0  0  0  0  0  0  0  0  0
   -2.1666   31.8957   10.0185 C   0  0  0  0  0  0  0  0  0  0  0  0
   -1.0843   31.1109    9.2940 C   0  0  0  0  0  0  0  0  0  0  0  0
 24 25  1  0  0  0
 25 15  1  0  0  0
 15 16  2  0  0  0
 16 17  1  0  0  0
 17 18  2  0  0  0
 18 19  1  0  0  0
 19 20  2  0  0  0
 20  1  1  0  0  0
  1  2  1  0  0  0
  2  3  2  0  0  0
  2  5  1  0  0  0
  5  6  1  0  0  0
  6  7  1  0  0  0
  7  8  1  0  0  0
  7  9  1  0  0  0
  9 10  1  0  0  0
 10 11  1  0  0  0
 11 12  1  0  0  0
 11 13  2  0  0  0
 20 21  1  0  0  0
 21 22  2  0  0  0
 22 23  1  0  0  0
 23 15  1  0  0  0
 22 17  1  0  0  0
 10  5  1  0  0  0
  1  4  1  0  0  0
  8 14  1  0  0  0
M  END
> <minimizedAffinity>
-8.80289

$$$$
OCNT-2317890


 24 27  0  0  0  0  0  0  0  0999 V2000
   -3.5564   28.2764    6.1747 C   0  0  0  0  0  0  0  0  0  0  0  0
   -4.9280   26.3716    2.6685 C   0  0  0  0  0  0  0  0  0  0  0  0
   -5.9546   27.1635    3.5034 C   0  0  0  0  0  0  0  0  0  0  0  0
   -5.2621   28.1074    4.4804 C   0  0  0  0  0  0  0  0  0  0  0  0
   -4.4969   27.3743    5.5000 N   0  0  0  0  0  0  0  0  0  0  0  0
   -3.8701   26.1481    4.9806 C   0  0  0  0  0  0  0  0  0  0  0  0
   -3.6295   26.1587    3.4694 C   0  0  0  0  0  0  0  0  0  0  0  0
   -6.4600   24.4572    3.0079 O   0  0  0  0  0  0  0  0  0  0  0  0
   -5.5804   25.1270    2.0851 C   0  0  0  0  0  0  0  0  0  0  0  0
   -4.8842   24.2170    1.1083 C   0  0  0  0  0  0  0  0  0  0  0  0
   -6.0472   25.0571    0.6520 C   0  0  0  0  0  0  0  0  0  0  0  0
   -7.2929   24.9479    3.1148 H   0  0  0  0  0  0  0  0  0  0  0  0
   -4.2411   29.2595    7.0502 C   0  0  0  0  0  0  0  0  0  0  0  0
   -5.4089   29.1675    7.7772 C   0  0  0  0  0  0  0  0  0  0  0  0
   -5.6285   30.3278    8.4575 N   0  0  0  0  0  0  0  0  0  0  0  0
   -4.6303   31.1551    8.1859 N   0  0  0  0  0  0  0  0  0  0  0  0
   -3.7834   30.5195    7.3470 N   0  0  0  0  0  0  0  0  0  0  0  0
   -2.5990   31.2154    6.8699 C   0  0  0  0  0  0  0  0  0  0  0  0
   -1.3163   30.5369    7.2891 C   0  0  0  0  0  0  0  0  0  0  0  0
   -0.9707   30.4622    8.6467 C   0  0  0  0  0  0  0  0  0  0  0  0
    0.2040   29.8233    9.0465 C   0  0  0  0  0  0  0  0  0  0  0  0
    1.0414   29.2434    8.0959 C   0  0  0  0  0  0  0  0  0  0  0  0
    0.7030   29.2974    6.7455 C   0  0  0  0  0  0  0  0  0  0  0  0
   -0.4712   29.9355    6.3434 C   0  0  0  0  0  0  0  0  0  0  0  0
  8  9  1  0  0  0
  9  2  1  0  0  0
  2  3  1  0  0  0
  3  4  1  0  0  0
  4  5  1  0  0  0
  5  1  1  0  0  0
  1 13  1  0  0  0
 13 14  2  0  0  0
 14 15  1  0  0  0
 15 16  2  0  0  0
 16 17  1  0  0  0
 17 18  1  0  0  0
 18 19  1  0  0  0
 19 20  2  0  0  0
 20 21  1  0  0  0
 21 22  2  0  0  0
 22 23  1  0  0  0
 23 24  2  0  0  0
  5  6  1  0  0  0
  6  7  1  0  0  0
  9 10  1  0  0  0
 10 11  1  0  0  0
 11  9  1  0  0  0
  7  2  1  0  0  0
 17 13  1  0  0  0
 24 19  1  0  0  0
  8 12  1  0  0  0
M  END
> <minimizedAffinity>
-8.73358

$$$$
OCNT-2317895


 28 30  0  0  0  0  0  0  0  0999 V2000
   -2.4805   25.7010    3.7295 C   0  0  0  0  0  0  0  0  0  0  0  0
   -3.3656   26.5421    4.5147 N   0  0  0  0  0  0  0  0  0  0  0  0
   -2.8620   27.1545    5.6521 C   0  0  0  0  0  0  0  0  0  0  0  0
   -1.6715   27.1273    5.9528 O   0  0  0  0  0  0  0  0  0  0  0  0
   -3.7959   27.8143    6.4091 N   0  0  0  0  0  0  0  0  0  0  0  0
   -4.7069   27.3580    6.4173 H   0  0  0  0  0  0  0  0  0  0  0  0
   -4.6766   26.8435    3.9462 C   0  0  0  0  0  0  0  0  0  0  0  0
   -5.5119   25.5995    3.8917 C   0  0  0  0  0  0  0  0  0  0  0  0
   -5.9917   24.9678    4.9526 N   0  0  0  0  0  0  0  0  0  0  0  0
   -6.6746   23.8829    4.4724 C   0  0  0  0  0  0  0  0  0  0  0  0
   -6.6408   23.8608    3.1010 C   0  0  0  0  0  0  0  0  0  0  0  0
   -5.9064   24.9610    2.7378 N   0  0  0  0  0  0  0  0  0  0  0  0
   -5.6649   25.4004    1.3758 C   0  0  0  0  0  0  0  0  0  0  0  0
   -4.4168   25.0710    0.9577 F   0  0  0  0  0  0  0  0  0  0  0  0
   -6.5315   24.8277    0.5003 F   0  0  0  0  0  0  0  0  0  0  0  0
   -3.4336   28.4918    7.6442 C   0  0  0  0  0  0  0  0  0  0  0  0
   -4.5002   29.5196    8.1678 C   0  0  0  0  0  0  0  0  0  0  0  0
   -5.7086   29.6165    7.1918 C   0  0  0  0  0  0  0  0  0  0  0  0
   -6.7837   30.6174    7.6351 C   0  0  0  0  0  0  0  0  0  0  0  0
   -6.8244   30.8716    9.1405 C   0  0  0  0  0  0  0  0  0  0  0  0
   -6.4043   29.6638    9.9660 C   0  0  0  0  0  0  0  0  0  0  0  0
   -5.1119   28.9756    9.5004 C   0  0  0  0  0  0  0  0  0  0  0  0
   -3.9001   30.8772    8.3499 N   0  0  0  0  0  0  0  0  0  0  0  0
   -3.3603   31.5227    7.1337 C   0  0  0  0  0  0  0  0  0  0  0  0
   -1.8326   31.7073    7.1593 C   0  0  0  0  0  0  0  0  0  0  0  0
   -1.3654   32.4730    8.2762 O   0  0  0  0  0  0  0  0  0  0  0  0
   -2.2248   32.3794    9.4178 C   0  0  0  0  0  0  0  0  0  0  0  0
   -2.9832   31.0438    9.4915 C   0  0  0  0  0  0  0  0  0  0  0  0
  1  2  1  0  0  0
  2  7  1  0  0  0
  7  8  1  0  0  0
  8  9  2  0  0  0
  9 10  1  0  0  0
 10 11  2  0  0  0
 11 12  1  0  0  0
 12 13  1  0  0  0
 13 14  1  0  0  0
 13 15  1  0  0  0
  2  3  1  0  0  0
  3  4  2  0  0  0
  3  5  1  0  0  0
  5 16  1  0  0  0
 16 17  1  0  0  0
 17 23  1  0  0  0
 23 24  1  0  0  0
 24 25  1  0  0  0
 25 26  1  0  0  0
 26 27  1  0  0  0
 27 28  1  0  0  0
 17 18  1  0  0  0
 18 19  1  0  0  0
 19 20  1  0  0  0
 20 21  1  0  0  0
 21 22  1  0  0  0
 12  8  1  0  0  0
 22 17  1  0  0  0
 28 23  1  0  0  0
  5  6  1  0  0  0
M  END
> <minimizedAffinity>
-8.24743

$$$$
OCNT-2317896


 24 26  0  0  0  0  0  0  0  0999 V2000
   -4.4797   28.4889    6.9134 C   0  0  0  0  0  0  0  0  0  0  0  0
   -5.4281   29.1583    7.3113 O   0  0  0  0  0  0  0  0  0  0  0  0
   -4.6251   27.5746    5.8925 N   0  0  0  0  0  0  0  0  0  0  0  0
   -3.7927   27.2404    5.4309 H   0  0  0  0  0  0  0  0  0  0  0  0
   -5.8837   27.4709    5.1861 C   0  0  0  0  0  0  0  0  0  0  0  0
   -5.9385   28.3344    3.9128 C   0  0  0  0  0  0  0  0  0  0  0  0
   -5.5267   27.5187    2.7845 O   0  0  0  0  0  0  0  0  0  0  0  0
   -5.7879   26.2295    3.1895 C   0  0  0  0  0  0  0  0  0  0  0  0
   -5.7970   25.1141    2.3634 C   0  0  0  0  0  0  0  0  0  0  0  0
   -5.4869   25.2945    0.6753 Cl  0  0  0  0  0  0  0  0  0  0  0  0
   -6.0677   23.8710    2.9524 C   0  0  0  0  0  0  0  0  0  0  0  0
   -6.1142   22.4048    2.0340 Cl  0  0  0  0  0  0  0  0  0  0  0  0
   -6.3116   23.7724    4.3370 C   0  0  0  0  0  0  0  0  0  0  0  0
   -6.2846   24.9081    5.1509 C   0  0  0  0  0  0  0  0  0  0  0  0
   -6.0232   26.1315    4.5568 C   0  0  0  0  0  0  0  0  0  0  0  0
   -2.6132   29.6745    8.1949 C   0  0  0  0  0  0  0  0  0  0  0  0
   -3.1164   28.6063    7.4466 C   0  0  0  0  0  0  0  0  0  0  0  0
   -2.0393   27.6683    7.3280 C   0  0  0  0  0  0  0  0  0  0  0  0
   -0.9373   28.1928    7.9595 C   0  0  0  0  0  0  0  0  0  0  0  0
   -1.2879   29.4115    8.4661 N   0  0  0  0  0  0  0  0  0  0  0  0
   -0.6689   30.0230    8.9841 H   0  0  0  0  0  0  0  0  0  0  0  0
   -2.5768   31.5315    9.9054 C   0  0  0  0  0  0  0  0  0  0  0  0
   -3.2636   30.9558    8.6644 C   0  0  0  0  0  0  0  0  0  0  0  0
   -3.2961   31.9878    7.5363 C   0  0  0  0  0  0  0  0  0  0  0  0
 22 23  1  0  0  0
 23 24  1  0  0  0
 23 16  1  0  0  0
 16 17  2  0  0  0
 17  1  1  0  0  0
  1  2  2  0  0  0
  1  3  1  0  0  0
  3  5  1  0  0  0
  5  6  1  0  0  0
  6  7  1  0  0  0
  7  8  1  0  0  0
  8  9  1  0  0  0
  9 10  1  0  0  0
  9 11  2  0  0  0
 11 12  1  0  0  0
 11 13  1  0  0  0
 13 14  2  0  0  0
 14 15  1  0  0  0
 17 18  1  0  0  0
 18 19  2  0  0  0
 19 20  1  0  0  0
 20 16  1  0  0  0
 15  5  1  0  0  0
 15  8  2  0  0  0
  3  4  1  0  0  0
 20 21  1  0  0  0
M  END
> <minimizedAffinity>
-8.42350

$$$$
OCNT-2317901


 30 34  0  0  0  0  0  0  0  0999 V2000
   -4.3010   26.1994    5.2805 O   0  0  0  0  0  0  0  0  0  0  0  0
   -4.3760   27.0758    4.4312 C   0  0  0  0  0  0  0  0  0  0  0  0
   -3.8630   26.9776    3.1650 N   0  0  0  0  0  0  0  0  0  0  0  0
   -4.9921   28.2813    4.6177 N   0  0  0  0  0  0  0  0  0  0  0  0
   -4.3237   27.5555    2.4786 H   0  0  0  0  0  0  0  0  0  0  0  0
   -4.5664   29.0578    4.1251 H   0  0  0  0  0  0  0  0  0  0  0  0
   -5.4995   28.6585    5.9255 C   0  0  0  0  0  0  0  0  0  0  0  0
   -6.8318   29.4403    5.8357 C   0  0  0  0  0  0  0  0  0  0  0  0
   -7.1853   30.1224    7.1720 C   0  0  0  0  0  0  0  0  0  0  0  0
   -6.1296   31.1587    7.5997 C   0  0  0  0  0  0  0  0  0  0  0  0
   -4.7532   30.6415    7.3890 C   0  0  0  0  0  0  0  0  0  0  0  0
   -3.5303   31.0998    7.8143 C   0  0  0  0  0  0  0  0  0  0  0  0
   -2.5973   30.2467    7.2877 N   0  0  0  0  0  0  0  0  0  0  0  0
   -3.1388   29.2713    6.5237 N   0  0  0  0  0  0  0  0  0  0  0  0
   -4.4557   29.5047    6.6036 C   0  0  0  0  0  0  0  0  0  0  0  0
   -1.1603   30.3004    7.4468 C   0  0  0  0  0  0  0  0  0  0  0  0
   -0.6899   30.2246    8.9039 C   0  0  0  0  0  0  0  0  0  0  0  0
    0.6708   29.5230    8.8699 C   0  0  0  0  0  0  0  0  0  0  0  0
    0.9781   29.2616    7.3987 C   0  0  0  0  0  0  0  0  0  0  0  0
   -0.3895   29.1853    6.7388 C   0  0  0  0  0  0  0  0  0  0  0  0
   -3.2783   25.7455    2.6893 C   0  0  0  0  0  0  0  0  0  0  0  0
   -4.3377   24.8108    2.1554 C   0  0  0  0  0  0  0  0  0  0  0  0
   -4.4278   23.4923    2.6346 C   0  0  0  0  0  0  0  0  0  0  0  0
   -5.3828   22.5962    2.1395 C   0  0  0  0  0  0  0  0  0  0  0  0
   -6.2320   23.0778    1.1468 C   0  0  0  0  0  0  0  0  0  0  0  0
   -7.2220   22.3669    0.5364 O   0  0  0  0  0  0  0  0  0  0  0  0
   -7.8093   23.1994   -0.3633 C   0  0  0  0  0  0  0  0  0  0  0  0
   -7.2074   24.4367   -0.3454 C   0  0  0  0  0  0  0  0  0  0  0  0
   -6.1806   24.3682    0.6337 C   0  0  0  0  0  0  0  0  0  0  0  0
   -5.2129   25.2534    1.1404 C   0  0  0  0  0  0  0  0  0  0  0  0
  1  2  2  0  0  0
  2  3  1  0  0  0
  3 21  1  0  0  0
 21 22  1  0  0  0
 22 23  2  0  0  0
 23 24  1  0  0  0
 24 25  2  0  0  0
 25 26  1  0  0  0
 26 27  1  0  0  0
 27 28  2  0  0  0
 28 29  1  0  0  0
 29 30  2  0  0  0
  2  4  1  0  0  0
  4  7  1  0  0  0
  7  8  1  0  0  0
  8  9  1  0  0  0
  9 10  1  0  0  0
 10 11  1  0  0  0
 11 12  2  0  0  0
 12 13  1  0  0  0
 13 16  1  0  0  0
 16 17  1  0  0  0
 17 18  1  0  0  0
 18 19  1  0  0  0
 19 20  1  0  0  0
 13 14  1  0  0  0
 14 15  2  0  0  0
 30 22  1  0  0  0
 15  7  1  0  0  0
 29 25  1  0  0  0
 15 11  1  0  0  0
 20 16  1  0  0  0
  3  5  1  0  0  0
  4  6  1  0  0  0
M  END
> <minimizedAffinity>
-11.26095

$$$$
OCNT-2317904


 26 29  0  0  0  0  0  0  0  0999 V2000
   -5.6639   30.1125    8.4857 O   0  0  0  0  0  0  0  0  0  0  0  0
   -4.8013   29.5340    7.8351 C   0  0  0  0  0  0  0  0  0  0  0  0
   -5.0741   28.7180    6.7682 N   0  0  0  0  0  0  0  0  0  0  0  0
   -4.3315   28.2658    6.2492 H   0  0  0  0  0  0  0  0  0  0  0  0
   -3.3565   29.6545    8.1974 C   0  0  0  0  0  0  0  0  0  0  0  0
   -2.4182   28.8485    7.6631 C   0  0  0  0  0  0  0  0  0  0  0  0
   -1.0824   29.0283    8.0111 N   0  0  0  0  0  0  0  0  0  0  0  0
    0.0083   28.3372    7.6106 N   0  0  0  0  0  0  0  0  0  0  0  0
    1.0438   28.8896    8.2290 N   0  0  0  0  0  0  0  0  0  0  0  0
    0.6519   29.9351    9.0261 N   0  0  0  0  0  0  0  0  0  0  0  0
   -0.6515   30.0217    8.8908 C   0  0  0  0  0  0  0  0  0  0  0  0
   -1.6306   30.8923    9.4373 C   0  0  0  0  0  0  0  0  0  0  0  0
   -2.9246   30.7223    9.1026 C   0  0  0  0  0  0  0  0  0  0  0  0
   -6.4297   28.5671    6.2400 C   0  0  0  0  0  0  0  0  0  0  0  0
   -6.6148   29.4019    4.9766 C   0  0  0  0  0  0  0  0  0  0  0  0
   -5.9696   28.5486    3.8811 C   0  0  0  0  0  0  0  0  0  0  0  0
   -6.0552   27.1701    4.3797 N   0  0  0  0  0  0  0  0  0  0  0  0
   -6.6753   27.1438    5.7100 C   0  0  0  0  0  0  0  0  0  0  0  0
   -5.9408   26.0669    3.5639 C   0  0  0  0  0  0  0  0  0  0  0  0
   -6.1266   24.7628    4.0585 C   0  0  0  0  0  0  0  0  0  0  0  0
   -6.0279   23.6300    3.2377 C   0  0  0  0  0  0  0  0  0  0  0  0
   -5.7444   23.7804    1.8865 C   0  0  0  0  0  0  0  0  0  0  0  0
   -5.6235   22.3916    0.8796 Cl  0  0  0  0  0  0  0  0  0  0  0  0
   -5.5674   25.0564    1.3703 C   0  0  0  0  0  0  0  0  0  0  0  0
   -5.2969   25.2372    0.0684 F   0  0  0  0  0  0  0  0  0  0  0  0
   -5.6675   26.1811    2.1926 C   0  0  0  0  0  0  0  0  0  0  0  0
  1  2  2  0  0  0
  2  3  1  0  0  0
  3 14  1  0  0  0
 14 15  1  0  0  0
 15 16  1  0  0  0
 16 17  1  0  0  0
 17 19  1  0  0  0
 19 20  1  0  0  0
 20 21  2  0  0  0
 21 22  1  0  0  0
 22 23  1  0  0  0
 22 24  2  0  0  0
 24 25  1  0  0  0
 24 26  1  0  0  0
 17 18  1  0  0  0
  2  5  1  0  0  0
  5  6  2  0  0  0
  6  7  1  0  0  0
  7  8  1  0  0  0
  8  9  2  0  0  0
  9 10  1  0  0  0
 10 11  2  0  0  0
 11 12  1  0  0  0
 12 13  2  0  0  0
 18 14  1  0  0  0
 13  5  1  0  0  0
 26 19  2  0  0  0
 11  7  1  0  0  0
  3  4  1  0  0  0
M  END
> <minimizedAffinity>
-9.55716

$$$$
OCNT-2317909


 24 26  0  0  0  0  0  0  0  0999 V2000
   -3.7566   28.3258    8.1360 N   0  0  0  0  0  0  0  0  0  0  0  0
   -3.6877   28.0874    9.1376 H   0  0  0  0  0  0  0  0  0  0  0  0
   -1.0799   25.9808    4.6350 C   0  0  0  0  0  0  0  0  0  0  0  0
   -1.1639   26.9542    5.7850 C   0  0  0  0  0  0  0  0  0  0  0  0
   -0.0749   27.5673    6.1409 N   0  0  0  0  0  0  0  0  0  0  0  0
   -0.1844   28.4447    7.1793 C   0  0  0  0  0  0  0  0  0  0  0  0
    0.7453   29.1883    7.7397 N   0  0  0  0  0  0  0  0  0  0  0  0
    0.0721   29.8614    8.7112 C   0  0  0  0  0  0  0  0  0  0  0  0
   -1.2307   29.6005    8.8107 N   0  0  0  0  0  0  0  0  0  0  0  0
   -1.4050   28.6784    7.8230 N   0  0  0  0  0  0  0  0  0  0  0  0
   -2.5963   28.0222    7.4278 C   0  0  0  0  0  0  0  0  0  0  0  0
   -2.5116   27.1488    6.4082 C   0  0  0  0  0  0  0  0  0  0  0  0
   -4.7153   29.4155    7.8791 C   0  0  0  0  0  0  0  0  0  0  0  0
   -4.9835   30.2403    9.1446 C   0  0  0  0  0  0  0  0  0  0  0  0
   -6.0654   30.6884    9.4943 O   0  0  0  0  0  0  0  0  0  0  0  0
   -3.8777   30.4702    9.8898 O   0  0  0  0  0  0  0  0  0  0  0  0
   -4.2022   30.9768   10.6633 H   0  0  0  0  0  0  0  0  0  0  0  0
   -6.0356   28.8810    7.3012 C   0  0  0  0  0  0  0  0  0  0  0  0
   -6.0112   28.5581    5.8225 C   0  0  0  0  0  0  0  0  0  0  0  0
   -5.9683   27.2292    5.3811 C   0  0  0  0  0  0  0  0  0  0  0  0
   -5.9555   26.9353    4.0165 C   0  0  0  0  0  0  0  0  0  0  0  0
   -5.9862   27.9662    3.0799 C   0  0  0  0  0  0  0  0  0  0  0  0
   -6.0298   29.2917    3.5065 C   0  0  0  0  0  0  0  0  0  0  0  0
   -6.0417   29.5874    4.8707 C   0  0  0  0  0  0  0  0  0  0  0  0
  3  4  1  0  0  0
  4  5  2  0  0  0
  5  6  1  0  0  0
  6  7  2  0  0  0
  7  8  1  0  0  0
  8  9  2  0  0  0
  9 10  1  0  0  0
 10 11  1  0  0  0
 11  1  1  0  0  0
  1 13  1  0  0  0
 13 18  1  0  0  0
 18 19  1  0  0  0
 19 20  2  0  0  0
 20 21  1  0  0  0
 21 22  2  0  0  0
 22 23  1  0  0  0
 23 24  2  0  0  0
 13 14  1  0  0  0
 14 15  2  0  0  0
 14 16  1  0  0  0
 11 12  2  0  0  0
 12  4  1  0  0  0
 10  6  1  0  0  0
 24 19  1  0  0  0
  1  2  1  0  0  0
 16 17  1  0  0  0
M  END
> <minimizedAffinity>
-8.67645

$$$$
OCNT-2317923


 24 26  0  0  0  0  0  0  0  0999 V2000
   -5.9219   28.6868    7.1101 C   0  0  0  0  0  0  0  0  0  0  0  0
   -5.9454   28.4993    5.6151 C   0  0  0  0  0  0  0  0  0  0  0  0
   -6.1071   29.6027    4.7687 C   0  0  0  0  0  0  0  0  0  0  0  0
   -6.1105   29.4352    3.3860 C   0  0  0  0  0  0  0  0  0  0  0  0
   -5.9462   28.1629    2.8349 C   0  0  0  0  0  0  0  0  0  0  0  0
   -5.7702   27.0365    3.6543 C   0  0  0  0  0  0  0  0  0  0  0  0
   -5.7699   27.2259    5.0482 C   0  0  0  0  0  0  0  0  0  0  0  0
   -5.5912   25.6990    3.0725 C   0  0  0  0  0  0  0  0  0  0  0  0
   -5.7624   25.4584    1.7034 C   0  0  0  0  0  0  0  0  0  0  0  0
   -5.5895   24.1751    1.1868 C   0  0  0  0  0  0  0  0  0  0  0  0
   -5.2473   23.1564    2.0589 C   0  0  0  0  0  0  0  0  0  0  0  0
   -5.0696   23.3351    3.3838 N   0  0  0  0  0  0  0  0  0  0  0  0
   -5.2421   24.5954    3.8530 C   0  0  0  0  0  0  0  0  0  0  0  0
   -3.9762   30.0689    7.7340 C   0  0  0  0  0  0  0  0  0  0  0  0
   -4.6044   31.1103    7.5666 O   0  0  0  0  0  0  0  0  0  0  0  0
   -4.5663   28.8339    7.5858 N   0  0  0  0  0  0  0  0  0  0  0  0
   -3.9813   28.0138    7.5708 H   0  0  0  0  0  0  0  0  0  0  0  0
    1.0101   29.1768    8.1992 C   0  0  0  0  0  0  0  0  0  0  0  0
   -0.3798   29.6753    8.3253 C   0  0  0  0  0  0  0  0  0  0  0  0
   -0.6766   30.6201    9.2195 N   0  0  0  0  0  0  0  0  0  0  0  0
   -2.0014   30.8196    9.0660 N   0  0  0  0  0  0  0  0  0  0  0  0
   -2.6565   31.8001    9.9030 C   0  0  0  0  0  0  0  0  0  0  0  0
   -2.5733   30.0372    8.0878 C   0  0  0  0  0  0  0  0  0  0  0  0
   -1.5221   29.2777    7.5978 C   0  0  0  0  0  0  0  0  0  0  0  0
 18 19  1  0  0  0
 19 20  2  0  0  0
 20 21  1  0  0  0
 21 22  1  0  0  0
 21 23  1  0  0  0
 23 14  1  0  0  0
 14 15  2  0  0  0
 14 16  1  0  0  0
 16  1  1  0  0  0
  1  2  1  0  0  0
  2  3  2  0  0  0
  3  4  1  0  0  0
  4  5  2  0  0  0
  5  6  1  0  0  0
  6  8  1  0  0  0
  8  9  1  0  0  0
  9 10  2  0  0  0
 10 11  1  0  0  0
 11 12  2  0  0  0
 12 13  1  0  0  0
  6  7  2  0  0  0
 23 24  2  0  0  0
 24 19  1  0  0  0
  7  2  1  0  0  0
 13  8  2  0  0  0
 16 17  1  0  0  0
M  END
> <minimizedAffinity>
-9.44574

$$$$
OCNT-2317940


 25 28  0  0  0  0  0  0  0  0999 V2000
   -5.5703   28.6711    5.3903 C   0  0  0  0  0  0  0  0  0  0  0  0
   -1.3449   29.7785    8.6586 N   0  0  0  0  0  0  0  0  0  0  0  0
   -1.7107   30.8789    9.3641 N   0  0  0  0  0  0  0  0  0  0  0  0
   -2.9384   31.1556    8.9041 C   0  0  0  0  0  0  0  0  0  0  0  0
   -3.3469   30.2465    7.9223 C   0  0  0  0  0  0  0  0  0  0  0  0
   -2.3062   29.3651    7.7772 C   0  0  0  0  0  0  0  0  0  0  0  0
   -2.2339   28.3073    6.9355 N   0  0  0  0  0  0  0  0  0  0  0  0
   -3.3079   28.1669    6.2168 C   0  0  0  0  0  0  0  0  0  0  0  0
   -4.4418   28.9792    6.2601 N   0  0  0  0  0  0  0  0  0  0  0  0
   -4.5263   30.0821    7.1219 C   0  0  0  0  0  0  0  0  0  0  0  0
   -5.4888   30.8375    7.2018 O   0  0  0  0  0  0  0  0  0  0  0  0
    0.8733   29.3309    7.6901 C   0  0  0  0  0  0  0  0  0  0  0  0
   -0.0491   29.1720    8.8852 C   0  0  0  0  0  0  0  0  0  0  0  0
   -5.3902   27.3416    4.6301 C   0  0  0  0  0  0  0  0  0  0  0  0
   -5.8776   27.4739    3.1830 C   0  0  0  0  0  0  0  0  0  0  0  0
   -5.5730   26.2203    2.3546 C   0  0  0  0  0  0  0  0  0  0  0  0
   -5.5101   24.9288    3.1938 C   0  0  0  0  0  0  0  0  0  0  0  0
   -6.4605   25.0092    4.3953 C   0  0  0  0  0  0  0  0  0  0  0  0
   -6.1058   26.1707    5.3320 C   0  0  0  0  0  0  0  0  0  0  0  0
   -5.7414   23.6975    2.3364 C   0  0  0  0  0  0  0  0  0  0  0  0
   -6.2437   23.7921    1.0295 C   0  0  0  0  0  0  0  0  0  0  0  0
   -6.4426   22.6460    0.2567 C   0  0  0  0  0  0  0  0  0  0  0  0
   -6.1397   21.3907    0.7780 C   0  0  0  0  0  0  0  0  0  0  0  0
   -5.6358   21.2805    2.0716 C   0  0  0  0  0  0  0  0  0  0  0  0
   -5.4364   22.4258    2.8453 C   0  0  0  0  0  0  0  0  0  0  0  0
 12 13  1  0  0  0
 13  2  1  0  0  0
  2  3  1  0  0  0
  3  4  2  0  0  0
  4  5  1  0  0  0
  5  6  2  0  0  0
  6  7  1  0  0  0
  7  8  2  0  0  0
  8  9  1  0  0  0
  9  1  1  0  0  0
  1 14  1  0  0  0
 14 15  1  0  0  0
 15 16  1  0  0  0
 16 17  1  0  0  0
 17 20  1  0  0  0
 20 21  2  0  0  0
 21 22  1  0  0  0
 22 23  2  0  0  0
 23 24  1  0  0  0
 24 25  2  0  0  0
 17 18  1  0  0  0
 18 19  1  0  0  0
  9 10  1  0  0  0
 10 11  2  0  0  0
  6  2  1  0  0  0
 19 14  1  0  0  0
 10  5  1  0  0  0
 25 20  1  0  0  0
M  END
> <minimizedAffinity>
-9.61640

$$$$
OCNT-2317957


 24 26  0  0  0  0  0  0  0  0999 V2000
   -5.8040   25.2028    2.8383 N   0  0  0  0  0  0  0  0  0  0  0  0
   -6.0956   24.7350    4.1952 C   0  0  0  0  0  0  0  0  0  0  0  0
   -4.9045   24.9812    5.1116 C   0  0  0  0  0  0  0  0  0  0  0  0
   -4.4512   26.4519    5.1417 C   0  0  0  0  0  0  0  0  0  0  0  0
   -5.0797   27.2615    3.9890 C   0  0  0  0  0  0  0  0  0  0  0  0
   -5.0996   26.4840    2.6769 C   0  0  0  0  0  0  0  0  0  0  0  0
   -2.9244   26.5242    5.0932 C   0  0  0  0  0  0  0  0  0  0  0  0
   -2.3093   25.8235    4.2787 O   0  0  0  0  0  0  0  0  0  0  0  0
   -2.2207   27.2996    5.9932 N   0  0  0  0  0  0  0  0  0  0  0  0
   -0.7505   27.1867    6.0080 C   0  0  0  0  0  0  0  0  0  0  0  0
   -0.2442   27.9240    7.2443 C   0  0  0  0  0  0  0  0  0  0  0  0
   -1.4547   28.7122    7.6296 C   0  0  0  0  0  0  0  0  0  0  0  0
   -1.5095   29.7007    8.6055 C   0  0  0  0  0  0  0  0  0  0  0  0
   -2.7324   30.3181    8.8432 C   0  0  0  0  0  0  0  0  0  0  0  0
   -2.8498   31.5508   10.0367 Cl  0  0  0  0  0  0  0  0  0  0  0  0
   -3.8678   29.9471    8.1156 C   0  0  0  0  0  0  0  0  0  0  0  0
   -3.7968   28.9419    7.1384 C   0  0  0  0  0  0  0  0  0  0  0  0
   -2.5863   28.3115    6.9041 C   0  0  0  0  0  0  0  0  0  0  0  0
   -5.9222   24.1627    1.5403 S   0  0  0  0  0  0  0  0  0  0  0  0
   -4.6957   23.4054    1.4675 O   0  0  0  0  0  0  0  0  0  0  0  0
   -7.2187   23.5328    1.5483 O   0  0  0  0  0  0  0  0  0  0  0  0
   -6.9331   25.2943   -0.7030 C   0  0  0  0  0  0  0  0  0  0  0  0
   -5.8606   25.2446    0.2779 N   0  0  0  0  0  0  0  0  0  0  0  0
   -5.3937   26.1136    0.5181 H   0  0  0  0  0  0  0  0  0  0  0  0
 22 23  1  0  0  0
 23 19  1  0  0  0
 19 20  2  0  0  0
 19 21  2  0  0  0
 19  1  1  0  0  0
  1  2  1  0  0  0
  2  3  1  0  0  0
  3  4  1  0  0  0
  4  7  1  0  0  0
  7  8  2  0  0  0
  7  9  1  0  0  0
  9 10  1  0  0  0
 10 11  1  0  0  0
 11 12  1  0  0  0
 12 13  1  0  0  0
 13 14  2  0  0  0
 14 15  1  0  0  0
 14 16  1  0  0  0
 16 17  2  0  0  0
 17 18  1  0  0  0
  4  5  1  0  0  0
  5  6  1  0  0  0
  6  1  1  0  0  0
 18  9  1  0  0  0
 18 12  2  0  0  0
 23 24  1  0  0  0
M  END
> <minimizedAffinity>
-8.39717

$$$$
OCNT-2317970


 25 26  0  0  0  0  0  0  0  0999 V2000
   -2.1103   27.7546    6.2819 C   0  0  0  0  0  0  0  0  0  0  0  0
   -3.2545   28.5446    6.9469 C   0  0  0  0  0  0  0  0  0  0  0  0
   -2.8827   29.9299    7.2528 N   0  0  0  0  0  0  0  0  0  0  0  0
   -3.7716   30.9118    7.6725 C   0  0  0  0  0  0  0  0  0  0  0  0
   -3.4547   32.1057    7.6206 O   0  0  0  0  0  0  0  0  0  0  0  0
   -1.5505   30.3236    6.7998 C   0  0  0  0  0  0  0  0  0  0  0  0
   -0.4785   29.2770    7.2064 C   0  0  0  0  0  0  0  0  0  0  0  0
    0.7719   29.4506    6.3398 C   0  0  0  0  0  0  0  0  0  0  0  0
   -0.1069   29.4489    8.6838 C   0  0  0  0  0  0  0  0  0  0  0  0
   -0.9118   27.9059    7.0642 O   0  0  0  0  0  0  0  0  0  0  0  0
   -5.1298   30.4885    8.3350 C   0  0  0  0  0  0  0  0  0  0  0  0
   -4.9345   29.1439    9.0577 C   0  0  0  0  0  0  0  0  0  0  0  0
   -5.5855   31.4154    9.3267 O   0  0  0  0  0  0  0  0  0  0  0  0
   -6.2741   30.9766    9.8556 H   0  0  0  0  0  0  0  0  0  0  0  0
   -6.2382   30.3830    7.2647 C   0  0  0  0  0  0  0  0  0  0  0  0
   -6.7706   28.9666    7.0187 C   0  0  0  0  0  0  0  0  0  0  0  0
   -6.4506   28.5014    5.6178 C   0  0  0  0  0  0  0  0  0  0  0  0
   -6.3295   29.4259    4.5719 C   0  0  0  0  0  0  0  0  0  0  0  0
   -6.0146   28.9963    3.2818 C   0  0  0  0  0  0  0  0  0  0  0  0
   -5.8139   27.6410    3.0265 C   0  0  0  0  0  0  0  0  0  0  0  0
   -5.9268   26.7140    4.0609 C   0  0  0  0  0  0  0  0  0  0  0  0
   -6.2419   27.1416    5.3515 C   0  0  0  0  0  0  0  0  0  0  0  0
   -2.4759   26.2636    6.1998 C   0  0  0  0  0  0  0  0  0  0  0  0
   -1.2743   25.9322    4.1623 C   0  0  0  0  0  0  0  0  0  0  0  0
   -2.5040   25.7650    4.8558 O   0  0  0  0  0  0  0  0  0  0  0  0
 24 25  1  0  0  0
 25 23  1  0  0  0
 23  1  1  0  0  0
  1  2  1  0  0  0
  2  3  1  0  0  0
  3  4  1  0  0  0
  4  5  2  0  0  0
  4 11  1  0  0  0
 11 12  1  0  0  0
 11 13  1  0  0  0
 11 15  1  0  0  0
 15 16  1  0  0  0
 16 17  1  0  0  0
 17 18  2  0  0  0
 18 19  1  0  0  0
 19 20  2  0  0  0
 20 21  1  0  0  0
 21 22  2  0  0  0
  3  6  1  0  0  0
  6  7  1  0  0  0
  7  8  1  0  0  0
  7  9  1  0  0  0
  7 10  1  0  0  0
 10  1  1  0  0  0
 22 17  1  0  0  0
 13 14  1  0  0  0
M  END
> <minimizedAffinity>
-8.85601

$$$$
OCNT-2317981


 25 27  0  0  0  0  0  0  0  0999 V2000
   -4.0864   30.1563    7.9734 N   0  0  0  0  0  0  0  0  0  0  0  0
   -4.8706   29.0863    8.5494 C   0  0  0  0  0  0  0  0  0  0  0  0
   -6.1800   29.0895    7.7948 C   0  0  0  0  0  0  0  0  0  0  0  0
   -5.8287   29.6349    6.4167 C   0  0  0  0  0  0  0  0  0  0  0  0
   -4.5680   30.4779    6.6808 C   0  0  0  0  0  0  0  0  0  0  0  0
   -4.0994   31.2378    5.8441 O   0  0  0  0  0  0  0  0  0  0  0  0
   -5.6057   28.6671    5.3166 N   0  0  0  0  0  0  0  0  0  0  0  0
   -6.1889   29.1461    4.0544 C   0  0  0  0  0  0  0  0  0  0  0  0
   -5.7412   28.2753    2.8792 C   0  0  0  0  0  0  0  0  0  0  0  0
   -6.0429   26.7965    3.1214 C   0  0  0  0  0  0  0  0  0  0  0  0
   -5.5135   26.3311    4.4874 C   0  0  0  0  0  0  0  0  0  0  0  0
   -4.0683   26.4127    4.4525 O   0  0  0  0  0  0  0  0  0  0  0  0
   -6.0181   27.2766    5.6014 C   0  0  0  0  0  0  0  0  0  0  0  0
   -3.8420   27.3298    4.7145 H   0  0  0  0  0  0  0  0  0  0  0  0
   -5.9951   24.9005    4.7909 C   0  0  0  0  0  0  0  0  0  0  0  0
   -7.2213   24.8923    5.3623 F   0  0  0  0  0  0  0  0  0  0  0  0
   -5.1502   24.2383    5.6117 F   0  0  0  0  0  0  0  0  0  0  0  0
   -6.0905   24.1754    3.6476 F   0  0  0  0  0  0  0  0  0  0  0  0
   -2.6817   31.9321    9.1135 C   0  0  0  0  0  0  0  0  0  0  0  0
   -2.9151   30.6914    8.5333 C   0  0  0  0  0  0  0  0  0  0  0  0
   -1.4648   29.7759    8.4961 S   0  0  0  0  0  0  0  0  0  0  0  0
   -0.5554   30.9975    9.2556 C   0  0  0  0  0  0  0  0  0  0  0  0
   -1.3234   32.1020    9.5322 C   0  0  0  0  0  0  0  0  0  0  0  0
   -4.4823   33.7594    9.4867 N   0  0  0  0  0  0  0  0  0  0  0  0
   -3.6695   32.9489    9.3146 C   0  0  0  0  0  0  0  0  0  0  0  0
 24 25  3  0  0  0
 25 19  1  0  0  0
 19 20  2  0  0  0
 20  1  1  0  0  0
  1  2  1  0  0  0
  2  3  1  0  0  0
  3  4  1  0  0  0
  4  7  1  0  0  0
  7  8  1  0  0  0
  8  9  1  0  0  0
  9 10  1  0  0  0
 10 11  1  0  0  0
 11 12  1  0  0  0
 11 15  1  0  0  0
 15 16  1  0  0  0
 15 17  1  0  0  0
 15 18  1  0  0  0
 11 13  1  0  0  0
  4  5  1  0  0  0
  5  6  2  0  0  0
 20 21  1  0  0  0
 21 22  1  0  0  0
 22 23  2  0  0  0
 23 19  1  0  0  0
  5  1  1  0  0  0
 13  7  1  0  0  0
 12 14  1  0  0  0
M  END
> <minimizedAffinity>
-8.32072

$$$$
OCNT-2317996


 26 28  0  0  0  0  0  0  0  0999 V2000
   -4.4029   26.7587    3.5174 N   0  0  0  0  0  0  0  0  0  0  0  0
   -4.4384   27.6446    3.0166 H   0  0  0  0  0  0  0  0  0  0  0  0
    0.3642   25.4079    4.0671 C   0  0  0  0  0  0  0  0  0  0  0  0
   -0.8937   26.0219    4.6088 C   0  0  0  0  0  0  0  0  0  0  0  0
   -0.9093   26.5984    5.8830 C   0  0  0  0  0  0  0  0  0  0  0  0
   -2.0716   27.2148    6.3557 C   0  0  0  0  0  0  0  0  0  0  0  0
   -3.2251   27.2313    5.5604 C   0  0  0  0  0  0  0  0  0  0  0  0
   -3.2447   26.6385    4.2914 C   0  0  0  0  0  0  0  0  0  0  0  0
   -2.0526   26.0757    3.8162 C   0  0  0  0  0  0  0  0  0  0  0  0
   -2.1346   27.8500    7.6976 C   0  0  0  0  0  0  0  0  0  0  0  0
   -3.3742   28.0485    8.2412 N   0  0  0  0  0  0  0  0  0  0  0  0
   -1.1228   28.1555    8.3155 O   0  0  0  0  0  0  0  0  0  0  0  0
   -3.3815   28.3489    9.2080 H   0  0  0  0  0  0  0  0  0  0  0  0
   -4.1831   27.5429    7.9100 H   0  0  0  0  0  0  0  0  0  0  0  0
   -5.6908   26.3945    4.0904 C   0  0  0  0  0  0  0  0  0  0  0  0
   -5.8152   24.8865    4.1113 C   0  0  0  0  0  0  0  0  0  0  0  0
   -5.6817   24.2240    5.3393 C   0  0  0  0  0  0  0  0  0  0  0  0
   -5.7894   22.8417    5.3865 C   0  0  0  0  0  0  0  0  0  0  0  0
   -5.6477   22.1172    6.6909 C   0  0  0  0  0  0  0  0  0  0  0  0
   -6.0188   22.0969    4.2850 N   0  0  0  0  0  0  0  0  0  0  0  0
   -6.1328   22.7304    3.0913 C   0  0  0  0  0  0  0  0  0  0  0  0
   -6.0145   24.1197    2.9457 C   0  0  0  0  0  0  0  0  0  0  0  0
   -6.1600   24.7699    1.5899 C   0  0  0  0  0  0  0  0  0  0  0  0
   -6.0439   23.7990    0.4159 C   0  0  0  0  0  0  0  0  0  0  0  0
   -6.8701   22.5484    0.6749 C   0  0  0  0  0  0  0  0  0  0  0  0
   -6.3371   21.8232    1.9049 C   0  0  0  0  0  0  0  0  0  0  0  0
  3  4  1  0  0  0
  4  5  2  0  0  0
  5  6  1  0  0  0
  6 10  1  0  0  0
 10 11  1  0  0  0
 10 12  2  0  0  0
  6  7  2  0  0  0
  7  8  1  0  0  0
  8  1  1  0  0  0
  1 15  1  0  0  0
 15 16  1  0  0  0
 16 17  2  0  0  0
 17 18  1  0  0  0
 18 19  1  0  0  0
 18 20  2  0  0  0
 20 21  1  0  0  0
 21 22  2  0  0  0
 22 23  1  0  0  0
 23 24  1  0  0  0
 24 25  1  0  0  0
 25 26  1  0  0  0
  8  9  2  0  0  0
  9  4  1  0  0  0
 22 16  1  0  0  0
 26 21  1  0  0  0
 11 13  1  0  0  0
 11 14  1  0  0  0
  1  2  1  0  0  0
M  END
> <minimizedAffinity>
-9.36839

$$$$
OCNT-2318002


 25 28  0  0  0  0  0  0  0  0999 V2000
   -3.9525   30.2362    7.0196 C   0  0  0  0  0  0  0  0  0  0  0  0
   -5.0455   30.3969    7.7878 N   0  0  0  0  0  0  0  0  0  0  0  0
   -6.0512   29.5423    7.5531 C   0  0  0  0  0  0  0  0  0  0  0  0
   -6.0063   28.5615    6.5893 C   0  0  0  0  0  0  0  0  0  0  0  0
   -4.8541   28.4672    5.8298 C   0  0  0  0  0  0  0  0  0  0  0  0
   -3.8182   29.2932    6.0629 N   0  0  0  0  0  0  0  0  0  0  0  0
   -4.7297   27.4868    4.8456 N   0  0  0  0  0  0  0  0  0  0  0  0
   -3.9616   26.2693    5.1790 C   0  0  0  0  0  0  0  0  0  0  0  0
   -4.7133   24.9624    4.8266 C   0  0  0  0  0  0  0  0  0  0  0  0
   -5.1647   24.9525    3.4259 N   0  0  0  0  0  0  0  0  0  0  0  0
   -5.6360   26.2458    2.8851 C   0  0  0  0  0  0  0  0  0  0  0  0
   -5.9192   27.2766    4.0011 C   0  0  0  0  0  0  0  0  0  0  0  0
   -5.4856   23.7728    2.7689 C   0  0  0  0  0  0  0  0  0  0  0  0
   -5.0777   22.5140    3.2385 C   0  0  0  0  0  0  0  0  0  0  0  0
   -5.4002   21.3296    2.5631 C   0  0  0  0  0  0  0  0  0  0  0  0
   -6.1383   21.3752    1.3871 C   0  0  0  0  0  0  0  0  0  0  0  0
   -6.5494   22.6047    0.8889 C   0  0  0  0  0  0  0  0  0  0  0  0
   -6.2236   23.7826    1.5724 C   0  0  0  0  0  0  0  0  0  0  0  0
   -2.7948   31.1791    7.2365 C   0  0  0  0  0  0  0  0  0  0  0  0
    0.9753   29.1930    7.9252 C   0  0  0  0  0  0  0  0  0  0  0  0
    0.5138   29.3806    6.6236 C   0  0  0  0  0  0  0  0  0  0  0  0
   -0.7061   30.0206    6.4000 C   0  0  0  0  0  0  0  0  0  0  0  0
   -1.4796   30.4733    7.4786 C   0  0  0  0  0  0  0  0  0  0  0  0
   -0.9995   30.2904    8.7832 C   0  0  0  0  0  0  0  0  0  0  0  0
    0.2207   29.6499    9.0044 C   0  0  0  0  0  0  0  0  0  0  0  0
 20 21  2  0  0  0
 21 22  1  0  0  0
 22 23  2  0  0  0
 23 19  1  0  0  0
 19  1  1  0  0  0
  1  2  2  0  0  0
  2  3  1  0  0  0
  3  4  2  0  0  0
  4  5  1  0  0  0
  5  7  1  0  0  0
  7  8  1  0  0  0
  8  9  1  0  0  0
  9 10  1  0  0  0
 10 13  1  0  0  0
 13 14  2  0  0  0
 14 15  1  0  0  0
 15 16  2  0  0  0
 16 17  1  0  0  0
 17 18  2  0  0  0
 10 11  1  0  0  0
 11 12  1  0  0  0
  5  6  2  0  0  0
 23 24  1  0  0  0
 24 25  2  0  0  0
 25 20  1  0  0  0
  6  1  1  0  0  0
 12  7  1  0  0  0
 18 13  1  0  0  0
M  END
> <minimizedAffinity>
-9.69617

$$$$
OCNT-2318019


 26 28  0  0  0  0  0  0  0  0999 V2000
   -4.7058   26.1194    4.2795 C   0  0  0  0  0  0  0  0  0  0  0  0
   -1.8879   26.0577    5.4267 C   0  0  0  0  0  0  0  0  0  0  0  0
   -2.7807   27.1978    5.5807 N   0  0  0  0  0  0  0  0  0  0  0  0
   -2.3550   28.1829    6.5611 C   0  0  0  0  0  0  0  0  0  0  0  0
   -4.1466   27.1523    5.2913 C   0  0  0  0  0  0  0  0  0  0  0  0
   -4.9383   27.9375    5.8297 O   0  0  0  0  0  0  0  0  0  0  0  0
   -4.4367   26.5278    2.8745 N   0  0  0  0  0  0  0  0  0  0  0  0
   -5.3185   26.7968    2.4379 H   0  0  0  0  0  0  0  0  0  0  0  0
   -3.8854   25.4135    2.0921 C   0  0  0  0  0  0  0  0  0  0  0  0
   -5.0061   24.5867    1.5008 C   0  0  0  0  0  0  0  0  0  0  0  0
   -5.8679   25.1777    0.5508 C   0  0  0  0  0  0  0  0  0  0  0  0
   -6.9236   24.4712   -0.0215 C   0  0  0  0  0  0  0  0  0  0  0  0
   -7.1730   23.1460    0.3335 C   0  0  0  0  0  0  0  0  0  0  0  0
   -6.3279   22.5610    1.2821 C   0  0  0  0  0  0  0  0  0  0  0  0
   -5.2607   23.2422    1.8713 C   0  0  0  0  0  0  0  0  0  0  0  0
   -4.6420   22.3279    2.7751 C   0  0  0  0  0  0  0  0  0  0  0  0
   -5.3280   21.1376    2.7136 C   0  0  0  0  0  0  0  0  0  0  0  0
   -6.3438   21.2892    1.8096 N   0  0  0  0  0  0  0  0  0  0  0  0
   -7.0117   20.5745    1.5564 H   0  0  0  0  0  0  0  0  0  0  0  0
   -6.2031   25.8308    4.5123 C   0  0  0  0  0  0  0  0  0  0  0  0
   -6.4629   24.4286    5.0179 C   0  0  0  0  0  0  0  0  0  0  0  0
   -7.6596   23.7699    4.7050 C   0  0  0  0  0  0  0  0  0  0  0  0
   -7.9039   22.4827    5.1857 C   0  0  0  0  0  0  0  0  0  0  0  0
   -6.9575   21.8437    5.9857 C   0  0  0  0  0  0  0  0  0  0  0  0
   -5.7651   22.4905    6.3048 C   0  0  0  0  0  0  0  0  0  0  0  0
   -5.5179   23.7776    5.8246 C   0  0  0  0  0  0  0  0  0  0  0  0
  2  3  1  0  0  0
  3  4  1  0  0  0
  3  5  1  0  0  0
  5  6  2  0  0  0
  5  1  1  0  0  0
  1 20  1  0  0  0
 20 21  1  0  0  0
 21 22  2  0  0  0
 22 23  1  0  0  0
 23 24  2  0  0  0
 24 25  1  0  0  0
 25 26  2  0  0  0
  1  7  1  0  0  0
  7  9  1  0  0  0
  9 10  1  0  0  0
 10 11  1  0  0  0
 11 12  2  0  0  0
 12 13  1  0  0  0
 13 14  2  0  0  0
 14 15  1  0  0  0
 15 16  1  0  0  0
 16 17  2  0  0  0
 17 18  1  0  0  0
 26 21  1  0  0  0
 15 10  2  0  0  0
 18 14  1  0  0  0
  7  8  1  0  0  0
 18 19  1  0  0  0
M  END
> <minimizedAffinity>
-8.14720

$$$$
OCNT-2318020


 28 31  0  0  0  0  0  0  0  0999 V2000
   -3.8791   26.7370    4.2324 N   0  0  0  0  0  0  0  0  0  0  0  0
   -2.8251   26.5728    5.1210 C   0  0  0  0  0  0  0  0  0  0  0  0
   -1.7339   26.1247    4.7872 O   0  0  0  0  0  0  0  0  0  0  0  0
   -3.1013   26.9369    6.4158 N   0  0  0  0  0  0  0  0  0  0  0  0
   -3.6525   27.7760    6.4736 H   0  0  0  0  0  0  0  0  0  0  0  0
   -5.7865   28.2272    3.6195 C   0  0  0  0  0  0  0  0  0  0  0  0
   -5.2228   27.2007    4.5915 C   0  0  0  0  0  0  0  0  0  0  0  0
   -3.6423   26.3810    2.8305 C   0  0  0  0  0  0  0  0  0  0  0  0
   -4.4214   25.1626    2.3930 C   0  0  0  0  0  0  0  0  0  0  0  0
   -4.1924   23.9135    3.0175 C   0  0  0  0  0  0  0  0  0  0  0  0
   -4.8961   22.7706    2.6257 C   0  0  0  0  0  0  0  0  0  0  0  0
   -5.8204   22.9045    1.6137 C   0  0  0  0  0  0  0  0  0  0  0  0
   -6.5921   21.9077    1.1041 O   0  0  0  0  0  0  0  0  0  0  0  0
   -7.3484   22.6310    0.1116 C   0  0  0  0  0  0  0  0  0  0  0  0
   -7.0030   24.0299    0.0318 O   0  0  0  0  0  0  0  0  0  0  0  0
   -6.0549   24.1138    1.0034 C   0  0  0  0  0  0  0  0  0  0  0  0
   -5.3775   25.2585    1.3682 C   0  0  0  0  0  0  0  0  0  0  0  0
   -2.0765   26.8296    7.4396 C   0  0  0  0  0  0  0  0  0  0  0  0
   -1.4413   28.1426    7.7435 C   0  0  0  0  0  0  0  0  0  0  0  0
   -0.1919   28.4632    7.4649 N   0  0  0  0  0  0  0  0  0  0  0  0
    0.0326   29.7484    7.8835 N   0  0  0  0  0  0  0  0  0  0  0  0
   -1.0836   30.2061    8.4042 C   0  0  0  0  0  0  0  0  0  0  0  0
   -1.2865   31.5428    9.0171 C   0  0  0  0  0  0  0  0  0  0  0  0
   -2.3186   32.3811    8.2687 C   0  0  0  0  0  0  0  0  0  0  0  0
   -3.7638   31.9514    8.5260 C   0  0  0  0  0  0  0  0  0  0  0  0
   -4.1318   30.5761    7.9684 C   0  0  0  0  0  0  0  0  0  0  0  0
   -3.4388   29.4086    8.6715 C   0  0  0  0  0  0  0  0  0  0  0  0
   -2.0551   29.2442    8.2906 N   0  0  0  0  0  0  0  0  0  0  0  0
  6  7  1  0  0  0
  7  1  1  0  0  0
  1  8  1  0  0  0
  8  9  1  0  0  0
  9 10  1  0  0  0
 10 11  2  0  0  0
 11 12  1  0  0  0
 12 13  1  0  0  0
 13 14  1  0  0  0
 14 15  1  0  0  0
 15 16  1  0  0  0
 16 17  1  0  0  0
  1  2  1  0  0  0
  2  3  2  0  0  0
  2  4  1  0  0  0
  4 18  1  0  0  0
 18 19  1  0  0  0
 19 20  2  0  0  0
 20 21  1  0  0  0
 21 22  2  0  0  0
 22 23  1  0  0  0
 23 24  1  0  0  0
 24 25  1  0  0  0
 25 26  1  0  0  0
 26 27  1  0  0  0
 27 28  1  0  0  0
 17  9  2  0  0  0
 28 19  1  0  0  0
 16 12  2  0  0  0
 28 22  1  0  0  0
  4  5  1  0  0  0
M  END
> <minimizedAffinity>
-9.72901

$$$$
OCNT-2318022


 31 33  0  0  0  0  0  0  0  0999 V2000
   -1.3639   26.2221    4.8103 N   0  0  0  0  0  0  0  0  0  0  0  0
   -0.4470   25.5253    3.9212 C   0  0  0  0  0  0  0  0  0  0  0  0
   -0.8892   27.3286    5.4910 C   0  0  0  0  0  0  0  0  0  0  0  0
    0.2739   27.7142    5.4197 O   0  0  0  0  0  0  0  0  0  0  0  0
   -1.8223   27.9843    6.2536 N   0  0  0  0  0  0  0  0  0  0  0  0
   -2.7613   27.9547    5.8854 H   0  0  0  0  0  0  0  0  0  0  0  0
   -1.4623   29.2022    6.9786 C   0  0  0  0  0  0  0  0  0  0  0  0
   -0.8083   28.8381    8.3114 C   0  0  0  0  0  0  0  0  0  0  0  0
   -0.3764   30.0754    9.0988 C   0  0  0  0  0  0  0  0  0  0  0  0
   -1.0586   31.3677    8.6448 C   0  0  0  0  0  0  0  0  0  0  0  0
   -2.4615   31.0989    8.3168 N   0  0  0  0  0  0  0  0  0  0  0  0
   -2.6790   30.1379    7.2069 C   0  0  0  0  0  0  0  0  0  0  0  0
   -3.3673   32.1751    8.3103 C   0  0  0  0  0  0  0  0  0  0  0  0
   -4.0952   32.4721    7.1411 C   0  0  0  0  0  0  0  0  0  0  0  0
   -5.0133   33.5285    7.0853 C   0  0  0  0  0  0  0  0  0  0  0  0
   -5.2284   34.3159    8.2090 C   0  0  0  0  0  0  0  0  0  0  0  0
   -4.5275   34.0328    9.3716 C   0  0  0  0  0  0  0  0  0  0  0  0
   -4.7298   34.7874   10.4607 F   0  0  0  0  0  0  0  0  0  0  0  0
   -3.6138   32.9806    9.4308 C   0  0  0  0  0  0  0  0  0  0  0  0
   -2.6096   25.5257    5.1312 C   0  0  0  0  0  0  0  0  0  0  0  0
   -5.3289   25.0215    1.7915 C   0  0  0  0  0  0  0  0  0  0  0  0
   -4.5162   23.9681    2.2237 C   0  0  0  0  0  0  0  0  0  0  0  0
   -3.6444   24.1450    3.3017 C   0  0  0  0  0  0  0  0  0  0  0  0
   -3.5528   25.3844    3.9542 C   0  0  0  0  0  0  0  0  0  0  0  0
   -4.3736   26.4352    3.5147 C   0  0  0  0  0  0  0  0  0  0  0  0
   -5.2497   26.2600    2.4376 C   0  0  0  0  0  0  0  0  0  0  0  0
   -7.7855   23.2384   -0.4810 C   0  0  0  0  0  0  0  0  0  0  0  0
   -6.8627   23.5605    0.5795 N   0  0  0  0  0  0  0  0  0  0  0  0
   -6.2316   24.7854    0.6308 C   0  0  0  0  0  0  0  0  0  0  0  0
   -6.3649   25.6516   -0.2263 O   0  0  0  0  0  0  0  0  0  0  0  0
   -6.6767   22.8589    1.2804 H   0  0  0  0  0  0  0  0  0  0  0  0
 27 28  1  0  0  0
 28 29  1  0  0  0
 29 30  2  0  0  0
 29 21  1  0  0  0
 21 22  1  0  0  0
 22 23  2  0  0  0
 23 24  1  0  0  0
 24 20  1  0  0  0
 20  1  1  0  0  0
  1  2  1  0  0  0
  1  3  1  0  0  0
  3  4  2  0  0  0
  3  5  1  0  0  0
  5  7  1  0  0  0
  7  8  1  0  0  0
  8  9  1  0  0  0
  9 10  1  0  0  0
 10 11  1  0  0  0
 11 13  1  0  0  0
 13 14  2  0  0  0
 14 15  1  0  0  0
 15 16  2  0  0  0
 16 17  1  0  0  0
 17 18  1  0  0  0
 17 19  2  0  0  0
 11 12  1  0  0  0
 24 25  2  0  0  0
 25 26  1  0  0  0
 26 21  2  0  0  0
 12  7  1  0  0  0
 19 13  1  0  0  0
 28 31  1  0  0  0
  5  6  1  0  0  0
M  END
> <minimizedAffinity>
-9.45766

$$$$
OCNT-2318024


 27 30  0  0  0  0  0  0  0  0999 V2000
   -5.4360   23.4379    5.2725 C   0  0  0  0  0  0  0  0  0  0  0  0
   -6.3372   24.0046    4.1761 C   0  0  0  0  0  0  0  0  0  0  0  0
   -6.0851   25.5209    3.9789 C   0  0  0  0  0  0  0  0  0  0  0  0
   -4.7737   25.8511    3.3963 N   0  0  0  0  0  0  0  0  0  0  0  0
   -3.7354   26.4507    4.0894 C   0  0  0  0  0  0  0  0  0  0  0  0
   -2.5660   26.3965    3.7202 O   0  0  0  0  0  0  0  0  0  0  0  0
   -4.1153   27.1246    5.2238 N   0  0  0  0  0  0  0  0  0  0  0  0
   -4.4000   25.1773    2.1525 C   0  0  0  0  0  0  0  0  0  0  0  0
   -5.5757   24.7239    1.3301 C   0  0  0  0  0  0  0  0  0  0  0  0
   -5.8447   25.2800    0.0731 C   0  0  0  0  0  0  0  0  0  0  0  0
   -6.9301   24.8259   -0.6797 C   0  0  0  0  0  0  0  0  0  0  0  0
   -7.7496   23.8099   -0.1868 C   0  0  0  0  0  0  0  0  0  0  0  0
   -7.4932   23.2532    1.0652 C   0  0  0  0  0  0  0  0  0  0  0  0
   -6.4269   23.7278    1.8242 C   0  0  0  0  0  0  0  0  0  0  0  0
   -6.1881   23.1403    3.0323 O   0  0  0  0  0  0  0  0  0  0  0  0
   -4.9793   27.6292    5.0919 H   0  0  0  0  0  0  0  0  0  0  0  0
   -3.1208   27.8305    6.0180 C   0  0  0  0  0  0  0  0  0  0  0  0
   -3.7033   28.5664    7.2452 C   0  0  0  0  0  0  0  0  0  0  0  0
   -5.0494   29.2399    6.9592 C   0  0  0  0  0  0  0  0  0  0  0  0
   -4.8400   30.4935    6.1270 C   0  0  0  0  0  0  0  0  0  0  0  0
   -4.0238   31.4644    6.7838 O   0  0  0  0  0  0  0  0  0  0  0  0
   -2.9367   30.9736    7.4545 C   0  0  0  0  0  0  0  0  0  0  0  0
   -2.0272   31.9295    7.9099 C   0  0  0  0  0  0  0  0  0  0  0  0
   -0.8952   31.5403    8.6255 C   0  0  0  0  0  0  0  0  0  0  0  0
   -0.6748   30.1918    8.8949 C   0  0  0  0  0  0  0  0  0  0  0  0
   -1.5861   29.2340    8.4490 C   0  0  0  0  0  0  0  0  0  0  0  0
   -2.7263   29.6165    7.7241 C   0  0  0  0  0  0  0  0  0  0  0  0
  1  2  1  0  0  0
  2  3  1  0  0  0
  3  4  1  0  0  0
  4  5  1  0  0  0
  5  6  2  0  0  0
  5  7  1  0  0  0
  7 17  1  0  0  0
 17 18  1  0  0  0
 18 19  1  0  0  0
 19 20  1  0  0  0
 20 21  1  0  0  0
 21 22  1  0  0  0
 22 23  2  0  0  0
 23 24  1  0  0  0
 24 25  2  0  0  0
 25 26  1  0  0  0
 26 27  2  0  0  0
  4  8  1  0  0  0
  8  9  1  0  0  0
  9 10  2  0  0  0
 10 11  1  0  0  0
 11 12  2  0  0  0
 12 13  1  0  0  0
 13 14  2  0  0  0
 14 15  1  0  0  0
 15  2  1  0  0  0
 27 18  1  0  0  0
 14  9  1  0  0  0
 27 22  1  0  0  0
  7 16  1  0  0  0
M  END
> <minimizedAffinity>
-10.60638

$$$$
OCNT-2318042


 24 26  0  0  0  0  0  0  0  0999 V2000
   -1.5885   27.4766    5.9817 N   0  0  0  0  0  0  0  0  0  0  0  0
   -3.0427   27.3293    6.1719 C   0  0  0  0  0  0  0  0  0  0  0  0
   -3.7524   27.1007    4.8406 C   0  0  0  0  0  0  0  0  0  0  0  0
   -3.1963   25.8668    4.1301 C   0  0  0  0  0  0  0  0  0  0  0  0
   -1.6786   26.0042    4.0015 C   0  0  0  0  0  0  0  0  0  0  0  0
   -1.0366   26.2606    5.3619 C   0  0  0  0  0  0  0  0  0  0  0  0
   -0.9234   27.7879    7.2669 C   0  0  0  0  0  0  0  0  0  0  0  0
    0.8963   28.9945    8.5016 C   0  0  0  0  0  0  0  0  0  0  0  0
   -0.1763   29.1765    7.3884 C   0  0  0  0  0  0  0  0  0  0  0  0
    0.6351   29.5036    6.1109 C   0  0  0  0  0  0  0  0  0  0  0  0
   -1.0348   30.3432    7.7351 N   0  0  0  0  0  0  0  0  0  0  0  0
   -1.6209   31.0964    6.6054 C   0  0  0  0  0  0  0  0  0  0  0  0
   -3.1598   31.1402    6.6008 C   0  0  0  0  0  0  0  0  0  0  0  0
   -3.7187   31.6728    7.8071 O   0  0  0  0  0  0  0  0  0  0  0  0
   -2.9355   31.3652    8.9651 C   0  0  0  0  0  0  0  0  0  0  0  0
   -2.0377   30.1274    8.7925 C   0  0  0  0  0  0  0  0  0  0  0  0
   -3.7266   25.7623    2.8037 O   0  0  0  0  0  0  0  0  0  0  0  0
   -4.4820   24.6342    2.5526 C   0  0  0  0  0  0  0  0  0  0  0  0
   -4.0986   23.4371    3.0593 N   0  0  0  0  0  0  0  0  0  0  0  0
   -4.8905   22.3779    2.7753 C   0  0  0  0  0  0  0  0  0  0  0  0
   -6.0457   22.4557    2.0098 C   0  0  0  0  0  0  0  0  0  0  0  0
   -6.4171   23.6960    1.5007 C   0  0  0  0  0  0  0  0  0  0  0  0
   -5.6232   24.8011    1.7767 C   0  0  0  0  0  0  0  0  0  0  0  0
   -5.9706   26.0017    1.2917 F   0  0  0  0  0  0  0  0  0  0  0  0
  8  9  1  0  0  0
  9 10  1  0  0  0
  9  7  1  0  0  0
  7  1  1  0  0  0
  1  2  1  0  0  0
  2  3  1  0  0  0
  3  4  1  0  0  0
  4 17  1  0  0  0
 17 18  1  0  0  0
 18 19  1  0  0  0
 19 20  2  0  0  0
 20 21  1  0  0  0
 21 22  2  0  0  0
 22 23  1  0  0  0
 23 24  1  0  0  0
  4  5  1  0  0  0
  5  6  1  0  0  0
  9 11  1  0  0  0
 11 12  1  0  0  0
 12 13  1  0  0  0
 13 14  1  0  0  0
 14 15  1  0  0  0
 15 16  1  0  0  0
  6  1  1  0  0  0
 16 11  1  0  0  0
 23 18  2  0  0  0
M  END
> <minimizedAffinity>
-8.46577

$$$$
OCNT-2318057


 26 28  0  0  0  0  0  0  0  0999 V2000
   -3.1913   25.8212    2.5621 C   0  0  0  0  0  0  0  0  0  0  0  0
   -4.4151   25.6514    3.4166 C   0  0  0  0  0  0  0  0  0  0  0  0
   -4.7243   26.6231    4.3822 C   0  0  0  0  0  0  0  0  0  0  0  0
   -5.8627   26.4954    5.1742 C   0  0  0  0  0  0  0  0  0  0  0  0
   -6.6487   25.3749    4.9569 C   0  0  0  0  0  0  0  0  0  0  0  0
   -6.3685   24.4125    4.0410 N   0  0  0  0  0  0  0  0  0  0  0  0
   -5.2608   24.5386    3.2831 C   0  0  0  0  0  0  0  0  0  0  0  0
   -4.9381   23.5350    2.3549 N   0  0  0  0  0  0  0  0  0  0  0  0
   -4.5969   22.2714    3.0332 C   0  0  0  0  0  0  0  0  0  0  0  0
   -5.8407   21.4738    3.4297 C   0  0  0  0  0  0  0  0  0  0  0  0
   -6.7578   21.2399    2.2335 C   0  0  0  0  0  0  0  0  0  0  0  0
   -7.1058   22.5531    1.5362 C   0  0  0  0  0  0  0  0  0  0  0  0
   -5.8416   23.3539    1.1945 C   0  0  0  0  0  0  0  0  0  0  0  0
   -6.1601   24.6657    0.4757 C   0  0  0  0  0  0  0  0  0  0  0  0
   -6.1230   27.5067    6.1220 N   0  0  0  0  0  0  0  0  0  0  0  0
   -6.4418   28.8279    5.8581 C   0  0  0  0  0  0  0  0  0  0  0  0
   -6.5565   29.3340    4.7485 O   0  0  0  0  0  0  0  0  0  0  0  0
   -6.0601   27.2348    7.0958 H   0  0  0  0  0  0  0  0  0  0  0  0
   -6.6616   29.6147    7.1352 C   0  0  0  0  0  0  0  0  0  0  0  0
   -5.4207   29.6086    8.0229 C   0  0  0  0  0  0  0  0  0  0  0  0
   -4.2287   30.1638    7.3320 C   0  0  0  0  0  0  0  0  0  0  0  0
   -4.0987   31.3193    6.5948 C   0  0  0  0  0  0  0  0  0  0  0  0
   -2.7959   31.3122    6.1988 N   0  0  0  0  0  0  0  0  0  0  0  0
   -2.1498   30.2330    6.6622 N   0  0  0  0  0  0  0  0  0  0  0  0
   -3.0223   29.5129    7.3533 N   0  0  0  0  0  0  0  0  0  0  0  0
   -2.2859   31.9807    5.6329 H   0  0  0  0  0  0  0  0  0  0  0  0
  1  2  1  0  0  0
  2  3  1  0  0  0
  3  4  2  0  0  0
  4 15  1  0  0  0
 15 16  1  0  0  0
 16 17  2  0  0  0
 16 19  1  0  0  0
 19 20  1  0  0  0
 20 21  1  0  0  0
 21 22  2  0  0  0
 22 23  1  0  0  0
 23 24  1  0  0  0
 24 25  2  0  0  0
  4  5  1  0  0  0
  5  6  2  0  0  0
  6  7  1  0  0  0
  7  8  1  0  0  0
  8  9  1  0  0  0
  9 10  1  0  0  0
 10 11  1  0  0  0
 11 12  1  0  0  0
 12 13  1  0  0  0
 13 14  1  0  0  0
  7  2  2  0  0  0
 13  8  1  0  0  0
 25 21  1  0  0  0
 15 18  1  0  0  0
 23 26  1  0  0  0
M  END
> <minimizedAffinity>
-8.09836

$$$$
OCNT-2318067


 25 27  0  0  0  0  0  0  0  0999 V2000
   -6.6300   29.1601    5.6163 C   0  0  0  0  0  0  0  0  0  0  0  0
   -6.5172   27.7864    5.8681 C   0  0  0  0  0  0  0  0  0  0  0  0
   -6.0076   26.9247    4.8947 C   0  0  0  0  0  0  0  0  0  0  0  0
   -5.6014   27.4165    3.6473 C   0  0  0  0  0  0  0  0  0  0  0  0
   -5.7294   28.7863    3.3873 C   0  0  0  0  0  0  0  0  0  0  0  0
   -6.2388   29.6486    4.3619 C   0  0  0  0  0  0  0  0  0  0  0  0
   -7.1884   30.0952    6.6578 C   0  0  0  0  0  0  0  0  0  0  0  0
   -5.9684   30.4856    7.9230 S   0  0  0  0  0  0  0  0  0  0  0  0
   -4.8521   29.5704    7.8090 O   0  0  0  0  0  0  0  0  0  0  0  0
   -6.6603   30.6455    9.1845 O   0  0  0  0  0  0  0  0  0  0  0  0
   -5.3767   31.9826    7.4664 N   0  0  0  0  0  0  0  0  0  0  0  0
   -4.9983   31.9961    6.5189 H   0  0  0  0  0  0  0  0  0  0  0  0
   -3.3255   32.6601    8.6129 C   0  0  0  0  0  0  0  0  0  0  0  0
   -4.8229   32.9047    8.4635 C   0  0  0  0  0  0  0  0  0  0  0  0
   -5.0840   34.3321    7.9916 C   0  0  0  0  0  0  0  0  0  0  0  0
   -5.0579   26.4720    2.5956 C   0  0  0  0  0  0  0  0  0  0  0  0
   -6.1122   25.5714    2.1384 N   0  0  0  0  0  0  0  0  0  0  0  0
   -6.5368   25.9785    1.3056 H   0  0  0  0  0  0  0  0  0  0  0  0
   -5.8026   24.1450    1.9895 C   0  0  0  0  0  0  0  0  0  0  0  0
   -6.2276   23.2770    3.1997 C   0  0  0  0  0  0  0  0  0  0  0  0
   -7.4556   22.7793    2.3883 C   0  0  0  0  0  0  0  0  0  0  0  0
   -6.7957   23.3750    1.1572 C   0  0  0  0  0  0  0  0  0  0  0  0
   -6.2252   22.3711    0.1603 C   0  0  0  0  0  0  0  0  0  0  0  0
   -7.4823   22.6443   -0.6985 C   0  0  0  0  0  0  0  0  0  0  0  0
   -7.6442   23.9816    0.0649 C   0  0  0  0  0  0  0  0  0  0  0  0
 13 14  1  0  0  0
 14 15  1  0  0  0
 14 11  1  0  0  0
 11  8  1  0  0  0
  8  9  2  0  0  0
  8 10  2  0  0  0
  8  7  1  0  0  0
  7  1  1  0  0  0
  1  2  1  0  0  0
  2  3  2  0  0  0
  3  4  1  0  0  0
  4 16  1  0  0  0
 16 17  1  0  0  0
 17 19  1  0  0  0
 19 20  1  0  0  0
 20 21  1  0  0  0
 21 22  1  0  0  0
 22 23  1  0  0  0
 23 24  1  0  0  0
 24 25  1  0  0  0
  4  5  2  0  0  0
  5  6  1  0  0  0
  6  1  2  0  0  0
 22 19  1  0  0  0
 25 22  1  0  0  0
 11 12  1  0  0  0
 17 18  1  0  0  0
M  END
> <minimizedAffinity>
-9.00984

$$$$
OCNT-2318082


 22 24  0  0  0  0  0  0  0  0999 V2000
   -3.4779   28.6137    7.1834 C   0  0  0  0  0  0  0  0  0  0  0  0
   -2.1988   28.8930    7.1845 N   0  0  0  0  0  0  0  0  0  0  0  0
   -2.0416   29.8964    8.1021 C   0  0  0  0  0  0  0  0  0  0  0  0
   -0.8734   30.5760    8.4801 C   0  0  0  0  0  0  0  0  0  0  0  0
   -0.9597   31.5820    9.4484 C   0  0  0  0  0  0  0  0  0  0  0  0
   -2.1858   31.9046   10.0302 C   0  0  0  0  0  0  0  0  0  0  0  0
   -3.3611   31.2353    9.6679 C   0  0  0  0  0  0  0  0  0  0  0  0
   -3.2562   30.2306    8.6955 C   0  0  0  0  0  0  0  0  0  0  0  0
   -4.1662   29.3702    8.1083 N   0  0  0  0  0  0  0  0  0  0  0  0
   -5.5792   29.2737    8.4613 C   0  0  0  0  0  0  0  0  0  0  0  0
   -6.3640   30.5459    8.1345 C   0  0  0  0  0  0  0  0  0  0  0  0
   -5.7985   28.8234    9.9053 C   0  0  0  0  0  0  0  0  0  0  0  0
   -4.0848   27.6823    6.4104 N   0  0  0  0  0  0  0  0  0  0  0  0
   -4.4390   26.9202    6.9940 H   0  0  0  0  0  0  0  0  0  0  0  0
   -3.2014   27.0214    5.4300 C   0  0  0  0  0  0  0  0  0  0  0  0
   -5.9078   25.1924    0.6734 C   0  0  0  0  0  0  0  0  0  0  0  0
   -5.2596   25.6707    1.9327 C   0  0  0  0  0  0  0  0  0  0  0  0
   -5.7900   26.7318    2.6646 C   0  0  0  0  0  0  0  0  0  0  0  0
   -5.1366   27.1741    3.8123 C   0  0  0  0  0  0  0  0  0  0  0  0
   -3.9576   26.5450    4.2035 C   0  0  0  0  0  0  0  0  0  0  0  0
   -3.4081   25.5272    3.4914 N   0  0  0  0  0  0  0  0  0  0  0  0
   -4.0661   25.1193    2.3820 C   0  0  0  0  0  0  0  0  0  0  0  0
 16 17  1  0  0  0
 17 18  2  0  0  0
 18 19  1  0  0  0
 19 20  2  0  0  0
 20 15  1  0  0  0
 15 13  1  0  0  0
 13  1  1  0  0  0
  1  2  2  0  0  0
  2  3  1  0  0  0
  3  4  2  0  0  0
  4  5  1  0  0  0
  5  6  2  0  0  0
  6  7  1  0  0  0
  7  8  2  0  0  0
  8  9  1  0  0  0
  9 10  1  0  0  0
 10 11  1  0  0  0
 10 12  1  0  0  0
 20 21  1  0  0  0
 21 22  2  0  0  0
 22 17  1  0  0  0
  9  1  1  0  0  0
  8  3  1  0  0  0
 13 14  1  0  0  0
M  END
> <minimizedAffinity>
-8.63264

$$$$
OCNT-2318089


 24 25  0  0  0  0  0  0  0  0999 V2000
   -6.2187   28.8861    7.7803 C   0  0  0  0  0  0  0  0  0  0  0  0
   -6.5722   28.8668    9.1125 C   0  0  0  0  0  0  0  0  0  0  0  0
   -5.4503   29.3527    9.8282 C   0  0  0  0  0  0  0  0  0  0  0  0
   -4.4715   29.6395    8.8955 C   0  0  0  0  0  0  0  0  0  0  0  0
   -4.9461   29.3561    7.6446 O   0  0  0  0  0  0  0  0  0  0  0  0
   -3.1075   30.1600    8.9683 C   0  0  0  0  0  0  0  0  0  0  0  0
   -2.8380   31.3639    9.6357 C   0  0  0  0  0  0  0  0  0  0  0  0
   -1.5366   31.8665    9.7149 C   0  0  0  0  0  0  0  0  0  0  0  0
   -0.4819   31.1723    9.1248 C   0  0  0  0  0  0  0  0  0  0  0  0
   -0.7190   29.9713    8.4424 C   0  0  0  0  0  0  0  0  0  0  0  0
   -2.0331   29.4732    8.3785 C   0  0  0  0  0  0  0  0  0  0  0  0
    0.4166   29.2005    7.8164 C   0  0  0  0  0  0  0  0  0  0  0  0
    0.8072   29.7063    6.6134 F   0  0  0  0  0  0  0  0  0  0  0  0
    1.5396   29.1801    8.5892 F   0  0  0  0  0  0  0  0  0  0  0  0
    0.0972   27.8965    7.5909 F   0  0  0  0  0  0  0  0  0  0  0  0
   -6.9335   28.5143    6.5291 C   0  0  0  0  0  0  0  0  0  0  0  0
   -6.2539   27.3950    5.8734 N   0  0  0  0  0  0  0  0  0  0  0  0
   -6.9497   26.7383    5.5204 H   0  0  0  0  0  0  0  0  0  0  0  0
   -5.3632   27.8319    4.7750 C   0  0  0  0  0  0  0  0  0  0  0  0
   -4.0327   27.0643    4.9428 C   0  0  0  0  0  0  0  0  0  0  0  0
   -3.1264   27.8438    5.7254 O   0  0  0  0  0  0  0  0  0  0  0  0
   -3.7000   28.2931    6.3820 H   0  0  0  0  0  0  0  0  0  0  0  0
   -5.6798   26.2125    2.8208 C   0  0  0  0  0  0  0  0  0  0  0  0
   -5.9977   27.5873    3.3944 C   0  0  0  0  0  0  0  0  0  0  0  0
 23 24  1  0  0  0
 24 19  1  0  0  0
 19 20  1  0  0  0
 20 21  1  0  0  0
 19 17  1  0  0  0
 17 16  1  0  0  0
 16  1  1  0  0  0
  1  2  2  0  0  0
  2  3  1  0  0  0
  3  4  2  0  0  0
  4  6  1  0  0  0
  6  7  1  0  0  0
  7  8  2  0  0  0
  8  9  1  0  0  0
  9 10  2  0  0  0
 10 12  1  0  0  0
 12 13  1  0  0  0
 12 14  1  0  0  0
 12 15  1  0  0  0
 10 11  1  0  0  0
  4  5  1  0  0  0
  5  1  1  0  0  0
 11  6  2  0  0  0
 21 22  1  0  0  0
 17 18  1  0  0  0
M  END
> <minimizedAffinity>
-8.69172

$$$$
OCNT-2318090


 24 26  0  0  0  0  0  0  0  0999 V2000
   -0.3467   26.0951    4.2324 C   0  0  0  0  0  0  0  0  0  0  0  0
   -1.8271   25.9912    4.1877 C   0  0  0  0  0  0  0  0  0  0  0  0
   -2.4296   25.4930    3.1097 N   0  0  0  0  0  0  0  0  0  0  0  0
   -3.7525   25.4404    3.4173 N   0  0  0  0  0  0  0  0  0  0  0  0
   -4.0007   26.0764    4.6336 C   0  0  0  0  0  0  0  0  0  0  0  0
   -5.3434   26.3832    5.1915 C   0  0  0  0  0  0  0  0  0  0  0  0
   -2.7576   26.3933    5.1732 C   0  0  0  0  0  0  0  0  0  0  0  0
   -4.6354   24.7842    2.4990 C   0  0  0  0  0  0  0  0  0  0  0  0
   -4.7864   23.3930    2.4530 C   0  0  0  0  0  0  0  0  0  0  0  0
   -5.6614   22.8041    1.5301 C   0  0  0  0  0  0  0  0  0  0  0  0
   -6.3817   23.5984    0.6416 C   0  0  0  0  0  0  0  0  0  0  0  0
   -7.4524   22.8658   -0.4872 Cl  0  0  0  0  0  0  0  0  0  0  0  0
   -6.2291   24.9799    0.6582 C   0  0  0  0  0  0  0  0  0  0  0  0
   -5.3556   25.5694    1.5776 C   0  0  0  0  0  0  0  0  0  0  0  0
   -2.4444   27.0426    6.4802 C   0  0  0  0  0  0  0  0  0  0  0  0
   -2.7381   28.4650    6.3464 N   0  0  0  0  0  0  0  0  0  0  0  0
   -1.9900   28.9098    5.8189 H   0  0  0  0  0  0  0  0  0  0  0  0
   -2.8521   29.0990    7.6567 C   0  0  0  0  0  0  0  0  0  0  0  0
   -1.7984   30.1843    7.7578 C   0  0  0  0  0  0  0  0  0  0  0  0
   -1.6276   30.8991    9.0896 C   0  0  0  0  0  0  0  0  0  0  0  0
   -0.5807   29.9286    8.6329 C   0  0  0  0  0  0  0  0  0  0  0  0
   -1.6222   31.0012    6.4985 C   0  0  0  0  0  0  0  0  0  0  0  0
   -2.9007   31.3617    5.9870 O   0  0  0  0  0  0  0  0  0  0  0  0
   -3.3316   31.9029    6.6685 H   0  0  0  0  0  0  0  0  0  0  0  0
  1  2  1  0  0  0
  2  3  2  0  0  0
  3  4  1  0  0  0
  4  8  1  0  0  0
  8  9  1  0  0  0
  9 10  2  0  0  0
 10 11  1  0  0  0
 11 12  1  0  0  0
 11 13  2  0  0  0
 13 14  1  0  0  0
  4  5  1  0  0  0
  5  6  1  0  0  0
  5  7  2  0  0  0
  7 15  1  0  0  0
 15 16  1  0  0  0
 16 18  1  0  0  0
 18 19  1  0  0  0
 19 22  1  0  0  0
 22 23  1  0  0  0
 19 20  1  0  0  0
 20 21  1  0  0  0
  7  2  1  0  0  0
 21 19  1  0  0  0
 14  8  2  0  0  0
 16 17  1  0  0  0
 23 24  1  0  0  0
M  END
> <minimizedAffinity>
-8.17267

$$$$
OCNT-2318091


 25 27  0  0  0  0  0  0  0  0999 V2000
   -4.1099   27.4581    5.5442 C   0  0  0  0  0  0  0  0  0  0  0  0
   -2.7814   27.5710    5.9943 C   0  0  0  0  0  0  0  0  0  0  0  0
   -2.4635   28.5866    6.8707 C   0  0  0  0  0  0  0  0  0  0  0  0
   -3.3537   29.4868    7.3296 N   0  0  0  0  0  0  0  0  0  0  0  0
   -4.6394   29.4097    6.9235 C   0  0  0  0  0  0  0  0  0  0  0  0
   -5.5793   30.3404    7.3958 C   0  0  0  0  0  0  0  0  0  0  0  0
   -5.1090   31.5970    8.4995 Cl  0  0  0  0  0  0  0  0  0  0  0  0
   -6.9225   30.3113    7.0143 C   0  0  0  0  0  0  0  0  0  0  0  0
   -7.3597   29.3345    6.1389 C   0  0  0  0  0  0  0  0  0  0  0  0
   -6.4493   28.3974    5.6532 C   0  0  0  0  0  0  0  0  0  0  0  0
   -5.0774   28.4030    6.0219 C   0  0  0  0  0  0  0  0  0  0  0  0
   -4.4526   24.1142    2.8780 N   0  0  0  0  0  0  0  0  0  0  0  0
   -5.1022   24.0688    4.2005 C   0  0  0  0  0  0  0  0  0  0  0  0
   -4.4740   25.0546    5.2168 C   0  0  0  0  0  0  0  0  0  0  0  0
   -4.3941   26.4117    4.6471 N   0  0  0  0  0  0  0  0  0  0  0  0
   -3.7454   26.4806    3.3241 C   0  0  0  0  0  0  0  0  0  0  0  0
   -4.4207   25.4912    2.3249 C   0  0  0  0  0  0  0  0  0  0  0  0
   -5.7847   26.0395    1.8822 C   0  0  0  0  0  0  0  0  0  0  0  0
   -4.8770   23.0774    1.9203 C   0  0  0  0  0  0  0  0  0  0  0  0
   -6.0242   22.1065    2.2829 C   0  0  0  0  0  0  0  0  0  0  0  0
   -7.1580   22.2448    1.4291 O   0  0  0  0  0  0  0  0  0  0  0  0
   -7.8028   23.7727   -0.3360 C   0  0  0  0  0  0  0  0  0  0  0  0
   -6.8458   22.6810    0.1086 C   0  0  0  0  0  0  0  0  0  0  0  0
   -1.7450   26.6731    5.5843 C   0  0  0  0  0  0  0  0  0  0  0  0
   -0.8672   25.9917    5.2456 N   0  0  0  0  0  0  0  0  0  0  0  0
 22 23  1  0  0  0
 23 21  1  0  0  0
 21 20  1  0  0  0
 20 19  1  0  0  0
 19 12  1  0  0  0
 12 13  1  0  0  0
 13 14  1  0  0  0
 14 15  1  0  0  0
 15  1  1  0  0  0
  1  2  2  0  0  0
  2 24  1  0  0  0
 24 25  3  0  0  0
  2  3  1  0  0  0
  3  4  2  0  0  0
  4  5  1  0  0  0
  5  6  2  0  0  0
  6  7  1  0  0  0
  6  8  1  0  0  0
  8  9  2  0  0  0
  9 10  1  0  0  0
 10 11  2  0  0  0
 15 16  1  0  0  0
 16 17  1  0  0  0
 17 18  1  0  0  0
 17 12  1  0  0  0
 11  1  1  0  0  0
 11  5  1  0  0  0
M  END
> <minimizedAffinity>
-7.78725

$$$$
OCNT-2318099


 24 27  0  0  0  0  0  0  0  0999 V2000
   -4.0782   29.3268    7.1135 C   0  0  0  0  0  0  0  0  0  0  0  0
   -4.2361   28.3464    5.9288 C   0  0  0  0  0  0  0  0  0  0  0  0
   -3.1433   27.3620    6.0413 N   0  0  0  0  0  0  0  0  0  0  0  0
   -2.1262   28.0485    6.7225 C   0  0  0  0  0  0  0  0  0  0  0  0
   -0.7913   27.6981    6.8440 C   0  0  0  0  0  0  0  0  0  0  0  0
    0.0610   28.5134    7.5962 C   0  0  0  0  0  0  0  0  0  0  0  0
   -0.4269   29.6607    8.2354 C   0  0  0  0  0  0  0  0  0  0  0  0
   -1.7728   30.0082    8.1299 C   0  0  0  0  0  0  0  0  0  0  0  0
   -2.6023   29.1992    7.3656 C   0  0  0  0  0  0  0  0  0  0  0  0
   -4.2029   31.1908    5.5126 O   0  0  0  0  0  0  0  0  0  0  0  0
   -4.5778   30.7365    6.8084 C   0  0  0  0  0  0  0  0  0  0  0  0
   -3.2327   31.1208    5.4441 H   0  0  0  0  0  0  0  0  0  0  0  0
   -2.8116   26.5288    4.8782 C   0  0  0  0  0  0  0  0  0  0  0  0
   -3.9125   25.7740    4.2050 C   0  0  0  0  0  0  0  0  0  0  0  0
   -4.2257   25.6878    2.9306 N   0  0  0  0  0  0  0  0  0  0  0  0
   -5.3232   24.8519    2.9472 C   0  0  0  0  0  0  0  0  0  0  0  0
   -5.6529   24.4152    4.1749 N   0  0  0  0  0  0  0  0  0  0  0  0
   -4.7211   25.0270    5.0085 O   0  0  0  0  0  0  0  0  0  0  0  0
   -6.0371   24.4817    1.7291 C   0  0  0  0  0  0  0  0  0  0  0  0
   -6.7039   23.2497    1.6478 C   0  0  0  0  0  0  0  0  0  0  0  0
   -7.3902   22.8854    0.4863 C   0  0  0  0  0  0  0  0  0  0  0  0
   -7.4175   23.7486   -0.6070 C   0  0  0  0  0  0  0  0  0  0  0  0
   -6.7594   24.9750   -0.5417 C   0  0  0  0  0  0  0  0  0  0  0  0
   -6.0726   25.3401    0.6196 C   0  0  0  0  0  0  0  0  0  0  0  0
 10 11  1  0  0  0
 11  1  1  0  0  0
  1  2  1  0  0  0
  2  3  1  0  0  0
  3 13  1  0  0  0
 13 14  1  0  0  0
 14 15  2  0  0  0
 15 16  1  0  0  0
 16 19  1  0  0  0
 19 20  2  0  0  0
 20 21  1  0  0  0
 21 22  2  0  0  0
 22 23  1  0  0  0
 23 24  2  0  0  0
 16 17  2  0  0  0
 17 18  1  0  0  0
  3  4  1  0  0  0
  4  5  2  0  0  0
  5  6  1  0  0  0
  6  7  2  0  0  0
  7  8  1  0  0  0
  8  9  2  0  0  0
  9  1  1  0  0  0
 18 14  1  0  0  0
  9  4  1  0  0  0
 24 19  1  0  0  0
 10 12  1  0  0  0
M  END
> <minimizedAffinity>
-9.46421

$$$$
OCNT-2318103


 22 24  0  0  0  0  0  0  0  0999 V2000
   -2.7313   27.2823    6.2589 N   0  0  0  0  0  0  0  0  0  0  0  0
   -2.1110   26.2445    5.4125 C   0  0  0  0  0  0  0  0  0  0  0  0
   -2.5254   26.3806    3.9285 C   0  0  0  0  0  0  0  0  0  0  0  0
   -3.9957   26.3509    3.7469 N   0  0  0  0  0  0  0  0  0  0  0  0
   -4.7750   26.9637    4.8639 C   0  0  0  0  0  0  0  0  0  0  0  0
   -5.9910   27.6978    4.2936 C   0  0  0  0  0  0  0  0  0  0  0  0
   -3.9018   27.9668    5.6713 C   0  0  0  0  0  0  0  0  0  0  0  0
   -1.6463   29.7923    8.5821 C   0  0  0  0  0  0  0  0  0  0  0  0
   -0.3139   29.6429    8.6627 N   0  0  0  0  0  0  0  0  0  0  0  0
    0.2087   28.6585    7.9174 C   0  0  0  0  0  0  0  0  0  0  0  0
   -0.5400   27.8464    7.0973 C   0  0  0  0  0  0  0  0  0  0  0  0
   -1.9026   28.0753    7.0501 C   0  0  0  0  0  0  0  0  0  0  0  0
   -2.4545   29.0404    7.8079 N   0  0  0  0  0  0  0  0  0  0  0  0
   -3.7993   30.7562    9.4205 C   0  0  0  0  0  0  0  0  0  0  0  0
   -2.2762   30.8809    9.4211 C   0  0  0  0  0  0  0  0  0  0  0  0
   -1.8368   32.2628    8.9385 C   0  0  0  0  0  0  0  0  0  0  0  0
   -4.4960   25.1323    3.2616 C   0  0  0  0  0  0  0  0  0  0  0  0
   -4.5284   24.8625    1.8848 C   0  0  0  0  0  0  0  0  0  0  0  0
   -4.9951   23.7113    1.3330 N   0  0  0  0  0  0  0  0  0  0  0  0
   -5.4693   22.8158    2.2197 C   0  0  0  0  0  0  0  0  0  0  0  0
   -5.4714   23.0621    3.5791 C   0  0  0  0  0  0  0  0  0  0  0  0
   -4.9927   24.2099    4.1164 N   0  0  0  0  0  0  0  0  0  0  0  0
 14 15  1  0  0  0
 15 16  1  0  0  0
 15  8  1  0  0  0
  8  9  2  0  0  0
  9 10  1  0  0  0
 10 11  2  0  0  0
 11 12  1  0  0  0
 12  1  1  0  0  0
  1  2  1  0  0  0
  2  3  1  0  0  0
  3  4  1  0  0  0
  4 17  1  0  0  0
 17 18  2  0  0  0
 18 19  1  0  0  0
 19 20  2  0  0  0
 20 21  1  0  0  0
 21 22  2  0  0  0
  4  5  1  0  0  0
  5  6  1  0  0  0
  5  7  1  0  0  0
 12 13  2  0  0  0
 13  8  1  0  0  0
  7  1  1  0  0  0
 22 17  1  0  0  0
M  END
> <minimizedAffinity>
-8.08461

$$$$
OCNT-2318112


 25 28  0  0  0  0  0  0  0  0999 V2000
   -5.5778   24.9208    0.9573 C   0  0  0  0  0  0  0  0  0  0  0  0
   -5.7302   25.5463    2.3176 C   0  0  0  0  0  0  0  0  0  0  0  0
   -5.8415   26.9384    2.4225 C   0  0  0  0  0  0  0  0  0  0  0  0
   -5.9795   27.5575    3.6699 C   0  0  0  0  0  0  0  0  0  0  0  0
   -5.9665   26.8138    4.8509 C   0  0  0  0  0  0  0  0  0  0  0  0
   -5.9010   25.4181    4.7375 C   0  0  0  0  0  0  0  0  0  0  0  0
   -5.7782   24.7735    3.4918 C   0  0  0  0  0  0  0  0  0  0  0  0
   -5.7080   23.3170    3.4468 C   0  0  0  0  0  0  0  0  0  0  0  0
   -4.6407   22.5752    3.2047 N   0  0  0  0  0  0  0  0  0  0  0  0
   -5.0538   21.2647    3.2578 N   0  0  0  0  0  0  0  0  0  0  0  0
   -6.3522   21.1835    3.5093 N   0  0  0  0  0  0  0  0  0  0  0  0
   -6.7649   22.4540    3.6128 N   0  0  0  0  0  0  0  0  0  0  0  0
   -8.1761   22.8188    3.8566 C   0  0  0  0  0  0  0  0  0  0  0  0
   -8.7095   23.0799    5.2470 C   0  0  0  0  0  0  0  0  0  0  0  0
   -9.1623   21.8662    4.4931 C   0  0  0  0  0  0  0  0  0  0  0  0
   -6.1619   27.3794    6.1225 N   0  0  0  0  0  0  0  0  0  0  0  0
   -5.6026   26.8760    6.8138 H   0  0  0  0  0  0  0  0  0  0  0  0
   -5.8521   28.8139    6.3003 C   0  0  0  0  0  0  0  0  0  0  0  0
   -7.1895   29.5548    6.4397 C   0  0  0  0  0  0  0  0  0  0  0  0
   -4.9694   29.1079    7.4899 C   0  0  0  0  0  0  0  0  0  0  0  0
   -5.3263   29.4526    8.7774 C   0  0  0  0  0  0  0  0  0  0  0  0
   -4.1463   29.6656    9.4348 N   0  0  0  0  0  0  0  0  0  0  0  0
   -3.1324   29.4429    8.5478 C   0  0  0  0  0  0  0  0  0  0  0  0
   -3.5921   29.1063    7.3653 N   0  0  0  0  0  0  0  0  0  0  0  0
   -4.0364   29.9493   10.3987 H   0  0  0  0  0  0  0  0  0  0  0  0
  1  2  1  0  0  0
  2  3  1  0  0  0
  3  4  2  0  0  0
  4  5  1  0  0  0
  5 16  1  0  0  0
 16 18  1  0  0  0
 18 19  1  0  0  0
 18 20  1  0  0  0
 20 21  2  0  0  0
 21 22  1  0  0  0
 22 23  1  0  0  0
 23 24  2  0  0  0
  5  6  2  0  0  0
  6  7  1  0  0  0
  7  8  1  0  0  0
  8  9  2  0  0  0
  9 10  1  0  0  0
 10 11  2  0  0  0
 11 12  1  0  0  0
 12 13  1  0  0  0
 13 14  1  0  0  0
 14 15  1  0  0  0
  7  2  2  0  0  0
 12  8  1  0  0  0
 15 13  1  0  0  0
 24 20  1  0  0  0
 16 17  1  0  0  0
 22 25  1  0  0  0
M  END
> <minimizedAffinity>
-8.35375

$$$$
OCNT-2318116


 28 32  0  0  0  0  0  0  0  0999 V2000
   -6.0716   28.9830    7.2345 C   0  0  0  0  0  0  0  0  0  0  0  0
   -6.5756   28.8767    5.7871 C   0  0  0  0  0  0  0  0  0  0  0  0
   -5.8224   29.7450    4.7930 C   0  0  0  0  0  0  0  0  0  0  0  0
   -6.0858   29.0168    3.4971 C   0  0  0  0  0  0  0  0  0  0  0  0
   -6.0491   27.5566    3.9205 C   0  0  0  0  0  0  0  0  0  0  0  0
   -6.4190   27.5180    5.3176 O   0  0  0  0  0  0  0  0  0  0  0  0
   -4.6974   26.9422    3.8057 C   0  0  0  0  0  0  0  0  0  0  0  0
   -3.7911   26.7564    4.7437 N   0  0  0  0  0  0  0  0  0  0  0  0
   -2.7517   26.1756    4.0667 C   0  0  0  0  0  0  0  0  0  0  0  0
   -2.9617   25.9898    2.7600 N   0  0  0  0  0  0  0  0  0  0  0  0
   -4.1977   26.4902    2.6178 N   0  0  0  0  0  0  0  0  0  0  0  0
   -4.6515   26.4894    1.7110 H   0  0  0  0  0  0  0  0  0  0  0  0
   -1.4302   25.7587    4.7649 C   0  0  0  0  0  0  0  0  0  0  0  0
   -0.7064   26.7590    5.6301 C   0  0  0  0  0  0  0  0  0  0  0  0
   -0.1303   26.3659    4.3010 C   0  0  0  0  0  0  0  0  0  0  0  0
   -4.6416   28.7675    7.4557 N   0  0  0  0  0  0  0  0  0  0  0  0
   -4.0994   29.1911    6.7054 H   0  0  0  0  0  0  0  0  0  0  0  0
   -4.1576   29.2096    8.7587 C   0  0  0  0  0  0  0  0  0  0  0  0
   -0.5566   29.8968    8.4087 C   0  0  0  0  0  0  0  0  0  0  0  0
   -0.9370   30.9852    9.0753 N   0  0  0  0  0  0  0  0  0  0  0  0
   -2.2738   30.8492    9.1926 N   0  0  0  0  0  0  0  0  0  0  0  0
   -2.7365   29.6471    8.7046 C   0  0  0  0  0  0  0  0  0  0  0  0
   -1.6321   29.0367    8.1412 C   0  0  0  0  0  0  0  0  0  0  0  0
   -3.0257   31.9118    9.8490 C   0  0  0  0  0  0  0  0  0  0  0  0
   -3.5200   33.0246    8.9356 C   0  0  0  0  0  0  0  0  0  0  0  0
   -4.5023   32.7124    7.7710 C   0  0  0  0  0  0  0  0  0  0  0  0
   -5.0648   34.1364    7.9697 C   0  0  0  0  0  0  0  0  0  0  0  0
   -4.5830   34.0442    9.4336 C   0  0  0  0  0  0  0  0  0  0  0  0
 19 20  2  0  0  0
 20 21  1  0  0  0
 21 24  1  0  0  0
 24 25  1  0  0  0
 25 26  1  0  0  0
 26 27  1  0  0  0
 27 28  1  0  0  0
 21 22  1  0  0  0
 22 18  1  0  0  0
 18 16  1  0  0  0
 16  1  1  0  0  0
  1  2  1  0  0  0
  2  3  1  0  0  0
  3  4  1  0  0  0
  4  5  1  0  0  0
  5  7  1  0  0  0
  7  8  2  0  0  0
  8  9  1  0  0  0
  9 13  1  0  0  0
 13 14  1  0  0  0
 14 15  1  0  0  0
  9 10  2  0  0  0
 10 11  1  0  0  0
  5  6  1  0  0  0
 22 23  2  0  0  0
 23 19  1  0  0  0
 28 25  1  0  0  0
  6  2  1  0  0  0
 11  7  1  0  0  0
 15 13  1  0  0  0
 16 17  1  0  0  0
 11 12  1  0  0  0
M  END
> <minimizedAffinity>
-8.82526

$$$$
OCNT-2318123


 24 26  0  0  0  0  0  0  0  0999 V2000
   -2.7882   27.4994    6.6683 N   0  0  0  0  0  0  0  0  0  0  0  0
   -2.7039   26.7441    5.5305 C   0  0  0  0  0  0  0  0  0  0  0  0
   -1.6965   26.1195    5.2128 O   0  0  0  0  0  0  0  0  0  0  0  0
   -3.8360   26.7522    4.7552 N   0  0  0  0  0  0  0  0  0  0  0  0
   -5.0477   27.5307    4.9428 C   0  0  0  0  0  0  0  0  0  0  0  0
   -5.7765   27.4331    3.6125 C   0  0  0  0  0  0  0  0  0  0  0  0
   -5.3613   26.0591    3.0802 C   0  0  0  0  0  0  0  0  0  0  0  0
   -3.8952   25.9867    3.5211 C   0  0  0  0  0  0  0  0  0  0  0  0
   -3.7127   27.6349    7.0409 H   0  0  0  0  0  0  0  0  0  0  0  0
   -1.7123   27.5174    7.6333 C   0  0  0  0  0  0  0  0  0  0  0  0
   -2.1015   30.8408    9.0980 N   0  0  0  0  0  0  0  0  0  0  0  0
   -2.6723   29.7062    8.6031 C   0  0  0  0  0  0  0  0  0  0  0  0
   -1.6345   28.8743    8.2313 C   0  0  0  0  0  0  0  0  0  0  0  0
   -0.4754   29.6142    8.5576 C   0  0  0  0  0  0  0  0  0  0  0  0
   -0.7557   30.8124    9.0747 N   0  0  0  0  0  0  0  0  0  0  0  0
   -3.6483   32.6819    8.5664 C   0  0  0  0  0  0  0  0  0  0  0  0
   -2.7927   32.0029    9.6207 C   0  0  0  0  0  0  0  0  0  0  0  0
   -5.4414   25.9889    1.6617 O   0  0  0  0  0  0  0  0  0  0  0  0
   -6.1379   24.9619    1.0913 C   0  0  0  0  0  0  0  0  0  0  0  0
   -6.6107   24.9060   -0.2143 C   0  0  0  0  0  0  0  0  0  0  0  0
   -7.3007   23.7702   -0.6127 C   0  0  0  0  0  0  0  0  0  0  0  0
   -7.5425   22.7123    0.1890 N   0  0  0  0  0  0  0  0  0  0  0  0
   -7.0743   22.7937    1.4510 C   0  0  0  0  0  0  0  0  0  0  0  0
   -6.3761   23.8839    1.9404 C   0  0  0  0  0  0  0  0  0  0  0  0
 16 17  1  0  0  0
 17 11  1  0  0  0
 11 12  1  0  0  0
 12 13  2  0  0  0
 13 10  1  0  0  0
 10  1  1  0  0  0
  1  2  1  0  0  0
  2  3  2  0  0  0
  2  4  1  0  0  0
  4  5  1  0  0  0
  5  6  1  0  0  0
  6  7  1  0  0  0
  7 18  1  0  0  0
 18 19  1  0  0  0
 19 20  2  0  0  0
 20 21  1  0  0  0
 21 22  2  0  0  0
 22 23  1  0  0  0
 23 24  2  0  0  0
  7  8  1  0  0  0
 13 14  1  0  0  0
 14 15  2  0  0  0
 15 11  1  0  0  0
  8  4  1  0  0  0
 24 19  1  0  0  0
  1  9  1  0  0  0
M  END
> <minimizedAffinity>
-8.49241

$$$$
OCNT-2318132


 24 25  0  0  0  0  0  0  0  0999 V2000
   -4.8245   31.0548    6.6123 N   0  0  0  0  0  0  0  0  0  0  0  0
   -5.1918   31.4550    5.7512 H   0  0  0  0  0  0  0  0  0  0  0  0
   -4.0562   32.0792    7.3445 C   0  0  0  0  0  0  0  0  0  0  0  0
   -2.7187   31.5264    7.8150 C   0  0  0  0  0  0  0  0  0  0  0  0
   -2.0237   30.6372    6.9710 C   0  0  0  0  0  0  0  0  0  0  0  0
   -0.7966   30.0859    7.3507 C   0  0  0  0  0  0  0  0  0  0  0  0
   -0.2417   30.4053    8.5867 C   0  0  0  0  0  0  0  0  0  0  0  0
   -0.9191   31.2701    9.4418 C   0  0  0  0  0  0  0  0  0  0  0  0
   -2.1433   31.8168    9.0568 C   0  0  0  0  0  0  0  0  0  0  0  0
   -2.7604   32.6280    9.9269 F   0  0  0  0  0  0  0  0  0  0  0  0
   -4.9557   34.3603    8.0875 C   0  0  0  0  0  0  0  0  0  0  0  0
   -4.9237   32.8593    8.3567 C   0  0  0  0  0  0  0  0  0  0  0  0
   -5.9177   30.4065    7.3658 C   0  0  0  0  0  0  0  0  0  0  0  0
   -5.2892   29.3568    8.3074 C   0  0  0  0  0  0  0  0  0  0  0  0
   -6.2912   28.5434    8.9136 O   0  0  0  0  0  0  0  0  0  0  0  0
   -5.8368   27.9973    9.5783 H   0  0  0  0  0  0  0  0  0  0  0  0
   -7.0394   29.8129    6.4678 C   0  0  0  0  0  0  0  0  0  0  0  0
   -6.6002   28.9221    5.3246 C   0  0  0  0  0  0  0  0  0  0  0  0
   -6.4490   27.5389    5.5137 C   0  0  0  0  0  0  0  0  0  0  0  0
   -6.0450   26.7212    4.4574 C   0  0  0  0  0  0  0  0  0  0  0  0
   -5.7851   27.2851    3.2145 C   0  0  0  0  0  0  0  0  0  0  0  0
   -5.3970   26.4989    2.2018 F   0  0  0  0  0  0  0  0  0  0  0  0
   -5.9167   28.6523    3.0084 C   0  0  0  0  0  0  0  0  0  0  0  0
   -6.3205   29.4712    4.0637 C   0  0  0  0  0  0  0  0  0  0  0  0
 11 12  1  0  0  0
 12  3  1  0  0  0
  3  1  1  0  0  0
  1 13  1  0  0  0
 13 14  1  0  0  0
 14 15  1  0  0  0
 13 17  1  0  0  0
 17 18  1  0  0  0
 18 19  1  0  0  0
 19 20  2  0  0  0
 20 21  1  0  0  0
 21 22  1  0  0  0
 21 23  2  0  0  0
 23 24  1  0  0  0
  3  4  1  0  0  0
  4  5  2  0  0  0
  5  6  1  0  0  0
  6  7  2  0  0  0
  7  8  1  0  0  0
  8  9  2  0  0  0
  9 10  1  0  0  0
 24 18  2  0  0  0
  9  4  1  0  0  0
  1  2  1  0  0  0
 15 16  1  0  0  0
M  END
> <minimizedAffinity>
-9.11388

$$$$
OCNT-2318133


 29 32  0  0  0  0  0  0  0  0999 V2000
   -2.5584   27.2086    5.6503 C   0  0  0  0  0  0  0  0  0  0  0  0
   -1.2901   26.9174    5.3055 N   0  0  0  0  0  0  0  0  0  0  0  0
   -1.0903   26.2486    4.1577 C   0  0  0  0  0  0  0  0  0  0  0  0
   -2.0663   25.8554    3.3244 N   0  0  0  0  0  0  0  0  0  0  0  0
   -3.3188   26.1852    3.6447 C   0  0  0  0  0  0  0  0  0  0  0  0
   -4.3401   25.8225    2.7741 C   0  0  0  0  0  0  0  0  0  0  0  0
   -5.6750   26.1556    3.0181 C   0  0  0  0  0  0  0  0  0  0  0  0
   -6.0053   26.8778    4.1550 C   0  0  0  0  0  0  0  0  0  0  0  0
   -4.9978   27.2466    5.0433 C   0  0  0  0  0  0  0  0  0  0  0  0
   -3.6440   26.8872    4.8107 C   0  0  0  0  0  0  0  0  0  0  0  0
   -1.5884   30.6687    7.8154 N   0  0  0  0  0  0  0  0  0  0  0  0
   -0.4337   29.8373    8.1796 C   0  0  0  0  0  0  0  0  0  0  0  0
   -0.4327   28.4368    7.5787 C   0  0  0  0  0  0  0  0  0  0  0  0
   -1.7094   27.6522    7.8784 C   0  0  0  0  0  0  0  0  0  0  0  0
   -2.7753   27.8541    6.8840 N   0  0  0  0  0  0  0  0  0  0  0  0
   -3.3569   29.2078    6.7859 C   0  0  0  0  0  0  0  0  0  0  0  0
   -2.3440   30.3444    6.5849 C   0  0  0  0  0  0  0  0  0  0  0  0
   -0.8823   32.1683    9.7423 N   0  0  0  0  0  0  0  0  0  0  0  0
   -2.2643   31.6807    8.9469 S   0  0  0  0  0  0  0  0  0  0  0  0
   -3.0386   30.9368    9.9049 O   0  0  0  0  0  0  0  0  0  0  0  0
   -2.7528   32.8687    8.2942 O   0  0  0  0  0  0  0  0  0  0  0  0
   -1.1350   32.3932   10.7059 H   0  0  0  0  0  0  0  0  0  0  0  0
   -0.5126   32.9932    9.2712 H   0  0  0  0  0  0  0  0  0  0  0  0
    0.2983   25.9118    3.7892 C   0  0  0  0  0  0  0  0  0  0  0  0
    0.8974   24.7085    4.1911 C   0  0  0  0  0  0  0  0  0  0  0  0
    2.2048   24.4370    3.8180 C   0  0  0  0  0  0  0  0  0  0  0  0
    2.9610   25.2703    3.0768 N   0  0  0  0  0  0  0  0  0  0  0  0
    2.3838   26.4262    2.6941 C   0  0  0  0  0  0  0  0  0  0  0  0
    1.0842   26.7830    3.0188 C   0  0  0  0  0  0  0  0  0  0  0  0
 18 19  1  0  0  0
 19 20  2  0  0  0
 19 21  2  0  0  0
 19 11  1  0  0  0
 11 12  1  0  0  0
 12 13  1  0  0  0
 13 14  1  0  0  0
 14 15  1  0  0  0
 15  1  1  0  0  0
  1  2  1  0  0  0
  2  3  2  0  0  0
  3 24  1  0  0  0
 24 25  2  0  0  0
 25 26  1  0  0  0
 26 27  2  0  0  0
 27 28  1  0  0  0
 28 29  2  0  0  0
  3  4  1  0  0  0
  4  5  2  0  0  0
  5  6  1  0  0  0
  6  7  2  0  0  0
  7  8  1  0  0  0
  8  9  2  0  0  0
  9 10  1  0  0  0
 15 16  1  0  0  0
 16 17  1  0  0  0
 17 11  1  0  0  0
 10  1  2  0  0  0
 29 24  1  0  0  0
 10  5  1  0  0  0
 18 22  1  0  0  0
 18 23  1  0  0  0
M  END
> <minimizedAffinity>
-9.49258

$$$$
OCNT-2318150


 26 29  0  0  0  0  0  0  0  0999 V2000
   -4.5876   26.5499    4.0923 N   0  0  0  0  0  0  0  0  0  0  0  0
   -3.3243   26.3704    4.6157 C   0  0  0  0  0  0  0  0  0  0  0  0
   -2.5365   25.4947    4.2698 O   0  0  0  0  0  0  0  0  0  0  0  0
   -2.9863   27.3236    5.5888 N   0  0  0  0  0  0  0  0  0  0  0  0
   -1.6346   27.2356    6.1345 C   0  0  0  0  0  0  0  0  0  0  0  0
   -1.1533   28.5887    6.6499 C   0  0  0  0  0  0  0  0  0  0  0  0
   -2.1564   29.2195    7.5796 C   0  0  0  0  0  0  0  0  0  0  0  0
   -1.7458   30.2026    8.4921 C   0  0  0  0  0  0  0  0  0  0  0  0
   -2.6769   30.8072    9.3341 C   0  0  0  0  0  0  0  0  0  0  0  0
   -2.1634   32.0063   10.4560 Cl  0  0  0  0  0  0  0  0  0  0  0  0
   -4.0203   30.4480    9.2729 C   0  0  0  0  0  0  0  0  0  0  0  0
   -4.4378   29.4802    8.3573 C   0  0  0  0  0  0  0  0  0  0  0  0
   -3.5146   28.8646    7.4962 C   0  0  0  0  0  0  0  0  0  0  0  0
   -4.0030   27.8156    6.5214 C   0  0  0  0  0  0  0  0  0  0  0  0
   -4.8995   27.5065    4.1043 H   0  0  0  0  0  0  0  0  0  0  0  0
   -5.7896   24.1954    5.2801 C   0  0  0  0  0  0  0  0  0  0  0  0
   -5.8863   24.5109    3.8102 C   0  0  0  0  0  0  0  0  0  0  0  0
   -6.5922   23.6046    2.9888 C   0  0  0  0  0  0  0  0  0  0  0  0
   -6.7141   23.8475    1.6090 C   0  0  0  0  0  0  0  0  0  0  0  0
   -6.1232   24.9904    1.0822 C   0  0  0  0  0  0  0  0  0  0  0  0
   -5.4140   25.9081    1.8687 C   0  0  0  0  0  0  0  0  0  0  0  0
   -5.3070   25.6694    3.2480 C   0  0  0  0  0  0  0  0  0  0  0  0
   -6.3825   24.9965   -0.2698 N   0  0  0  0  0  0  0  0  0  0  0  0
   -7.1167   23.8924   -0.6143 C   0  0  0  0  0  0  0  0  0  0  0  0
   -7.3373   23.1612    0.5309 C   0  0  0  0  0  0  0  0  0  0  0  0
   -6.0760   25.7196   -0.9064 H   0  0  0  0  0  0  0  0  0  0  0  0
 16 17  1  0  0  0
 17 18  1  0  0  0
 18 19  2  0  0  0
 19 20  1  0  0  0
 20 21  2  0  0  0
 21 22  1  0  0  0
 22  1  1  0  0  0
  1  2  1  0  0  0
  2  3  2  0  0  0
  2  4  1  0  0  0
  4  5  1  0  0  0
  5  6  1  0  0  0
  6  7  1  0  0  0
  7  8  1  0  0  0
  8  9  2  0  0  0
  9 10  1  0  0  0
  9 11  1  0  0  0
 11 12  2  0  0  0
 12 13  1  0  0  0
 13 14  1  0  0  0
 20 23  1  0  0  0
 23 24  1  0  0  0
 24 25  2  0  0  0
 22 17  2  0  0  0
 14  4  1  0  0  0
 25 19  1  0  0  0
 13  7  2  0  0  0
  1 15  1  0  0  0
 23 26  1  0  0  0
M  END
> <minimizedAffinity>
-9.92002

$$$$
OCNT-2318152


 29 31  0  0  0  0  0  0  0  0999 V2000
   -3.6204   25.9920    4.2449 C   0  0  0  0  0  0  0  0  0  0  0  0
   -3.6075   26.4226    5.4942 N   0  0  0  0  0  0  0  0  0  0  0  0
   -2.3036   26.5008    5.9649 C   0  0  0  0  0  0  0  0  0  0  0  0
   -1.3314   26.2188    5.0165 C   0  0  0  0  0  0  0  0  0  0  0  0
   -2.0712   25.8641    3.5155 S   0  0  0  0  0  0  0  0  0  0  0  0
   -4.7881   25.8181    3.4951 N   0  0  0  0  0  0  0  0  0  0  0  0
   -5.0078   24.5739    2.8729 C   0  0  0  0  0  0  0  0  0  0  0  0
   -4.5110   23.5265    3.2979 O   0  0  0  0  0  0  0  0  0  0  0  0
   -5.8508   24.5363    1.6836 C   0  0  0  0  0  0  0  0  0  0  0  0
   -6.8896   23.6787    1.3679 C   0  0  0  0  0  0  0  0  0  0  0  0
   -7.3509   24.0271    0.0853 C   0  0  0  0  0  0  0  0  0  0  0  0
   -6.5592   25.0743   -0.3257 C   0  0  0  0  0  0  0  0  0  0  0  0
   -5.6428   25.3833    0.6256 O   0  0  0  0  0  0  0  0  0  0  0  0
   -5.9354   26.6922    3.8051 C   0  0  0  0  0  0  0  0  0  0  0  0
   -5.8592   28.0381    3.0763 C   0  0  0  0  0  0  0  0  0  0  0  0
   -6.4186   28.5714    5.3082 C   0  0  0  0  0  0  0  0  0  0  0  0
   -6.1382   29.0843    4.0120 O   0  0  0  0  0  0  0  0  0  0  0  0
   -2.0749   26.9317    7.3760 C   0  0  0  0  0  0  0  0  0  0  0  0
   -2.1038   28.4482    7.4951 C   0  0  0  0  0  0  0  0  0  0  0  0
   -1.3971   29.1454    6.7741 O   0  0  0  0  0  0  0  0  0  0  0  0
   -2.9816   28.9006    8.4624 N   0  0  0  0  0  0  0  0  0  0  0  0
   -3.5310   28.1848    8.9309 H   0  0  0  0  0  0  0  0  0  0  0  0
   -3.3499   30.2346    8.7377 C   0  0  0  0  0  0  0  0  0  0  0  0
   -2.5436   31.1428    9.4249 C   0  0  0  0  0  0  0  0  0  0  0  0
   -2.9630   32.4677    9.6072 C   0  0  0  0  0  0  0  0  0  0  0  0
   -4.1934   32.8826    9.1141 C   0  0  0  0  0  0  0  0  0  0  0  0
   -4.7101   34.5146    9.3253 Cl  0  0  0  0  0  0  0  0  0  0  0  0
   -5.0160   31.9807    8.4528 C   0  0  0  0  0  0  0  0  0  0  0  0
   -4.5907   30.6593    8.2660 C   0  0  0  0  0  0  0  0  0  0  0  0
 16 17  1  0  0  0
 17 15  1  0  0  0
 15 14  1  0  0  0
 14  6  1  0  0  0
  6  7  1  0  0  0
  7  8  2  0  0  0
  7  9  1  0  0  0
  9 10  2  0  0  0
 10 11  1  0  0  0
 11 12  2  0  0  0
 12 13  1  0  0  0
  6  1  1  0  0  0
  1  2  2  0  0  0
  2  3  1  0  0  0
  3 18  1  0  0  0
 18 19  1  0  0  0
 19 20  2  0  0  0
 19 21  1  0  0  0
 21 23  1  0  0  0
 23 24  1  0  0  0
 24 25  2  0  0  0
 25 26  1  0  0  0
 26 27  1  0  0  0
 26 28  2  0  0  0
 28 29  1  0  0  0
  3  4  2  0  0  0
  4  5  1  0  0  0
 13  9  1  0  0  0
  5  1  1  0  0  0
 29 23  2  0  0  0
 21 22  1  0  0  0
M  END
> <minimizedAffinity>
-8.80180

$$$$
OCNT-2318156


 30 33  0  0  0  0  0  0  0  0999 V2000
   -6.5227   28.7888    7.9984 O   0  0  0  0  0  0  0  0  0  0  0  0
   -6.2548   29.5488    7.0747 C   0  0  0  0  0  0  0  0  0  0  0  0
   -6.0080   30.8937    7.2379 N   0  0  0  0  0  0  0  0  0  0  0  0
   -5.5415   31.3958    6.4850 H   0  0  0  0  0  0  0  0  0  0  0  0
   -6.1432   29.0230    5.6849 C   0  0  0  0  0  0  0  0  0  0  0  0
   -6.1707   29.8673    4.5681 C   0  0  0  0  0  0  0  0  0  0  0  0
   -6.0668   29.3298    3.2852 C   0  0  0  0  0  0  0  0  0  0  0  0
   -5.9411   27.9492    3.1127 C   0  0  0  0  0  0  0  0  0  0  0  0
   -5.9244   27.0864    4.2197 C   0  0  0  0  0  0  0  0  0  0  0  0
   -6.0315   27.6367    5.5055 C   0  0  0  0  0  0  0  0  0  0  0  0
   -5.7986   25.6426    4.0460 C   0  0  0  0  0  0  0  0  0  0  0  0
   -5.5724   24.7809    5.0516 N   0  0  0  0  0  0  0  0  0  0  0  0
   -5.5298   23.5377    4.4281 O   0  0  0  0  0  0  0  0  0  0  0  0
   -5.7338   23.7580    3.0969 C   0  0  0  0  0  0  0  0  0  0  0  0
   -5.9058   25.0355    2.8131 N   0  0  0  0  0  0  0  0  0  0  0  0
   -5.7283   22.5474    2.2391 C   0  0  0  0  0  0  0  0  0  0  0  0
   -5.1891   22.7912    1.0134 F   0  0  0  0  0  0  0  0  0  0  0  0
   -6.9833   22.0687    2.0187 F   0  0  0  0  0  0  0  0  0  0  0  0
   -5.0137   21.5217    2.7753 F   0  0  0  0  0  0  0  0  0  0  0  0
   -5.9035   31.5110    8.5487 C   0  0  0  0  0  0  0  0  0  0  0  0
   -4.8071   32.5876    8.4760 C   0  0  0  0  0  0  0  0  0  0  0  0
   -4.8724   33.6609    9.6264 C   0  0  0  0  0  0  0  0  0  0  0  0
   -4.5915   34.7352    8.5609 C   0  0  0  0  0  0  0  0  0  0  0  0
   -5.2097   33.7767    7.5273 C   0  0  0  0  0  0  0  0  0  0  0  0
   -3.3803   31.8936    8.2339 C   0  0  0  0  0  0  0  0  0  0  0  0
   -2.4346   31.6118    9.2217 C   0  0  0  0  0  0  0  0  0  0  0  0
   -1.2269   31.0103    8.8731 C   0  0  0  0  0  0  0  0  0  0  0  0
   -0.9784   30.7014    7.5442 C   0  0  0  0  0  0  0  0  0  0  0  0
   -1.9499   31.0171    6.6142 C   0  0  0  0  0  0  0  0  0  0  0  0
   -3.1248   31.6103    6.9249 N   0  0  0  0  0  0  0  0  0  0  0  0
  1  2  2  0  0  0
  2  3  1  0  0  0
  3 20  1  0  0  0
 20 21  1  0  0  0
 21 25  1  0  0  0
 25 26  2  0  0  0
 26 27  1  0  0  0
 27 28  2  0  0  0
 28 29  1  0  0  0
 29 30  2  0  0  0
 21 22  1  0  0  0
 22 23  1  0  0  0
 23 24  1  0  0  0
  2  5  1  0  0  0
  5  6  1  0  0  0
  6  7  2  0  0  0
  7  8  1  0  0  0
  8  9  2  0  0  0
  9 11  1  0  0  0
 11 12  2  0  0  0
 12 13  1  0  0  0
 13 14  1  0  0  0
 14 16  1  0  0  0
 16 17  1  0  0  0
 16 18  1  0  0  0
 16 19  1  0  0  0
 14 15  2  0  0  0
  9 10  1  0  0  0
 24 21  1  0  0  0
 10  5  2  0  0  0
 30 25  1  0  0  0
 15 11  1  0  0  0
  3  4  1  0  0  0
M  END
> <minimizedAffinity>
-10.97351

$$$$
OCNT-2318165


 26 29  0  0  0  0  0  0  0  0999 V2000
   -3.3088   30.1409    6.8833 O   0  0  0  0  0  0  0  0  0  0  0  0
   -3.5081   29.0042    7.2990 C   0  0  0  0  0  0  0  0  0  0  0  0
   -4.7659   28.5690    7.6812 N   0  0  0  0  0  0  0  0  0  0  0  0
   -4.9189   27.5916    7.8936 H   0  0  0  0  0  0  0  0  0  0  0  0
   -2.4364   27.9397    7.4312 C   0  0  0  0  0  0  0  0  0  0  0  0
   -1.0803   28.5708    7.7695 C   0  0  0  0  0  0  0  0  0  0  0  0
   -0.0227   27.8326    7.1141 O   0  0  0  0  0  0  0  0  0  0  0  0
   -0.6661   27.1736    6.1003 C   0  0  0  0  0  0  0  0  0  0  0  0
   -0.0167   26.5023    5.0842 C   0  0  0  0  0  0  0  0  0  0  0  0
   -0.7975   25.8613    4.1210 C   0  0  0  0  0  0  0  0  0  0  0  0
   -2.1989   25.8982    4.2014 C   0  0  0  0  0  0  0  0  0  0  0  0
   -2.8349   26.5727    5.2476 C   0  0  0  0  0  0  0  0  0  0  0  0
   -2.0492   27.2155    6.1904 C   0  0  0  0  0  0  0  0  0  0  0  0
   -5.9300   29.4345    7.5825 C   0  0  0  0  0  0  0  0  0  0  0  0
   -7.0200   28.8533    6.6775 C   0  0  0  0  0  0  0  0  0  0  0  0
   -6.5224   28.6010    5.2892 C   0  0  0  0  0  0  0  0  0  0  0  0
   -6.1977   29.5639    4.3536 C   0  0  0  0  0  0  0  0  0  0  0  0
   -5.7803   28.9357    3.2123 N   0  0  0  0  0  0  0  0  0  0  0  0
   -5.8207   27.5714    3.3806 C   0  0  0  0  0  0  0  0  0  0  0  0
   -5.4851   26.5427    2.4926 C   0  0  0  0  0  0  0  0  0  0  0  0
   -5.6338   25.2344    2.9492 C   0  0  0  0  0  0  0  0  0  0  0  0
   -5.3227   24.2211    2.1289 F   0  0  0  0  0  0  0  0  0  0  0  0
   -6.0949   24.9505    4.2276 C   0  0  0  0  0  0  0  0  0  0  0  0
   -6.4261   25.9909    5.1031 C   0  0  0  0  0  0  0  0  0  0  0  0
   -6.2869   27.3292    4.6750 C   0  0  0  0  0  0  0  0  0  0  0  0
   -5.4847   29.4026    2.3659 H   0  0  0  0  0  0  0  0  0  0  0  0
  1  2  2  0  0  0
  2  3  1  0  0  0
  3 14  1  0  0  0
 14 15  1  0  0  0
 15 16  1  0  0  0
 16 17  2  0  0  0
 17 18  1  0  0  0
 18 19  1  0  0  0
 19 20  2  0  0  0
 20 21  1  0  0  0
 21 22  1  0  0  0
 21 23  2  0  0  0
 23 24  1  0  0  0
 24 25  2  0  0  0
  2  5  1  0  0  0
  5  6  1  0  0  0
  6  7  1  0  0  0
  7  8  1  0  0  0
  8  9  2  0  0  0
  9 10  1  0  0  0
 10 11  2  0  0  0
 11 12  1  0  0  0
 12 13  2  0  0  0
 25 16  1  0  0  0
 13  5  1  0  0  0
 25 19  1  0  0  0
 13  8  1  0  0  0
  3  4  1  0  0  0
 18 26  1  0  0  0
M  END
> <minimizedAffinity>
-9.40396

$$$$
OCNT-2318171


 27 30  0  0  0  0  0  0  0  0999 V2000
   -6.1878   29.5511    6.8449 C   0  0  0  0  0  0  0  0  0  0  0  0
   -6.9395   28.9586    7.6156 O   0  0  0  0  0  0  0  0  0  0  0  0
   -5.0898   30.2785    7.2596 N   0  0  0  0  0  0  0  0  0  0  0  0
   -4.3999   30.4440    6.5238 H   0  0  0  0  0  0  0  0  0  0  0  0
   -4.5925   30.2009    8.6246 C   0  0  0  0  0  0  0  0  0  0  0  0
   -5.1746   31.2995    9.5286 C   0  0  0  0  0  0  0  0  0  0  0  0
   -4.9810   32.7211    9.0049 C   0  0  0  0  0  0  0  0  0  0  0  0
   -3.5998   32.9655    8.4195 C   0  0  0  0  0  0  0  0  0  0  0  0
   -2.5898   32.4340    9.2761 O   0  0  0  0  0  0  0  0  0  0  0  0
   -2.2008   31.1627    8.9435 C   0  0  0  0  0  0  0  0  0  0  0  0
   -0.8198   30.9521    8.9874 C   0  0  0  0  0  0  0  0  0  0  0  0
   -0.2953   29.7133    8.6465 C   0  0  0  0  0  0  0  0  0  0  0  0
    1.0317   29.5261    8.6726 F   0  0  0  0  0  0  0  0  0  0  0  0
   -1.1260   28.6710    8.2667 C   0  0  0  0  0  0  0  0  0  0  0  0
   -2.5069   28.8681    8.2529 C   0  0  0  0  0  0  0  0  0  0  0  0
   -3.0729   30.1103    8.6153 C   0  0  0  0  0  0  0  0  0  0  0  0
   -6.4205   29.5720    5.3441 C   0  0  0  0  0  0  0  0  0  0  0  0
   -2.0622   26.0882    5.5446 C   0  0  0  0  0  0  0  0  0  0  0  0
   -3.0887   26.0386    4.4416 C   0  0  0  0  0  0  0  0  0  0  0  0
   -2.9773   25.1217    3.4485 C   0  0  0  0  0  0  0  0  0  0  0  0
   -3.9309   25.0263    2.3526 C   0  0  0  0  0  0  0  0  0  0  0  0
   -4.9681   25.8774    2.3171 C   0  0  0  0  0  0  0  0  0  0  0  0
   -5.0969   26.8215    3.3288 N   0  0  0  0  0  0  0  0  0  0  0  0
   -6.0612   27.7802    3.5056 C   0  0  0  0  0  0  0  0  0  0  0  0
   -5.7231   28.4446    4.6657 C   0  0  0  0  0  0  0  0  0  0  0  0
   -4.5674   27.9155    5.2050 N   0  0  0  0  0  0  0  0  0  0  0  0
   -4.2066   26.9431    4.3912 C   0  0  0  0  0  0  0  0  0  0  0  0
 18 19  1  0  0  0
 19 20  2  0  0  0
 20 21  1  0  0  0
 21 22  2  0  0  0
 22 23  1  0  0  0
 23 24  1  0  0  0
 24 25  2  0  0  0
 25 17  1  0  0  0
 17  1  1  0  0  0
  1  2  2  0  0  0
  1  3  1  0  0  0
  3  5  1  0  0  0
  5  6  1  0  0  0
  6  7  1  0  0  0
  7  8  1  0  0  0
  8  9  1  0  0  0
  9 10  1  0  0  0
 10 11  1  0  0  0
 11 12  2  0  0  0
 12 13  1  0  0  0
 12 14  1  0  0  0
 14 15  2  0  0  0
 15 16  1  0  0  0
 25 26  1  0  0  0
 26 27  2  0  0  0
 27 19  1  0  0  0
 27 23  1  0  0  0
 16  5  1  0  0  0
 16 10  2  0  0  0
  3  4  1  0  0  0
M  END
> <minimizedAffinity>
-9.82715

$$$$
OCNT-2318184


 33 35  0  0  0  0  0  0  0  0999 V2000
   -5.2743   28.3984    5.8831 C   0  0  0  0  0  0  0  0  0  0  0  0
   -4.8930   27.4182    4.9646 C   0  0  0  0  0  0  0  0  0  0  0  0
   -5.2873   27.5154    3.6263 C   0  0  0  0  0  0  0  0  0  0  0  0
   -6.0515   28.6087    3.2062 C   0  0  0  0  0  0  0  0  0  0  0  0
   -6.4313   29.5891    4.1263 C   0  0  0  0  0  0  0  0  0  0  0  0
   -6.0455   29.4986    5.4727 C   0  0  0  0  0  0  0  0  0  0  0  0
   -6.4575   30.5814    6.4309 C   0  0  0  0  0  0  0  0  0  0  0  0
   -4.8413   26.4567    2.6812 C   0  0  0  0  0  0  0  0  0  0  0  0
   -3.6753   26.0807    2.6834 O   0  0  0  0  0  0  0  0  0  0  0  0
   -5.8096   25.9270    1.8562 N   0  0  0  0  0  0  0  0  0  0  0  0
   -6.7817   26.1348    2.0399 H   0  0  0  0  0  0  0  0  0  0  0  0
   -5.5130   24.8350    0.9405 C   0  0  0  0  0  0  0  0  0  0  0  0
   -6.2386   25.0182   -0.3968 C   0  0  0  0  0  0  0  0  0  0  0  0
   -5.8526   23.5158    1.5970 C   0  0  0  0  0  0  0  0  0  0  0  0
   -4.9016   22.7332    2.2628 C   0  0  0  0  0  0  0  0  0  0  0  0
   -5.2738   21.5160    2.8258 C   0  0  0  0  0  0  0  0  0  0  0  0
   -6.5904   21.1097    2.6972 C   0  0  0  0  0  0  0  0  0  0  0  0
   -7.5346   21.8260    2.0536 N   0  0  0  0  0  0  0  0  0  0  0  0
   -7.1466   23.0066    1.5196 C   0  0  0  0  0  0  0  0  0  0  0  0
   -4.8143   28.2928    7.2273 N   0  0  0  0  0  0  0  0  0  0  0  0
   -5.4796   28.4791    7.9758 H   0  0  0  0  0  0  0  0  0  0  0  0
   -3.3002   28.9579    7.6092 S   0  0  0  0  0  0  0  0  0  0  0  0
   -2.6190   29.1363    6.3426 O   0  0  0  0  0  0  0  0  0  0  0  0
   -2.6867   28.1397    8.6320 O   0  0  0  0  0  0  0  0  0  0  0  0
   -4.6896   34.5363    9.7322 C   0  0  0  0  0  0  0  0  0  0  0  0
   -4.3715   33.1704    9.2005 C   0  0  0  0  0  0  0  0  0  0  0  0
   -5.0384   32.0455    9.6865 C   0  0  0  0  0  0  0  0  0  0  0  0
   -4.7392   30.7490    9.2241 C   0  0  0  0  0  0  0  0  0  0  0  0
   -5.5345   29.6205    9.8234 C   0  0  0  0  0  0  0  0  0  0  0  0
   -3.7299   30.5889    8.2430 C   0  0  0  0  0  0  0  0  0  0  0  0
   -3.0380   31.7260    7.7477 C   0  0  0  0  0  0  0  0  0  0  0  0
   -1.9323   31.6640    6.7257 C   0  0  0  0  0  0  0  0  0  0  0  0
   -3.3657   32.9990    8.2500 C   0  0  0  0  0  0  0  0  0  0  0  0
 25 26  1  0  0  0
 26 27  2  0  0  0
 27 28  1  0  0  0
 28 29  1  0  0  0
 28 30  2  0  0  0
 30 22  1  0  0  0
 22 23  2  0  0  0
 22 24  2  0  0  0
 22 20  1  0  0  0
 20  1  1  0  0  0
  1  2  1  0  0  0
  2  3  2  0  0  0
  3  8  1  0  0  0
  8  9  2  0  0  0
  8 10  1  0  0  0
 10 12  1  0  0  0
 12 13  1  0  0  0
 12 14  1  0  0  0
 14 15  1  0  0  0
 15 16  2  0  0  0
 16 17  1  0  0  0
 17 18  2  0  0  0
 18 19  1  0  0  0
  3  4  1  0  0  0
  4  5  2  0  0  0
  5  6  1  0  0  0
  6  7  1  0  0  0
 30 31  1  0  0  0
 31 32  1  0  0  0
 31 33  2  0  0  0
 33 26  1  0  0  0
  6  1  2  0  0  0
 19 14  2  0  0  0
 20 21  1  0  0  0
 10 11  1  0  0  0
M  END
> <minimizedAffinity>
-10.40407

$$$$
OCNT-2318193


 25 28  0  0  0  0  0  0  0  0999 V2000
   -4.2985   33.4882    9.4849 C   0  0  0  0  0  0  0  0  0  0  0  0
   -3.8045   32.4286    8.6074 N   0  0  0  0  0  0  0  0  0  0  0  0
   -4.4337   32.5172    7.2769 C   0  0  0  0  0  0  0  0  0  0  0  0
   -4.0038   31.3701    6.3435 C   0  0  0  0  0  0  0  0  0  0  0  0
   -4.2565   30.0186    6.9278 N   0  0  0  0  0  0  0  0  0  0  0  0
   -3.6479   29.8875    8.2975 C   0  0  0  0  0  0  0  0  0  0  0  0
   -4.0597   31.0955    9.2011 C   0  0  0  0  0  0  0  0  0  0  0  0
   -2.1554   29.5791    8.1881 C   0  0  0  0  0  0  0  0  0  0  0  0
   -1.7502   28.5610    7.3038 C   0  0  0  0  0  0  0  0  0  0  0  0
   -0.4025   28.2296    7.1544 C   0  0  0  0  0  0  0  0  0  0  0  0
    0.5656   28.9136    7.8834 C   0  0  0  0  0  0  0  0  0  0  0  0
    0.1853   29.9290    8.7575 C   0  0  0  0  0  0  0  0  0  0  0  0
   -1.1642   30.2611    8.9079 C   0  0  0  0  0  0  0  0  0  0  0  0
   -5.8305   29.4071    6.8041 S   0  0  0  0  0  0  0  0  0  0  0  0
   -6.7110   30.4538    6.3351 O   0  0  0  0  0  0  0  0  0  0  0  0
   -6.1203   28.6737    8.0195 O   0  0  0  0  0  0  0  0  0  0  0  0
   -5.8361   28.1572    5.5188 C   0  0  0  0  0  0  0  0  0  0  0  0
   -5.6689   28.2736    4.1426 C   0  0  0  0  0  0  0  0  0  0  0  0
   -5.7713   26.9788    3.5792 C   0  0  0  0  0  0  0  0  0  0  0  0
   -5.6962   26.4339    2.2857 C   0  0  0  0  0  0  0  0  0  0  0  0
   -5.8547   25.0491    2.1304 C   0  0  0  0  0  0  0  0  0  0  0  0
   -6.0824   24.2217    3.2334 C   0  0  0  0  0  0  0  0  0  0  0  0
   -6.1602   24.7474    4.5273 C   0  0  0  0  0  0  0  0  0  0  0  0
   -5.9992   26.1255    4.6479 C   0  0  0  0  0  0  0  0  0  0  0  0
   -6.0429   26.8232    5.8118 O   0  0  0  0  0  0  0  0  0  0  0  0
  1  2  1  0  0  0
  2  3  1  0  0  0
  3  4  1  0  0  0
  4  5  1  0  0  0
  5 14  1  0  0  0
 14 15  2  0  0  0
 14 16  2  0  0  0
 14 17  1  0  0  0
 17 18  2  0  0  0
 18 19  1  0  0  0
 19 20  2  0  0  0
 20 21  1  0  0  0
 21 22  2  0  0  0
 22 23  1  0  0  0
 23 24  2  0  0  0
 24 25  1  0  0  0
  5  6  1  0  0  0
  6  8  1  0  0  0
  8  9  2  0  0  0
  9 10  1  0  0  0
 10 11  2  0  0  0
 11 12  1  0  0  0
 12 13  2  0  0  0
  6  7  1  0  0  0
  7  2  1  0  0  0
 25 17  1  0  0  0
 13  8  1  0  0  0
 24 19  1  0  0  0
M  END
> <minimizedAffinity>
-9.60606

$$$$
OCNT-2318205


 27 29  0  0  0  0  0  0  0  0999 V2000
   -5.1270   29.8437    6.0180 N   0  0  0  0  0  0  0  0  0  0  0  0
   -5.7822   30.1874    7.1773 C   0  0  0  0  0  0  0  0  0  0  0  0
   -6.7360   29.5966    7.6716 O   0  0  0  0  0  0  0  0  0  0  0  0
   -5.2728   31.3101    7.7780 N   0  0  0  0  0  0  0  0  0  0  0  0
   -5.6074   31.8476    9.0831 C   0  0  0  0  0  0  0  0  0  0  0  0
   -4.5170   32.8935    8.8454 C   0  0  0  0  0  0  0  0  0  0  0  0
   -4.0460   32.0801    7.6214 C   0  0  0  0  0  0  0  0  0  0  0  0
   -4.4607   30.5232    5.6878 H   0  0  0  0  0  0  0  0  0  0  0  0
   -5.3844   26.3035    4.7695 C   0  0  0  0  0  0  0  0  0  0  0  0
   -5.1862   27.3858    5.6448 C   0  0  0  0  0  0  0  0  0  0  0  0
   -5.3185   28.7085    5.2047 C   0  0  0  0  0  0  0  0  0  0  0  0
   -5.6432   28.9488    3.8677 C   0  0  0  0  0  0  0  0  0  0  0  0
   -5.8569   27.8886    2.9889 C   0  0  0  0  0  0  0  0  0  0  0  0
   -5.7352   26.5607    3.4248 C   0  0  0  0  0  0  0  0  0  0  0  0
   -5.9756   25.4618    2.4239 C   0  0  0  0  0  0  0  0  0  0  0  0
   -5.6948   22.6837    5.8164 C   0  0  0  0  0  0  0  0  0  0  0  0
   -6.2543   24.0350    5.4418 C   0  0  0  0  0  0  0  0  0  0  0  0
   -7.4643   24.2130    5.3924 O   0  0  0  0  0  0  0  0  0  0  0  0
   -5.2531   24.9533    5.1796 N   0  0  0  0  0  0  0  0  0  0  0  0
   -4.3107   24.6268    5.3369 H   0  0  0  0  0  0  0  0  0  0  0  0
   -2.6511   31.3203    7.7253 C   0  0  0  0  0  0  0  0  0  0  0  0
   -2.0109   31.0483    8.9558 C   0  0  0  0  0  0  0  0  0  0  0  0
   -0.7871   30.3759    9.0238 C   0  0  0  0  0  0  0  0  0  0  0  0
   -0.1694   29.9631    7.8540 C   0  0  0  0  0  0  0  0  0  0  0  0
    1.0034   29.3196    7.9137 F   0  0  0  0  0  0  0  0  0  0  0  0
   -0.7537   30.2104    6.6209 C   0  0  0  0  0  0  0  0  0  0  0  0
   -1.9790   30.8815    6.5624 C   0  0  0  0  0  0  0  0  0  0  0  0
 16 17  1  0  0  0
 17 18  2  0  0  0
 17 19  1  0  0  0
 19  9  1  0  0  0
  9 10  1  0  0  0
 10 11  2  0  0  0
 11  1  1  0  0  0
  1  2  1  0  0  0
  2  3  2  0  0  0
  2  4  1  0  0  0
  4  5  1  0  0  0
  5  6  1  0  0  0
  6  7  1  0  0  0
  7 21  1  0  0  0
 21 22  1  0  0  0
 22 23  2  0  0  0
 23 24  1  0  0  0
 24 25  1  0  0  0
 24 26  2  0  0  0
 26 27  1  0  0  0
 11 12  1  0  0  0
 12 13  2  0  0  0
 13 14  1  0  0  0
 14 15  1  0  0  0
 14  9  2  0  0  0
  7  4  1  0  0  0
 27 21  2  0  0  0
 19 20  1  0  0  0
  1  8  1  0  0  0
M  END
> <minimizedAffinity>
-9.87866

$$$$
OCNT-2318213


 30 33  0  0  0  0  0  0  0  0999 V2000
   -3.3542   25.7164    3.9364 C   0  0  0  0  0  0  0  0  0  0  0  0
   -3.6657   26.0567    5.2525 C   0  0  0  0  0  0  0  0  0  0  0  0
   -2.6640   26.4858    6.1323 C   0  0  0  0  0  0  0  0  0  0  0  0
   -1.3234   26.5796    5.7273 C   0  0  0  0  0  0  0  0  0  0  0  0
   -0.9912   26.2611    4.3945 C   0  0  0  0  0  0  0  0  0  0  0  0
   -2.0098   25.8227    3.5239 C   0  0  0  0  0  0  0  0  0  0  0  0
   -5.8844   27.2795    2.6251 C   0  0  0  0  0  0  0  0  0  0  0  0
   -5.4351   25.8829    2.4132 C   0  0  0  0  0  0  0  0  0  0  0  0
   -6.0317   24.9424    1.5949 C   0  0  0  0  0  0  0  0  0  0  0  0
   -5.2418   23.7916    1.6987 C   0  0  0  0  0  0  0  0  0  0  0  0
   -5.4324   22.4817    1.0325 C   0  0  0  0  0  0  0  0  0  0  0  0
   -4.2065   23.9839    2.5128 N   0  0  0  0  0  0  0  0  0  0  0  0
   -4.3272   25.2591    2.9853 N   0  0  0  0  0  0  0  0  0  0  0  0
    0.4260   26.3811    3.8795 C   0  0  0  0  0  0  0  0  0  0  0  0
    0.5223   26.4816    2.5255 F   0  0  0  0  0  0  0  0  0  0  0  0
    1.2000   25.3176    4.2300 F   0  0  0  0  0  0  0  0  0  0  0  0
    1.0660   27.4825    4.3704 F   0  0  0  0  0  0  0  0  0  0  0  0
   -0.2967   27.0758    6.7216 C   0  0  0  0  0  0  0  0  0  0  0  0
   -0.8783   28.0613    7.5966 N   0  0  0  0  0  0  0  0  0  0  0  0
   -0.2774   29.2731    7.8068 C   0  0  0  0  0  0  0  0  0  0  0  0
    0.6623   29.7114    7.1600 O   0  0  0  0  0  0  0  0  0  0  0  0
   -1.6048   27.7636    8.2358 H   0  0  0  0  0  0  0  0  0  0  0  0
   -0.8810   30.0675    8.9073 C   0  0  0  0  0  0  0  0  0  0  0  0
   -0.7003   31.5663    8.9805 C   0  0  0  0  0  0  0  0  0  0  0  0
   -2.0664   30.9994    8.6515 C   0  0  0  0  0  0  0  0  0  0  0  0
   -3.1465   31.1096    9.7143 C   0  0  0  0  0  0  0  0  0  0  0  0
   -4.5060   30.7540    9.1158 C   0  0  0  0  0  0  0  0  0  0  0  0
   -4.8897   31.6357    8.0560 O   0  0  0  0  0  0  0  0  0  0  0  0
   -3.8028   32.1138    7.2531 C   0  0  0  0  0  0  0  0  0  0  0  0
   -2.6029   31.1705    7.2370 C   0  0  0  0  0  0  0  0  0  0  0  0
  7  8  1  0  0  0
  8  9  2  0  0  0
  9 10  1  0  0  0
 10 11  1  0  0  0
 10 12  2  0  0  0
 12 13  1  0  0  0
 13  1  1  0  0  0
  1  2  1  0  0  0
  2  3  2  0  0  0
  3  4  1  0  0  0
  4 18  1  0  0  0
 18 19  1  0  0  0
 19 20  1  0  0  0
 20 21  2  0  0  0
 20 23  1  0  0  0
 23 24  1  0  0  0
 24 25  1  0  0  0
 25 26  1  0  0  0
 26 27  1  0  0  0
 27 28  1  0  0  0
 28 29  1  0  0  0
 29 30  1  0  0  0
  4  5  2  0  0  0
  5 14  1  0  0  0
 14 15  1  0  0  0
 14 16  1  0  0  0
 14 17  1  0  0  0
  5  6  1  0  0  0
 13  8  1  0  0  0
  6  1  2  0  0  0
 25 23  1  0  0  0
 30 25  1  0  0  0
 19 22  1  0  0  0
M  END
> <minimizedAffinity>
-10.18108

$$$$
OCNT-2318216


 28 31  0  0  0  0  0  0  0  0999 V2000
   -5.1450   25.7973    5.0152 O   0  0  0  0  0  0  0  0  0  0  0  0
   -4.0810   26.3510    4.7416 C   0  0  0  0  0  0  0  0  0  0  0  0
   -3.4590   26.0935    3.5355 N   0  0  0  0  0  0  0  0  0  0  0  0
   -2.6527   26.6485    3.2782 H   0  0  0  0  0  0  0  0  0  0  0  0
   -4.0599   25.2383    2.5161 C   0  0  0  0  0  0  0  0  0  0  0  0
   -5.4176   25.8326    2.0605 C   0  0  0  0  0  0  0  0  0  0  0  0
   -6.0660   25.0196    0.9218 C   0  0  0  0  0  0  0  0  0  0  0  0
   -5.9894   23.5675    1.2099 C   0  0  0  0  0  0  0  0  0  0  0  0
   -5.1347   23.0300    2.1438 C   0  0  0  0  0  0  0  0  0  0  0  0
   -4.2035   23.7747    3.0254 C   0  0  0  0  0  0  0  0  0  0  0  0
   -5.3216   21.6821    2.1140 N   0  0  0  0  0  0  0  0  0  0  0  0
   -6.2594   21.3077    1.2227 N   0  0  0  0  0  0  0  0  0  0  0  0
   -6.6591   22.4575    0.6683 C   0  0  0  0  0  0  0  0  0  0  0  0
   -4.8604   20.9628    2.6619 H   0  0  0  0  0  0  0  0  0  0  0  0
   -3.4099   27.3009    5.6245 C   0  0  0  0  0  0  0  0  0  0  0  0
   -2.1093   27.3810    6.0899 C   0  0  0  0  0  0  0  0  0  0  0  0
   -0.8279   26.2903    5.7121 Cl  0  0  0  0  0  0  0  0  0  0  0  0
   -1.8777   28.5080    6.9636 C   0  0  0  0  0  0  0  0  0  0  0  0
   -0.7103   28.9439    7.6443 C   0  0  0  0  0  0  0  0  0  0  0  0
   -0.7327   30.0888    8.4494 C   0  0  0  0  0  0  0  0  0  0  0  0
   -1.9024   30.8344    8.5972 C   0  0  0  0  0  0  0  0  0  0  0  0
   -3.0703   30.4152    7.9401 C   0  0  0  0  0  0  0  0  0  0  0  0
   -3.0391   29.2606    7.1306 C   0  0  0  0  0  0  0  0  0  0  0  0
   -4.3489   28.5974    6.2464 S   0  0  0  0  0  0  0  0  0  0  0  0
   -1.9287   32.0564    9.4849 C   0  0  0  0  0  0  0  0  0  0  0  0
   -0.7463   32.7300    9.4700 F   0  0  0  0  0  0  0  0  0  0  0  0
   -2.1775   31.7616   10.7910 F   0  0  0  0  0  0  0  0  0  0  0  0
   -2.8804   32.9604    9.1206 F   0  0  0  0  0  0  0  0  0  0  0  0
  1  2  2  0  0  0
  2  3  1  0  0  0
  3  5  1  0  0  0
  5  6  1  0  0  0
  6  7  1  0  0  0
  7  8  1  0  0  0
  8  9  2  0  0  0
  9 10  1  0  0  0
  9 11  1  0  0  0
 11 12  1  0  0  0
 12 13  2  0  0  0
  2 15  1  0  0  0
 15 16  2  0  0  0
 16 17  1  0  0  0
 16 18  1  0  0  0
 18 19  2  0  0  0
 19 20  1  0  0  0
 20 21  2  0  0  0
 21 25  1  0  0  0
 25 26  1  0  0  0
 25 27  1  0  0  0
 25 28  1  0  0  0
 21 22  1  0  0  0
 22 23  2  0  0  0
 23 24  1  0  0  0
 10  5  1  0  0  0
 24 15  1  0  0  0
 13  8  1  0  0  0
 23 18  1  0  0  0
  3  4  1  0  0  0
 11 14  1  0  0  0
M  END
> <minimizedAffinity>
-9.93498

$$$$
OCNT-2318220


 34 37  0  0  0  0  0  0  0  0999 V2000
   -3.5515   29.0705    6.9020 C   0  0  0  0  0  0  0  0  0  0  0  0
   -3.1653   28.1782    5.8796 C   0  0  0  0  0  0  0  0  0  0  0  0
   -2.1659   27.2211    6.0975 C   0  0  0  0  0  0  0  0  0  0  0  0
   -1.5131   27.2169    7.3337 C   0  0  0  0  0  0  0  0  0  0  0  0
   -1.8651   28.1378    8.3294 C   0  0  0  0  0  0  0  0  0  0  0  0
   -2.8884   29.0841    8.1429 C   0  0  0  0  0  0  0  0  0  0  0  0
   -1.7965   26.2434    5.0096 C   0  0  0  0  0  0  0  0  0  0  0  0
   -0.5612   25.7004    5.2077 F   0  0  0  0  0  0  0  0  0  0  0  0
   -1.7576   26.7997    3.7669 F   0  0  0  0  0  0  0  0  0  0  0  0
   -2.6605   25.1954    4.9285 F   0  0  0  0  0  0  0  0  0  0  0  0
   -4.9191   30.1629    6.5449 S   0  0  0  0  0  0  0  0  0  0  0  0
   -5.7211   30.2963    7.7441 O   0  0  0  0  0  0  0  0  0  0  0  0
   -4.3772   31.3349    5.8858 O   0  0  0  0  0  0  0  0  0  0  0  0
   -5.9080   26.9312    3.5889 C   0  0  0  0  0  0  0  0  0  0  0  0
   -5.7577   26.8434    5.1228 C   0  0  0  0  0  0  0  0  0  0  0  0
   -6.4408   28.0030    5.8384 C   0  0  0  0  0  0  0  0  0  0  0  0
   -5.8377   29.2907    5.4117 N   0  0  0  0  0  0  0  0  0  0  0  0
   -5.4577   29.4022    3.9825 C   0  0  0  0  0  0  0  0  0  0  0  0
   -6.2005   28.3745    3.1376 C   0  0  0  0  0  0  0  0  0  0  0  0
   -4.6680   26.3606    2.8699 C   0  0  0  0  0  0  0  0  0  0  0  0
   -6.6081   23.4098    1.5079 C   0  0  0  0  0  0  0  0  0  0  0  0
   -6.1579   24.5526    2.2617 N   0  0  0  0  0  0  0  0  0  0  0  0
   -4.9914   25.2097    1.9287 C   0  0  0  0  0  0  0  0  0  0  0  0
   -4.3036   24.9213    0.9597 O   0  0  0  0  0  0  0  0  0  0  0  0
   -6.5740   24.7247    3.1691 H   0  0  0  0  0  0  0  0  0  0  0  0
   -3.1842   30.0009    9.1694 N   0  0  0  0  0  0  0  0  0  0  0  0
   -4.1020   29.8761    9.6276 H   0  0  0  0  0  0  0  0  0  0  0  0
   -2.3384   31.0096    9.7423 C   0  0  0  0  0  0  0  0  0  0  0  0
   -1.0486   31.2456    8.9206 C   0  0  0  0  0  0  0  0  0  0  0  0
   -1.8060   32.3398    8.1442 C   0  0  0  0  0  0  0  0  0  0  0  0
   -2.7488   32.4706    9.3681 C   0  0  0  0  0  0  0  0  0  0  0  0
   -4.2019   32.8639    9.2132 C   0  0  0  0  0  0  0  0  0  0  0  0
   -4.7202   34.2010    9.6785 C   0  0  0  0  0  0  0  0  0  0  0  0
   -4.7393   33.8524    8.2160 C   0  0  0  0  0  0  0  0  0  0  0  0
 21 22  1  0  0  0
 22 23  1  0  0  0
 23 24  2  0  0  0
 23 20  1  0  0  0
 20 14  1  0  0  0
 14 15  1  0  0  0
 15 16  1  0  0  0
 16 17  1  0  0  0
 17 11  1  0  0  0
 11 12  2  0  0  0
 11 13  2  0  0  0
 11  1  1  0  0  0
  1  2  1  0  0  0
  2  3  2  0  0  0
  3  7  1  0  0  0
  7  8  1  0  0  0
  7  9  1  0  0  0
  7 10  1  0  0  0
  3  4  1  0  0  0
  4  5  2  0  0  0
  5  6  1  0  0  0
  6 26  1  0  0  0
 26 28  1  0  0  0
 28 29  1  0  0  0
 29 30  1  0  0  0
 30 31  1  0  0  0
 31 32  1  0  0  0
 32 33  1  0  0  0
 33 34  1  0  0  0
 17 18  1  0  0  0
 18 19  1  0  0  0
 19 14  1  0  0  0
  6  1  2  0  0  0
 31 28  1  0  0  0
 34 32  1  0  0  0
 22 25  1  0  0  0
 26 27  1  0  0  0
M  END
> <minimizedAffinity>
-9.87199

$$$$
OCNT-2318230


 22 25  0  0  0  0  0  0  0  0999 V2000
   -4.8988   26.7925    2.9731 C   0  0  0  0  0  0  0  0  0  0  0  0
   -5.9741   27.8439    3.1165 C   0  0  0  0  0  0  0  0  0  0  0  0
   -5.5157   27.0822    4.3284 C   0  0  0  0  0  0  0  0  0  0  0  0
   -5.9795   21.9035    0.3281 F   0  0  0  0  0  0  0  0  0  0  0  0
   -5.7230   23.0582    0.9560 C   0  0  0  0  0  0  0  0  0  0  0  0
   -6.2723   24.2386    0.4695 C   0  0  0  0  0  0  0  0  0  0  0  0
   -6.0082   25.4456    1.1236 C   0  0  0  0  0  0  0  0  0  0  0  0
   -5.1996   25.4874    2.2738 C   0  0  0  0  0  0  0  0  0  0  0  0
   -4.6585   24.2684    2.7207 C   0  0  0  0  0  0  0  0  0  0  0  0
   -3.8706   24.2601    3.8072 F   0  0  0  0  0  0  0  0  0  0  0  0
   -4.9128   23.0602    2.0799 C   0  0  0  0  0  0  0  0  0  0  0  0
   -4.6407   27.7893    5.3989 C   0  0  0  0  0  0  0  0  0  0  0  0
   -4.9803   28.9124    5.9918 N   0  0  0  0  0  0  0  0  0  0  0  0
   -3.9284   29.1245    6.8484 C   0  0  0  0  0  0  0  0  0  0  0  0
   -2.9563   28.2037    6.7783 N   0  0  0  0  0  0  0  0  0  0  0  0
   -3.4345   27.3061    5.8214 O   0  0  0  0  0  0  0  0  0  0  0  0
   -3.8459   30.2968    7.7482 C   0  0  0  0  0  0  0  0  0  0  0  0
   -4.8873   30.2505    8.7555 N   0  0  0  0  0  0  0  0  0  0  0  0
   -5.8517   31.1809    9.0045 C   0  0  0  0  0  0  0  0  0  0  0  0
   -6.6631   30.7356    9.9362 N   0  0  0  0  0  0  0  0  0  0  0  0
   -6.1571   29.4998   10.2196 C   0  0  0  0  0  0  0  0  0  0  0  0
   -5.0834   29.1462    9.5078 N   0  0  0  0  0  0  0  0  0  0  0  0
  4  5  1  0  0  0
  5  6  1  0  0  0
  6  7  2  0  0  0
  7  8  1  0  0  0
  8  1  1  0  0  0
  1  2  1  0  0  0
  2  3  1  0  0  0
  3 12  1  0  0  0
 12 13  2  0  0  0
 13 14  1  0  0  0
 14 17  1  0  0  0
 17 18  1  0  0  0
 18 19  1  0  0  0
 19 20  2  0  0  0
 20 21  1  0  0  0
 21 22  2  0  0  0
 14 15  2  0  0  0
 15 16  1  0  0  0
  8  9  2  0  0  0
  9 10  1  0  0  0
  9 11  1  0  0  0
 11  5  2  0  0  0
  3  1  1  0  0  0
 16 12  1  0  0  0
 22 18  1  0  0  0
M  END
> <minimizedAffinity>
-8.30891

$$$$
OCNT-2318232


 24 26  0  0  0  0  0  0  0  0999 V2000
   -0.4692   28.3528    7.1474 C   0  0  0  0  0  0  0  0  0  0  0  0
    0.6849   28.6779    7.8668 C   0  0  0  0  0  0  0  0  0  0  0  0
    0.6824   29.7175    8.7992 C   0  0  0  0  0  0  0  0  0  0  0  0
   -0.4899   30.4262    9.0522 C   0  0  0  0  0  0  0  0  0  0  0  0
   -1.6793   30.0966    8.3931 C   0  0  0  0  0  0  0  0  0  0  0  0
   -1.6511   29.0534    7.4513 C   0  0  0  0  0  0  0  0  0  0  0  0
   -2.9012   30.8458    8.7095 C   0  0  0  0  0  0  0  0  0  0  0  0
   -4.0903   30.3228    8.9523 N   0  0  0  0  0  0  0  0  0  0  0  0
   -4.9455   31.3708    9.1952 C   0  0  0  0  0  0  0  0  0  0  0  0
   -6.3690   31.1214    9.5137 C   0  0  0  0  0  0  0  0  0  0  0  0
   -4.2732   32.5700    9.0866 C   0  0  0  0  0  0  0  0  0  0  0  0
   -4.7047   33.9754    9.2427 C   0  0  0  0  0  0  0  0  0  0  0  0
   -2.9833   32.2179    8.7783 N   0  0  0  0  0  0  0  0  0  0  0  0
   -2.2221   32.8573    8.6096 H   0  0  0  0  0  0  0  0  0  0  0  0
   -0.5488   27.2819    6.2481 N   0  0  0  0  0  0  0  0  0  0  0  0
    0.3185   26.7495    6.2228 H   0  0  0  0  0  0  0  0  0  0  0  0
   -1.7025   26.3775    6.3000 C   0  0  0  0  0  0  0  0  0  0  0  0
   -4.1891   26.7252    3.6781 N   0  0  0  0  0  0  0  0  0  0  0  0
   -3.8920   26.8946    4.9952 C   0  0  0  0  0  0  0  0  0  0  0  0
   -2.5942   26.4396    5.1034 C   0  0  0  0  0  0  0  0  0  0  0  0
   -2.1610   26.0298    3.8679 N   0  0  0  0  0  0  0  0  0  0  0  0
   -3.1494   26.2093    3.0018 N   0  0  0  0  0  0  0  0  0  0  0  0
   -5.9548   28.4120    3.3749 C   0  0  0  0  0  0  0  0  0  0  0  0
   -5.4231   27.0416    2.9955 C   0  0  0  0  0  0  0  0  0  0  0  0
 23 24  1  0  0  0
 24 18  1  0  0  0
 18 19  1  0  0  0
 19 20  2  0  0  0
 20 17  1  0  0  0
 17 15  1  0  0  0
 15  1  1  0  0  0
  1  2  2  0  0  0
  2  3  1  0  0  0
  3  4  2  0  0  0
  4  5  1  0  0  0
  5  7  1  0  0  0
  7  8  2  0  0  0
  8  9  1  0  0  0
  9 10  1  0  0  0
  9 11  2  0  0  0
 11 12  1  0  0  0
 11 13  1  0  0  0
  5  6  2  0  0  0
 20 21  1  0  0  0
 21 22  2  0  0  0
 22 18  1  0  0  0
  6  1  1  0  0  0
 13  7  1  0  0  0
 15 16  1  0  0  0
 13 14  1  0  0  0
M  END
> <minimizedAffinity>
-8.70555

$$$$
OCNT-2318260


 32 34  0  0  0  0  0  0  0  0999 V2000
   -5.1561   28.4030    6.2069 N   0  0  0  0  0  0  0  0  0  0  0  0
   -5.0791   29.7686    6.0790 C   0  0  0  0  0  0  0  0  0  0  0  0
   -5.0152   30.3535    5.0009 O   0  0  0  0  0  0  0  0  0  0  0  0
   -5.2184   28.0423    7.1543 H   0  0  0  0  0  0  0  0  0  0  0  0
   -5.0941   30.4632    7.3727 C   0  0  0  0  0  0  0  0  0  0  0  0
   -3.9925   31.1308    7.9127 C   0  0  0  0  0  0  0  0  0  0  0  0
   -4.4853   31.8669    9.3940 S   0  0  0  0  0  0  0  0  0  0  0  0
   -6.0430   31.1908    9.2317 C   0  0  0  0  0  0  0  0  0  0  0  0
   -6.2628   30.4847    8.1484 N   0  0  0  0  0  0  0  0  0  0  0  0
   -2.7672   31.2657    7.3274 N   0  0  0  0  0  0  0  0  0  0  0  0
   -2.7420   31.7790    6.4404 H   0  0  0  0  0  0  0  0  0  0  0  0
   -1.5609   30.5712    7.5517 C   0  0  0  0  0  0  0  0  0  0  0  0
   -0.8721   30.0734    6.4332 C   0  0  0  0  0  0  0  0  0  0  0  0
    0.3487   29.4063    6.5682 C   0  0  0  0  0  0  0  0  0  0  0  0
    0.9060   29.2286    7.8302 C   0  0  0  0  0  0  0  0  0  0  0  0
    0.2412   29.7171    8.9512 C   0  0  0  0  0  0  0  0  0  0  0  0
   -0.9801   30.3860    8.8104 C   0  0  0  0  0  0  0  0  0  0  0  0
   -6.2463   26.4042    5.2731 C   0  0  0  0  0  0  0  0  0  0  0  0
   -5.1947   27.5004    5.0763 C   0  0  0  0  0  0  0  0  0  0  0  0
   -3.8101   26.9300    4.8285 C   0  0  0  0  0  0  0  0  0  0  0  0
   -2.8703   26.9023    5.8681 C   0  0  0  0  0  0  0  0  0  0  0  0
   -1.5904   26.3703    5.6692 C   0  0  0  0  0  0  0  0  0  0  0  0
   -1.2245   25.8511    4.4281 C   0  0  0  0  0  0  0  0  0  0  0  0
   -2.1623   25.8607    3.3902 C   0  0  0  0  0  0  0  0  0  0  0  0
   -3.4416   26.3921    3.5871 C   0  0  0  0  0  0  0  0  0  0  0  0
    0.0388   25.2930    4.1548 N   0  0  0  0  0  0  0  0  0  0  0  0
    1.1629   25.9431    3.7224 C   0  0  0  0  0  0  0  0  0  0  0  0
    2.2319   25.0968    3.6372 N   0  0  0  0  0  0  0  0  0  0  0  0
    1.2976   27.1184    3.4184 O   0  0  0  0  0  0  0  0  0  0  0  0
    0.0999   24.2862    4.1410 H   0  0  0  0  0  0  0  0  0  0  0  0
    2.3461   24.4496    4.4038 H   0  0  0  0  0  0  0  0  0  0  0  0
    3.0831   25.5963    3.4058 H   0  0  0  0  0  0  0  0  0  0  0  0
 18 19  1  0  0  0
 19  1  1  0  0  0
  1  2  1  0  0  0
  2  3  2  0  0  0
  2  5  1  0  0  0
  5  6  2  0  0  0
  6 10  1  0  0  0
 10 12  1  0  0  0
 12 13  2  0  0  0
 13 14  1  0  0  0
 14 15  2  0  0  0
 15 16  1  0  0  0
 16 17  2  0  0  0
  6  7  1  0  0  0
  7  8  1  0  0  0
  8  9  2  0  0  0
 19 20  1  0  0  0
 20 21  1  0  0  0
 21 22  2  0  0  0
 22 23  1  0  0  0
 23 26  1  0  0  0
 26 27  1  0  0  0
 27 28  1  0  0  0
 27 29  2  0  0  0
 23 24  2  0  0  0
 24 25  1  0  0  0
  9  5  1  0  0  0
 25 20  2  0  0  0
 17 12  1  0  0  0
  1  4  1  0  0  0
 10 11  1  0  0  0
 26 30  1  0  0  0
 28 31  1  0  0  0
 28 32  1  0  0  0
M  END
> <minimizedAffinity>
-9.15107

$$$$
OCNT-2318272


 27 29  0  0  0  0  0  0  0  0999 V2000
   -5.9467   27.4031    3.5164 C   0  0  0  0  0  0  0  0  0  0  0  0
   -6.1199   27.0314    4.8570 C   0  0  0  0  0  0  0  0  0  0  0  0
   -6.2983   27.9998    5.8491 C   0  0  0  0  0  0  0  0  0  0  0  0
   -6.2899   29.3504    5.5107 C   0  0  0  0  0  0  0  0  0  0  0  0
   -6.1424   29.7318    4.1774 C   0  0  0  0  0  0  0  0  0  0  0  0
   -5.9623   28.7599    3.1860 C   0  0  0  0  0  0  0  0  0  0  0  0
   -3.4667   26.0127    2.6453 O   0  0  0  0  0  0  0  0  0  0  0  0
   -4.5838   25.7373    2.2234 C   0  0  0  0  0  0  0  0  0  0  0  0
   -5.7695   26.3629    2.5805 N   0  0  0  0  0  0  0  0  0  0  0  0
   -6.6094   26.0467    2.1126 H   0  0  0  0  0  0  0  0  0  0  0  0
   -4.8026   24.6585    1.1704 C   0  0  0  0  0  0  0  0  0  0  0  0
   -6.0348   24.8952    0.2946 C   0  0  0  0  0  0  0  0  0  0  0  0
   -6.7776   23.5660    0.2766 C   0  0  0  0  0  0  0  0  0  0  0  0
   -5.8087   22.5710    0.7398 N   0  0  0  0  0  0  0  0  0  0  0  0
   -5.0413   23.2813    1.7740 C   0  0  0  0  0  0  0  0  0  0  0  0
   -5.1824   22.3303   -0.0292 H   0  0  0  0  0  0  0  0  0  0  0  0
   -6.5052   30.2503    6.5285 O   0  0  0  0  0  0  0  0  0  0  0  0
   -5.5336   30.3594    7.4970 C   0  0  0  0  0  0  0  0  0  0  0  0
   -5.7671   30.0551    8.8395 C   0  0  0  0  0  0  0  0  0  0  0  0
   -4.7466   30.2206    9.7753 C   0  0  0  0  0  0  0  0  0  0  0  0
   -3.5012   30.7076    9.3733 C   0  0  0  0  0  0  0  0  0  0  0  0
   -3.2666   31.0482    8.0314 C   0  0  0  0  0  0  0  0  0  0  0  0
   -4.2975   30.8682    7.0960 C   0  0  0  0  0  0  0  0  0  0  0  0
   -1.9201   31.5646    7.5913 C   0  0  0  0  0  0  0  0  0  0  0  0
   -1.8261   31.6762    6.2378 F   0  0  0  0  0  0  0  0  0  0  0  0
   -0.8871   30.7620    7.9729 F   0  0  0  0  0  0  0  0  0  0  0  0
   -1.6325   32.7993    8.0898 F   0  0  0  0  0  0  0  0  0  0  0  0
  7  8  2  0  0  0
  8  9  1  0  0  0
  9  1  1  0  0  0
  1  2  1  0  0  0
  2  3  2  0  0  0
  3  4  1  0  0  0
  4 17  1  0  0  0
 17 18  1  0  0  0
 18 19  1  0  0  0
 19 20  2  0  0  0
 20 21  1  0  0  0
 21 22  2  0  0  0
 22 24  1  0  0  0
 24 25  1  0  0  0
 24 26  1  0  0  0
 24 27  1  0  0  0
 22 23  1  0  0  0
  4  5  2  0  0  0
  5  6  1  0  0  0
  8 11  1  0  0  0
 11 12  1  0  0  0
 12 13  1  0  0  0
 13 14  1  0  0  0
 14 15  1  0  0  0
  6  1  2  0  0  0
 15 11  1  0  0  0
 23 18  2  0  0  0
  9 10  1  0  0  0
 14 16  1  0  0  0
M  END
> <minimizedAffinity>
-9.65134

$$$$
OCNT-2318277


 26 28  0  0  0  0  0  0  0  0999 V2000
   -1.0580   26.0536    3.8362 C   0  0  0  0  0  0  0  0  0  0  0  0
   -2.5297   25.8599    3.8621 C   0  0  0  0  0  0  0  0  0  0  0  0
   -3.1722   25.5388    2.7420 N   0  0  0  0  0  0  0  0  0  0  0  0
   -4.4786   25.3673    3.0957 N   0  0  0  0  0  0  0  0  0  0  0  0
   -4.6722   25.7397    4.4277 C   0  0  0  0  0  0  0  0  0  0  0  0
   -5.9837   25.8803    5.1137 C   0  0  0  0  0  0  0  0  0  0  0  0
   -3.4116   25.9942    4.9585 C   0  0  0  0  0  0  0  0  0  0  0  0
   -5.4011   24.8590    2.1085 C   0  0  0  0  0  0  0  0  0  0  0  0
   -6.1222   23.6870    2.3222 C   0  0  0  0  0  0  0  0  0  0  0  0
   -6.9985   23.2354    1.3322 C   0  0  0  0  0  0  0  0  0  0  0  0
   -7.1301   23.9514    0.1511 C   0  0  0  0  0  0  0  0  0  0  0  0
   -6.3668   25.0918   -0.0015 C   0  0  0  0  0  0  0  0  0  0  0  0
   -5.5130   25.5497    0.9368 N   0  0  0  0  0  0  0  0  0  0  0  0
   -3.0589   26.3774    6.3580 C   0  0  0  0  0  0  0  0  0  0  0  0
   -3.4769   27.7666    6.5562 N   0  0  0  0  0  0  0  0  0  0  0  0
   -3.8921   27.8420    7.4840 H   0  0  0  0  0  0  0  0  0  0  0  0
   -2.3211   28.6727    6.4501 C   0  0  0  0  0  0  0  0  0  0  0  0
   -1.3558   28.5447    7.6528 C   0  0  0  0  0  0  0  0  0  0  0  0
    0.1167   28.5803    7.2025 C   0  0  0  0  0  0  0  0  0  0  0  0
    0.8458   29.1765    8.3869 C   0  0  0  0  0  0  0  0  0  0  0  0
   -0.1154   30.2640    8.8303 C   0  0  0  0  0  0  0  0  0  0  0  0
   -1.4477   29.6295    8.7020 N   0  0  0  0  0  0  0  0  0  0  0  0
   -2.8074   30.6159    8.7927 S   0  0  0  0  0  0  0  0  0  0  0  0
   -2.4530   31.6368   10.2087 C   0  0  0  0  0  0  0  0  0  0  0  0
   -3.9410   29.7836    9.1315 O   0  0  0  0  0  0  0  0  0  0  0  0
   -2.8202   31.4523    7.6122 O   0  0  0  0  0  0  0  0  0  0  0  0
  1  2  1  0  0  0
  2  3  2  0  0  0
  3  4  1  0  0  0
  4  8  1  0  0  0
  8  9  2  0  0  0
  9 10  1  0  0  0
 10 11  2  0  0  0
 11 12  1  0  0  0
 12 13  2  0  0  0
  4  5  1  0  0  0
  5  6  1  0  0  0
  5  7  2  0  0  0
  7 14  1  0  0  0
 14 15  1  0  0  0
 15 17  1  0  0  0
 17 18  1  0  0  0
 18 19  1  0  0  0
 19 20  1  0  0  0
 20 21  1  0  0  0
 21 22  1  0  0  0
 22 23  1  0  0  0
 23 24  1  0  0  0
 23 25  2  0  0  0
 23 26  2  0  0  0
  7  2  1  0  0  0
 22 18  1  0  0  0
 13  8  1  0  0  0
 15 16  1  0  0  0
M  END
> <minimizedAffinity>
-8.25462

$$$$
OCNT-2318281


 23 25  0  0  0  0  0  0  0  0999 V2000
   -2.7796   26.1662    4.3702 C   0  0  0  0  0  0  0  0  0  0  0  0
   -1.4543   26.0150    4.1749 N   0  0  0  0  0  0  0  0  0  0  0  0
   -0.8723   26.6526    5.2648 O   0  0  0  0  0  0  0  0  0  0  0  0
   -1.8995   27.1402    6.0150 C   0  0  0  0  0  0  0  0  0  0  0  0
   -3.0811   26.8488    5.5273 N   0  0  0  0  0  0  0  0  0  0  0  0
   -4.8651   26.3940    2.9334 C   0  0  0  0  0  0  0  0  0  0  0  0
   -5.7563   25.7388    2.0773 C   0  0  0  0  0  0  0  0  0  0  0  0
   -5.6571   24.4461    1.6950 N   0  0  0  0  0  0  0  0  0  0  0  0
   -4.6232   23.7477    2.1953 C   0  0  0  0  0  0  0  0  0  0  0  0
   -3.6854   24.2862    3.0578 C   0  0  0  0  0  0  0  0  0  0  0  0
   -3.7927   25.6346    3.4499 C   0  0  0  0  0  0  0  0  0  0  0  0
   -6.1997   27.9945    4.3495 C   0  0  0  0  0  0  0  0  0  0  0  0
   -5.1526   27.8427    3.2507 C   0  0  0  0  0  0  0  0  0  0  0  0
   -1.5441   27.8926    7.2422 C   0  0  0  0  0  0  0  0  0  0  0  0
   -1.0299   29.3148    6.9368 C   0  0  0  0  0  0  0  0  0  0  0  0
    0.4993   29.3628    7.0518 C   0  0  0  0  0  0  0  0  0  0  0  0
   -1.6663   30.3879    7.8202 C   0  0  0  0  0  0  0  0  0  0  0  0
   -0.9871   30.8358    8.9740 C   0  0  0  0  0  0  0  0  0  0  0  0
   -1.5389   31.8107    9.8081 C   0  0  0  0  0  0  0  0  0  0  0  0
   -2.7797   32.3606    9.5073 C   0  0  0  0  0  0  0  0  0  0  0  0
   -3.4689   31.9360    8.3710 C   0  0  0  0  0  0  0  0  0  0  0  0
   -2.9300   30.9533    7.5195 C   0  0  0  0  0  0  0  0  0  0  0  0
   -3.7363   30.5411    6.3140 C   0  0  0  0  0  0  0  0  0  0  0  0
 12 13  1  0  0  0
 13  6  1  0  0  0
  6  7  2  0  0  0
  7  8  1  0  0  0
  8  9  2  0  0  0
  9 10  1  0  0  0
 10 11  2  0  0  0
 11  1  1  0  0  0
  1  2  2  0  0  0
  2  3  1  0  0  0
  3  4  1  0  0  0
  4 14  1  0  0  0
 14 15  1  0  0  0
 15 16  1  0  0  0
 15 17  1  0  0  0
 17 18  2  0  0  0
 18 19  1  0  0  0
 19 20  2  0  0  0
 20 21  1  0  0  0
 21 22  2  0  0  0
 22 23  1  0  0  0
  4  5  2  0  0  0
 11  6  1  0  0  0
  5  1  1  0  0  0
 22 17  1  0  0  0
M  END
> <minimizedAffinity>
-8.79242

$$$$
OCNT-2318286


 28 31  0  0  0  0  0  0  0  0999 V2000
   -3.3860   25.3523    1.7333 C   0  0  0  0  0  0  0  0  0  0  0  0
   -4.7899   25.4117    2.4041 C   0  0  0  0  0  0  0  0  0  0  0  0
   -5.0706   26.9239    2.6679 C   0  0  0  0  0  0  0  0  0  0  0  0
   -6.0637   27.3014    3.7735 C   0  0  0  0  0  0  0  0  0  0  0  0
   -5.7391   26.7725    5.1722 C   0  0  0  0  0  0  0  0  0  0  0  0
   -4.3291   26.4279    5.3430 N   0  0  0  0  0  0  0  0  0  0  0  0
   -3.4269   27.1453    6.1428 C   0  0  0  0  0  0  0  0  0  0  0  0
   -2.3589   26.6531    6.5147 O   0  0  0  0  0  0  0  0  0  0  0  0
   -3.8841   25.1255    4.8501 C   0  0  0  0  0  0  0  0  0  0  0  0
   -4.7048   24.5396    3.6947 C   0  0  0  0  0  0  0  0  0  0  0  0
   -5.8920   24.8487    1.4665 C   0  0  0  0  0  0  0  0  0  0  0  0
   -6.1663   25.4594    0.2265 C   0  0  0  0  0  0  0  0  0  0  0  0
   -7.1475   24.9652   -0.6389 C   0  0  0  0  0  0  0  0  0  0  0  0
   -7.8807   23.8386   -0.2904 C   0  0  0  0  0  0  0  0  0  0  0  0
   -7.6277   23.2072    0.9207 C   0  0  0  0  0  0  0  0  0  0  0  0
   -6.6453   23.7041    1.7861 C   0  0  0  0  0  0  0  0  0  0  0  0
   -3.7248   28.5509    6.5706 C   0  0  0  0  0  0  0  0  0  0  0  0
   -4.9545   28.8257    7.1582 C   0  0  0  0  0  0  0  0  0  0  0  0
   -5.2077   30.1239    7.6036 C   0  0  0  0  0  0  0  0  0  0  0  0
   -4.2306   31.1163    7.4757 C   0  0  0  0  0  0  0  0  0  0  0  0
   -3.0310   30.7369    6.8786 C   0  0  0  0  0  0  0  0  0  0  0  0
   -2.7517   29.4885    6.4309 N   0  0  0  0  0  0  0  0  0  0  0  0
   -4.4931   32.4697    7.9458 C   0  0  0  0  0  0  0  0  0  0  0  0
   -4.2361   32.9606    9.1448 N   0  0  0  0  0  0  0  0  0  0  0  0
   -4.6520   34.2688    9.1320 N   0  0  0  0  0  0  0  0  0  0  0  0
   -5.1497   34.5963    7.9493 N   0  0  0  0  0  0  0  0  0  0  0  0
   -5.0445   33.4865    7.2103 N   0  0  0  0  0  0  0  0  0  0  0  0
   -5.3454   33.5091    6.2446 H   0  0  0  0  0  0  0  0  0  0  0  0
  1  2  1  0  0  0
  2 11  1  0  0  0
 11 12  2  0  0  0
 12 13  1  0  0  0
 13 14  2  0  0  0
 14 15  1  0  0  0
 15 16  2  0  0  0
  2  3  1  0  0  0
  3  4  1  0  0  0
  4  5  1  0  0  0
  5  6  1  0  0  0
  6  7  1  0  0  0
  7  8  2  0  0  0
  7 17  1  0  0  0
 17 18  2  0  0  0
 18 19  1  0  0  0
 19 20  2  0  0  0
 20 23  1  0  0  0
 23 24  2  0  0  0
 24 25  1  0  0  0
 25 26  2  0  0  0
 26 27  1  0  0  0
 20 21  1  0  0  0
 21 22  2  0  0  0
  6  9  1  0  0  0
  9 10  1  0  0  0
 10  2  1  0  0  0
 16 11  1  0  0  0
 22 17  1  0  0  0
 27 23  1  0  0  0
 27 28  1  0  0  0
M  END
> <minimizedAffinity>
-10.02457

$$$$
OCNT-2318287


 30 32  0  0  0  0  0  0  0  0999 V2000
   -4.2108   30.7893    5.5740 N   0  0  0  0  0  0  0  0  0  0  0  0
   -4.6935   31.1725    4.7661 H   0  0  0  0  0  0  0  0  0  0  0  0
   -4.9777   29.6600    6.1214 C   0  0  0  0  0  0  0  0  0  0  0  0
   -6.2536   30.1208    6.8311 C   0  0  0  0  0  0  0  0  0  0  0  0
   -5.2918   28.6950    5.0112 C   0  0  0  0  0  0  0  0  0  0  0  0
   -4.8708   27.3945    4.7571 C   0  0  0  0  0  0  0  0  0  0  0  0
   -3.8914   26.5586    5.4868 C   0  0  0  0  0  0  0  0  0  0  0  0
   -5.5586   27.0341    3.5995 N   0  0  0  0  0  0  0  0  0  0  0  0
   -6.2011   28.1294    3.1150 N   0  0  0  0  0  0  0  0  0  0  0  0
   -6.0907   29.1150    3.9856 N   0  0  0  0  0  0  0  0  0  0  0  0
   -5.6710   25.7925    2.9055 C   0  0  0  0  0  0  0  0  0  0  0  0
   -5.3055   25.6435    1.5639 C   0  0  0  0  0  0  0  0  0  0  0  0
   -5.4325   24.4018    0.9276 C   0  0  0  0  0  0  0  0  0  0  0  0
   -5.9056   23.2849    1.6230 C   0  0  0  0  0  0  0  0  0  0  0  0
   -6.0703   21.9664    0.9275 C   0  0  0  0  0  0  0  0  0  0  0  0
   -6.2657   23.4286    2.9648 C   0  0  0  0  0  0  0  0  0  0  0  0
   -6.1391   24.6659    3.6039 C   0  0  0  0  0  0  0  0  0  0  0  0
   -4.0115   31.8485    6.5586 C   0  0  0  0  0  0  0  0  0  0  0  0
   -0.7714   30.3294    7.8846 C   0  0  0  0  0  0  0  0  0  0  0  0
   -0.6525   30.9487    9.1315 C   0  0  0  0  0  0  0  0  0  0  0  0
   -1.6392   31.8390    9.5499 C   0  0  0  0  0  0  0  0  0  0  0  0
   -2.7262   32.1191    8.7184 C   0  0  0  0  0  0  0  0  0  0  0  0
   -2.8369   31.5229    7.4517 C   0  0  0  0  0  0  0  0  0  0  0  0
   -1.8498   30.6170    7.0396 C   0  0  0  0  0  0  0  0  0  0  0  0
    0.4873   29.2024    7.3357 S   0  0  0  0  0  0  0  0  0  0  0  0
    0.8578   29.5744    5.9878 O   0  0  0  0  0  0  0  0  0  0  0  0
    1.4687   29.0671    8.3885 O   0  0  0  0  0  0  0  0  0  0  0  0
   -0.4201   27.0498    5.9460 C   0  0  0  0  0  0  0  0  0  0  0  0
   -0.3504   27.7598    7.2109 N   0  0  0  0  0  0  0  0  0  0  0  0
   -0.4886   27.2598    8.0859 H   0  0  0  0  0  0  0  0  0  0  0  0
 28 29  1  0  0  0
 29 25  1  0  0  0
 25 26  2  0  0  0
 25 27  2  0  0  0
 25 19  1  0  0  0
 19 20  2  0  0  0
 20 21  1  0  0  0
 21 22  2  0  0  0
 22 23  1  0  0  0
 23 18  1  0  0  0
 18  1  1  0  0  0
  1  3  1  0  0  0
  3  4  1  0  0  0
  3  5  1  0  0  0
  5  6  2  0  0  0
  6  7  1  0  0  0
  6  8  1  0  0  0
  8 11  1  0  0  0
 11 12  1  0  0  0
 12 13  2  0  0  0
 13 14  1  0  0  0
 14 15  1  0  0  0
 14 16  2  0  0  0
 16 17  1  0  0  0
  8  9  1  0  0  0
  9 10  2  0  0  0
 23 24  2  0  0  0
 24 19  1  0  0  0
 10  5  1  0  0  0
 17 11  2  0  0  0
 29 30  1  0  0  0
  1  2  1  0  0  0
M  END
> <minimizedAffinity>
-10.10644

$$$$
OCNT-2318290


 29 32  0  0  0  0  0  0  0  0999 V2000
   -2.1047   29.2946    7.8724 C   0  0  0  0  0  0  0  0  0  0  0  0
   -2.9330   29.5397    6.6061 C   0  0  0  0  0  0  0  0  0  0  0  0
   -3.5166   28.2441    6.0535 C   0  0  0  0  0  0  0  0  0  0  0  0
   -2.4708   27.2636    5.7495 N   0  0  0  0  0  0  0  0  0  0  0  0
   -2.5064   26.3758    4.6862 C   0  0  0  0  0  0  0  0  0  0  0  0
   -1.5199   25.7538    4.3043 O   0  0  0  0  0  0  0  0  0  0  0  0
   -3.7389   26.2445    4.0954 N   0  0  0  0  0  0  0  0  0  0  0  0
   -1.2315   27.3514    6.5181 C   0  0  0  0  0  0  0  0  0  0  0  0
   -1.4860   27.8917    7.9153 C   0  0  0  0  0  0  0  0  0  0  0  0
   -4.5103   26.3537    4.7349 H   0  0  0  0  0  0  0  0  0  0  0  0
   -3.9446   25.3166    2.9866 C   0  0  0  0  0  0  0  0  0  0  0  0
   -3.9280   23.8677    3.4522 C   0  0  0  0  0  0  0  0  0  0  0  0
   -4.1182   22.9298    2.2690 C   0  0  0  0  0  0  0  0  0  0  0  0
   -4.7344   23.5495    1.1423 O   0  0  0  0  0  0  0  0  0  0  0  0
   -5.8070   24.4605    1.4209 C   0  0  0  0  0  0  0  0  0  0  0  0
   -6.9810   23.7457    2.1128 C   0  0  0  0  0  0  0  0  0  0  0  0
   -7.5318   22.6077    1.2520 C   0  0  0  0  0  0  0  0  0  0  0  0
   -7.4311   22.8397   -0.1506 O   0  0  0  0  0  0  0  0  0  0  0  0
   -7.5039   24.2135   -0.4943 C   0  0  0  0  0  0  0  0  0  0  0  0
   -6.3089   24.9926    0.0554 C   0  0  0  0  0  0  0  0  0  0  0  0
   -5.2602   25.6366    2.2662 C   0  0  0  0  0  0  0  0  0  0  0  0
   -2.9747   29.4120    9.0135 O   0  0  0  0  0  0  0  0  0  0  0  0
   -5.8081   29.4244    8.9642 C   0  0  0  0  0  0  0  0  0  0  0  0
   -4.9848   30.6684    9.0748 C   0  0  0  0  0  0  0  0  0  0  0  0
   -5.5837   31.9188    9.1656 C   0  0  0  0  0  0  0  0  0  0  0  0
   -4.9039   33.0832    9.2721 N   0  0  0  0  0  0  0  0  0  0  0  0
   -3.5575   33.0024    9.2800 C   0  0  0  0  0  0  0  0  0  0  0  0
   -2.8586   31.8115    9.2042 C   0  0  0  0  0  0  0  0  0  0  0  0
   -3.5904   30.6302    9.1261 C   0  0  0  0  0  0  0  0  0  0  0  0
 23 24  1  0  0  0
 24 25  2  0  0  0
 25 26  1  0  0  0
 26 27  2  0  0  0
 27 28  1  0  0  0
 28 29  2  0  0  0
 29 22  1  0  0  0
 22  1  1  0  0  0
  1  2  1  0  0  0
  2  3  1  0  0  0
  3  4  1  0  0  0
  4  5  1  0  0  0
  5  6  2  0  0  0
  5  7  1  0  0  0
  7 11  1  0  0  0
 11 12  1  0  0  0
 12 13  1  0  0  0
 13 14  1  0  0  0
 14 15  1  0  0  0
 15 16  1  0  0  0
 16 17  1  0  0  0
 17 18  1  0  0  0
 18 19  1  0  0  0
 19 20  1  0  0  0
 15 21  1  0  0  0
  4  8  1  0  0  0
  8  9  1  0  0  0
 29 24  1  0  0  0
  9  1  1  0  0  0
 21 11  1  0  0  0
 20 15  1  0  0  0
  7 10  1  0  0  0
M  END
> <minimizedAffinity>
-9.61426

$$$$
OCNT-2318299


 30 33  0  0  0  0  0  0  0  0999 V2000
   -2.3725   27.7381    6.3567 C   0  0  0  0  0  0  0  0  0  0  0  0
   -1.6114   26.6493    5.9630 C   0  0  0  0  0  0  0  0  0  0  0  0
   -0.3419   26.8913    6.3839 N   0  0  0  0  0  0  0  0  0  0  0  0
   -0.2065   28.0475    7.0379 N   0  0  0  0  0  0  0  0  0  0  0  0
   -1.4397   28.5886    7.0388 C   0  0  0  0  0  0  0  0  0  0  0  0
    0.4838   26.3150    6.2540 H   0  0  0  0  0  0  0  0  0  0  0  0
   -1.6524   29.8791    7.7000 C   0  0  0  0  0  0  0  0  0  0  0  0
   -0.8351   30.3007    8.7550 C   0  0  0  0  0  0  0  0  0  0  0  0
   -1.0486   31.5398    9.3596 C   0  0  0  0  0  0  0  0  0  0  0  0
   -2.0671   32.3731    8.8988 C   0  0  0  0  0  0  0  0  0  0  0  0
   -2.8738   31.9829    7.8279 C   0  0  0  0  0  0  0  0  0  0  0  0
   -2.6718   30.7321    7.2402 C   0  0  0  0  0  0  0  0  0  0  0  0
   -3.8235   32.8964    7.4633 O   0  0  0  0  0  0  0  0  0  0  0  0
   -4.5208   33.5312    8.5215 C   0  0  0  0  0  0  0  0  0  0  0  0
   -5.1577   34.6273    8.0408 F   0  0  0  0  0  0  0  0  0  0  0  0
   -5.4895   32.6741    8.9366 F   0  0  0  0  0  0  0  0  0  0  0  0
   -4.5529   28.4785    6.8834 O   0  0  0  0  0  0  0  0  0  0  0  0
   -3.7866   27.9577    6.0811 C   0  0  0  0  0  0  0  0  0  0  0  0
   -4.2084   27.5121    4.8458 N   0  0  0  0  0  0  0  0  0  0  0  0
   -3.5836   26.9323    4.3018 H   0  0  0  0  0  0  0  0  0  0  0  0
   -5.6133   27.5545    4.4369 C   0  0  0  0  0  0  0  0  0  0  0  0
   -6.4517   26.4987    5.2115 C   0  0  0  0  0  0  0  0  0  0  0  0
   -6.0579   25.0411    4.8869 C   0  0  0  0  0  0  0  0  0  0  0  0
   -5.8076   24.9132    3.4336 C   0  0  0  0  0  0  0  0  0  0  0  0
   -5.6439   25.9420    2.5363 C   0  0  0  0  0  0  0  0  0  0  0  0
   -5.7460   27.3789    2.8995 C   0  0  0  0  0  0  0  0  0  0  0  0
   -5.3868   25.4623    1.2846 N   0  0  0  0  0  0  0  0  0  0  0  0
   -5.4101   24.1523    1.4138 C   0  0  0  0  0  0  0  0  0  0  0  0
   -5.6637   23.7686    2.7053 N   0  0  0  0  0  0  0  0  0  0  0  0
   -5.7270   22.8171    3.0412 H   0  0  0  0  0  0  0  0  0  0  0  0
 17 18  2  0  0  0
 18 19  1  0  0  0
 19 21  1  0  0  0
 21 22  1  0  0  0
 22 23  1  0  0  0
 23 24  1  0  0  0
 24 25  2  0  0  0
 25 26  1  0  0  0
 25 27  1  0  0  0
 27 28  2  0  0  0
 28 29  1  0  0  0
 18  1  1  0  0  0
  1  2  2  0  0  0
  2  3  1  0  0  0
  3  4  1  0  0  0
  4  5  2  0  0  0
  5  7  1  0  0  0
  7  8  2  0  0  0
  8  9  1  0  0  0
  9 10  2  0  0  0
 10 11  1  0  0  0
 11 13  1  0  0  0
 13 14  1  0  0  0
 14 15  1  0  0  0
 14 16  1  0  0  0
 11 12  2  0  0  0
 26 21  1  0  0  0
  5  1  1  0  0  0
 12  7  1  0  0  0
 29 24  1  0  0  0
 19 20  1  0  0  0
 29 30  1  0  0  0
  3  6  1  0  0  0
M  END
> <minimizedAffinity>
-10.33609

$$$$
OCNT-2318306


 24 26  0  0  0  0  0  0  0  0999 V2000
   -3.8367   27.1997    4.6503 C   0  0  0  0  0  0  0  0  0  0  0  0
   -3.1368   26.3747    3.7618 C   0  0  0  0  0  0  0  0  0  0  0  0
   -3.8077   25.6767    2.7528 C   0  0  0  0  0  0  0  0  0  0  0  0
   -5.1951   25.7932    2.6100 C   0  0  0  0  0  0  0  0  0  0  0  0
   -5.8934   26.6159    3.5016 C   0  0  0  0  0  0  0  0  0  0  0  0
   -5.2198   27.3130    4.5121 C   0  0  0  0  0  0  0  0  0  0  0  0
   -2.3081   27.3134    6.6428 C   0  0  0  0  0  0  0  0  0  0  0  0
   -2.1546   26.1128    6.8408 O   0  0  0  0  0  0  0  0  0  0  0  0
   -3.0814   27.8664    5.6352 N   0  0  0  0  0  0  0  0  0  0  0  0
   -3.1065   28.8795    5.6072 H   0  0  0  0  0  0  0  0  0  0  0  0
   -1.0357   29.9694    8.7532 C   0  0  0  0  0  0  0  0  0  0  0  0
    0.0559   29.2151    8.6047 N   0  0  0  0  0  0  0  0  0  0  0  0
   -0.3450   28.1604    7.7987 O   0  0  0  0  0  0  0  0  0  0  0  0
   -1.6667   28.3029    7.4807 C   0  0  0  0  0  0  0  0  0  0  0  0
   -2.1450   29.4498    8.0735 C   0  0  0  0  0  0  0  0  0  0  0  0
   -2.3194   31.5496    9.8916 C   0  0  0  0  0  0  0  0  0  0  0  0
   -1.0295   31.1034    9.4878 O   0  0  0  0  0  0  0  0  0  0  0  0
   -5.9272   25.0420    1.5209 C   0  0  0  0  0  0  0  0  0  0  0  0
   -6.2304   23.6015    1.8601 C   0  0  0  0  0  0  0  0  0  0  0  0
   -7.0047   23.2774    2.9779 C   0  0  0  0  0  0  0  0  0  0  0  0
   -7.2633   21.9411    3.2442 C   0  0  0  0  0  0  0  0  0  0  0  0
   -6.8118   20.9213    2.4846 N   0  0  0  0  0  0  0  0  0  0  0  0
   -6.0679   21.2537    1.4084 C   0  0  0  0  0  0  0  0  0  0  0  0
   -5.7574   22.5585    1.0574 C   0  0  0  0  0  0  0  0  0  0  0  0
 16 17  1  0  0  0
 17 11  1  0  0  0
 11 12  2  0  0  0
 12 13  1  0  0  0
 13 14  1  0  0  0
 14  7  1  0  0  0
  7  8  2  0  0  0
  7  9  1  0  0  0
  9  1  1  0  0  0
  1  2  1  0  0  0
  2  3  2  0  0  0
  3  4  1  0  0  0
  4 18  1  0  0  0
 18 19  1  0  0  0
 19 20  2  0  0  0
 20 21  1  0  0  0
 21 22  2  0  0  0
 22 23  1  0  0  0
 23 24  2  0  0  0
  4  5  2  0  0  0
  5  6  1  0  0  0
 14 15  2  0  0  0
 15 11  1  0  0  0
  6  1  2  0  0  0
 24 19  1  0  0  0
  9 10  1  0  0  0
M  END
> <minimizedAffinity>
-8.48595

$$$$
OCNT-2318312


 27 29  0  0  0  0  0  0  0  0999 V2000
    1.3604   29.0135    8.6666 C   0  0  0  0  0  0  0  0  0  0  0  0
   -0.0362   28.9869    8.3078 N   0  0  0  0  0  0  0  0  0  0  0  0
   -1.0385   29.7192    8.8585 C   0  0  0  0  0  0  0  0  0  0  0  0
   -2.2003   29.3654    8.1924 C   0  0  0  0  0  0  0  0  0  0  0  0
   -1.7671   28.3943    7.2399 C   0  0  0  0  0  0  0  0  0  0  0  0
   -0.4478   28.1695    7.3322 N   0  0  0  0  0  0  0  0  0  0  0  0
   -2.5980   27.6142    6.1522 C   0  0  0  0  0  0  0  0  0  0  0  0
   -2.2302   26.4934    5.4313 C   0  0  0  0  0  0  0  0  0  0  0  0
   -3.3186   26.1584    4.5816 C   0  0  0  0  0  0  0  0  0  0  0  0
   -3.5814   25.1603    3.6269 C   0  0  0  0  0  0  0  0  0  0  0  0
   -4.8234   25.1656    2.9748 C   0  0  0  0  0  0  0  0  0  0  0  0
   -5.7843   26.1392    3.2625 C   0  0  0  0  0  0  0  0  0  0  0  0
   -5.5390   27.1394    4.2091 C   0  0  0  0  0  0  0  0  0  0  0  0
   -4.2972   27.1062    4.8384 C   0  0  0  0  0  0  0  0  0  0  0  0
   -3.8676   27.9822    5.7819 O   0  0  0  0  0  0  0  0  0  0  0  0
   -3.5565   29.9190    8.4694 C   0  0  0  0  0  0  0  0  0  0  0  0
   -4.4406   28.7963    8.7762 N   0  0  0  0  0  0  0  0  0  0  0  0
   -4.1119   28.3236    9.6177 H   0  0  0  0  0  0  0  0  0  0  0  0
   -5.8779   29.1318    8.9026 C   0  0  0  0  0  0  0  0  0  0  0  0
   -6.5386   28.5332   10.1659 C   0  0  0  0  0  0  0  0  0  0  0  0
   -5.5986   27.7695   10.9151 O   0  0  0  0  0  0  0  0  0  0  0  0
   -6.0871   27.3757   11.6599 H   0  0  0  0  0  0  0  0  0  0  0  0
   -6.6382   28.8184    7.6032 C   0  0  0  0  0  0  0  0  0  0  0  0
   -6.8780   30.0465    6.7527 C   0  0  0  0  0  0  0  0  0  0  0  0
   -8.0562   30.0151    6.1011 F   0  0  0  0  0  0  0  0  0  0  0  0
   -5.9045   30.1641    5.8201 F   0  0  0  0  0  0  0  0  0  0  0  0
   -6.8525   31.1688    7.5051 F   0  0  0  0  0  0  0  0  0  0  0  0
  1  2  1  0  0  0
  2  3  1  0  0  0
  3  4  2  0  0  0
  4 16  1  0  0  0
 16 17  1  0  0  0
 17 19  1  0  0  0
 19 20  1  0  0  0
 20 21  1  0  0  0
 19 23  1  0  0  0
 23 24  1  0  0  0
 24 25  1  0  0  0
 24 26  1  0  0  0
 24 27  1  0  0  0
  4  5  1  0  0  0
  5  7  1  0  0  0
  7  8  2  0  0  0
  8  9  1  0  0  0
  9 10  2  0  0  0
 10 11  1  0  0  0
 11 12  2  0  0  0
 12 13  1  0  0  0
 13 14  2  0  0  0
 14 15  1  0  0  0
  5  6  2  0  0  0
  6  2  1  0  0  0
 15  7  1  0  0  0
 14  9  1  0  0  0
 17 18  1  0  0  0
 21 22  1  0  0  0
M  END
> <minimizedAffinity>
-8.49850

$$$$
OCNT-2318326


 24 27  0  0  0  0  0  0  0  0999 V2000
   -4.4650   26.1509    2.7249 C   0  0  0  0  0  0  0  0  0  0  0  0
   -7.7304   20.8686    3.1146 Br  0  0  0  0  0  0  0  0  0  0  0  0
   -6.7709   22.5011    2.8756 C   0  0  0  0  0  0  0  0  0  0  0  0
   -5.9945   22.9124    3.9586 C   0  0  0  0  0  0  0  0  0  0  0  0
   -5.2642   24.0894    3.8796 C   0  0  0  0  0  0  0  0  0  0  0  0
   -5.3009   24.8817    2.7190 C   0  0  0  0  0  0  0  0  0  0  0  0
   -6.0755   24.4648    1.5963 C   0  0  0  0  0  0  0  0  0  0  0  0
   -6.1311   25.2017    0.3879 C   0  0  0  0  0  0  0  0  0  0  0  0
   -6.8967   24.7876   -0.7027 C   0  0  0  0  0  0  0  0  0  0  0  0
   -7.6330   23.6200   -0.6197 C   0  0  0  0  0  0  0  0  0  0  0  0
   -7.5979   22.8669    0.5527 C   0  0  0  0  0  0  0  0  0  0  0  0
   -6.8284   23.2576    1.6776 C   0  0  0  0  0  0  0  0  0  0  0  0
   -4.8801   27.1139    3.7731 C   0  0  0  0  0  0  0  0  0  0  0  0
   -4.3404   27.3656    4.9433 N   0  0  0  0  0  0  0  0  0  0  0  0
   -5.1667   28.3341    5.4560 C   0  0  0  0  0  0  0  0  0  0  0  0
   -6.1937   28.6461    4.6508 N   0  0  0  0  0  0  0  0  0  0  0  0
   -6.0058   27.8404    3.5343 O   0  0  0  0  0  0  0  0  0  0  0  0
   -4.8911   28.8665    6.6751 N   0  0  0  0  0  0  0  0  0  0  0  0
   -5.9874   28.9359    7.6528 C   0  0  0  0  0  0  0  0  0  0  0  0
   -5.6306   29.8587    8.8376 C   0  0  0  0  0  0  0  0  0  0  0  0
   -4.3431   29.5263    9.4788 N   0  0  0  0  0  0  0  0  0  0  0  0
   -3.2907   29.5820    8.4451 C   0  0  0  0  0  0  0  0  0  0  0  0
   -3.5523   28.6502    7.2422 C   0  0  0  0  0  0  0  0  0  0  0  0
   -4.3984   28.5682    9.8248 H   0  0  0  0  0  0  0  0  0  0  0  0
  2  3  1  0  0  0
  3  4  2  0  0  0
  4  5  1  0  0  0
  5  6  2  0  0  0
  6  1  1  0  0  0
  1 13  1  0  0  0
 13 14  2  0  0  0
 14 15  1  0  0  0
 15 18  1  0  0  0
 18 19  1  0  0  0
 19 20  1  0  0  0
 20 21  1  0  0  0
 21 22  1  0  0  0
 22 23  1  0  0  0
 15 16  2  0  0  0
 16 17  1  0  0  0
  6  7  1  0  0  0
  7  8  2  0  0  0
  8  9  1  0  0  0
  9 10  2  0  0  0
 10 11  1  0  0  0
 11 12  2  0  0  0
 12  3  1  0  0  0
 17 13  1  0  0  0
 12  7  1  0  0  0
 23 18  1  0  0  0
 21 24  1  0  0  0
M  END
> <minimizedAffinity>
-9.51775

$$$$
OCNT-2318328


 31 34  0  0  0  0  0  0  0  0999 V2000
   -7.6603   28.0857    6.7524 O   0  0  0  0  0  0  0  0  0  0  0  0
   -6.5422   28.5065    7.0474 C   0  0  0  0  0  0  0  0  0  0  0  0
   -5.3915   28.3089    6.3076 N   0  0  0  0  0  0  0  0  0  0  0  0
   -4.5422   28.6774    6.7230 H   0  0  0  0  0  0  0  0  0  0  0  0
   -5.2413   27.5997    5.1007 C   0  0  0  0  0  0  0  0  0  0  0  0
   -4.3381   26.5287    5.1003 C   0  0  0  0  0  0  0  0  0  0  0  0
   -4.1326   25.7698    3.9450 C   0  0  0  0  0  0  0  0  0  0  0  0
   -4.8356   26.0699    2.7805 C   0  0  0  0  0  0  0  0  0  0  0  0
   -5.7124   27.1545    2.7610 C   0  0  0  0  0  0  0  0  0  0  0  0
   -5.9211   27.9096    3.9211 C   0  0  0  0  0  0  0  0  0  0  0  0
   -4.5576   25.3011    1.6738 O   0  0  0  0  0  0  0  0  0  0  0  0
   -5.6025   24.6260    1.0861 C   0  0  0  0  0  0  0  0  0  0  0  0
   -6.1793   25.2083   -0.0427 C   0  0  0  0  0  0  0  0  0  0  0  0
   -7.2262   24.5621   -0.7006 C   0  0  0  0  0  0  0  0  0  0  0  0
   -7.6816   23.3269   -0.2398 C   0  0  0  0  0  0  0  0  0  0  0  0
   -7.0862   22.7325    0.8735 C   0  0  0  0  0  0  0  0  0  0  0  0
   -6.0397   23.3774    1.5343 C   0  0  0  0  0  0  0  0  0  0  0  0
   -6.3749   29.3859    8.2825 C   0  0  0  0  0  0  0  0  0  0  0  0
   -6.3203   31.1598    7.9043 S   0  0  0  0  0  0  0  0  0  0  0  0
   -4.6045   31.4489    7.9210 C   0  0  0  0  0  0  0  0  0  0  0  0
   -4.0644   32.6658    7.9932 N   0  0  0  0  0  0  0  0  0  0  0  0
   -2.7530   32.3777    7.9904 N   0  0  0  0  0  0  0  0  0  0  0  0
   -2.5257   31.0287    7.9041 C   0  0  0  0  0  0  0  0  0  0  0  0
   -3.7008   30.4266    7.8540 N   0  0  0  0  0  0  0  0  0  0  0  0
   -2.0851   33.1370    8.0451 H   0  0  0  0  0  0  0  0  0  0  0  0
   -1.2154   30.3852    7.8759 C   0  0  0  0  0  0  0  0  0  0  0  0
   -0.6740   29.9524    6.6613 C   0  0  0  0  0  0  0  0  0  0  0  0
    0.5770   29.3389    6.6280 C   0  0  0  0  0  0  0  0  0  0  0  0
    1.2580   29.1721    7.8205 C   0  0  0  0  0  0  0  0  0  0  0  0
    0.7749   29.5699    9.0169 N   0  0  0  0  0  0  0  0  0  0  0  0
   -0.4431   30.1641    9.0144 C   0  0  0  0  0  0  0  0  0  0  0  0
  1  2  2  0  0  0
  2 18  1  0  0  0
 18 19  1  0  0  0
 19 20  1  0  0  0
 20 21  2  0  0  0
 21 22  1  0  0  0
 22 23  1  0  0  0
 23 26  1  0  0  0
 26 27  1  0  0  0
 27 28  2  0  0  0
 28 29  1  0  0  0
 29 30  2  0  0  0
 30 31  1  0  0  0
 23 24  2  0  0  0
  2  3  1  0  0  0
  3  5  1  0  0  0
  5  6  1  0  0  0
  6  7  2  0  0  0
  7  8  1  0  0  0
  8 11  1  0  0  0
 11 12  1  0  0  0
 12 13  2  0  0  0
 13 14  1  0  0  0
 14 15  2  0  0  0
 15 16  1  0  0  0
 16 17  2  0  0  0
  8  9  2  0  0  0
  9 10  1  0  0  0
 24 20  1  0  0  0
 10  5  2  0  0  0
 31 26  2  0  0  0
 17 12  1  0  0  0
 22 25  1  0  0  0
  3  4  1  0  0  0
M  END
> <minimizedAffinity>
-10.25645

$$$$
OCNT-2318329


 37 41  0  0  0  0  0  0  0  0999 V2000
   -6.7055   28.7003    7.2432 C   0  0  0  0  0  0  0  0  0  0  0  0
   -5.7645   27.0528    3.9150 C   0  0  0  0  0  0  0  0  0  0  0  0
   -5.8391   28.1446    3.0514 C   0  0  0  0  0  0  0  0  0  0  0  0
   -6.1993   29.4059    3.5361 C   0  0  0  0  0  0  0  0  0  0  0  0
   -6.4868   29.5859    4.8882 C   0  0  0  0  0  0  0  0  0  0  0  0
   -6.4282   28.5031    5.7717 C   0  0  0  0  0  0  0  0  0  0  0  0
   -6.0604   27.2420    5.2727 C   0  0  0  0  0  0  0  0  0  0  0  0
   -3.2277   26.0562    2.6940 O   0  0  0  0  0  0  0  0  0  0  0  0
   -4.1965   25.3479    2.9500 C   0  0  0  0  0  0  0  0  0  0  0  0
   -5.3951   25.7523    3.5138 N   0  0  0  0  0  0  0  0  0  0  0  0
   -6.0997   25.0379    3.6540 H   0  0  0  0  0  0  0  0  0  0  0  0
   -4.1364   23.8525    2.7092 C   0  0  0  0  0  0  0  0  0  0  0  0
   -5.3610   23.4334    1.8953 C   0  0  0  0  0  0  0  0  0  0  0  0
   -5.9477   22.1722    2.3746 N   0  0  0  0  0  0  0  0  0  0  0  0
   -5.5155   21.7967    3.7406 C   0  0  0  0  0  0  0  0  0  0  0  0
   -6.5920   22.0094    4.8191 C   0  0  0  0  0  0  0  0  0  0  0  0
   -7.8038   21.2895    4.5570 O   0  0  0  0  0  0  0  0  0  0  0  0
   -8.0730   21.1335    3.1560 C   0  0  0  0  0  0  0  0  0  0  0  0
   -7.4249   22.2305    2.3001 C   0  0  0  0  0  0  0  0  0  0  0  0
   -6.5571   30.0862    7.6975 N   0  0  0  0  0  0  0  0  0  0  0  0
   -7.4783   30.4805    7.8683 H   0  0  0  0  0  0  0  0  0  0  0  0
   -5.7542   30.2325    8.9160 C   0  0  0  0  0  0  0  0  0  0  0  0
   -4.8015   31.3821    8.8399 C   0  0  0  0  0  0  0  0  0  0  0  0
   -5.0377   32.7279    9.0618 C   0  0  0  0  0  0  0  0  0  0  0  0
   -3.8596   33.3691    8.8390 N   0  0  0  0  0  0  0  0  0  0  0  0
   -2.8721   32.5544    8.4564 N   0  0  0  0  0  0  0  0  0  0  0  0
   -3.4280   31.3332    8.4389 C   0  0  0  0  0  0  0  0  0  0  0  0
   -3.6577   34.3607    8.9235 H   0  0  0  0  0  0  0  0  0  0  0  0
   -2.6453   30.1743    8.0279 C   0  0  0  0  0  0  0  0  0  0  0  0
   -1.4262   29.8735    8.6725 C   0  0  0  0  0  0  0  0  0  0  0  0
   -0.6618   28.7712    8.2745 C   0  0  0  0  0  0  0  0  0  0  0  0
   -1.1442   27.9970    7.2405 C   0  0  0  0  0  0  0  0  0  0  0  0
   -0.5346   26.8990    6.7180 O   0  0  0  0  0  0  0  0  0  0  0  0
   -1.4872   26.5115    5.7078 C   0  0  0  0  0  0  0  0  0  0  0  0
   -2.6308   27.3879    5.6315 O   0  0  0  0  0  0  0  0  0  0  0  0
   -2.3350   28.2823    6.6130 C   0  0  0  0  0  0  0  0  0  0  0  0
   -3.1054   29.3673    6.9753 C   0  0  0  0  0  0  0  0  0  0  0  0
  8  9  2  0  0  0
  9 12  1  0  0  0
 12 13  1  0  0  0
 13 14  1  0  0  0
 14 15  1  0  0  0
 15 16  1  0  0  0
 16 17  1  0  0  0
 17 18  1  0  0  0
 18 19  1  0  0  0
  9 10  1  0  0  0
 10  2  1  0  0  0
  2  3  1  0  0  0
  3  4  2  0  0  0
  4  5  1  0  0  0
  5  6  2  0  0  0
  6  1  1  0  0  0
  1 20  1  0  0  0
 20 22  1  0  0  0
 22 23  1  0  0  0
 23 24  2  0  0  0
 24 25  1  0  0  0
 25 26  1  0  0  0
 26 27  2  0  0  0
 27 29  1  0  0  0
 29 30  1  0  0  0
 30 31  2  0  0  0
 31 32  1  0  0  0
 32 33  1  0  0  0
 33 34  1  0  0  0
 34 35  1  0  0  0
 35 36  1  0  0  0
 36 37  1  0  0  0
  6  7  1  0  0  0
 19 14  1  0  0  0
  7  2  2  0  0  0
 27 23  1  0  0  0
 37 29  2  0  0  0
 36 32  2  0  0  0
 10 11  1  0  0  0
 20 21  1  0  0  0
 25 28  1  0  0  0
M  END
> <minimizedAffinity>
-9.86284

$$$$
OCNT-2318330


 24 26  0  0  0  0  0  0  0  0999 V2000
   -6.2046   25.2044    4.8551 C   0  0  0  0  0  0  0  0  0  0  0  0
   -5.0902   25.5005    3.9247 C   0  0  0  0  0  0  0  0  0  0  0  0
   -5.0164   25.2623    2.5645 C   0  0  0  0  0  0  0  0  0  0  0  0
   -3.8043   25.6871    2.1054 O   0  0  0  0  0  0  0  0  0  0  0  0
   -3.0691   26.2275    3.1397 N   0  0  0  0  0  0  0  0  0  0  0  0
   -3.8360   26.1064    4.2311 C   0  0  0  0  0  0  0  0  0  0  0  0
   -5.9043   24.7018    1.5526 C   0  0  0  0  0  0  0  0  0  0  0  0
   -6.1321   25.3695    0.3407 C   0  0  0  0  0  0  0  0  0  0  0  0
   -6.9860   24.8277   -0.6246 C   0  0  0  0  0  0  0  0  0  0  0  0
   -7.6217   23.6104   -0.3916 C   0  0  0  0  0  0  0  0  0  0  0  0
   -7.4023   22.9317    0.8048 C   0  0  0  0  0  0  0  0  0  0  0  0
   -6.5484   23.4732    1.7695 C   0  0  0  0  0  0  0  0  0  0  0  0
   -3.3359   26.6247    5.5398 C   0  0  0  0  0  0  0  0  0  0  0  0
   -3.7288   28.0469    5.6351 N   0  0  0  0  0  0  0  0  0  0  0  0
   -3.4495   28.5368    4.7798 H   0  0  0  0  0  0  0  0  0  0  0  0
   -3.0795   28.8192    6.9787 S   0  0  0  0  0  0  0  0  0  0  0  0
   -2.3243   29.9543    6.5036 O   0  0  0  0  0  0  0  0  0  0  0  0
   -2.4997   27.8110    7.8368 O   0  0  0  0  0  0  0  0  0  0  0  0
   -4.3545   29.4975    7.8848 C   0  0  0  0  0  0  0  0  0  0  0  0
   -5.6905   29.2068    7.7269 C   0  0  0  0  0  0  0  0  0  0  0  0
   -6.4383   29.9196    8.6127 O   0  0  0  0  0  0  0  0  0  0  0  0
   -5.5690   30.6676    9.3462 C   0  0  0  0  0  0  0  0  0  0  0  0
   -4.2810   30.4365    8.9308 C   0  0  0  0  0  0  0  0  0  0  0  0
   -2.7387   31.2289    9.6374 Br  0  0  0  0  0  0  0  0  0  0  0  0
  1  2  1  0  0  0
  2  3  2  0  0  0
  3  7  1  0  0  0
  7  8  2  0  0  0
  8  9  1  0  0  0
  9 10  2  0  0  0
 10 11  1  0  0  0
 11 12  2  0  0  0
  3  4  1  0  0  0
  4  5  1  0  0  0
  5  6  2  0  0  0
  6 13  1  0  0  0
 13 14  1  0  0  0
 14 16  1  0  0  0
 16 17  2  0  0  0
 16 18  2  0  0  0
 16 19  1  0  0  0
 19 20  2  0  0  0
 20 21  1  0  0  0
 21 22  1  0  0  0
 22 23  2  0  0  0
 23 24  1  0  0  0
  6  2  1  0  0  0
 23 19  1  0  0  0
 12  7  1  0  0  0
 14 15  1  0  0  0
M  END
> <minimizedAffinity>
-8.78025

$$$$
OCNT-2318340


 26 28  0  0  0  0  0  0  0  0999 V2000
   -5.5811   29.0078    7.5042 O   0  0  0  0  0  0  0  0  0  0  0  0
   -4.5956   29.1045    6.7820 C   0  0  0  0  0  0  0  0  0  0  0  0
   -4.6474   29.0426    5.4060 N   0  0  0  0  0  0  0  0  0  0  0  0
   -3.7942   28.8972    4.8855 H   0  0  0  0  0  0  0  0  0  0  0  0
   -3.2448   29.2588    7.3887 C   0  0  0  0  0  0  0  0  0  0  0  0
   -2.3681   28.1654    7.3452 C   0  0  0  0  0  0  0  0  0  0  0  0
   -1.0900   28.2591    7.9018 C   0  0  0  0  0  0  0  0  0  0  0  0
   -0.6909   29.4474    8.5113 C   0  0  0  0  0  0  0  0  0  0  0  0
    0.5593   29.5453    9.0555 O   0  0  0  0  0  0  0  0  0  0  0  0
   -1.5669   30.5366    8.5723 C   0  0  0  0  0  0  0  0  0  0  0  0
   -1.1090   32.0171    9.3330 Cl  0  0  0  0  0  0  0  0  0  0  0  0
   -2.8453   30.4441    8.0166 C   0  0  0  0  0  0  0  0  0  0  0  0
    1.0288   28.7020    8.9487 H   0  0  0  0  0  0  0  0  0  0  0  0
   -5.8884   28.7771    4.7130 C   0  0  0  0  0  0  0  0  0  0  0  0
   -5.9259   27.3597    4.2037 C   0  0  0  0  0  0  0  0  0  0  0  0
   -6.1583   26.2955    5.0817 C   0  0  0  0  0  0  0  0  0  0  0  0
   -6.1704   24.9723    4.6220 C   0  0  0  0  0  0  0  0  0  0  0  0
   -5.9427   24.6822    3.2665 C   0  0  0  0  0  0  0  0  0  0  0  0
   -5.7022   25.7529    2.3972 C   0  0  0  0  0  0  0  0  0  0  0  0
   -5.4675   25.5750    1.0905 F   0  0  0  0  0  0  0  0  0  0  0  0
   -5.6903   27.0727    2.8565 C   0  0  0  0  0  0  0  0  0  0  0  0
   -5.9564   23.3315    2.8084 N   0  0  0  0  0  0  0  0  0  0  0  0
   -6.8330   22.7345    1.9266 C   0  0  0  0  0  0  0  0  0  0  0  0
   -6.4336   21.4253    1.8020 C   0  0  0  0  0  0  0  0  0  0  0  0
   -5.3390   21.1795    2.5737 N   0  0  0  0  0  0  0  0  0  0  0  0
   -5.0761   22.3259    3.1618 C   0  0  0  0  0  0  0  0  0  0  0  0
  1  2  2  0  0  0
  2  3  1  0  0  0
  3 14  1  0  0  0
 14 15  1  0  0  0
 15 16  1  0  0  0
 16 17  2  0  0  0
 17 18  1  0  0  0
 18 22  1  0  0  0
 22 23  1  0  0  0
 23 24  2  0  0  0
 24 25  1  0  0  0
 25 26  2  0  0  0
 18 19  2  0  0  0
 19 20  1  0  0  0
 19 21  1  0  0  0
  2  5  1  0  0  0
  5  6  1  0  0  0
  6  7  2  0  0  0
  7  8  1  0  0  0
  8  9  1  0  0  0
  8 10  2  0  0  0
 10 11  1  0  0  0
 10 12  1  0  0  0
 21 15  2  0  0  0
 12  5  2  0  0  0
 26 22  1  0  0  0
  3  4  1  0  0  0
  9 13  1  0  0  0
M  END
> <minimizedAffinity>
-9.34568

$$$$
OCNT-2318342


 33 37  0  0  0  0  0  0  0  0999 V2000
   -7.5679   23.4179    4.9437 C   0  0  0  0  0  0  0  0  0  0  0  0
   -6.5735   24.3733    5.1348 C   0  0  0  0  0  0  0  0  0  0  0  0
   -5.7507   24.7280    4.0575 C   0  0  0  0  0  0  0  0  0  0  0  0
   -5.9443   24.0863    2.8270 C   0  0  0  0  0  0  0  0  0  0  0  0
   -5.4095   24.0838    1.5115 C   0  0  0  0  0  0  0  0  0  0  0  0
   -4.2889   24.8780    0.9529 C   0  0  0  0  0  0  0  0  0  0  0  0
   -6.0633   23.2221    0.7200 N   0  0  0  0  0  0  0  0  0  0  0  0
   -7.0394   22.6451    1.5148 O   0  0  0  0  0  0  0  0  0  0  0  0
   -6.9720   23.1589    2.7726 C   0  0  0  0  0  0  0  0  0  0  0  0
   -7.8015   22.7990    3.7678 N   0  0  0  0  0  0  0  0  0  0  0  0
  -11.4093   22.6050    8.2401 C   0  0  0  0  0  0  0  0  0  0  0  0
  -10.1566   22.6971    7.4654 C   0  0  0  0  0  0  0  0  0  0  0  0
   -9.8219   23.2754    6.2618 C   0  0  0  0  0  0  0  0  0  0  0  0
   -8.4302   23.0301    6.0557 C   0  0  0  0  0  0  0  0  0  0  0  0
   -8.0167   22.3119    7.1682 C   0  0  0  0  0  0  0  0  0  0  0  0
   -6.7243   21.7385    7.6087 C   0  0  0  0  0  0  0  0  0  0  0  0
   -9.0649   22.1064    8.0165 O   0  0  0  0  0  0  0  0  0  0  0  0
   -4.6851   25.7317    4.2327 C   0  0  0  0  0  0  0  0  0  0  0  0
   -4.7852   26.7881    3.6253 O   0  0  0  0  0  0  0  0  0  0  0  0
   -3.6843   25.3507    5.1059 N   0  0  0  0  0  0  0  0  0  0  0  0
   -3.8146   24.4859    5.6168 H   0  0  0  0  0  0  0  0  0  0  0  0
   -2.5151   26.0726    5.4272 C   0  0  0  0  0  0  0  0  0  0  0  0
   -1.4243   25.9445    4.5598 C   0  0  0  0  0  0  0  0  0  0  0  0
   -0.2363   26.6368    4.8026 C   0  0  0  0  0  0  0  0  0  0  0  0
   -0.1271   27.4680    5.9149 C   0  0  0  0  0  0  0  0  0  0  0  0
   -1.2061   27.6106    6.7966 C   0  0  0  0  0  0  0  0  0  0  0  0
   -2.3982   26.9095    6.5391 C   0  0  0  0  0  0  0  0  0  0  0  0
   -1.1088   28.5258    7.9907 C   0  0  0  0  0  0  0  0  0  0  0  0
   -1.9239   29.7140    7.8158 N   0  0  0  0  0  0  0  0  0  0  0  0
   -1.7755   30.6673    6.8463 C   0  0  0  0  0  0  0  0  0  0  0  0
   -2.8083   31.5509    7.0579 C   0  0  0  0  0  0  0  0  0  0  0  0
   -3.5800   31.1531    8.1192 N   0  0  0  0  0  0  0  0  0  0  0  0
   -3.0233   30.0457    8.5558 C   0  0  0  0  0  0  0  0  0  0  0  0
 11 12  1  0  0  0
 12 13  2  0  0  0
 13 14  1  0  0  0
 14  1  1  0  0  0
  1  2  2  0  0  0
  2  3  1  0  0  0
  3 18  1  0  0  0
 18 19  2  0  0  0
 18 20  1  0  0  0
 20 22  1  0  0  0
 22 23  1  0  0  0
 23 24  2  0  0  0
 24 25  1  0  0  0
 25 26  2  0  0  0
 26 28  1  0  0  0
 28 29  1  0  0  0
 29 30  1  0  0  0
 30 31  2  0  0  0
 31 32  1  0  0  0
 32 33  2  0  0  0
 26 27  1  0  0  0
  3  4  2  0  0  0
  4  5  1  0  0  0
  5  6  1  0  0  0
  5  7  2  0  0  0
  7  8  1  0  0  0
  8  9  1  0  0  0
  9 10  2  0  0  0
 14 15  2  0  0  0
 15 16  1  0  0  0
 15 17  1  0  0  0
 17 12  1  0  0  0
 10  1  1  0  0  0
 27 22  2  0  0  0
  9  4  1  0  0  0
 33 29  1  0  0  0
 20 21  1  0  0  0
M  END
> <minimizedAffinity>
-9.88303

$$$$
OCNT-2318348


 23 25  0  0  0  0  0  0  0  0999 V2000
   -5.0027   29.6851    7.4331 S   0  0  0  0  0  0  0  0  0  0  0  0
   -6.1523   30.5300    7.2040 O   0  0  0  0  0  0  0  0  0  0  0  0
   -4.8977   28.8170    8.5850 O   0  0  0  0  0  0  0  0  0  0  0  0
   -4.8979   28.5741    6.0465 C   0  0  0  0  0  0  0  0  0  0  0  0
   -5.7538   28.3411    4.9900 C   0  0  0  0  0  0  0  0  0  0  0  0
   -5.2637   27.3501    4.0774 C   0  0  0  0  0  0  0  0  0  0  0  0
   -5.8358   26.8268    2.8927 C   0  0  0  0  0  0  0  0  0  0  0  0
   -5.1554   25.8513    2.1600 C   0  0  0  0  0  0  0  0  0  0  0  0
   -5.8662   25.2225    0.7238 Cl  0  0  0  0  0  0  0  0  0  0  0  0
   -3.9167   25.3843    2.5755 C   0  0  0  0  0  0  0  0  0  0  0  0
   -3.3284   25.8865    3.7393 C   0  0  0  0  0  0  0  0  0  0  0  0
   -4.0145   26.8694    4.4795 C   0  0  0  0  0  0  0  0  0  0  0  0
   -3.4851   27.6310    5.9300 S   0  0  0  0  0  0  0  0  0  0  0  0
   -2.6085   30.3852    8.4841 C   0  0  0  0  0  0  0  0  0  0  0  0
   -2.9215   31.2226    9.7492 C   0  0  0  0  0  0  0  0  0  0  0  0
   -3.0586   32.6708    9.5051 N   0  0  0  0  0  0  0  0  0  0  0  0
   -4.0983   32.8906    8.4902 C   0  0  0  0  0  0  0  0  0  0  0  0
   -3.8494   32.1292    7.1757 C   0  0  0  0  0  0  0  0  0  0  0  0
   -3.6024   30.6638    7.3768 N   0  0  0  0  0  0  0  0  0  0  0  0
   -2.1676   33.0360    9.1720 H   0  0  0  0  0  0  0  0  0  0  0  0
   -1.1794   30.6039    7.9514 C   0  0  0  0  0  0  0  0  0  0  0  0
    0.6886   29.3791    8.7136 C   0  0  0  0  0  0  0  0  0  0  0  0
   -0.2294   30.4254    9.0034 O   0  0  0  0  0  0  0  0  0  0  0  0
 22 23  1  0  0  0
 23 21  1  0  0  0
 21 14  1  0  0  0
 14 15  1  0  0  0
 15 16  1  0  0  0
 16 17  1  0  0  0
 17 18  1  0  0  0
 18 19  1  0  0  0
 19  1  1  0  0  0
  1  2  2  0  0  0
  1  3  2  0  0  0
  1  4  1  0  0  0
  4  5  2  0  0  0
  5  6  1  0  0  0
  6  7  2  0  0  0
  7  8  1  0  0  0
  8  9  1  0  0  0
  8 10  2  0  0  0
 10 11  1  0  0  0
 11 12  2  0  0  0
 12 13  1  0  0  0
 19 14  1  0  0  0
 13  4  1  0  0  0
 12  6  1  0  0  0
 16 20  1  0  0  0
M  END
> <minimizedAffinity>
-7.91689

$$$$
OCNT-2318359


 30 32  0  0  0  0  0  0  0  0999 V2000
   -5.3353   24.6725    4.4959 C   0  0  0  0  0  0  0  0  0  0  0  0
   -6.3301   23.8641    5.3344 C   0  0  0  0  0  0  0  0  0  0  0  0
   -5.8546   22.8167    6.1505 C   0  0  0  0  0  0  0  0  0  0  0  0
   -6.7277   22.0557    6.9329 C   0  0  0  0  0  0  0  0  0  0  0  0
   -8.0869   22.3372    6.9115 C   0  0  0  0  0  0  0  0  0  0  0  0
   -8.9229   21.6039    7.6595 F   0  0  0  0  0  0  0  0  0  0  0  0
   -8.5739   23.3714    6.1249 C   0  0  0  0  0  0  0  0  0  0  0  0
   -9.8860   23.6448    6.1096 F   0  0  0  0  0  0  0  0  0  0  0  0
   -7.7086   24.1354    5.3440 C   0  0  0  0  0  0  0  0  0  0  0  0
   -3.4543   26.1905    5.3398 C   0  0  0  0  0  0  0  0  0  0  0  0
   -3.8899   27.2359    4.8771 O   0  0  0  0  0  0  0  0  0  0  0  0
   -4.0985   24.9762    5.2334 N   0  0  0  0  0  0  0  0  0  0  0  0
   -3.5765   24.1625    5.5300 H   0  0  0  0  0  0  0  0  0  0  0  0
   -2.1425   26.0848    6.1082 C   0  0  0  0  0  0  0  0  0  0  0  0
   -0.9064   29.7315    8.0807 C   0  0  0  0  0  0  0  0  0  0  0  0
   -0.0760   29.1245    7.1395 C   0  0  0  0  0  0  0  0  0  0  0  0
   -0.4776   27.9447    6.5026 C   0  0  0  0  0  0  0  0  0  0  0  0
   -1.7136   27.3552    6.7998 C   0  0  0  0  0  0  0  0  0  0  0  0
   -2.5460   27.9726    7.7400 C   0  0  0  0  0  0  0  0  0  0  0  0
   -2.1403   29.1485    8.3760 C   0  0  0  0  0  0  0  0  0  0  0  0
   -1.7306   31.5055    9.4292 C   0  0  0  0  0  0  0  0  0  0  0  0
   -0.6350   30.8790    8.7741 O   0  0  0  0  0  0  0  0  0  0  0  0
   -5.2419   24.2783    2.9323 C   0  0  0  0  0  0  0  0  0  0  0  0
   -3.8195   23.7489    2.6110 C   0  0  0  0  0  0  0  0  0  0  0  0
   -5.4955   25.5141    2.0373 C   0  0  0  0  0  0  0  0  0  0  0  0
   -6.2529   23.1909    2.6640 N   0  0  0  0  0  0  0  0  0  0  0  0
   -5.7739   21.8359    2.3718 C   0  0  0  0  0  0  0  0  0  0  0  0
   -5.8328   21.6608    0.8646 C   0  0  0  0  0  0  0  0  0  0  0  0
   -6.8318   22.6960    0.3821 C   0  0  0  0  0  0  0  0  0  0  0  0
   -7.2558   23.4642    1.6250 C   0  0  0  0  0  0  0  0  0  0  0  0
 21 22  1  0  0  0
 22 15  1  0  0  0
 15 16  1  0  0  0
 16 17  2  0  0  0
 17 18  1  0  0  0
 18 14  1  0  0  0
 14 10  1  0  0  0
 10 11  2  0  0  0
 10 12  1  0  0  0
 12  1  1  0  0  0
  1  2  1  0  0  0
  2  3  1  0  0  0
  3  4  2  0  0  0
  4  5  1  0  0  0
  5  6  1  0  0  0
  5  7  2  0  0  0
  7  8  1  0  0  0
  7  9  1  0  0  0
  1 23  1  0  0  0
 23 24  1  0  0  0
 23 25  1  0  0  0
 23 26  1  0  0  0
 26 27  1  0  0  0
 27 28  1  0  0  0
 28 29  1  0  0  0
 29 30  1  0  0  0
 18 19  2  0  0  0
 19 20  1  0  0  0
 20 15  2  0  0  0
  9  2  2  0  0  0
 30 26  1  0  0  0
 12 13  1  0  0  0
M  END
> <minimizedAffinity>
-9.24978

$$$$
OCNT-2318363


 24 26  0  0  0  0  0  0  0  0999 V2000
   -6.4112   30.4957    8.2841 C   0  0  0  0  0  0  0  0  0  0  0  0
   -2.7123   30.8651    9.1202 C   0  0  0  0  0  0  0  0  0  0  0  0
   -3.9396   30.3135    8.7678 C   0  0  0  0  0  0  0  0  0  0  0  0
   -5.1003   31.1077    8.7061 C   0  0  0  0  0  0  0  0  0  0  0  0
   -5.0139   32.4745    8.9946 C   0  0  0  0  0  0  0  0  0  0  0  0
   -3.7926   33.0330    9.3591 C   0  0  0  0  0  0  0  0  0  0  0  0
   -2.6537   32.2295    9.4228 C   0  0  0  0  0  0  0  0  0  0  0  0
   -1.5137   30.2320    9.2205 O   0  0  0  0  0  0  0  0  0  0  0  0
   -1.3285   28.0788    8.0273 C   0  0  0  0  0  0  0  0  0  0  0  0
   -0.8511   29.5308    8.1566 C   0  0  0  0  0  0  0  0  0  0  0  0
   -0.8763   30.2936    6.8251 C   0  0  0  0  0  0  0  0  0  0  0  0
    0.6204   29.4837    8.6221 C   0  0  0  0  0  0  0  0  0  0  0  0
   -6.1505   29.3221    7.5049 O   0  0  0  0  0  0  0  0  0  0  0  0
   -6.6269   29.3385    6.2354 C   0  0  0  0  0  0  0  0  0  0  0  0
   -7.6037   29.9625    5.8447 O   0  0  0  0  0  0  0  0  0  0  0  0
   -5.7911   28.4872    5.3385 C   0  0  0  0  0  0  0  0  0  0  0  0
   -4.6448   27.9084    5.7535 C   0  0  0  0  0  0  0  0  0  0  0  0
   -3.9179   27.1228    4.8644 N   0  0  0  0  0  0  0  0  0  0  0  0
   -2.7403   26.4417    5.0465 C   0  0  0  0  0  0  0  0  0  0  0  0
   -2.3594   25.8084    3.9575 N   0  0  0  0  0  0  0  0  0  0  0  0
   -3.3281   26.0820    3.0230 C   0  0  0  0  0  0  0  0  0  0  0  0
   -4.3048   26.8920    3.5541 C   0  0  0  0  0  0  0  0  0  0  0  0
   -5.5107   27.4884    3.1025 C   0  0  0  0  0  0  0  0  0  0  0  0
   -6.2230   28.2505    3.9557 C   0  0  0  0  0  0  0  0  0  0  0  0
  9 10  1  0  0  0
 10 11  1  0  0  0
 10 12  1  0  0  0
 10  8  1  0  0  0
  8  2  1  0  0  0
  2  3  2  0  0  0
  3  4  1  0  0  0
  4  1  1  0  0  0
  1 13  1  0  0  0
 13 14  1  0  0  0
 14 15  2  0  0  0
 14 16  1  0  0  0
 16 17  2  0  0  0
 17 18  1  0  0  0
 18 19  1  0  0  0
 19 20  2  0  0  0
 20 21  1  0  0  0
 21 22  2  0  0  0
 22 23  1  0  0  0
 23 24  2  0  0  0
  4  5  2  0  0  0
  5  6  1  0  0  0
  6  7  2  0  0  0
  7  2  1  0  0  0
 24 16  1  0  0  0
 22 18  1  0  0  0
M  END
> <minimizedAffinity>
-8.77518

$$$$
OCNT-2318369


 30 33  0  0  0  0  0  0  0  0999 V2000
   -1.7231   27.4213    7.9355 O   0  0  0  0  0  0  0  0  0  0  0  0
   -1.1281   27.8161    6.9333 C   0  0  0  0  0  0  0  0  0  0  0  0
   -1.2096   27.1466    5.7294 N   0  0  0  0  0  0  0  0  0  0  0  0
   -0.6662   27.4653    4.9396 H   0  0  0  0  0  0  0  0  0  0  0  0
   -0.2494   29.0562    6.9163 C   0  0  0  0  0  0  0  0  0  0  0  0
   -0.7794   30.1176    7.8260 C   0  0  0  0  0  0  0  0  0  0  0  0
   -0.2306   30.5058    9.0340 C   0  0  0  0  0  0  0  0  0  0  0  0
   -1.0095   31.4977    9.5654 N   0  0  0  0  0  0  0  0  0  0  0  0
   -2.0558   31.7804    8.7211 C   0  0  0  0  0  0  0  0  0  0  0  0
   -3.0852   32.7051    8.8408 C   0  0  0  0  0  0  0  0  0  0  0  0
   -4.0124   32.7906    7.8604 N   0  0  0  0  0  0  0  0  0  0  0  0
   -3.9123   31.9691    6.7940 C   0  0  0  0  0  0  0  0  0  0  0  0
   -2.9113   31.0260    6.6110 C   0  0  0  0  0  0  0  0  0  0  0  0
   -1.9420   30.9307    7.6211 C   0  0  0  0  0  0  0  0  0  0  0  0
   -0.8436   31.9552   10.4514 H   0  0  0  0  0  0  0  0  0  0  0  0
   -2.0697   25.9827    5.5516 C   0  0  0  0  0  0  0  0  0  0  0  0
   -3.3439   26.2959    4.7417 C   0  0  0  0  0  0  0  0  0  0  0  0
   -3.8466   27.6113    5.0168 O   0  0  0  0  0  0  0  0  0  0  0  0
   -3.2559   28.0357    5.6756 H   0  0  0  0  0  0  0  0  0  0  0  0
   -3.0829   26.2081    3.2211 C   0  0  0  0  0  0  0  0  0  0  0  0
   -3.8039   25.1274    2.5249 N   0  0  0  0  0  0  0  0  0  0  0  0
   -4.3811   24.1482    3.4617 C   0  0  0  0  0  0  0  0  0  0  0  0
   -4.9487   22.9433    2.6955 C   0  0  0  0  0  0  0  0  0  0  0  0
   -5.8228   23.3468    1.5366 C   0  0  0  0  0  0  0  0  0  0  0  0
   -6.6526   22.4039    0.9166 C   0  0  0  0  0  0  0  0  0  0  0  0
   -7.4367   22.7691   -0.1770 C   0  0  0  0  0  0  0  0  0  0  0  0
   -7.3948   24.0744   -0.6612 C   0  0  0  0  0  0  0  0  0  0  0  0
   -6.5630   25.0156   -0.0563 C   0  0  0  0  0  0  0  0  0  0  0  0
   -5.7592   24.6587    1.0359 C   0  0  0  0  0  0  0  0  0  0  0  0
   -4.8871   25.7022    1.7000 C   0  0  0  0  0  0  0  0  0  0  0  0
  1  2  2  0  0  0
  2  5  1  0  0  0
  5  6  1  0  0  0
  6  7  2  0  0  0
  7  8  1  0  0  0
  8  9  1  0  0  0
  9 10  2  0  0  0
 10 11  1  0  0  0
 11 12  2  0  0  0
 12 13  1  0  0  0
 13 14  2  0  0  0
  2  3  1  0  0  0
  3 16  1  0  0  0
 16 17  1  0  0  0
 17 18  1  0  0  0
 17 20  1  0  0  0
 20 21  1  0  0  0
 21 22  1  0  0  0
 22 23  1  0  0  0
 23 24  1  0  0  0
 24 25  2  0  0  0
 25 26  1  0  0  0
 26 27  2  0  0  0
 27 28  1  0  0  0
 28 29  2  0  0  0
 29 30  1  0  0  0
 14  6  1  0  0  0
 30 21  1  0  0  0
 14  9  1  0  0  0
 29 24  1  0  0  0
  8 15  1  0  0  0
  3  4  1  0  0  0
 18 19  1  0  0  0
M  END
> <minimizedAffinity>
-10.19155

$$$$
OCNT-2318390


 22 25  0  0  0  0  0  0  0  0999 V2000
   -5.4410   32.1557    7.9568 C   0  0  0  0  0  0  0  0  0  0  0  0
   -4.5312   31.0964    7.6044 N   0  0  0  0  0  0  0  0  0  0  0  0
   -3.1963   31.0502    7.9326 C   0  0  0  0  0  0  0  0  0  0  0  0
   -2.6172   29.9668    7.4555 N   0  0  0  0  0  0  0  0  0  0  0  0
   -3.6018   29.3015    6.7753 C   0  0  0  0  0  0  0  0  0  0  0  0
   -4.7979   29.9742    6.8768 C   0  0  0  0  0  0  0  0  0  0  0  0
   -6.0583   29.5175    6.2584 C   0  0  0  0  0  0  0  0  0  0  0  0
   -5.9481   28.0003    5.9747 C   0  0  0  0  0  0  0  0  0  0  0  0
   -4.6580   27.5917    5.3655 N   0  0  0  0  0  0  0  0  0  0  0  0
   -4.4947   26.6236    4.3738 C   0  0  0  0  0  0  0  0  0  0  0  0
   -3.3810   26.3498    3.9340 O   0  0  0  0  0  0  0  0  0  0  0  0
   -5.6606   26.0145    3.9633 N   0  0  0  0  0  0  0  0  0  0  0  0
   -3.4059   28.0215    6.0395 C   0  0  0  0  0  0  0  0  0  0  0  0
   -6.3996   25.9471    4.6421 H   0  0  0  0  0  0  0  0  0  0  0  0
   -5.7899   25.1880    2.8629 C   0  0  0  0  0  0  0  0  0  0  0  0
   -5.7858   25.5558    1.5341 C   0  0  0  0  0  0  0  0  0  0  0  0
   -5.9010   24.4014    0.7060 C   0  0  0  0  0  0  0  0  0  0  0  0
   -5.9726   23.2235    1.3183 N   0  0  0  0  0  0  0  0  0  0  0  0
   -5.9036   23.4900    2.9590 S   0  0  0  0  0  0  0  0  0  0  0  0
   -2.4292   32.1193    8.7638 C   0  0  0  0  0  0  0  0  0  0  0  0
   -1.0905   31.7642    9.3568 C   0  0  0  0  0  0  0  0  0  0  0  0
   -2.2868   31.9158   10.2499 C   0  0  0  0  0  0  0  0  0  0  0  0
  1  2  1  0  0  0
  2  3  1  0  0  0
  3 20  1  0  0  0
 20 21  1  0  0  0
 21 22  1  0  0  0
  3  4  2  0  0  0
  4  5  1  0  0  0
  5  6  2  0  0  0
  6  7  1  0  0  0
  7  8  1  0  0  0
  8  9  1  0  0  0
  9 10  1  0  0  0
 10 11  2  0  0  0
 10 12  1  0  0  0
 12 15  1  0  0  0
 15 16  2  0  0  0
 16 17  1  0  0  0
 17 18  2  0  0  0
 18 19  1  0  0  0
  9 13  1  0  0  0
  6  2  1  0  0  0
 19 15  1  0  0  0
 22 20  1  0  0  0
 13  5  1  0  0  0
 12 14  1  0  0  0
M  END
> <minimizedAffinity>
-8.09433

$$$$
OCNT-2318391


 27 30  0  0  0  0  0  0  0  0999 V2000
   -3.2628   26.5884    5.9782 N   0  0  0  0  0  0  0  0  0  0  0  0
   -2.4187   26.0443    5.7954 H   0  0  0  0  0  0  0  0  0  0  0  0
   -6.3174   26.5129    5.6749 O   0  0  0  0  0  0  0  0  0  0  0  0
   -5.3533   25.8585    4.8698 C   0  0  0  0  0  0  0  0  0  0  0  0
   -5.8407   25.6913    3.4298 C   0  0  0  0  0  0  0  0  0  0  0  0
   -4.6181   25.9781    2.5353 C   0  0  0  0  0  0  0  0  0  0  0  0
   -3.4298   26.0781    3.5025 C   0  0  0  0  0  0  0  0  0  0  0  0
   -4.0611   26.6866    4.7522 C   0  0  0  0  0  0  0  0  0  0  0  0
   -5.8393   26.7957    6.4782 H   0  0  0  0  0  0  0  0  0  0  0  0
   -4.3842   24.9385    1.4389 C   0  0  0  0  0  0  0  0  0  0  0  0
   -5.5910   24.5917    0.7164 N   0  0  0  0  0  0  0  0  0  0  0  0
   -6.2988   23.4291    0.8410 C   0  0  0  0  0  0  0  0  0  0  0  0
   -7.3678   23.5735   -0.0125 C   0  0  0  0  0  0  0  0  0  0  0  0
   -7.3292   24.7928   -0.6379 N   0  0  0  0  0  0  0  0  0  0  0  0
   -6.2503   25.3849   -0.1774 C   0  0  0  0  0  0  0  0  0  0  0  0
   -2.8887   27.8903    6.5534 C   0  0  0  0  0  0  0  0  0  0  0  0
   -1.8134   27.6985    7.6276 C   0  0  0  0  0  0  0  0  0  0  0  0
   -1.3629   29.0644    8.1663 C   0  0  0  0  0  0  0  0  0  0  0  0
   -2.4537   30.0018    8.4701 N   0  0  0  0  0  0  0  0  0  0  0  0
   -3.7684   29.3618    8.4524 C   0  0  0  0  0  0  0  0  0  0  0  0
   -4.0973   28.6399    7.1426 C   0  0  0  0  0  0  0  0  0  0  0  0
   -2.4198   31.2289    7.6593 C   0  0  0  0  0  0  0  0  0  0  0  0
   -3.3599   32.2745    8.1628 C   0  0  0  0  0  0  0  0  0  0  0  0
   -3.4997   32.9268    9.3720 C   0  0  0  0  0  0  0  0  0  0  0  0
   -4.5796   33.8294    9.2189 C   0  0  0  0  0  0  0  0  0  0  0  0
   -5.0248   33.6778    7.9272 C   0  0  0  0  0  0  0  0  0  0  0  0
   -4.2870   32.7433    7.2760 O   0  0  0  0  0  0  0  0  0  0  0  0
  3  4  1  0  0  0
  4  5  1  0  0  0
  5  6  1  0  0  0
  6 10  1  0  0  0
 10 11  1  0  0  0
 11 12  1  0  0  0
 12 13  2  0  0  0
 13 14  1  0  0  0
 14 15  2  0  0  0
  6  7  1  0  0  0
  7  8  1  0  0  0
  8  1  1  0  0  0
  1 16  1  0  0  0
 16 17  1  0  0  0
 17 18  1  0  0  0
 18 19  1  0  0  0
 19 22  1  0  0  0
 22 23  1  0  0  0
 23 24  2  0  0  0
 24 25  1  0  0  0
 25 26  2  0  0  0
 26 27  1  0  0  0
 19 20  1  0  0  0
 20 21  1  0  0  0
  8  4  1  0  0  0
 21 16  1  0  0  0
 15 11  1  0  0  0
 27 23  1  0  0  0
  3  9  1  0  0  0
  1  2  1  0  0  0
M  END
> <minimizedAffinity>
-8.88997

$$$$
OCNT-2318397


 24 26  0  0  0  0  0  0  0  0999 V2000
   -5.8607   28.8853    3.3943 C   0  0  0  0  0  0  0  0  0  0  0  0
   -6.0544   28.0578    4.6700 C   0  0  0  0  0  0  0  0  0  0  0  0
   -6.0281   26.5373    4.3530 C   0  0  0  0  0  0  0  0  0  0  0  0
   -4.7000   26.0085    4.0195 N   0  0  0  0  0  0  0  0  0  0  0  0
   -4.4468   24.9167    3.1883 C   0  0  0  0  0  0  0  0  0  0  0  0
   -3.3090   24.6654    2.7844 O   0  0  0  0  0  0  0  0  0  0  0  0
   -3.5575   26.7453    4.5571 C   0  0  0  0  0  0  0  0  0  0  0  0
   -3.8901   27.5112    5.8453 C   0  0  0  0  0  0  0  0  0  0  0  0
   -5.0321   28.4359    5.6797 N   0  0  0  0  0  0  0  0  0  0  0  0
   -5.5547   24.0004    2.7590 C   0  0  0  0  0  0  0  0  0  0  0  0
   -6.0737   24.1506    1.4883 C   0  0  0  0  0  0  0  0  0  0  0  0
   -7.0591   23.2567    1.1191 C   0  0  0  0  0  0  0  0  0  0  0  0
   -7.4905   22.2793    1.9544 N   0  0  0  0  0  0  0  0  0  0  0  0
   -6.9055   22.2134    3.1587 C   0  0  0  0  0  0  0  0  0  0  0  0
   -5.9510   23.0303    3.6133 N   0  0  0  0  0  0  0  0  0  0  0  0
   -7.6843   23.3678   -0.2530 C   0  0  0  0  0  0  0  0  0  0  0  0
   -8.5006   24.4543   -0.3702 F   0  0  0  0  0  0  0  0  0  0  0  0
   -8.4626   22.2892   -0.5571 F   0  0  0  0  0  0  0  0  0  0  0  0
   -5.3552   29.3239    6.7100 C   0  0  0  0  0  0  0  0  0  0  0  0
   -6.5904   29.9833    6.7641 C   0  0  0  0  0  0  0  0  0  0  0  0
   -6.8702   30.8703    7.7980 C   0  0  0  0  0  0  0  0  0  0  0  0
   -6.0130   31.1613    8.7924 N   0  0  0  0  0  0  0  0  0  0  0  0
   -4.8211   30.5411    8.7355 C   0  0  0  0  0  0  0  0  0  0  0  0
   -4.4573   29.6431    7.7376 C   0  0  0  0  0  0  0  0  0  0  0  0
  1  2  1  0  0  0
  2  3  1  0  0  0
  3  4  1  0  0  0
  4  5  1  0  0  0
  5  6  2  0  0  0
  5 10  1  0  0  0
 10 11  2  0  0  0
 11 12  1  0  0  0
 12 16  1  0  0  0
 16 17  1  0  0  0
 16 18  1  0  0  0
 12 13  2  0  0  0
 13 14  1  0  0  0
 14 15  2  0  0  0
  4  7  1  0  0  0
  7  8  1  0  0  0
  8  9  1  0  0  0
  9 19  1  0  0  0
 19 20  2  0  0  0
 20 21  1  0  0  0
 21 22  2  0  0  0
 22 23  1  0  0  0
 23 24  2  0  0  0
  9  2  1  0  0  0
 24 19  1  0  0  0
 15 10  1  0  0  0
M  END
> <minimizedAffinity>
-8.42673

$$$$
OCNT-2318399


 30 32  0  0  0  0  0  0  0  0999 V2000
   -3.3050   26.3305    4.0372 C   0  0  0  0  0  0  0  0  0  0  0  0
   -2.0344   25.8528    3.6855 C   0  0  0  0  0  0  0  0  0  0  0  0
   -0.9749   25.9616    4.5879 C   0  0  0  0  0  0  0  0  0  0  0  0
   -1.1821   26.5403    5.8399 C   0  0  0  0  0  0  0  0  0  0  0  0
   -2.4489   27.0027    6.1970 C   0  0  0  0  0  0  0  0  0  0  0  0
   -3.5153   26.8862    5.3067 C   0  0  0  0  0  0  0  0  0  0  0  0
   -5.2028   27.2138    3.0018 O   0  0  0  0  0  0  0  0  0  0  0  0
   -4.4669   26.2402    3.1066 C   0  0  0  0  0  0  0  0  0  0  0  0
   -4.5676   25.0517    2.4044 N   0  0  0  0  0  0  0  0  0  0  0  0
   -3.8027   24.3964    2.4942 H   0  0  0  0  0  0  0  0  0  0  0  0
   -5.5828   24.6857    1.4927 C   0  0  0  0  0  0  0  0  0  0  0  0
   -6.4215   23.6306    1.8554 C   0  0  0  0  0  0  0  0  0  0  0  0
   -7.4297   23.2527    0.9827 C   0  0  0  0  0  0  0  0  0  0  0  0
   -7.6548   23.8481   -0.2048 N   0  0  0  0  0  0  0  0  0  0  0  0
   -6.8336   24.8682   -0.5316 C   0  0  0  0  0  0  0  0  0  0  0  0
   -5.7983   25.3189    0.2730 C   0  0  0  0  0  0  0  0  0  0  0  0
   -2.6589   27.5548    7.5033 N   0  0  0  0  0  0  0  0  0  0  0  0
   -2.2187   26.9768    8.2214 H   0  0  0  0  0  0  0  0  0  0  0  0
   -2.0353   29.1329    7.7117 S   0  0  0  0  0  0  0  0  0  0  0  0
   -1.0722   29.0129    8.7893 O   0  0  0  0  0  0  0  0  0  0  0  0
   -1.6763   29.7379    6.4487 O   0  0  0  0  0  0  0  0  0  0  0  0
   -3.4409   30.0051    8.3529 C   0  0  0  0  0  0  0  0  0  0  0  0
   -4.5660   29.2696    8.7563 C   0  0  0  0  0  0  0  0  0  0  0  0
   -5.6824   29.9260    9.2769 C   0  0  0  0  0  0  0  0  0  0  0  0
   -5.6775   31.3149    9.3989 C   0  0  0  0  0  0  0  0  0  0  0  0
   -4.5553   32.0427    8.9998 C   0  0  0  0  0  0  0  0  0  0  0  0
   -4.5740   33.7619    9.1601 Cl  0  0  0  0  0  0  0  0  0  0  0  0
   -3.4308   31.3943    8.4748 C   0  0  0  0  0  0  0  0  0  0  0  0
   -2.3419   32.1235    8.0833 O   0  0  0  0  0  0  0  0  0  0  0  0
   -2.5142   33.0603    8.2970 H   0  0  0  0  0  0  0  0  0  0  0  0
  7  8  2  0  0  0
  8  9  1  0  0  0
  9 11  1  0  0  0
 11 12  2  0  0  0
 12 13  1  0  0  0
 13 14  2  0  0  0
 14 15  1  0  0  0
 15 16  2  0  0  0
  8  1  1  0  0  0
  1  2  1  0  0  0
  2  3  2  0  0  0
  3  4  1  0  0  0
  4  5  2  0  0  0
  5 17  1  0  0  0
 17 19  1  0  0  0
 19 20  2  0  0  0
 19 21  2  0  0  0
 19 22  1  0  0  0
 22 23  2  0  0  0
 23 24  1  0  0  0
 24 25  2  0  0  0
 25 26  1  0  0  0
 26 27  1  0  0  0
 26 28  2  0  0  0
 28 29  1  0  0  0
  5  6  1  0  0  0
 16 11  1  0  0  0
  6  1  2  0  0  0
 28 22  1  0  0  0
  9 10  1  0  0  0
 17 18  1  0  0  0
 29 30  1  0  0  0
M  END
> <minimizedAffinity>
-9.88907

$$$$
OCNT-2318401


 23 26  0  0  0  0  0  0  0  0999 V2000
   -4.8246   26.8012    3.4547 C   0  0  0  0  0  0  0  0  0  0  0  0
   -5.8405   27.4323    3.1601 O   0  0  0  0  0  0  0  0  0  0  0  0
   -4.2923   26.8451    4.7558 N   0  0  0  0  0  0  0  0  0  0  0  0
   -3.1667   26.0141    5.1884 C   0  0  0  0  0  0  0  0  0  0  0  0
   -2.4772   26.4411    6.4844 C   0  0  0  0  0  0  0  0  0  0  0  0
   -1.9576   27.8729    6.4277 C   0  0  0  0  0  0  0  0  0  0  0  0
   -2.9752   28.9002    6.4276 N   0  0  0  0  0  0  0  0  0  0  0  0
   -2.6176   30.1618    6.7299 N   0  0  0  0  0  0  0  0  0  0  0  0
   -3.6926   30.9259    6.6037 N   0  0  0  0  0  0  0  0  0  0  0  0
   -4.7306   30.1294    6.2204 C   0  0  0  0  0  0  0  0  0  0  0  0
   -4.3043   28.8228    6.1149 C   0  0  0  0  0  0  0  0  0  0  0  0
   -5.0383   27.5886    5.7643 C   0  0  0  0  0  0  0  0  0  0  0  0
   -4.0783   25.9420    2.4494 C   0  0  0  0  0  0  0  0  0  0  0  0
   -5.2515   21.2629    2.9149 C   0  0  0  0  0  0  0  0  0  0  0  0
   -5.2492   22.6391    2.3626 C   0  0  0  0  0  0  0  0  0  0  0  0
   -4.4501   23.5793    2.8914 N   0  0  0  0  0  0  0  0  0  0  0  0
   -4.7559   24.6909    2.1772 N   0  0  0  0  0  0  0  0  0  0  0  0
   -5.6357   24.4652    1.1546 C   0  0  0  0  0  0  0  0  0  0  0  0
   -6.0564   25.3586    0.2349 N   0  0  0  0  0  0  0  0  0  0  0  0
   -6.9603   24.8344   -0.6249 C   0  0  0  0  0  0  0  0  0  0  0  0
   -7.4238   23.5234   -0.6176 C   0  0  0  0  0  0  0  0  0  0  0  0
   -6.9391   22.6352    0.3445 C   0  0  0  0  0  0  0  0  0  0  0  0
   -6.0038   23.1324    1.2646 C   0  0  0  0  0  0  0  0  0  0  0  0
 14 15  1  0  0  0
 15 16  2  0  0  0
 16 17  1  0  0  0
 17 13  1  0  0  0
 13  1  1  0  0  0
  1  2  2  0  0  0
  1  3  1  0  0  0
  3  4  1  0  0  0
  4  5  1  0  0  0
  5  6  1  0  0  0
  6  7  1  0  0  0
  7  8  1  0  0  0
  8  9  2  0  0  0
  9 10  1  0  0  0
 10 11  2  0  0  0
 11 12  1  0  0  0
 17 18  1  0  0  0
 18 19  1  0  0  0
 19 20  2  0  0  0
 20 21  1  0  0  0
 21 22  2  0  0  0
 22 23  1  0  0  0
 23 15  1  0  0  0
 12  3  1  0  0  0
 23 18  2  0  0  0
 11  7  1  0  0  0
M  END
> <minimizedAffinity>
-9.26646

$$$$
OCNT-2318404


 31 34  0  0  0  0  0  0  0  0999 V2000
   -5.9868   27.3246    5.2175 C   0  0  0  0  0  0  0  0  0  0  0  0
   -7.1342   27.9559    6.0360 C   0  0  0  0  0  0  0  0  0  0  0  0
   -7.1832   29.4310    5.6177 C   0  0  0  0  0  0  0  0  0  0  0  0
   -6.3663   29.5417    4.3331 C   0  0  0  0  0  0  0  0  0  0  0  0
   -6.1032   28.1040    3.8950 C   0  0  0  0  0  0  0  0  0  0  0  0
   -3.4626   27.3323    5.3856 C   0  0  0  0  0  0  0  0  0  0  0  0
   -3.3265   26.7379    4.3210 O   0  0  0  0  0  0  0  0  0  0  0  0
   -4.7106   27.6342    5.8980 N   0  0  0  0  0  0  0  0  0  0  0  0
   -4.7387   28.3015    6.6544 H   0  0  0  0  0  0  0  0  0  0  0  0
   -1.0118   27.4029    6.3091 C   0  0  0  0  0  0  0  0  0  0  0  0
   -2.3455   27.7966    6.1889 C   0  0  0  0  0  0  0  0  0  0  0  0
   -2.5872   28.8645    7.0118 O   0  0  0  0  0  0  0  0  0  0  0  0
   -1.4359   29.1545    7.6669 C   0  0  0  0  0  0  0  0  0  0  0  0
   -1.2760   30.1781    8.5974 C   0  0  0  0  0  0  0  0  0  0  0  0
    0.0007   30.3267    9.1487 C   0  0  0  0  0  0  0  0  0  0  0  0
    1.0509   29.4838    8.7734 C   0  0  0  0  0  0  0  0  0  0  0  0
    0.8551   28.4593    7.8355 C   0  0  0  0  0  0  0  0  0  0  0  0
   -0.4257   28.2895    7.2721 C   0  0  0  0  0  0  0  0  0  0  0  0
    0.2970   26.8280    4.2396 C   0  0  0  0  0  0  0  0  0  0  0  0
   -0.2838   26.3333    5.5577 C   0  0  0  0  0  0  0  0  0  0  0  0
   -6.1541   25.7898    5.0368 C   0  0  0  0  0  0  0  0  0  0  0  0
   -5.7800   25.2851    3.7246 N   0  0  0  0  0  0  0  0  0  0  0  0
   -5.4115   23.9790    3.5070 C   0  0  0  0  0  0  0  0  0  0  0  0
   -5.4307   23.1271    4.3936 O   0  0  0  0  0  0  0  0  0  0  0  0
   -5.6868   25.9603    2.9715 H   0  0  0  0  0  0  0  0  0  0  0  0
   -5.0725   23.6009    2.0701 C   0  0  0  0  0  0  0  0  0  0  0  0
   -5.1237   24.7651    1.1078 C   0  0  0  0  0  0  0  0  0  0  0  0
   -6.4803   24.8432    0.6370 O   0  0  0  0  0  0  0  0  0  0  0  0
   -7.1178   23.5713    0.8510 C   0  0  0  0  0  0  0  0  0  0  0  0
   -7.6783   23.0511   -0.4594 C   0  0  0  0  0  0  0  0  0  0  0  0
   -6.0881   22.6474    1.4824 C   0  0  0  0  0  0  0  0  0  0  0  0
 19 20  1  0  0  0
 20 10  1  0  0  0
 10 11  2  0  0  0
 11  6  1  0  0  0
  6  7  2  0  0  0
  6  8  1  0  0  0
  8  1  1  0  0  0
  1 21  1  0  0  0
 21 22  1  0  0  0
 22 23  1  0  0  0
 23 24  2  0  0  0
 23 26  1  0  0  0
 26 27  1  0  0  0
 27 28  1  0  0  0
 28 29  1  0  0  0
 29 30  1  0  0  0
 29 31  1  0  0  0
  1  2  1  0  0  0
  2  3  1  0  0  0
  3  4  1  0  0  0
  4  5  1  0  0  0
 11 12  1  0  0  0
 12 13  1  0  0  0
 13 14  2  0  0  0
 14 15  1  0  0  0
 15 16  2  0  0  0
 16 17  1  0  0  0
 17 18  2  0  0  0
 18 10  1  0  0  0
  5  1  1  0  0  0
 18 13  1  0  0  0
 31 26  1  0  0  0
  8  9  1  0  0  0
 22 25  1  0  0  0
M  END
> <minimizedAffinity>
-10.01279

$$$$
OCNT-2318405


 26 28  0  0  0  0  0  0  0  0999 V2000
   -4.4440   28.5208    7.4301 N   0  0  0  0  0  0  0  0  0  0  0  0
   -4.4727   28.8436    8.3979 H   0  0  0  0  0  0  0  0  0  0  0  0
   -3.3193   29.1756    6.7414 C   0  0  0  0  0  0  0  0  0  0  0  0
   -2.7169   30.2829    7.5837 C   0  0  0  0  0  0  0  0  0  0  0  0
   -3.1592   31.6094    7.4606 C   0  0  0  0  0  0  0  0  0  0  0  0
   -2.6200   32.6215    8.2571 C   0  0  0  0  0  0  0  0  0  0  0  0
   -1.6204   32.3238    9.1779 C   0  0  0  0  0  0  0  0  0  0  0  0
   -1.1497   31.0171    9.2874 C   0  0  0  0  0  0  0  0  0  0  0  0
   -1.6863   30.0032    8.4903 C   0  0  0  0  0  0  0  0  0  0  0  0
   -1.0981   28.7785    8.6361 O   0  0  0  0  0  0  0  0  0  0  0  0
   -1.6082   27.7095    7.8316 C   0  0  0  0  0  0  0  0  0  0  0  0
   -2.1806   28.1650    6.4863 C   0  0  0  0  0  0  0  0  0  0  0  0
   -2.6131   26.9713    5.6380 C   0  0  0  0  0  0  0  0  0  0  0  0
   -2.8813   25.8412    6.4656 O   0  0  0  0  0  0  0  0  0  0  0  0
   -2.0400   25.5672    6.8704 H   0  0  0  0  0  0  0  0  0  0  0  0
   -5.7856   28.6291    6.8379 C   0  0  0  0  0  0  0  0  0  0  0  0
   -5.8510   28.0514    5.4296 C   0  0  0  0  0  0  0  0  0  0  0  0
   -5.9658   26.6554    5.2714 C   0  0  0  0  0  0  0  0  0  0  0  0
   -6.0249   26.0799    4.0004 C   0  0  0  0  0  0  0  0  0  0  0  0
   -5.9668   26.8940    2.8769 C   0  0  0  0  0  0  0  0  0  0  0  0
   -6.0218   26.3419    1.6582 F   0  0  0  0  0  0  0  0  0  0  0  0
   -5.8457   28.2694    2.9990 C   0  0  0  0  0  0  0  0  0  0  0  0
   -5.7861   28.8355    4.2690 C   0  0  0  0  0  0  0  0  0  0  0  0
   -5.6401   30.1650    4.3514 F   0  0  0  0  0  0  0  0  0  0  0  0
   -6.4628   30.5002    8.4578 C   0  0  0  0  0  0  0  0  0  0  0  0
   -6.5050   29.9812    7.0248 C   0  0  0  0  0  0  0  0  0  0  0  0
 25 26  1  0  0  0
 26 16  1  0  0  0
 16  1  1  0  0  0
  1  3  1  0  0  0
  3  4  1  0  0  0
  4  5  2  0  0  0
  5  6  1  0  0  0
  6  7  2  0  0  0
  7  8  1  0  0  0
  8  9  2  0  0  0
  9 10  1  0  0  0
 10 11  1  0  0  0
 11 12  1  0  0  0
 12 13  1  0  0  0
 13 14  1  0  0  0
 16 17  1  0  0  0
 17 18  1  0  0  0
 18 19  2  0  0  0
 19 20  1  0  0  0
 20 21  1  0  0  0
 20 22  2  0  0  0
 22 23  1  0  0  0
 23 24  1  0  0  0
 12  3  1  0  0  0
 23 17  2  0  0  0
  9  4  1  0  0  0
  1  2  1  0  0  0
 14 15  1  0  0  0
M  END
> <minimizedAffinity>
-9.14537

$$$$
OCNT-2318428


 26 28  0  0  0  0  0  0  0  0999 V2000
   -3.1984   28.1218    6.2731 C   0  0  0  0  0  0  0  0  0  0  0  0
   -2.8752   26.7566    5.5765 C   0  0  0  0  0  0  0  0  0  0  0  0
   -2.1797   25.9372    6.1956 O   0  0  0  0  0  0  0  0  0  0  0  0
   -3.4653   26.3967    4.3636 N   0  0  0  0  0  0  0  0  0  0  0  0
   -4.2714   27.2803    3.5352 C   0  0  0  0  0  0  0  0  0  0  0  0
   -5.1247   26.5307    2.5516 C   0  0  0  0  0  0  0  0  0  0  0  0
   -5.1234   25.1943    2.3590 C   0  0  0  0  0  0  0  0  0  0  0  0
   -4.1574   24.3537    3.1730 C   0  0  0  0  0  0  0  0  0  0  0  0
   -2.9922   25.1775    3.7117 C   0  0  0  0  0  0  0  0  0  0  0  0
   -6.0359   24.6541    1.3846 C   0  0  0  0  0  0  0  0  0  0  0  0
   -6.3838   25.1245    0.1263 C   0  0  0  0  0  0  0  0  0  0  0  0
   -7.3330   24.2989   -0.5435 C   0  0  0  0  0  0  0  0  0  0  0  0
   -7.6892   23.2102    0.2153 C   0  0  0  0  0  0  0  0  0  0  0  0
   -6.8826   23.1863    1.7188 S   0  0  0  0  0  0  0  0  0  0  0  0
   -1.9793   28.7208    6.9716 C   0  0  0  0  0  0  0  0  0  0  0  0
   -2.1460   29.3524    8.2174 C   0  0  0  0  0  0  0  0  0  0  0  0
   -1.0506   29.8740    8.9082 C   0  0  0  0  0  0  0  0  0  0  0  0
    0.2283   29.7649    8.3694 C   0  0  0  0  0  0  0  0  0  0  0  0
    0.4124   29.1355    7.1406 C   0  0  0  0  0  0  0  0  0  0  0  0
   -0.6820   28.6129    6.4473 C   0  0  0  0  0  0  0  0  0  0  0  0
   -5.3888   29.0479    6.8914 C   0  0  0  0  0  0  0  0  0  0  0  0
   -5.5194   29.6085    5.8111 O   0  0  0  0  0  0  0  0  0  0  0  0
   -4.3437   28.1961    7.1762 N   0  0  0  0  0  0  0  0  0  0  0  0
   -4.1585   27.9977    8.1512 H   0  0  0  0  0  0  0  0  0  0  0  0
   -5.6923   29.0207    9.3929 C   0  0  0  0  0  0  0  0  0  0  0  0
   -6.3651   29.1868    8.0423 C   0  0  0  0  0  0  0  0  0  0  0  0
 25 26  1  0  0  0
 26 21  1  0  0  0
 21 22  2  0  0  0
 21 23  1  0  0  0
 23  1  1  0  0  0
  1  2  1  0  0  0
  2  3  2  0  0  0
  2  4  1  0  0  0
  4  5  1  0  0  0
  5  6  1  0  0  0
  6  7  2  0  0  0
  7 10  1  0  0  0
 10 11  2  0  0  0
 11 12  1  0  0  0
 12 13  2  0  0  0
 13 14  1  0  0  0
  7  8  1  0  0  0
  8  9  1  0  0  0
  1 15  1  0  0  0
 15 16  2  0  0  0
 16 17  1  0  0  0
 17 18  2  0  0  0
 18 19  1  0  0  0
 19 20  2  0  0  0
  9  4  1  0  0  0
 20 15  1  0  0  0
 14 10  1  0  0  0
 23 24  1  0  0  0
M  END
> <minimizedAffinity>
-9.01004

$$$$
OCNT-2318429


 27 30  0  0  0  0  0  0  0  0999 V2000
   -4.6753   29.4377    5.5462 N   0  0  0  0  0  0  0  0  0  0  0  0
   -5.4708   28.3749    5.1662 C   0  0  0  0  0  0  0  0  0  0  0  0
   -6.4155   27.9100    5.7877 O   0  0  0  0  0  0  0  0  0  0  0  0
   -5.0689   27.8792    3.9342 N   0  0  0  0  0  0  0  0  0  0  0  0
   -4.1264   29.8496    4.8074 H   0  0  0  0  0  0  0  0  0  0  0  0
   -4.0881   27.9868    3.7220 H   0  0  0  0  0  0  0  0  0  0  0  0
   -5.7318   26.7511    3.3414 C   0  0  0  0  0  0  0  0  0  0  0  0
   -5.1856   25.3572    3.5393 C   0  0  0  0  0  0  0  0  0  0  0  0
   -6.0717   24.1218    3.4464 C   0  0  0  0  0  0  0  0  0  0  0  0
   -6.4763   24.0812    1.9912 C   0  0  0  0  0  0  0  0  0  0  0  0
   -7.2888   23.1434    1.3740 C   0  0  0  0  0  0  0  0  0  0  0  0
   -7.5565   23.3108    0.0205 C   0  0  0  0  0  0  0  0  0  0  0  0
   -8.3427   22.4233   -0.6031 F   0  0  0  0  0  0  0  0  0  0  0  0
   -7.0274   24.3843   -0.7034 C   0  0  0  0  0  0  0  0  0  0  0  0
   -6.2064   25.3229   -0.0727 C   0  0  0  0  0  0  0  0  0  0  0  0
   -5.9277   25.1674    1.2789 C   0  0  0  0  0  0  0  0  0  0  0  0
   -5.0984   26.0286    2.1772 C   0  0  0  0  0  0  0  0  0  0  0  0
   -3.4355   31.2271    8.5461 C   0  0  0  0  0  0  0  0  0  0  0  0
   -4.6322   31.5413    9.2005 C   0  0  0  0  0  0  0  0  0  0  0  0
   -5.8522   31.1559    8.6510 C   0  0  0  0  0  0  0  0  0  0  0  0
   -5.8922   30.4566    7.4417 C   0  0  0  0  0  0  0  0  0  0  0  0
   -4.7142   30.1412    6.7667 C   0  0  0  0  0  0  0  0  0  0  0  0
   -3.4895   30.5230    7.3300 C   0  0  0  0  0  0  0  0  0  0  0  0
   -1.0706   30.5364    8.9954 C   0  0  0  0  0  0  0  0  0  0  0  0
   -2.1084   31.6359    9.1418 C   0  0  0  0  0  0  0  0  0  0  0  0
   -1.6024   32.7605    8.5552 F   0  0  0  0  0  0  0  0  0  0  0  0
   -2.2095   31.9398   10.4690 F   0  0  0  0  0  0  0  0  0  0  0  0
 24 25  1  0  0  0
 25 26  1  0  0  0
 25 27  1  0  0  0
 25 18  1  0  0  0
 18 19  2  0  0  0
 19 20  1  0  0  0
 20 21  2  0  0  0
 21 22  1  0  0  0
 22  1  1  0  0  0
  1  2  1  0  0  0
  2  3  2  0  0  0
  2  4  1  0  0  0
  4  7  1  0  0  0
  7  8  1  0  0  0
  8  9  1  0  0  0
  9 10  1  0  0  0
 10 11  1  0  0  0
 11 12  2  0  0  0
 12 13  1  0  0  0
 12 14  1  0  0  0
 14 15  2  0  0  0
 15 16  1  0  0  0
 16 17  1  0  0  0
 22 23  2  0  0  0
 23 18  1  0  0  0
 17  7  1  0  0  0
 17  8  1  0  0  0
 16 10  2  0  0  0
  1  5  1  0  0  0
  4  6  1  0  0  0
M  END
> <minimizedAffinity>
-11.30330

$$$$
OCNT-2318445


 22 24  0  0  0  0  0  0  0  0999 V2000
   -7.6523   22.2083    3.7528 C   0  0  0  0  0  0  0  0  0  0  0  0
   -8.3903   21.4338    3.1588 O   0  0  0  0  0  0  0  0  0  0  0  0
   -6.9536   23.2523    3.1849 N   0  0  0  0  0  0  0  0  0  0  0  0
   -6.0775   24.1593    3.9350 C   0  0  0  0  0  0  0  0  0  0  0  0
   -5.4854   25.1883    2.9296 C   0  0  0  0  0  0  0  0  0  0  0  0
   -5.9000   26.6274    3.2891 C   0  0  0  0  0  0  0  0  0  0  0  0
   -5.1729   27.1323    4.5352 C   0  0  0  0  0  0  0  0  0  0  0  0
   -3.7241   27.0273    4.3814 N   0  0  0  0  0  0  0  0  0  0  0  0
   -3.2946   25.6542    4.1287 C   0  0  0  0  0  0  0  0  0  0  0  0
   -3.9495   25.0926    2.8670 C   0  0  0  0  0  0  0  0  0  0  0  0
   -6.1252   24.7310    1.6362 C   0  0  0  0  0  0  0  0  0  0  0  0
   -6.9535   23.6241    1.8342 C   0  0  0  0  0  0  0  0  0  0  0  0
   -7.6371   23.0463    0.7765 C   0  0  0  0  0  0  0  0  0  0  0  0
   -7.4820   23.5945   -0.4999 C   0  0  0  0  0  0  0  0  0  0  0  0
   -6.6523   24.7047   -0.7030 C   0  0  0  0  0  0  0  0  0  0  0  0
   -5.9676   25.2803    0.3680 C   0  0  0  0  0  0  0  0  0  0  0  0
   -3.2651   27.3794    5.2219 H   0  0  0  0  0  0  0  0  0  0  0  0
   -7.4147   22.1413    5.0939 O   0  0  0  0  0  0  0  0  0  0  0  0
   -9.6235   21.3675    5.8674 C   0  0  0  0  0  0  0  0  0  0  0  0
   -8.4760   22.3655    6.0572 C   0  0  0  0  0  0  0  0  0  0  0  0
   -7.8198   22.1018    7.4216 C   0  0  0  0  0  0  0  0  0  0  0  0
   -8.9639   23.8179    6.0237 C   0  0  0  0  0  0  0  0  0  0  0  0
 19 20  1  0  0  0
 20 21  1  0  0  0
 20 22  1  0  0  0
 20 18  1  0  0  0
 18  1  1  0  0  0
  1  2  2  0  0  0
  1  3  1  0  0  0
  3  4  1  0  0  0
  4  5  1  0  0  0
  5  6  1  0  0  0
  6  7  1  0  0  0
  7  8  1  0  0  0
  8  9  1  0  0  0
  9 10  1  0  0  0
  5 11  1  0  0  0
 11 12  1  0  0  0
 12 13  2  0  0  0
 13 14  1  0  0  0
 14 15  2  0  0  0
 15 16  1  0  0  0
 12  3  1  0  0  0
 10  5  1  0  0  0
 16 11  2  0  0  0
  8 17  1  0  0  0
M  END
> <minimizedAffinity>
-8.79495

$$$$
OCNT-2318446


 28 31  0  0  0  0  0  0  0  0999 V2000
   -5.6190   26.9916    3.8231 C   0  0  0  0  0  0  0  0  0  0  0  0
   -5.8478   27.9123    3.0452 O   0  0  0  0  0  0  0  0  0  0  0  0
   -5.3503   27.1883    5.1666 N   0  0  0  0  0  0  0  0  0  0  0  0
   -4.8419   26.4526    5.6427 H   0  0  0  0  0  0  0  0  0  0  0  0
   -7.1993   23.8240   -0.7032 C   0  0  0  0  0  0  0  0  0  0  0  0
   -6.5154   23.2492    0.4841 C   0  0  0  0  0  0  0  0  0  0  0  0
   -6.1662   21.9237    0.6764 C   0  0  0  0  0  0  0  0  0  0  0  0
   -5.5577   21.8102    1.8998 N   0  0  0  0  0  0  0  0  0  0  0  0
   -5.5034   23.0340    2.5055 C   0  0  0  0  0  0  0  0  0  0  0  0
   -4.9703   23.2585    3.7214 N   0  0  0  0  0  0  0  0  0  0  0  0
   -5.0489   24.5606    4.0941 C   0  0  0  0  0  0  0  0  0  0  0  0
   -5.5869   25.5949    3.3334 C   0  0  0  0  0  0  0  0  0  0  0  0
   -6.1406   25.2965    2.0835 C   0  0  0  0  0  0  0  0  0  0  0  0
   -6.0917   23.9602    1.6501 C   0  0  0  0  0  0  0  0  0  0  0  0
   -5.1990   20.9633    2.3155 H   0  0  0  0  0  0  0  0  0  0  0  0
   -5.1681   28.5364    5.6862 C   0  0  0  0  0  0  0  0  0  0  0  0
   -4.3165   28.5511    6.9515 C   0  0  0  0  0  0  0  0  0  0  0  0
   -4.6092   29.9351    7.5317 C   0  0  0  0  0  0  0  0  0  0  0  0
   -6.1250   30.0793    7.3495 C   0  0  0  0  0  0  0  0  0  0  0  0
   -6.4786   29.2301    6.1239 C   0  0  0  0  0  0  0  0  0  0  0  0
   -6.9854   30.0596    5.0869 O   0  0  0  0  0  0  0  0  0  0  0  0
   -7.1141   29.4622    4.3143 H   0  0  0  0  0  0  0  0  0  0  0  0
   -4.1783   30.1119    8.9870 C   0  0  0  0  0  0  0  0  0  0  0  0
   -2.8282   30.6200    9.1191 N   0  0  0  0  0  0  0  0  0  0  0  0
   -1.6790   29.9687    8.7698 C   0  0  0  0  0  0  0  0  0  0  0  0
   -0.6671   30.8451    9.0863 C   0  0  0  0  0  0  0  0  0  0  0  0
   -1.1745   32.0012    9.6206 N   0  0  0  0  0  0  0  0  0  0  0  0
   -2.4776   31.8335    9.6371 C   0  0  0  0  0  0  0  0  0  0  0  0
  5  6  1  0  0  0
  6  7  2  0  0  0
  7  8  1  0  0  0
  8  9  1  0  0  0
  9 10  1  0  0  0
 10 11  2  0  0  0
 11 12  1  0  0  0
 12  1  1  0  0  0
  1  2  2  0  0  0
  1  3  1  0  0  0
  3 16  1  0  0  0
 16 17  1  0  0  0
 17 18  1  0  0  0
 18 23  1  0  0  0
 23 24  1  0  0  0
 24 25  1  0  0  0
 25 26  2  0  0  0
 26 27  1  0  0  0
 27 28  2  0  0  0
 18 19  1  0  0  0
 19 20  1  0  0  0
 20 21  1  0  0  0
 12 13  2  0  0  0
 13 14  1  0  0  0
 14  6  1  0  0  0
 14  9  2  0  0  0
 20 16  1  0  0  0
 28 24  1  0  0  0
  8 15  1  0  0  0
  3  4  1  0  0  0
 21 22  1  0  0  0
M  END
> <minimizedAffinity>
-8.95289

$$$$
OCNT-2318453


 26 28  0  0  0  0  0  0  0  0999 V2000
   -6.3182   27.8969    6.0020 O   0  0  0  0  0  0  0  0  0  0  0  0
   -5.1626   27.9426    5.5890 C   0  0  0  0  0  0  0  0  0  0  0  0
   -4.7990   27.4922    4.3465 N   0  0  0  0  0  0  0  0  0  0  0  0
   -3.8488   27.6905    4.0292 H   0  0  0  0  0  0  0  0  0  0  0  0
   -4.0542   28.5012    6.4143 C   0  0  0  0  0  0  0  0  0  0  0  0
   -4.3320   29.5004    7.2688 C   0  0  0  0  0  0  0  0  0  0  0  0
   -3.4255   30.1091    8.0977 N   0  0  0  0  0  0  0  0  0  0  0  0
   -2.0732   29.7509    8.0696 C   0  0  0  0  0  0  0  0  0  0  0  0
   -1.1426   30.3776    8.9020 C   0  0  0  0  0  0  0  0  0  0  0  0
    0.1992   29.9851    8.8811 C   0  0  0  0  0  0  0  0  0  0  0  0
    0.6200   28.9579    8.0352 C   0  0  0  0  0  0  0  0  0  0  0  0
   -0.3001   28.3156    7.2077 C   0  0  0  0  0  0  0  0  0  0  0  0
   -1.6423   28.7100    7.2300 C   0  0  0  0  0  0  0  0  0  0  0  0
   -2.6381   28.0344    6.3556 C   0  0  0  0  0  0  0  0  0  0  0  0
   -2.2932   27.1260    5.6021 O   0  0  0  0  0  0  0  0  0  0  0  0
   -3.7148   30.9271    8.6221 H   0  0  0  0  0  0  0  0  0  0  0  0
   -5.7830   27.0840    3.3723 C   0  0  0  0  0  0  0  0  0  0  0  0
   -5.7224   25.6044    3.1151 C   0  0  0  0  0  0  0  0  0  0  0  0
   -5.5541   24.6970    4.1725 C   0  0  0  0  0  0  0  0  0  0  0  0
   -5.5132   23.3271    3.9190 C   0  0  0  0  0  0  0  0  0  0  0  0
   -5.3485   22.4870    4.9510 F   0  0  0  0  0  0  0  0  0  0  0  0
   -5.6447   22.8408    2.6191 C   0  0  0  0  0  0  0  0  0  0  0  0
   -5.5963   21.1493    2.3048 Cl  0  0  0  0  0  0  0  0  0  0  0  0
   -5.8213   23.7287    1.5613 C   0  0  0  0  0  0  0  0  0  0  0  0
   -5.8614   25.0972    1.8186 C   0  0  0  0  0  0  0  0  0  0  0  0
   -6.0391   25.9360    0.7886 F   0  0  0  0  0  0  0  0  0  0  0  0
  1  2  2  0  0  0
  2  3  1  0  0  0
  3 17  1  0  0  0
 17 18  1  0  0  0
 18 19  2  0  0  0
 19 20  1  0  0  0
 20 21  1  0  0  0
 20 22  2  0  0  0
 22 23  1  0  0  0
 22 24  1  0  0  0
 24 25  2  0  0  0
 25 26  1  0  0  0
  2  5  1  0  0  0
  5  6  2  0  0  0
  6  7  1  0  0  0
  7  8  1  0  0  0
  8  9  2  0  0  0
  9 10  1  0  0  0
 10 11  2  0  0  0
 11 12  1  0  0  0
 12 13  2  0  0  0
 13 14  1  0  0  0
 14 15  2  0  0  0
 25 18  1  0  0  0
 14  5  1  0  0  0
 13  8  1  0  0  0
  3  4  1  0  0  0
  7 16  1  0  0  0
M  END
> <minimizedAffinity>
-9.53405

$$$$
OCNT-2318479


 26 29  0  0  0  0  0  0  0  0999 V2000
   -6.6599   24.3770    4.5583 N   0  0  0  0  0  0  0  0  0  0  0  0
   -6.0321   25.5124    4.9684 N   0  0  0  0  0  0  0  0  0  0  0  0
   -5.2233   25.8011    3.9459 C   0  0  0  0  0  0  0  0  0  0  0  0
   -5.3700   24.9853    2.8644 N   0  0  0  0  0  0  0  0  0  0  0  0
   -6.3030   24.1262    3.2351 C   0  0  0  0  0  0  0  0  0  0  0  0
   -5.4313   22.3534    6.4251 C   0  0  0  0  0  0  0  0  0  0  0  0
   -6.9057   22.6474    6.3252 C   0  0  0  0  0  0  0  0  0  0  0  0
   -7.7675   21.9043    7.1551 C   0  0  0  0  0  0  0  0  0  0  0  0
   -9.1375   22.1350    7.1455 C   0  0  0  0  0  0  0  0  0  0  0  0
   -9.9341   21.4184    7.9486 F   0  0  0  0  0  0  0  0  0  0  0  0
   -9.6891   23.0914    6.3101 C   0  0  0  0  0  0  0  0  0  0  0  0
   -8.8576   23.8314    5.4675 C   0  0  0  0  0  0  0  0  0  0  0  0
   -7.4645   23.6288    5.4682 C   0  0  0  0  0  0  0  0  0  0  0  0
   -6.9395   23.1288    2.3174 C   0  0  0  0  0  0  0  0  0  0  0  0
   -7.3145   23.7592    0.9666 C   0  0  0  0  0  0  0  0  0  0  0  0
   -7.2128   22.6015   -0.0120 C   0  0  0  0  0  0  0  0  0  0  0  0
   -5.9423   21.8940    0.4342 C   0  0  0  0  0  0  0  0  0  0  0  0
   -5.9717   21.9786    1.9619 C   0  0  0  0  0  0  0  0  0  0  0  0
   -6.4794   20.7572    2.5023 O   0  0  0  0  0  0  0  0  0  0  0  0
   -5.8744   20.0465    2.2227 H   0  0  0  0  0  0  0  0  0  0  0  0
   -4.2830   26.9499    3.9631 C   0  0  0  0  0  0  0  0  0  0  0  0
   -3.0047   26.5654    4.5284 N   0  0  0  0  0  0  0  0  0  0  0  0
   -2.5674   26.7385    5.8078 C   0  0  0  0  0  0  0  0  0  0  0  0
   -1.3216   26.3348    5.9070 N   0  0  0  0  0  0  0  0  0  0  0  0
   -1.0267   25.9352    4.6356 C   0  0  0  0  0  0  0  0  0  0  0  0
   -2.0152   26.0749    3.7487 N   0  0  0  0  0  0  0  0  0  0  0  0
  6  7  1  0  0  0
  7  8  1  0  0  0
  8  9  2  0  0  0
  9 10  1  0  0  0
  9 11  1  0  0  0
 11 12  2  0  0  0
 12 13  1  0  0  0
 13  1  1  0  0  0
  1  2  1  0  0  0
  2  3  2  0  0  0
  3 21  1  0  0  0
 21 22  1  0  0  0
 22 23  1  0  0  0
 23 24  2  0  0  0
 24 25  1  0  0  0
 25 26  2  0  0  0
  3  4  1  0  0  0
  4  5  2  0  0  0
  5 14  1  0  0  0
 14 15  1  0  0  0
 15 16  1  0  0  0
 16 17  1  0  0  0
 17 18  1  0  0  0
 18 19  1  0  0  0
 13  7  2  0  0  0
  5  1  1  0  0  0
 18 14  1  0  0  0
 26 22  1  0  0  0
 19 20  1  0  0  0
M  END
> <minimizedAffinity>
-8.98854

$$$$
OCNT-2318486


 29 31  0  0  0  0  0  0  0  0999 V2000
   -1.1730   27.1889    5.9261 C   0  0  0  0  0  0  0  0  0  0  0  0
   -0.1351   26.5276    5.2670 C   0  0  0  0  0  0  0  0  0  0  0  0
   -0.4000   25.6779    4.1854 C   0  0  0  0  0  0  0  0  0  0  0  0
   -1.7069   25.4877    3.7442 C   0  0  0  0  0  0  0  0  0  0  0  0
   -2.7520   26.1554    4.3889 C   0  0  0  0  0  0  0  0  0  0  0  0
   -2.4864   26.9898    5.4850 C   0  0  0  0  0  0  0  0  0  0  0  0
    0.7506   29.4204    6.2998 O   0  0  0  0  0  0  0  0  0  0  0  0
   -0.0617   29.0728    7.1554 C   0  0  0  0  0  0  0  0  0  0  0  0
   -0.9924   28.0518    7.0298 N   0  0  0  0  0  0  0  0  0  0  0  0
   -1.6310   27.9098    7.8058 H   0  0  0  0  0  0  0  0  0  0  0  0
   -0.1447   29.7900    8.4957 C   0  0  0  0  0  0  0  0  0  0  0  0
   -1.2488   30.8242    8.5469 C   0  0  0  0  0  0  0  0  0  0  0  0
   -1.8638   31.2575    7.3606 C   0  0  0  0  0  0  0  0  0  0  0  0
   -2.8872   32.2061    7.3944 C   0  0  0  0  0  0  0  0  0  0  0  0
   -3.2985   32.7315    8.6175 C   0  0  0  0  0  0  0  0  0  0  0  0
   -4.6881   34.0148    8.6663 Br  0  0  0  0  0  0  0  0  0  0  0  0
   -2.6920   32.3197    9.8046 C   0  0  0  0  0  0  0  0  0  0  0  0
   -1.6664   31.3714    9.7695 C   0  0  0  0  0  0  0  0  0  0  0  0
   -4.1659   25.9816    3.9664 C   0  0  0  0  0  0  0  0  0  0  0  0
   -5.0713   26.1001    4.7837 O   0  0  0  0  0  0  0  0  0  0  0  0
   -4.3671   25.7235    2.6279 N   0  0  0  0  0  0  0  0  0  0  0  0
   -3.6126   25.9279    1.9819 H   0  0  0  0  0  0  0  0  0  0  0  0
   -5.7025   25.7513    2.0902 C   0  0  0  0  0  0  0  0  0  0  0  0
   -5.9452   24.4377    1.4445 C   0  0  0  0  0  0  0  0  0  0  0  0
   -5.3896   23.1964    1.6896 C   0  0  0  0  0  0  0  0  0  0  0  0
   -5.9804   22.2804    0.7840 C   0  0  0  0  0  0  0  0  0  0  0  0
   -6.8631   22.9883   -0.0005 C   0  0  0  0  0  0  0  0  0  0  0  0
   -6.8378   24.2951    0.4073 N   0  0  0  0  0  0  0  0  0  0  0  0
   -7.3809   25.0504    0.0040 H   0  0  0  0  0  0  0  0  0  0  0  0
  7  8  2  0  0  0
  8 11  1  0  0  0
 11 12  1  0  0  0
 12 13  1  0  0  0
 13 14  2  0  0  0
 14 15  1  0  0  0
 15 16  1  0  0  0
 15 17  2  0  0  0
 17 18  1  0  0  0
  8  9  1  0  0  0
  9  1  1  0  0  0
  1  2  2  0  0  0
  2  3  1  0  0  0
  3  4  2  0  0  0
  4  5  1  0  0  0
  5 19  1  0  0  0
 19 20  2  0  0  0
 19 21  1  0  0  0
 21 23  1  0  0  0
 23 24  1  0  0  0
 24 25  2  0  0  0
 25 26  1  0  0  0
 26 27  2  0  0  0
 27 28  1  0  0  0
  5  6  2  0  0  0
 18 12  2  0  0  0
  6  1  1  0  0  0
 28 24  1  0  0  0
  9 10  1  0  0  0
 21 22  1  0  0  0
 28 29  1  0  0  0
M  END
> <minimizedAffinity>
-9.99171

$$$$
OCNT-2318494


 25 27  0  0  0  0  0  0  0  0999 V2000
    0.5427   29.3880    8.9047 C   0  0  0  0  0  0  0  0  0  0  0  0
   -0.4923   28.7299    8.0431 C   0  0  0  0  0  0  0  0  0  0  0  0
   -1.8380   28.9754    8.2592 C   0  0  0  0  0  0  0  0  0  0  0  0
   -2.7844   28.3260    7.4675 C   0  0  0  0  0  0  0  0  0  0  0  0
   -4.1371   28.6912    7.6567 N   0  0  0  0  0  0  0  0  0  0  0  0
   -2.3470   27.5063    6.3985 C   0  0  0  0  0  0  0  0  0  0  0  0
   -3.2125   26.8645    5.4736 C   0  0  0  0  0  0  0  0  0  0  0  0
   -2.7218   26.0495    4.4454 C   0  0  0  0  0  0  0  0  0  0  0  0
   -1.3483   25.8803    4.3345 C   0  0  0  0  0  0  0  0  0  0  0  0
   -0.4871   26.5155    5.2364 C   0  0  0  0  0  0  0  0  0  0  0  0
   -0.9549   27.3251    6.2594 C   0  0  0  0  0  0  0  0  0  0  0  0
   -0.0537   27.9117    7.0628 N   0  0  0  0  0  0  0  0  0  0  0  0
   -4.7947   27.9925    7.3306 H   0  0  0  0  0  0  0  0  0  0  0  0
   -4.3307   29.5899    7.2181 H   0  0  0  0  0  0  0  0  0  0  0  0
   -3.6639   25.4586    3.5767 N   0  0  0  0  0  0  0  0  0  0  0  0
   -4.7311   26.0808    2.9532 C   0  0  0  0  0  0  0  0  0  0  0  0
   -5.0138   27.2716    2.9889 O   0  0  0  0  0  0  0  0  0  0  0  0
   -3.4924   24.4924    3.3330 H   0  0  0  0  0  0  0  0  0  0  0  0
   -5.5832   25.1819    2.1242 C   0  0  0  0  0  0  0  0  0  0  0  0
   -6.2117   24.0531    2.6685 C   0  0  0  0  0  0  0  0  0  0  0  0
   -7.0073   23.2390    1.8562 C   0  0  0  0  0  0  0  0  0  0  0  0
   -7.1804   23.5571    0.5088 C   0  0  0  0  0  0  0  0  0  0  0  0
   -8.1594   22.5511   -0.4853 Cl  0  0  0  0  0  0  0  0  0  0  0  0
   -6.5727   24.6876   -0.0348 C   0  0  0  0  0  0  0  0  0  0  0  0
   -5.7785   25.5040    0.7743 C   0  0  0  0  0  0  0  0  0  0  0  0
  1  2  1  0  0  0
  2  3  1  0  0  0
  3  4  2  0  0  0
  4  5  1  0  0  0
  4  6  1  0  0  0
  6  7  2  0  0  0
  7  8  1  0  0  0
  8 15  1  0  0  0
 15 16  1  0  0  0
 16 17  2  0  0  0
 16 19  1  0  0  0
 19 20  1  0  0  0
 20 21  2  0  0  0
 21 22  1  0  0  0
 22 23  1  0  0  0
 22 24  2  0  0  0
 24 25  1  0  0  0
  8  9  2  0  0  0
  9 10  1  0  0  0
 10 11  2  0  0  0
 11 12  1  0  0  0
 12  2  2  0  0  0
 11  6  1  0  0  0
 25 19  2  0  0  0
  5 13  1  0  0  0
  5 14  1  0  0  0
 15 18  1  0  0  0
M  END
> <minimizedAffinity>
-10.07331

$$$$
OCNT-2318495


 26 29  0  0  0  0  0  0  0  0999 V2000
   -4.5227   28.0920    6.3863 C   0  0  0  0  0  0  0  0  0  0  0  0
   -4.9306   29.1888    7.1248 C   0  0  0  0  0  0  0  0  0  0  0  0
   -6.1508   29.5462    6.6462 N   0  0  0  0  0  0  0  0  0  0  0  0
   -6.9730   30.6437    7.0937 C   0  0  0  0  0  0  0  0  0  0  0  0
   -6.5897   28.7579    5.6565 N   0  0  0  0  0  0  0  0  0  0  0  0
   -5.6244   27.8372    5.5005 C   0  0  0  0  0  0  0  0  0  0  0  0
   -5.7699   26.7934    4.4861 C   0  0  0  0  0  0  0  0  0  0  0  0
   -6.0827   25.4745    4.8351 C   0  0  0  0  0  0  0  0  0  0  0  0
   -6.1538   24.4793    3.8542 C   0  0  0  0  0  0  0  0  0  0  0  0
   -5.9304   24.7993    2.5118 C   0  0  0  0  0  0  0  0  0  0  0  0
   -5.6598   26.1221    2.1503 C   0  0  0  0  0  0  0  0  0  0  0  0
   -5.5831   27.1131    3.1332 C   0  0  0  0  0  0  0  0  0  0  0  0
   -5.9747   23.7753    1.5098 C   0  0  0  0  0  0  0  0  0  0  0  0
   -6.0035   22.9437    0.7005 N   0  0  0  0  0  0  0  0  0  0  0  0
   -3.2416   27.3361    6.5463 C   0  0  0  0  0  0  0  0  0  0  0  0
    0.6903   29.3873    6.1284 C   0  0  0  0  0  0  0  0  0  0  0  0
    0.0158   28.2919    6.9425 C   0  0  0  0  0  0  0  0  0  0  0  0
   -0.7934   27.2432    6.1280 C   0  0  0  0  0  0  0  0  0  0  0  0
   -1.9866   28.0699    6.3849 N   0  0  0  0  0  0  0  0  0  0  0  0
   -1.3606   28.5827    7.6297 C   0  0  0  0  0  0  0  0  0  0  0  0
   -1.7796   30.0724    7.9818 C   0  0  0  0  0  0  0  0  0  0  0  0
   -2.0895   31.0589    7.0224 C   0  0  0  0  0  0  0  0  0  0  0  0
   -2.4832   32.3531    7.3792 C   0  0  0  0  0  0  0  0  0  0  0  0
   -2.5754   32.7076    8.7194 C   0  0  0  0  0  0  0  0  0  0  0  0
   -2.2659   31.7717    9.6982 C   0  0  0  0  0  0  0  0  0  0  0  0
   -1.8733   30.4810    9.3301 C   0  0  0  0  0  0  0  0  0  0  0  0
 16 17  1  0  0  0
 17 18  1  0  0  0
 18 19  1  0  0  0
 19 15  1  0  0  0
 15  1  1  0  0  0
  1  2  2  0  0  0
  2  3  1  0  0  0
  3  4  1  0  0  0
  3  5  1  0  0  0
  5  6  2  0  0  0
  6  7  1  0  0  0
  7  8  1  0  0  0
  8  9  2  0  0  0
  9 10  1  0  0  0
 10 13  1  0  0  0
 13 14  3  0  0  0
 10 11  2  0  0  0
 11 12  1  0  0  0
 19 20  1  0  0  0
 20 21  1  0  0  0
 21 22  2  0  0  0
 22 23  1  0  0  0
 23 24  2  0  0  0
 24 25  1  0  0  0
 25 26  2  0  0  0
 20 17  1  0  0  0
 26 21  1  0  0  0
  6  1  1  0  0  0
 12  7  2  0  0  0
M  END
> <minimizedAffinity>
-9.18919

$$$$
OCNT-2318499


 27 29  0  0  0  0  0  0  0  0999 V2000
   -6.2766   29.6446    7.8043 N   0  0  0  0  0  0  0  0  0  0  0  0
   -7.0640   29.1361    8.2055 H   0  0  0  0  0  0  0  0  0  0  0  0
   -8.0825   30.6766    6.4195 C   0  0  0  0  0  0  0  0  0  0  0  0
   -6.6588   30.0954    6.4561 C   0  0  0  0  0  0  0  0  0  0  0  0
   -6.3475   29.0654    5.3724 C   0  0  0  0  0  0  0  0  0  0  0  0
   -6.2946   27.7028    5.7189 C   0  0  0  0  0  0  0  0  0  0  0  0
   -6.0038   26.7246    4.7597 C   0  0  0  0  0  0  0  0  0  0  0  0
   -5.7976   27.0988    3.4308 C   0  0  0  0  0  0  0  0  0  0  0  0
   -5.8448   28.4467    3.0660 C   0  0  0  0  0  0  0  0  0  0  0  0
   -6.1201   29.4240    4.0324 C   0  0  0  0  0  0  0  0  0  0  0  0
   -5.4385   26.0663    2.4336 C   0  0  0  0  0  0  0  0  0  0  0  0
   -6.2036   25.9009    1.4862 O   0  0  0  0  0  0  0  0  0  0  0  0
   -4.2780   25.3151    2.6258 N   0  0  0  0  0  0  0  0  0  0  0  0
   -3.1357   25.7633    3.4136 C   0  0  0  0  0  0  0  0  0  0  0  0
   -4.0292   24.2224    1.7033 C   0  0  0  0  0  0  0  0  0  0  0  0
   -5.9077   30.7100    8.7304 C   0  0  0  0  0  0  0  0  0  0  0  0
   -4.4266   30.5936    8.9674 C   0  0  0  0  0  0  0  0  0  0  0  0
   -3.4513   30.8978    7.8417 C   0  0  0  0  0  0  0  0  0  0  0  0
   -3.5102   31.8041    9.0740 C   0  0  0  0  0  0  0  0  0  0  0  0
   -2.4345   31.7342   10.1375 C   0  0  0  0  0  0  0  0  0  0  0  0
   -4.0518   33.1992    8.8768 C   0  0  0  0  0  0  0  0  0  0  0  0
   -2.2660   29.9953    7.5759 C   0  0  0  0  0  0  0  0  0  0  0  0
   -1.1148   30.4826    6.9217 C   0  0  0  0  0  0  0  0  0  0  0  0
   -0.0278   29.6522    6.6403 C   0  0  0  0  0  0  0  0  0  0  0  0
   -0.0767   28.3048    6.9931 C   0  0  0  0  0  0  0  0  0  0  0  0
   -1.2079   27.7928    7.6260 C   0  0  0  0  0  0  0  0  0  0  0  0
   -2.2917   28.6301    7.9086 C   0  0  0  0  0  0  0  0  0  0  0  0
  3  4  1  0  0  0
  4  1  1  0  0  0
  1 16  1  0  0  0
 16 17  1  0  0  0
 17 18  1  0  0  0
 18 22  1  0  0  0
 22 23  2  0  0  0
 23 24  1  0  0  0
 24 25  2  0  0  0
 25 26  1  0  0  0
 26 27  2  0  0  0
 18 19  1  0  0  0
 19 20  1  0  0  0
 19 21  1  0  0  0
  4  5  1  0  0  0
  5  6  1  0  0  0
  6  7  2  0  0  0
  7  8  1  0  0  0
  8 11  1  0  0  0
 11 12  2  0  0  0
 11 13  1  0  0  0
 13 14  1  0  0  0
 13 15  1  0  0  0
  8  9  2  0  0  0
  9 10  1  0  0  0
 19 17  1  0  0  0
 10  5  2  0  0  0
 27 22  1  0  0  0
  1  2  1  0  0  0
M  END
> <minimizedAffinity>
-9.44642

$$$$
OCNT-2318507


 25 27  0  0  0  0  0  0  0  0999 V2000
   -5.9793   28.5679    6.8122 C   0  0  0  0  0  0  0  0  0  0  0  0
   -2.4817   29.0852    7.8579 C   0  0  0  0  0  0  0  0  0  0  0  0
   -3.2628   29.9936    8.8179 C   0  0  0  0  0  0  0  0  0  0  0  0
   -4.7142   29.5859    8.6380 C   0  0  0  0  0  0  0  0  0  0  0  0
   -4.7512   29.2759    7.2069 N   0  0  0  0  0  0  0  0  0  0  0  0
   -3.5602   28.4562    6.9644 C   0  0  0  0  0  0  0  0  0  0  0  0
   -1.4412   29.8811    7.0738 C   0  0  0  0  0  0  0  0  0  0  0  0
   -0.1338   27.5169    7.0375 N   0  0  0  0  0  0  0  0  0  0  0  0
    0.1969   29.1569    7.1451 S   0  0  0  0  0  0  0  0  0  0  0  0
    0.9460   29.4766    5.9535 O   0  0  0  0  0  0  0  0  0  0  0  0
    0.7438   29.3437    8.4683 O   0  0  0  0  0  0  0  0  0  0  0  0
    0.3178   27.1226    6.2100 H   0  0  0  0  0  0  0  0  0  0  0  0
    0.1412   27.0513    7.9050 H   0  0  0  0  0  0  0  0  0  0  0  0
   -5.9200   28.1691    5.3654 C   0  0  0  0  0  0  0  0  0  0  0  0
   -5.7198   26.8923    5.0109 N   0  0  0  0  0  0  0  0  0  0  0  0
   -5.7326   26.8943    3.6523 N   0  0  0  0  0  0  0  0  0  0  0  0
   -5.9283   28.1649    3.1570 C   0  0  0  0  0  0  0  0  0  0  0  0
   -6.0532   29.0047    4.2366 C   0  0  0  0  0  0  0  0  0  0  0  0
   -5.5554   25.6855    2.9218 C   0  0  0  0  0  0  0  0  0  0  0  0
   -5.8335   25.6631    1.5434 C   0  0  0  0  0  0  0  0  0  0  0  0
   -5.6674   24.4878    0.8048 C   0  0  0  0  0  0  0  0  0  0  0  0
   -5.2229   23.3291    1.4360 C   0  0  0  0  0  0  0  0  0  0  0  0
   -4.9486   23.3554    2.7985 C   0  0  0  0  0  0  0  0  0  0  0  0
   -4.5210   22.2391    3.4034 F   0  0  0  0  0  0  0  0  0  0  0  0
   -5.1087   24.5169    3.5499 C   0  0  0  0  0  0  0  0  0  0  0  0
  8  9  1  0  0  0
  9 10  2  0  0  0
  9 11  2  0  0  0
  9  7  1  0  0  0
  7  2  1  0  0  0
  2  3  1  0  0  0
  3  4  1  0  0  0
  4  5  1  0  0  0
  5  1  1  0  0  0
  1 14  1  0  0  0
 14 15  2  0  0  0
 15 16  1  0  0  0
 16 19  1  0  0  0
 19 20  2  0  0  0
 20 21  1  0  0  0
 21 22  2  0  0  0
 22 23  1  0  0  0
 23 24  1  0  0  0
 23 25  2  0  0  0
 16 17  1  0  0  0
 17 18  2  0  0  0
  5  6  1  0  0  0
  6  2  1  0  0  0
 18 14  1  0  0  0
 25 19  1  0  0  0
  8 12  1  0  0  0
  8 13  1  0  0  0
M  END
> <minimizedAffinity>
-8.48477

$$$$
OCNT-2318516


 28 31  0  0  0  0  0  0  0  0999 V2000
   -4.3236   30.1499    6.2837 O   0  0  0  0  0  0  0  0  0  0  0  0
   -3.9413   29.2236    6.9966 C   0  0  0  0  0  0  0  0  0  0  0  0
   -3.7782   27.9018    6.6122 N   0  0  0  0  0  0  0  0  0  0  0  0
   -3.4761   27.2172    7.3010 H   0  0  0  0  0  0  0  0  0  0  0  0
   -3.6315   29.4256    8.4844 C   0  0  0  0  0  0  0  0  0  0  0  0
   -4.4678   30.5873    9.1060 C   0  0  0  0  0  0  0  0  0  0  0  0
   -3.8329   31.9916    8.9383 C   0  0  0  0  0  0  0  0  0  0  0  0
   -2.4230   32.0744    9.5591 C   0  0  0  0  0  0  0  0  0  0  0  0
   -1.6565   30.8684    9.1531 C   0  0  0  0  0  0  0  0  0  0  0  0
   -2.1754   29.6820    8.6769 C   0  0  0  0  0  0  0  0  0  0  0  0
   -1.1673   28.7899    8.3865 N   0  0  0  0  0  0  0  0  0  0  0  0
   -0.0505   29.4421    8.6437 C   0  0  0  0  0  0  0  0  0  0  0  0
   -0.2972   30.7011    9.1471 N   0  0  0  0  0  0  0  0  0  0  0  0
    0.4030   31.3837    9.4169 H   0  0  0  0  0  0  0  0  0  0  0  0
   -4.0407   27.3531    5.3867 C   0  0  0  0  0  0  0  0  0  0  0  0
   -5.2029   27.5202    4.7980 N   0  0  0  0  0  0  0  0  0  0  0  0
   -5.1863   26.8966    3.5658 C   0  0  0  0  0  0  0  0  0  0  0  0
   -4.0255   26.2181    3.2514 C   0  0  0  0  0  0  0  0  0  0  0  0
   -2.9136   26.3928    4.5447 S   0  0  0  0  0  0  0  0  0  0  0  0
   -3.6874   25.4206    2.0344 C   0  0  0  0  0  0  0  0  0  0  0  0
   -4.8759   24.7000    1.4352 C   0  0  0  0  0  0  0  0  0  0  0  0
   -5.6745   25.3180    0.4632 C   0  0  0  0  0  0  0  0  0  0  0  0
   -6.7459   24.6406   -0.1182 C   0  0  0  0  0  0  0  0  0  0  0  0
   -7.0172   23.3296    0.2636 C   0  0  0  0  0  0  0  0  0  0  0  0
   -8.3199   22.4704   -0.4843 Cl  0  0  0  0  0  0  0  0  0  0  0  0
   -6.2466   22.7021    1.2354 C   0  0  0  0  0  0  0  0  0  0  0  0
   -5.1906   23.3863    1.8216 C   0  0  0  0  0  0  0  0  0  0  0  0
   -4.4705   22.7707    2.7759 F   0  0  0  0  0  0  0  0  0  0  0  0
  1  2  2  0  0  0
  2  3  1  0  0  0
  3 15  1  0  0  0
 15 16  2  0  0  0
 16 17  1  0  0  0
 17 18  2  0  0  0
 18 20  1  0  0  0
 20 21  1  0  0  0
 21 22  1  0  0  0
 22 23  2  0  0  0
 23 24  1  0  0  0
 24 25  1  0  0  0
 24 26  2  0  0  0
 26 27  1  0  0  0
 27 28  1  0  0  0
 18 19  1  0  0  0
  2  5  1  0  0  0
  5  6  1  0  0  0
  6  7  1  0  0  0
  7  8  1  0  0  0
  8  9  1  0  0  0
  9 10  2  0  0  0
 10 11  1  0  0  0
 11 12  2  0  0  0
 12 13  1  0  0  0
 19 15  1  0  0  0
 10  5  1  0  0  0
 27 21  2  0  0  0
 13  9  1  0  0  0
  3  4  1  0  0  0
 13 14  1  0  0  0
M  END
> <minimizedAffinity>
-10.26728

$$$$
OCNT-2318523


 24 26  0  0  0  0  0  0  0  0999 V2000
   -5.4020   29.8078    7.1668 N   0  0  0  0  0  0  0  0  0  0  0  0
   -5.8044   28.6600    6.4597 C   0  0  0  0  0  0  0  0  0  0  0  0
   -6.8143   28.0185    6.7728 O   0  0  0  0  0  0  0  0  0  0  0  0
   -4.9258   28.1961    5.2755 C   0  0  0  0  0  0  0  0  0  0  0  0
   -4.8553   26.6457    5.2065 C   0  0  0  0  0  0  0  0  0  0  0  0
   -4.3724   26.1199    3.9105 N   0  0  0  0  0  0  0  0  0  0  0  0
   -2.9509   26.4011    3.7189 C   0  0  0  0  0  0  0  0  0  0  0  0
   -5.1841   26.6898    2.8094 C   0  0  0  0  0  0  0  0  0  0  0  0
   -6.0890   27.8676    3.2238 C   0  0  0  0  0  0  0  0  0  0  0  0
   -5.3773   28.7962    4.0455 O   0  0  0  0  0  0  0  0  0  0  0  0
   -6.3339   30.3711    8.1351 C   0  0  0  0  0  0  0  0  0  0  0  0
   -6.8515   29.5899    9.3178 C   0  0  0  0  0  0  0  0  0  0  0  0
   -5.9140   30.7310    9.5405 C   0  0  0  0  0  0  0  0  0  0  0  0
   -4.3908   30.7506    6.6431 C   0  0  0  0  0  0  0  0  0  0  0  0
   -1.1796   29.9126    8.5110 C   0  0  0  0  0  0  0  0  0  0  0  0
   -0.9261   31.1113    9.1752 C   0  0  0  0  0  0  0  0  0  0  0  0
   -1.7822   32.2061    9.0306 C   0  0  0  0  0  0  0  0  0  0  0  0
   -2.9136   32.1176    8.2161 C   0  0  0  0  0  0  0  0  0  0  0  0
   -3.1792   30.9137    7.5375 C   0  0  0  0  0  0  0  0  0  0  0  0
   -2.2989   29.8209    7.6866 C   0  0  0  0  0  0  0  0  0  0  0  0
    1.0630   29.1404    8.3327 C   0  0  0  0  0  0  0  0  0  0  0  0
   -0.2777   28.9183    8.7624 O   0  0  0  0  0  0  0  0  0  0  0  0
   -3.8179   33.1302    8.0304 O   0  0  0  0  0  0  0  0  0  0  0  0
   -4.3444   33.7629    9.1897 C   0  0  0  0  0  0  0  0  0  0  0  0
 21 22  1  0  0  0
 22 15  1  0  0  0
 15 16  1  0  0  0
 16 17  2  0  0  0
 17 18  1  0  0  0
 18 23  1  0  0  0
 23 24  1  0  0  0
 18 19  2  0  0  0
 19 14  1  0  0  0
 14  1  1  0  0  0
  1  2  1  0  0  0
  2  3  2  0  0  0
  2  4  1  0  0  0
  4  5  1  0  0  0
  5  6  1  0  0  0
  6  7  1  0  0  0
  6  8  1  0  0  0
  8  9  1  0  0  0
  9 10  1  0  0  0
  1 11  1  0  0  0
 11 12  1  0  0  0
 12 13  1  0  0  0
 19 20  1  0  0  0
 20 15  2  0  0  0
 10  4  1  0  0  0
 13 11  1  0  0  0
M  END
> <minimizedAffinity>
-7.21092

$$$$
OCNT-2318531


 26 29  0  0  0  0  0  0  0  0999 V2000
   -5.3892   29.9463    7.5080 N   0  0  0  0  0  0  0  0  0  0  0  0
   -6.3036   30.0173    7.9538 H   0  0  0  0  0  0  0  0  0  0  0  0
   -5.5208   29.2579    6.3379 C   0  0  0  0  0  0  0  0  0  0  0  0
   -5.8408   29.9026    5.2504 N   0  0  0  0  0  0  0  0  0  0  0  0
   -5.9833   29.2158    4.0448 C   0  0  0  0  0  0  0  0  0  0  0  0
   -6.2459   29.7687    2.9842 O   0  0  0  0  0  0  0  0  0  0  0  0
   -5.8029   27.7828    4.1241 C   0  0  0  0  0  0  0  0  0  0  0  0
   -5.4825   27.1922    5.3112 C   0  0  0  0  0  0  0  0  0  0  0  0
   -5.4061   25.8555    5.1018 N   0  0  0  0  0  0  0  0  0  0  0  0
   -5.6436   25.5313    3.8094 N   0  0  0  0  0  0  0  0  0  0  0  0
   -5.8870   26.7151    3.2204 C   0  0  0  0  0  0  0  0  0  0  0  0
   -5.3097   27.9011    6.4348 N   0  0  0  0  0  0  0  0  0  0  0  0
   -5.1948   25.1112    5.7571 H   0  0  0  0  0  0  0  0  0  0  0  0
   -5.2971   27.4964    7.3626 H   0  0  0  0  0  0  0  0  0  0  0  0
   -1.0622   30.1834    8.2635 C   0  0  0  0  0  0  0  0  0  0  0  0
   -0.7622   31.2150    9.1803 C   0  0  0  0  0  0  0  0  0  0  0  0
   -1.7161   32.1724    9.5375 C   0  0  0  0  0  0  0  0  0  0  0  0
   -2.9780   32.0828    8.9797 C   0  0  0  0  0  0  0  0  0  0  0  0
   -4.1408   33.0026    9.1824 C   0  0  0  0  0  0  0  0  0  0  0  0
   -5.2988   32.1397    8.6625 C   0  0  0  0  0  0  0  0  0  0  0  0
   -4.7047   31.2262    7.5728 C   0  0  0  0  0  0  0  0  0  0  0  0
   -3.2939   31.0690    8.0694 C   0  0  0  0  0  0  0  0  0  0  0  0
   -2.3476   30.1227    7.6997 C   0  0  0  0  0  0  0  0  0  0  0  0
    0.4890   29.3409    6.4617 C   0  0  0  0  0  0  0  0  0  0  0  0
    0.0091   29.1668    7.9048 C   0  0  0  0  0  0  0  0  0  0  0  0
    1.1859   29.2226    8.8818 C   0  0  0  0  0  0  0  0  0  0  0  0
 24 25  1  0  0  0
 25 26  1  0  0  0
 25 15  1  0  0  0
 15 16  1  0  0  0
 16 17  2  0  0  0
 17 18  1  0  0  0
 18 19  1  0  0  0
 19 20  1  0  0  0
 20 21  1  0  0  0
 21  1  1  0  0  0
  1  3  1  0  0  0
  3  4  2  0  0  0
  4  5  1  0  0  0
  5  6  2  0  0  0
  5  7  1  0  0  0
  7  8  2  0  0  0
  8  9  1  0  0  0
  9 10  1  0  0  0
 10 11  2  0  0  0
  8 12  1  0  0  0
 21 22  1  0  0  0
 22 23  1  0  0  0
 23 15  2  0  0  0
 22 18  2  0  0  0
 12  3  1  0  0  0
 11  7  1  0  0  0
  1  2  1  0  0  0
  9 13  1  0  0  0
 12 14  1  0  0  0
M  END
> <minimizedAffinity>
-10.34138

$$$$
OCNT-2318536


 28 30  0  0  0  0  0  0  0  0999 V2000
   -4.3405   29.3789    8.5216 C   0  0  0  0  0  0  0  0  0  0  0  0
   -3.7827   28.4346    7.6559 C   0  0  0  0  0  0  0  0  0  0  0  0
   -2.4348   28.5367    7.2877 C   0  0  0  0  0  0  0  0  0  0  0  0
   -1.6603   29.5831    7.8172 C   0  0  0  0  0  0  0  0  0  0  0  0
   -2.2146   30.5330    8.6918 C   0  0  0  0  0  0  0  0  0  0  0  0
   -3.5658   30.4165    9.0490 C   0  0  0  0  0  0  0  0  0  0  0  0
   -6.5344   30.8789    9.3702 C   0  0  0  0  0  0  0  0  0  0  0  0
   -6.0377   29.2104    9.0270 S   0  0  0  0  0  0  0  0  0  0  0  0
   -6.0415   28.4673   10.2730 O   0  0  0  0  0  0  0  0  0  0  0  0
   -6.7882   28.7394    7.8781 O   0  0  0  0  0  0  0  0  0  0  0  0
   -1.3544   31.6272    9.2795 C   0  0  0  0  0  0  0  0  0  0  0  0
   -1.7978   32.0630   10.4900 F   0  0  0  0  0  0  0  0  0  0  0  0
   -1.2908   32.7254    8.4791 F   0  0  0  0  0  0  0  0  0  0  0  0
   -0.0665   31.2302    9.4806 F   0  0  0  0  0  0  0  0  0  0  0  0
   -1.7989   27.4977    6.3968 C   0  0  0  0  0  0  0  0  0  0  0  0
   -2.6215   27.2414    5.2405 N   0  0  0  0  0  0  0  0  0  0  0  0
   -2.2770   26.2925    4.3127 C   0  0  0  0  0  0  0  0  0  0  0  0
   -1.2311   25.6616    4.3069 O   0  0  0  0  0  0  0  0  0  0  0  0
   -3.5526   27.6317    5.2102 H   0  0  0  0  0  0  0  0  0  0  0  0
   -3.3025   26.0748    3.2668 C   0  0  0  0  0  0  0  0  0  0  0  0
   -4.6389   26.7728    3.3370 C   0  0  0  0  0  0  0  0  0  0  0  0
   -4.5542   25.2952    3.6155 C   0  0  0  0  0  0  0  0  0  0  0  0
   -5.1416   24.2954    2.5727 C   0  0  0  0  0  0  0  0  0  0  0  0
   -4.9704   22.9305    2.6415 C   0  0  0  0  0  0  0  0  0  0  0  0
   -5.6210   22.2686    1.5552 C   0  0  0  0  0  0  0  0  0  0  0  0
   -6.2336   23.1719    0.7213 C   0  0  0  0  0  0  0  0  0  0  0  0
   -7.1359   22.8131   -0.6950 Cl  0  0  0  0  0  0  0  0  0  0  0  0
   -6.0309   24.7828    1.2032 S   0  0  0  0  0  0  0  0  0  0  0  0
  7  8  1  0  0  0
  8  9  2  0  0  0
  8 10  2  0  0  0
  8  1  1  0  0  0
  1  2  1  0  0  0
  2  3  2  0  0  0
  3 15  1  0  0  0
 15 16  1  0  0  0
 16 17  1  0  0  0
 17 18  2  0  0  0
 17 20  1  0  0  0
 20 21  1  0  0  0
 21 22  1  0  0  0
 22 23  1  0  0  0
 23 24  2  0  0  0
 24 25  1  0  0  0
 25 26  2  0  0  0
 26 27  1  0  0  0
 26 28  1  0  0  0
  3  4  1  0  0  0
  4  5  2  0  0  0
  5 11  1  0  0  0
 11 12  1  0  0  0
 11 13  1  0  0  0
 11 14  1  0  0  0
  5  6  1  0  0  0
  6  1  2  0  0  0
 22 20  1  0  0  0
 28 23  1  0  0  0
 16 19  1  0  0  0
M  END
> <minimizedAffinity>
-9.61164

$$$$
OCNT-2318541


 32 37  0  0  0  0  0  0  0  0999 V2000
   -2.8264   27.8508    6.1988 C   0  0  0  0  0  0  0  0  0  0  0  0
   -1.9328   27.1055    5.4214 C   0  0  0  0  0  0  0  0  0  0  0  0
   -0.5750   27.0639    5.7449 C   0  0  0  0  0  0  0  0  0  0  0  0
   -0.0784   27.7323    6.8116 N   0  0  0  0  0  0  0  0  0  0  0  0
   -0.9652   28.4631    7.5075 C   0  0  0  0  0  0  0  0  0  0  0  0
   -2.3220   28.5955    7.2701 C   0  0  0  0  0  0  0  0  0  0  0  0
   -2.7618   29.5212    8.2616 C   0  0  0  0  0  0  0  0  0  0  0  0
   -1.7530   29.8505    9.0853 N   0  0  0  0  0  0  0  0  0  0  0  0
   -0.6344   29.1993    8.6009 O   0  0  0  0  0  0  0  0  0  0  0  0
   -4.0837   30.1050    8.4565 C   0  0  0  0  0  0  0  0  0  0  0  0
   -4.3889   31.3724    7.9432 C   0  0  0  0  0  0  0  0  0  0  0  0
   -5.6638   31.9160    8.1176 C   0  0  0  0  0  0  0  0  0  0  0  0
   -6.6373   31.2017    8.8132 C   0  0  0  0  0  0  0  0  0  0  0  0
   -6.3376   29.9470    9.3416 C   0  0  0  0  0  0  0  0  0  0  0  0
   -5.0644   29.4003    9.1673 C   0  0  0  0  0  0  0  0  0  0  0  0
   -4.8690   28.8556    5.7302 O   0  0  0  0  0  0  0  0  0  0  0  0
   -4.2532   27.8075    5.8544 C   0  0  0  0  0  0  0  0  0  0  0  0
   -4.7747   26.5567    5.6534 N   0  0  0  0  0  0  0  0  0  0  0  0
   -4.1831   25.7364    5.6912 H   0  0  0  0  0  0  0  0  0  0  0  0
   -6.1490   26.3499    5.2326 C   0  0  0  0  0  0  0  0  0  0  0  0
   -6.2225   25.1516    4.3511 C   0  0  0  0  0  0  0  0  0  0  0  0
   -6.5501   23.9098    4.6603 N   0  0  0  0  0  0  0  0  0  0  0  0
   -6.4669   23.2432    3.4645 C   0  0  0  0  0  0  0  0  0  0  0  0
   -6.7050   21.9018    3.1384 C   0  0  0  0  0  0  0  0  0  0  0  0
   -6.5384   21.5065    1.8023 C   0  0  0  0  0  0  0  0  0  0  0  0
   -6.1430   22.4234    0.8190 C   0  0  0  0  0  0  0  0  0  0  0  0
   -5.8989   23.7672    1.1308 C   0  0  0  0  0  0  0  0  0  0  0  0
   -6.0777   24.1182    2.4636 C   0  0  0  0  0  0  0  0  0  0  0  0
   -5.9128   25.3513    3.0256 O   0  0  0  0  0  0  0  0  0  0  0  0
    0.4326   26.2611    4.9381 C   0  0  0  0  0  0  0  0  0  0  0  0
    0.7919   26.6169    3.5138 C   0  0  0  0  0  0  0  0  0  0  0  0
    0.0044   25.3680    3.7965 C   0  0  0  0  0  0  0  0  0  0  0  0
 16 17  2  0  0  0
 17 18  1  0  0  0
 18 20  1  0  0  0
 20 21  1  0  0  0
 21 22  2  0  0  0
 22 23  1  0  0  0
 23 24  2  0  0  0
 24 25  1  0  0  0
 25 26  2  0  0  0
 26 27  1  0  0  0
 27 28  2  0  0  0
 28 29  1  0  0  0
 17  1  1  0  0  0
  1  2  1  0  0  0
  2  3  2  0  0  0
  3 30  1  0  0  0
 30 31  1  0  0  0
 31 32  1  0  0  0
  3  4  1  0  0  0
  4  5  2  0  0  0
  5  6  1  0  0  0
  6  7  1  0  0  0
  7 10  1  0  0  0
 10 11  2  0  0  0
 11 12  1  0  0  0
 12 13  2  0  0  0
 13 14  1  0  0  0
 14 15  2  0  0  0
  7  8  2  0  0  0
  8  9  1  0  0  0
 29 21  1  0  0  0
  6  1  2  0  0  0
 15 10  1  0  0  0
 28 23  1  0  0  0
 32 30  1  0  0  0
  9  5  1  0  0  0
 18 19  1  0  0  0
M  END
> <minimizedAffinity>
-9.96434

$$$$
OCNT-2318543


 29 33  0  0  0  0  0  0  0  0999 V2000
   -5.4680   24.1246    4.7997 N   0  0  0  0  0  0  0  0  0  0  0  0
   -5.7996   25.4481    4.9120 C   0  0  0  0  0  0  0  0  0  0  0  0
   -6.9427   25.8436    4.6991 O   0  0  0  0  0  0  0  0  0  0  0  0
   -4.7583   26.2849    5.2798 N   0  0  0  0  0  0  0  0  0  0  0  0
   -5.0616   27.7275    5.3541 C   0  0  0  0  0  0  0  0  0  0  0  0
   -4.2221   28.4687    6.4178 C   0  0  0  0  0  0  0  0  0  0  0  0
   -2.8029   28.0428    6.3082 C   0  0  0  0  0  0  0  0  0  0  0  0
   -2.4211   26.8917    5.6484 C   0  0  0  0  0  0  0  0  0  0  0  0
   -3.3507   25.9207    5.0021 C   0  0  0  0  0  0  0  0  0  0  0  0
   -1.0642   26.7799    5.6080 N   0  0  0  0  0  0  0  0  0  0  0  0
   -0.6247   27.8419    6.2489 C   0  0  0  0  0  0  0  0  0  0  0  0
   -1.6383   28.6574    6.7291 N   0  0  0  0  0  0  0  0  0  0  0  0
   -4.8036   23.7928    5.4836 H   0  0  0  0  0  0  0  0  0  0  0  0
   -7.2755   24.1998   -0.5007 C   0  0  0  0  0  0  0  0  0  0  0  0
   -6.7817   23.3424    0.6284 C   0  0  0  0  0  0  0  0  0  0  0  0
   -6.1944   22.0876    0.3617 C   0  0  0  0  0  0  0  0  0  0  0  0
   -5.7506   21.2655    1.4013 C   0  0  0  0  0  0  0  0  0  0  0  0
   -5.9244   21.7099    2.6943 C   0  0  0  0  0  0  0  0  0  0  0  0
   -5.5262   21.0167    3.8078 O   0  0  0  0  0  0  0  0  0  0  0  0
   -6.1786   21.7221    4.8982 C   0  0  0  0  0  0  0  0  0  0  0  0
   -6.4946   23.1616    4.4425 C   0  0  0  0  0  0  0  0  0  0  0  0
   -6.5069   22.9358    2.9756 C   0  0  0  0  0  0  0  0  0  0  0  0
   -6.9440   23.7666    1.9560 C   0  0  0  0  0  0  0  0  0  0  0  0
   -1.4536   29.8508    7.4885 C   0  0  0  0  0  0  0  0  0  0  0  0
   -0.6660   29.8641    8.6463 C   0  0  0  0  0  0  0  0  0  0  0  0
   -0.4916   31.0463    9.3735 C   0  0  0  0  0  0  0  0  0  0  0  0
   -1.0967   32.2263    8.9519 C   0  0  0  0  0  0  0  0  0  0  0  0
   -1.8740   32.2289    7.7979 C   0  0  0  0  0  0  0  0  0  0  0  0
   -2.0503   31.0505    7.0660 C   0  0  0  0  0  0  0  0  0  0  0  0
 14 15  1  0  0  0
 15 16  1  0  0  0
 16 17  2  0  0  0
 17 18  1  0  0  0
 18 19  1  0  0  0
 19 20  1  0  0  0
 20 21  1  0  0  0
 21  1  1  0  0  0
  1  2  1  0  0  0
  2  3  2  0  0  0
  2  4  1  0  0  0
  4  5  1  0  0  0
  5  6  1  0  0  0
  6  7  1  0  0  0
  7  8  2  0  0  0
  8  9  1  0  0  0
  8 10  1  0  0  0
 10 11  2  0  0  0
 11 12  1  0  0  0
 12 24  1  0  0  0
 24 25  2  0  0  0
 25 26  1  0  0  0
 26 27  2  0  0  0
 27 28  1  0  0  0
 28 29  2  0  0  0
 21 22  1  0  0  0
 22 23  1  0  0  0
 23 15  2  0  0  0
 22 18  2  0  0  0
  9  4  1  0  0  0
 29 24  1  0  0  0
 12  7  1  0  0  0
  1 13  1  0  0  0
M  END
> <minimizedAffinity>
-10.68936

$$$$
OCNT-2318555


 23 25  0  0  0  0  0  0  0  0999 V2000
   -3.4000   28.8980    7.8466 S   0  0  0  0  0  0  0  0  0  0  0  0
   -3.6358   29.3399    6.4910 O   0  0  0  0  0  0  0  0  0  0  0  0
   -4.4714   28.8310    8.8144 O   0  0  0  0  0  0  0  0  0  0  0  0
   -2.2863   30.0854    8.4982 C   0  0  0  0  0  0  0  0  0  0  0  0
   -0.9324   30.0089    8.7866 C   0  0  0  0  0  0  0  0  0  0  0  0
   -0.5756   31.2766    9.2578 C   0  0  0  0  0  0  0  0  0  0  0  0
   -1.6101   32.1136    9.2704 N   0  0  0  0  0  0  0  0  0  0  0  0
   -2.6549   31.3617    8.8529 N   0  0  0  0  0  0  0  0  0  0  0  0
   -4.0192   31.9328    8.7324 C   0  0  0  0  0  0  0  0  0  0  0  0
   -4.2585   32.6356    7.3722 C   0  0  0  0  0  0  0  0  0  0  0  0
   -5.0569   33.7013    8.1529 C   0  0  0  0  0  0  0  0  0  0  0  0
   -4.2094   33.3267    9.3880 C   0  0  0  0  0  0  0  0  0  0  0  0
   -2.6214   27.4167    7.7588 N   0  0  0  0  0  0  0  0  0  0  0  0
   -1.7533   27.4646    8.2936 H   0  0  0  0  0  0  0  0  0  0  0  0
   -0.5788   26.6842    4.9899 C   0  0  0  0  0  0  0  0  0  0  0  0
   -1.3801   25.9899    4.0968 C   0  0  0  0  0  0  0  0  0  0  0  0
   -2.7051   25.7532    4.4461 C   0  0  0  0  0  0  0  0  0  0  0  0
   -3.1802   26.2258    5.6650 C   0  0  0  0  0  0  0  0  0  0  0  0
   -2.3028   26.9329    6.4709 C   0  0  0  0  0  0  0  0  0  0  0  0
   -1.0087   27.1491    6.1822 N   0  0  0  0  0  0  0  0  0  0  0  0
    0.7322   26.8791    4.6026 O   0  0  0  0  0  0  0  0  0  0  0  0
    2.3276   25.8378    3.1708 C   0  0  0  0  0  0  0  0  0  0  0  0
    0.9793   26.5326    3.2392 C   0  0  0  0  0  0  0  0  0  0  0  0
 22 23  1  0  0  0
 23 21  1  0  0  0
 21 15  1  0  0  0
 15 16  1  0  0  0
 16 17  2  0  0  0
 17 18  1  0  0  0
 18 19  2  0  0  0
 19 13  1  0  0  0
 13  1  1  0  0  0
  1  2  2  0  0  0
  1  3  2  0  0  0
  1  4  1  0  0  0
  4  5  2  0  0  0
  5  6  1  0  0  0
  6  7  2  0  0  0
  7  8  1  0  0  0
  8  9  1  0  0  0
  9 10  1  0  0  0
 10 11  1  0  0  0
 11 12  1  0  0  0
 19 20  1  0  0  0
 20 15  2  0  0  0
  8  4  1  0  0  0
 12  9  1  0  0  0
 13 14  1  0  0  0
M  END
> <minimizedAffinity>
-8.01021

$$$$
OCNT-2318566


 24 26  0  0  0  0  0  0  0  0999 V2000
   -4.8688   30.4357    6.2487 O   0  0  0  0  0  0  0  0  0  0  0  0
   -4.7068   29.4147    6.9064 C   0  0  0  0  0  0  0  0  0  0  0  0
   -4.7238   28.1220    6.4471 N   0  0  0  0  0  0  0  0  0  0  0  0
   -4.5141   27.3661    7.0823 H   0  0  0  0  0  0  0  0  0  0  0  0
   -4.9470   27.6523    5.1768 C   0  0  0  0  0  0  0  0  0  0  0  0
   -5.9925   28.1989    4.5365 N   0  0  0  0  0  0  0  0  0  0  0  0
   -6.0335   27.5672    3.3556 N   0  0  0  0  0  0  0  0  0  0  0  0
   -5.0441   26.6477    3.1949 C   0  0  0  0  0  0  0  0  0  0  0  0
   -4.3056   26.6969    4.3525 C   0  0  0  0  0  0  0  0  0  0  0  0
   -6.7710   27.8157    2.7059 H   0  0  0  0  0  0  0  0  0  0  0  0
   -3.0719   25.8116    4.6300 C   0  0  0  0  0  0  0  0  0  0  0  0
   -1.8939   26.4060    5.3593 C   0  0  0  0  0  0  0  0  0  0  0  0
   -1.7702   26.0614    3.9071 C   0  0  0  0  0  0  0  0  0  0  0  0
   -4.4569   29.4966    8.3998 C   0  0  0  0  0  0  0  0  0  0  0  0
   -3.0913   30.0407    8.6993 C   0  0  0  0  0  0  0  0  0  0  0  0
   -2.9393   31.1737    9.4894 C   0  0  0  0  0  0  0  0  0  0  0  0
   -1.6638   31.6550    9.7390 C   0  0  0  0  0  0  0  0  0  0  0  0
   -0.5731   31.0024    9.1826 C   0  0  0  0  0  0  0  0  0  0  0  0
   -0.7872   29.8780    8.3859 C   0  0  0  0  0  0  0  0  0  0  0  0
   -2.0391   29.3913    8.1508 N   0  0  0  0  0  0  0  0  0  0  0  0
    0.4182   29.1740    7.7805 C   0  0  0  0  0  0  0  0  0  0  0  0
    0.8443   29.7010    6.5977 F   0  0  0  0  0  0  0  0  0  0  0  0
    1.5068   29.1981    8.6067 F   0  0  0  0  0  0  0  0  0  0  0  0
    0.1805   27.8512    7.5323 F   0  0  0  0  0  0  0  0  0  0  0  0
  1  2  2  0  0  0
  2 14  1  0  0  0
 14 15  1  0  0  0
 15 16  2  0  0  0
 16 17  1  0  0  0
 17 18  2  0  0  0
 18 19  1  0  0  0
 19 21  1  0  0  0
 21 22  1  0  0  0
 21 23  1  0  0  0
 21 24  1  0  0  0
 19 20  2  0  0  0
  2  3  1  0  0  0
  3  5  1  0  0  0
  5  6  2  0  0  0
  6  7  1  0  0  0
  7  8  1  0  0  0
  8  9  2  0  0  0
  9 11  1  0  0  0
 11 12  1  0  0  0
 12 13  1  0  0  0
 20 15  1  0  0  0
  9  5  1  0  0  0
 13 11  1  0  0  0
  3  4  1  0  0  0
  7 10  1  0  0  0
M  END
> <minimizedAffinity>
-8.72475

$$$$
OCNT-2318569


 28 32  0  0  0  0  0  0  0  0999 V2000
   -4.8503   26.3400    3.6477 C   0  0  0  0  0  0  0  0  0  0  0  0
   -5.6064   27.1967    4.3620 N   0  0  0  0  0  0  0  0  0  0  0  0
   -5.0207   27.8725    5.3625 C   0  0  0  0  0  0  0  0  0  0  0  0
   -3.7347   27.7442    5.7194 N   0  0  0  0  0  0  0  0  0  0  0  0
   -3.0002   26.8557    5.0480 C   0  0  0  0  0  0  0  0  0  0  0  0
   -1.6747   26.6827    5.4287 C   0  0  0  0  0  0  0  0  0  0  0  0
   -0.8407   25.7503    4.8076 C   0  0  0  0  0  0  0  0  0  0  0  0
   -1.3413   24.9564    3.7873 C   0  0  0  0  0  0  0  0  0  0  0  0
   -2.6658   25.1172    3.3865 C   0  0  0  0  0  0  0  0  0  0  0  0
   -3.5074   26.0873    3.9922 C   0  0  0  0  0  0  0  0  0  0  0  0
   -6.4685   25.5075   -0.3310 C   0  0  0  0  0  0  0  0  0  0  0  0
   -5.5203   24.6244    0.4788 C   0  0  0  0  0  0  0  0  0  0  0  0
   -6.2631   23.7457    1.4841 C   0  0  0  0  0  0  0  0  0  0  0  0
   -6.4467   24.6435    2.7311 C   0  0  0  0  0  0  0  0  0  0  0  0
   -5.4542   25.7308    2.5513 N   0  0  0  0  0  0  0  0  0  0  0  0
   -4.6047   25.4393    1.3951 C   0  0  0  0  0  0  0  0  0  0  0  0
   -6.3390   23.8391    4.0067 C   0  0  0  0  0  0  0  0  0  0  0  0
   -5.3576   22.8624    4.2165 C   0  0  0  0  0  0  0  0  0  0  0  0
   -5.3211   22.1560    5.4151 C   0  0  0  0  0  0  0  0  0  0  0  0
   -6.2804   22.4386    6.3712 C   0  0  0  0  0  0  0  0  0  0  0  0
   -7.2518   23.3611    6.2084 N   0  0  0  0  0  0  0  0  0  0  0  0
   -7.2539   24.0396    5.0379 C   0  0  0  0  0  0  0  0  0  0  0  0
   -5.8478   28.8372    6.1115 C   0  0  0  0  0  0  0  0  0  0  0  0
   -6.9486   29.4758    5.5203 C   0  0  0  0  0  0  0  0  0  0  0  0
   -7.6953   30.3773    6.2628 C   0  0  0  0  0  0  0  0  0  0  0  0
   -7.4306   30.6926    7.5459 N   0  0  0  0  0  0  0  0  0  0  0  0
   -6.3733   30.0760    8.1107 C   0  0  0  0  0  0  0  0  0  0  0  0
   -5.5701   29.1609    7.4483 C   0  0  0  0  0  0  0  0  0  0  0  0
 11 12  1  0  0  0
 12 13  1  0  0  0
 13 14  1  0  0  0
 14 17  1  0  0  0
 17 18  1  0  0  0
 18 19  2  0  0  0
 19 20  1  0  0  0
 20 21  2  0  0  0
 21 22  1  0  0  0
 14 15  1  0  0  0
 15  1  1  0  0  0
  1  2  1  0  0  0
  2  3  2  0  0  0
  3 23  1  0  0  0
 23 24  2  0  0  0
 24 25  1  0  0  0
 25 26  2  0  0  0
 26 27  1  0  0  0
 27 28  2  0  0  0
  3  4  1  0  0  0
  4  5  2  0  0  0
  5  6  1  0  0  0
  6  7  2  0  0  0
  7  8  1  0  0  0
  8  9  2  0  0  0
  9 10  1  0  0  0
 15 16  1  0  0  0
 16 12  1  0  0  0
 22 17  2  0  0  0
 10  1  2  0  0  0
 28 23  1  0  0  0
 10  5  1  0  0  0
M  END
> <minimizedAffinity>
-8.07869

$$$$
OCNT-2318570


 23 26  0  0  0  0  0  0  0  0999 V2000
   -5.7030   29.8197    6.9698 N   0  0  0  0  0  0  0  0  0  0  0  0
   -6.0715   30.1040    8.3725 C   0  0  0  0  0  0  0  0  0  0  0  0
   -4.7816   29.3182    8.8411 C   0  0  0  0  0  0  0  0  0  0  0  0
   -5.0361   28.4210    9.9644 O   0  0  0  0  0  0  0  0  0  0  0  0
   -4.9293   28.6431    7.4176 C   0  0  0  0  0  0  0  0  0  0  0  0
   -5.8873   27.9967    9.7698 H   0  0  0  0  0  0  0  0  0  0  0  0
   -3.3840   30.1383    9.0673 C   0  0  0  0  0  0  0  0  0  0  0  0
   -3.3682   31.3862    9.7337 C   0  0  0  0  0  0  0  0  0  0  0  0
   -2.2022   32.1268    9.9159 C   0  0  0  0  0  0  0  0  0  0  0  0
   -0.9942   31.6409    9.4386 C   0  0  0  0  0  0  0  0  0  0  0  0
   -0.9350   30.4058    8.7876 C   0  0  0  0  0  0  0  0  0  0  0  0
    0.3002   29.9255    8.3208 C   0  0  0  0  0  0  0  0  0  0  0  0
    0.3950   28.6927    7.6804 C   0  0  0  0  0  0  0  0  0  0  0  0
   -0.7455   27.9233    7.5049 C   0  0  0  0  0  0  0  0  0  0  0  0
   -1.9807   28.3915    7.9627 C   0  0  0  0  0  0  0  0  0  0  0  0
   -2.1198   29.6412    8.6054 C   0  0  0  0  0  0  0  0  0  0  0  0
   -6.8615   29.4120    6.1761 C   0  0  0  0  0  0  0  0  0  0  0  0
   -6.3719   26.5173    5.1865 C   0  0  0  0  0  0  0  0  0  0  0  0
   -6.2607   27.7194    4.3923 N   0  0  0  0  0  0  0  0  0  0  0  0
   -5.9049   27.6144    3.0954 N   0  0  0  0  0  0  0  0  0  0  0  0
   -5.8667   28.8767    2.6695 C   0  0  0  0  0  0  0  0  0  0  0  0
   -6.1994   29.7916    3.6817 C   0  0  0  0  0  0  0  0  0  0  0  0
   -6.4539   29.0182    4.7973 C   0  0  0  0  0  0  0  0  0  0  0  0
 18 19  1  0  0  0
 19 20  1  0  0  0
 20 21  2  0  0  0
 21 22  1  0  0  0
 22 23  2  0  0  0
 23 17  1  0  0  0
 17  1  1  0  0  0
  1  2  1  0  0  0
  2  3  1  0  0  0
  3  4  1  0  0  0
  3  7  1  0  0  0
  7  8  2  0  0  0
  8  9  1  0  0  0
  9 10  2  0  0  0
 10 11  1  0  0  0
 11 12  2  0  0  0
 12 13  1  0  0  0
 13 14  2  0  0  0
 14 15  1  0  0  0
 15 16  2  0  0  0
  3  5  1  0  0  0
 23 19  1  0  0  0
  5  1  1  0  0  0
 16  7  1  0  0  0
 16 11  1  0  0  0
  4  6  1  0  0  0
M  END
> <minimizedAffinity>
-9.34823

$$$$
OCNT-2318576


 37 39  0  0  0  0  0  0  0  0999 V2000
   -1.7191   26.6884    7.1271 O   0  0  0  0  0  0  0  0  0  0  0  0
   -2.1606   27.4512    6.2798 C   0  0  0  0  0  0  0  0  0  0  0  0
   -2.7306   27.0720    5.0958 N   0  0  0  0  0  0  0  0  0  0  0  0
   -2.1579   28.8160    6.4038 N   0  0  0  0  0  0  0  0  0  0  0  0
   -3.4475   27.7103    4.7639 H   0  0  0  0  0  0  0  0  0  0  0  0
   -2.1089   29.3209    5.5265 H   0  0  0  0  0  0  0  0  0  0  0  0
   -2.9266   25.6798    4.7466 C   0  0  0  0  0  0  0  0  0  0  0  0
   -4.1102   25.4209    3.7894 C   0  0  0  0  0  0  0  0  0  0  0  0
   -5.4001   25.0108    4.5111 C   0  0  0  0  0  0  0  0  0  0  0  0
   -6.1383   26.1736    5.1892 C   0  0  0  0  0  0  0  0  0  0  0  0
   -5.7773   27.4951    4.6475 N   0  0  0  0  0  0  0  0  0  0  0  0
   -5.6170   27.4293    3.1936 C   0  0  0  0  0  0  0  0  0  0  0  0
   -4.3720   26.6059    2.8368 C   0  0  0  0  0  0  0  0  0  0  0  0
   -6.7551   28.5224    5.0667 C   0  0  0  0  0  0  0  0  0  0  0  0
   -6.0678   29.7749    5.6846 C   0  0  0  0  0  0  0  0  0  0  0  0
   -4.6851   29.7927    5.2864 O   0  0  0  0  0  0  0  0  0  0  0  0
   -4.4677   28.8681    5.0623 H   0  0  0  0  0  0  0  0  0  0  0  0
   -6.1283   29.8954    7.1976 C   0  0  0  0  0  0  0  0  0  0  0  0
   -5.5164   28.9022    7.9840 C   0  0  0  0  0  0  0  0  0  0  0  0
   -5.5227   28.9762    9.3777 C   0  0  0  0  0  0  0  0  0  0  0  0
   -6.1391   30.0484   10.0139 C   0  0  0  0  0  0  0  0  0  0  0  0
   -6.7411   31.0486    9.2560 C   0  0  0  0  0  0  0  0  0  0  0  0
   -6.7312   30.9768    7.8594 C   0  0  0  0  0  0  0  0  0  0  0  0
   -1.5239   29.4529    7.5511 C   0  0  0  0  0  0  0  0  0  0  0  0
   -2.3259   30.6972    7.9100 C   0  0  0  0  0  0  0  0  0  0  0  0
   -2.8777   31.4688    6.8712 C   0  0  0  0  0  0  0  0  0  0  0  0
   -3.5985   32.6352    7.1430 C   0  0  0  0  0  0  0  0  0  0  0  0
   -3.7838   33.0635    8.4631 C   0  0  0  0  0  0  0  0  0  0  0  0
   -3.2246   32.3056    9.5014 C   0  0  0  0  0  0  0  0  0  0  0  0
   -2.5007   31.1404    9.2283 C   0  0  0  0  0  0  0  0  0  0  0  0
   -4.5823   34.3021    8.7825 C   0  0  0  0  0  0  0  0  0  0  0  0
   -4.0140   35.4585    8.3379 F   0  0  0  0  0  0  0  0  0  0  0  0
   -5.8264   34.2691    8.2246 F   0  0  0  0  0  0  0  0  0  0  0  0
   -4.7860   34.4733   10.1194 F   0  0  0  0  0  0  0  0  0  0  0  0
   -0.0076   29.6711    7.3104 C   0  0  0  0  0  0  0  0  0  0  0  0
    0.7699   28.5261    7.6586 O   0  0  0  0  0  0  0  0  0  0  0  0
    0.4889   27.8009    7.0728 H   0  0  0  0  0  0  0  0  0  0  0  0
  1  2  2  0  0  0
  2  3  1  0  0  0
  3  7  1  0  0  0
  7  8  1  0  0  0
  8  9  1  0  0  0
  9 10  1  0  0  0
 10 11  1  0  0  0
 11 14  1  0  0  0
 14 15  1  0  0  0
 15 16  1  0  0  0
 15 18  1  0  0  0
 18 19  2  0  0  0
 19 20  1  0  0  0
 20 21  2  0  0  0
 21 22  1  0  0  0
 22 23  2  0  0  0
 11 12  1  0  0  0
 12 13  1  0  0  0
  2  4  1  0  0  0
  4 24  1  0  0  0
 24 35  1  0  0  0
 35 36  1  0  0  0
 24 25  1  0  0  0
 25 26  1  0  0  0
 26 27  2  0  0  0
 27 28  1  0  0  0
 28 31  1  0  0  0
 31 32  1  0  0  0
 31 33  1  0  0  0
 31 34  1  0  0  0
 28 29  2  0  0  0
 29 30  1  0  0  0
 13  8  1  0  0  0
 30 25  2  0  0  0
 23 18  1  0  0  0
  3  5  1  0  0  0
 16 17  1  0  0  0
  4  6  1  0  0  0
 36 37  1  0  0  0
M  END
> <minimizedAffinity>
-9.65017

$$$$
OCNT-2318584


 27 29  0  0  0  0  0  0  0  0999 V2000
   -5.5042   23.3135    4.5543 C   0  0  0  0  0  0  0  0  0  0  0  0
   -6.7254   23.4678    0.9204 C   0  0  0  0  0  0  0  0  0  0  0  0
   -6.4808   22.1671    0.4806 C   0  0  0  0  0  0  0  0  0  0  0  0
   -5.9053   21.2282    1.3353 C   0  0  0  0  0  0  0  0  0  0  0  0
   -5.5803   21.5826    2.6454 C   0  0  0  0  0  0  0  0  0  0  0  0
   -5.8406   22.8753    3.1234 C   0  0  0  0  0  0  0  0  0  0  0  0
   -6.4002   23.8181    2.2342 C   0  0  0  0  0  0  0  0  0  0  0  0
   -6.4627   25.3335   -0.5297 C   0  0  0  0  0  0  0  0  0  0  0  0
   -7.2849   24.2924   -0.0180 O   0  0  0  0  0  0  0  0  0  0  0  0
   -6.3519   22.5770    5.5103 N   0  0  0  0  0  0  0  0  0  0  0  0
   -7.6037   23.2231    5.8907 C   0  0  0  0  0  0  0  0  0  0  0  0
   -8.0993   22.3524    7.0378 C   0  0  0  0  0  0  0  0  0  0  0  0
   -6.8508   21.6845    7.6048 C   0  0  0  0  0  0  0  0  0  0  0  0
   -5.6981   22.2167    6.7655 C   0  0  0  0  0  0  0  0  0  0  0  0
   -5.4265   24.8629    4.7493 C   0  0  0  0  0  0  0  0  0  0  0  0
   -4.2083   25.2546    5.4956 N   0  0  0  0  0  0  0  0  0  0  0  0
   -4.2309   25.1496    6.5104 H   0  0  0  0  0  0  0  0  0  0  0  0
   -3.4145   26.6513    5.0261 S   0  0  0  0  0  0  0  0  0  0  0  0
   -3.1366   26.5431    3.6111 O   0  0  0  0  0  0  0  0  0  0  0  0
   -4.1933   27.7487    5.5544 O   0  0  0  0  0  0  0  0  0  0  0  0
   -1.8714   26.5589    5.9263 C   0  0  0  0  0  0  0  0  0  0  0  0
   -1.9267   27.2792    7.2681 C   0  0  0  0  0  0  0  0  0  0  0  0
   -1.3574   28.6972    7.2242 C   0  0  0  0  0  0  0  0  0  0  0  0
    0.0760   28.8021    6.7079 C   0  0  0  0  0  0  0  0  0  0  0  0
    0.8841   29.1254    7.9420 C   0  0  0  0  0  0  0  0  0  0  0  0
   -0.1096   29.8949    8.7785 C   0  0  0  0  0  0  0  0  0  0  0  0
   -1.3713   29.2570    8.5505 O   0  0  0  0  0  0  0  0  0  0  0  0
  8  9  1  0  0  0
  9  2  1  0  0  0
  2  3  1  0  0  0
  3  4  2  0  0  0
  4  5  1  0  0  0
  5  6  2  0  0  0
  6  1  1  0  0  0
  1 15  1  0  0  0
 15 16  1  0  0  0
 16 18  1  0  0  0
 18 19  2  0  0  0
 18 20  2  0  0  0
 18 21  1  0  0  0
 21 22  1  0  0  0
 22 23  1  0  0  0
 23 24  1  0  0  0
 24 25  1  0  0  0
 25 26  1  0  0  0
 26 27  1  0  0  0
  1 10  1  0  0  0
 10 11  1  0  0  0
 11 12  1  0  0  0
 12 13  1  0  0  0
 13 14  1  0  0  0
  6  7  1  0  0  0
  7  2  2  0  0  0
 27 23  1  0  0  0
 14 10  1  0  0  0
 16 17  1  0  0  0
M  END
> <minimizedAffinity>
-8.45870

$$$$
OCNT-2318585


 25 28  0  0  0  0  0  0  0  0999 V2000
   -6.3585   29.9896    6.4435 N   0  0  0  0  0  0  0  0  0  0  0  0
   -6.2200   30.9576    6.1633 H   0  0  0  0  0  0  0  0  0  0  0  0
   -5.7270   26.2012    2.1660 C   0  0  0  0  0  0  0  0  0  0  0  0
   -5.9060   27.1337    3.3360 C   0  0  0  0  0  0  0  0  0  0  0  0
   -5.8832   28.5116    3.0567 C   0  0  0  0  0  0  0  0  0  0  0  0
   -6.0408   29.4676    4.0638 C   0  0  0  0  0  0  0  0  0  0  0  0
   -6.2590   29.0872    5.3846 C   0  0  0  0  0  0  0  0  0  0  0  0
   -6.2373   27.7141    5.6766 C   0  0  0  0  0  0  0  0  0  0  0  0
   -6.0758   26.7263    4.6776 C   0  0  0  0  0  0  0  0  0  0  0  0
   -6.0850   25.3561    5.0737 N   0  0  0  0  0  0  0  0  0  0  0  0
   -7.1566   24.5054    5.2380 C   0  0  0  0  0  0  0  0  0  0  0  0
   -6.7313   23.3184    5.6048 N   0  0  0  0  0  0  0  0  0  0  0  0
   -5.3719   23.4218    5.6757 N   0  0  0  0  0  0  0  0  0  0  0  0
   -4.9713   24.6437    5.3591 N   0  0  0  0  0  0  0  0  0  0  0  0
   -5.7329   29.6902    7.7256 C   0  0  0  0  0  0  0  0  0  0  0  0
   -4.9362   30.8942    8.1879 C   0  0  0  0  0  0  0  0  0  0  0  0
   -5.6101   32.1246    8.2982 C   0  0  0  0  0  0  0  0  0  0  0  0
   -4.9391   33.2704    8.7091 C   0  0  0  0  0  0  0  0  0  0  0  0
   -3.5813   33.2073    9.0067 C   0  0  0  0  0  0  0  0  0  0  0  0
   -2.8722   32.0030    8.8890 C   0  0  0  0  0  0  0  0  0  0  0  0
   -1.4986   31.9675    9.1808 C   0  0  0  0  0  0  0  0  0  0  0  0
   -0.7686   30.7867    9.0610 C   0  0  0  0  0  0  0  0  0  0  0  0
   -1.4036   29.6250    8.6453 C   0  0  0  0  0  0  0  0  0  0  0  0
   -2.7699   29.6433    8.3531 C   0  0  0  0  0  0  0  0  0  0  0  0
   -3.5412   30.8240    8.4704 C   0  0  0  0  0  0  0  0  0  0  0  0
  3  4  1  0  0  0
  4  5  1  0  0  0
  5  6  2  0  0  0
  6  7  1  0  0  0
  7  1  1  0  0  0
  1 15  1  0  0  0
 15 16  1  0  0  0
 16 17  2  0  0  0
 17 18  1  0  0  0
 18 19  2  0  0  0
 19 20  1  0  0  0
 20 21  2  0  0  0
 21 22  1  0  0  0
 22 23  2  0  0  0
 23 24  1  0  0  0
 24 25  2  0  0  0
  7  8  2  0  0  0
  8  9  1  0  0  0
  9 10  1  0  0  0
 10 11  1  0  0  0
 11 12  2  0  0  0
 12 13  1  0  0  0
 13 14  2  0  0  0
  9  4  2  0  0  0
 14 10  1  0  0  0
 25 16  1  0  0  0
 25 20  1  0  0  0
  1  2  1  0  0  0
M  END
> <minimizedAffinity>
-10.02236

$$$$
OCNT-2318618


 30 34  0  0  0  0  0  0  0  0999 V2000
   -4.3747   27.0675    4.8533 C   0  0  0  0  0  0  0  0  0  0  0  0
   -5.3008   27.7936    4.2656 N   0  0  0  0  0  0  0  0  0  0  0  0
   -5.5374   28.9017    5.0349 N   0  0  0  0  0  0  0  0  0  0  0  0
   -4.7324   28.8688    6.0831 C   0  0  0  0  0  0  0  0  0  0  0  0
   -3.9165   27.7640    5.9518 N   0  0  0  0  0  0  0  0  0  0  0  0
   -2.6907   27.4991    6.6613 C   0  0  0  0  0  0  0  0  0  0  0  0
   -6.9196   22.9547    1.5512 C   0  0  0  0  0  0  0  0  0  0  0  0
   -6.0406   24.0102    1.2912 C   0  0  0  0  0  0  0  0  0  0  0  0
   -5.2558   24.5646    2.3164 C   0  0  0  0  0  0  0  0  0  0  0  0
   -5.3702   24.0793    3.6283 C   0  0  0  0  0  0  0  0  0  0  0  0
   -6.2460   23.0121    3.8815 C   0  0  0  0  0  0  0  0  0  0  0  0
   -7.0195   22.4451    2.8561 C   0  0  0  0  0  0  0  0  0  0  0  0
   -7.9487   21.3037    3.1662 C   0  0  0  0  0  0  0  0  0  0  0  0
   -4.5432   24.6390    4.7704 C   0  0  0  0  0  0  0  0  0  0  0  0
   -3.8314   25.8848    4.4374 N   0  0  0  0  0  0  0  0  0  0  0  0
   -3.2552   25.8807    3.0834 C   0  0  0  0  0  0  0  0  0  0  0  0
   -4.3359   25.7209    2.0119 C   0  0  0  0  0  0  0  0  0  0  0  0
   -7.6928   22.8819   -0.7034 C   0  0  0  0  0  0  0  0  0  0  0  0
   -7.7156   22.3484    0.6139 O   0  0  0  0  0  0  0  0  0  0  0  0
   -4.7077   29.8877    7.1225 C   0  0  0  0  0  0  0  0  0  0  0  0
   -5.7093   29.9475    8.1050 C   0  0  0  0  0  0  0  0  0  0  0  0
   -5.6458   30.9110    9.1151 C   0  0  0  0  0  0  0  0  0  0  0  0
   -6.7333   30.9534   10.1515 C   0  0  0  0  0  0  0  0  0  0  0  0
   -4.6530   31.8266    9.2379 N   0  0  0  0  0  0  0  0  0  0  0  0
   -3.7103   31.7058    8.2895 C   0  0  0  0  0  0  0  0  0  0  0  0
   -3.6523   30.8048    7.2335 C   0  0  0  0  0  0  0  0  0  0  0  0
   -2.5067   31.0207    6.4919 N   0  0  0  0  0  0  0  0  0  0  0  0
   -1.8882   32.0159    7.0912 C   0  0  0  0  0  0  0  0  0  0  0  0
   -2.5819   32.4637    8.1798 N   0  0  0  0  0  0  0  0  0  0  0  0
   -2.3209   33.2070    8.8095 H   0  0  0  0  0  0  0  0  0  0  0  0
 18 19  1  0  0  0
 19  7  1  0  0  0
  7  8  2  0  0  0
  8  9  1  0  0  0
  9 10  2  0  0  0
 10 11  1  0  0  0
 11 12  2  0  0  0
 12 13  1  0  0  0
 10 14  1  0  0  0
 14 15  1  0  0  0
 15  1  1  0  0  0
  1  2  2  0  0  0
  2  3  1  0  0  0
  3  4  2  0  0  0
  4 20  1  0  0  0
 20 21  1  0  0  0
 21 22  2  0  0  0
 22 23  1  0  0  0
 22 24  1  0  0  0
 24 25  2  0  0  0
 25 26  1  0  0  0
 26 27  1  0  0  0
 27 28  2  0  0  0
 28 29  1  0  0  0
  4  5  1  0  0  0
  5  6  1  0  0  0
 15 16  1  0  0  0
 16 17  1  0  0  0
 12  7  1  0  0  0
  5  1  1  0  0  0
 17  9  1  0  0  0
 26 20  2  0  0  0
 29 25  1  0  0  0
 29 30  1  0  0  0
M  END
> <minimizedAffinity>
-9.55365

$$$$
OCNT-2318623


 28 32  0  0  0  0  0  0  0  0999 V2000
   -5.1841   23.6760    2.9971 C   0  0  0  0  0  0  0  0  0  0  0  0
   -3.9439   24.3204    2.9742 C   0  0  0  0  0  0  0  0  0  0  0  0
   -3.6539   25.3495    3.8831 C   0  0  0  0  0  0  0  0  0  0  0  0
   -4.6148   25.7707    4.8110 C   0  0  0  0  0  0  0  0  0  0  0  0
   -5.8526   25.0978    4.8430 C   0  0  0  0  0  0  0  0  0  0  0  0
   -6.1455   24.0610    3.9475 C   0  0  0  0  0  0  0  0  0  0  0  0
   -4.3413   26.9259    5.7976 C   0  0  0  0  0  0  0  0  0  0  0  0
   -2.9537   27.4898    5.7496 N   0  0  0  0  0  0  0  0  0  0  0  0
   -1.9701   26.5041    5.2786 C   0  0  0  0  0  0  0  0  0  0  0  0
   -2.3096   26.0162    3.8719 C   0  0  0  0  0  0  0  0  0  0  0  0
   -5.3425   28.0484    5.5493 C   0  0  0  0  0  0  0  0  0  0  0  0
   -5.6046   28.7183    4.3655 C   0  0  0  0  0  0  0  0  0  0  0  0
   -6.5998   29.7244    4.5136 C   0  0  0  0  0  0  0  0  0  0  0  0
   -7.0738   29.7916    5.8034 C   0  0  0  0  0  0  0  0  0  0  0  0
   -6.3441   28.6280    6.8229 S   0  0  0  0  0  0  0  0  0  0  0  0
   -5.8286   22.9830    0.8070 C   0  0  0  0  0  0  0  0  0  0  0  0
   -5.5378   22.6493    2.1563 O   0  0  0  0  0  0  0  0  0  0  0  0
   -7.3348   23.3710    3.9175 O   0  0  0  0  0  0  0  0  0  0  0  0
   -8.1053   23.3350    5.1085 C   0  0  0  0  0  0  0  0  0  0  0  0
   -2.5195   27.9927    7.0749 C   0  0  0  0  0  0  0  0  0  0  0  0
   -2.3567   29.4646    7.1586 C   0  0  0  0  0  0  0  0  0  0  0  0
   -1.4603   30.3781    6.6543 C   0  0  0  0  0  0  0  0  0  0  0  0
   -1.7600   31.6343    7.1156 N   0  0  0  0  0  0  0  0  0  0  0  0
   -2.8255   31.4511    7.8710 C   0  0  0  0  0  0  0  0  0  0  0  0
   -3.2400   30.1481    7.9478 O   0  0  0  0  0  0  0  0  0  0  0  0
   -3.5503   32.6018    8.6332 C   0  0  0  0  0  0  0  0  0  0  0  0
   -4.6586   33.3510    7.9373 C   0  0  0  0  0  0  0  0  0  0  0  0
   -4.9791   32.4280    9.0796 C   0  0  0  0  0  0  0  0  0  0  0  0
 16 17  1  0  0  0
 17  1  1  0  0  0
  1  2  2  0  0  0
  2  3  1  0  0  0
  3  4  2  0  0  0
  4  5  1  0  0  0
  5  6  2  0  0  0
  6 18  1  0  0  0
 18 19  1  0  0  0
  4  7  1  0  0  0
  7 11  1  0  0  0
 11 12  2  0  0  0
 12 13  1  0  0  0
 13 14  2  0  0  0
 14 15  1  0  0  0
  7  8  1  0  0  0
  8 20  1  0  0  0
 20 21  1  0  0  0
 21 22  2  0  0  0
 22 23  1  0  0  0
 23 24  2  0  0  0
 24 26  1  0  0  0
 26 27  1  0  0  0
 27 28  1  0  0  0
 24 25  1  0  0  0
  8  9  1  0  0  0
  9 10  1  0  0  0
  6  1  1  0  0  0
 15 11  1  0  0  0
 25 21  1  0  0  0
 10  3  1  0  0  0
 28 26  1  0  0  0
M  END
> <minimizedAffinity>
-8.30911

$$$$
OCNT-2318634


 25 27  0  0  0  0  0  0  0  0999 V2000
   -4.8913   26.5898    4.9463 C   0  0  0  0  0  0  0  0  0  0  0  0
   -5.6265   26.0339    3.9721 N   0  0  0  0  0  0  0  0  0  0  0  0
   -4.9821   25.3952    2.9829 C   0  0  0  0  0  0  0  0  0  0  0  0
   -3.6484   25.2659    2.9044 N   0  0  0  0  0  0  0  0  0  0  0  0
   -2.9199   25.8018    3.8869 C   0  0  0  0  0  0  0  0  0  0  0  0
   -1.5372   25.6699    3.8360 C   0  0  0  0  0  0  0  0  0  0  0  0
   -0.7064   26.1905    4.8320 C   0  0  0  0  0  0  0  0  0  0  0  0
   -1.2637   26.8578    5.9134 C   0  0  0  0  0  0  0  0  0  0  0  0
   -2.6471   27.0049    5.9853 C   0  0  0  0  0  0  0  0  0  0  0  0
   -3.4892   26.4862    4.9678 C   0  0  0  0  0  0  0  0  0  0  0  0
   -5.7996   24.7932    1.9133 C   0  0  0  0  0  0  0  0  0  0  0  0
   -6.5130   23.6023    2.1163 C   0  0  0  0  0  0  0  0  0  0  0  0
   -7.2709   23.0755    1.0819 C   0  0  0  0  0  0  0  0  0  0  0  0
   -7.3730   23.6418   -0.1368 N   0  0  0  0  0  0  0  0  0  0  0  0
   -6.6841   24.7843   -0.3290 C   0  0  0  0  0  0  0  0  0  0  0  0
   -5.9012   25.3850    0.6445 C   0  0  0  0  0  0  0  0  0  0  0  0
   -5.5546   27.2646    5.9984 N   0  0  0  0  0  0  0  0  0  0  0  0
   -4.8355   27.6939    6.5794 H   0  0  0  0  0  0  0  0  0  0  0  0
   -6.5662   28.2596    5.6061 C   0  0  0  0  0  0  0  0  0  0  0  0
   -7.7555   30.4209    6.3110 C   0  0  0  0  0  0  0  0  0  0  0  0
   -6.8419   29.2718    6.7259 C   0  0  0  0  0  0  0  0  0  0  0  0
   -5.2465   29.8852    7.2989 S   0  0  0  0  0  0  0  0  0  0  0  0
   -5.6030   31.4619    8.0394 C   0  0  0  0  0  0  0  0  0  0  0  0
   -4.8009   29.0138    8.3713 O   0  0  0  0  0  0  0  0  0  0  0  0
   -4.3975   30.1199    6.1464 O   0  0  0  0  0  0  0  0  0  0  0  0
 20 21  1  0  0  0
 21 19  1  0  0  0
 19 17  1  0  0  0
 17  1  1  0  0  0
  1  2  1  0  0  0
  2  3  2  0  0  0
  3 11  1  0  0  0
 11 12  2  0  0  0
 12 13  1  0  0  0
 13 14  2  0  0  0
 14 15  1  0  0  0
 15 16  2  0  0  0
  3  4  1  0  0  0
  4  5  2  0  0  0
  5  6  1  0  0  0
  6  7  2  0  0  0
  7  8  1  0  0  0
  8  9  2  0  0  0
  9 10  1  0  0  0
 21 22  1  0  0  0
 22 23  1  0  0  0
 22 24  2  0  0  0
 22 25  2  0  0  0
 10  1  2  0  0  0
 16 11  1  0  0  0
 10  5  1  0  0  0
 17 18  1  0  0  0
M  END
> <minimizedAffinity>
-8.07619

$$$$
OCNT-2318636


 28 30  0  0  0  0  0  0  0  0999 V2000
   -2.9506   28.5369    5.9823 N   0  0  0  0  0  0  0  0  0  0  0  0
   -2.8109   27.1677    5.9324 C   0  0  0  0  0  0  0  0  0  0  0  0
   -2.0497   26.5622    6.6813 O   0  0  0  0  0  0  0  0  0  0  0  0
   -3.5020   29.0079    5.2699 H   0  0  0  0  0  0  0  0  0  0  0  0
   -3.6068   26.4255    4.9159 C   0  0  0  0  0  0  0  0  0  0  0  0
   -5.0037   26.5154    4.9688 C   0  0  0  0  0  0  0  0  0  0  0  0
   -5.7964   25.8329    4.0377 C   0  0  0  0  0  0  0  0  0  0  0  0
   -5.2170   25.0437    3.0306 C   0  0  0  0  0  0  0  0  0  0  0  0
   -3.8172   24.9609    2.9870 C   0  0  0  0  0  0  0  0  0  0  0  0
   -3.0296   25.6424    3.9172 C   0  0  0  0  0  0  0  0  0  0  0  0
   -1.6970   25.5136    3.8210 F   0  0  0  0  0  0  0  0  0  0  0  0
   -6.0512   24.3255    2.0530 C   0  0  0  0  0  0  0  0  0  0  0  0
   -6.6326   23.0842    2.3718 C   0  0  0  0  0  0  0  0  0  0  0  0
   -7.4236   22.4013    1.4441 C   0  0  0  0  0  0  0  0  0  0  0  0
   -7.6404   22.9553    0.1898 C   0  0  0  0  0  0  0  0  0  0  0  0
   -8.3989   22.3015   -0.6994 F   0  0  0  0  0  0  0  0  0  0  0  0
   -7.0812   24.1783   -0.1547 C   0  0  0  0  0  0  0  0  0  0  0  0
   -6.2895   24.8602    0.7732 C   0  0  0  0  0  0  0  0  0  0  0  0
   -2.1453   29.3528    6.8736 C   0  0  0  0  0  0  0  0  0  0  0  0
   -2.5186   30.8367    6.8444 C   0  0  0  0  0  0  0  0  0  0  0  0
   -3.4519   32.3463    8.6623 C   0  0  0  0  0  0  0  0  0  0  0  0
   -3.1554   32.6495    9.9130 N   0  0  0  0  0  0  0  0  0  0  0  0
   -2.0526   31.9079   10.2365 C   0  0  0  0  0  0  0  0  0  0  0  0
   -1.6602   31.1379    9.1715 C   0  0  0  0  0  0  0  0  0  0  0  0
   -2.5493   31.4281    8.1705 N   0  0  0  0  0  0  0  0  0  0  0  0
   -4.8987   34.3496    8.3066 C   0  0  0  0  0  0  0  0  0  0  0  0
   -4.6143   32.9056    7.8895 C   0  0  0  0  0  0  0  0  0  0  0  0
   -5.8525   32.0334    8.0945 C   0  0  0  0  0  0  0  0  0  0  0  0
 26 27  1  0  0  0
 27 28  1  0  0  0
 27 21  1  0  0  0
 21 22  2  0  0  0
 22 23  1  0  0  0
 23 24  2  0  0  0
 24 25  1  0  0  0
 25 20  1  0  0  0
 20 19  1  0  0  0
 19  1  1  0  0  0
  1  2  1  0  0  0
  2  3  2  0  0  0
  2  5  1  0  0  0
  5  6  1  0  0  0
  6  7  2  0  0  0
  7  8  1  0  0  0
  8 12  1  0  0  0
 12 13  1  0  0  0
 13 14  2  0  0  0
 14 15  1  0  0  0
 15 16  1  0  0  0
 15 17  2  0  0  0
 17 18  1  0  0  0
  8  9  2  0  0  0
  9 10  1  0  0  0
 10 11  1  0  0  0
 25 21  1  0  0  0
 10  5  2  0  0  0
 18 12  2  0  0  0
  1  4  1  0  0  0
M  END
> <minimizedAffinity>
-9.98489

$$$$
OCNT-2318651


 32 36  0  0  0  0  0  0  0  0999 V2000
   -6.1450   25.6364    0.5956 C   0  0  0  0  0  0  0  0  0  0  0  0
   -6.2814   25.8391    2.1074 C   0  0  0  0  0  0  0  0  0  0  0  0
   -5.7945   27.2664    2.4579 C   0  0  0  0  0  0  0  0  0  0  0  0
   -5.6998   27.5035    3.8974 N   0  0  0  0  0  0  0  0  0  0  0  0
   -5.8070   28.8111    4.3600 C   0  0  0  0  0  0  0  0  0  0  0  0
   -5.9320   29.7810    3.6168 O   0  0  0  0  0  0  0  0  0  0  0  0
   -5.2019   26.3820    4.7017 C   0  0  0  0  0  0  0  0  0  0  0  0
   -4.5746   25.2633    3.8509 C   0  0  0  0  0  0  0  0  0  0  0  0
   -5.5253   24.7860    2.8341 N   0  0  0  0  0  0  0  0  0  0  0  0
   -5.9447   23.4524    2.7980 C   0  0  0  0  0  0  0  0  0  0  0  0
   -5.3364   22.6230    1.9651 N   0  0  0  0  0  0  0  0  0  0  0  0
   -5.7191   21.2965    1.8964 C   0  0  0  0  0  0  0  0  0  0  0  0
   -6.6957   20.7562    2.6413 C   0  0  0  0  0  0  0  0  0  0  0  0
   -7.3465   21.5845    3.5261 N   0  0  0  0  0  0  0  0  0  0  0  0
   -8.3516   21.3912    4.4247 C   0  0  0  0  0  0  0  0  0  0  0  0
   -8.6085   22.5203    5.0513 N   0  0  0  0  0  0  0  0  0  0  0  0
   -7.7466   23.4816    4.5573 N   0  0  0  0  0  0  0  0  0  0  0  0
   -7.0098   22.9046    3.6320 C   0  0  0  0  0  0  0  0  0  0  0  0
   -5.7633   29.0548    5.8193 C   0  0  0  0  0  0  0  0  0  0  0  0
   -6.8591   28.7426    6.6265 C   0  0  0  0  0  0  0  0  0  0  0  0
   -6.7922   28.9873    7.9950 C   0  0  0  0  0  0  0  0  0  0  0  0
   -5.6386   29.5529    8.5482 C   0  0  0  0  0  0  0  0  0  0  0  0
   -4.5325   29.8986    7.7488 C   0  0  0  0  0  0  0  0  0  0  0  0
   -4.6197   29.6473    6.3691 C   0  0  0  0  0  0  0  0  0  0  0  0
   -3.3246   30.5036    8.3403 C   0  0  0  0  0  0  0  0  0  0  0  0
   -2.1319   29.7801    8.4911 C   0  0  0  0  0  0  0  0  0  0  0  0
   -2.0586   28.5046    8.0804 F   0  0  0  0  0  0  0  0  0  0  0  0
   -0.9847   30.3465    9.0523 C   0  0  0  0  0  0  0  0  0  0  0  0
   -1.0014   31.6698    9.4830 C   0  0  0  0  0  0  0  0  0  0  0  0
   -2.1683   32.4160    9.3477 C   0  0  0  0  0  0  0  0  0  0  0  0
   -3.3069   31.8350    8.7842 C   0  0  0  0  0  0  0  0  0  0  0  0
   -4.4099   32.5943    8.6866 F   0  0  0  0  0  0  0  0  0  0  0  0
  1  2  1  0  0  0
  2  3  1  0  0  0
  3  4  1  0  0  0
  4  5  1  0  0  0
  5  6  2  0  0  0
  5 19  1  0  0  0
 19 20  1  0  0  0
 20 21  2  0  0  0
 21 22  1  0  0  0
 22 23  2  0  0  0
 23 25  1  0  0  0
 25 26  2  0  0  0
 26 27  1  0  0  0
 26 28  1  0  0  0
 28 29  2  0  0  0
 29 30  1  0  0  0
 30 31  2  0  0  0
 31 32  1  0  0  0
 23 24  1  0  0  0
  4  7  1  0  0  0
  7  8  1  0  0  0
  8  9  1  0  0  0
  9 10  1  0  0  0
 10 11  2  0  0  0
 11 12  1  0  0  0
 12 13  2  0  0  0
 13 14  1  0  0  0
 14 15  1  0  0  0
 15 16  2  0  0  0
 16 17  1  0  0  0
 17 18  2  0  0  0
  9  2  1  0  0  0
 18 10  1  0  0  0
 24 19  2  0  0  0
 18 14  1  0  0  0
 31 25  1  0  0  0
M  END
> <minimizedAffinity>
-10.02663

$$$$
OCNT-2318658


 24 27  0  0  0  0  0  0  0  0999 V2000
   -4.0444   25.2144    3.6132 N   0  0  0  0  0  0  0  0  0  0  0  0
   -2.7876   25.7647    3.5317 C   0  0  0  0  0  0  0  0  0  0  0  0
   -2.4705   26.1263    4.8234 C   0  0  0  0  0  0  0  0  0  0  0  0
   -3.5063   25.7855    5.6463 N   0  0  0  0  0  0  0  0  0  0  0  0
   -4.4561   25.2321    4.9058 N   0  0  0  0  0  0  0  0  0  0  0  0
   -7.4394   22.9526   -0.7017 Cl  0  0  0  0  0  0  0  0  0  0  0  0
   -6.4563   23.6111    0.5465 C   0  0  0  0  0  0  0  0  0  0  0  0
   -6.1958   24.9801    0.5732 C   0  0  0  0  0  0  0  0  0  0  0  0
   -5.3969   25.5225    1.5858 C   0  0  0  0  0  0  0  0  0  0  0  0
   -4.8573   24.6879    2.5756 C   0  0  0  0  0  0  0  0  0  0  0  0
   -5.1265   23.3096    2.5396 C   0  0  0  0  0  0  0  0  0  0  0  0
   -5.9254   22.7744    1.5249 C   0  0  0  0  0  0  0  0  0  0  0  0
   -1.2514   26.7863    5.3618 C   0  0  0  0  0  0  0  0  0  0  0  0
   -1.1708   26.7581    6.7932 O   0  0  0  0  0  0  0  0  0  0  0  0
   -1.2640   27.9453    7.4698 C   0  0  0  0  0  0  0  0  0  0  0  0
   -0.0259   28.5774    7.6946 C   0  0  0  0  0  0  0  0  0  0  0  0
    0.0548   29.7994    8.3684 C   0  0  0  0  0  0  0  0  0  0  0  0
   -1.1222   30.3805    8.7981 C   0  0  0  0  0  0  0  0  0  0  0  0
   -1.3379   31.6483    9.5531 C   0  0  0  0  0  0  0  0  0  0  0  0
   -2.7986   31.9089    9.4795 N   0  0  0  0  0  0  0  0  0  0  0  0
   -3.4325   30.6005    9.1720 C   0  0  0  0  0  0  0  0  0  0  0  0
   -2.3500   29.7645    8.5758 C   0  0  0  0  0  0  0  0  0  0  0  0
   -2.4430   28.5467    7.9184 C   0  0  0  0  0  0  0  0  0  0  0  0
   -2.9450   32.4980    8.6594 H   0  0  0  0  0  0  0  0  0  0  0  0
  6  7  1  0  0  0
  7  8  1  0  0  0
  8  9  2  0  0  0
  9 10  1  0  0  0
 10  1  1  0  0  0
  1  2  1  0  0  0
  2  3  2  0  0  0
  3 13  1  0  0  0
 13 14  1  0  0  0
 14 15  1  0  0  0
 15 16  1  0  0  0
 16 17  2  0  0  0
 17 18  1  0  0  0
 18 19  1  0  0  0
 19 20  1  0  0  0
 20 21  1  0  0  0
 21 22  1  0  0  0
 22 23  1  0  0  0
  3  4  1  0  0  0
  4  5  2  0  0  0
 10 11  2  0  0  0
 11 12  1  0  0  0
 12  7  2  0  0  0
  5  1  1  0  0  0
 23 15  2  0  0  0
 22 18  2  0  0  0
 20 24  1  0  0  0
M  END
> <minimizedAffinity>
-9.14888

$$$$
OCNT-2318671


 28 31  0  0  0  0  0  0  0  0999 V2000
   -3.3944   28.5229    6.0846 N   0  0  0  0  0  0  0  0  0  0  0  0
   -4.6087   27.9950    5.7321 C   0  0  0  0  0  0  0  0  0  0  0  0
   -5.6969   28.2293    6.2400 O   0  0  0  0  0  0  0  0  0  0  0  0
   -2.5947   28.3962    5.4808 H   0  0  0  0  0  0  0  0  0  0  0  0
   -4.2086   32.9114    9.1262 C   0  0  0  0  0  0  0  0  0  0  0  0
   -5.0221   32.5768    8.0467 C   0  0  0  0  0  0  0  0  0  0  0  0
   -4.7751   31.4204    7.2854 C   0  0  0  0  0  0  0  0  0  0  0  0
   -3.6884   30.5812    7.6039 C   0  0  0  0  0  0  0  0  0  0  0  0
   -2.9049   30.9429    8.6980 C   0  0  0  0  0  0  0  0  0  0  0  0
   -3.1313   32.0890    9.4700 C   0  0  0  0  0  0  0  0  0  0  0  0
   -1.9550   29.9691    8.8022 N   0  0  0  0  0  0  0  0  0  0  0  0
   -2.0580   28.9986    7.8853 N   0  0  0  0  0  0  0  0  0  0  0  0
   -3.0978   29.3699    7.1277 C   0  0  0  0  0  0  0  0  0  0  0  0
   -1.2115   29.9069    9.4882 H   0  0  0  0  0  0  0  0  0  0  0  0
   -4.8337   35.1985    9.3172 C   0  0  0  0  0  0  0  0  0  0  0  0
   -4.3562   34.0085    9.9327 O   0  0  0  0  0  0  0  0  0  0  0  0
   -4.5670   27.0705    4.5621 C   0  0  0  0  0  0  0  0  0  0  0  0
   -3.4133   26.3514    4.2281 C   0  0  0  0  0  0  0  0  0  0  0  0
   -3.4202   25.4903    3.1266 C   0  0  0  0  0  0  0  0  0  0  0  0
   -4.5777   25.3319    2.3479 C   0  0  0  0  0  0  0  0  0  0  0  0
   -5.7340   26.0427    2.7000 C   0  0  0  0  0  0  0  0  0  0  0  0
   -5.7301   26.9014    3.8021 C   0  0  0  0  0  0  0  0  0  0  0  0
   -4.5857   24.4018    1.1591 C   0  0  0  0  0  0  0  0  0  0  0  0
   -5.0972   23.0872    1.5052 N   0  0  0  0  0  0  0  0  0  0  0  0
   -5.8708   22.2822    0.7147 C   0  0  0  0  0  0  0  0  0  0  0  0
   -6.0594   21.1375    1.4538 C   0  0  0  0  0  0  0  0  0  0  0  0
   -5.4149   21.2255    2.6604 N   0  0  0  0  0  0  0  0  0  0  0  0
   -4.8428   22.4085    2.6633 C   0  0  0  0  0  0  0  0  0  0  0  0
 15 16  1  0  0  0
 16  5  1  0  0  0
  5  6  2  0  0  0
  6  7  1  0  0  0
  7  8  2  0  0  0
  8  9  1  0  0  0
  9 10  2  0  0  0
  9 11  1  0  0  0
 11 12  1  0  0  0
 12 13  2  0  0  0
 13  1  1  0  0  0
  1  2  1  0  0  0
  2  3  2  0  0  0
  2 17  1  0  0  0
 17 18  1  0  0  0
 18 19  2  0  0  0
 19 20  1  0  0  0
 20 23  1  0  0  0
 23 24  1  0  0  0
 24 25  1  0  0  0
 25 26  2  0  0  0
 26 27  1  0  0  0
 27 28  2  0  0  0
 20 21  2  0  0  0
 21 22  1  0  0  0
 10  5  1  0  0  0
 22 17  2  0  0  0
 13  8  1  0  0  0
 28 24  1  0  0  0
 11 14  1  0  0  0
  1  4  1  0  0  0
M  END
> <minimizedAffinity>
-8.93210

$$$$
OCNT-2318673


 31 34  0  0  0  0  0  0  0  0999 V2000
   -5.6614   27.4195    3.6801 C   0  0  0  0  0  0  0  0  0  0  0  0
   -4.9110   27.1080    4.8235 C   0  0  0  0  0  0  0  0  0  0  0  0
   -4.5192   28.1095    5.7153 C   0  0  0  0  0  0  0  0  0  0  0  0
   -4.8926   29.4284    5.4743 C   0  0  0  0  0  0  0  0  0  0  0  0
   -5.6169   29.7572    4.3308 C   0  0  0  0  0  0  0  0  0  0  0  0
   -6.0065   28.7515    3.4398 C   0  0  0  0  0  0  0  0  0  0  0  0
   -5.1987   25.5927    2.0195 C   0  0  0  0  0  0  0  0  0  0  0  0
   -3.9861   25.7460    1.8969 O   0  0  0  0  0  0  0  0  0  0  0  0
   -6.0149   26.3472    2.8377 N   0  0  0  0  0  0  0  0  0  0  0  0
   -6.9988   26.0994    2.8218 H   0  0  0  0  0  0  0  0  0  0  0  0
   -5.7888   23.1154    1.5195 C   0  0  0  0  0  0  0  0  0  0  0  0
   -6.4572   22.2011    0.6886 C   0  0  0  0  0  0  0  0  0  0  0  0
   -7.1966   22.6374   -0.4136 C   0  0  0  0  0  0  0  0  0  0  0  0
   -7.2793   23.9923   -0.7034 C   0  0  0  0  0  0  0  0  0  0  0  0
   -6.6188   24.9125    0.1092 C   0  0  0  0  0  0  0  0  0  0  0  0
   -5.8654   24.4952    1.2252 C   0  0  0  0  0  0  0  0  0  0  0  0
   -5.1621   21.3805    3.0531 C   0  0  0  0  0  0  0  0  0  0  0  0
   -5.0515   22.7311    2.6131 O   0  0  0  0  0  0  0  0  0  0  0  0
   -4.4801   30.4309    6.3175 O   0  0  0  0  0  0  0  0  0  0  0  0
   -5.0903   30.4040    7.5643 C   0  0  0  0  0  0  0  0  0  0  0  0
   -6.4384   30.5243    7.5800 N   0  0  0  0  0  0  0  0  0  0  0  0
   -7.0064   30.4668    8.7884 C   0  0  0  0  0  0  0  0  0  0  0  0
   -6.3665   30.2853    9.9511 N   0  0  0  0  0  0  0  0  0  0  0  0
   -5.0253   30.1486    9.8658 C   0  0  0  0  0  0  0  0  0  0  0  0
   -4.2998   30.1906    8.6871 C   0  0  0  0  0  0  0  0  0  0  0  0
   -2.8412   30.0333    8.6680 C   0  0  0  0  0  0  0  0  0  0  0  0
   -1.9987   31.0913    9.0515 C   0  0  0  0  0  0  0  0  0  0  0  0
   -0.6090   30.9471    9.0349 C   0  0  0  0  0  0  0  0  0  0  0  0
   -0.0379   29.7416    8.6363 C   0  0  0  0  0  0  0  0  0  0  0  0
   -0.8544   28.6810    8.2535 C   0  0  0  0  0  0  0  0  0  0  0  0
   -2.2441   28.8258    8.2700 C   0  0  0  0  0  0  0  0  0  0  0  0
 17 18  1  0  0  0
 18 11  1  0  0  0
 11 12  2  0  0  0
 12 13  1  0  0  0
 13 14  2  0  0  0
 14 15  1  0  0  0
 15 16  2  0  0  0
 16  7  1  0  0  0
  7  8  2  0  0  0
  7  9  1  0  0  0
  9  1  1  0  0  0
  1  2  1  0  0  0
  2  3  2  0  0  0
  3  4  1  0  0  0
  4 19  1  0  0  0
 19 20  1  0  0  0
 20 21  2  0  0  0
 21 22  1  0  0  0
 22 23  2  0  0  0
 23 24  1  0  0  0
 24 25  2  0  0  0
 25 26  1  0  0  0
 26 27  2  0  0  0
 27 28  1  0  0  0
 28 29  2  0  0  0
 29 30  1  0  0  0
 30 31  2  0  0  0
  4  5  2  0  0  0
  5  6  1  0  0  0
 16 11  1  0  0  0
  6  1  2  0  0  0
 25 20  1  0  0  0
 31 26  1  0  0  0
  9 10  1  0  0  0
M  END
> <minimizedAffinity>
-10.64051

$$$$
OCNT-2318675


 34 39  0  0  0  0  0  0  0  0999 V2000
   -6.0614   24.6145    3.4096 C   0  0  0  0  0  0  0  0  0  0  0  0
   -5.8953   24.3698    2.0308 C   0  0  0  0  0  0  0  0  0  0  0  0
   -6.5046   23.2626    1.4079 C   0  0  0  0  0  0  0  0  0  0  0  0
   -7.2901   22.3786    2.1426 C   0  0  0  0  0  0  0  0  0  0  0  0
   -7.4386   22.6331    3.4927 C   0  0  0  0  0  0  0  0  0  0  0  0
   -6.8470   23.7227    4.1394 C   0  0  0  0  0  0  0  0  0  0  0  0
   -7.2415   23.7020    5.5855 C   0  0  0  0  0  0  0  0  0  0  0  0
   -8.0206   22.4751    5.6988 N   0  0  0  0  0  0  0  0  0  0  0  0
   -8.2165   21.8675    4.4719 C   0  0  0  0  0  0  0  0  0  0  0  0
   -8.8950   20.8918    4.2156 O   0  0  0  0  0  0  0  0  0  0  0  0
   -8.8521   22.1637    6.8554 C   0  0  0  0  0  0  0  0  0  0  0  0
   -8.0471   22.0735    8.1483 C   0  0  0  0  0  0  0  0  0  0  0  0
   -8.9663   21.6606    9.2877 C   0  0  0  0  0  0  0  0  0  0  0  0
  -10.1369   22.6068    9.4199 C   0  0  0  0  0  0  0  0  0  0  0  0
  -10.6559   22.8615   10.5026 O   0  0  0  0  0  0  0  0  0  0  0  0
  -10.6224   23.1508    8.2577 N   0  0  0  0  0  0  0  0  0  0  0  0
   -9.9850   23.1887    7.0379 C   0  0  0  0  0  0  0  0  0  0  0  0
  -10.3372   23.9952    6.1799 O   0  0  0  0  0  0  0  0  0  0  0  0
  -11.3629   23.8290    8.3774 H   0  0  0  0  0  0  0  0  0  0  0  0
   -4.1691   27.1001    5.1570 C   0  0  0  0  0  0  0  0  0  0  0  0
   -4.3136   25.7770    4.8135 C   0  0  0  0  0  0  0  0  0  0  0  0
   -5.4458   25.7359    4.0259 N   0  0  0  0  0  0  0  0  0  0  0  0
   -5.9500   26.9833    3.9040 N   0  0  0  0  0  0  0  0  0  0  0  0
   -5.1841   27.8179    4.5902 N   0  0  0  0  0  0  0  0  0  0  0  0
   -1.0354   26.4330    5.3759 C   0  0  0  0  0  0  0  0  0  0  0  0
   -1.7218   27.4585    6.1190 N   0  0  0  0  0  0  0  0  0  0  0  0
   -1.1320   28.3044    7.0340 C   0  0  0  0  0  0  0  0  0  0  0  0
    0.1776   28.4515    7.5124 C   0  0  0  0  0  0  0  0  0  0  0  0
    0.4025   29.4508    8.4673 C   0  0  0  0  0  0  0  0  0  0  0  0
   -0.6349   30.2649    8.9224 C   0  0  0  0  0  0  0  0  0  0  0  0
   -1.9354   30.1025    8.4329 C   0  0  0  0  0  0  0  0  0  0  0  0
   -2.1787   29.1064    7.4758 C   0  0  0  0  0  0  0  0  0  0  0  0
   -3.3509   28.7647    6.8599 N   0  0  0  0  0  0  0  0  0  0  0  0
   -3.0638   27.7685    6.0438 C   0  0  0  0  0  0  0  0  0  0  0  0
 25 26  1  0  0  0
 26 27  1  0  0  0
 27 28  2  0  0  0
 28 29  1  0  0  0
 29 30  2  0  0  0
 30 31  1  0  0  0
 31 32  2  0  0  0
 32 33  1  0  0  0
 33 34  2  0  0  0
 34 20  1  0  0  0
 20 21  2  0  0  0
 21 22  1  0  0  0
 22  1  1  0  0  0
  1  2  2  0  0  0
  2  3  1  0  0  0
  3  4  2  0  0  0
  4  5  1  0  0  0
  5  6  2  0  0  0
  6  7  1  0  0  0
  7  8  1  0  0  0
  8 11  1  0  0  0
 11 12  1  0  0  0
 12 13  1  0  0  0
 13 14  1  0  0  0
 14 15  2  0  0  0
 14 16  1  0  0  0
 16 17  1  0  0  0
 17 18  2  0  0  0
  8  9  1  0  0  0
  9 10  2  0  0  0
 22 23  1  0  0  0
 23 24  2  0  0  0
 34 26  1  0  0  0
 24 20  1  0  0  0
 32 27  1  0  0  0
  6  1  1  0  0  0
 17 11  1  0  0  0
  9  5  1  0  0  0
 16 19  1  0  0  0
M  END
> <minimizedAffinity>
-11.47828

$$$$
OCNT-2318678


 23 26  0  0  0  0  0  0  0  0999 V2000
   -2.5202   27.8545    7.4288 N   0  0  0  0  0  0  0  0  0  0  0  0
   -3.4601   27.9584    7.0476 H   0  0  0  0  0  0  0  0  0  0  0  0
   -1.6866   28.9609    6.9528 C   0  0  0  0  0  0  0  0  0  0  0  0
   -2.0371   30.2340    7.6848 C   0  0  0  0  0  0  0  0  0  0  0  0
   -3.1575   31.0345    7.5053 C   0  0  0  0  0  0  0  0  0  0  0  0
   -3.3005   32.1703    8.3055 C   0  0  0  0  0  0  0  0  0  0  0  0
   -2.3344   32.4888    9.2720 C   0  0  0  0  0  0  0  0  0  0  0  0
   -1.2122   31.6775    9.4502 C   0  0  0  0  0  0  0  0  0  0  0  0
   -1.0728   30.5586    8.6446 C   0  0  0  0  0  0  0  0  0  0  0  0
    0.0229   29.5371    8.6799 C   0  0  0  0  0  0  0  0  0  0  0  0
   -0.1801   28.8054    7.3400 C   0  0  0  0  0  0  0  0  0  0  0  0
    0.6701   29.3910    6.3395 O   0  0  0  0  0  0  0  0  0  0  0  0
    0.5133   28.9127    5.5083 H   0  0  0  0  0  0  0  0  0  0  0  0
   -1.9942   26.5588    7.0009 C   0  0  0  0  0  0  0  0  0  0  0  0
   -4.4206   25.8337    2.6593 C   0  0  0  0  0  0  0  0  0  0  0  0
   -3.4057   26.0218    3.6663 N   0  0  0  0  0  0  0  0  0  0  0  0
   -3.5985   26.1891    5.0043 C   0  0  0  0  0  0  0  0  0  0  0  0
   -2.3454   26.3476    5.5695 C   0  0  0  0  0  0  0  0  0  0  0  0
   -1.4709   26.2293    4.4611 C   0  0  0  0  0  0  0  0  0  0  0  0
   -2.1116   26.0433    3.3057 N   0  0  0  0  0  0  0  0  0  0  0  0
    0.0780   26.3215    4.5415 C   0  0  0  0  0  0  0  0  0  0  0  0
    0.9138   25.2065    3.9650 C   0  0  0  0  0  0  0  0  0  0  0  0
    0.8693   26.5385    3.2768 C   0  0  0  0  0  0  0  0  0  0  0  0
 15 16  1  0  0  0
 16 17  1  0  0  0
 17 18  2  0  0  0
 18 14  1  0  0  0
 14  1  1  0  0  0
  1  3  1  0  0  0
  3  4  1  0  0  0
  4  5  2  0  0  0
  5  6  1  0  0  0
  6  7  2  0  0  0
  7  8  1  0  0  0
  8  9  2  0  0  0
  9 10  1  0  0  0
 10 11  1  0  0  0
 11 12  1  0  0  0
 18 19  1  0  0  0
 19 21  1  0  0  0
 21 22  1  0  0  0
 22 23  1  0  0  0
 19 20  2  0  0  0
 20 16  1  0  0  0
 11  3  1  0  0  0
 23 21  1  0  0  0
  9  4  1  0  0  0
  1  2  1  0  0  0
 12 13  1  0  0  0
M  END
> <minimizedAffinity>
-8.74020

$$$$
OCNT-2318684


 25 28  0  0  0  0  0  0  0  0999 V2000
   -6.0905   30.8633    6.8919 N   0  0  0  0  0  0  0  0  0  0  0  0
   -6.5141   31.7757    7.0894 H   0  0  0  0  0  0  0  0  0  0  0  0
   -7.1600   29.9642    6.4642 C   0  0  0  0  0  0  0  0  0  0  0  0
   -5.7278   27.1273    3.5146 C   0  0  0  0  0  0  0  0  0  0  0  0
   -6.0909   26.6999    4.8000 C   0  0  0  0  0  0  0  0  0  0  0  0
   -6.5493   27.6195    5.7497 C   0  0  0  0  0  0  0  0  0  0  0  0
   -6.6448   28.9809    5.4393 C   0  0  0  0  0  0  0  0  0  0  0  0
   -6.2976   29.4040    4.1520 C   0  0  0  0  0  0  0  0  0  0  0  0
   -5.8383   28.4890    3.1977 C   0  0  0  0  0  0  0  0  0  0  0  0
   -4.0264   24.7966    1.3653 C   0  0  0  0  0  0  0  0  0  0  0  0
   -4.0023   25.6307    2.4577 C   0  0  0  0  0  0  0  0  0  0  0  0
   -5.2604   26.1913    2.5460 N   0  0  0  0  0  0  0  0  0  0  0  0
   -5.9674   25.6510    1.4908 C   0  0  0  0  0  0  0  0  0  0  0  0
   -5.2520   24.8155    0.7688 N   0  0  0  0  0  0  0  0  0  0  0  0
   -5.4894   30.4252    8.1571 C   0  0  0  0  0  0  0  0  0  0  0  0
   -3.9957   30.5344    8.1007 C   0  0  0  0  0  0  0  0  0  0  0  0
   -3.1009   30.7028    9.1386 C   0  0  0  0  0  0  0  0  0  0  0  0
   -1.8743   30.7391    8.5467 N   0  0  0  0  0  0  0  0  0  0  0  0
   -0.5900   30.8991    9.1893 C   0  0  0  0  0  0  0  0  0  0  0  0
    0.3677   29.7141    9.0171 C   0  0  0  0  0  0  0  0  0  0  0  0
    0.0895   28.7460    7.8627 C   0  0  0  0  0  0  0  0  0  0  0  0
    0.0175   29.3514    6.4551 C   0  0  0  0  0  0  0  0  0  0  0  0
   -0.8834   30.5748    6.2620 C   0  0  0  0  0  0  0  0  0  0  0  0
   -2.0449   30.5972    7.1915 C   0  0  0  0  0  0  0  0  0  0  0  0
   -3.3197   30.4734    6.8931 N   0  0  0  0  0  0  0  0  0  0  0  0
 10 11  2  0  0  0
 11 12  1  0  0  0
 12  4  1  0  0  0
  4  5  1  0  0  0
  5  6  2  0  0  0
  6  7  1  0  0  0
  7  3  1  0  0  0
  3  1  1  0  0  0
  1 15  1  0  0  0
 15 16  1  0  0  0
 16 17  2  0  0  0
 17 18  1  0  0  0
 18 19  1  0  0  0
 19 20  1  0  0  0
 20 21  1  0  0  0
 21 22  1  0  0  0
 22 23  1  0  0  0
 23 24  1  0  0  0
 24 25  2  0  0  0
  7  8  2  0  0  0
  8  9  1  0  0  0
 12 13  1  0  0  0
 13 14  2  0  0  0
 14 10  1  0  0  0
  9  4  2  0  0  0
 25 16  1  0  0  0
 24 18  1  0  0  0
  1  2  1  0  0  0
M  END
> <minimizedAffinity>
-9.00822

$$$$
OCNT-2328318


 16 18  0  0  0  0  0  0  0  0999 V2000
    0.3919   28.6335    7.5860 C   0  0  0  0  0  0  0  0  0  0  0  0
    0.2640   29.8609    8.2329 C   0  0  0  0  0  0  0  0  0  0  0  0
   -0.9913   30.3153    8.6692 C   0  0  0  0  0  0  0  0  0  0  0  0
   -2.1403   29.5374    8.4196 C   0  0  0  0  0  0  0  0  0  0  0  0
   -1.9880   28.2927    7.7826 C   0  0  0  0  0  0  0  0  0  0  0  0
   -0.7334   27.8477    7.3646 C   0  0  0  0  0  0  0  0  0  0  0  0
   -3.5123   29.9822    8.9093 C   0  0  0  0  0  0  0  0  0  0  0  0
   -3.5653   31.4672    9.3000 C   0  0  0  0  0  0  0  0  0  0  0  0
   -2.3600   31.8435   10.1497 C   0  0  0  0  0  0  0  0  0  0  0  0
   -1.0763   31.6609    9.3468 C   0  0  0  0  0  0  0  0  0  0  0  0
   -4.6337   29.6924    7.9184 C   0  0  0  0  0  0  0  0  0  0  0  0
   -4.7588   30.3344    6.7826 N   0  0  0  0  0  0  0  0  0  0  0  0
   -5.9637   29.7318    6.1478 C   0  0  0  0  0  0  0  0  0  0  0  0
   -6.6679   28.9240    7.2409 C   0  0  0  0  0  0  0  0  0  0  0  0
   -5.5931   28.7419    8.1870 N   0  0  0  0  0  0  0  0  0  0  0  0
   -5.8357   28.5764    9.1563 H   0  0  0  0  0  0  0  0  0  0  0  0
  1  2  1  0  0  0
  2  3  2  0  0  0
  3  4  1  0  0  0
  4  5  2  0  0  0
  5  6  1  0  0  0
  4  7  1  0  0  0
  7 11  1  0  0  0
 11 12  2  0  0  0
 12 13  1  0  0  0
 13 14  1  0  0  0
 14 15  1  0  0  0
  7  8  1  0  0  0
  8  9  1  0  0  0
  9 10  1  0  0  0
  6  1  2  0  0  0
 15 11  1  0  0  0
 10  3  1  0  0  0
 15 16  1  0  0  0
M  END
> <minimizedAffinity>
-7.62618

$$$$
OCNT-2328323


 20 20  0  0  0  0  0  0  0  0999 V2000
   -1.8902   26.6767    6.6297 C   0  0  0  0  0  0  0  0  0  0  0  0
   -0.4589   26.7503    6.5173 O   0  0  0  0  0  0  0  0  0  0  0  0
   -0.2472   27.6856    6.3295 H   0  0  0  0  0  0  0  0  0  0  0  0
   -2.4957   26.6731    5.2098 C   0  0  0  0  0  0  0  0  0  0  0  0
   -3.7546   27.4192    5.0928 N   0  0  0  0  0  0  0  0  0  0  0  0
   -3.5351   28.3684    4.7835 H   0  0  0  0  0  0  0  0  0  0  0  0
   -3.9881   26.2737    2.9880 C   0  0  0  0  0  0  0  0  0  0  0  0
   -4.7717   26.8626    4.1779 C   0  0  0  0  0  0  0  0  0  0  0  0
   -5.7419   27.9230    3.6362 C   0  0  0  0  0  0  0  0  0  0  0  0
   -5.5595   25.7229    4.8491 C   0  0  0  0  0  0  0  0  0  0  0  0
   -2.3851   27.8407    7.5006 C   0  0  0  0  0  0  0  0  0  0  0  0
   -1.9236   29.0755    6.9196 O   0  0  0  0  0  0  0  0  0  0  0  0
   -2.1275   30.1278    7.7745 C   0  0  0  0  0  0  0  0  0  0  0  0
   -3.3368   30.8264    7.7329 C   0  0  0  0  0  0  0  0  0  0  0  0
   -3.5248   31.9198    8.5763 C   0  0  0  0  0  0  0  0  0  0  0  0
   -5.0156   32.7790    8.5395 Cl  0  0  0  0  0  0  0  0  0  0  0  0
   -2.5132   32.3261    9.4484 C   0  0  0  0  0  0  0  0  0  0  0  0
   -1.2954   31.6396    9.4713 C   0  0  0  0  0  0  0  0  0  0  0  0
   -1.0990   30.5439    8.6285 C   0  0  0  0  0  0  0  0  0  0  0  0
    0.4171   29.7198    8.6746 Cl  0  0  0  0  0  0  0  0  0  0  0  0
  7  8  1  0  0  0
  8  9  1  0  0  0
  8 10  1  0  0  0
  8  5  1  0  0  0
  5  4  1  0  0  0
  4  1  1  0  0  0
  1  2  1  0  0  0
  1 11  1  0  0  0
 11 12  1  0  0  0
 12 13  1  0  0  0
 13 14  1  0  0  0
 14 15  2  0  0  0
 15 16  1  0  0  0
 15 17  1  0  0  0
 17 18  2  0  0  0
 18 19  1  0  0  0
 19 20  1  0  0  0
 19 13  2  0  0  0
  5  6  1  0  0  0
  2  3  1  0  0  0
M  END
> <minimizedAffinity>
-7.04823

$$$$
OCNT-2328329


 22 23  0  0  0  0  0  0  0  0999 V2000
   -3.4206   32.7894    8.6853 C   0  0  0  0  0  0  0  0  0  0  0  0
   -4.0490   32.1854    7.5964 C   0  0  0  0  0  0  0  0  0  0  0  0
   -3.5027   31.0506    6.9777 C   0  0  0  0  0  0  0  0  0  0  0  0
   -2.2778   30.5240    7.4300 C   0  0  0  0  0  0  0  0  0  0  0  0
   -1.7458   29.4389    6.8196 N   0  0  0  0  0  0  0  0  0  0  0  0
   -0.5781   28.9471    7.2846 C   0  0  0  0  0  0  0  0  0  0  0  0
    0.1101   29.4843    8.3536 C   0  0  0  0  0  0  0  0  0  0  0  0
   -0.4338   30.5954    8.9854 C   0  0  0  0  0  0  0  0  0  0  0  0
   -1.6452   31.1377    8.5326 C   0  0  0  0  0  0  0  0  0  0  0  0
   -2.2212   32.2609    9.1547 C   0  0  0  0  0  0  0  0  0  0  0  0
   -4.9279   34.5915    8.3061 C   0  0  0  0  0  0  0  0  0  0  0  0
   -4.0743   33.8785    9.1921 O   0  0  0  0  0  0  0  0  0  0  0  0
   -4.1203   30.4610    5.8400 N   0  0  0  0  0  0  0  0  0  0  0  0
   -3.4600   29.7590    5.4828 H   0  0  0  0  0  0  0  0  0  0  0  0
   -5.4862   29.9534    5.9983 C   0  0  0  0  0  0  0  0  0  0  0  0
   -5.9904   29.5201    4.6202 C   0  0  0  0  0  0  0  0  0  0  0  0
   -5.5058   28.7507    6.9623 C   0  0  0  0  0  0  0  0  0  0  0  0
   -6.2246   29.0640    8.2820 C   0  0  0  0  0  0  0  0  0  0  0  0
   -5.2900   29.0721    9.4937 C   0  0  0  0  0  0  0  0  0  0  0  0
   -5.7301   28.1640   10.5452 N   0  0  0  0  0  0  0  0  0  0  0  0
   -6.6303   28.4648   10.9144 H   0  0  0  0  0  0  0  0  0  0  0  0
   -5.0753   28.2061   11.3248 H   0  0  0  0  0  0  0  0  0  0  0  0
 11 12  1  0  0  0
 12  1  1  0  0  0
  1  2  2  0  0  0
  2  3  1  0  0  0
  3 13  1  0  0  0
 13 15  1  0  0  0
 15 16  1  0  0  0
 15 17  1  0  0  0
 17 18  1  0  0  0
 18 19  1  0  0  0
 19 20  1  0  0  0
  3  4  2  0  0  0
  4  5  1  0  0  0
  5  6  2  0  0  0
  6  7  1  0  0  0
  7  8  2  0  0  0
  8  9  1  0  0  0
  9 10  2  0  0  0
 10  1  1  0  0  0
  9  4  1  0  0  0
 13 14  1  0  0  0
 20 21  1  0  0  0
 20 22  1  0  0  0
M  END
> <minimizedAffinity>
-7.63270

$$$$
OCNT-2328331


 16 17  0  0  0  0  0  0  0  0999 V2000
    0.9965   29.3051    8.3725 Cl  0  0  0  0  0  0  0  0  0  0  0  0
   -0.5622   29.9826    8.7116 C   0  0  0  0  0  0  0  0  0  0  0  0
   -0.6086   31.3422    9.0458 C   0  0  0  0  0  0  0  0  0  0  0  0
   -1.8325   31.9739    9.2596 C   0  0  0  0  0  0  0  0  0  0  0  0
   -3.0150   31.2498    9.1313 C   0  0  0  0  0  0  0  0  0  0  0  0
   -2.9699   29.8923    8.7988 C   0  0  0  0  0  0  0  0  0  0  0  0
   -4.4718   29.0426    8.6477 Cl  0  0  0  0  0  0  0  0  0  0  0  0
   -1.7455   29.2287    8.5829 C   0  0  0  0  0  0  0  0  0  0  0  0
   -1.7293   27.8313    8.3196 N   0  0  0  0  0  0  0  0  0  0  0  0
   -0.9910   27.3727    8.8448 H   0  0  0  0  0  0  0  0  0  0  0  0
   -1.7643   27.3642    7.0386 C   0  0  0  0  0  0  0  0  0  0  0  0
   -2.7762   27.2757    6.2250 N   0  0  0  0  0  0  0  0  0  0  0  0
   -2.1960   26.7108    4.9788 C   0  0  0  0  0  0  0  0  0  0  0  0
   -0.7932   26.2229    5.3445 C   0  0  0  0  0  0  0  0  0  0  0  0
   -0.5501   26.9360    6.5826 N   0  0  0  0  0  0  0  0  0  0  0  0
   -0.0254   26.4116    7.2733 H   0  0  0  0  0  0  0  0  0  0  0  0
  1  2  1  0  0  0
  2  3  1  0  0  0
  3  4  2  0  0  0
  4  5  1  0  0  0
  5  6  2  0  0  0
  6  7  1  0  0  0
  6  8  1  0  0  0
  8  9  1  0  0  0
  9 11  1  0  0  0
 11 12  2  0  0  0
 12 13  1  0  0  0
 13 14  1  0  0  0
 14 15  1  0  0  0
  8  2  2  0  0  0
 15 11  1  0  0  0
  9 10  1  0  0  0
 15 16  1  0  0  0
M  END
> <minimizedAffinity>
-7.01688

$$$$
OCNT-2328333


 20 20  0  0  0  0  0  0  0  0999 V2000
   -4.4268   30.2840    6.2040 C   0  0  0  0  0  0  0  0  0  0  0  0
   -5.6337   29.7305    6.9684 C   0  0  0  0  0  0  0  0  0  0  0  0
   -5.1877   28.8125    7.9821 O   0  0  0  0  0  0  0  0  0  0  0  0
   -5.9672   28.2454    8.1582 H   0  0  0  0  0  0  0  0  0  0  0  0
   -6.5958   28.9794    6.0259 C   0  0  0  0  0  0  0  0  0  0  0  0
   -6.3215   27.5340    6.1181 N   0  0  0  0  0  0  0  0  0  0  0  0
   -7.2004   27.0454    6.3043 H   0  0  0  0  0  0  0  0  0  0  0  0
   -5.6811   26.9250    4.9348 C   0  0  0  0  0  0  0  0  0  0  0  0
   -6.2803   25.5110    4.8065 C   0  0  0  0  0  0  0  0  0  0  0  0
   -4.1600   26.7900    5.1107 C   0  0  0  0  0  0  0  0  0  0  0  0
   -5.9942   27.7058    3.6479 C   0  0  0  0  0  0  0  0  0  0  0  0
   -4.0611   31.5536    6.7736 O   0  0  0  0  0  0  0  0  0  0  0  0
    0.2792   29.4483    7.5472 C   0  0  0  0  0  0  0  0  0  0  0  0
   -0.8287   30.3548    7.9959 C   0  0  0  0  0  0  0  0  0  0  0  0
   -0.7276   31.0571    9.2044 C   0  0  0  0  0  0  0  0  0  0  0  0
   -1.7493   31.9210    9.6107 C   0  0  0  0  0  0  0  0  0  0  0  0
   -2.8739   32.1020    8.8047 C   0  0  0  0  0  0  0  0  0  0  0  0
   -4.1167   33.1713    9.3411 Cl  0  0  0  0  0  0  0  0  0  0  0  0
   -2.9651   31.4282    7.5851 C   0  0  0  0  0  0  0  0  0  0  0  0
   -1.9536   30.5511    7.1854 C   0  0  0  0  0  0  0  0  0  0  0  0
 13 14  1  0  0  0
 14 15  1  0  0  0
 15 16  2  0  0  0
 16 17  1  0  0  0
 17 18  1  0  0  0
 17 19  2  0  0  0
 19 12  1  0  0  0
 12  1  1  0  0  0
  1  2  1  0  0  0
  2  3  1  0  0  0
  2  5  1  0  0  0
  5  6  1  0  0  0
  6  8  1  0  0  0
  8  9  1  0  0  0
  8 10  1  0  0  0
  8 11  1  0  0  0
 19 20  1  0  0  0
 20 14  2  0  0  0
  3  4  1  0  0  0
  6  7  1  0  0  0
M  END
> <minimizedAffinity>
-7.18010

$$$$
OCNT-2328337


 25 25  0  0  0  0  0  0  0  0999 V2000
   -4.5289   26.8478    4.6317 C   0  0  0  0  0  0  0  0  0  0  0  0
   -4.4958   27.6214    5.7249 C   0  0  0  0  0  0  0  0  0  0  0  0
   -3.2361   27.7990    6.5008 C   0  0  0  0  0  0  0  0  0  0  0  0
   -3.2162   28.4577    7.5369 O   0  0  0  0  0  0  0  0  0  0  0  0
   -1.9881   27.1600    5.9852 C   0  0  0  0  0  0  0  0  0  0  0  0
   -2.0121   26.4260    4.8572 C   0  0  0  0  0  0  0  0  0  0  0  0
   -0.8173   25.7669    4.2230 C   0  0  0  0  0  0  0  0  0  0  0  0
   -3.2847   26.2196    4.1051 C   0  0  0  0  0  0  0  0  0  0  0  0
   -3.2933   25.5458    3.0786 O   0  0  0  0  0  0  0  0  0  0  0  0
   -5.8486   27.6822    2.8933 C   0  0  0  0  0  0  0  0  0  0  0  0
   -5.7188   26.7052    3.9237 O   0  0  0  0  0  0  0  0  0  0  0  0
   -5.6714   28.1895    6.2074 O   0  0  0  0  0  0  0  0  0  0  0  0
   -5.7385   29.5841    5.9170 C   0  0  0  0  0  0  0  0  0  0  0  0
   -0.7594   27.3879    6.8408 C   0  0  0  0  0  0  0  0  0  0  0  0
    0.0061   28.6425    6.4078 C   0  0  0  0  0  0  0  0  0  0  0  0
    0.7398   29.3346    7.5609 C   0  0  0  0  0  0  0  0  0  0  0  0
   -0.1350   29.7604    8.7446 C   0  0  0  0  0  0  0  0  0  0  0  0
   -1.1835   30.8354    8.4417 C   0  0  0  0  0  0  0  0  0  0  0  0
   -1.3916   31.8884    9.5350 C   0  0  0  0  0  0  0  0  0  0  0  0
   -2.8243   32.4277    9.5907 C   0  0  0  0  0  0  0  0  0  0  0  0
   -3.7784   31.6804    8.6516 C   0  0  0  0  0  0  0  0  0  0  0  0
   -5.2358   31.6503    9.1177 C   0  0  0  0  0  0  0  0  0  0  0  0
   -5.7436   30.2742    9.5220 C   0  0  0  0  0  0  0  0  0  0  0  0
   -4.6399   29.4263    9.8174 O   0  0  0  0  0  0  0  0  0  0  0  0
   -4.1018   29.3556    9.0104 H   0  0  0  0  0  0  0  0  0  0  0  0
 10 11  1  0  0  0
 11  1  1  0  0  0
  1  2  2  0  0  0
  2 12  1  0  0  0
 12 13  1  0  0  0
  2  3  1  0  0  0
  3  4  2  0  0  0
  3  5  1  0  0  0
  5 14  1  0  0  0
 14 15  1  0  0  0
 15 16  1  0  0  0
 16 17  1  0  0  0
 17 18  1  0  0  0
 18 19  1  0  0  0
 19 20  1  0  0  0
 20 21  1  0  0  0
 21 22  1  0  0  0
 22 23  1  0  0  0
 23 24  1  0  0  0
  5  6  2  0  0  0
  6  7  1  0  0  0
  6  8  1  0  0  0
  8  9  2  0  0  0
  8  1  1  0  0  0
 24 25  1  0  0  0
M  END
> <minimizedAffinity>
-6.97018

$$$$
OCNT-2328344


 23 23  0  0  0  0  0  0  0  0999 V2000
   -2.8200   27.9316    6.5903 C   0  0  0  0  0  0  0  0  0  0  0  0
   -3.1134   27.1033    5.4931 C   0  0  0  0  0  0  0  0  0  0  0  0
   -2.1045   26.3821    4.8579 C   0  0  0  0  0  0  0  0  0  0  0  0
   -2.5245   25.3869    3.5072 Cl  0  0  0  0  0  0  0  0  0  0  0  0
   -0.7829   26.4344    5.3227 C   0  0  0  0  0  0  0  0  0  0  0  0
    0.2724   25.8105    4.6323 N   0  0  0  0  0  0  0  0  0  0  0  0
   -0.4831   27.3054    6.3793 C   0  0  0  0  0  0  0  0  0  0  0  0
   -1.4842   28.0485    7.0291 C   0  0  0  0  0  0  0  0  0  0  0  0
   -0.0444   25.0386    4.0470 H   0  0  0  0  0  0  0  0  0  0  0  0
    1.0705   25.5624    5.2067 H   0  0  0  0  0  0  0  0  0  0  0  0
   -4.0529   28.7243    8.5687 N   0  0  0  0  0  0  0  0  0  0  0  0
   -3.9900   28.6490    7.1981 C   0  0  0  0  0  0  0  0  0  0  0  0
   -4.8539   29.1393    6.4763 O   0  0  0  0  0  0  0  0  0  0  0  0
   -3.2636   28.3798    9.1056 H   0  0  0  0  0  0  0  0  0  0  0  0
   -5.1096   29.4393    9.2605 C   0  0  0  0  0  0  0  0  0  0  0  0
   -4.6449   30.8178    9.7726 C   0  0  0  0  0  0  0  0  0  0  0  0
   -4.2003   31.7244    8.6856 N   0  0  0  0  0  0  0  0  0  0  0  0
   -2.1430   31.8566   10.0913 C   0  0  0  0  0  0  0  0  0  0  0  0
   -3.1105   32.5970    9.1717 C   0  0  0  0  0  0  0  0  0  0  0  0
   -5.3335   32.5355    8.1969 C   0  0  0  0  0  0  0  0  0  0  0  0
   -4.9905   34.0209    8.1241 C   0  0  0  0  0  0  0  0  0  0  0  0
   -1.2263   28.8979    8.0771 O   0  0  0  0  0  0  0  0  0  0  0  0
    0.1263   29.2690    8.3224 C   0  0  0  0  0  0  0  0  0  0  0  0
 18 19  1  0  0  0
 19 17  1  0  0  0
 17 20  1  0  0  0
 20 21  1  0  0  0
 17 16  1  0  0  0
 16 15  1  0  0  0
 15 11  1  0  0  0
 11 12  1  0  0  0
 12 13  2  0  0  0
 12  1  1  0  0  0
  1  2  1  0  0  0
  2  3  2  0  0  0
  3  4  1  0  0  0
  3  5  1  0  0  0
  5  6  1  0  0  0
  5  7  2  0  0  0
  7  8  1  0  0  0
  8 22  1  0  0  0
 22 23  1  0  0  0
  8  1  2  0  0  0
 11 14  1  0  0  0
  6  9  1  0  0  0
  6 10  1  0  0  0
M  END
> <minimizedAffinity>
-6.75989

$$$$
OCNT-2328345


 22 25  0  0  0  0  0  0  0  0999 V2000
   -5.7150   23.6011    3.2953 C   0  0  0  0  0  0  0  0  0  0  0  0
   -4.8609   22.3003    3.0374 C   0  0  0  0  0  0  0  0  0  0  0  0
   -5.7144   21.1950    2.3365 C   0  0  0  0  0  0  0  0  0  0  0  0
   -7.1611   21.7025    2.1027 C   0  0  0  0  0  0  0  0  0  0  0  0
   -7.0194   22.9665    1.2719 C   0  0  0  0  0  0  0  0  0  0  0  0
   -6.2196   23.9744    1.8764 C   0  0  0  0  0  0  0  0  0  0  0  0
   -5.9167   25.1144    1.1368 C   0  0  0  0  0  0  0  0  0  0  0  0
   -6.4592   25.2788   -0.1429 C   0  0  0  0  0  0  0  0  0  0  0  0
   -7.2841   24.2991   -0.7034 C   0  0  0  0  0  0  0  0  0  0  0  0
   -7.5600   23.1294   -0.0008 C   0  0  0  0  0  0  0  0  0  0  0  0
   -7.6856   22.0852    3.4754 C   0  0  0  0  0  0  0  0  0  0  0  0
   -6.9089   23.0717    4.1399 C   0  0  0  0  0  0  0  0  0  0  0  0
   -7.2350   23.4045    5.4534 C   0  0  0  0  0  0  0  0  0  0  0  0
   -8.3468   22.8147    6.0646 C   0  0  0  0  0  0  0  0  0  0  0  0
   -9.1257   21.8759    5.3813 C   0  0  0  0  0  0  0  0  0  0  0  0
   -8.7924   21.4987    4.0830 C   0  0  0  0  0  0  0  0  0  0  0  0
   -4.8217   24.6521    4.0058 C   0  0  0  0  0  0  0  0  0  0  0  0
   -3.3996   24.8590    3.4455 C   0  0  0  0  0  0  0  0  0  0  0  0
   -3.0141   26.3438    3.4908 C   0  0  0  0  0  0  0  0  0  0  0  0
   -2.6440   27.0909    5.7773 C   0  0  0  0  0  0  0  0  0  0  0  0
   -3.5660   27.0498    4.6491 N   0  0  0  0  0  0  0  0  0  0  0  0
   -3.7822   28.0081    4.3734 H   0  0  0  0  0  0  0  0  0  0  0  0
 20 21  1  0  0  0
 21 19  1  0  0  0
 19 18  1  0  0  0
 18 17  1  0  0  0
 17  1  1  0  0  0
  1  2  1  0  0  0
  2  3  1  0  0  0
  3  4  1  0  0  0
  4  5  1  0  0  0
  5  6  1  0  0  0
  6  7  2  0  0  0
  7  8  1  0  0  0
  8  9  2  0  0  0
  9 10  1  0  0  0
  4 11  1  0  0  0
 11 12  1  0  0  0
 12 13  2  0  0  0
 13 14  1  0  0  0
 14 15  2  0  0  0
 15 16  1  0  0  0
  6  1  1  0  0  0
 16 11  2  0  0  0
 12  1  1  0  0  0
 10  5  2  0  0  0
 21 22  1  0  0  0
M  END
> <minimizedAffinity>
-9.29730

$$$$
OCNT-2328368


 21 22  0  0  0  0  0  0  0  0999 V2000
   -5.0088   29.9545    7.5444 N   0  0  0  0  0  0  0  0  0  0  0  0
   -4.9122   32.3025    8.5216 C   0  0  0  0  0  0  0  0  0  0  0  0
   -4.6856   31.3861    7.3076 C   0  0  0  0  0  0  0  0  0  0  0  0
   -3.2548   31.5604    6.7356 C   0  0  0  0  0  0  0  0  0  0  0  0
   -2.3495   31.8368    7.8193 O   0  0  0  0  0  0  0  0  0  0  0  0
   -1.3286   30.9265    7.8217 C   0  0  0  0  0  0  0  0  0  0  0  0
   -0.9200   30.3574    6.6179 C   0  0  0  0  0  0  0  0  0  0  0  0
    0.1415   29.4529    6.6104 C   0  0  0  0  0  0  0  0  0  0  0  0
    0.7963   29.1358    7.8022 C   0  0  0  0  0  0  0  0  0  0  0  0
    0.3948   29.7271    9.0017 C   0  0  0  0  0  0  0  0  0  0  0  0
   -0.6670   30.6313    9.0117 C   0  0  0  0  0  0  0  0  0  0  0  0
   -4.9387   29.5522    8.9663 C   0  0  0  0  0  0  0  0  0  0  0  0
   -6.2515   29.0036    9.5472 C   0  0  0  0  0  0  0  0  0  0  0  0
   -6.2489   29.0219   11.3311 Cl  0  0  0  0  0  0  0  0  0  0  0  0
   -6.2983   29.5953    6.9182 C   0  0  0  0  0  0  0  0  0  0  0  0
   -6.1600   28.8921    5.5863 C   0  0  0  0  0  0  0  0  0  0  0  0
   -6.0717   27.4941    5.5195 C   0  0  0  0  0  0  0  0  0  0  0  0
   -5.9532   26.8514    4.2857 C   0  0  0  0  0  0  0  0  0  0  0  0
   -5.9260   27.5973    3.1084 C   0  0  0  0  0  0  0  0  0  0  0  0
   -6.0196   28.9866    3.1615 C   0  0  0  0  0  0  0  0  0  0  0  0
   -6.1399   29.6310    4.3929 C   0  0  0  0  0  0  0  0  0  0  0  0
  2  3  1  0  0  0
  3  4  1  0  0  0
  4  5  1  0  0  0
  5  6  1  0  0  0
  6  7  2  0  0  0
  7  8  1  0  0  0
  8  9  2  0  0  0
  9 10  1  0  0  0
 10 11  2  0  0  0
  3  1  1  0  0  0
  1 12  1  0  0  0
 12 13  1  0  0  0
 13 14  1  0  0  0
  1 15  1  0  0  0
 15 16  1  0  0  0
 16 17  2  0  0  0
 17 18  1  0  0  0
 18 19  2  0  0  0
 19 20  1  0  0  0
 20 21  2  0  0  0
 11  6  1  0  0  0
 21 16  1  0  0  0
M  END
> <minimizedAffinity>
-8.01828

$$$$
OCNT-2328369


 41 44  0  0  0  0  0  0  0  0999 V2000
   -5.6544   25.1459    2.2312 C   0  0  0  0  0  0  0  0  0  0  0  0
   -5.6786   24.7330    0.9579 N   0  0  0  0  0  0  0  0  0  0  0  0
   -6.3755   23.6103    0.6876 C   0  0  0  0  0  0  0  0  0  0  0  0
   -7.0657   22.8887    1.6315 C   0  0  0  0  0  0  0  0  0  0  0  0
   -7.8668   21.4399    1.1690 Cl  0  0  0  0  0  0  0  0  0  0  0  0
   -7.0158   23.3995    2.9191 C   0  0  0  0  0  0  0  0  0  0  0  0
   -6.3025   24.5081    3.2202 N   0  0  0  0  0  0  0  0  0  0  0  0
   -4.9222   26.2552    2.6267 N   0  0  0  0  0  0  0  0  0  0  0  0
   -5.0348   27.0107    1.9630 H   0  0  0  0  0  0  0  0  0  0  0  0
   -0.3186   25.8408    4.4558 C   0  0  0  0  0  0  0  0  0  0  0  0
   -1.7307   26.3383    4.6175 C   0  0  0  0  0  0  0  0  0  0  0  0
   -2.6555   26.0573    3.5861 C   0  0  0  0  0  0  0  0  0  0  0  0
   -3.9791   26.5025    3.6328 C   0  0  0  0  0  0  0  0  0  0  0  0
   -4.3793   27.1937    4.7872 C   0  0  0  0  0  0  0  0  0  0  0  0
   -3.4773   27.5074    5.8058 C   0  0  0  0  0  0  0  0  0  0  0  0
   -2.1439   27.0709    5.7512 C   0  0  0  0  0  0  0  0  0  0  0  0
   -1.1826   27.4311    6.8809 C   0  0  0  0  0  0  0  0  0  0  0  0
   -0.1387   28.4483    6.3880 C   0  0  0  0  0  0  0  0  0  0  0  0
    0.6192   29.0579    7.5633 C   0  0  0  0  0  0  0  0  0  0  0  0
   -0.2336   29.7349    8.5413 N   0  0  0  0  0  0  0  0  0  0  0  0
   -1.6520   29.3973    8.4392 C   0  0  0  0  0  0  0  0  0  0  0  0
   -1.8789   27.9105    8.1746 C   0  0  0  0  0  0  0  0  0  0  0  0
   -0.1230   30.7465    8.4606 H   0  0  0  0  0  0  0  0  0  0  0  0
   -5.6726   27.6488    4.9208 O   0  0  0  0  0  0  0  0  0  0  0  0
   -5.7206   29.0830    5.0600 C   0  0  0  0  0  0  0  0  0  0  0  0
   -6.1367   29.7236    3.7369 C   0  0  0  0  0  0  0  0  0  0  0  0
   -6.7568   29.3873    6.1387 C   0  0  0  0  0  0  0  0  0  0  0  0
   -7.6556   22.8053    4.0230 N   0  0  0  0  0  0  0  0  0  0  0  0
   -8.1185   21.9720    3.6549 H   0  0  0  0  0  0  0  0  0  0  0  0
   -7.1071   22.5148    5.2956 C   0  0  0  0  0  0  0  0  0  0  0  0
   -5.7292   22.2762    5.4407 C   0  0  0  0  0  0  0  0  0  0  0  0
   -5.1861   21.8802    6.6641 C   0  0  0  0  0  0  0  0  0  0  0  0
   -6.0167   21.6801    7.7604 C   0  0  0  0  0  0  0  0  0  0  0  0
   -7.3910   21.8834    7.6386 C   0  0  0  0  0  0  0  0  0  0  0  0
   -7.9357   22.3091    6.4179 C   0  0  0  0  0  0  0  0  0  0  0  0
   -9.6946   22.5713    6.2470 S   0  0  0  0  0  0  0  0  0  0  0  0
   -9.8922   23.9032    5.7036 O   0  0  0  0  0  0  0  0  0  0  0  0
  -10.1785   21.3993    5.5360 O   0  0  0  0  0  0  0  0  0  0  0  0
  -10.4454   22.5713    7.8766 C   0  0  0  0  0  0  0  0  0  0  0  0
  -11.1945   23.8706    8.1655 C   0  0  0  0  0  0  0  0  0  0  0  0
  -11.4080   21.3881    8.0050 C   0  0  0  0  0  0  0  0  0  0  0  0
 10 11  1  0  0  0
 11 12  1  0  0  0
 12 13  2  0  0  0
 13  8  1  0  0  0
  8  1  1  0  0  0
  1  2  2  0  0  0
  2  3  1  0  0  0
  3  4  2  0  0  0
  4  5  1  0  0  0
  4  6  1  0  0  0
  6 28  1  0  0  0
 28 30  1  0  0  0
 30 31  2  0  0  0
 31 32  1  0  0  0
 32 33  2  0  0  0
 33 34  1  0  0  0
 34 35  2  0  0  0
 35 36  1  0  0  0
 36 37  2  0  0  0
 36 38  2  0  0  0
 36 39  1  0  0  0
 39 40  1  0  0  0
 39 41  1  0  0  0
  6  7  2  0  0  0
 13 14  1  0  0  0
 14 24  1  0  0  0
 24 25  1  0  0  0
 25 26  1  0  0  0
 25 27  1  0  0  0
 14 15  2  0  0  0
 15 16  1  0  0  0
 16 17  1  0  0  0
 17 18  1  0  0  0
 18 19  1  0  0  0
 19 20  1  0  0  0
 20 21  1  0  0  0
 21 22  1  0  0  0
 16 11  2  0  0  0
 22 17  1  0  0  0
  7  1  1  0  0  0
 35 30  1  0  0  0
  8  9  1  0  0  0
 28 29  1  0  0  0
 20 23  1  0  0  0
M  END
> <minimizedAffinity>
-10.14519

$$$$
OCNT-2328376


 16 16  0  0  0  0  0  0  0  0999 V2000
   -0.6595   29.0023    7.5794 C   0  0  0  0  0  0  0  0  0  0  0  0
    0.8174   28.9779    8.0015 C   0  0  0  0  0  0  0  0  0  0  0  0
   -0.9174   30.1459    6.5889 C   0  0  0  0  0  0  0  0  0  0  0  0
   -0.9434   27.6628    6.8690 C   0  0  0  0  0  0  0  0  0  0  0  0
   -1.8060   26.8590    7.2047 O   0  0  0  0  0  0  0  0  0  0  0  0
   -0.1294   27.5065    5.7807 O   0  0  0  0  0  0  0  0  0  0  0  0
    0.5079   26.3847    3.7341 C   0  0  0  0  0  0  0  0  0  0  0  0
   -0.4023   26.3712    4.9477 C   0  0  0  0  0  0  0  0  0  0  0  0
   -1.6069   29.0562    8.6711 O   0  0  0  0  0  0  0  0  0  0  0  0
   -2.3025   30.2196    8.8200 C   0  0  0  0  0  0  0  0  0  0  0  0
   -1.7246   31.2623    9.5441 C   0  0  0  0  0  0  0  0  0  0  0  0
   -2.4415   32.4409    9.7575 C   0  0  0  0  0  0  0  0  0  0  0  0
   -3.7423   32.5557    9.2686 C   0  0  0  0  0  0  0  0  0  0  0  0
   -4.6285   34.0066    9.5315 Cl  0  0  0  0  0  0  0  0  0  0  0  0
   -4.3355   31.4972    8.5806 C   0  0  0  0  0  0  0  0  0  0  0  0
   -3.6167   30.3190    8.3680 C   0  0  0  0  0  0  0  0  0  0  0  0
  7  8  1  0  0  0
  8  6  1  0  0  0
  6  4  1  0  0  0
  4  5  2  0  0  0
  4  1  1  0  0  0
  1  2  1  0  0  0
  1  3  1  0  0  0
  1  9  1  0  0  0
  9 10  1  0  0  0
 10 11  1  0  0  0
 11 12  2  0  0  0
 12 13  1  0  0  0
 13 14  1  0  0  0
 13 15  2  0  0  0
 15 16  1  0  0  0
 16 10  2  0  0  0
M  END
> <minimizedAffinity>
-6.65452

$$$$
OCNT-2328378


 20 22  0  0  0  0  0  0  0  0999 V2000
   -5.3295   23.8547    4.0732 C   0  0  0  0  0  0  0  0  0  0  0  0
   -4.6880   29.1876    6.1089 C   0  0  0  0  0  0  0  0  0  0  0  0
   -4.8527   27.7453    5.9487 N   0  0  0  0  0  0  0  0  0  0  0  0
   -3.7269   27.1712    5.1909 C   0  0  0  0  0  0  0  0  0  0  0  0
   -3.9032   25.6546    4.9476 C   0  0  0  0  0  0  0  0  0  0  0  0
   -5.1609   25.3330    4.2240 N   0  0  0  0  0  0  0  0  0  0  0  0
   -6.2834   25.9204    5.0011 C   0  0  0  0  0  0  0  0  0  0  0  0
   -6.1099   27.4373    5.2446 C   0  0  0  0  0  0  0  0  0  0  0  0
   -6.2826   23.2374    5.1073 C   0  0  0  0  0  0  0  0  0  0  0  0
   -5.7608   22.5636    6.2250 C   0  0  0  0  0  0  0  0  0  0  0  0
   -6.6105   21.9811    7.1679 C   0  0  0  0  0  0  0  0  0  0  0  0
   -7.9920   22.0585    7.0055 C   0  0  0  0  0  0  0  0  0  0  0  0
   -8.5265   22.7164    5.9001 C   0  0  0  0  0  0  0  0  0  0  0  0
   -7.6789   23.2990    4.9564 C   0  0  0  0  0  0  0  0  0  0  0  0
   -5.7655   23.4279    2.6637 C   0  0  0  0  0  0  0  0  0  0  0  0
   -5.6806   22.0771    2.2840 C   0  0  0  0  0  0  0  0  0  0  0  0
   -6.0876   21.6664    1.0128 C   0  0  0  0  0  0  0  0  0  0  0  0
   -6.5895   22.5966    0.1053 C   0  0  0  0  0  0  0  0  0  0  0  0
   -6.6873   23.9382    0.4670 C   0  0  0  0  0  0  0  0  0  0  0  0
   -6.2813   24.3509    1.7372 C   0  0  0  0  0  0  0  0  0  0  0  0
  2  3  1  0  0  0
  3  4  1  0  0  0
  4  5  1  0  0  0
  5  6  1  0  0  0
  6  1  1  0  0  0
  1  9  1  0  0  0
  9 10  2  0  0  0
 10 11  1  0  0  0
 11 12  2  0  0  0
 12 13  1  0  0  0
 13 14  2  0  0  0
  1 15  1  0  0  0
 15 16  2  0  0  0
 16 17  1  0  0  0
 17 18  2  0  0  0
 18 19  1  0  0  0
 19 20  2  0  0  0
  6  7  1  0  0  0
  7  8  1  0  0  0
  8  3  1  0  0  0
 14  9  1  0  0  0
 20 15  1  0  0  0
M  END
> <minimizedAffinity>
-7.97283

$$$$
OCNT-2328381


 25 25  0  0  0  0  0  0  0  0999 V2000
   -4.9244   28.3885    5.8736 C   0  0  0  0  0  0  0  0  0  0  0  0
   -3.8279   28.4895    6.6494 C   0  0  0  0  0  0  0  0  0  0  0  0
   -3.5982   29.6014    7.6377 C   0  0  0  0  0  0  0  0  0  0  0  0
   -4.5911   30.7825    7.4566 C   0  0  0  0  0  0  0  0  0  0  0  0
   -6.0272   30.2220    7.2452 C   0  0  0  0  0  0  0  0  0  0  0  0
   -7.0709   31.2624    7.2316 N   0  0  0  0  0  0  0  0  0  0  0  0
   -6.0639   29.3727    5.9592 C   0  0  0  0  0  0  0  0  0  0  0  0
   -6.6727   32.1324    6.8563 H   0  0  0  0  0  0  0  0  0  0  0  0
   -7.8332   31.0081    6.6055 H   0  0  0  0  0  0  0  0  0  0  0  0
   -4.5313   31.7131    8.5954 N   0  0  0  0  0  0  0  0  0  0  0  0
   -4.6482   33.0727    8.4110 C   0  0  0  0  0  0  0  0  0  0  0  0
   -4.6835   33.8622    9.6912 C   0  0  0  0  0  0  0  0  0  0  0  0
   -4.7373   33.6081    7.3101 O   0  0  0  0  0  0  0  0  0  0  0  0
   -4.7640   31.3488    9.5089 H   0  0  0  0  0  0  0  0  0  0  0  0
   -5.1050   27.2941    4.8755 C   0  0  0  0  0  0  0  0  0  0  0  0
   -6.0714   27.2306    4.1302 O   0  0  0  0  0  0  0  0  0  0  0  0
   -4.0835   26.4035    4.9250 O   0  0  0  0  0  0  0  0  0  0  0  0
   -1.8566   25.9607    4.0854 C   0  0  0  0  0  0  0  0  0  0  0  0
   -3.2945   26.2908    3.7318 C   0  0  0  0  0  0  0  0  0  0  0  0
   -2.2688   30.0905    7.4215 O   0  0  0  0  0  0  0  0  0  0  0  0
   -1.2662   29.5044    8.2540 C   0  0  0  0  0  0  0  0  0  0  0  0
   -0.5082   30.5817    9.0520 C   0  0  0  0  0  0  0  0  0  0  0  0
   -1.1796   31.9446    9.1147 C   0  0  0  0  0  0  0  0  0  0  0  0
   -0.3534   28.6085    7.3964 C   0  0  0  0  0  0  0  0  0  0  0  0
    0.5676   29.3302    6.4206 C   0  0  0  0  0  0  0  0  0  0  0  0
 18 19  1  0  0  0
 19 17  1  0  0  0
 17 15  1  0  0  0
 15 16  2  0  0  0
 15  1  1  0  0  0
  1  2  2  0  0  0
  2  3  1  0  0  0
  3 20  1  0  0  0
 20 21  1  0  0  0
 21 22  1  0  0  0
 22 23  1  0  0  0
 21 24  1  0  0  0
 24 25  1  0  0  0
  3  4  1  0  0  0
  4 10  1  0  0  0
 10 11  1  0  0  0
 11 12  1  0  0  0
 11 13  2  0  0  0
  4  5  1  0  0  0
  5  6  1  0  0  0
  5  7  1  0  0  0
  7  1  1  0  0  0
 10 14  1  0  0  0
  6  8  1  0  0  0
  6  9  1  0  0  0
M  END
> <minimizedAffinity>
-7.12777

$$$$
OCNT-2328382


 20 21  0  0  0  0  0  0  0  0999 V2000
   -2.5709   27.2279    6.0895 C   0  0  0  0  0  0  0  0  0  0  0  0
   -3.6449   26.9738    5.2074 C   0  0  0  0  0  0  0  0  0  0  0  0
   -3.4374   26.3414    3.9851 C   0  0  0  0  0  0  0  0  0  0  0  0
   -4.8993   26.0259    2.8297 Br  0  0  0  0  0  0  0  0  0  0  0  0
   -2.1656   25.9263    3.6187 C   0  0  0  0  0  0  0  0  0  0  0  0
   -1.0965   26.1633    4.4846 C   0  0  0  0  0  0  0  0  0  0  0  0
    0.6254   25.5574    3.9376 Br  0  0  0  0  0  0  0  0  0  0  0  0
   -1.2657   26.8509    5.7092 C   0  0  0  0  0  0  0  0  0  0  0  0
   -0.1812   26.9703    6.6026 N   0  0  0  0  0  0  0  0  0  0  0  0
   -0.1912   27.8127    7.1660 H   0  0  0  0  0  0  0  0  0  0  0  0
    0.7163   26.8446    6.1372 H   0  0  0  0  0  0  0  0  0  0  0  0
   -2.9003   27.8503    7.4369 C   0  0  0  0  0  0  0  0  0  0  0  0
   -4.9168   29.1175    7.7968 C   0  0  0  0  0  0  0  0  0  0  0  0
   -3.5300   29.1842    7.3364 N   0  0  0  0  0  0  0  0  0  0  0  0
   -2.7286   30.2635    7.9560 C   0  0  0  0  0  0  0  0  0  0  0  0
   -1.2140   29.9797    8.0886 C   0  0  0  0  0  0  0  0  0  0  0  0
   -0.5158   30.8570    9.1346 C   0  0  0  0  0  0  0  0  0  0  0  0
   -1.2162   32.1939    9.3268 C   0  0  0  0  0  0  0  0  0  0  0  0
   -2.6601   32.0151    9.7974 C   0  0  0  0  0  0  0  0  0  0  0  0
   -3.3100   30.7154    9.3080 C   0  0  0  0  0  0  0  0  0  0  0  0
 13 14  1  0  0  0
 14 12  1  0  0  0
 12  1  1  0  0  0
  1  2  2  0  0  0
  2  3  1  0  0  0
  3  4  1  0  0  0
  3  5  2  0  0  0
  5  6  1  0  0  0
  6  7  1  0  0  0
  6  8  2  0  0  0
  8  9  1  0  0  0
 14 15  1  0  0  0
 15 16  1  0  0  0
 16 17  1  0  0  0
 17 18  1  0  0  0
 18 19  1  0  0  0
 19 20  1  0  0  0
  8  1  1  0  0  0
 20 15  1  0  0  0
  9 10  1  0  0  0
  9 11  1  0  0  0
M  END
> <minimizedAffinity>
-7.84317

$$$$
OCNT-2328385


 28 28  0  0  0  0  0  0  0  0999 V2000
   -6.4520   29.4364    4.9200 C   0  0  0  0  0  0  0  0  0  0  0  0
   -5.3843   30.2969    4.5225 O   0  0  0  0  0  0  0  0  0  0  0  0
   -4.5676   29.7687    4.5340 H   0  0  0  0  0  0  0  0  0  0  0  0
   -6.1522   28.0117    4.4734 C   0  0  0  0  0  0  0  0  0  0  0  0
   -5.9300   27.7685    3.1040 C   0  0  0  0  0  0  0  0  0  0  0  0
   -5.6672   26.4810    2.6275 C   0  0  0  0  0  0  0  0  0  0  0  0
   -5.6422   25.4043    3.5104 C   0  0  0  0  0  0  0  0  0  0  0  0
   -5.8660   25.6224    4.8667 C   0  0  0  0  0  0  0  0  0  0  0  0
   -6.1285   26.9129    5.3426 C   0  0  0  0  0  0  0  0  0  0  0  0
   -5.3839   24.1031    2.9949 N   0  0  0  0  0  0  0  0  0  0  0  0
   -4.4965   23.9552    2.5161 H   0  0  0  0  0  0  0  0  0  0  0  0
   -6.6312   23.2029    2.3120 S   0  0  0  0  0  0  0  0  0  0  0  0
   -5.8935   21.5894    2.1411 C   0  0  0  0  0  0  0  0  0  0  0  0
   -6.9444   23.7099    0.9953 O   0  0  0  0  0  0  0  0  0  0  0  0
   -7.6472   23.1072    3.3389 O   0  0  0  0  0  0  0  0  0  0  0  0
   -6.7736   29.6813    6.4065 C   0  0  0  0  0  0  0  0  0  0  0  0
   -5.6179   30.1937    7.2782 C   0  0  0  0  0  0  0  0  0  0  0  0
   -5.9594   30.9681    8.5642 C   0  0  0  0  0  0  0  0  0  0  0  0
   -4.8933   31.9020    8.9890 N   0  0  0  0  0  0  0  0  0  0  0  0
   -4.5233   32.8249    7.8958 C   0  0  0  0  0  0  0  0  0  0  0  0
   -4.8723   34.2664    8.2479 C   0  0  0  0  0  0  0  0  0  0  0  0
   -3.7208   31.1272    9.4544 C   0  0  0  0  0  0  0  0  0  0  0  0
   -2.5336   31.9599    9.9609 C   0  0  0  0  0  0  0  0  0  0  0  0
   -1.2175   31.6016    9.2625 C   0  0  0  0  0  0  0  0  0  0  0  0
   -1.3708   30.5010    8.2081 C   0  0  0  0  0  0  0  0  0  0  0  0
   -0.5886   29.2278    8.5381 C   0  0  0  0  0  0  0  0  0  0  0  0
    0.6477   29.3445    6.3446 C   0  0  0  0  0  0  0  0  0  0  0  0
    0.7793   29.2251    7.8547 C   0  0  0  0  0  0  0  0  0  0  0  0
 27 28  1  0  0  0
 28 26  1  0  0  0
 26 25  1  0  0  0
 25 24  1  0  0  0
 24 23  1  0  0  0
 23 22  1  0  0  0
 22 19  1  0  0  0
 19 20  1  0  0  0
 20 21  1  0  0  0
 19 18  1  0  0  0
 18 17  1  0  0  0
 17 16  1  0  0  0
 16  1  1  0  0  0
  1  2  1  0  0  0
  1  4  1  0  0  0
  4  5  1  0  0  0
  5  6  2  0  0  0
  6  7  1  0  0  0
  7 10  1  0  0  0
 10 12  1  0  0  0
 12 13  1  0  0  0
 12 14  2  0  0  0
 12 15  2  0  0  0
  7  8  2  0  0  0
  8  9  1  0  0  0
  9  4  2  0  0  0
  2  3  1  0  0  0
 10 11  1  0  0  0
M  END
> <minimizedAffinity>
-8.25420

$$$$
OCNT-2328395


 18 18  0  0  0  0  0  0  0  0999 V2000
   -0.7588   27.7601    6.4401 N   0  0  0  0  0  0  0  0  0  0  0  0
   -1.2884   27.8777    7.6170 C   0  0  0  0  0  0  0  0  0  0  0  0
   -1.5009   29.1938    8.2562 C   0  0  0  0  0  0  0  0  0  0  0  0
   -2.7799   29.7477    8.4302 C   0  0  0  0  0  0  0  0  0  0  0  0
   -4.2491   28.9332    8.0135 Cl  0  0  0  0  0  0  0  0  0  0  0  0
   -2.9269   31.0065    9.0307 C   0  0  0  0  0  0  0  0  0  0  0  0
   -1.8126   31.7174    9.4687 C   0  0  0  0  0  0  0  0  0  0  0  0
   -0.5434   31.1679    9.3146 C   0  0  0  0  0  0  0  0  0  0  0  0
   -0.3837   29.9122    8.7145 C   0  0  0  0  0  0  0  0  0  0  0  0
    1.2408   29.3362    8.5562 Cl  0  0  0  0  0  0  0  0  0  0  0  0
   -0.5788   26.4782    5.9959 N   0  0  0  0  0  0  0  0  0  0  0  0
   -1.0278   25.7859    6.5840 H   0  0  0  0  0  0  0  0  0  0  0  0
    0.7919   25.7554    4.1993 N   0  0  0  0  0  0  0  0  0  0  0  0
   -0.3512   26.0669    4.7051 C   0  0  0  0  0  0  0  0  0  0  0  0
   -1.4859   25.9851    3.9650 N   0  0  0  0  0  0  0  0  0  0  0  0
    0.6801   25.4506    3.2339 H   0  0  0  0  0  0  0  0  0  0  0  0
   -1.3307   25.8633    2.9725 H   0  0  0  0  0  0  0  0  0  0  0  0
   -2.1469   26.7350    4.1268 H   0  0  0  0  0  0  0  0  0  0  0  0
 13 14  2  0  0  0
 14 15  1  0  0  0
 14 11  1  0  0  0
 11  1  1  0  0  0
  1  2  2  0  0  0
  2  3  1  0  0  0
  3  4  2  0  0  0
  4  5  1  0  0  0
  4  6  1  0  0  0
  6  7  2  0  0  0
  7  8  1  0  0  0
  8  9  2  0  0  0
  9 10  1  0  0  0
  9  3  1  0  0  0
 13 16  1  0  0  0
 15 17  1  0  0  0
 15 18  1  0  0  0
 11 12  1  0  0  0
M  END
> <minimizedAffinity>
-6.66723

$$$$
OCNT-2328398


 14 14  0  0  0  0  0  0  0  0999 V2000
   -1.1412   29.8793    8.7595 C   0  0  0  0  0  0  0  0  0  0  0  0
   -0.8167   31.1241    9.3239 C   0  0  0  0  0  0  0  0  0  0  0  0
   -1.7921   32.1096    9.4963 C   0  0  0  0  0  0  0  0  0  0  0  0
   -3.1039   31.8707    9.1028 C   0  0  0  0  0  0  0  0  0  0  0  0
   -3.4388   30.6464    8.5262 C   0  0  0  0  0  0  0  0  0  0  0  0
   -2.4681   29.6438    8.3392 C   0  0  0  0  0  0  0  0  0  0  0  0
   -2.9504   28.3780    7.7008 C   0  0  0  0  0  0  0  0  0  0  0  0
   -2.4856   27.1894    8.1816 N   0  0  0  0  0  0  0  0  0  0  0  0
   -3.7385   28.3896    6.7608 O   0  0  0  0  0  0  0  0  0  0  0  0
   -1.8655   27.1523    8.9816 H   0  0  0  0  0  0  0  0  0  0  0  0
   -2.8238   26.3332    7.7662 H   0  0  0  0  0  0  0  0  0  0  0  0
   -0.2137   28.8826    8.5741 O   0  0  0  0  0  0  0  0  0  0  0  0
    0.6081   29.3160    6.3766 C   0  0  0  0  0  0  0  0  0  0  0  0
    0.9725   29.2179    7.8487 C   0  0  0  0  0  0  0  0  0  0  0  0
 13 14  1  0  0  0
 14 12  1  0  0  0
 12  1  1  0  0  0
  1  2  2  0  0  0
  2  3  1  0  0  0
  3  4  2  0  0  0
  4  5  1  0  0  0
  5  6  2  0  0  0
  6  7  1  0  0  0
  7  8  1  0  0  0
  7  9  2  0  0  0
  6  1  1  0  0  0
  8 10  1  0  0  0
  8 11  1  0  0  0
M  END
> <minimizedAffinity>
-6.22375

$$$$
OCNT-2328411


 11 11  0  0  0  0  0  0  0  0999 V2000
   -4.3839   32.4617    8.3422 C   0  0  0  0  0  0  0  0  0  0  0  0
   -5.3936   31.5299    9.0059 C   0  0  0  0  0  0  0  0  0  0  0  0
   -3.2986   32.6816    9.2550 O   0  0  0  0  0  0  0  0  0  0  0  0
   -2.1723   32.0939    8.7558 C   0  0  0  0  0  0  0  0  0  0  0  0
   -1.0922   32.1391    9.3226 O   0  0  0  0  0  0  0  0  0  0  0  0
   -2.4357   31.5027    7.5708 N   0  0  0  0  0  0  0  0  0  0  0  0
   -1.4410   30.8731    6.7411 C   0  0  0  0  0  0  0  0  0  0  0  0
   -3.7118   31.7527    7.1885 C   0  0  0  0  0  0  0  0  0  0  0  0
   -4.2305   31.4664    6.1204 O   0  0  0  0  0  0  0  0  0  0  0  0
   -4.7499   34.9415    8.8919 C   0  0  0  0  0  0  0  0  0  0  0  0
   -5.0239   33.7910    7.9288 C   0  0  0  0  0  0  0  0  0  0  0  0
 10 11  1  0  0  0
 11  1  1  0  0  0
  1  2  1  0  0  0
  1  3  1  0  0  0
  3  4  1  0  0  0
  4  5  2  0  0  0
  4  6  1  0  0  0
  6  7  1  0  0  0
  6  8  1  0  0  0
  8  9  2  0  0  0
  8  1  1  0  0  0
M  END
> <minimizedAffinity>
-5.39696

$$$$
OCNT-2328418


 30 31  0  0  0  0  0  0  0  0999 V2000
   -3.4036   27.6581    5.8445 C   0  0  0  0  0  0  0  0  0  0  0  0
   -2.0816   27.6405    6.3315 C   0  0  0  0  0  0  0  0  0  0  0  0
   -1.1561   26.7815    5.7268 C   0  0  0  0  0  0  0  0  0  0  0  0
   -1.5314   25.9399    4.6694 C   0  0  0  0  0  0  0  0  0  0  0  0
   -2.8383   25.9474    4.1956 C   0  0  0  0  0  0  0  0  0  0  0  0
   -3.7682   26.7985    4.7914 C   0  0  0  0  0  0  0  0  0  0  0  0
   -5.1943   29.1887    5.6249 O   0  0  0  0  0  0  0  0  0  0  0  0
   -4.4925   28.5296    6.3882 C   0  0  0  0  0  0  0  0  0  0  0  0
   -4.6593   28.5535    7.7519 N   0  0  0  0  0  0  0  0  0  0  0  0
   -4.1157   27.9019    8.3058 H   0  0  0  0  0  0  0  0  0  0  0  0
   -5.7235   29.2928    8.4125 C   0  0  0  0  0  0  0  0  0  0  0  0
   -5.2707   30.6408    9.0353 C   0  0  0  0  0  0  0  0  0  0  0  0
   -5.3890   31.7921    8.0207 C   0  0  0  0  0  0  0  0  0  0  0  0
   -4.9577   33.1248    8.6296 C   0  0  0  0  0  0  0  0  0  0  0  0
   -3.7224   32.9881    9.5188 C   0  0  0  0  0  0  0  0  0  0  0  0
   -3.0355   31.6372    9.3497 C   0  0  0  0  0  0  0  0  0  0  0  0
   -3.9425   30.5433    9.6645 N   0  0  0  0  0  0  0  0  0  0  0  0
   -3.5012   29.6461    9.4158 H   0  0  0  0  0  0  0  0  0  0  0  0
   -1.7742   28.4868    7.3638 O   0  0  0  0  0  0  0  0  0  0  0  0
   -0.5723   28.2761    8.1233 C   0  0  0  0  0  0  0  0  0  0  0  0
    0.4285   29.4147    7.9669 C   0  0  0  0  0  0  0  0  0  0  0  0
    0.5854   29.7743    6.6741 F   0  0  0  0  0  0  0  0  0  0  0  0
    0.0474   30.5098    8.6614 F   0  0  0  0  0  0  0  0  0  0  0  0
    1.6446   29.0410    8.4324 F   0  0  0  0  0  0  0  0  0  0  0  0
   -3.3306   25.1831    3.1764 O   0  0  0  0  0  0  0  0  0  0  0  0
   -4.7123   24.8139    3.2392 C   0  0  0  0  0  0  0  0  0  0  0  0
   -5.4337   25.2323    1.9689 C   0  0  0  0  0  0  0  0  0  0  0  0
   -5.8820   26.5049    2.0416 F   0  0  0  0  0  0  0  0  0  0  0  0
   -6.5114   24.4344    1.7649 F   0  0  0  0  0  0  0  0  0  0  0  0
   -4.6428   25.1256    0.8809 F   0  0  0  0  0  0  0  0  0  0  0  0
  7  8  2  0  0  0
  8  9  1  0  0  0
  9 11  1  0  0  0
 11 12  1  0  0  0
 12 13  1  0  0  0
 13 14  1  0  0  0
 14 15  1  0  0  0
 15 16  1  0  0  0
 16 17  1  0  0  0
  8  1  1  0  0  0
  1  2  2  0  0  0
  2 19  1  0  0  0
 19 20  1  0  0  0
 20 21  1  0  0  0
 21 22  1  0  0  0
 21 23  1  0  0  0
 21 24  1  0  0  0
  2  3  1  0  0  0
  3  4  2  0  0  0
  4  5  1  0  0  0
  5 25  1  0  0  0
 25 26  1  0  0  0
 26 27  1  0  0  0
 27 28  1  0  0  0
 27 29  1  0  0  0
 27 30  1  0  0  0
  5  6  2  0  0  0
 17 12  1  0  0  0
  6  1  1  0  0  0
  9 10  1  0  0  0
 17 18  1  0  0  0
M  END
> <minimizedAffinity>
-9.01783

$$$$
OCNT-2328420


 15 16  0  0  0  0  0  0  0  0999 V2000
    0.7702   29.2876    8.1769 C   0  0  0  0  0  0  0  0  0  0  0  0
   -0.5485   29.8874    8.5886 C   0  0  0  0  0  0  0  0  0  0  0  0
   -0.5380   31.1516    9.2004 C   0  0  0  0  0  0  0  0  0  0  0  0
   -1.7222   31.7639    9.5940 C   0  0  0  0  0  0  0  0  0  0  0  0
   -2.9352   31.1215    9.3774 C   0  0  0  0  0  0  0  0  0  0  0  0
   -2.9884   29.8498    8.7735 C   0  0  0  0  0  0  0  0  0  0  0  0
   -1.7793   29.2151    8.3854 C   0  0  0  0  0  0  0  0  0  0  0  0
   -1.8162   27.8611    7.7194 C   0  0  0  0  0  0  0  0  0  0  0  0
   -4.3559   29.2302    8.5512 C   0  0  0  0  0  0  0  0  0  0  0  0
   -4.7551   29.5558    7.1510 C   0  0  0  0  0  0  0  0  0  0  0  0
   -4.3807   30.6164    6.3495 C   0  0  0  0  0  0  0  0  0  0  0  0
   -5.0395   30.4293    5.1669 N   0  0  0  0  0  0  0  0  0  0  0  0
   -5.7945   29.2994    5.2897 C   0  0  0  0  0  0  0  0  0  0  0  0
   -5.6529   28.7532    6.4745 N   0  0  0  0  0  0  0  0  0  0  0  0
   -4.9814   31.0165    4.3467 H   0  0  0  0  0  0  0  0  0  0  0  0
  1  2  1  0  0  0
  2  3  1  0  0  0
  3  4  2  0  0  0
  4  5  1  0  0  0
  5  6  2  0  0  0
  6  9  1  0  0  0
  9 10  1  0  0  0
 10 11  2  0  0  0
 11 12  1  0  0  0
 12 13  1  0  0  0
 13 14  2  0  0  0
  6  7  1  0  0  0
  7  8  1  0  0  0
  7  2  2  0  0  0
 14 10  1  0  0  0
 12 15  1  0  0  0
M  END
> <minimizedAffinity>
-6.97068

$$$$
OCNT-2328421


 35 39  0  0  0  0  0  0  0  0999 V2000
   -3.5317   28.9487    7.0237 N   0  0  0  0  0  0  0  0  0  0  0  0
   -4.1898   28.1972    6.1145 N   0  0  0  0  0  0  0  0  0  0  0  0
   -3.2666   27.3276    5.6680 C   0  0  0  0  0  0  0  0  0  0  0  0
   -1.9871   27.5912    6.2393 C   0  0  0  0  0  0  0  0  0  0  0  0
   -0.6748   27.1097    6.1473 C   0  0  0  0  0  0  0  0  0  0  0  0
   -0.2613   26.0885    5.3049 N   0  0  0  0  0  0  0  0  0  0  0  0
    0.2805   27.6837    6.9082 N   0  0  0  0  0  0  0  0  0  0  0  0
   -0.0653   28.7009    7.7191 C   0  0  0  0  0  0  0  0  0  0  0  0
   -1.2779   29.2545    7.8776 N   0  0  0  0  0  0  0  0  0  0  0  0
   -2.1995   28.6478    7.1091 C   0  0  0  0  0  0  0  0  0  0  0  0
   -0.7761   26.0087    4.4374 H   0  0  0  0  0  0  0  0  0  0  0  0
    0.7495   26.0794    5.2199 H   0  0  0  0  0  0  0  0  0  0  0  0
   -4.0461   33.0715    8.9692 C   0  0  0  0  0  0  0  0  0  0  0  0
   -2.8668   32.8543    9.2359 O   0  0  0  0  0  0  0  0  0  0  0  0
   -4.7303   32.4015    7.9633 N   0  0  0  0  0  0  0  0  0  0  0  0
   -6.1808   32.2035    7.9394 C   0  0  0  0  0  0  0  0  0  0  0  0
   -6.5268   30.8253    8.5090 C   0  0  0  0  0  0  0  0  0  0  0  0
   -5.7716   29.7095    7.7773 C   0  0  0  0  0  0  0  0  0  0  0  0
   -4.2564   29.9887    7.7390 C   0  0  0  0  0  0  0  0  0  0  0  0
   -3.9856   31.3991    7.1908 C   0  0  0  0  0  0  0  0  0  0  0  0
   -4.8107   35.3797    9.2877 C   0  0  0  0  0  0  0  0  0  0  0  0
   -4.8024   34.1108    9.7161 C   0  0  0  0  0  0  0  0  0  0  0  0
   -3.6339   26.3006    4.6974 C   0  0  0  0  0  0  0  0  0  0  0  0
   -4.5164   25.2693    5.0440 C   0  0  0  0  0  0  0  0  0  0  0  0
   -4.8464   24.2810    4.1129 C   0  0  0  0  0  0  0  0  0  0  0  0
   -4.3142   24.3296    2.8244 C   0  0  0  0  0  0  0  0  0  0  0  0
   -3.4302   25.3510    2.4698 C   0  0  0  0  0  0  0  0  0  0  0  0
   -3.1023   26.3402    3.4010 C   0  0  0  0  0  0  0  0  0  0  0  0
   -4.6505   23.2963    1.9792 O   0  0  0  0  0  0  0  0  0  0  0  0
   -5.6829   23.5077    1.0942 C   0  0  0  0  0  0  0  0  0  0  0  0
   -5.9262   24.7534    0.5102 C   0  0  0  0  0  0  0  0  0  0  0  0
   -7.0140   24.9133   -0.3498 C   0  0  0  0  0  0  0  0  0  0  0  0
   -7.8628   23.8365   -0.6107 C   0  0  0  0  0  0  0  0  0  0  0  0
   -7.6308   22.5994   -0.0071 C   0  0  0  0  0  0  0  0  0  0  0  0
   -6.5441   22.4365    0.8526 C   0  0  0  0  0  0  0  0  0  0  0  0
 21 22  2  0  0  0
 22 13  1  0  0  0
 13 14  2  0  0  0
 13 15  1  0  0  0
 15 16  1  0  0  0
 16 17  1  0  0  0
 17 18  1  0  0  0
 18 19  1  0  0  0
 19  1  1  0  0  0
  1  2  1  0  0  0
  2  3  2  0  0  0
  3 23  1  0  0  0
 23 24  1  0  0  0
 24 25  2  0  0  0
 25 26  1  0  0  0
 26 29  1  0  0  0
 29 30  1  0  0  0
 30 31  2  0  0  0
 31 32  1  0  0  0
 32 33  2  0  0  0
 33 34  1  0  0  0
 34 35  2  0  0  0
 26 27  2  0  0  0
 27 28  1  0  0  0
  3  4  1  0  0  0
  4  5  2  0  0  0
  5  6  1  0  0  0
  5  7  1  0  0  0
  7  8  2  0  0  0
  8  9  1  0  0  0
  9 10  2  0  0  0
 19 20  1  0  0  0
 20 15  1  0  0  0
 10  1  1  0  0  0
 28 23  2  0  0  0
 10  4  1  0  0  0
 35 30  1  0  0  0
  6 11  1  0  0  0
  6 12  1  0  0  0
M  END
> <minimizedAffinity>
-11.17641

$$$$
OCNT-2328426


 24 26  0  0  0  0  0  0  0  0999 V2000
   -3.5560   26.7642    2.8147 O   0  0  0  0  0  0  0  0  0  0  0  0
   -4.5524   26.2182    3.7033 C   0  0  0  0  0  0  0  0  0  0  0  0
   -3.3707   26.0825    2.1476 H   0  0  0  0  0  0  0  0  0  0  0  0
   -5.3935   27.3708    4.2838 C   0  0  0  0  0  0  0  0  0  0  0  0
   -6.0133   27.2420    5.5419 C   0  0  0  0  0  0  0  0  0  0  0  0
   -6.7703   28.2840    6.0831 C   0  0  0  0  0  0  0  0  0  0  0  0
   -6.9190   29.4763    5.3802 C   0  0  0  0  0  0  0  0  0  0  0  0
   -6.3102   29.6281    4.1375 C   0  0  0  0  0  0  0  0  0  0  0  0
   -5.5535   28.5862    3.5952 C   0  0  0  0  0  0  0  0  0  0  0  0
   -5.4301   25.2696    2.8650 C   0  0  0  0  0  0  0  0  0  0  0  0
   -6.1706   24.2109    3.4169 C   0  0  0  0  0  0  0  0  0  0  0  0
   -6.9605   23.3862    2.6094 C   0  0  0  0  0  0  0  0  0  0  0  0
   -7.0351   23.6097    1.2374 C   0  0  0  0  0  0  0  0  0  0  0  0
   -6.3262   24.6629    0.6694 C   0  0  0  0  0  0  0  0  0  0  0  0
   -5.5368   25.4858    1.4748 C   0  0  0  0  0  0  0  0  0  0  0  0
   -3.7626   25.5618    4.8722 C   0  0  0  0  0  0  0  0  0  0  0  0
   -2.3121   26.0582    5.0239 C   0  0  0  0  0  0  0  0  0  0  0  0
   -2.0453   26.7051    6.3925 C   0  0  0  0  0  0  0  0  0  0  0  0
   -1.9870   28.1712    6.3667 N   0  0  0  0  0  0  0  0  0  0  0  0
   -3.1528   28.7701    7.0176 C   0  0  0  0  0  0  0  0  0  0  0  0
   -3.2185   30.2717    6.7144 C   0  0  0  0  0  0  0  0  0  0  0  0
   -1.8453   30.9461    6.6988 C   0  0  0  0  0  0  0  0  0  0  0  0
   -0.8269   30.1237    7.4728 C   0  0  0  0  0  0  0  0  0  0  0  0
   -0.7253   28.6945    6.9207 C   0  0  0  0  0  0  0  0  0  0  0  0
  1  2  1  0  0  0
  2 16  1  0  0  0
 16 17  1  0  0  0
 17 18  1  0  0  0
 18 19  1  0  0  0
 19 20  1  0  0  0
 20 21  1  0  0  0
 21 22  1  0  0  0
 22 23  1  0  0  0
 23 24  1  0  0  0
  2  4  1  0  0  0
  4  5  2  0  0  0
  5  6  1  0  0  0
  6  7  2  0  0  0
  7  8  1  0  0  0
  8  9  2  0  0  0
  2 10  1  0  0  0
 10 11  2  0  0  0
 11 12  1  0  0  0
 12 13  2  0  0  0
 13 14  1  0  0  0
 14 15  2  0  0  0
 24 19  1  0  0  0
  9  4  1  0  0  0
 15 10  1  0  0  0
  1  3  1  0  0  0
M  END
> <minimizedAffinity>
-8.60081

$$$$
OCNT-2328429


 21 23  0  0  0  0  0  0  0  0999 V2000
   -4.6297   24.0552    4.0343 C   0  0  0  0  0  0  0  0  0  0  0  0
   -5.8280   23.8237    3.4795 C   0  0  0  0  0  0  0  0  0  0  0  0
   -7.0130   23.2544    4.3241 C   0  0  0  0  0  0  0  0  0  0  0  0
   -7.5134   21.9752    4.0360 C   0  0  0  0  0  0  0  0  0  0  0  0
   -8.6257   21.5001    4.7380 C   0  0  0  0  0  0  0  0  0  0  0  0
   -9.2322   22.2934    5.7147 C   0  0  0  0  0  0  0  0  0  0  0  0
   -8.7323   23.5652    5.9950 C   0  0  0  0  0  0  0  0  0  0  0  0
   -7.6266   24.0500    5.2965 C   0  0  0  0  0  0  0  0  0  0  0  0
   -6.8348   21.0306    2.9820 C   0  0  0  0  0  0  0  0  0  0  0  0
   -6.3892   21.4090    1.7746 C   0  0  0  0  0  0  0  0  0  0  0  0
   -6.4730   22.8642    1.1954 C   0  0  0  0  0  0  0  0  0  0  0  0
   -6.1584   23.9937    1.9657 C   0  0  0  0  0  0  0  0  0  0  0  0
   -6.2460   25.2732    1.4072 C   0  0  0  0  0  0  0  0  0  0  0  0
   -6.6159   25.4265    0.0712 C   0  0  0  0  0  0  0  0  0  0  0  0
   -6.9155   24.3054   -0.7024 C   0  0  0  0  0  0  0  0  0  0  0  0
   -6.8476   23.0278   -0.1420 C   0  0  0  0  0  0  0  0  0  0  0  0
   -3.3825   24.5240    3.3342 C   0  0  0  0  0  0  0  0  0  0  0  0
   -3.0018   25.9753    3.6867 C   0  0  0  0  0  0  0  0  0  0  0  0
   -3.5786   27.3744    5.5616 C   0  0  0  0  0  0  0  0  0  0  0  0
   -2.7702   26.2346    5.1223 N   0  0  0  0  0  0  0  0  0  0  0  0
   -1.3578   26.4879    5.4122 C   0  0  0  0  0  0  0  0  0  0  0  0
 19 20  1  0  0  0
 20 21  1  0  0  0
 20 18  1  0  0  0
 18 17  1  0  0  0
 17  1  1  0  0  0
  1  2  2  0  0  0
  2  3  1  0  0  0
  3  4  1  0  0  0
  4  5  2  0  0  0
  5  6  1  0  0  0
  6  7  2  0  0  0
  7  8  1  0  0  0
  4  9  1  0  0  0
  9 10  2  0  0  0
 10 11  1  0  0  0
 11 12  1  0  0  0
 12 13  2  0  0  0
 13 14  1  0  0  0
 14 15  2  0  0  0
 15 16  1  0  0  0
 12  2  1  0  0  0
  8  3  2  0  0  0
 16 11  2  0  0  0
M  END
> <minimizedAffinity>
-8.43651

$$$$
OCNT-2328441


 19 20  0  0  0  0  0  0  0  0999 V2000
   -9.2039   20.7947    4.4136 C   0  0  0  0  0  0  0  0  0  0  0  0
   -8.1388   21.7814    4.0076 C   0  0  0  0  0  0  0  0  0  0  0  0
   -7.9476   22.0242    2.6329 C   0  0  0  0  0  0  0  0  0  0  0  0
   -6.9846   22.9259    2.1603 C   0  0  0  0  0  0  0  0  0  0  0  0
   -6.2082   23.5921    3.1235 C   0  0  0  0  0  0  0  0  0  0  0  0
   -6.3754   23.3818    4.5043 C   0  0  0  0  0  0  0  0  0  0  0  0
   -5.4891   24.1434    5.4569 C   0  0  0  0  0  0  0  0  0  0  0  0
   -7.3528   22.4692    4.9598 C   0  0  0  0  0  0  0  0  0  0  0  0
   -6.7624   23.2010    0.6624 C   0  0  0  0  0  0  0  0  0  0  0  0
   -8.0680   23.2828   -0.1607 C   0  0  0  0  0  0  0  0  0  0  0  0
   -6.0276   24.5475    0.4849 C   0  0  0  0  0  0  0  0  0  0  0  0
   -5.9079   22.0709    0.0481 C   0  0  0  0  0  0  0  0  0  0  0  0
   -7.5185   22.2055    6.4475 C   0  0  0  0  0  0  0  0  0  0  0  0
   -8.7189   22.9080    7.0437 C   0  0  0  0  0  0  0  0  0  0  0  0
   -9.4073   22.3650    8.0175 N   0  0  0  0  0  0  0  0  0  0  0  0
  -10.4798   23.3612    8.3017 C   0  0  0  0  0  0  0  0  0  0  0  0
  -10.4718   24.3503    7.1327 C   0  0  0  0  0  0  0  0  0  0  0  0
   -9.1466   24.1394    6.6014 N   0  0  0  0  0  0  0  0  0  0  0  0
   -9.0067   24.3274    5.6129 H   0  0  0  0  0  0  0  0  0  0  0  0
  1  2  1  0  0  0
  2  3  2  0  0  0
  3  4  1  0  0  0
  4  9  1  0  0  0
  9 10  1  0  0  0
  9 11  1  0  0  0
  9 12  1  0  0  0
  4  5  2  0  0  0
  5  6  1  0  0  0
  6  7  1  0  0  0
  6  8  2  0  0  0
  8 13  1  0  0  0
 13 14  1  0  0  0
 14 15  2  0  0  0
 15 16  1  0  0  0
 16 17  1  0  0  0
 17 18  1  0  0  0
  8  2  1  0  0  0
 18 14  1  0  0  0
 18 19  1  0  0  0
M  END
> <minimizedAffinity>
-7.22578

$$$$
OCNT-2328446


 16 16  0  0  0  0  0  0  0  0999 V2000
   -1.4458   27.6105    7.7303 C   0  0  0  0  0  0  0  0  0  0  0  0
   -2.5304   26.8097    8.2033 O   0  0  0  0  0  0  0  0  0  0  0  0
   -2.6580   26.1357    7.5054 H   0  0  0  0  0  0  0  0  0  0  0  0
   -1.5179   29.0086    8.3065 C   0  0  0  0  0  0  0  0  0  0  0  0
   -2.7948   29.5503    8.5636 C   0  0  0  0  0  0  0  0  0  0  0  0
   -2.9474   30.8283    9.1058 C   0  0  0  0  0  0  0  0  0  0  0  0
   -1.8266   31.5941    9.4038 C   0  0  0  0  0  0  0  0  0  0  0  0
   -0.5549   31.0800    9.1586 C   0  0  0  0  0  0  0  0  0  0  0  0
   -0.3961   29.7982    8.6147 C   0  0  0  0  0  0  0  0  0  0  0  0
    1.2293   29.2639    8.3651 Cl  0  0  0  0  0  0  0  0  0  0  0  0
   -1.3861   27.5772    6.1817 C   0  0  0  0  0  0  0  0  0  0  0  0
   -0.1069   26.9783    5.7489 N   0  0  0  0  0  0  0  0  0  0  0  0
    0.5417   27.7187    5.4765 H   0  0  0  0  0  0  0  0  0  0  0  0
    0.6983   26.4503    3.5267 C   0  0  0  0  0  0  0  0  0  0  0  0
   -0.2676   26.0317    4.6370 C   0  0  0  0  0  0  0  0  0  0  0  0
   -1.6978   25.9993    4.0954 C   0  0  0  0  0  0  0  0  0  0  0  0
 14 15  1  0  0  0
 15 16  1  0  0  0
 15 12  1  0  0  0
 12 11  1  0  0  0
 11  1  1  0  0  0
  1  2  1  0  0  0
  1  4  1  0  0  0
  4  5  2  0  0  0
  5  6  1  0  0  0
  6  7  2  0  0  0
  7  8  1  0  0  0
  8  9  2  0  0  0
  9 10  1  0  0  0
  9  4  1  0  0  0
 12 13  1  0  0  0
  2  3  1  0  0  0
M  END
> <minimizedAffinity>
-7.10666

$$$$
OCNT-2328447


 24 27  0  0  0  0  0  0  0  0999 V2000
   -5.2825   26.8979    4.6336 C   0  0  0  0  0  0  0  0  0  0  0  0
   -3.9845   26.9381    5.1633 C   0  0  0  0  0  0  0  0  0  0  0  0
   -3.6160   27.9000    6.1109 C   0  0  0  0  0  0  0  0  0  0  0  0
   -4.5372   28.8604    6.5556 C   0  0  0  0  0  0  0  0  0  0  0  0
   -5.8407   28.8168    6.0334 C   0  0  0  0  0  0  0  0  0  0  0  0
   -6.2041   27.8531    5.0866 C   0  0  0  0  0  0  0  0  0  0  0  0
   -6.4017   23.9405    1.7317 C   0  0  0  0  0  0  0  0  0  0  0  0
   -6.5086   23.6597    3.0914 C   0  0  0  0  0  0  0  0  0  0  0  0
   -6.1435   24.6231    4.0357 C   0  0  0  0  0  0  0  0  0  0  0  0
   -5.6666   25.8836    3.6383 C   0  0  0  0  0  0  0  0  0  0  0  0
   -5.5673   26.1460    2.2616 C   0  0  0  0  0  0  0  0  0  0  0  0
   -5.9309   25.1831    1.3159 C   0  0  0  0  0  0  0  0  0  0  0  0
   -4.1846   29.9168    7.6018 C   0  0  0  0  0  0  0  0  0  0  0  0
   -2.7291   29.9117    8.0708 C   0  0  0  0  0  0  0  0  0  0  0  0
   -2.1816   31.0999    8.5914 C   0  0  0  0  0  0  0  0  0  0  0  0
   -0.8525   31.1527    9.0153 C   0  0  0  0  0  0  0  0  0  0  0  0
   -0.0461   30.0221    8.9219 C   0  0  0  0  0  0  0  0  0  0  0  0
   -0.5659   28.8402    8.4008 C   0  0  0  0  0  0  0  0  0  0  0  0
   -1.8950   28.7844    7.9742 C   0  0  0  0  0  0  0  0  0  0  0  0
   -5.1436   29.9340    8.7192 N   0  0  0  0  0  0  0  0  0  0  0  0
   -5.3875   28.9610    9.6536 C   0  0  0  0  0  0  0  0  0  0  0  0
   -6.3826   29.4712   10.4537 C   0  0  0  0  0  0  0  0  0  0  0  0
   -6.7463   30.7248   10.0393 N   0  0  0  0  0  0  0  0  0  0  0  0
   -5.9860   30.9794    8.9988 C   0  0  0  0  0  0  0  0  0  0  0  0
  7  8  2  0  0  0
  8  9  1  0  0  0
  9 10  2  0  0  0
 10  1  1  0  0  0
  1  2  1  0  0  0
  2  3  2  0  0  0
  3  4  1  0  0  0
  4 13  1  0  0  0
 13 14  1  0  0  0
 14 15  2  0  0  0
 15 16  1  0  0  0
 16 17  2  0  0  0
 17 18  1  0  0  0
 18 19  2  0  0  0
 13 20  1  0  0  0
 20 21  1  0  0  0
 21 22  2  0  0  0
 22 23  1  0  0  0
 23 24  2  0  0  0
  4  5  2  0  0  0
  5  6  1  0  0  0
 10 11  1  0  0  0
 11 12  2  0  0  0
 12  7  1  0  0  0
  6  1  2  0  0  0
 19 14  1  0  0  0
 24 20  1  0  0  0
M  END
> <minimizedAffinity>
-9.50533

$$$$
OCNT-2328450


 29 32  0  0  0  0  0  0  0  0999 V2000
   -4.4307   28.4922    6.7969 C   0  0  0  0  0  0  0  0  0  0  0  0
   -4.1683   28.0272    5.5645 C   0  0  0  0  0  0  0  0  0  0  0  0
   -4.7363   26.7705    5.0666 C   0  0  0  0  0  0  0  0  0  0  0  0
   -3.9812   25.8837    4.3566 N   0  0  0  0  0  0  0  0  0  0  0  0
   -2.5331   26.1301    4.1562 C   0  0  0  0  0  0  0  0  0  0  0  0
   -4.5438   24.7422    3.8380 C   0  0  0  0  0  0  0  0  0  0  0  0
   -5.9103   24.4675    4.0728 C   0  0  0  0  0  0  0  0  0  0  0  0
   -6.6737   25.3635    4.8143 C   0  0  0  0  0  0  0  0  0  0  0  0
   -6.0884   26.5170    5.3039 C   0  0  0  0  0  0  0  0  0  0  0  0
   -6.5001   23.2967    3.5534 C   0  0  0  0  0  0  0  0  0  0  0  0
   -5.7894   22.3545    2.7918 C   0  0  0  0  0  0  0  0  0  0  0  0
   -4.4421   22.6584    2.5580 C   0  0  0  0  0  0  0  0  0  0  0  0
   -3.8293   23.8161    3.0657 C   0  0  0  0  0  0  0  0  0  0  0  0
   -6.3945   21.2166    2.2664 N   0  0  0  0  0  0  0  0  0  0  0  0
   -6.0721   20.7709    0.9089 C   0  0  0  0  0  0  0  0  0  0  0  0
   -7.6841   20.7585    2.7880 C   0  0  0  0  0  0  0  0  0  0  0  0
   -1.3291   31.8841    8.8198 C   0  0  0  0  0  0  0  0  0  0  0  0
   -2.5351   31.2442    8.2172 C   0  0  0  0  0  0  0  0  0  0  0  0
   -2.6249   29.9674    7.7017 C   0  0  0  0  0  0  0  0  0  0  0  0
   -3.9689   29.7267    7.3485 C   0  0  0  0  0  0  0  0  0  0  0  0
   -4.6797   30.8936    7.5874 C   0  0  0  0  0  0  0  0  0  0  0  0
   -6.0851   31.2493    7.2211 C   0  0  0  0  0  0  0  0  0  0  0  0
   -3.8030   31.8160    8.1774 N   0  0  0  0  0  0  0  0  0  0  0  0
   -4.1522   33.1116    8.6593 C   0  0  0  0  0  0  0  0  0  0  0  0
   -4.2985   34.1812    7.7682 C   0  0  0  0  0  0  0  0  0  0  0  0
   -4.6400   35.4470    8.2488 C   0  0  0  0  0  0  0  0  0  0  0  0
   -4.8317   35.6496    9.6148 C   0  0  0  0  0  0  0  0  0  0  0  0
   -4.6837   34.5874   10.5054 C   0  0  0  0  0  0  0  0  0  0  0  0
   -4.3457   33.3182   10.0316 C   0  0  0  0  0  0  0  0  0  0  0  0
 17 18  1  0  0  0
 18 19  2  0  0  0
 19 20  1  0  0  0
 20  1  1  0  0  0
  1  2  2  0  0  0
  2  3  1  0  0  0
  3  4  2  0  0  0
  4  5  1  0  0  0
  4  6  1  0  0  0
  6  7  1  0  0  0
  7  8  1  0  0  0
  8  9  2  0  0  0
  7 10  2  0  0  0
 10 11  1  0  0  0
 11 14  1  0  0  0
 14 15  1  0  0  0
 14 16  1  0  0  0
 11 12  2  0  0  0
 12 13  1  0  0  0
 20 21  2  0  0  0
 21 22  1  0  0  0
 21 23  1  0  0  0
 23 24  1  0  0  0
 24 25  2  0  0  0
 25 26  1  0  0  0
 26 27  2  0  0  0
 27 28  1  0  0  0
 28 29  2  0  0  0
 23 18  1  0  0  0
 29 24  1  0  0  0
  9  3  1  0  0  0
 13  6  2  0  0  0
M  CHG 1   4   1
M  END
> <minimizedAffinity>
-6.90137

$$$$
OCNT-2328456


 17 17  0  0  0  0  0  0  0  0999 V2000
   -4.3976   32.3825    8.6477 C   0  0  0  0  0  0  0  0  0  0  0  0
   -3.0589   31.9785    8.7237 C   0  0  0  0  0  0  0  0  0  0  0  0
   -2.7528   30.6126    8.8309 C   0  0  0  0  0  0  0  0  0  0  0  0
   -3.7650   29.6444    8.8553 C   0  0  0  0  0  0  0  0  0  0  0  0
   -5.0993   30.0620    8.7662 C   0  0  0  0  0  0  0  0  0  0  0  0
   -5.4201   31.4224    8.6596 C   0  0  0  0  0  0  0  0  0  0  0  0
   -5.2658   34.2367    7.3126 N   0  0  0  0  0  0  0  0  0  0  0  0
   -4.7823   33.8124    8.5170 C   0  0  0  0  0  0  0  0  0  0  0  0
   -4.6457   34.5892    9.4521 O   0  0  0  0  0  0  0  0  0  0  0  0
   -5.4253   35.2341    7.2267 H   0  0  0  0  0  0  0  0  0  0  0  0
   -5.1734   33.7154    6.4528 H   0  0  0  0  0  0  0  0  0  0  0  0
   -1.3467   30.1952    8.9180 N   0  0  0  0  0  0  0  0  0  0  0  0
   -1.0718   29.0334    8.5939 O   0  0  0  0  0  0  0  0  0  0  0  0
   -0.5268   31.0333    9.3171 O   0  0  0  0  0  0  0  0  0  0  0  0
   -6.1752   29.0617    8.7878 N   0  0  0  0  0  0  0  0  0  0  0  0
   -6.6684   28.7312    7.7014 O   0  0  0  0  0  0  0  0  0  0  0  0
   -6.5168   28.6075    9.8868 O   0  0  0  0  0  0  0  0  0  0  0  0
  7  8  1  0  0  0
  8  9  2  0  0  0
  8  1  1  0  0  0
  1  2  2  0  0  0
  2  3  1  0  0  0
  3 12  1  0  0  0
 12 13  2  0  0  0
 12 14  1  0  0  0
  3  4  2  0  0  0
  4  5  1  0  0  0
  5 15  1  0  0  0
 15 16  2  0  0  0
 15 17  1  0  0  0
  5  6  2  0  0  0
  6  1  1  0  0  0
  7 10  1  0  0  0
  7 11  1  0  0  0
M  CHG 1  12   1
M  CHG 1  14  -1
M  CHG 1  15   1
M  CHG 1  17  -1
M  END
> <minimizedAffinity>
-6.38452

$$$$
OCNT-2328469


 28 30  0  0  0  0  0  0  0  0999 V2000
   -4.2061   26.4156    5.0462 C   0  0  0  0  0  0  0  0  0  0  0  0
   -4.6370   27.5529    5.6697 C   0  0  0  0  0  0  0  0  0  0  0  0
   -6.0507   27.7699    5.9885 C   0  0  0  0  0  0  0  0  0  0  0  0
   -6.4922   28.8778    6.6007 C   0  0  0  0  0  0  0  0  0  0  0  0
   -5.5538   29.9780    6.9994 C   0  0  0  0  0  0  0  0  0  0  0  0
   -5.9636   31.0625    7.5950 N   0  0  0  0  0  0  0  0  0  0  0  0
   -7.3833   31.2541    8.0285 C   0  0  0  0  0  0  0  0  0  0  0  0
   -5.0485   32.2085    7.8960 C   0  0  0  0  0  0  0  0  0  0  0  0
   -4.1110   29.7433    6.6652 C   0  0  0  0  0  0  0  0  0  0  0  0
   -3.7091   28.6202    6.0540 C   0  0  0  0  0  0  0  0  0  0  0  0
   -7.0175   23.2905    3.9396 C   0  0  0  0  0  0  0  0  0  0  0  0
   -6.7129   24.3609    3.0794 C   0  0  0  0  0  0  0  0  0  0  0  0
   -5.8067   25.3727    3.4297 C   0  0  0  0  0  0  0  0  0  0  0  0
   -5.1645   25.3452    4.6665 C   0  0  0  0  0  0  0  0  0  0  0  0
   -5.4314   24.2889    5.5363 C   0  0  0  0  0  0  0  0  0  0  0  0
   -6.3402   23.2842    5.1723 C   0  0  0  0  0  0  0  0  0  0  0  0
   -9.0428   21.9562    4.4350 C   0  0  0  0  0  0  0  0  0  0  0  0
   -7.9050   22.2775    3.5770 N   0  0  0  0  0  0  0  0  0  0  0  0
   -7.4863   21.2365    2.6416 C   0  0  0  0  0  0  0  0  0  0  0  0
   -2.7664   26.2219    4.7318 C   0  0  0  0  0  0  0  0  0  0  0  0
   -2.3575   25.9165    3.4347 C   0  0  0  0  0  0  0  0  0  0  0  0
   -0.9956   25.7570    3.1406 C   0  0  0  0  0  0  0  0  0  0  0  0
    0.0070   25.8795    4.1203 C   0  0  0  0  0  0  0  0  0  0  0  0
   -0.4393   26.1938    5.4169 C   0  0  0  0  0  0  0  0  0  0  0  0
   -1.7981   26.3551    5.7256 C   0  0  0  0  0  0  0  0  0  0  0  0
    1.3667   25.7431    3.8114 N   0  0  0  0  0  0  0  0  0  0  0  0
    1.9950   24.4280    3.9461 C   0  0  0  0  0  0  0  0  0  0  0  0
    1.9370   26.5969    2.7673 C   0  0  0  0  0  0  0  0  0  0  0  0
 17 18  1  0  0  0
 18 19  1  0  0  0
 18 11  1  0  0  0
 11 12  1  0  0  0
 12 13  2  0  0  0
 13 14  1  0  0  0
 14  1  1  0  0  0
  1 20  1  0  0  0
 20 21  1  0  0  0
 21 22  2  0  0  0
 22 23  1  0  0  0
 23 26  1  0  0  0
 26 27  1  0  0  0
 26 28  1  0  0  0
 23 24  2  0  0  0
 24 25  1  0  0  0
  1  2  2  0  0  0
  2  3  1  0  0  0
  3  4  2  0  0  0
  4  5  1  0  0  0
  5  6  2  0  0  0
  6  7  1  0  0  0
  6  8  1  0  0  0
  5  9  1  0  0  0
  9 10  2  0  0  0
 14 15  2  0  0  0
 15 16  1  0  0  0
 16 11  2  0  0  0
 25 20  2  0  0  0
 10  2  1  0  0  0
M  CHG 1   6   1
M  END
> <minimizedAffinity>
-7.31033

$$$$
OCNT-2328472


 40 42  0  0  0  0  0  0  0  0999 V2000
   -5.4339   24.3364    3.1797 C   0  0  0  0  0  0  0  0  0  0  0  0
   -4.2990   24.0491    2.8091 O   0  0  0  0  0  0  0  0  0  0  0  0
   -6.8029   22.5495    2.0657 C   0  0  0  0  0  0  0  0  0  0  0  0
   -6.5255   23.3758    3.1453 C   0  0  0  0  0  0  0  0  0  0  0  0
   -7.5002   23.0502    4.1469 C   0  0  0  0  0  0  0  0  0  0  0  0
   -8.3153   22.0787    3.5792 C   0  0  0  0  0  0  0  0  0  0  0  0
   -9.4120   21.5031    4.2141 C   0  0  0  0  0  0  0  0  0  0  0  0
   -9.6905   21.9494    5.5096 C   0  0  0  0  0  0  0  0  0  0  0  0
   -8.8915   22.9119    6.1287 C   0  0  0  0  0  0  0  0  0  0  0  0
   -7.7829   23.4620    5.4682 C   0  0  0  0  0  0  0  0  0  0  0  0
   -7.8915   21.7738    2.3271 O   0  0  0  0  0  0  0  0  0  0  0  0
   -9.1988   23.3783    7.4384 N   0  0  0  0  0  0  0  0  0  0  0  0
   -9.8644   24.1463    7.5243 H   0  0  0  0  0  0  0  0  0  0  0  0
   -9.3244   22.2717    8.7057 S   0  0  0  0  0  0  0  0  0  0  0  0
   -9.4634   23.3375   10.1287 C   0  0  0  0  0  0  0  0  0  0  0  0
   -8.0359   21.6174    8.7828 O   0  0  0  0  0  0  0  0  0  0  0  0
  -10.5465   21.5106    8.5709 O   0  0  0  0  0  0  0  0  0  0  0  0
   -6.1831   22.3545    0.7280 C   0  0  0  0  0  0  0  0  0  0  0  0
   -7.0473   22.8361   -0.4415 C   0  0  0  0  0  0  0  0  0  0  0  0
   -6.8182   25.3786   -0.7021 C   0  0  0  0  0  0  0  0  0  0  0  0
   -7.6908   24.2154   -0.2558 C   0  0  0  0  0  0  0  0  0  0  0  0
   -5.6958   25.7186    3.6641 C   0  0  0  0  0  0  0  0  0  0  0  0
   -5.9730   25.9912    5.0080 C   0  0  0  0  0  0  0  0  0  0  0  0
   -6.2118   27.3061    5.4144 C   0  0  0  0  0  0  0  0  0  0  0  0
   -6.2113   28.3536    4.4891 C   0  0  0  0  0  0  0  0  0  0  0  0
   -5.9552   28.0787    3.1465 C   0  0  0  0  0  0  0  0  0  0  0  0
   -5.7040   26.7647    2.7343 C   0  0  0  0  0  0  0  0  0  0  0  0
   -6.4617   29.5837    5.0258 O   0  0  0  0  0  0  0  0  0  0  0  0
   -5.8546   29.9227    6.2777 C   0  0  0  0  0  0  0  0  0  0  0  0
   -4.4130   30.3846    6.0666 C   0  0  0  0  0  0  0  0  0  0  0  0
   -3.4168   29.6727    6.9857 C   0  0  0  0  0  0  0  0  0  0  0  0
   -2.3047   30.5176    7.4455 N   0  0  0  0  0  0  0  0  0  0  0  0
   -2.6358   31.9530    7.3636 C   0  0  0  0  0  0  0  0  0  0  0  0
   -2.9832   32.6504    8.6897 C   0  0  0  0  0  0  0  0  0  0  0  0
   -4.4751   32.9852    8.7561 C   0  0  0  0  0  0  0  0  0  0  0  0
   -4.7057   34.4425    9.1212 C   0  0  0  0  0  0  0  0  0  0  0  0
   -1.8047   30.1406    8.7765 C   0  0  0  0  0  0  0  0  0  0  0  0
   -0.2753   30.2347    8.8904 C   0  0  0  0  0  0  0  0  0  0  0  0
    0.4923   29.1464    8.1318 C   0  0  0  0  0  0  0  0  0  0  0  0
    0.5956   29.3833    6.6327 C   0  0  0  0  0  0  0  0  0  0  0  0
 20 21  1  0  0  0
 21 19  1  0  0  0
 19 18  1  0  0  0
 18  3  1  0  0  0
  3  4  2  0  0  0
  4  1  1  0  0  0
  1  2  2  0  0  0
  1 22  1  0  0  0
 22 23  1  0  0  0
 23 24  2  0  0  0
 24 25  1  0  0  0
 25 28  1  0  0  0
 28 29  1  0  0  0
 29 30  1  0  0  0
 30 31  1  0  0  0
 31 32  1  0  0  0
 32 33  1  0  0  0
 33 34  1  0  0  0
 34 35  1  0  0  0
 35 36  1  0  0  0
 32 37  1  0  0  0
 37 38  1  0  0  0
 38 39  1  0  0  0
 39 40  1  0  0  0
 25 26  2  0  0  0
 26 27  1  0  0  0
  4  5  1  0  0  0
  5  6  1  0  0  0
  6  7  2  0  0  0
  7  8  1  0  0  0
  8  9  2  0  0  0
  9 12  1  0  0  0
 12 14  1  0  0  0
 14 15  1  0  0  0
 14 16  2  0  0  0
 14 17  2  0  0  0
  9 10  1  0  0  0
  6 11  1  0  0  0
 11  3  1  0  0  0
 27 22  2  0  0  0
 10  5  2  0  0  0
 12 13  1  0  0  0
M  END
> <minimizedAffinity>
-9.88563

$$$$
OCNT-2328475


 22 23  0  0  0  0  0  0  0  0999 V2000
   -3.7922   30.4916    8.5129 C   0  0  0  0  0  0  0  0  0  0  0  0
   -4.4556   30.2007    9.7579 O   0  0  0  0  0  0  0  0  0  0  0  0
   -5.7897   29.7910    9.4233 C   0  0  0  0  0  0  0  0  0  0  0  0
   -5.6740   29.0584    8.0914 C   0  0  0  0  0  0  0  0  0  0  0  0
   -6.9236   28.9946    7.4074 O   0  0  0  0  0  0  0  0  0  0  0  0
   -4.6348   29.8945    7.3573 C   0  0  0  0  0  0  0  0  0  0  0  0
   -5.3328   30.9338    6.6311 O   0  0  0  0  0  0  0  0  0  0  0  0
   -6.9492   29.8012    6.8492 H   0  0  0  0  0  0  0  0  0  0  0  0
   -4.6810   31.3462    6.0343 H   0  0  0  0  0  0  0  0  0  0  0  0
    1.5442   29.0986    8.7571 N   0  0  0  0  0  0  0  0  0  0  0  0
    0.2199   29.4303    8.6836 C   0  0  0  0  0  0  0  0  0  0  0  0
   -0.1263   30.5822    9.1627 N   0  0  0  0  0  0  0  0  0  0  0  0
   -1.4396   30.9837    9.1098 C   0  0  0  0  0  0  0  0  0  0  0  0
   -1.7591   32.0994    9.5111 O   0  0  0  0  0  0  0  0  0  0  0  0
   -2.3927   30.0892    8.6164 N   0  0  0  0  0  0  0  0  0  0  0  0
   -2.0099   28.8790    8.0739 C   0  0  0  0  0  0  0  0  0  0  0  0
   -0.7363   28.4912    8.0710 C   0  0  0  0  0  0  0  0  0  0  0  0
    1.9226   28.5610    7.9871 H   0  0  0  0  0  0  0  0  0  0  0  0
    2.1192   29.9040    8.9898 H   0  0  0  0  0  0  0  0  0  0  0  0
   -6.4032   28.9172   10.5145 C   0  0  0  0  0  0  0  0  0  0  0  0
   -5.5882   27.7840   10.8000 O   0  0  0  0  0  0  0  0  0  0  0  0
   -4.6619   28.0949   10.8615 H   0  0  0  0  0  0  0  0  0  0  0  0
 10 11  1  0  0  0
 11 12  2  0  0  0
 12 13  1  0  0  0
 13 14  2  0  0  0
 13 15  1  0  0  0
 15  1  1  0  0  0
  1  2  1  0  0  0
  2  3  1  0  0  0
  3 20  1  0  0  0
 20 21  1  0  0  0
  3  4  1  0  0  0
  4  5  1  0  0  0
  4  6  1  0  0  0
  6  7  1  0  0  0
 15 16  1  0  0  0
 16 17  2  0  0  0
 17 11  1  0  0  0
  6  1  1  0  0  0
 10 18  1  0  0  0
 10 19  1  0  0  0
 21 22  1  0  0  0
  5  8  1  0  0  0
  7  9  1  0  0  0
M  END
> <minimizedAffinity>
-7.70040

$$$$
OCNT-2328485


 21 23  0  0  0  0  0  0  0  0999 V2000
   -4.6397   25.3136    2.9690 N   0  0  0  0  0  0  0  0  0  0  0  0
   -4.9554   23.9791    2.6415 C   0  0  0  0  0  0  0  0  0  0  0  0
   -5.5930   23.7112    1.4158 C   0  0  0  0  0  0  0  0  0  0  0  0
   -5.9527   22.4134    1.0403 C   0  0  0  0  0  0  0  0  0  0  0  0
   -5.6880   21.3473    1.8916 C   0  0  0  0  0  0  0  0  0  0  0  0
   -5.0703   21.5842    3.1150 C   0  0  0  0  0  0  0  0  0  0  0  0
   -4.7122   22.8863    3.4855 C   0  0  0  0  0  0  0  0  0  0  0  0
   -5.6766   26.2664    2.5152 C   0  0  0  0  0  0  0  0  0  0  0  0
   -6.5135   29.3019    5.4771 C   0  0  0  0  0  0  0  0  0  0  0  0
   -6.5161   27.9568    5.8402 C   0  0  0  0  0  0  0  0  0  0  0  0
   -6.2410   26.9759    4.8865 C   0  0  0  0  0  0  0  0  0  0  0  0
   -5.9503   27.3298    3.5598 C   0  0  0  0  0  0  0  0  0  0  0  0
   -5.9608   28.6870    3.2056 C   0  0  0  0  0  0  0  0  0  0  0  0
   -6.2375   29.6671    4.1608 C   0  0  0  0  0  0  0  0  0  0  0  0
   -3.2514   25.7902    2.7183 C   0  0  0  0  0  0  0  0  0  0  0  0
   -2.4775   25.9193    4.0251 C   0  0  0  0  0  0  0  0  0  0  0  0
   -3.0793   26.0751    5.1801 N   0  0  0  0  0  0  0  0  0  0  0  0
   -1.9470   26.2117    6.1443 C   0  0  0  0  0  0  0  0  0  0  0  0
   -0.6897   26.4621    5.3032 C   0  0  0  0  0  0  0  0  0  0  0  0
   -1.0985   25.9113    4.0360 N   0  0  0  0  0  0  0  0  0  0  0  0
   -0.7067   26.3198    3.1893 H   0  0  0  0  0  0  0  0  0  0  0  0
  9 10  2  0  0  0
 10 11  1  0  0  0
 11 12  2  0  0  0
 12  8  1  0  0  0
  8  1  1  0  0  0
  1 15  1  0  0  0
 15 16  1  0  0  0
 16 17  2  0  0  0
 17 18  1  0  0  0
 18 19  1  0  0  0
 19 20  1  0  0  0
  1  2  1  0  0  0
  2  3  2  0  0  0
  3  4  1  0  0  0
  4  5  2  0  0  0
  5  6  1  0  0  0
  6  7  2  0  0  0
 12 13  1  0  0  0
 13 14  2  0  0  0
 14  9  1  0  0  0
 20 16  1  0  0  0
  7  2  1  0  0  0
 20 21  1  0  0  0
M  END
> <minimizedAffinity>
-8.26597

$$$$
OCNT-2328488


 23 25  0  0  0  0  0  0  0  0999 V2000
   -5.0469   29.1648    6.6256 C   0  0  0  0  0  0  0  0  0  0  0  0
   -4.6825   34.5454    9.3817 Cl  0  0  0  0  0  0  0  0  0  0  0  0
   -4.7950   33.0072    8.6208 C   0  0  0  0  0  0  0  0  0  0  0  0
   -4.2131   32.8102    7.3736 C   0  0  0  0  0  0  0  0  0  0  0  0
   -4.3046   31.5615    6.7550 C   0  0  0  0  0  0  0  0  0  0  0  0
   -4.9808   30.4901    7.3745 C   0  0  0  0  0  0  0  0  0  0  0  0
   -5.5555   30.7140    8.6405 C   0  0  0  0  0  0  0  0  0  0  0  0
   -6.3969   29.4842    9.5143 Cl  0  0  0  0  0  0  0  0  0  0  0  0
   -5.4634   31.9668    9.2568 C   0  0  0  0  0  0  0  0  0  0  0  0
   -5.7609   29.3134    5.2705 C   0  0  0  0  0  0  0  0  0  0  0  0
   -5.8271   28.0413    4.5678 N   0  0  0  0  0  0  0  0  0  0  0  0
   -5.5991   27.8381    3.2361 C   0  0  0  0  0  0  0  0  0  0  0  0
   -5.7555   26.4842    3.0541 C   0  0  0  0  0  0  0  0  0  0  0  0
   -6.0730   25.8682    4.2379 N   0  0  0  0  0  0  0  0  0  0  0  0
   -6.1236   26.8326    5.1286 C   0  0  0  0  0  0  0  0  0  0  0  0
   -3.7295   28.6474    6.4094 O   0  0  0  0  0  0  0  0  0  0  0  0
   -3.1443   28.0796    7.5796 C   0  0  0  0  0  0  0  0  0  0  0  0
   -1.7985   28.6815    7.8199 C   0  0  0  0  0  0  0  0  0  0  0  0
   -0.6150   28.2618    7.2525 C   0  0  0  0  0  0  0  0  0  0  0  0
   -0.3918   26.9683    6.1370 Cl  0  0  0  0  0  0  0  0  0  0  0  0
    0.7392   29.1558    7.7392 S   0  0  0  0  0  0  0  0  0  0  0  0
   -0.2204   30.1437    8.7540 C   0  0  0  0  0  0  0  0  0  0  0  0
   -1.5510   29.7856    8.7076 C   0  0  0  0  0  0  0  0  0  0  0  0
  2  3  1  0  0  0
  3  4  1  0  0  0
  4  5  2  0  0  0
  5  6  1  0  0  0
  6  1  1  0  0  0
  1 10  1  0  0  0
 10 11  1  0  0  0
 11 12  1  0  0  0
 12 13  2  0  0  0
 13 14  1  0  0  0
 14 15  2  0  0  0
  1 16  1  0  0  0
 16 17  1  0  0  0
 17 18  1  0  0  0
 18 19  2  0  0  0
 19 20  1  0  0  0
 19 21  1  0  0  0
 21 22  1  0  0  0
 22 23  2  0  0  0
  6  7  2  0  0  0
  7  8  1  0  0  0
  7  9  1  0  0  0
  9  3  2  0  0  0
 15 11  1  0  0  0
 23 18  1  0  0  0
M  END
> <minimizedAffinity>
-7.41912

$$$$
OCNT-2328499


 23 25  0  0  0  0  0  0  0  0999 V2000
   -4.2312   29.6629    8.9279 C   0  0  0  0  0  0  0  0  0  0  0  0
   -4.6814   29.0326    7.6990 O   0  0  0  0  0  0  0  0  0  0  0  0
   -5.6333   29.9203    7.0751 C   0  0  0  0  0  0  0  0  0  0  0  0
   -5.3259   31.3109    7.6221 C   0  0  0  0  0  0  0  0  0  0  0  0
   -6.4316   32.2067    7.5429 O   0  0  0  0  0  0  0  0  0  0  0  0
   -4.9942   30.9849    9.0685 C   0  0  0  0  0  0  0  0  0  0  0  0
   -6.2208   30.8018    9.8004 O   0  0  0  0  0  0  0  0  0  0  0  0
   -6.4542   32.5442    6.6282 H   0  0  0  0  0  0  0  0  0  0  0  0
   -6.8088   31.5201    9.4867 H   0  0  0  0  0  0  0  0  0  0  0  0
    1.6516   29.2380    7.9986 O   0  0  0  0  0  0  0  0  0  0  0  0
    0.4826   28.8813    7.8941 C   0  0  0  0  0  0  0  0  0  0  0  0
    0.1273   27.7340    7.1980 N   0  0  0  0  0  0  0  0  0  0  0  0
   -1.1758   27.2886    7.0652 C   0  0  0  0  0  0  0  0  0  0  0  0
   -2.2245   27.8739    7.5611 N   0  0  0  0  0  0  0  0  0  0  0  0
   -1.9127   29.0048    8.2390 C   0  0  0  0  0  0  0  0  0  0  0  0
   -0.6693   29.5582    8.4545 C   0  0  0  0  0  0  0  0  0  0  0  0
   -0.7541   30.7027    9.2033 N   0  0  0  0  0  0  0  0  0  0  0  0
   -2.0454   30.8509    9.4302 C   0  0  0  0  0  0  0  0  0  0  0  0
   -2.7899   29.8428    8.8704 N   0  0  0  0  0  0  0  0  0  0  0  0
    0.8930   27.2238    6.7853 H   0  0  0  0  0  0  0  0  0  0  0  0
   -5.5431   29.8088    5.5541 C   0  0  0  0  0  0  0  0  0  0  0  0
   -4.7353   30.8521    5.0143 O   0  0  0  0  0  0  0  0  0  0  0  0
   -4.5208   30.6035    4.0972 H   0  0  0  0  0  0  0  0  0  0  0  0
 10 11  2  0  0  0
 11 12  1  0  0  0
 12 13  1  0  0  0
 13 14  2  0  0  0
 14 15  1  0  0  0
 15 16  2  0  0  0
 16 17  1  0  0  0
 17 18  2  0  0  0
 18 19  1  0  0  0
 19  1  1  0  0  0
  1  2  1  0  0  0
  2  3  1  0  0  0
  3 21  1  0  0  0
 21 22  1  0  0  0
  3  4  1  0  0  0
  4  5  1  0  0  0
  4  6  1  0  0  0
  6  7  1  0  0  0
 16 11  1  0  0  0
  6  1  1  0  0  0
 19 15  1  0  0  0
 12 20  1  0  0  0
 22 23  1  0  0  0
  5  8  1  0  0  0
  7  9  1  0  0  0
M  END
> <minimizedAffinity>
-7.99689

$$$$
OCNT-2328509


 21 24  0  0  0  0  0  0  0  0999 V2000
   -3.9029   28.5328    5.6803 N   0  0  0  0  0  0  0  0  0  0  0  0
   -4.4459   28.7828    6.8911 C   0  0  0  0  0  0  0  0  0  0  0  0
   -5.7320   28.6354    7.0924 N   0  0  0  0  0  0  0  0  0  0  0  0
   -5.8840   29.0364    8.5231 C   0  0  0  0  0  0  0  0  0  0  0  0
   -4.6135   29.8377    8.8953 C   0  0  0  0  0  0  0  0  0  0  0  0
   -4.6557   31.3486    8.7359 C   0  0  0  0  0  0  0  0  0  0  0  0
   -3.5158   32.0752    9.1412 C   0  0  0  0  0  0  0  0  0  0  0  0
   -3.4829   33.4697    8.9831 C   0  0  0  0  0  0  0  0  0  0  0  0
   -4.5624   34.1430    8.4158 C   0  0  0  0  0  0  0  0  0  0  0  0
   -5.6792   33.4296    7.9943 C   0  0  0  0  0  0  0  0  0  0  0  0
   -5.7238   32.0423    8.1455 C   0  0  0  0  0  0  0  0  0  0  0  0
   -2.3422   31.3530    9.7635 C   0  0  0  0  0  0  0  0  0  0  0  0
   -1.6400   30.3163    8.8999 C   0  0  0  0  0  0  0  0  0  0  0  0
   -2.2960   29.3633    8.0767 C   0  0  0  0  0  0  0  0  0  0  0  0
   -1.4766   28.4199    7.4164 C   0  0  0  0  0  0  0  0  0  0  0  0
   -0.0839   28.4172    7.5245 C   0  0  0  0  0  0  0  0  0  0  0  0
    0.5435   29.3607    8.3175 C   0  0  0  0  0  0  0  0  0  0  0  0
   -0.2271   30.2922    9.0055 C   0  0  0  0  0  0  0  0  0  0  0  0
   -3.6875   29.3030    7.9062 N   0  0  0  0  0  0  0  0  0  0  0  0
   -4.6289   28.4128    4.9827 H   0  0  0  0  0  0  0  0  0  0  0  0
   -3.2313   29.2402    5.4055 H   0  0  0  0  0  0  0  0  0  0  0  0
  1  2  1  0  0  0
  2  3  2  0  0  0
  3  4  1  0  0  0
  4  5  1  0  0  0
  5  6  1  0  0  0
  6  7  1  0  0  0
  7  8  2  0  0  0
  8  9  1  0  0  0
  9 10  2  0  0  0
 10 11  1  0  0  0
  7 12  1  0  0  0
 12 13  1  0  0  0
 13 14  1  0  0  0
 14 15  2  0  0  0
 15 16  1  0  0  0
 16 17  2  0  0  0
 17 18  1  0  0  0
 14 19  1  0  0  0
 19  2  1  0  0  0
 19  5  1  0  0  0
 11  6  2  0  0  0
 18 13  2  0  0  0
  1 20  1  0  0  0
  1 21  1  0  0  0
M  END
> <minimizedAffinity>
-9.76446

$$$$
OCNT-2328518


 25 26  0  0  0  0  0  0  0  0999 V2000
   -6.6542   23.7578    4.4483 C   0  0  0  0  0  0  0  0  0  0  0  0
   -7.6394   23.7575   -0.4955 C   0  0  0  0  0  0  0  0  0  0  0  0
   -7.0214   23.0814    0.6925 C   0  0  0  0  0  0  0  0  0  0  0  0
   -7.1087   23.6644    1.9646 C   0  0  0  0  0  0  0  0  0  0  0  0
   -6.5078   23.0694    3.0927 C   0  0  0  0  0  0  0  0  0  0  0  0
   -5.8130   21.8684    2.9057 C   0  0  0  0  0  0  0  0  0  0  0  0
   -5.2193   21.2549    3.9719 O   0  0  0  0  0  0  0  0  0  0  0  0
   -5.7060   21.2848    1.6420 C   0  0  0  0  0  0  0  0  0  0  0  0
   -6.3033   21.8936    0.5385 C   0  0  0  0  0  0  0  0  0  0  0  0
   -4.9248   20.3717    3.6976 H   0  0  0  0  0  0  0  0  0  0  0  0
   -7.7342   23.1050    5.3150 C   0  0  0  0  0  0  0  0  0  0  0  0
   -9.0677   22.9797    4.8981 C   0  0  0  0  0  0  0  0  0  0  0  0
  -10.0228   22.3779    5.7216 C   0  0  0  0  0  0  0  0  0  0  0  0
   -9.6613   21.8973    6.9775 C   0  0  0  0  0  0  0  0  0  0  0  0
   -8.3456   22.0230    7.4143 C   0  0  0  0  0  0  0  0  0  0  0  0
   -7.3908   22.6244    6.5916 C   0  0  0  0  0  0  0  0  0  0  0  0
   -5.3039   23.9991    5.1756 C   0  0  0  0  0  0  0  0  0  0  0  0
   -4.8549   25.4722    5.0877 C   0  0  0  0  0  0  0  0  0  0  0  0
   -3.7196   25.7672    4.1964 N   0  0  0  0  0  0  0  0  0  0  0  0
   -2.5312   26.3881    4.8280 C   0  0  0  0  0  0  0  0  0  0  0  0
   -1.2823   25.8234    4.1293 C   0  0  0  0  0  0  0  0  0  0  0  0
   -2.3133   26.2098    6.3415 C   0  0  0  0  0  0  0  0  0  0  0  0
   -4.0915   26.3263    2.8708 C   0  0  0  0  0  0  0  0  0  0  0  0
   -5.5179   26.9122    2.8571 C   0  0  0  0  0  0  0  0  0  0  0  0
   -4.0385   25.3027    1.7206 C   0  0  0  0  0  0  0  0  0  0  0  0
  2  3  1  0  0  0
  3  4  2  0  0  0
  4  5  1  0  0  0
  5  1  1  0  0  0
  1 17  1  0  0  0
 17 18  1  0  0  0
 18 19  1  0  0  0
 19 20  1  0  0  0
 20 21  1  0  0  0
 20 22  1  0  0  0
 19 23  1  0  0  0
 23 24  1  0  0  0
 23 25  1  0  0  0
  1 11  1  0  0  0
 11 12  2  0  0  0
 12 13  1  0  0  0
 13 14  2  0  0  0
 14 15  1  0  0  0
 15 16  2  0  0  0
  5  6  2  0  0  0
  6  7  1  0  0  0
  6  8  1  0  0  0
  8  9  2  0  0  0
  9  3  1  0  0  0
 16 11  1  0  0  0
  7 10  1  0  0  0
M  END
> <minimizedAffinity>
-8.61276

$$$$
OCNT-2328527


 21 22  0  0  0  0  0  0  0  0999 V2000
   -5.8849   29.4995    8.6581 C   0  0  0  0  0  0  0  0  0  0  0  0
   -5.9721   30.7688    7.7850 C   0  0  0  0  0  0  0  0  0  0  0  0
   -7.4300   30.9674    7.3285 C   0  0  0  0  0  0  0  0  0  0  0  0
   -5.7211   31.8867    8.7000 N   0  0  0  0  0  0  0  0  0  0  0  0
   -4.5790   32.4678    8.6374 C   0  0  0  0  0  0  0  0  0  0  0  0
   -4.3228   33.4819    9.4986 N   0  0  0  0  0  0  0  0  0  0  0  0
   -3.5766   32.1363    7.7895 N   0  0  0  0  0  0  0  0  0  0  0  0
   -3.8449   31.3091    6.8331 C   0  0  0  0  0  0  0  0  0  0  0  0
   -2.8540   31.0577    5.9320 N   0  0  0  0  0  0  0  0  0  0  0  0
   -5.0542   30.6935    6.6297 N   0  0  0  0  0  0  0  0  0  0  0  0
   -4.9064   33.4365   10.3225 H   0  0  0  0  0  0  0  0  0  0  0  0
   -3.3347   33.5782    9.6880 H   0  0  0  0  0  0  0  0  0  0  0  0
   -3.1851   30.9916    4.9774 H   0  0  0  0  0  0  0  0  0  0  0  0
   -2.1009   31.7297    6.0255 H   0  0  0  0  0  0  0  0  0  0  0  0
   -5.2238   29.6109    5.7369 C   0  0  0  0  0  0  0  0  0  0  0  0
   -5.9268   29.7910    4.5359 C   0  0  0  0  0  0  0  0  0  0  0  0
   -6.0903   28.7364    3.6327 C   0  0  0  0  0  0  0  0  0  0  0  0
   -5.5401   27.4899    3.9185 C   0  0  0  0  0  0  0  0  0  0  0  0
   -5.7387   26.1920    2.8076 Cl  0  0  0  0  0  0  0  0  0  0  0  0
   -4.8229   27.2915    5.0947 C   0  0  0  0  0  0  0  0  0  0  0  0
   -4.6622   28.3489    5.9944 C   0  0  0  0  0  0  0  0  0  0  0  0
  1  2  1  0  0  0
  2  3  1  0  0  0
  2  4  1  0  0  0
  4  5  2  0  0  0
  5  6  1  0  0  0
  5  7  1  0  0  0
  7  8  2  0  0  0
  8  9  1  0  0  0
  8 10  1  0  0  0
 10 15  1  0  0  0
 15 16  1  0  0  0
 16 17  2  0  0  0
 17 18  1  0  0  0
 18 19  1  0  0  0
 18 20  2  0  0  0
 20 21  1  0  0  0
 10  2  1  0  0  0
 21 15  2  0  0  0
  6 11  1  0  0  0
  6 12  1  0  0  0
  9 13  1  0  0  0
  9 14  1  0  0  0
M  END
> <minimizedAffinity>
-7.33424

$$$$
OCNT-2328533


 21 23  0  0  0  0  0  0  0  0999 V2000
   -4.5100   29.1665    6.8057 C   0  0  0  0  0  0  0  0  0  0  0  0
   -5.4035   29.5978    7.7273 C   0  0  0  0  0  0  0  0  0  0  0  0
    1.1348   29.2455    8.1213 C   0  0  0  0  0  0  0  0  0  0  0  0
   -0.3202   29.2158    7.7577 C   0  0  0  0  0  0  0  0  0  0  0  0
   -1.1235   28.1332    8.1359 C   0  0  0  0  0  0  0  0  0  0  0  0
   -2.4862   28.1203    7.8276 C   0  0  0  0  0  0  0  0  0  0  0  0
   -3.0671   29.1963    7.1464 C   0  0  0  0  0  0  0  0  0  0  0  0
   -2.2669   30.2853    6.7790 C   0  0  0  0  0  0  0  0  0  0  0  0
   -0.9050   30.2975    7.0889 C   0  0  0  0  0  0  0  0  0  0  0  0
   -5.0217   28.6797    5.4857 C   0  0  0  0  0  0  0  0  0  0  0  0
   -4.7399   27.3960    5.1393 N   0  0  0  0  0  0  0  0  0  0  0  0
   -5.1866   26.9535    3.9436 C   0  0  0  0  0  0  0  0  0  0  0  0
   -5.9084   27.7289    3.0543 C   0  0  0  0  0  0  0  0  0  0  0  0
   -6.1910   29.0394    3.4128 C   0  0  0  0  0  0  0  0  0  0  0  0
   -5.7431   29.5234    4.6409 C   0  0  0  0  0  0  0  0  0  0  0  0
   -5.1487   30.0767    9.1298 C   0  0  0  0  0  0  0  0  0  0  0  0
   -5.1154   31.5388    9.2108 N   0  0  0  0  0  0  0  0  0  0  0  0
   -5.6195   32.1595    7.9848 C   0  0  0  0  0  0  0  0  0  0  0  0
   -5.1794   33.6072    8.1299 C   0  0  0  0  0  0  0  0  0  0  0  0
   -3.9417   33.5568    9.0182 C   0  0  0  0  0  0  0  0  0  0  0  0
   -3.7686   32.0882    9.3807 C   0  0  0  0  0  0  0  0  0  0  0  0
  3  4  1  0  0  0
  4  5  1  0  0  0
  5  6  2  0  0  0
  6  7  1  0  0  0
  7  1  1  0  0  0
  1  2  2  0  0  0
  2 16  1  0  0  0
 16 17  1  0  0  0
 17 18  1  0  0  0
 18 19  1  0  0  0
 19 20  1  0  0  0
 20 21  1  0  0  0
  1 10  1  0  0  0
 10 11  1  0  0  0
 11 12  2  0  0  0
 12 13  1  0  0  0
 13 14  2  0  0  0
 14 15  1  0  0  0
  7  8  2  0  0  0
  8  9  1  0  0  0
  9  4  2  0  0  0
 21 17  1  0  0  0
 15 10  2  0  0  0
M  END
> <minimizedAffinity>
-8.40659

$$$$
OCNT-2328534


 20 22  0  0  0  0  0  0  0  0999 V2000
   -5.4435   27.4270    4.0046 C   0  0  0  0  0  0  0  0  0  0  0  0
   -5.7859   26.0420    3.6906 N   0  0  0  0  0  0  0  0  0  0  0  0
   -5.7961   25.8299    2.2322 C   0  0  0  0  0  0  0  0  0  0  0  0
   -6.0049   24.3874    1.8059 C   0  0  0  0  0  0  0  0  0  0  0  0
   -6.4226   24.0763    0.4925 C   0  0  0  0  0  0  0  0  0  0  0  0
   -6.5934   25.0659   -0.4942 N   0  0  0  0  0  0  0  0  0  0  0  0
   -6.4563   22.7338    0.0867 C   0  0  0  0  0  0  0  0  0  0  0  0
   -6.1785   21.7015    0.9791 C   0  0  0  0  0  0  0  0  0  0  0  0
   -5.8109   22.0002    2.2845 C   0  0  0  0  0  0  0  0  0  0  0  0
   -5.7019   23.3358    2.7052 C   0  0  0  0  0  0  0  0  0  0  0  0
   -5.2451   23.6290    4.1295 C   0  0  0  0  0  0  0  0  0  0  0  0
   -4.8383   25.1118    4.3238 C   0  0  0  0  0  0  0  0  0  0  0  0
   -6.9520   25.9457   -0.1410 H   0  0  0  0  0  0  0  0  0  0  0  0
   -7.1391   24.7437   -1.2883 H   0  0  0  0  0  0  0  0  0  0  0  0
   -6.2463   23.1675    5.1863 C   0  0  0  0  0  0  0  0  0  0  0  0
   -7.6016   23.5260    5.1206 C   0  0  0  0  0  0  0  0  0  0  0  0
   -8.5016   23.0968    6.0976 C   0  0  0  0  0  0  0  0  0  0  0  0
   -8.0598   22.3039    7.1540 C   0  0  0  0  0  0  0  0  0  0  0  0
   -6.7178   21.9395    7.2347 C   0  0  0  0  0  0  0  0  0  0  0  0
   -5.8160   22.3681    6.2582 C   0  0  0  0  0  0  0  0  0  0  0  0
  1  2  1  0  0  0
  2  3  1  0  0  0
  3  4  1  0  0  0
  4  5  2  0  0  0
  5  6  1  0  0  0
  5  7  1  0  0  0
  7  8  2  0  0  0
  8  9  1  0  0  0
  9 10  2  0  0  0
 10 11  1  0  0  0
 11 15  1  0  0  0
 15 16  2  0  0  0
 16 17  1  0  0  0
 17 18  2  0  0  0
 18 19  1  0  0  0
 19 20  2  0  0  0
 11 12  1  0  0  0
 12  2  1  0  0  0
 10  4  1  0  0  0
 20 15  1  0  0  0
  6 13  1  0  0  0
  6 14  1  0  0  0
M  END
> <minimizedAffinity>
-8.43778

$$$$
OCNT-2328540


 26 27  0  0  0  0  0  0  0  0999 V2000
   -4.8934   25.6806    4.2244 C   0  0  0  0  0  0  0  0  0  0  0  0
   -5.2365   24.9489    5.4384 O   0  0  0  0  0  0  0  0  0  0  0  0
   -4.5844   25.1902    6.1274 H   0  0  0  0  0  0  0  0  0  0  0  0
   -5.2412   24.7378    3.0563 C   0  0  0  0  0  0  0  0  0  0  0  0
   -5.7967   25.1926    1.8461 C   0  0  0  0  0  0  0  0  0  0  0  0
   -6.0909   24.3103    0.8000 C   0  0  0  0  0  0  0  0  0  0  0  0
   -5.8490   22.9473    0.9414 C   0  0  0  0  0  0  0  0  0  0  0  0
   -5.3269   22.4653    2.1340 C   0  0  0  0  0  0  0  0  0  0  0  0
   -5.0344   23.3481    3.1779 C   0  0  0  0  0  0  0  0  0  0  0  0
   -5.7775   26.9696    4.2380 C   0  0  0  0  0  0  0  0  0  0  0  0
   -5.2437   28.1382    3.3868 C   0  0  0  0  0  0  0  0  0  0  0  0
   -6.1838   29.3429    3.4082 C   0  0  0  0  0  0  0  0  0  0  0  0
   -6.4755   29.8121    4.8259 C   0  0  0  0  0  0  0  0  0  0  0  0
   -7.0074   28.6760    5.6865 C   0  0  0  0  0  0  0  0  0  0  0  0
   -6.0882   27.4588    5.6732 C   0  0  0  0  0  0  0  0  0  0  0  0
   -3.3651   25.9367    4.3776 C   0  0  0  0  0  0  0  0  0  0  0  0
   -2.6056   26.0573    3.4167 O   0  0  0  0  0  0  0  0  0  0  0  0
   -2.9164   26.0207    5.6638 O   0  0  0  0  0  0  0  0  0  0  0  0
   -1.9959   27.1031    5.8969 C   0  0  0  0  0  0  0  0  0  0  0  0
   -2.6356   28.3934    6.4369 C   0  0  0  0  0  0  0  0  0  0  0  0
   -1.6375   29.4267    7.0383 N   0  0  0  0  0  0  0  0  0  0  0  0
   -1.7708   29.3616    8.5716 C   0  0  0  0  0  0  0  0  0  0  0  0
    0.8101   29.1779    7.8437 C   0  0  0  0  0  0  0  0  0  0  0  0
   -0.1552   29.1456    6.6626 C   0  0  0  0  0  0  0  0  0  0  0  0
   -1.9340   30.8747    6.5693 C   0  0  0  0  0  0  0  0  0  0  0  0
   -3.4099   31.2297    6.5196 C   0  0  0  0  0  0  0  0  0  0  0  0
 23 24  1  0  0  0
 24 21  1  0  0  0
 21 22  1  0  0  0
 21 25  1  0  0  0
 25 26  1  0  0  0
 21 20  1  0  0  0
 20 19  1  0  0  0
 19 18  1  0  0  0
 18 16  1  0  0  0
 16 17  2  0  0  0
 16  1  1  0  0  0
  1  2  1  0  0  0
  1  4  1  0  0  0
  4  5  2  0  0  0
  5  6  1  0  0  0
  6  7  2  0  0  0
  7  8  1  0  0  0
  8  9  2  0  0  0
  1 10  1  0  0  0
 10 11  1  0  0  0
 11 12  1  0  0  0
 12 13  1  0  0  0
 13 14  1  0  0  0
 14 15  1  0  0  0
  9  4  1  0  0  0
 15 10  1  0  0  0
  2  3  1  0  0  0
M  CHG 1  21   1
M  END
> <minimizedAffinity>
-7.99177

$$$$
OCNT-2328544


 21 22  0  0  0  0  0  0  0  0999 V2000
   -4.9081   25.8253    4.0216 C   0  0  0  0  0  0  0  0  0  0  0  0
   -4.8618   24.8324    5.2049 C   0  0  0  0  0  0  0  0  0  0  0  0
   -5.6648   25.0959    2.8816 C   0  0  0  0  0  0  0  0  0  0  0  0
   -5.5637   25.5250    1.5444 C   0  0  0  0  0  0  0  0  0  0  0  0
   -6.2296   24.8510    0.5163 C   0  0  0  0  0  0  0  0  0  0  0  0
   -7.0018   23.7315    0.8104 C   0  0  0  0  0  0  0  0  0  0  0  0
   -7.9029   22.8200   -0.5788 Br  0  0  0  0  0  0  0  0  0  0  0  0
   -7.1116   23.2772    2.1209 C   0  0  0  0  0  0  0  0  0  0  0  0
   -6.4445   23.9519    3.1475 C   0  0  0  0  0  0  0  0  0  0  0  0
   -5.5633   27.1851    4.3310 C   0  0  0  0  0  0  0  0  0  0  0  0
   -5.5771   28.2542    3.4189 C   0  0  0  0  0  0  0  0  0  0  0  0
   -6.1836   29.4704    3.7479 C   0  0  0  0  0  0  0  0  0  0  0  0
   -6.7847   29.6417    4.9921 C   0  0  0  0  0  0  0  0  0  0  0  0
   -6.7811   28.5982    5.9122 C   0  0  0  0  0  0  0  0  0  0  0  0
   -6.1766   27.3834    5.5853 C   0  0  0  0  0  0  0  0  0  0  0  0
   -3.5669   26.0879    3.5429 O   0  0  0  0  0  0  0  0  0  0  0  0
   -2.5853   26.3990    4.5366 C   0  0  0  0  0  0  0  0  0  0  0  0
   -1.2735   25.6958    4.1520 C   0  0  0  0  0  0  0  0  0  0  0  0
    0.8182   26.8514    3.8758 C   0  0  0  0  0  0  0  0  0  0  0  0
   -0.0809   26.2193    4.8457 N   0  0  0  0  0  0  0  0  0  0  0  0
   -0.4407   27.1871    5.8849 C   0  0  0  0  0  0  0  0  0  0  0  0
 19 20  1  0  0  0
 20 21  1  0  0  0
 20 18  1  0  0  0
 18 17  1  0  0  0
 17 16  1  0  0  0
 16  1  1  0  0  0
  1  2  1  0  0  0
  1 10  1  0  0  0
 10 11  2  0  0  0
 11 12  1  0  0  0
 12 13  2  0  0  0
 13 14  1  0  0  0
 14 15  2  0  0  0
  1  3  1  0  0  0
  3  4  1  0  0  0
  4  5  2  0  0  0
  5  6  1  0  0  0
  6  7  1  0  0  0
  6  8  2  0  0  0
  8  9  1  0  0  0
 15 10  1  0  0  0
  9  3  2  0  0  0
M  END
> <minimizedAffinity>
-7.79557

$$$$
OCNT-2328546


 33 36  0  0  0  0  0  0  0  0999 V2000
   -5.9690   29.3504    5.2606 C   0  0  0  0  0  0  0  0  0  0  0  0
   -5.5853   30.1474    4.1266 O   0  0  0  0  0  0  0  0  0  0  0  0
   -5.3754   31.0301    4.4882 H   0  0  0  0  0  0  0  0  0  0  0  0
   -6.1182   27.8851    4.8123 C   0  0  0  0  0  0  0  0  0  0  0  0
   -4.9995   27.0580    5.2898 N   0  0  0  0  0  0  0  0  0  0  0  0
   -4.2280   27.7001    5.5043 H   0  0  0  0  0  0  0  0  0  0  0  0
   -4.5324   26.0986    4.2796 C   0  0  0  0  0  0  0  0  0  0  0  0
   -5.0737   26.3430    2.8617 C   0  0  0  0  0  0  0  0  0  0  0  0
   -4.5974   25.3590    1.9432 O   0  0  0  0  0  0  0  0  0  0  0  0
   -5.5634   23.2867    1.3655 C   0  0  0  0  0  0  0  0  0  0  0  0
   -6.4440   22.5144    0.5990 C   0  0  0  0  0  0  0  0  0  0  0  0
   -7.2516   23.1166   -0.3679 C   0  0  0  0  0  0  0  0  0  0  0  0
   -7.1890   24.4914   -0.5703 C   0  0  0  0  0  0  0  0  0  0  0  0
   -6.3150   25.2722    0.1897 C   0  0  0  0  0  0  0  0  0  0  0  0
   -5.4923   24.6798    1.1543 C   0  0  0  0  0  0  0  0  0  0  0  0
   -5.1268   21.5821    2.9821 C   0  0  0  0  0  0  0  0  0  0  0  0
   -4.7309   22.7814    2.3344 O   0  0  0  0  0  0  0  0  0  0  0  0
   -4.9442   29.5300    6.3863 C   0  0  0  0  0  0  0  0  0  0  0  0
   -4.1832   30.7163    6.0782 O   0  0  0  0  0  0  0  0  0  0  0  0
   -3.9265   31.4084    7.2432 C   0  0  0  0  0  0  0  0  0  0  0  0
   -4.9009   32.2944    7.7174 C   0  0  0  0  0  0  0  0  0  0  0  0
   -4.6863   33.0114    8.8910 C   0  0  0  0  0  0  0  0  0  0  0  0
   -3.5051   32.8560    9.6230 C   0  0  0  0  0  0  0  0  0  0  0  0
   -2.5557   31.9421    9.1466 C   0  0  0  0  0  0  0  0  0  0  0  0
   -2.7391   31.1988    7.9796 C   0  0  0  0  0  0  0  0  0  0  0  0
   -1.5866   30.3600    7.8245 C   0  0  0  0  0  0  0  0  0  0  0  0
   -1.1949   29.3897    6.8776 C   0  0  0  0  0  0  0  0  0  0  0  0
    0.0352   28.7382    7.0225 C   0  0  0  0  0  0  0  0  0  0  0  0
    0.8748   29.0390    8.0917 C   0  0  0  0  0  0  0  0  0  0  0  0
    0.5101   29.9920    9.0475 C   0  0  0  0  0  0  0  0  0  0  0  0
   -0.7250   30.6316    8.8875 C   0  0  0  0  0  0  0  0  0  0  0  0
   -1.3337   31.5862    9.6658 N   0  0  0  0  0  0  0  0  0  0  0  0
   -0.9379   31.9696   10.5119 H   0  0  0  0  0  0  0  0  0  0  0  0
 16 17  1  0  0  0
 17 10  1  0  0  0
 10 11  2  0  0  0
 11 12  1  0  0  0
 12 13  2  0  0  0
 13 14  1  0  0  0
 14 15  2  0  0  0
 15  9  1  0  0  0
  9  8  1  0  0  0
  8  7  1  0  0  0
  7  5  1  0  0  0
  5  4  1  0  0  0
  4  1  1  0  0  0
  1  2  1  0  0  0
  1 18  1  0  0  0
 18 19  1  0  0  0
 19 20  1  0  0  0
 20 21  1  0  0  0
 21 22  2  0  0  0
 22 23  1  0  0  0
 23 24  2  0  0  0
 24 25  1  0  0  0
 25 26  1  0  0  0
 26 27  2  0  0  0
 27 28  1  0  0  0
 28 29  2  0  0  0
 29 30  1  0  0  0
 30 31  2  0  0  0
 31 32  1  0  0  0
 15 10  1  0  0  0
 25 20  2  0  0  0
 31 26  1  0  0  0
 32 24  1  0  0  0
  5  6  1  0  0  0
  2  3  1  0  0  0
 32 33  1  0  0  0
M  END
> <minimizedAffinity>
-9.96859

$$$$
OCNT-2328552


 20 23  0  0  0  0  0  0  0  0999 V2000
   -5.8927   21.8577    6.4544 C   0  0  0  0  0  0  0  0  0  0  0  0
   -5.4526   22.6990    5.3533 N   0  0  0  0  0  0  0  0  0  0  0  0
   -6.2852   22.5607    4.1457 C   0  0  0  0  0  0  0  0  0  0  0  0
   -6.5199   23.9892    3.6087 C   0  0  0  0  0  0  0  0  0  0  0  0
   -6.6231   24.1222    2.1036 C   0  0  0  0  0  0  0  0  0  0  0  0
   -5.9998   25.1383    1.3585 C   0  0  0  0  0  0  0  0  0  0  0  0
   -6.1403   25.1860   -0.0361 C   0  0  0  0  0  0  0  0  0  0  0  0
   -6.9396   24.2618   -0.7032 C   0  0  0  0  0  0  0  0  0  0  0  0
   -7.5998   23.2780    0.0215 C   0  0  0  0  0  0  0  0  0  0  0  0
   -7.4461   23.2119    1.4082 C   0  0  0  0  0  0  0  0  0  0  0  0
   -5.1600   26.1059    1.8668 O   0  0  0  0  0  0  0  0  0  0  0  0
   -5.6163   26.8378    2.9385 C   0  0  0  0  0  0  0  0  0  0  0  0
   -5.6972   26.2627    4.2157 C   0  0  0  0  0  0  0  0  0  0  0  0
   -6.0503   27.0813    5.2959 C   0  0  0  0  0  0  0  0  0  0  0  0
   -6.3158   28.4383    5.0897 C   0  0  0  0  0  0  0  0  0  0  0  0
   -6.7555   29.4307    6.4260 Cl  0  0  0  0  0  0  0  0  0  0  0  0
   -6.2258   28.9984    3.8165 C   0  0  0  0  0  0  0  0  0  0  0  0
   -5.8630   28.1962    2.7365 C   0  0  0  0  0  0  0  0  0  0  0  0
   -5.4193   24.7880    4.3202 C   0  0  0  0  0  0  0  0  0  0  0  0
   -5.4260   24.1244    5.6971 C   0  0  0  0  0  0  0  0  0  0  0  0
  1  2  1  0  0  0
  2  3  1  0  0  0
  3  4  1  0  0  0
  4  5  1  0  0  0
  5  6  1  0  0  0
  6  7  2  0  0  0
  7  8  1  0  0  0
  8  9  2  0  0  0
  9 10  1  0  0  0
  6 11  1  0  0  0
 11 12  1  0  0  0
 12 13  2  0  0  0
 13 14  1  0  0  0
 14 15  2  0  0  0
 15 16  1  0  0  0
 15 17  1  0  0  0
 17 18  2  0  0  0
 13 19  1  0  0  0
 19 20  1  0  0  0
 20  2  1  0  0  0
 19  4  1  0  0  0
 10  5  2  0  0  0
 18 12  1  0  0  0
M  END
> <minimizedAffinity>
-9.31245

$$$$
OCNT-2328558


 35 38  0  0  0  0  0  0  0  0999 V2000
   -3.9289   30.5726    7.7752 C   0  0  0  0  0  0  0  0  0  0  0  0
   -2.3857   30.3714    7.8659 C   0  0  0  0  0  0  0  0  0  0  0  0
   -1.6871   29.8109    6.7751 C   0  0  0  0  0  0  0  0  0  0  0  0
   -0.3079   29.5983    6.8281 C   0  0  0  0  0  0  0  0  0  0  0  0
    0.4038   29.9280    7.9763 C   0  0  0  0  0  0  0  0  0  0  0  0
   -0.2648   30.4616    9.0736 C   0  0  0  0  0  0  0  0  0  0  0  0
   -1.6460   30.6746    9.0237 C   0  0  0  0  0  0  0  0  0  0  0  0
   -4.1666   32.0666    8.2162 C   0  0  0  0  0  0  0  0  0  0  0  0
   -4.7440   33.0192    7.3539 C   0  0  0  0  0  0  0  0  0  0  0  0
   -4.9929   34.3314    7.7701 C   0  0  0  0  0  0  0  0  0  0  0  0
   -4.6973   34.7215    9.0703 C   0  0  0  0  0  0  0  0  0  0  0  0
   -4.1660   33.7947    9.9588 C   0  0  0  0  0  0  0  0  0  0  0  0
   -3.9161   32.4831    9.5414 C   0  0  0  0  0  0  0  0  0  0  0  0
   -6.5944   28.7706   10.0532 C   0  0  0  0  0  0  0  0  0  0  0  0
   -5.9103   29.8262    9.3154 N   0  0  0  0  0  0  0  0  0  0  0  0
   -6.6510   31.0796    9.2489 C   0  0  0  0  0  0  0  0  0  0  0  0
   -4.7029   29.5135    8.6804 C   0  0  0  0  0  0  0  0  0  0  0  0
   -4.1945   28.4053    8.9062 O   0  0  0  0  0  0  0  0  0  0  0  0
   -4.5260   30.3408    6.3327 C   0  0  0  0  0  0  0  0  0  0  0  0
   -5.9626   29.7715    6.3207 C   0  0  0  0  0  0  0  0  0  0  0  0
   -6.0754   28.5893    5.4352 N   0  0  0  0  0  0  0  0  0  0  0  0
   -5.9100   29.0113    4.0321 C   0  0  0  0  0  0  0  0  0  0  0  0
   -6.1153   27.8291    3.0836 C   0  0  0  0  0  0  0  0  0  0  0  0
   -5.1338   26.6815    3.3769 C   0  0  0  0  0  0  0  0  0  0  0  0
   -3.8126   27.1728    3.0858 O   0  0  0  0  0  0  0  0  0  0  0  0
   -5.2002   26.3359    4.8733 C   0  0  0  0  0  0  0  0  0  0  0  0
   -5.0550   27.5763    5.7588 C   0  0  0  0  0  0  0  0  0  0  0  0
   -3.6798   27.0846    2.1259 H   0  0  0  0  0  0  0  0  0  0  0  0
   -5.3345   25.4217    2.5254 C   0  0  0  0  0  0  0  0  0  0  0  0
   -5.8919   25.4445    1.2362 C   0  0  0  0  0  0  0  0  0  0  0  0
   -6.0572   24.2647    0.5006 C   0  0  0  0  0  0  0  0  0  0  0  0
   -5.6658   23.0443    1.0423 C   0  0  0  0  0  0  0  0  0  0  0  0
   -5.8712   21.5981    0.1347 Cl  0  0  0  0  0  0  0  0  0  0  0  0
   -5.1086   22.9915    2.3144 C   0  0  0  0  0  0  0  0  0  0  0  0
   -4.9457   24.1699    3.0477 C   0  0  0  0  0  0  0  0  0  0  0  0
 14 15  1  0  0  0
 15 16  1  0  0  0
 15 17  1  0  0  0
 17 18  2  0  0  0
 17  1  1  0  0  0
  1 19  1  0  0  0
 19 20  1  0  0  0
 20 21  1  0  0  0
 21 22  1  0  0  0
 22 23  1  0  0  0
 23 24  1  0  0  0
 24 25  1  0  0  0
 24 29  1  0  0  0
 29 30  1  0  0  0
 30 31  2  0  0  0
 31 32  1  0  0  0
 32 33  1  0  0  0
 32 34  2  0  0  0
 34 35  1  0  0  0
 24 26  1  0  0  0
 26 27  1  0  0  0
  1  2  1  0  0  0
  2  3  2  0  0  0
  3  4  1  0  0  0
  4  5  2  0  0  0
  5  6  1  0  0  0
  6  7  2  0  0  0
  1  8  1  0  0  0
  8  9  2  0  0  0
  9 10  1  0  0  0
 10 11  2  0  0  0
 11 12  1  0  0  0
 12 13  2  0  0  0
 27 21  1  0  0  0
  7  2  1  0  0  0
 13  8  1  0  0  0
 35 29  2  0  0  0
 25 28  1  0  0  0
M  END
> <minimizedAffinity>
-11.10827

$$$$
OCNT-2328559


 27 29  0  0  0  0  0  0  0  0999 V2000
   -2.2243   28.2462    5.9409 N   0  0  0  0  0  0  0  0  0  0  0  0
   -2.4857   29.2330    5.9055 H   0  0  0  0  0  0  0  0  0  0  0  0
   -3.6609   26.3518    5.1725 C   0  0  0  0  0  0  0  0  0  0  0  0
   -3.4562   27.4713    6.1998 C   0  0  0  0  0  0  0  0  0  0  0  0
   -4.6884   28.3848    6.1909 C   0  0  0  0  0  0  0  0  0  0  0  0
   -5.4041   28.5358    4.9832 C   0  0  0  0  0  0  0  0  0  0  0  0
   -6.5279   29.3492    4.9058 C   0  0  0  0  0  0  0  0  0  0  0  0
   -6.9698   30.0219    6.0385 C   0  0  0  0  0  0  0  0  0  0  0  0
   -6.3064   29.8810    7.2650 C   0  0  0  0  0  0  0  0  0  0  0  0
   -6.7927   30.5621    8.3935 C   0  0  0  0  0  0  0  0  0  0  0  0
   -6.1728   30.4351    9.6338 C   0  0  0  0  0  0  0  0  0  0  0  0
   -5.0587   29.6197    9.7613 C   0  0  0  0  0  0  0  0  0  0  0  0
   -4.5611   28.9375    8.6469 C   0  0  0  0  0  0  0  0  0  0  0  0
   -5.1576   29.0506    7.3664 C   0  0  0  0  0  0  0  0  0  0  0  0
   -1.2052   28.0727    6.9774 C   0  0  0  0  0  0  0  0  0  0  0  0
   -0.5022   29.4018    7.2831 C   0  0  0  0  0  0  0  0  0  0  0  0
   -1.2339   30.6475    6.7679 C   0  0  0  0  0  0  0  0  0  0  0  0
   -1.9619   31.4106    7.8481 C   0  0  0  0  0  0  0  0  0  0  0  0
   -3.0096   32.2837    7.5234 C   0  0  0  0  0  0  0  0  0  0  0  0
   -3.7041   32.9823    8.5252 C   0  0  0  0  0  0  0  0  0  0  0  0
   -3.3255   32.8042    9.8640 C   0  0  0  0  0  0  0  0  0  0  0  0
   -2.2868   31.9346   10.1952 C   0  0  0  0  0  0  0  0  0  0  0  0
   -1.6103   31.2409    9.1927 C   0  0  0  0  0  0  0  0  0  0  0  0
   -4.8135   33.9366    8.1611 C   0  0  0  0  0  0  0  0  0  0  0  0
   -6.0085   33.3052    7.9947 F   0  0  0  0  0  0  0  0  0  0  0  0
   -4.5829   34.6115    6.9997 F   0  0  0  0  0  0  0  0  0  0  0  0
   -5.0263   34.8944    9.1075 F   0  0  0  0  0  0  0  0  0  0  0  0
  3  4  1  0  0  0
  4  1  1  0  0  0
  1 15  1  0  0  0
 15 16  1  0  0  0
 16 17  1  0  0  0
 17 18  1  0  0  0
 18 19  1  0  0  0
 19 20  2  0  0  0
 20 24  1  0  0  0
 24 25  1  0  0  0
 24 26  1  0  0  0
 24 27  1  0  0  0
 20 21  1  0  0  0
 21 22  2  0  0  0
 22 23  1  0  0  0
  4  5  1  0  0  0
  5  6  2  0  0  0
  6  7  1  0  0  0
  7  8  2  0  0  0
  8  9  1  0  0  0
  9 10  2  0  0  0
 10 11  1  0  0  0
 11 12  2  0  0  0
 12 13  1  0  0  0
 13 14  2  0  0  0
 23 18  2  0  0  0
 14  5  1  0  0  0
 14  9  1  0  0  0
  1  2  1  0  0  0
M  END
> <minimizedAffinity>
-8.90267

$$$$
OCNT-2328568


 34 36  0  0  0  0  0  0  0  0999 V2000
   -4.8423   26.7293    4.7205 C   0  0  0  0  0  0  0  0  0  0  0  0
   -3.4799   26.3872    4.7192 C   0  0  0  0  0  0  0  0  0  0  0  0
   -2.5066   27.0828    5.4619 C   0  0  0  0  0  0  0  0  0  0  0  0
   -1.1276   26.7292    5.4275 C   0  0  0  0  0  0  0  0  0  0  0  0
   -0.5332   25.4069    4.4702 Cl  0  0  0  0  0  0  0  0  0  0  0  0
   -0.1716   27.4286    6.1594 C   0  0  0  0  0  0  0  0  0  0  0  0
   -0.5750   28.4940    6.9384 C   0  0  0  0  0  0  0  0  0  0  0  0
    0.5877   29.3759    7.8500 Cl  0  0  0  0  0  0  0  0  0  0  0  0
   -1.9205   28.8593    6.9914 C   0  0  0  0  0  0  0  0  0  0  0  0
   -2.9294   28.1724    6.2638 C   0  0  0  0  0  0  0  0  0  0  0  0
   -4.3279   28.5269    6.3161 C   0  0  0  0  0  0  0  0  0  0  0  0
   -4.8220   29.5949    7.1161 C   0  0  0  0  0  0  0  0  0  0  0  0
   -6.1806   29.9455    7.1908 C   0  0  0  0  0  0  0  0  0  0  0  0
   -7.0942   29.1989    6.4611 C   0  0  0  0  0  0  0  0  0  0  0  0
   -6.6495   28.1472    5.6611 C   0  0  0  0  0  0  0  0  0  0  0  0
   -5.2806   27.7930    5.5533 C   0  0  0  0  0  0  0  0  0  0  0  0
   -6.6295   31.0795    8.0790 C   0  0  0  0  0  0  0  0  0  0  0  0
   -6.8082   30.6945    9.3735 F   0  0  0  0  0  0  0  0  0  0  0  0
   -7.8182   31.6084    7.6788 F   0  0  0  0  0  0  0  0  0  0  0  0
   -5.7493   32.1181    8.1176 F   0  0  0  0  0  0  0  0  0  0  0  0
   -5.8259   25.9329    3.8596 C   0  0  0  0  0  0  0  0  0  0  0  0
   -6.3504   24.8473    4.6272 O   0  0  0  0  0  0  0  0  0  0  0  0
   -5.9445   24.8709    5.5110 H   0  0  0  0  0  0  0  0  0  0  0  0
   -5.2867   25.3649    2.5346 C   0  0  0  0  0  0  0  0  0  0  0  0
   -5.0080   23.8482    2.5864 C   0  0  0  0  0  0  0  0  0  0  0  0
   -6.0569   22.9426    2.0716 N   0  0  0  0  0  0  0  0  0  0  0  0
   -5.8710   22.5222    0.6737 C   0  0  0  0  0  0  0  0  0  0  0  0
   -7.1328   22.7046   -0.1839 C   0  0  0  0  0  0  0  0  0  0  0  0
   -7.0091   25.2063   -0.7000 C   0  0  0  0  0  0  0  0  0  0  0  0
   -7.7772   24.0848   -0.0184 C   0  0  0  0  0  0  0  0  0  0  0  0
   -6.2681   21.7901    2.9687 C   0  0  0  0  0  0  0  0  0  0  0  0
   -7.7611   21.5415    3.2324 C   0  0  0  0  0  0  0  0  0  0  0  0
   -8.1603   21.7717    4.6936 C   0  0  0  0  0  0  0  0  0  0  0  0
   -9.4905   22.4900    4.8589 C   0  0  0  0  0  0  0  0  0  0  0  0
 29 30  1  0  0  0
 30 28  1  0  0  0
 28 27  1  0  0  0
 27 26  1  0  0  0
 26 31  1  0  0  0
 31 32  1  0  0  0
 32 33  1  0  0  0
 33 34  1  0  0  0
 26 25  1  0  0  0
 25 24  1  0  0  0
 24 21  1  0  0  0
 21 22  1  0  0  0
 21  1  1  0  0  0
  1  2  2  0  0  0
  2  3  1  0  0  0
  3  4  2  0  0  0
  4  5  1  0  0  0
  4  6  1  0  0  0
  6  7  2  0  0  0
  7  8  1  0  0  0
  7  9  1  0  0  0
  9 10  2  0  0  0
 10 11  1  0  0  0
 11 12  2  0  0  0
 12 13  1  0  0  0
 13 17  1  0  0  0
 17 18  1  0  0  0
 17 19  1  0  0  0
 17 20  1  0  0  0
 13 14  2  0  0  0
 14 15  1  0  0  0
 15 16  2  0  0  0
 16  1  1  0  0  0
 10  3  1  0  0  0
 16 11  1  0  0  0
 22 23  1  0  0  0
M  END
> <minimizedAffinity>
-9.53075

$$$$
OCNT-2328587


 39 42  0  0  0  0  0  0  0  0999 V2000
   -2.6357   30.4826    7.7888 C   0  0  0  0  0  0  0  0  0  0  0  0
   -3.1418   31.9106    8.0475 C   0  0  0  0  0  0  0  0  0  0  0  0
   -2.2406   32.9046    7.6720 O   0  0  0  0  0  0  0  0  0  0  0  0
   -4.3653   32.2059    8.5475 C   0  0  0  0  0  0  0  0  0  0  0  0
   -5.3101   31.0956    8.8582 C   0  0  0  0  0  0  0  0  0  0  0  0
   -6.3567   31.3124    9.4824 O   0  0  0  0  0  0  0  0  0  0  0  0
   -4.9639   29.6722    8.3911 C   0  0  0  0  0  0  0  0  0  0  0  0
   -5.6939   28.7640    9.2347 O   0  0  0  0  0  0  0  0  0  0  0  0
   -5.3931   29.3654    6.9742 C   0  0  0  0  0  0  0  0  0  0  0  0
   -6.3935   30.1717    6.4641 O   0  0  0  0  0  0  0  0  0  0  0  0
   -4.8076   28.3649    6.2794 C   0  0  0  0  0  0  0  0  0  0  0  0
   -5.2295   28.0791    4.8785 C   0  0  0  0  0  0  0  0  0  0  0  0
   -6.2115   28.6375    4.3871 O   0  0  0  0  0  0  0  0  0  0  0  0
   -4.4597   27.0845    4.0880 C   0  0  0  0  0  0  0  0  0  0  0  0
   -3.2159   26.6065    4.5498 C   0  0  0  0  0  0  0  0  0  0  0  0
   -2.5191   25.6793    3.7514 C   0  0  0  0  0  0  0  0  0  0  0  0
   -0.9767   25.0453    4.2104 Cl  0  0  0  0  0  0  0  0  0  0  0  0
   -3.0539   25.2275    2.5404 C   0  0  0  0  0  0  0  0  0  0  0  0
   -4.2836   25.7034    2.0961 C   0  0  0  0  0  0  0  0  0  0  0  0
   -4.9782   26.6322    2.8623 C   0  0  0  0  0  0  0  0  0  0  0  0
   -6.1714   27.0578    2.3433 O   0  0  0  0  0  0  0  0  0  0  0  0
   -2.6402   27.1411    5.8368 C   0  0  0  0  0  0  0  0  0  0  0  0
   -1.8882   28.2973    5.4984 O   0  0  0  0  0  0  0  0  0  0  0  0
   -3.7428   27.4644    6.8667 C   0  0  0  0  0  0  0  0  0  0  0  0
   -3.1455   27.9546    8.2100 C   0  0  0  0  0  0  0  0  0  0  0  0
   -3.4662   29.4222    8.5804 C   0  0  0  0  0  0  0  0  0  0  0  0
   -2.6258   33.7931    7.8551 H   0  0  0  0  0  0  0  0  0  0  0  0
   -6.5792   29.1690    9.3455 H   0  0  0  0  0  0  0  0  0  0  0  0
   -6.6388   29.8374    5.5705 H   0  0  0  0  0  0  0  0  0  0  0  0
   -6.5228   27.7719    2.9191 H   0  0  0  0  0  0  0  0  0  0  0  0
   -1.3365   28.5293    6.2710 H   0  0  0  0  0  0  0  0  0  0  0  0
   -4.7439   33.6387    8.7544 C   0  0  0  0  0  0  0  0  0  0  0  0
   -5.2148   34.3250    7.6853 N   0  0  0  0  0  0  0  0  0  0  0  0
   -4.6368   34.1867    9.8499 O   0  0  0  0  0  0  0  0  0  0  0  0
   -5.4767   35.2941    7.7957 H   0  0  0  0  0  0  0  0  0  0  0  0
   -5.3287   33.8861    6.7728 H   0  0  0  0  0  0  0  0  0  0  0  0
   -0.3846   30.4560    6.7688 C   0  0  0  0  0  0  0  0  0  0  0  0
   -1.1852   30.2088    7.9758 N   0  0  0  0  0  0  0  0  0  0  0  0
   -0.5826   30.9143    9.1098 C   0  0  0  0  0  0  0  0  0  0  0  0
 37 38  1  0  0  0
 38 39  1  0  0  0
 38  1  1  0  0  0
  1  2  1  0  0  0
  2  3  1  0  0  0
  2  4  2  0  0  0
  4 32  1  0  0  0
 32 33  1  0  0  0
 32 34  2  0  0  0
  4  5  1  0  0  0
  5  6  2  0  0  0
  5  7  1  0  0  0
  7  8  1  0  0  0
  7  9  1  0  0  0
  9 10  1  0  0  0
  9 11  2  0  0  0
 11 12  1  0  0  0
 12 13  2  0  0  0
 12 14  1  0  0  0
 14 15  1  0  0  0
 15 16  2  0  0  0
 16 17  1  0  0  0
 16 18  1  0  0  0
 18 19  2  0  0  0
 19 20  1  0  0  0
 20 21  1  0  0  0
 15 22  1  0  0  0
 22 23  1  0  0  0
 22 24  1  0  0  0
 24 25  1  0  0  0
 25 26  1  0  0  0
 26  1  1  0  0  0
 26  7  1  0  0  0
 24 11  1  0  0  0
 20 14  2  0  0  0
  3 27  1  0  0  0
 33 35  1  0  0  0
 33 36  1  0  0  0
  8 28  1  0  0  0
 10 29  1  0  0  0
 21 30  1  0  0  0
 23 31  1  0  0  0
M  END
> <minimizedAffinity>
-8.39648

$$$$
OCNT-2328597


 15 15  0  0  0  0  0  0  0  0999 V2000
   -2.7910   30.7335    9.5991 O   0  0  0  0  0  0  0  0  0  0  0  0
   -3.3322   29.8578    8.5138 P   0  0  0  0  0  0  0  0  0  0  0  0
   -4.4508   28.7707    9.0042 N   0  0  0  0  0  0  0  0  0  0  0  0
   -5.8509   29.1023    8.7801 C   0  0  0  0  0  0  0  0  0  0  0  0
   -6.0785   30.6019    8.9381 C   0  0  0  0  0  0  0  0  0  0  0  0
   -5.3008   31.4077    7.8958 C   0  0  0  0  0  0  0  0  0  0  0  0
   -4.1447   30.7296    7.4264 O   0  0  0  0  0  0  0  0  0  0  0  0
   -4.2674   27.8288    8.6855 H   0  0  0  0  0  0  0  0  0  0  0  0
   -2.2292   28.9850    7.6846 N   0  0  0  0  0  0  0  0  0  0  0  0
   -2.6632   28.0617    6.6311 C   0  0  0  0  0  0  0  0  0  0  0  0
   -2.0169   26.6766    6.7523 C   0  0  0  0  0  0  0  0  0  0  0  0
   -1.0506   26.2755    5.3085 Cl  0  0  0  0  0  0  0  0  0  0  0  0
   -0.9716   28.5586    8.3090 C   0  0  0  0  0  0  0  0  0  0  0  0
    0.2178   29.4904    8.0469 C   0  0  0  0  0  0  0  0  0  0  0  0
    0.7160   29.3769    6.3356 Cl  0  0  0  0  0  0  0  0  0  0  0  0
  1  2  2  0  0  0
  2  9  1  0  0  0
  9 10  1  0  0  0
 10 11  1  0  0  0
 11 12  1  0  0  0
  9 13  1  0  0  0
 13 14  1  0  0  0
 14 15  1  0  0  0
  2  3  1  0  0  0
  3  4  1  0  0  0
  4  5  1  0  0  0
  5  6  1  0  0  0
  6  7  1  0  0  0
  7  2  1  0  0  0
  3  8  1  0  0  0
M  END
> <minimizedAffinity>
-5.56910

$$$$
OCNT-2328599


 17 19  0  0  0  0  0  0  0  0999 V2000
   -7.6141   23.7169   -0.7031 C   0  0  0  0  0  0  0  0  0  0  0  0
   -6.9164   24.8937   -0.4727 C   0  0  0  0  0  0  0  0  0  0  0  0
   -5.9366   24.9405    0.5224 C   0  0  0  0  0  0  0  0  0  0  0  0
   -5.6252   23.8118    1.3174 C   0  0  0  0  0  0  0  0  0  0  0  0
   -6.3530   22.6191    1.0685 C   0  0  0  0  0  0  0  0  0  0  0  0
   -7.3336   22.5876    0.0630 C   0  0  0  0  0  0  0  0  0  0  0  0
   -6.0981   21.4690    1.8295 C   0  0  0  0  0  0  0  0  0  0  0  0
   -5.1406   21.4768    2.8387 C   0  0  0  0  0  0  0  0  0  0  0  0
   -4.4205   22.6366    3.0974 C   0  0  0  0  0  0  0  0  0  0  0  0
   -4.6393   23.8061    2.3458 C   0  0  0  0  0  0  0  0  0  0  0  0
   -3.8235   25.0285    2.7196 C   0  0  0  0  0  0  0  0  0  0  0  0
   -4.6531   26.0821    3.4180 C   0  0  0  0  0  0  0  0  0  0  0  0
   -5.4259   25.7765    4.4306 N   0  0  0  0  0  0  0  0  0  0  0  0
   -6.0555   27.0735    4.8098 C   0  0  0  0  0  0  0  0  0  0  0  0
   -5.7747   28.0430    3.6584 C   0  0  0  0  0  0  0  0  0  0  0  0
   -4.6489   27.4003    3.0216 N   0  0  0  0  0  0  0  0  0  0  0  0
   -4.5320   27.5650    2.0260 H   0  0  0  0  0  0  0  0  0  0  0  0
  1  2  2  0  0  0
  2  3  1  0  0  0
  3  4  2  0  0  0
  4  5  1  0  0  0
  5  6  2  0  0  0
  5  7  1  0  0  0
  7  8  2  0  0  0
  8  9  1  0  0  0
  9 10  2  0  0  0
 10 11  1  0  0  0
 11 12  1  0  0  0
 12 13  2  0  0  0
 13 14  1  0  0  0
 14 15  1  0  0  0
 15 16  1  0  0  0
  6  1  1  0  0  0
 16 12  1  0  0  0
 10  4  1  0  0  0
 16 17  1  0  0  0
M  END
> <minimizedAffinity>
-8.28531

$$$$
OCNT-2328617


 16 17  0  0  0  0  0  0  0  0999 V2000
   -5.7587   27.2933    3.0406 C   0  0  0  0  0  0  0  0  0  0  0  0
   -5.7945   25.8533    2.6003 C   0  0  0  0  0  0  0  0  0  0  0  0
   -5.7890   24.7782    3.5250 C   0  0  0  0  0  0  0  0  0  0  0  0
   -5.7416   25.0431    5.0110 C   0  0  0  0  0  0  0  0  0  0  0  0
   -5.8247   23.4398    3.0429 C   0  0  0  0  0  0  0  0  0  0  0  0
   -5.8602   23.2216    1.6495 C   0  0  0  0  0  0  0  0  0  0  0  0
   -5.8657   24.2813    0.7499 C   0  0  0  0  0  0  0  0  0  0  0  0
   -5.8326   25.5870    1.2225 C   0  0  0  0  0  0  0  0  0  0  0  0
   -5.8050   22.2318    3.9824 C   0  0  0  0  0  0  0  0  0  0  0  0
   -4.8344   21.1444    3.5177 C   0  0  0  0  0  0  0  0  0  0  0  0
   -7.2330   21.7710    4.0935 C   0  0  0  0  0  0  0  0  0  0  0  0
   -7.8805   20.7893    3.3670 C   0  0  0  0  0  0  0  0  0  0  0  0
   -9.1569   20.7568    3.8528 N   0  0  0  0  0  0  0  0  0  0  0  0
   -9.2525   21.7098    4.8245 C   0  0  0  0  0  0  0  0  0  0  0  0
   -8.1150   22.3428    4.9905 N   0  0  0  0  0  0  0  0  0  0  0  0
   -9.8990   20.1402    3.5531 H   0  0  0  0  0  0  0  0  0  0  0  0
  1  2  1  0  0  0
  2  3  2  0  0  0
  3  4  1  0  0  0
  3  5  1  0  0  0
  5  9  1  0  0  0
  9 10  1  0  0  0
  9 11  1  0  0  0
 11 12  2  0  0  0
 12 13  1  0  0  0
 13 14  1  0  0  0
 14 15  2  0  0  0
  5  6  2  0  0  0
  6  7  1  0  0  0
  7  8  2  0  0  0
  8  2  1  0  0  0
 15 11  1  0  0  0
 13 16  1  0  0  0
M  END
> <minimizedAffinity>
-6.75912

$$$$
OCNT-2328630


 20 19  0  0  0  0  0  0  0  0999 V2000
   -5.8939   25.8648    2.9726 C   0  0  0  0  0  0  0  0  0  0  0  0
   -4.6946   25.2330    2.2570 C   0  0  0  0  0  0  0  0  0  0  0  0
   -4.9211   24.8376    0.7941 C   0  0  0  0  0  0  0  0  0  0  0  0
   -6.2288   25.3327    0.1680 C   0  0  0  0  0  0  0  0  0  0  0  0
   -7.2327   24.2411   -0.2167 C   0  0  0  0  0  0  0  0  0  0  0  0
   -6.7953   22.8059    0.0813 C   0  0  0  0  0  0  0  0  0  0  0  0
   -7.2352   22.2219    1.4292 C   0  0  0  0  0  0  0  0  0  0  0  0
   -6.3186   21.1235    1.9825 C   0  0  0  0  0  0  0  0  0  0  0  0
   -5.5899   22.2046    4.1777 C   0  0  0  0  0  0  0  0  0  0  0  0
   -5.1520   21.6012    2.8510 C   0  0  0  0  0  0  0  0  0  0  0  0
   -5.5240   27.0925    3.8089 C   0  0  0  0  0  0  0  0  0  0  0  0
   -5.8850   28.4214    3.1345 C   0  0  0  0  0  0  0  0  0  0  0  0
   -6.2178   29.5379    4.1281 C   0  0  0  0  0  0  0  0  0  0  0  0
   -6.6892   29.0178    5.4901 C   0  0  0  0  0  0  0  0  0  0  0  0
   -6.3731   29.9037    6.6965 C   0  0  0  0  0  0  0  0  0  0  0  0
   -5.3087   29.4315    7.6936 C   0  0  0  0  0  0  0  0  0  0  0  0
   -3.8419   29.7604    7.3538 N   0  0  0  0  0  0  0  0  0  0  0  0
   -3.1063   29.9893    8.6850 C   0  0  0  0  0  0  0  0  0  0  0  0
   -3.1438   28.6202    6.6249 C   0  0  0  0  0  0  0  0  0  0  0  0
   -3.7106   31.0436    6.5430 C   0  0  0  0  0  0  0  0  0  0  0  0
  9 10  1  0  0  0
 10  8  1  0  0  0
  8  7  1  0  0  0
  7  6  1  0  0  0
  6  5  1  0  0  0
  5  4  1  0  0  0
  4  3  1  0  0  0
  3  2  1  0  0  0
  2  1  1  0  0  0
  1 11  1  0  0  0
 11 12  1  0  0  0
 12 13  1  0  0  0
 13 14  1  0  0  0
 14 15  1  0  0  0
 15 16  1  0  0  0
 16 17  1  0  0  0
 17 18  1  0  0  0
 17 19  1  0  0  0
 17 20  1  0  0  0
M  CHG 1  17   1
M  END
> <minimizedAffinity>
-6.10573

$$$$
OCNT-2328635


 22 22  0  0  0  0  0  0  0  0999 V2000
   -5.4172   30.1655    6.6486 N   0  0  0  0  0  0  0  0  0  0  0  0
   -5.1554   28.9082    6.7902 C   0  0  0  0  0  0  0  0  0  0  0  0
   -4.0201   28.3739    7.3363 N   0  0  0  0  0  0  0  0  0  0  0  0
   -3.4806   29.1371    7.7618 H   0  0  0  0  0  0  0  0  0  0  0  0
   -4.2367   27.7054    8.0660 H   0  0  0  0  0  0  0  0  0  0  0  0
   -4.3594   31.3144    8.3123 N   0  0  0  0  0  0  0  0  0  0  0  0
   -4.5850   31.1648    7.0607 C   0  0  0  0  0  0  0  0  0  0  0  0
   -4.0858   31.9009    6.0371 N   0  0  0  0  0  0  0  0  0  0  0  0
   -4.2066   31.4064    5.1613 H   0  0  0  0  0  0  0  0  0  0  0  0
   -3.1422   32.2246    6.1723 H   0  0  0  0  0  0  0  0  0  0  0  0
   -4.3633   33.5285    9.4082 C   0  0  0  0  0  0  0  0  0  0  0  0
   -3.5248   32.3615    8.9029 C   0  0  0  0  0  0  0  0  0  0  0  0
   -2.5305   31.8366    9.9309 C   0  0  0  0  0  0  0  0  0  0  0  0
   -5.9596   27.8750    6.3834 N   0  0  0  0  0  0  0  0  0  0  0  0
   -6.3609   27.3641    7.1571 H   0  0  0  0  0  0  0  0  0  0  0  0
   -5.9377   27.1663    5.1683 C   0  0  0  0  0  0  0  0  0  0  0  0
   -5.7995   27.8864    3.9689 C   0  0  0  0  0  0  0  0  0  0  0  0
   -5.7463   27.2349    2.7319 C   0  0  0  0  0  0  0  0  0  0  0  0
   -5.8175   25.8470    2.6803 C   0  0  0  0  0  0  0  0  0  0  0  0
   -5.7509   25.0407    1.1627 Cl  0  0  0  0  0  0  0  0  0  0  0  0
   -5.9341   25.1103    3.8537 C   0  0  0  0  0  0  0  0  0  0  0  0
   -5.9874   25.7690    5.0879 C   0  0  0  0  0  0  0  0  0  0  0  0
 11 12  1  0  0  0
 12 13  1  0  0  0
 12  6  1  0  0  0
  6  7  2  0  0  0
  7  8  1  0  0  0
  7  1  1  0  0  0
  1  2  2  0  0  0
  2  3  1  0  0  0
  2 14  1  0  0  0
 14 16  1  0  0  0
 16 17  1  0  0  0
 17 18  2  0  0  0
 18 19  1  0  0  0
 19 20  1  0  0  0
 19 21  2  0  0  0
 21 22  1  0  0  0
 22 16  2  0  0  0
  8  9  1  0  0  0
  8 10  1  0  0  0
  3  4  1  0  0  0
  3  5  1  0  0  0
 14 15  1  0  0  0
M  END
> <minimizedAffinity>
-7.57920

$$$$
OCNT-2328651


 22 23  0  0  0  0  0  0  0  0999 V2000
   -4.6262   29.1404    6.9996 C   0  0  0  0  0  0  0  0  0  0  0  0
   -5.6583   28.6364    7.4342 O   0  0  0  0  0  0  0  0  0  0  0  0
   -4.0839   28.8487    5.7497 N   0  0  0  0  0  0  0  0  0  0  0  0
   -3.6070   29.6272    5.3180 H   0  0  0  0  0  0  0  0  0  0  0  0
   -4.5308   27.8321    4.8679 C   0  0  0  0  0  0  0  0  0  0  0  0
   -5.5252   28.1800    3.9190 C   0  0  0  0  0  0  0  0  0  0  0  0
   -6.1231   29.5610    3.8434 C   0  0  0  0  0  0  0  0  0  0  0  0
   -6.0107   27.2065    3.0300 C   0  0  0  0  0  0  0  0  0  0  0  0
   -5.5210   25.9072    3.0639 C   0  0  0  0  0  0  0  0  0  0  0  0
   -4.5168   25.5737    3.9656 C   0  0  0  0  0  0  0  0  0  0  0  0
   -3.9854   26.5294    4.8526 C   0  0  0  0  0  0  0  0  0  0  0  0
   -2.8248   26.0817    5.7012 C   0  0  0  0  0  0  0  0  0  0  0  0
   -2.7824   29.7476    8.6539 N   0  0  0  0  0  0  0  0  0  0  0  0
   -2.2441   30.8552    9.4618 C   0  0  0  0  0  0  0  0  0  0  0  0
   -1.6773   32.0118    8.6310 C   0  0  0  0  0  0  0  0  0  0  0  0
   -2.6712   32.4997    7.5814 C   0  0  0  0  0  0  0  0  0  0  0  0
   -3.2769   31.3423    6.7877 C   0  0  0  0  0  0  0  0  0  0  0  0
   -3.8342   30.2660    7.7354 C   0  0  0  0  0  0  0  0  0  0  0  0
   -1.7251   28.9730    7.9811 C   0  0  0  0  0  0  0  0  0  0  0  0
   -0.3922   28.9292    8.7483 C   0  0  0  0  0  0  0  0  0  0  0  0
    0.6003   29.3297    6.4130 C   0  0  0  0  0  0  0  0  0  0  0  0
    0.8542   29.2273    7.9082 C   0  0  0  0  0  0  0  0  0  0  0  0
 21 22  1  0  0  0
 22 20  1  0  0  0
 20 19  1  0  0  0
 19 13  1  0  0  0
 13 14  1  0  0  0
 14 15  1  0  0  0
 15 16  1  0  0  0
 16 17  1  0  0  0
 17 18  1  0  0  0
 18  1  1  0  0  0
  1  2  2  0  0  0
  1  3  1  0  0  0
  3  5  1  0  0  0
  5  6  2  0  0  0
  6  7  1  0  0  0
  6  8  1  0  0  0
  8  9  2  0  0  0
  9 10  1  0  0  0
 10 11  2  0  0  0
 11 12  1  0  0  0
 18 13  1  0  0  0
 11  5  1  0  0  0
  3  4  1  0  0  0
M  END
> <minimizedAffinity>
-8.18104

$$$$
OCNT-2328652


 36 38  0  0  0  0  0  0  0  0999 V2000
   -2.6961   26.9519    5.8272 C   0  0  0  0  0  0  0  0  0  0  0  0
   -3.4351   27.9407    6.3048 N   0  0  0  0  0  0  0  0  0  0  0  0
   -4.6347   28.1053    5.7607 C   0  0  0  0  0  0  0  0  0  0  0  0
   -5.1238   27.3253    4.8041 N   0  0  0  0  0  0  0  0  0  0  0  0
   -4.3157   26.3433    4.3943 C   0  0  0  0  0  0  0  0  0  0  0  0
   -3.0938   26.1275    4.8774 N   0  0  0  0  0  0  0  0  0  0  0  0
   -4.8200   25.4172    3.3480 C   0  0  0  0  0  0  0  0  0  0  0  0
   -5.3235   25.8771    2.1302 C   0  0  0  0  0  0  0  0  0  0  0  0
   -5.7850   24.9633    1.1859 C   0  0  0  0  0  0  0  0  0  0  0  0
   -5.7407   23.6042    1.4724 C   0  0  0  0  0  0  0  0  0  0  0  0
   -5.2400   23.1889    2.7048 C   0  0  0  0  0  0  0  0  0  0  0  0
   -4.7807   24.0821    3.6278 N   0  0  0  0  0  0  0  0  0  0  0  0
   -5.1732   21.6981    3.0119 C   0  0  0  0  0  0  0  0  0  0  0  0
   -5.4908   20.9271    1.9286 F   0  0  0  0  0  0  0  0  0  0  0  0
   -3.9238   21.2977    3.3869 F   0  0  0  0  0  0  0  0  0  0  0  0
   -6.0128   21.2923    4.0061 F   0  0  0  0  0  0  0  0  0  0  0  0
   -1.4528   26.8029    6.3950 N   0  0  0  0  0  0  0  0  0  0  0  0
   -1.0876   25.8700    6.2564 H   0  0  0  0  0  0  0  0  0  0  0  0
   -0.4859   27.8916    6.3156 C   0  0  0  0  0  0  0  0  0  0  0  0
    0.9705   29.0209    8.1145 C   0  0  0  0  0  0  0  0  0  0  0  0
   -0.4482   28.7733    7.5933 C   0  0  0  0  0  0  0  0  0  0  0  0
   -1.1162   30.1208    7.2982 C   0  0  0  0  0  0  0  0  0  0  0  0
   -1.2143   28.1470    8.6354 O   0  0  0  0  0  0  0  0  0  0  0  0
   -0.6898   27.3919    8.9550 H   0  0  0  0  0  0  0  0  0  0  0  0
   -5.4964   29.1155    6.1890 N   0  0  0  0  0  0  0  0  0  0  0  0
   -6.0692   29.4138    5.4121 H   0  0  0  0  0  0  0  0  0  0  0  0
   -5.6159   29.8415    7.3802 C   0  0  0  0  0  0  0  0  0  0  0  0
   -6.2979   29.3859    8.5051 C   0  0  0  0  0  0  0  0  0  0  0  0
   -6.3849   30.2010    9.6222 C   0  0  0  0  0  0  0  0  0  0  0  0
   -5.8504   31.4363    9.6959 N   0  0  0  0  0  0  0  0  0  0  0  0
   -5.1869   31.8966    8.6016 C   0  0  0  0  0  0  0  0  0  0  0  0
   -5.0657   31.1282    7.4392 C   0  0  0  0  0  0  0  0  0  0  0  0
   -4.5876   33.2961    8.6176 C   0  0  0  0  0  0  0  0  0  0  0  0
   -4.6527   33.8750    9.8548 F   0  0  0  0  0  0  0  0  0  0  0  0
   -3.2624   33.2987    8.2898 F   0  0  0  0  0  0  0  0  0  0  0  0
   -5.1864   34.1784    7.7694 F   0  0  0  0  0  0  0  0  0  0  0  0
 20 21  1  0  0  0
 21 22  1  0  0  0
 21 23  1  0  0  0
 21 19  1  0  0  0
 19 17  1  0  0  0
 17  1  1  0  0  0
  1  2  1  0  0  0
  2  3  2  0  0  0
  3 25  1  0  0  0
 25 27  1  0  0  0
 27 28  2  0  0  0
 28 29  1  0  0  0
 29 30  2  0  0  0
 30 31  1  0  0  0
 31 33  1  0  0  0
 33 34  1  0  0  0
 33 35  1  0  0  0
 33 36  1  0  0  0
 31 32  2  0  0  0
  3  4  1  0  0  0
  4  5  2  0  0  0
  5  7  1  0  0  0
  7  8  1  0  0  0
  8  9  2  0  0  0
  9 10  1  0  0  0
 10 11  2  0  0  0
 11 13  1  0  0  0
 13 14  1  0  0  0
 13 15  1  0  0  0
 13 16  1  0  0  0
 11 12  1  0  0  0
  5  6  1  0  0  0
  6  1  2  0  0  0
 32 27  1  0  0  0
 12  7  2  0  0  0
 23 24  1  0  0  0
 17 18  1  0  0  0
 25 26  1  0  0  0
M  END
> <minimizedAffinity>
-10.48854

$$$$
OCNT-2328659


 21 23  0  0  0  0  0  0  0  0999 V2000
   -4.1330   29.4770    7.0730 C   0  0  0  0  0  0  0  0  0  0  0  0
   -3.2505   30.4245    7.4671 C   0  0  0  0  0  0  0  0  0  0  0  0
   -1.8238   30.0253    7.6362 C   0  0  0  0  0  0  0  0  0  0  0  0
   -1.0714   30.4105    8.7664 C   0  0  0  0  0  0  0  0  0  0  0  0
    0.2809   30.0124    8.8528 C   0  0  0  0  0  0  0  0  0  0  0  0
    0.8794   29.2497    7.8511 C   0  0  0  0  0  0  0  0  0  0  0  0
    0.1439   28.8851    6.7322 C   0  0  0  0  0  0  0  0  0  0  0  0
   -1.1910   29.2759    6.6231 C   0  0  0  0  0  0  0  0  0  0  0  0
   -1.5884   31.3083    9.8798 C   0  0  0  0  0  0  0  0  0  0  0  0
   -3.0042   31.3378   10.1074 O   0  0  0  0  0  0  0  0  0  0  0  0
   -3.6050   32.1656    9.1941 C   0  0  0  0  0  0  0  0  0  0  0  0
   -3.7337   31.7640    7.8610 C   0  0  0  0  0  0  0  0  0  0  0  0
   -4.3074   32.6494    6.9406 C   0  0  0  0  0  0  0  0  0  0  0  0
   -4.7892   33.8905    7.3659 C   0  0  0  0  0  0  0  0  0  0  0  0
   -4.6995   34.2547    8.7110 C   0  0  0  0  0  0  0  0  0  0  0  0
   -4.1086   33.3891    9.6309 C   0  0  0  0  0  0  0  0  0  0  0  0
   -5.6340   29.5732    6.9460 C   0  0  0  0  0  0  0  0  0  0  0  0
   -6.3811   28.9836    8.1589 C   0  0  0  0  0  0  0  0  0  0  0  0
   -6.1070   28.4649   10.4960 C   0  0  0  0  0  0  0  0  0  0  0  0
   -5.9574   29.5047    9.4750 N   0  0  0  0  0  0  0  0  0  0  0  0
   -6.7190   30.6932    9.8634 C   0  0  0  0  0  0  0  0  0  0  0  0
 19 20  1  0  0  0
 20 21  1  0  0  0
 20 18  1  0  0  0
 18 17  1  0  0  0
 17  1  1  0  0  0
  1  2  2  0  0  0
  2  3  1  0  0  0
  3  4  1  0  0  0
  4  5  2  0  0  0
  5  6  1  0  0  0
  6  7  2  0  0  0
  7  8  1  0  0  0
  4  9  1  0  0  0
  9 10  1  0  0  0
 10 11  1  0  0  0
 11 12  1  0  0  0
 12 13  2  0  0  0
 13 14  1  0  0  0
 14 15  2  0  0  0
 15 16  1  0  0  0
 12  2  1  0  0  0
  8  3  2  0  0  0
 16 11  2  0  0  0
M  END
> <minimizedAffinity>
-8.55668

$$$$
OCNT-2328663


 29 32  0  0  0  0  0  0  0  0999 V2000
   -1.4084   30.1469    9.0561 C   0  0  0  0  0  0  0  0  0  0  0  0
   -1.8605   29.2305    7.9580 C   0  0  0  0  0  0  0  0  0  0  0  0
   -3.1261   28.9742    7.5744 C   0  0  0  0  0  0  0  0  0  0  0  0
   -3.4867   28.0739    6.5906 O   0  0  0  0  0  0  0  0  0  0  0  0
   -2.5139   27.3834    5.9195 C   0  0  0  0  0  0  0  0  0  0  0  0
   -1.1622   27.5825    6.1767 C   0  0  0  0  0  0  0  0  0  0  0  0
   -0.1852   26.8956    5.4433 C   0  0  0  0  0  0  0  0  0  0  0  0
   -0.5650   26.0027    4.4419 C   0  0  0  0  0  0  0  0  0  0  0  0
   -1.9180   25.7903    4.1826 C   0  0  0  0  0  0  0  0  0  0  0  0
   -2.8940   26.4751    4.9248 C   0  0  0  0  0  0  0  0  0  0  0  0
   -0.7702   28.5274    7.2341 C   0  0  0  0  0  0  0  0  0  0  0  0
    0.4117   28.7240    7.4971 O   0  0  0  0  0  0  0  0  0  0  0  0
   -4.3008   29.6255    8.1779 C   0  0  0  0  0  0  0  0  0  0  0  0
   -4.9805   29.0352    9.2519 C   0  0  0  0  0  0  0  0  0  0  0  0
   -6.0832   29.6699    9.8279 C   0  0  0  0  0  0  0  0  0  0  0  0
   -6.5076   30.9055    9.3409 C   0  0  0  0  0  0  0  0  0  0  0  0
   -5.8261   31.5097    8.2858 C   0  0  0  0  0  0  0  0  0  0  0  0
   -4.7241   30.8764    7.7081 C   0  0  0  0  0  0  0  0  0  0  0  0
   -4.3274   26.2044    4.6799 C   0  0  0  0  0  0  0  0  0  0  0  0
   -4.9910   25.3877    5.2992 O   0  0  0  0  0  0  0  0  0  0  0  0
   -4.7637   27.0159    3.6863 O   0  0  0  0  0  0  0  0  0  0  0  0
   -5.4194   26.3480    2.5935 C   0  0  0  0  0  0  0  0  0  0  0  0
   -4.4750   25.3739    1.8614 C   0  0  0  0  0  0  0  0  0  0  0  0
   -5.1502   24.5616    0.8322 N   0  0  0  0  0  0  0  0  0  0  0  0
   -6.2355   25.3205    0.1969 C   0  0  0  0  0  0  0  0  0  0  0  0
   -7.0918   24.4296   -0.7035 C   0  0  0  0  0  0  0  0  0  0  0  0
   -7.7581   23.3016    0.0809 C   0  0  0  0  0  0  0  0  0  0  0  0
   -7.0626   23.0310    1.4137 C   0  0  0  0  0  0  0  0  0  0  0  0
   -5.5500   23.2313    1.3113 C   0  0  0  0  0  0  0  0  0  0  0  0
  1  2  1  0  0  0
  2  3  2  0  0  0
  3 13  1  0  0  0
 13 14  2  0  0  0
 14 15  1  0  0  0
 15 16  2  0  0  0
 16 17  1  0  0  0
 17 18  2  0  0  0
  3  4  1  0  0  0
  4  5  1  0  0  0
  5  6  1  0  0  0
  6  7  2  0  0  0
  7  8  1  0  0  0
  8  9  2  0  0  0
  9 10  1  0  0  0
 10 19  1  0  0  0
 19 20  2  0  0  0
 19 21  1  0  0  0
 21 22  1  0  0  0
 22 23  1  0  0  0
 23 24  1  0  0  0
 24 25  1  0  0  0
 25 26  1  0  0  0
 26 27  1  0  0  0
 27 28  1  0  0  0
 28 29  1  0  0  0
  6 11  1  0  0  0
 11 12  2  0  0  0
 11  2  1  0  0  0
 18 13  1  0  0  0
 10  5  2  0  0  0
 29 24  1  0  0  0
M  END
> <minimizedAffinity>
-10.17567

$$$$
OCNT-2328666


 27 30  0  0  0  0  0  0  0  0999 V2000
   -5.1777   26.2549    3.3090 C   0  0  0  0  0  0  0  0  0  0  0  0
   -7.8988   22.5334   -0.6168 Cl  0  0  0  0  0  0  0  0  0  0  0  0
   -7.1256   23.5849    0.5031 C   0  0  0  0  0  0  0  0  0  0  0  0
   -6.5349   24.7607    0.0521 C   0  0  0  0  0  0  0  0  0  0  0  0
   -5.9076   25.6149    0.9615 C   0  0  0  0  0  0  0  0  0  0  0  0
   -5.8537   25.3006    2.3337 C   0  0  0  0  0  0  0  0  0  0  0  0
   -6.4718   24.1121    2.7653 C   0  0  0  0  0  0  0  0  0  0  0  0
   -6.5028   23.6562    4.4322 Cl  0  0  0  0  0  0  0  0  0  0  0  0
   -7.0999   23.2570    1.8551 C   0  0  0  0  0  0  0  0  0  0  0  0
   -5.7840   27.6608    3.1730 C   0  0  0  0  0  0  0  0  0  0  0  0
   -6.0986   28.2277    4.4728 N   0  0  0  0  0  0  0  0  0  0  0  0
   -6.5459   27.5441    5.5679 C   0  0  0  0  0  0  0  0  0  0  0  0
   -6.6615   28.4969    6.5535 C   0  0  0  0  0  0  0  0  0  0  0  0
   -6.2975   29.7320    6.0817 N   0  0  0  0  0  0  0  0  0  0  0  0
   -5.9799   29.5422    4.8207 C   0  0  0  0  0  0  0  0  0  0  0  0
   -3.7741   26.3483    3.0113 O   0  0  0  0  0  0  0  0  0  0  0  0
   -2.9864   25.4216    3.7614 C   0  0  0  0  0  0  0  0  0  0  0  0
   -1.8305   26.1311    4.3968 C   0  0  0  0  0  0  0  0  0  0  0  0
   -0.5309   26.0440    3.9425 C   0  0  0  0  0  0  0  0  0  0  0  0
    0.5562   26.9651    4.8676 S   0  0  0  0  0  0  0  0  0  0  0  0
   -0.6883   27.5361    5.9193 C   0  0  0  0  0  0  0  0  0  0  0  0
   -0.5719   28.4160    7.0195 C   0  0  0  0  0  0  0  0  0  0  0  0
    0.9461   29.0853    7.4971 Cl  0  0  0  0  0  0  0  0  0  0  0  0
   -1.7120   28.7645    7.7487 C   0  0  0  0  0  0  0  0  0  0  0  0
   -2.9513   28.2517    7.4007 C   0  0  0  0  0  0  0  0  0  0  0  0
   -3.0674   27.3782    6.3174 C   0  0  0  0  0  0  0  0  0  0  0  0
   -1.9325   27.0033    5.5505 C   0  0  0  0  0  0  0  0  0  0  0  0
  2  3  1  0  0  0
  3  4  1  0  0  0
  4  5  2  0  0  0
  5  6  1  0  0  0
  6  1  1  0  0  0
  1 10  1  0  0  0
 10 11  1  0  0  0
 11 12  1  0  0  0
 12 13  2  0  0  0
 13 14  1  0  0  0
 14 15  2  0  0  0
  1 16  1  0  0  0
 16 17  1  0  0  0
 17 18  1  0  0  0
 18 19  2  0  0  0
 19 20  1  0  0  0
 20 21  1  0  0  0
 21 22  2  0  0  0
 22 23  1  0  0  0
 22 24  1  0  0  0
 24 25  2  0  0  0
 25 26  1  0  0  0
 26 27  2  0  0  0
  6  7  2  0  0  0
  7  8  1  0  0  0
  7  9  1  0  0  0
  9  3  2  0  0  0
 15 11  1  0  0  0
 27 18  1  0  0  0
 27 21  1  0  0  0
M  END
> <minimizedAffinity>
-8.45847

$$$$
OCNT-2328670


 19 20  0  0  0  0  0  0  0  0999 V2000
   -3.0364   25.8931    3.2071 N   0  0  0  0  0  0  0  0  0  0  0  0
   -4.1845   25.6878    2.6545 C   0  0  0  0  0  0  0  0  0  0  0  0
   -2.3069   25.6783    2.5230 H   0  0  0  0  0  0  0  0  0  0  0  0
   -4.3451   25.2153    1.3789 N   0  0  0  0  0  0  0  0  0  0  0  0
   -3.5207   25.2486    0.7956 H   0  0  0  0  0  0  0  0  0  0  0  0
   -5.4360   24.5210    0.8293 C   0  0  0  0  0  0  0  0  0  0  0  0
   -6.2996   25.1880   -0.0520 C   0  0  0  0  0  0  0  0  0  0  0  0
   -7.3824   24.5264   -0.6381 C   0  0  0  0  0  0  0  0  0  0  0  0
   -7.6168   23.1844   -0.3516 C   0  0  0  0  0  0  0  0  0  0  0  0
   -6.7699   22.5060    0.5202 C   0  0  0  0  0  0  0  0  0  0  0  0
   -5.6874   23.1703    1.1038 C   0  0  0  0  0  0  0  0  0  0  0  0
   -5.4064   25.9292    3.2274 N   0  0  0  0  0  0  0  0  0  0  0  0
   -5.8881   25.0911    3.5203 H   0  0  0  0  0  0  0  0  0  0  0  0
   -5.8554   27.0783    3.9112 C   0  0  0  0  0  0  0  0  0  0  0  0
   -5.8319   28.3118    3.2359 C   0  0  0  0  0  0  0  0  0  0  0  0
   -6.2193   29.4974    3.8688 C   0  0  0  0  0  0  0  0  0  0  0  0
   -6.6226   29.4741    5.1995 C   0  0  0  0  0  0  0  0  0  0  0  0
   -6.6293   28.2687    5.8939 C   0  0  0  0  0  0  0  0  0  0  0  0
   -6.2401   27.0853    5.2558 C   0  0  0  0  0  0  0  0  0  0  0  0
  1  2  2  0  0  0
  2  4  1  0  0  0
  4  6  1  0  0  0
  6  7  2  0  0  0
  7  8  1  0  0  0
  8  9  2  0  0  0
  9 10  1  0  0  0
 10 11  2  0  0  0
  2 12  1  0  0  0
 12 14  1  0  0  0
 14 15  2  0  0  0
 15 16  1  0  0  0
 16 17  2  0  0  0
 17 18  1  0  0  0
 18 19  2  0  0  0
 11  6  1  0  0  0
 19 14  1  0  0  0
  1  3  1  0  0  0
  4  5  1  0  0  0
 12 13  1  0  0  0
M  END
> <minimizedAffinity>
-7.85589

$$$$
OCNT-2328671


 28 30  0  0  0  0  0  0  0  0999 V2000
   -2.9099   28.7689    7.4692 C   0  0  0  0  0  0  0  0  0  0  0  0
   -4.1358   28.5923    6.8082 C   0  0  0  0  0  0  0  0  0  0  0  0
   -5.1015   29.5856    6.8550 C   0  0  0  0  0  0  0  0  0  0  0  0
   -4.8870   30.7444    7.5320 N   0  0  0  0  0  0  0  0  0  0  0  0
   -3.7230   30.9538    8.1662 C   0  0  0  0  0  0  0  0  0  0  0  0
   -3.5403   32.1609    8.8403 C   0  0  0  0  0  0  0  0  0  0  0  0
   -2.3378   32.4368    9.5145 C   0  0  0  0  0  0  0  0  0  0  0  0
   -1.3102   31.5091    9.5168 C   0  0  0  0  0  0  0  0  0  0  0  0
   -1.4804   30.2997    8.8494 C   0  0  0  0  0  0  0  0  0  0  0  0
   -2.6815   29.9892    8.1658 C   0  0  0  0  0  0  0  0  0  0  0  0
   -6.4127   29.3822    6.1054 C   0  0  0  0  0  0  0  0  0  0  0  0
   -6.9052   28.1172    6.2399 F   0  0  0  0  0  0  0  0  0  0  0  0
   -6.3284   29.6113    4.7643 F   0  0  0  0  0  0  0  0  0  0  0  0
   -7.4043   30.2097    6.5536 F   0  0  0  0  0  0  0  0  0  0  0  0
   -4.6501   33.1800    8.8421 C   0  0  0  0  0  0  0  0  0  0  0  0
   -5.8700   32.6574    9.1497 F   0  0  0  0  0  0  0  0  0  0  0  0
   -4.7904   33.8398    7.6588 F   0  0  0  0  0  0  0  0  0  0  0  0
   -4.4498   34.1668    9.7703 F   0  0  0  0  0  0  0  0  0  0  0  0
   -2.4282   26.4477    7.9684 O   0  0  0  0  0  0  0  0  0  0  0  0
   -1.8818   27.6467    7.3837 C   0  0  0  0  0  0  0  0  0  0  0  0
   -2.9259   26.7183    8.7593 H   0  0  0  0  0  0  0  0  0  0  0  0
   -1.3599   27.3036    5.9504 C   0  0  0  0  0  0  0  0  0  0  0  0
   -1.9054   25.9674    5.4248 C   0  0  0  0  0  0  0  0  0  0  0  0
   -1.4115   25.6893    4.0066 C   0  0  0  0  0  0  0  0  0  0  0  0
    0.1076   25.8038    3.9332 C   0  0  0  0  0  0  0  0  0  0  0  0
    0.5907   27.1359    4.5012 C   0  0  0  0  0  0  0  0  0  0  0  0
    0.1186   27.3320    5.8707 N   0  0  0  0  0  0  0  0  0  0  0  0
    0.4218   28.2493    6.2093 H   0  0  0  0  0  0  0  0  0  0  0  0
 19 20  1  0  0  0
 20  1  1  0  0  0
  1  2  2  0  0  0
  2  3  1  0  0  0
  3 11  1  0  0  0
 11 12  1  0  0  0
 11 13  1  0  0  0
 11 14  1  0  0  0
  3  4  2  0  0  0
  4  5  1  0  0  0
  5  6  2  0  0  0
  6 15  1  0  0  0
 15 16  1  0  0  0
 15 17  1  0  0  0
 15 18  1  0  0  0
  6  7  1  0  0  0
  7  8  2  0  0  0
  8  9  1  0  0  0
  9 10  2  0  0  0
 20 22  1  0  0  0
 22 23  1  0  0  0
 23 24  1  0  0  0
 24 25  1  0  0  0
 25 26  1  0  0  0
 26 27  1  0  0  0
 10  1  1  0  0  0
 27 22  1  0  0  0
 10  5  1  0  0  0
 19 21  1  0  0  0
 27 28  1  0  0  0
M  END
> <minimizedAffinity>
-10.44785

$$$$
OCNT-2328676


 16 16  0  0  0  0  0  0  0  0999 V2000
   -3.8374   29.1905    8.3069 C   0  0  0  0  0  0  0  0  0  0  0  0
   -4.4100   30.4282    8.0305 C   0  0  0  0  0  0  0  0  0  0  0  0
   -5.5781   30.5841    8.7686 N   0  0  0  0  0  0  0  0  0  0  0  0
   -5.7134   29.4818    9.4638 C   0  0  0  0  0  0  0  0  0  0  0  0
   -4.6930   28.6159    9.2194 N   0  0  0  0  0  0  0  0  0  0  0  0
   -4.5649   27.7018    9.6270 H   0  0  0  0  0  0  0  0  0  0  0  0
   -3.9140   31.4572    7.1128 C   0  0  0  0  0  0  0  0  0  0  0  0
   -3.0672   31.0347    6.1219 N   0  0  0  0  0  0  0  0  0  0  0  0
   -4.2204   32.6447    7.1765 O   0  0  0  0  0  0  0  0  0  0  0  0
   -2.7947   31.7166    5.4293 H   0  0  0  0  0  0  0  0  0  0  0  0
   -2.8878   30.0538    5.9560 H   0  0  0  0  0  0  0  0  0  0  0  0
   -1.6359   28.9985    8.3502 N   0  0  0  0  0  0  0  0  0  0  0  0
   -2.7065   28.5794    7.8707 N   0  0  0  0  0  0  0  0  0  0  0  0
   -0.6538   27.5018    6.6796 C   0  0  0  0  0  0  0  0  0  0  0  0
   -0.5281   28.3534    7.8571 N   0  0  0  0  0  0  0  0  0  0  0  0
    0.6930   29.1346    7.9620 C   0  0  0  0  0  0  0  0  0  0  0  0
 14 15  1  0  0  0
 15 16  1  0  0  0
 15 12  1  0  0  0
 12 13  2  0  0  0
 13  1  1  0  0  0
  1  2  2  0  0  0
  2  7  1  0  0  0
  7  8  1  0  0  0
  7  9  2  0  0  0
  2  3  1  0  0  0
  3  4  2  0  0  0
  4  5  1  0  0  0
  5  1  1  0  0  0
  8 10  1  0  0  0
  8 11  1  0  0  0
  5  6  1  0  0  0
M  END
> <minimizedAffinity>
-5.50277

$$$$
OCNT-2328688


 17 19  0  0  0  0  0  0  0  0999 V2000
   -3.2083   30.9440    5.7093 N   0  0  0  0  0  0  0  0  0  0  0  0
   -2.7109   31.0642    7.0409 C   0  0  0  0  0  0  0  0  0  0  0  0
   -3.3360   31.9870    7.9159 C   0  0  0  0  0  0  0  0  0  0  0  0
   -4.5170   32.6949    7.5883 C   0  0  0  0  0  0  0  0  0  0  0  0
   -5.1025   33.5811    8.4907 C   0  0  0  0  0  0  0  0  0  0  0  0
   -4.5184   33.7700    9.7346 C   0  0  0  0  0  0  0  0  0  0  0  0
   -3.3548   33.0710   10.0642 C   0  0  0  0  0  0  0  0  0  0  0  0
   -2.7525   32.1848    9.1796 C   0  0  0  0  0  0  0  0  0  0  0  0
   -1.6320   31.5606    9.5684 N   0  0  0  0  0  0  0  0  0  0  0  0
   -1.0133   30.7269    8.7211 C   0  0  0  0  0  0  0  0  0  0  0  0
    0.1647   30.1296    9.1501 C   0  0  0  0  0  0  0  0  0  0  0  0
    0.8985   29.2669    8.3348 C   0  0  0  0  0  0  0  0  0  0  0  0
    0.4496   28.9918    7.0528 C   0  0  0  0  0  0  0  0  0  0  0  0
   -0.7332   29.5759    6.5997 C   0  0  0  0  0  0  0  0  0  0  0  0
   -1.4913   30.4464    7.4251 C   0  0  0  0  0  0  0  0  0  0  0  0
   -2.8544   31.7128    5.1417 H   0  0  0  0  0  0  0  0  0  0  0  0
   -2.9689   30.0575    5.2789 H   0  0  0  0  0  0  0  0  0  0  0  0
  1  2  1  0  0  0
  2  3  2  0  0  0
  3  4  1  0  0  0
  4  5  2  0  0  0
  5  6  1  0  0  0
  6  7  2  0  0  0
  7  8  1  0  0  0
  8  9  2  0  0  0
  9 10  1  0  0  0
 10 11  2  0  0  0
 11 12  1  0  0  0
 12 13  2  0  0  0
 13 14  1  0  0  0
 14 15  2  0  0  0
 15  2  1  0  0  0
  8  3  1  0  0  0
 15 10  1  0  0  0
  1 16  1  0  0  0
  1 17  1  0  0  0
M  END
> <minimizedAffinity>
-7.99917

$$$$
OCNT-2328691


 14 14  0  0  0  0  0  0  0  0999 V2000
   -2.1154   31.4459    8.6455 C   0  0  0  0  0  0  0  0  0  0  0  0
   -2.7337   32.2907    9.5790 C   0  0  0  0  0  0  0  0  0  0  0  0
   -3.8629   33.0330    9.2267 C   0  0  0  0  0  0  0  0  0  0  0  0
   -4.3748   32.9283    7.9378 C   0  0  0  0  0  0  0  0  0  0  0  0
   -5.4754   33.6343    7.5510 O   0  0  0  0  0  0  0  0  0  0  0  0
   -3.7771   32.0955    6.9999 C   0  0  0  0  0  0  0  0  0  0  0  0
   -2.6485   31.3540    7.3521 C   0  0  0  0  0  0  0  0  0  0  0  0
   -5.7698   34.1790    8.2991 H   0  0  0  0  0  0  0  0  0  0  0  0
   -0.9013   30.6319    9.0350 C   0  0  0  0  0  0  0  0  0  0  0  0
    0.8831   29.1842    7.9963 C   0  0  0  0  0  0  0  0  0  0  0  0
   -0.6185   29.4537    8.0789 C   0  0  0  0  0  0  0  0  0  0  0  0
   -1.2899   28.2240    8.5193 N   0  0  0  0  0  0  0  0  0  0  0  0
   -1.1399   27.4897    7.8284 H   0  0  0  0  0  0  0  0  0  0  0  0
   -2.2976   28.3892    8.5374 H   0  0  0  0  0  0  0  0  0  0  0  0
 10 11  1  0  0  0
 11 12  1  0  0  0
 11  9  1  0  0  0
  9  1  1  0  0  0
  1  2  1  0  0  0
  2  3  2  0  0  0
  3  4  1  0  0  0
  4  5  1  0  0  0
  4  6  2  0  0  0
  6  7  1  0  0  0
  7  1  2  0  0  0
 12 13  1  0  0  0
 12 14  1  0  0  0
  5  8  1  0  0  0
M  END
> <minimizedAffinity>
-6.31316

$$$$
OCNT-2328703


 23 26  0  0  0  0  0  0  0  0999 V2000
   -4.8103   26.0304    4.6364 C   0  0  0  0  0  0  0  0  0  0  0  0
   -3.3000   26.1462    4.7771 C   0  0  0  0  0  0  0  0  0  0  0  0
   -2.7142   26.5798    5.9775 C   0  0  0  0  0  0  0  0  0  0  0  0
   -1.3274   26.6764    6.1001 C   0  0  0  0  0  0  0  0  0  0  0  0
   -0.5074   26.3387    5.0257 C   0  0  0  0  0  0  0  0  0  0  0  0
   -1.0725   25.9034    3.8286 C   0  0  0  0  0  0  0  0  0  0  0  0
   -2.4598   25.8062    3.7043 C   0  0  0  0  0  0  0  0  0  0  0  0
   -5.5104   27.3796    4.7562 C   0  0  0  0  0  0  0  0  0  0  0  0
   -6.1969   27.7597    5.9206 C   0  0  0  0  0  0  0  0  0  0  0  0
   -6.8368   28.9981    6.0018 C   0  0  0  0  0  0  0  0  0  0  0  0
   -6.8046   29.8730    4.9188 C   0  0  0  0  0  0  0  0  0  0  0  0
   -6.1347   29.5102    3.7529 C   0  0  0  0  0  0  0  0  0  0  0  0
   -5.4935   28.2726    3.6708 C   0  0  0  0  0  0  0  0  0  0  0  0
   -5.1157   25.4288    3.3672 O   0  0  0  0  0  0  0  0  0  0  0  0
   -8.3418   20.9530    3.1482 C   0  0  0  0  0  0  0  0  0  0  0  0
   -7.4520   22.1107    3.1978 N   0  0  0  0  0  0  0  0  0  0  0  0
   -7.0199   22.5597    1.8596 C   0  0  0  0  0  0  0  0  0  0  0  0
   -5.9174   21.5736    1.4578 C   0  0  0  0  0  0  0  0  0  0  0  0
   -5.3415   21.0861    2.7808 C   0  0  0  0  0  0  0  0  0  0  0  0
   -6.1626   21.8152    3.8505 C   0  0  0  0  0  0  0  0  0  0  0  0
   -5.5055   23.1567    4.2303 C   0  0  0  0  0  0  0  0  0  0  0  0
   -6.0573   24.3518    3.4328 C   0  0  0  0  0  0  0  0  0  0  0  0
   -6.4540   23.9866    1.9933 C   0  0  0  0  0  0  0  0  0  0  0  0
 15 16  1  0  0  0
 16 17  1  0  0  0
 17 18  1  0  0  0
 18 19  1  0  0  0
 19 20  1  0  0  0
 20 21  1  0  0  0
 21 22  1  0  0  0
 22 14  1  0  0  0
 14  1  1  0  0  0
  1  2  1  0  0  0
  2  3  2  0  0  0
  3  4  1  0  0  0
  4  5  2  0  0  0
  5  6  1  0  0  0
  6  7  2  0  0  0
  1  8  1  0  0  0
  8  9  2  0  0  0
  9 10  1  0  0  0
 10 11  2  0  0  0
 11 12  1  0  0  0
 12 13  2  0  0  0
 22 23  1  0  0  0
 20 16  1  0  0  0
  7  2  1  0  0  0
 13  8  1  0  0  0
 23 17  1  0  0  0
M  END
> <minimizedAffinity>
-8.82772

$$$$
OCNT-2328704


 26 27  0  0  0  0  0  0  0  0999 V2000
   -2.8642   27.8452    6.2982 N   0  0  0  0  0  0  0  0  0  0  0  0
   -2.0478   27.6990    7.2942 C   0  0  0  0  0  0  0  0  0  0  0  0
   -1.5777   28.8555    8.0285 C   0  0  0  0  0  0  0  0  0  0  0  0
   -0.2517   29.0491    8.3735 C   0  0  0  0  0  0  0  0  0  0  0  0
   -0.1506   30.2286    9.0597 N   0  0  0  0  0  0  0  0  0  0  0  0
   -1.3862   30.8197    9.1723 C   0  0  0  0  0  0  0  0  0  0  0  0
   -1.7550   32.0219    9.7859 C   0  0  0  0  0  0  0  0  0  0  0  0
   -3.1069   32.3873    9.7521 C   0  0  0  0  0  0  0  0  0  0  0  0
   -4.0557   31.5798    9.1282 C   0  0  0  0  0  0  0  0  0  0  0  0
   -3.6595   30.3801    8.5206 C   0  0  0  0  0  0  0  0  0  0  0  0
   -2.3046   29.9827    8.5363 C   0  0  0  0  0  0  0  0  0  0  0  0
    0.7048   30.6155    9.4345 H   0  0  0  0  0  0  0  0  0  0  0  0
   -5.3969   31.8429    9.0373 O   0  0  0  0  0  0  0  0  0  0  0  0
   -6.2839   30.8625    9.5588 C   0  0  0  0  0  0  0  0  0  0  0  0
   -3.2319   26.6615    5.7049 N   0  0  0  0  0  0  0  0  0  0  0  0
   -3.0341   25.8479    6.2860 H   0  0  0  0  0  0  0  0  0  0  0  0
   -2.9934   26.3591    4.3852 C   0  0  0  0  0  0  0  0  0  0  0  0
   -2.0231   25.6107    3.9831 N   0  0  0  0  0  0  0  0  0  0  0  0
   -1.5639   25.2704    4.8365 H   0  0  0  0  0  0  0  0  0  0  0  0
   -3.8977   26.9475    3.5539 N   0  0  0  0  0  0  0  0  0  0  0  0
   -3.7914   26.6692    2.5859 H   0  0  0  0  0  0  0  0  0  0  0  0
   -5.2862   27.1403    3.9432 C   0  0  0  0  0  0  0  0  0  0  0  0
   -5.9502   28.2622    3.1425 C   0  0  0  0  0  0  0  0  0  0  0  0
   -6.1648   29.5713    3.9119 C   0  0  0  0  0  0  0  0  0  0  0  0
   -7.2929   29.6974    6.1608 C   0  0  0  0  0  0  0  0  0  0  0  0
   -5.9901   29.4259    5.4239 C   0  0  0  0  0  0  0  0  0  0  0  0
 25 26  1  0  0  0
 26 24  1  0  0  0
 24 23  1  0  0  0
 23 22  1  0  0  0
 22 20  1  0  0  0
 20 17  1  0  0  0
 17 18  2  0  0  0
 17 15  1  0  0  0
 15  1  1  0  0  0
  1  2  2  0  0  0
  2  3  1  0  0  0
  3  4  2  0  0  0
  4  5  1  0  0  0
  5  6  1  0  0  0
  6  7  2  0  0  0
  7  8  1  0  0  0
  8  9  2  0  0  0
  9 13  1  0  0  0
 13 14  1  0  0  0
  9 10  1  0  0  0
 10 11  2  0  0  0
 11  3  1  0  0  0
 11  6  1  0  0  0
 20 21  1  0  0  0
 18 19  1  0  0  0
 15 16  1  0  0  0
  5 12  1  0  0  0
M  END
> <minimizedAffinity>
-7.62719

$$$$
OCNT-2328714


 20 21  0  0  0  0  0  0  0  0999 V2000
   -6.1662   23.7566    4.5000 C   0  0  0  0  0  0  0  0  0  0  0  0
   -5.4095   22.0613    6.9035 C   0  0  0  0  0  0  0  0  0  0  0  0
   -6.8408   22.4100    6.5944 C   0  0  0  0  0  0  0  0  0  0  0  0
   -7.2083   23.1903    5.4707 C   0  0  0  0  0  0  0  0  0  0  0  0
   -8.5782   23.4438    5.2552 C   0  0  0  0  0  0  0  0  0  0  0  0
   -9.5573   22.9398    6.1114 C   0  0  0  0  0  0  0  0  0  0  0  0
   -9.1896   22.1635    7.2019 C   0  0  0  0  0  0  0  0  0  0  0  0
   -7.8426   21.8976    7.4392 C   0  0  0  0  0  0  0  0  0  0  0  0
   -6.1556   23.0718    3.1401 C   0  0  0  0  0  0  0  0  0  0  0  0
   -5.8736   21.6991    3.0397 C   0  0  0  0  0  0  0  0  0  0  0  0
   -5.8525   21.0650    1.7956 C   0  0  0  0  0  0  0  0  0  0  0  0
   -6.1035   21.7950    0.6357 C   0  0  0  0  0  0  0  0  0  0  0  0
   -6.3703   23.1598    0.7169 C   0  0  0  0  0  0  0  0  0  0  0  0
   -6.3917   23.7952    1.9596 C   0  0  0  0  0  0  0  0  0  0  0  0
   -6.3802   25.1531    4.2378 O   0  0  0  0  0  0  0  0  0  0  0  0
   -5.5547   26.0286    5.0060 C   0  0  0  0  0  0  0  0  0  0  0  0
   -4.0757   25.5882    5.0615 C   0  0  0  0  0  0  0  0  0  0  0  0
   -3.1678   26.3250    4.1606 N   0  0  0  0  0  0  0  0  0  0  0  0
   -1.7735   26.0716    4.5247 C   0  0  0  0  0  0  0  0  0  0  0  0
   -3.3918   25.9981    2.7540 C   0  0  0  0  0  0  0  0  0  0  0  0
  2  3  1  0  0  0
  3  4  1  0  0  0
  4  1  1  0  0  0
  1 15  1  0  0  0
 15 16  1  0  0  0
 16 17  1  0  0  0
 17 18  1  0  0  0
 18 19  1  0  0  0
 18 20  1  0  0  0
  1  9  1  0  0  0
  9 10  2  0  0  0
 10 11  1  0  0  0
 11 12  2  0  0  0
 12 13  1  0  0  0
 13 14  2  0  0  0
  4  5  2  0  0  0
  5  6  1  0  0  0
  6  7  2  0  0  0
  7  8  1  0  0  0
  8  3  2  0  0  0
 14  9  1  0  0  0
M  END
> <minimizedAffinity>
-7.28728

$$$$
OCNT-2328727


 27 29  0  0  0  0  0  0  0  0999 V2000
   -7.0645   23.9825    4.2356 C   0  0  0  0  0  0  0  0  0  0  0  0
   -7.9568   23.2589    5.2540 C   0  0  0  0  0  0  0  0  0  0  0  0
   -9.3353   23.1372    4.9929 C   0  0  0  0  0  0  0  0  0  0  0  0
  -10.1858   22.5054    5.9035 C   0  0  0  0  0  0  0  0  0  0  0  0
   -9.6689   21.9942    7.0903 C   0  0  0  0  0  0  0  0  0  0  0  0
  -10.7146   21.2170    8.2140 Cl  0  0  0  0  0  0  0  0  0  0  0  0
   -8.3116   22.1134    7.3759 C   0  0  0  0  0  0  0  0  0  0  0  0
   -7.4607   22.7468    6.4653 C   0  0  0  0  0  0  0  0  0  0  0  0
   -4.1662   27.1896    4.9656 N   0  0  0  0  0  0  0  0  0  0  0  0
   -5.6263   27.3193    4.7755 C   0  0  0  0  0  0  0  0  0  0  0  0
   -6.4818   26.1515    5.3197 C   0  0  0  0  0  0  0  0  0  0  0  0
   -6.0430   24.8247    4.8778 N   0  0  0  0  0  0  0  0  0  0  0  0
   -4.6691   24.7753    4.3823 C   0  0  0  0  0  0  0  0  0  0  0  0
   -3.7648   25.7777    5.1358 C   0  0  0  0  0  0  0  0  0  0  0  0
   -3.6934   28.0321    6.0774 C   0  0  0  0  0  0  0  0  0  0  0  0
   -4.7258   29.0581    6.5739 C   0  0  0  0  0  0  0  0  0  0  0  0
   -4.7959   28.9821    8.0021 O   0  0  0  0  0  0  0  0  0  0  0  0
   -6.1342   28.9887    8.4950 C   0  0  0  0  0  0  0  0  0  0  0  0
   -5.6170   27.9530   10.6329 O   0  0  0  0  0  0  0  0  0  0  0  0
   -6.1930   29.0990   10.0175 C   0  0  0  0  0  0  0  0  0  0  0  0
   -4.6645   27.9648   10.4337 H   0  0  0  0  0  0  0  0  0  0  0  0
   -6.6302   23.1045    3.0530 C   0  0  0  0  0  0  0  0  0  0  0  0
   -6.7334   23.6363    1.7512 C   0  0  0  0  0  0  0  0  0  0  0  0
   -6.3733   22.8859    0.6297 C   0  0  0  0  0  0  0  0  0  0  0  0
   -5.9084   21.5842    0.7850 C   0  0  0  0  0  0  0  0  0  0  0  0
   -5.8095   21.0340    2.0595 C   0  0  0  0  0  0  0  0  0  0  0  0
   -6.1717   21.7852    3.1818 C   0  0  0  0  0  0  0  0  0  0  0  0
 19 20  1  0  0  0
 20 18  1  0  0  0
 18 17  1  0  0  0
 17 16  1  0  0  0
 16 15  1  0  0  0
 15  9  1  0  0  0
  9 10  1  0  0  0
 10 11  1  0  0  0
 11 12  1  0  0  0
 12  1  1  0  0  0
  1 22  1  0  0  0
 22 23  2  0  0  0
 23 24  1  0  0  0
 24 25  2  0  0  0
 25 26  1  0  0  0
 26 27  2  0  0  0
  1  2  1  0  0  0
  2  3  1  0  0  0
  3  4  2  0  0  0
  4  5  1  0  0  0
  5  6  1  0  0  0
  5  7  2  0  0  0
  7  8  1  0  0  0
 12 13  1  0  0  0
 13 14  1  0  0  0
 14  9  1  0  0  0
 27 22  1  0  0  0
  8  2  2  0  0  0
 19 21  1  0  0  0
M  END
> <minimizedAffinity>
-7.93074

$$$$
OCNT-2328729


 16 16  0  0  0  0  0  0  0  0999 V2000
   -1.3884   31.1503    8.1186 C   0  0  0  0  0  0  0  0  0  0  0  0
   -0.4968   30.4590    8.9572 C   0  0  0  0  0  0  0  0  0  0  0  0
   -0.0233   29.1908    8.6124 C   0  0  0  0  0  0  0  0  0  0  0  0
   -0.4452   28.6059    7.4243 C   0  0  0  0  0  0  0  0  0  0  0  0
   -0.0088   27.3698    7.0471 O   0  0  0  0  0  0  0  0  0  0  0  0
   -1.3311   29.2642    6.5804 C   0  0  0  0  0  0  0  0  0  0  0  0
   -1.7996   30.5302    6.9322 C   0  0  0  0  0  0  0  0  0  0  0  0
   -2.6770   31.1791    6.1098 O   0  0  0  0  0  0  0  0  0  0  0  0
    0.5991   27.0361    7.7275 H   0  0  0  0  0  0  0  0  0  0  0  0
   -2.8536   30.6159    5.3386 H   0  0  0  0  0  0  0  0  0  0  0  0
   -1.8785   32.5228    8.5214 C   0  0  0  0  0  0  0  0  0  0  0  0
   -2.9961   32.5023    9.5729 C   0  0  0  0  0  0  0  0  0  0  0  0
   -4.2228   33.3601    9.2403 C   0  0  0  0  0  0  0  0  0  0  0  0
   -5.2445   32.7242    8.2927 C   0  0  0  0  0  0  0  0  0  0  0  0
   -6.3951   30.8683    9.5486 C   0  0  0  0  0  0  0  0  0  0  0  0
   -5.3815   31.2115    8.4675 C   0  0  0  0  0  0  0  0  0  0  0  0
 15 16  1  0  0  0
 16 14  1  0  0  0
 14 13  1  0  0  0
 13 12  1  0  0  0
 12 11  1  0  0  0
 11  1  1  0  0  0
  1  2  1  0  0  0
  2  3  2  0  0  0
  3  4  1  0  0  0
  4  5  1  0  0  0
  4  6  2  0  0  0
  6  7  1  0  0  0
  7  8  1  0  0  0
  7  1  2  0  0  0
  5  9  1  0  0  0
  8 10  1  0  0  0
M  END
> <minimizedAffinity>
-6.90970

$$$$
OCNT-2328731


 36 38  0  0  0  0  0  0  0  0999 V2000
   -5.2549   30.5333    8.5611 C   0  0  0  0  0  0  0  0  0  0  0  0
   -6.1620   29.7415    9.1773 C   0  0  0  0  0  0  0  0  0  0  0  0
   -6.5705   29.8787   10.6205 C   0  0  0  0  0  0  0  0  0  0  0  0
   -6.8282   28.7690    8.4452 N   0  0  0  0  0  0  0  0  0  0  0  0
   -6.7490   28.6366    7.0657 C   0  0  0  0  0  0  0  0  0  0  0  0
   -7.7036   27.6552    6.4342 C   0  0  0  0  0  0  0  0  0  0  0  0
   -5.8726   29.3941    6.3688 C   0  0  0  0  0  0  0  0  0  0  0  0
   -4.9582   30.3932    7.0719 C   0  0  0  0  0  0  0  0  0  0  0  0
   -7.5695   28.2594    8.9189 H   0  0  0  0  0  0  0  0  0  0  0  0
   -3.4801   30.0568    6.8433 C   0  0  0  0  0  0  0  0  0  0  0  0
   -3.0614   28.7171    6.8100 C   0  0  0  0  0  0  0  0  0  0  0  0
   -1.7179   28.4332    6.5494 C   0  0  0  0  0  0  0  0  0  0  0  0
   -0.7741   29.4375    6.3244 C   0  0  0  0  0  0  0  0  0  0  0  0
   -1.1866   30.7665    6.3726 C   0  0  0  0  0  0  0  0  0  0  0  0
   -2.5274   31.0741    6.6283 C   0  0  0  0  0  0  0  0  0  0  0  0
   -1.2912   27.0511    6.4904 N   0  0  0  0  0  0  0  0  0  0  0  0
   -2.0026   26.2170    7.0673 O   0  0  0  0  0  0  0  0  0  0  0  0
   -0.2517   26.8066    5.8625 O   0  0  0  0  0  0  0  0  0  0  0  0
   -4.5069   31.6169    9.2359 C   0  0  0  0  0  0  0  0  0  0  0  0
   -3.4925   31.4212    9.8915 O   0  0  0  0  0  0  0  0  0  0  0  0
   -4.2705   33.9151    8.9134 C   0  0  0  0  0  0  0  0  0  0  0  0
   -5.1487   32.8040    9.0941 O   0  0  0  0  0  0  0  0  0  0  0  0
   -5.7703   29.2969    4.8930 C   0  0  0  0  0  0  0  0  0  0  0  0
   -6.1193   30.1661    4.1086 O   0  0  0  0  0  0  0  0  0  0  0  0
   -5.1857   28.1218    4.5556 O   0  0  0  0  0  0  0  0  0  0  0  0
   -5.7256   27.4622    3.3956 C   0  0  0  0  0  0  0  0  0  0  0  0
   -5.3092   25.9820    3.3714 C   0  0  0  0  0  0  0  0  0  0  0  0
   -4.1767   25.6856    2.4756 N   0  0  0  0  0  0  0  0  0  0  0  0
   -2.8909   25.9080    3.1439 C   0  0  0  0  0  0  0  0  0  0  0  0
   -4.2786   24.2934    1.9937 C   0  0  0  0  0  0  0  0  0  0  0  0
   -5.4865   24.0540    1.1146 C   0  0  0  0  0  0  0  0  0  0  0  0
   -5.9357   25.0459    0.2329 C   0  0  0  0  0  0  0  0  0  0  0  0
   -7.0397   24.8144   -0.5882 C   0  0  0  0  0  0  0  0  0  0  0  0
   -7.7052   23.5908   -0.5381 C   0  0  0  0  0  0  0  0  0  0  0  0
   -7.2668   22.5962    0.3330 C   0  0  0  0  0  0  0  0  0  0  0  0
   -6.1626   22.8245    1.1538 C   0  0  0  0  0  0  0  0  0  0  0  0
 21 22  1  0  0  0
 22 19  1  0  0  0
 19 20  2  0  0  0
 19  1  1  0  0  0
  1  2  2  0  0  0
  2  3  1  0  0  0
  2  4  1  0  0  0
  4  5  1  0  0  0
  5  6  1  0  0  0
  5  7  2  0  0  0
  7 23  1  0  0  0
 23 24  2  0  0  0
 23 25  1  0  0  0
 25 26  1  0  0  0
 26 27  1  0  0  0
 27 28  1  0  0  0
 28 29  1  0  0  0
 28 30  1  0  0  0
 30 31  1  0  0  0
 31 32  2  0  0  0
 32 33  1  0  0  0
 33 34  2  0  0  0
 34 35  1  0  0  0
 35 36  2  0  0  0
  7  8  1  0  0  0
  8 10  1  0  0  0
 10 11  1  0  0  0
 11 12  2  0  0  0
 12 16  1  0  0  0
 16 17  2  0  0  0
 16 18  1  0  0  0
 12 13  1  0  0  0
 13 14  2  0  0  0
 14 15  1  0  0  0
  8  1  1  0  0  0
 15 10  2  0  0  0
 36 31  1  0  0  0
  4  9  1  0  0  0
M  CHG 1  16   1
M  CHG 1  18  -1
M  END
> <minimizedAffinity>
-8.95571

$$$$
OCNT-2328732


 14 13  0  0  0  0  0  0  0  0999 V2000
   -1.0037   29.9556    6.9525 C   0  0  0  0  0  0  0  0  0  0  0  0
   -0.1934   29.8850    8.6114 S   0  0  0  0  0  0  0  0  0  0  0  0
    0.7754   29.0229    8.2654 H   0  0  0  0  0  0  0  0  0  0  0  0
   -1.7327   32.1865    7.6625 O   0  0  0  0  0  0  0  0  0  0  0  0
   -1.8538   31.2116    6.9370 C   0  0  0  0  0  0  0  0  0  0  0  0
   -2.8194   31.1833    5.9941 O   0  0  0  0  0  0  0  0  0  0  0  0
   -3.2581   32.0578    6.0599 H   0  0  0  0  0  0  0  0  0  0  0  0
   -1.8665   28.7168    6.6704 C   0  0  0  0  0  0  0  0  0  0  0  0
   -0.8486   27.2259    6.2704 S   0  0  0  0  0  0  0  0  0  0  0  0
   -0.5347   27.5979    5.0175 H   0  0  0  0  0  0  0  0  0  0  0  0
   -2.7513   28.3371    7.8421 C   0  0  0  0  0  0  0  0  0  0  0  0
   -3.6888   28.9910    8.2729 O   0  0  0  0  0  0  0  0  0  0  0  0
   -2.4702   27.1355    8.3878 O   0  0  0  0  0  0  0  0  0  0  0  0
   -3.1826   27.0077    9.0521 H   0  0  0  0  0  0  0  0  0  0  0  0
  4  5  2  0  0  0
  5  6  1  0  0  0
  5  1  1  0  0  0
  1  2  1  0  0  0
  1  8  1  0  0  0
  8  9  1  0  0  0
  8 11  1  0  0  0
 11 12  2  0  0  0
 11 13  1  0  0  0
  6  7  1  0  0  0
  2  3  1  0  0  0
  9 10  1  0  0  0
 13 14  1  0  0  0
M  END
> <minimizedAffinity>
-4.71553

$$$$
OCNT-2328745


 15 15  0  0  0  0  0  0  0  0999 V2000
   -3.8830   25.6017    2.0349 N   0  0  0  0  0  0  0  0  0  0  0  0
   -4.4535   26.1256    1.3827 H   0  0  0  0  0  0  0  0  0  0  0  0
   -2.4517   26.5631    5.2487 C   0  0  0  0  0  0  0  0  0  0  0  0
   -2.7507   25.8748    4.0145 N   0  0  0  0  0  0  0  0  0  0  0  0
   -3.5953   26.3200    3.1641 C   0  0  0  0  0  0  0  0  0  0  0  0
   -4.3607   27.4513    3.1113 N   0  0  0  0  0  0  0  0  0  0  0  0
   -5.7993   27.5018    3.2014 C   0  0  0  0  0  0  0  0  0  0  0  0
   -3.9356   28.1837    3.6697 H   0  0  0  0  0  0  0  0  0  0  0  0
   -4.3214   24.2196    2.1321 C   0  0  0  0  0  0  0  0  0  0  0  0
   -5.4700   23.9971    1.1761 C   0  0  0  0  0  0  0  0  0  0  0  0
   -6.1226   22.7572    1.1164 C   0  0  0  0  0  0  0  0  0  0  0  0
   -7.1951   22.5642    0.2438 C   0  0  0  0  0  0  0  0  0  0  0  0
   -7.6299   23.6084   -0.5708 C   0  0  0  0  0  0  0  0  0  0  0  0
   -6.9955   24.8480   -0.5129 C   0  0  0  0  0  0  0  0  0  0  0  0
   -5.9226   25.0430    0.3579 C   0  0  0  0  0  0  0  0  0  0  0  0
  3  4  1  0  0  0
  4  5  2  0  0  0
  5  6  1  0  0  0
  6  7  1  0  0  0
  5  1  1  0  0  0
  1  9  1  0  0  0
  9 10  1  0  0  0
 10 11  2  0  0  0
 11 12  1  0  0  0
 12 13  2  0  0  0
 13 14  1  0  0  0
 14 15  2  0  0  0
 15 10  1  0  0  0
  6  8  1  0  0  0
  1  2  1  0  0  0
M  END
> <minimizedAffinity>
-6.33203

$$$$
OCNT-2328750


 19 18  0  0  0  0  0  0  0  0999 V2000
   -2.1561   28.1807    7.9295 C   0  0  0  0  0  0  0  0  0  0  0  0
   -2.4879   26.7947    8.1271 O   0  0  0  0  0  0  0  0  0  0  0  0
   -2.6658   26.4435    7.2316 H   0  0  0  0  0  0  0  0  0  0  0  0
   -3.4309   28.9553    7.5313 C   0  0  0  0  0  0  0  0  0  0  0  0
   -4.3343   28.0828    6.8223 O   0  0  0  0  0  0  0  0  0  0  0  0
   -5.1091   28.6528    6.6398 H   0  0  0  0  0  0  0  0  0  0  0  0
   -4.1485   29.5596    8.7559 C   0  0  0  0  0  0  0  0  0  0  0  0
   -6.0936   28.9210   10.0284 C   0  0  0  0  0  0  0  0  0  0  0  0
   -4.7789   28.4891    9.5575 N   0  0  0  0  0  0  0  0  0  0  0  0
   -4.1985   28.3376   10.3854 H   0  0  0  0  0  0  0  0  0  0  0  0
   -1.0711   28.2763    6.8294 C   0  0  0  0  0  0  0  0  0  0  0  0
   -0.2588   27.0902    6.8529 O   0  0  0  0  0  0  0  0  0  0  0  0
   -0.8887   26.3340    6.8451 H   0  0  0  0  0  0  0  0  0  0  0  0
   -0.1814   29.5136    7.0216 C   0  0  0  0  0  0  0  0  0  0  0  0
    0.8827   29.5012    6.0564 O   0  0  0  0  0  0  0  0  0  0  0  0
    1.5617   30.1084    6.4161 H   0  0  0  0  0  0  0  0  0  0  0  0
    0.4420   29.5672    8.4212 C   0  0  0  0  0  0  0  0  0  0  0  0
    1.7056   28.8907    8.3858 O   0  0  0  0  0  0  0  0  0  0  0  0
    2.3316   29.4899    7.9407 H   0  0  0  0  0  0  0  0  0  0  0  0
  8  9  1  0  0  0
  9  7  1  0  0  0
  7  4  1  0  0  0
  4  5  1  0  0  0
  4  1  1  0  0  0
  1  2  1  0  0  0
  1 11  1  0  0  0
 11 12  1  0  0  0
 11 14  1  0  0  0
 14 15  1  0  0  0
 14 17  1  0  0  0
 17 18  1  0  0  0
  9 10  1  0  0  0
  5  6  1  0  0  0
  2  3  1  0  0  0
 12 13  1  0  0  0
 15 16  1  0  0  0
 18 19  1  0  0  0
M  END
> <minimizedAffinity>
-5.78592

$$$$
OCNT-2328763


 23 25  0  0  0  0  0  0  0  0999 V2000
   -4.7530   25.9640    3.7471 C   0  0  0  0  0  0  0  0  0  0  0  0
   -7.9234   22.8728   -0.3741 Cl  0  0  0  0  0  0  0  0  0  0  0  0
   -7.0255   23.7508    0.8014 C   0  0  0  0  0  0  0  0  0  0  0  0
   -6.2566   24.8443    0.4087 C   0  0  0  0  0  0  0  0  0  0  0  0
   -5.5271   25.5594    1.3620 C   0  0  0  0  0  0  0  0  0  0  0  0
   -5.5626   25.1875    2.7171 C   0  0  0  0  0  0  0  0  0  0  0  0
   -6.3419   24.0788    3.0910 C   0  0  0  0  0  0  0  0  0  0  0  0
   -7.0713   23.3644    2.1384 C   0  0  0  0  0  0  0  0  0  0  0  0
   -5.4819   27.2055    4.2443 C   0  0  0  0  0  0  0  0  0  0  0  0
   -5.5458   28.3824    3.4794 C   0  0  0  0  0  0  0  0  0  0  0  0
   -6.2214   29.5085    3.9553 C   0  0  0  0  0  0  0  0  0  0  0  0
   -6.8502   29.4718    5.1983 C   0  0  0  0  0  0  0  0  0  0  0  0
   -6.8053   28.3098    5.9660 C   0  0  0  0  0  0  0  0  0  0  0  0
   -6.1285   27.1833    5.4924 C   0  0  0  0  0  0  0  0  0  0  0  0
   -3.4927   26.3171    3.1550 O   0  0  0  0  0  0  0  0  0  0  0  0
   -2.3538   25.8602    3.8917 C   0  0  0  0  0  0  0  0  0  0  0  0
   -2.4453   26.2240    5.3866 C   0  0  0  0  0  0  0  0  0  0  0  0
   -1.8716   27.5436    5.7179 N   0  0  0  0  0  0  0  0  0  0  0  0
   -2.8156   28.2981    6.5618 C   0  0  0  0  0  0  0  0  0  0  0  0
   -2.2903   29.6991    6.8772 C   0  0  0  0  0  0  0  0  0  0  0  0
   -0.9149   29.6423    7.5306 C   0  0  0  0  0  0  0  0  0  0  0  0
    0.0350   28.7958    6.6925 C   0  0  0  0  0  0  0  0  0  0  0  0
   -0.5640   27.4219    6.3830 C   0  0  0  0  0  0  0  0  0  0  0  0
  2  3  1  0  0  0
  3  4  1  0  0  0
  4  5  2  0  0  0
  5  6  1  0  0  0
  6  1  1  0  0  0
  1 15  1  0  0  0
 15 16  1  0  0  0
 16 17  1  0  0  0
 17 18  1  0  0  0
 18 19  1  0  0  0
 19 20  1  0  0  0
 20 21  1  0  0  0
 21 22  1  0  0  0
 22 23  1  0  0  0
  1  9  1  0  0  0
  9 10  2  0  0  0
 10 11  1  0  0  0
 11 12  2  0  0  0
 12 13  1  0  0  0
 13 14  2  0  0  0
  6  7  2  0  0  0
  7  8  1  0  0  0
  8  3  2  0  0  0
 23 18  1  0  0  0
 14  9  1  0  0  0
M  END
> <minimizedAffinity>
-8.74107

$$$$
OCNT-2328764


 13 13  0  0  0  0  0  0  0  0999 V2000
   -5.1401   30.5718    9.4041 C   0  0  0  0  0  0  0  0  0  0  0  0
   -3.7709   30.1174    8.9843 C   0  0  0  0  0  0  0  0  0  0  0  0
   -3.6216   28.8950    8.3125 C   0  0  0  0  0  0  0  0  0  0  0  0
   -2.3568   28.4526    7.9127 C   0  0  0  0  0  0  0  0  0  0  0  0
   -2.2381   27.2579    7.2597 O   0  0  0  0  0  0  0  0  0  0  0  0
   -1.2055   29.2077    8.1666 C   0  0  0  0  0  0  0  0  0  0  0  0
   -1.3617   30.4316    8.8401 C   0  0  0  0  0  0  0  0  0  0  0  0
   -2.6245   30.8806    9.2433 C   0  0  0  0  0  0  0  0  0  0  0  0
   -2.7170   32.3981   10.0651 Cl  0  0  0  0  0  0  0  0  0  0  0  0
   -3.1180   26.8596    7.1610 H   0  0  0  0  0  0  0  0  0  0  0  0
    0.1720   28.7301    7.7334 C   0  0  0  0  0  0  0  0  0  0  0  0
    0.5188   29.2206    6.3246 C   0  0  0  0  0  0  0  0  0  0  0  0
    1.2518   29.1476    8.7363 C   0  0  0  0  0  0  0  0  0  0  0  0
  1  2  1  0  0  0
  2  3  1  0  0  0
  3  4  2  0  0  0
  4  5  1  0  0  0
  4  6  1  0  0  0
  6 11  1  0  0  0
 11 12  1  0  0  0
 11 13  1  0  0  0
  6  7  2  0  0  0
  7  8  1  0  0  0
  8  9  1  0  0  0
  8  2  2  0  0  0
  5 10  1  0  0  0
M  END
> <minimizedAffinity>
-6.49876

$$$$
OCNT-2328781


 26 28  0  0  0  0  0  0  0  0999 V2000
   -4.0478   24.7951    1.3696 C   0  0  0  0  0  0  0  0  0  0  0  0
   -4.6095   24.5697    2.7492 C   0  0  0  0  0  0  0  0  0  0  0  0
   -5.5790   23.5702    2.9631 C   0  0  0  0  0  0  0  0  0  0  0  0
   -6.0605   23.3382    4.2475 C   0  0  0  0  0  0  0  0  0  0  0  0
   -5.5462   24.0921    5.2831 C   0  0  0  0  0  0  0  0  0  0  0  0
   -4.6012   25.0360    5.1234 N   0  0  0  0  0  0  0  0  0  0  0  0
   -4.1392   25.2765    3.8690 C   0  0  0  0  0  0  0  0  0  0  0  0
   -5.9785   22.8767    1.8498 O   0  0  0  0  0  0  0  0  0  0  0  0
   -7.3496   22.9782    1.4496 C   0  0  0  0  0  0  0  0  0  0  0  0
   -7.4520   23.1387   -0.0598 C   0  0  0  0  0  0  0  0  0  0  0  0
   -6.4381   22.5177   -0.7011 F   0  0  0  0  0  0  0  0  0  0  0  0
   -8.6077   22.5930   -0.5102 F   0  0  0  0  0  0  0  0  0  0  0  0
   -7.4505   24.4380   -0.4289 F   0  0  0  0  0  0  0  0  0  0  0  0
   -3.0821   26.3485    3.7732 C   0  0  0  0  0  0  0  0  0  0  0  0
   -1.4720   25.7642    4.3883 S   0  0  0  0  0  0  0  0  0  0  0  0
   -0.3985   26.0847    3.3859 O   0  0  0  0  0  0  0  0  0  0  0  0
   -1.2865   27.0130    5.6723 C   0  0  0  0  0  0  0  0  0  0  0  0
   -2.2755   27.6625    6.2459 N   0  0  0  0  0  0  0  0  0  0  0  0
   -1.6683   28.5000    7.1521 C   0  0  0  0  0  0  0  0  0  0  0  0
   -2.2387   29.4230    8.0404 C   0  0  0  0  0  0  0  0  0  0  0  0
   -1.3911   30.1687    8.8699 C   0  0  0  0  0  0  0  0  0  0  0  0
   -0.0050   29.9993    8.8159 C   0  0  0  0  0  0  0  0  0  0  0  0
    0.5833   29.0830    7.9363 C   0  0  0  0  0  0  0  0  0  0  0  0
   -0.2842   28.3528    7.1223 C   0  0  0  0  0  0  0  0  0  0  0  0
   -0.0700   27.3940    6.1682 N   0  0  0  0  0  0  0  0  0  0  0  0
    0.8171   27.0253    5.8536 H   0  0  0  0  0  0  0  0  0  0  0  0
  1  2  1  0  0  0
  2  3  1  0  0  0
  3  8  1  0  0  0
  8  9  1  0  0  0
  9 10  1  0  0  0
 10 11  1  0  0  0
 10 12  1  0  0  0
 10 13  1  0  0  0
  3  4  2  0  0  0
  4  5  1  0  0  0
  5  6  2  0  0  0
  6  7  1  0  0  0
  7 14  1  0  0  0
 14 15  1  0  0  0
 15 16  2  0  0  0
 15 17  1  0  0  0
 17 18  2  0  0  0
 18 19  1  0  0  0
 19 20  2  0  0  0
 20 21  1  0  0  0
 21 22  2  0  0  0
 22 23  1  0  0  0
 23 24  2  0  0  0
 24 25  1  0  0  0
  7  2  2  0  0  0
 25 17  1  0  0  0
 24 19  1  0  0  0
 25 26  1  0  0  0
M  END
> <minimizedAffinity>
-8.95350

$$$$
OCNT-2328787


 22 22  0  0  0  0  0  0  0  0999 V2000
   -5.5391   28.0441    5.6231 C   0  0  0  0  0  0  0  0  0  0  0  0
   -4.5190   29.0003    6.2413 C   0  0  0  0  0  0  0  0  0  0  0  0
   -3.1435   28.3736    6.4961 C   0  0  0  0  0  0  0  0  0  0  0  0
   -2.3034   29.0901    7.5600 C   0  0  0  0  0  0  0  0  0  0  0  0
   -1.4219   30.1978    6.9737 C   0  0  0  0  0  0  0  0  0  0  0  0
   -1.9096   31.6083    7.3230 C   0  0  0  0  0  0  0  0  0  0  0  0
   -1.4594   32.0794    8.7084 C   0  0  0  0  0  0  0  0  0  0  0  0
   -2.5843   32.0699    9.7500 C   0  0  0  0  0  0  0  0  0  0  0  0
   -3.9704   32.3127    9.1470 C   0  0  0  0  0  0  0  0  0  0  0  0
   -4.9111   34.4758    8.1665 C   0  0  0  0  0  0  0  0  0  0  0  0
   -4.5135   33.7173    9.4235 C   0  0  0  0  0  0  0  0  0  0  0  0
   -5.9419   28.5004    4.2183 C   0  0  0  0  0  0  0  0  0  0  0  0
   -5.7708   27.4134    3.1565 C   0  0  0  0  0  0  0  0  0  0  0  0
   -5.8555   25.9621    3.6431 C   0  0  0  0  0  0  0  0  0  0  0  0
   -4.6967   25.0673    3.1927 C   0  0  0  0  0  0  0  0  0  0  0  0
   -4.4110   25.1587    1.6972 C   0  0  0  0  0  0  0  0  0  0  0  0
   -5.5093   24.4962    0.9514 N   0  0  0  0  0  0  0  0  0  0  0  0
   -5.7826   23.1905    1.1835 C   0  0  0  0  0  0  0  0  0  0  0  0
   -6.8027   22.5474    0.4926 C   0  0  0  0  0  0  0  0  0  0  0  0
   -7.5437   23.2567   -0.4436 C   0  0  0  0  0  0  0  0  0  0  0  0
   -7.2518   24.5950   -0.6718 C   0  0  0  0  0  0  0  0  0  0  0  0
   -6.2230   25.1998    0.0409 C   0  0  0  0  0  0  0  0  0  0  0  0
 10 11  1  0  0  0
 11  9  1  0  0  0
  9  8  1  0  0  0
  8  7  1  0  0  0
  7  6  1  0  0  0
  6  5  1  0  0  0
  5  4  1  0  0  0
  4  3  1  0  0  0
  3  2  1  0  0  0
  2  1  1  0  0  0
  1 12  1  0  0  0
 12 13  1  0  0  0
 13 14  1  0  0  0
 14 15  1  0  0  0
 15 16  1  0  0  0
 16 17  1  0  0  0
 17 18  2  0  0  0
 18 19  1  0  0  0
 19 20  2  0  0  0
 20 21  1  0  0  0
 21 22  2  0  0  0
 22 17  1  0  0  0
M  CHG 1  17   1
M  END
> <minimizedAffinity>
-7.23963

$$$$
OCNT-2328788


 21 23  0  0  0  0  0  0  0  0999 V2000
   -5.6038   29.1726    5.7118 C   0  0  0  0  0  0  0  0  0  0  0  0
   -6.0062   29.3851    4.2404 C   0  0  0  0  0  0  0  0  0  0  0  0
   -6.1047   28.0925    3.4122 C   0  0  0  0  0  0  0  0  0  0  0  0
   -5.8264   26.7965    4.2056 C   0  0  0  0  0  0  0  0  0  0  0  0
   -4.5652   26.9747    5.0453 C   0  0  0  0  0  0  0  0  0  0  0  0
   -4.4330   28.1891    5.7667 C   0  0  0  0  0  0  0  0  0  0  0  0
   -3.2717   28.4088    6.5248 C   0  0  0  0  0  0  0  0  0  0  0  0
   -2.2737   27.4372    6.5992 C   0  0  0  0  0  0  0  0  0  0  0  0
   -2.4258   26.2295    5.9276 C   0  0  0  0  0  0  0  0  0  0  0  0
   -3.5658   25.9958    5.1594 C   0  0  0  0  0  0  0  0  0  0  0  0
   -5.8633   25.5785    3.2859 C   0  0  0  0  0  0  0  0  0  0  0  0
   -6.3090   24.3220    3.7346 C   0  0  0  0  0  0  0  0  0  0  0  0
   -6.3383   23.2183    2.8738 C   0  0  0  0  0  0  0  0  0  0  0  0
   -6.9039   21.7157    3.5129 Cl  0  0  0  0  0  0  0  0  0  0  0  0
   -5.9228   23.3591    1.5469 C   0  0  0  0  0  0  0  0  0  0  0  0
   -5.9307   22.0444    0.4262 Cl  0  0  0  0  0  0  0  0  0  0  0  0
   -5.4845   24.6030    1.0873 C   0  0  0  0  0  0  0  0  0  0  0  0
   -5.4568   25.7035    1.9483 C   0  0  0  0  0  0  0  0  0  0  0  0
   -6.1727   30.6398    7.5913 C   0  0  0  0  0  0  0  0  0  0  0  0
   -5.3367   30.4401    6.4144 N   0  0  0  0  0  0  0  0  0  0  0  0
   -4.3658   30.4193    6.7265 H   0  0  0  0  0  0  0  0  0  0  0  0
 19 20  1  0  0  0
 20  1  1  0  0  0
  1  2  1  0  0  0
  2  3  1  0  0  0
  3  4  1  0  0  0
  4 11  1  0  0  0
 11 12  2  0  0  0
 12 13  1  0  0  0
 13 14  1  0  0  0
 13 15  2  0  0  0
 15 16  1  0  0  0
 15 17  1  0  0  0
 17 18  2  0  0  0
  4  5  1  0  0  0
  5  6  1  0  0  0
  6  7  2  0  0  0
  7  8  1  0  0  0
  8  9  2  0  0  0
  9 10  1  0  0  0
  6  1  1  0  0  0
 18 11  1  0  0  0
 10  5  2  0  0  0
 20 21  1  0  0  0
M  END
> <minimizedAffinity>
-8.77737

$$$$
OCNT-2328791


 30 31  0  0  0  0  0  0  0  0999 V2000
   -6.2240   28.9329    5.6498 O   0  0  0  0  0  0  0  0  0  0  0  0
   -5.8883   25.6675    3.0204 C   0  0  0  0  0  0  0  0  0  0  0  0
   -6.1409   25.5314    4.3973 C   0  0  0  0  0  0  0  0  0  0  0  0
   -6.2498   26.6491    5.2315 C   0  0  0  0  0  0  0  0  0  0  0  0
   -6.1005   27.9380    4.7229 C   0  0  0  0  0  0  0  0  0  0  0  0
   -5.8289   28.0943    3.3687 C   0  0  0  0  0  0  0  0  0  0  0  0
   -5.7196   26.9736    2.5311 C   0  0  0  0  0  0  0  0  0  0  0  0
   -5.7655   24.4106    2.1082 C   0  0  0  0  0  0  0  0  0  0  0  0
   -4.2944   24.0006    1.9017 C   0  0  0  0  0  0  0  0  0  0  0  0
   -6.3240   24.7651    0.7071 C   0  0  0  0  0  0  0  0  0  0  0  0
   -6.6094   23.2870    2.8049 C   0  0  0  0  0  0  0  0  0  0  0  0
   -7.4298   21.0033    3.4022 C   0  0  0  0  0  0  0  0  0  0  0  0
   -6.2439   21.7681    2.7600 C   0  0  0  0  0  0  0  0  0  0  0  0
   -6.0579   21.2205    1.3407 C   0  0  0  0  0  0  0  0  0  0  0  0
   -4.9974   21.4425    3.6035 C   0  0  0  0  0  0  0  0  0  0  0  0
   -5.6281   28.7497    6.9372 C   0  0  0  0  0  0  0  0  0  0  0  0
   -4.4512   29.7091    7.1618 C   0  0  0  0  0  0  0  0  0  0  0  0
   -3.7343   29.4848    8.3832 O   0  0  0  0  0  0  0  0  0  0  0  0
   -2.5671   30.2845    8.5400 C   0  0  0  0  0  0  0  0  0  0  0  0
   -1.6706   30.1506    7.2948 C   0  0  0  0  0  0  0  0  0  0  0  0
   -0.4289   29.2321    7.4686 N   0  0  0  0  0  0  0  0  0  0  0  0
    0.5644   29.4377    6.3373 C   0  0  0  0  0  0  0  0  0  0  0  0
    0.2824   29.5219    8.7962 C   0  0  0  0  0  0  0  0  0  0  0  0
   -0.8885   27.7531    7.5259 C   0  0  0  0  0  0  0  0  0  0  0  0
   -1.1592   27.0708    6.2071 C   0  0  0  0  0  0  0  0  0  0  0  0
   -0.1010   26.5633    5.4350 C   0  0  0  0  0  0  0  0  0  0  0  0
   -0.3512   25.9236    4.2199 C   0  0  0  0  0  0  0  0  0  0  0  0
   -1.6576   25.7902    3.7577 C   0  0  0  0  0  0  0  0  0  0  0  0
   -2.7157   26.3024    4.5044 C   0  0  0  0  0  0  0  0  0  0  0  0
   -2.4697   26.9425    5.7200 C   0  0  0  0  0  0  0  0  0  0  0  0
 12 13  1  0  0  0
 13 14  1  0  0  0
 13 15  1  0  0  0
 13 11  1  0  0  0
 11  8  1  0  0  0
  8  9  1  0  0  0
  8 10  1  0  0  0
  8  2  1  0  0  0
  2  3  1  0  0  0
  3  4  2  0  0  0
  4  5  1  0  0  0
  5  1  1  0  0  0
  1 16  1  0  0  0
 16 17  1  0  0  0
 17 18  1  0  0  0
 18 19  1  0  0  0
 19 20  1  0  0  0
 20 21  1  0  0  0
 21 22  1  0  0  0
 21 23  1  0  0  0
 21 24  1  0  0  0
 24 25  1  0  0  0
 25 26  2  0  0  0
 26 27  1  0  0  0
 27 28  2  0  0  0
 28 29  1  0  0  0
 29 30  2  0  0  0
  5  6  2  0  0  0
  6  7  1  0  0  0
  7  2  2  0  0  0
 30 25  1  0  0  0
M  CHG 1  21   1
M  END
> <minimizedAffinity>
-8.90372

$$$$
OCNT-2328803


 20 21  0  0  0  0  0  0  0  0999 V2000
   -2.2027   29.4454    8.2726 C   0  0  0  0  0  0  0  0  0  0  0  0
   -1.2783   30.2237    8.9919 C   0  0  0  0  0  0  0  0  0  0  0  0
    0.1089   30.0172    8.8661 C   0  0  0  0  0  0  0  0  0  0  0  0
    0.6088   29.0254    8.0219 C   0  0  0  0  0  0  0  0  0  0  0  0
   -0.3093   28.2673    7.3293 C   0  0  0  0  0  0  0  0  0  0  0  0
   -1.6874   28.4584    7.4424 C   0  0  0  0  0  0  0  0  0  0  0  0
   -2.3898   27.4635    6.5621 C   0  0  0  0  0  0  0  0  0  0  0  0
   -1.2218   26.6948    5.9373 C   0  0  0  0  0  0  0  0  0  0  0  0
   -1.2985   25.7759    5.1389 O   0  0  0  0  0  0  0  0  0  0  0  0
   -0.0475   27.2333    6.4453 N   0  0  0  0  0  0  0  0  0  0  0  0
    0.8663   26.8941    6.1867 H   0  0  0  0  0  0  0  0  0  0  0  0
   -3.6850   29.6704    8.4346 C   0  0  0  0  0  0  0  0  0  0  0  0
   -4.2200   30.6930    7.4159 C   0  0  0  0  0  0  0  0  0  0  0  0
   -5.3960   31.4843    7.8258 N   0  0  0  0  0  0  0  0  0  0  0  0
   -6.6667   30.7388    7.7622 C   0  0  0  0  0  0  0  0  0  0  0  0
   -7.1212   28.4935    6.6362 C   0  0  0  0  0  0  0  0  0  0  0  0
   -6.9306   29.9917    6.4468 C   0  0  0  0  0  0  0  0  0  0  0  0
   -5.2595   32.1287    9.1452 C   0  0  0  0  0  0  0  0  0  0  0  0
   -4.4218   33.4135    9.1291 C   0  0  0  0  0  0  0  0  0  0  0  0
   -4.9862   34.4285    8.1450 C   0  0  0  0  0  0  0  0  0  0  0  0
 16 17  1  0  0  0
 17 15  1  0  0  0
 15 14  1  0  0  0
 14 18  1  0  0  0
 18 19  1  0  0  0
 19 20  1  0  0  0
 14 13  1  0  0  0
 13 12  1  0  0  0
 12  1  1  0  0  0
  1  2  2  0  0  0
  2  3  1  0  0  0
  3  4  2  0  0  0
  4  5  1  0  0  0
  5  6  2  0  0  0
  6  7  1  0  0  0
  7  8  1  0  0  0
  8  9  2  0  0  0
  8 10  1  0  0  0
  6  1  1  0  0  0
 10  5  1  0  0  0
 10 11  1  0  0  0
M  END
> <minimizedAffinity>
-7.51807

$$$$
OCNT-2328805


 30 34  0  0  0  0  0  0  0  0999 V2000
   -6.6248   26.8515    5.5169 O   0  0  0  0  0  0  0  0  0  0  0  0
   -5.5040   27.2770    5.2470 C   0  0  0  0  0  0  0  0  0  0  0  0
   -4.6373   26.7829    4.0477 C   0  0  0  0  0  0  0  0  0  0  0  0
   -4.6173   27.8853    3.1146 O   0  0  0  0  0  0  0  0  0  0  0  0
   -5.5182   27.9510    2.7455 H   0  0  0  0  0  0  0  0  0  0  0  0
   -3.1868   26.5187    4.4883 C   0  0  0  0  0  0  0  0  0  0  0  0
   -2.7635   26.7065    5.8170 C   0  0  0  0  0  0  0  0  0  0  0  0
   -1.4309   26.4969    6.1855 C   0  0  0  0  0  0  0  0  0  0  0  0
   -0.4946   26.1089    5.2328 C   0  0  0  0  0  0  0  0  0  0  0  0
   -0.8883   25.9283    3.9116 C   0  0  0  0  0  0  0  0  0  0  0  0
   -2.2198   26.1328    3.5417 C   0  0  0  0  0  0  0  0  0  0  0  0
   -5.2874   25.6104    3.2923 C   0  0  0  0  0  0  0  0  0  0  0  0
   -5.6103   25.7690    1.9264 C   0  0  0  0  0  0  0  0  0  0  0  0
   -6.1907   24.7315    1.1948 C   0  0  0  0  0  0  0  0  0  0  0  0
   -6.4619   23.5145    1.8136 C   0  0  0  0  0  0  0  0  0  0  0  0
   -6.1543   23.3341    3.1617 C   0  0  0  0  0  0  0  0  0  0  0  0
   -5.5699   24.3703    3.8958 C   0  0  0  0  0  0  0  0  0  0  0  0
   -4.8600   28.2155    6.0102 O   0  0  0  0  0  0  0  0  0  0  0  0
   -5.5905   29.4249    6.3086 C   0  0  0  0  0  0  0  0  0  0  0  0
   -5.8499   29.4957    7.8185 C   0  0  0  0  0  0  0  0  0  0  0  0
   -4.6913   30.1116    8.6213 C   0  0  0  0  0  0  0  0  0  0  0  0
   -3.3650   29.3780    8.3768 C   0  0  0  0  0  0  0  0  0  0  0  0
   -2.7299   30.0697    7.1665 C   0  0  0  0  0  0  0  0  0  0  0  0
   -3.7311   31.1563    6.7445 C   0  0  0  0  0  0  0  0  0  0  0  0
   -4.7692   30.5992    5.7593 C   0  0  0  0  0  0  0  0  0  0  0  0
   -4.3988   31.5236    8.0903 N   0  0  0  0  0  0  0  0  0  0  0  0
   -5.6178   32.4563    8.0274 C   0  0  0  0  0  0  0  0  0  0  0  0
   -5.0527   33.8374    8.2639 C   0  0  0  0  0  0  0  0  0  0  0  0
   -4.0921   33.5905    9.4002 C   0  0  0  0  0  0  0  0  0  0  0  0
   -3.3928   32.3015    9.0109 C   0  0  0  0  0  0  0  0  0  0  0  0
  1  2  2  0  0  0
  2 18  1  0  0  0
 18 19  1  0  0  0
 19 20  1  0  0  0
 20 21  1  0  0  0
 21 22  1  0  0  0
 22 23  1  0  0  0
 23 24  1  0  0  0
 24 25  1  0  0  0
 24 26  1  0  0  0
 26 27  1  0  0  0
 27 28  1  0  0  0
 28 29  1  0  0  0
 29 30  1  0  0  0
  2  3  1  0  0  0
  3  4  1  0  0  0
  3  6  1  0  0  0
  6  7  2  0  0  0
  7  8  1  0  0  0
  8  9  2  0  0  0
  9 10  1  0  0  0
 10 11  2  0  0  0
  3 12  1  0  0  0
 12 13  2  0  0  0
 13 14  1  0  0  0
 14 15  2  0  0  0
 15 16  1  0  0  0
 16 17  2  0  0  0
 25 19  1  0  0  0
 30 26  1  0  0  0
 11  6  1  0  0  0
 17 12  1  0  0  0
 26 21  1  0  0  0
  4  5  1  0  0  0
M  CHG 1  26   1
M  END
> <minimizedAffinity>
-10.31795

$$$$
OCNT-2328814


 18 20  0  0  0  0  0  0  0  0999 V2000
   -5.4617   22.8424    4.8224 C   0  0  0  0  0  0  0  0  0  0  0  0
   -5.8991   23.2013    3.4492 C   0  0  0  0  0  0  0  0  0  0  0  0
   -6.7003   22.4748    2.6967 N   0  0  0  0  0  0  0  0  0  0  0  0
   -6.8492   23.1694    1.5249 C   0  0  0  0  0  0  0  0  0  0  0  0
   -6.1199   24.3542    1.5492 C   0  0  0  0  0  0  0  0  0  0  0  0
   -6.1017   25.2475    0.4691 C   0  0  0  0  0  0  0  0  0  0  0  0
   -6.8566   24.9034   -0.6587 C   0  0  0  0  0  0  0  0  0  0  0  0
   -7.5947   23.7201   -0.7029 C   0  0  0  0  0  0  0  0  0  0  0  0
   -7.5996   22.8410    0.3862 C   0  0  0  0  0  0  0  0  0  0  0  0
   -5.5232   24.3553    2.7921 N   0  0  0  0  0  0  0  0  0  0  0  0
   -4.6089   25.3714    3.2940 C   0  0  0  0  0  0  0  0  0  0  0  0
   -5.3235   26.5537    3.9068 C   0  0  0  0  0  0  0  0  0  0  0  0
   -5.4762   27.7606    3.2048 C   0  0  0  0  0  0  0  0  0  0  0  0
   -6.1207   28.8510    3.7949 C   0  0  0  0  0  0  0  0  0  0  0  0
   -6.6076   28.7477    5.0950 C   0  0  0  0  0  0  0  0  0  0  0  0
   -7.3988   30.0906    5.8226 Cl  0  0  0  0  0  0  0  0  0  0  0  0
   -6.4533   27.5637    5.8115 C   0  0  0  0  0  0  0  0  0  0  0  0
   -5.8101   26.4724    5.2218 C   0  0  0  0  0  0  0  0  0  0  0  0
  1  2  1  0  0  0
  2  3  2  0  0  0
  3  4  1  0  0  0
  4  5  1  0  0  0
  5  6  2  0  0  0
  6  7  1  0  0  0
  7  8  2  0  0  0
  8  9  1  0  0  0
  5 10  1  0  0  0
 10 11  1  0  0  0
 11 12  1  0  0  0
 12 13  1  0  0  0
 13 14  2  0  0  0
 14 15  1  0  0  0
 15 16  1  0  0  0
 15 17  2  0  0  0
 17 18  1  0  0  0
 10  2  1  0  0  0
 18 12  2  0  0  0
  9  4  2  0  0  0
M  END
> <minimizedAffinity>
-8.24694

$$$$
OCNT-2328816


 36 39  0  0  0  0  0  0  0  0999 V2000
   -5.3884   26.2719    4.9501 C   0  0  0  0  0  0  0  0  0  0  0  0
   -6.4749   27.0100    5.4802 C   0  0  0  0  0  0  0  0  0  0  0  0
   -6.2857   28.1614    6.2493 C   0  0  0  0  0  0  0  0  0  0  0  0
   -7.6527   29.0072    6.8657 Cl  0  0  0  0  0  0  0  0  0  0  0  0
   -5.0096   28.6343    6.5174 C   0  0  0  0  0  0  0  0  0  0  0  0
   -3.9285   27.9370    5.9985 C   0  0  0  0  0  0  0  0  0  0  0  0
   -4.0941   26.7551    5.2078 C   0  0  0  0  0  0  0  0  0  0  0  0
   -2.7554   26.2774    4.8068 C   0  0  0  0  0  0  0  0  0  0  0  0
   -2.3519   25.1938    4.0361 C   0  0  0  0  0  0  0  0  0  0  0  0
   -0.9868   24.9732    3.8056 C   0  0  0  0  0  0  0  0  0  0  0  0
   -0.0258   25.8336    4.3440 C   0  0  0  0  0  0  0  0  0  0  0  0
    1.6428   25.5369    4.0442 Cl  0  0  0  0  0  0  0  0  0  0  0  0
   -0.4029   26.9262    5.1175 C   0  0  0  0  0  0  0  0  0  0  0  0
   -1.7597   27.1354    5.3383 C   0  0  0  0  0  0  0  0  0  0  0  0
   -2.4681   28.1932    6.0968 C   0  0  0  0  0  0  0  0  0  0  0  0
   -1.8062   29.1793    6.7302 C   0  0  0  0  0  0  0  0  0  0  0  0
   -2.3829   30.2797    7.5018 C   0  0  0  0  0  0  0  0  0  0  0  0
   -2.9357   31.3838    6.8423 C   0  0  0  0  0  0  0  0  0  0  0  0
   -3.4864   32.4357    7.5785 C   0  0  0  0  0  0  0  0  0  0  0  0
   -3.4804   32.3834    8.9715 C   0  0  0  0  0  0  0  0  0  0  0  0
   -4.1605   33.6781    9.8771 Cl  0  0  0  0  0  0  0  0  0  0  0  0
   -2.9278   31.2895    9.6360 C   0  0  0  0  0  0  0  0  0  0  0  0
   -2.3764   30.2370    8.9010 C   0  0  0  0  0  0  0  0  0  0  0  0
   -5.6994   25.0461    4.1088 C   0  0  0  0  0  0  0  0  0  0  0  0
   -6.9616   24.5075    4.5205 O   0  0  0  0  0  0  0  0  0  0  0  0
   -7.0032   23.6096    4.1533 H   0  0  0  0  0  0  0  0  0  0  0  0
   -5.7166   25.4089    2.5944 C   0  0  0  0  0  0  0  0  0  0  0  0
   -5.6331   24.3301    1.5823 N   0  0  0  0  0  0  0  0  0  0  0  0
   -5.5994   24.7889    0.1892 C   0  0  0  0  0  0  0  0  0  0  0  0
   -6.9910   25.2115   -0.3010 C   0  0  0  0  0  0  0  0  0  0  0  0
   -7.3849   22.7177   -0.7008 C   0  0  0  0  0  0  0  0  0  0  0  0
   -7.9979   24.0571   -0.3216 C   0  0  0  0  0  0  0  0  0  0  0  0
   -4.6044   23.3265    1.8883 C   0  0  0  0  0  0  0  0  0  0  0  0
   -5.2141   21.9162    1.9089 C   0  0  0  0  0  0  0  0  0  0  0  0
   -5.7354   21.5078    3.2899 C   0  0  0  0  0  0  0  0  0  0  0  0
   -7.2240   21.1962    3.3068 C   0  0  0  0  0  0  0  0  0  0  0  0
 31 32  1  0  0  0
 32 30  1  0  0  0
 30 29  1  0  0  0
 29 28  1  0  0  0
 28 33  1  0  0  0
 33 34  1  0  0  0
 34 35  1  0  0  0
 35 36  1  0  0  0
 28 27  1  0  0  0
 27 24  1  0  0  0
 24 25  1  0  0  0
 24  1  1  0  0  0
  1  2  2  0  0  0
  2  3  1  0  0  0
  3  4  1  0  0  0
  3  5  2  0  0  0
  5  6  1  0  0  0
  6  7  2  0  0  0
  7  8  1  0  0  0
  8  9  1  0  0  0
  9 10  2  0  0  0
 10 11  1  0  0  0
 11 12  1  0  0  0
 11 13  2  0  0  0
 13 14  1  0  0  0
 14 15  1  0  0  0
 15 16  2  0  0  0
 16 17  1  0  0  0
 17 18  1  0  0  0
 18 19  2  0  0  0
 19 20  1  0  0  0
 20 21  1  0  0  0
 20 22  2  0  0  0
 22 23  1  0  0  0
  7  1  1  0  0  0
 14  8  2  0  0  0
 23 17  2  0  0  0
 15  6  1  0  0  0
 25 26  1  0  0  0
M  END
> <minimizedAffinity>
-8.95738

$$$$
OCNT-2328824


 35 38  0  0  0  0  0  0  0  0999 V2000
   -4.2902   26.0409    5.0807 C   0  0  0  0  0  0  0  0  0  0  0  0
   -5.2608   26.7388    5.7344 C   0  0  0  0  0  0  0  0  0  0  0  0
   -6.6649   26.3164    5.7079 C   0  0  0  0  0  0  0  0  0  0  0  0
   -7.6355   26.9886    6.3446 C   0  0  0  0  0  0  0  0  0  0  0  0
   -9.5912   26.3415    6.2638 I   0  0  0  0  0  0  0  0  0  0  0  0
   -7.3125   28.2216    7.1269 C   0  0  0  0  0  0  0  0  0  0  0  0
   -8.1856   28.8419    7.7277 O   0  0  0  0  0  0  0  0  0  0  0  0
   -5.8775   28.6586    7.1465 C   0  0  0  0  0  0  0  0  0  0  0  0
   -5.4347   30.3841    8.2279 I   0  0  0  0  0  0  0  0  0  0  0  0
   -4.9305   27.9557    6.4928 C   0  0  0  0  0  0  0  0  0  0  0  0
   -3.6127   28.3889    6.5384 O   0  0  0  0  0  0  0  0  0  0  0  0
   -2.6194   27.7076    5.8902 C   0  0  0  0  0  0  0  0  0  0  0  0
   -1.3080   28.2088    5.9797 C   0  0  0  0  0  0  0  0  0  0  0  0
   -0.9042   29.9598    7.0893 I   0  0  0  0  0  0  0  0  0  0  0  0
   -0.2576   27.5499    5.3308 C   0  0  0  0  0  0  0  0  0  0  0  0
    1.0279   28.0167    5.3996 O   0  0  0  0  0  0  0  0  0  0  0  0
   -0.5237   26.3946    4.5966 C   0  0  0  0  0  0  0  0  0  0  0  0
    0.9840   25.3464    3.5903 I   0  0  0  0  0  0  0  0  0  0  0  0
   -1.8303   25.8998    4.5126 C   0  0  0  0  0  0  0  0  0  0  0  0
   -2.8947   26.5512    5.1595 C   0  0  0  0  0  0  0  0  0  0  0  0
    1.0363   28.8164    5.9560 H   0  0  0  0  0  0  0  0  0  0  0  0
   -4.9071   24.8734    2.9293 C   0  0  0  0  0  0  0  0  0  0  0  0
   -5.2273   23.7302    2.1831 C   0  0  0  0  0  0  0  0  0  0  0  0
   -5.5969   23.8781    0.4906 Cl  0  0  0  0  0  0  0  0  0  0  0  0
   -5.2585   22.4777    2.8197 C   0  0  0  0  0  0  0  0  0  0  0  0
   -5.6507   21.0489    1.9042 Cl  0  0  0  0  0  0  0  0  0  0  0  0
   -4.9750   22.3788    4.1966 C   0  0  0  0  0  0  0  0  0  0  0  0
   -5.0111   20.8272    4.9867 Cl  0  0  0  0  0  0  0  0  0  0  0  0
   -4.6641   23.5364    4.9379 C   0  0  0  0  0  0  0  0  0  0  0  0
   -4.3124   23.4261    6.6406 Cl  0  0  0  0  0  0  0  0  0  0  0  0
   -4.6328   24.7999    4.3103 C   0  0  0  0  0  0  0  0  0  0  0  0
   -5.7715   27.0007    2.2673 O   0  0  0  0  0  0  0  0  0  0  0  0
   -4.8750   26.1837    2.2685 C   0  0  0  0  0  0  0  0  0  0  0  0
   -3.6755   26.3773    1.7016 O   0  0  0  0  0  0  0  0  0  0  0  0
   -3.7297   27.2590    1.2722 H   0  0  0  0  0  0  0  0  0  0  0  0
 32 33  2  0  0  0
 33 34  1  0  0  0
 33 22  1  0  0  0
 22 23  2  0  0  0
 23 24  1  0  0  0
 23 25  1  0  0  0
 25 26  1  0  0  0
 25 27  2  0  0  0
 27 28  1  0  0  0
 27 29  1  0  0  0
 29 30  1  0  0  0
 29 31  2  0  0  0
 31  1  1  0  0  0
  1  2  2  0  0  0
  2  3  1  0  0  0
  3  4  2  0  0  0
  4  5  1  0  0  0
  4  6  1  0  0  0
  6  7  2  0  0  0
  6  8  1  0  0  0
  8  9  1  0  0  0
  8 10  2  0  0  0
 10 11  1  0  0  0
 11 12  1  0  0  0
 12 13  1  0  0  0
 13 14  1  0  0  0
 13 15  2  0  0  0
 15 16  1  0  0  0
 15 17  1  0  0  0
 17 18  1  0  0  0
 17 19  2  0  0  0
 19 20  1  0  0  0
 31 22  1  0  0  0
 20  1  1  0  0  0
 10  2  1  0  0  0
 20 12  2  0  0  0
 34 35  1  0  0  0
 16 21  1  0  0  0
M  END
> <minimizedAffinity>
3.95736

$$$$
OCNT-2328829


 19 20  0  0  0  0  0  0  0  0999 V2000
   -0.2091   29.6386    7.0593 C   0  0  0  0  0  0  0  0  0  0  0  0
    0.0988   29.4583    8.5447 C   0  0  0  0  0  0  0  0  0  0  0  0
   -0.2128   30.6521    9.2782 O   0  0  0  0  0  0  0  0  0  0  0  0
   -1.4334   31.1614    8.9245 C   0  0  0  0  0  0  0  0  0  0  0  0
   -2.1181   30.7740    7.7707 C   0  0  0  0  0  0  0  0  0  0  0  0
   -3.3739   31.3099    7.4909 C   0  0  0  0  0  0  0  0  0  0  0  0
   -3.9331   32.2573    8.3503 C   0  0  0  0  0  0  0  0  0  0  0  0
   -3.2366   32.6647    9.4891 C   0  0  0  0  0  0  0  0  0  0  0  0
   -1.9851   32.1172    9.7756 C   0  0  0  0  0  0  0  0  0  0  0  0
   -1.6219   29.8655    6.8741 O   0  0  0  0  0  0  0  0  0  0  0  0
    0.1520   28.4038    6.2205 C   0  0  0  0  0  0  0  0  0  0  0  0
   -0.3458   27.1606    6.7881 N   0  0  0  0  0  0  0  0  0  0  0  0
    0.0743   26.9339    7.6842 H   0  0  0  0  0  0  0  0  0  0  0  0
   -2.1954   26.1973    5.6633 N   0  0  0  0  0  0  0  0  0  0  0  0
   -1.6123   26.7115    6.6787 C   0  0  0  0  0  0  0  0  0  0  0  0
   -2.2935   26.8552    7.8299 N   0  0  0  0  0  0  0  0  0  0  0  0
   -1.5446   26.1159    4.8833 H   0  0  0  0  0  0  0  0  0  0  0  0
   -3.2035   26.4130    7.7267 H   0  0  0  0  0  0  0  0  0  0  0  0
   -1.8110   26.4465    8.6207 H   0  0  0  0  0  0  0  0  0  0  0  0
 14 15  2  0  0  0
 15 16  1  0  0  0
 15 12  1  0  0  0
 12 11  1  0  0  0
 11  1  1  0  0  0
  1  2  1  0  0  0
  2  3  1  0  0  0
  3  4  1  0  0  0
  4  5  1  0  0  0
  5  6  2  0  0  0
  6  7  1  0  0  0
  7  8  2  0  0  0
  8  9  1  0  0  0
  5 10  1  0  0  0
 10  1  1  0  0  0
  9  4  2  0  0  0
 14 17  1  0  0  0
 16 18  1  0  0  0
 16 19  1  0  0  0
 12 13  1  0  0  0
M  END
> <minimizedAffinity>
-6.98764

$$$$
OCNT-2328835


 27 30  0  0  0  0  0  0  0  0999 V2000
   -5.2139   25.3941    3.9949 N   0  0  0  0  0  0  0  0  0  0  0  0
   -5.3558   24.5002    5.0289 N   0  0  0  0  0  0  0  0  0  0  0  0
   -5.6178   23.2543    4.7741 C   0  0  0  0  0  0  0  0  0  0  0  0
   -5.7613   22.7253    3.4004 C   0  0  0  0  0  0  0  0  0  0  0  0
   -6.0851   21.3930    3.1142 C   0  0  0  0  0  0  0  0  0  0  0  0
   -6.1906   20.9656    1.7873 C   0  0  0  0  0  0  0  0  0  0  0  0
   -5.9724   21.8615    0.7431 C   0  0  0  0  0  0  0  0  0  0  0  0
   -5.6517   23.1883    1.0251 C   0  0  0  0  0  0  0  0  0  0  0  0
   -5.5490   23.6185    2.3559 C   0  0  0  0  0  0  0  0  0  0  0  0
   -5.2189   25.0245    2.6507 C   0  0  0  0  0  0  0  0  0  0  0  0
   -4.9751   25.7890    1.7197 O   0  0  0  0  0  0  0  0  0  0  0  0
   -3.8911   30.3521    6.8489 C   0  0  0  0  0  0  0  0  0  0  0  0
   -4.4628   29.1877    6.1706 N   0  0  0  0  0  0  0  0  0  0  0  0
   -5.7210   28.7756    6.7988 C   0  0  0  0  0  0  0  0  0  0  0  0
   -6.6201   27.8962    5.9073 C   0  0  0  0  0  0  0  0  0  0  0  0
   -6.1105   27.6796    4.4784 C   0  0  0  0  0  0  0  0  0  0  0  0
   -4.8570   26.7818    4.3708 C   0  0  0  0  0  0  0  0  0  0  0  0
   -3.9747   26.7480    5.6273 C   0  0  0  0  0  0  0  0  0  0  0  0
   -3.4641   28.1151    6.0823 C   0  0  0  0  0  0  0  0  0  0  0  0
   -5.7817   22.3293    5.9736 C   0  0  0  0  0  0  0  0  0  0  0  0
   -7.1894   22.2982    6.5267 C   0  0  0  0  0  0  0  0  0  0  0  0
   -7.4166   21.9110    7.8560 C   0  0  0  0  0  0  0  0  0  0  0  0
   -8.7117   21.8978    8.3798 C   0  0  0  0  0  0  0  0  0  0  0  0
   -9.7861   22.2839    7.5821 C   0  0  0  0  0  0  0  0  0  0  0  0
  -11.3802   22.2670    8.2288 Cl  0  0  0  0  0  0  0  0  0  0  0  0
   -9.5759   22.6903    6.2672 C   0  0  0  0  0  0  0  0  0  0  0  0
   -8.2810   22.7042    5.7436 C   0  0  0  0  0  0  0  0  0  0  0  0
 12 13  1  0  0  0
 13 14  1  0  0  0
 14 15  1  0  0  0
 15 16  1  0  0  0
 16 17  1  0  0  0
 17  1  1  0  0  0
  1  2  1  0  0  0
  2  3  2  0  0  0
  3 20  1  0  0  0
 20 21  1  0  0  0
 21 22  1  0  0  0
 22 23  2  0  0  0
 23 24  1  0  0  0
 24 25  1  0  0  0
 24 26  2  0  0  0
 26 27  1  0  0  0
  3  4  1  0  0  0
  4  5  2  0  0  0
  5  6  1  0  0  0
  6  7  2  0  0  0
  7  8  1  0  0  0
  8  9  2  0  0  0
  9 10  1  0  0  0
 10 11  2  0  0  0
 17 18  1  0  0  0
 18 19  1  0  0  0
 19 13  1  0  0  0
 10  1  1  0  0  0
 27 21  2  0  0  0
  9  4  1  0  0  0
M  END
> <minimizedAffinity>
-10.11955

$$$$
OCNT-2328839


 24 26  0  0  0  0  0  0  0  0999 V2000
   -4.9605   25.3869    2.9289 C   0  0  0  0  0  0  0  0  0  0  0  0
   -4.8798   24.5069    4.1085 O   0  0  0  0  0  0  0  0  0  0  0  0
   -5.8185   24.9381    5.1104 C   0  0  0  0  0  0  0  0  0  0  0  0
   -5.9787   26.3821    4.8247 C   0  0  0  0  0  0  0  0  0  0  0  0
   -5.4814   26.6619    3.5538 C   0  0  0  0  0  0  0  0  0  0  0  0
   -5.5325   27.9617    3.0657 C   0  0  0  0  0  0  0  0  0  0  0  0
   -6.0891   28.9677    3.8649 C   0  0  0  0  0  0  0  0  0  0  0  0
   -6.5936   28.6721    5.1427 C   0  0  0  0  0  0  0  0  0  0  0  0
   -6.5424   27.3626    5.6289 C   0  0  0  0  0  0  0  0  0  0  0  0
   -5.8942   24.6861    1.9336 C   0  0  0  0  0  0  0  0  0  0  0  0
   -6.1766   25.2085    0.6578 C   0  0  0  0  0  0  0  0  0  0  0  0
   -7.0178   24.5277   -0.2276 C   0  0  0  0  0  0  0  0  0  0  0  0
   -7.5815   23.3170    0.1500 C   0  0  0  0  0  0  0  0  0  0  0  0
   -8.3872   22.6688   -0.7011 F   0  0  0  0  0  0  0  0  0  0  0  0
   -7.3199   22.7704    1.3972 C   0  0  0  0  0  0  0  0  0  0  0  0
   -6.4800   23.4497    2.2819 C   0  0  0  0  0  0  0  0  0  0  0  0
   -7.1635   29.7142    5.9458 C   0  0  0  0  0  0  0  0  0  0  0  0
   -7.6246   30.5580    6.5957 N   0  0  0  0  0  0  0  0  0  0  0  0
   -3.5013   25.4688    2.4152 C   0  0  0  0  0  0  0  0  0  0  0  0
   -2.3976   25.1115    3.4190 C   0  0  0  0  0  0  0  0  0  0  0  0
   -1.9446   26.3593    4.1937 C   0  0  0  0  0  0  0  0  0  0  0  0
    0.4856   26.3185    4.0044 C   0  0  0  0  0  0  0  0  0  0  0  0
   -0.6656   26.1582    4.8953 N   0  0  0  0  0  0  0  0  0  0  0  0
   -0.5548   27.1017    6.0121 C   0  0  0  0  0  0  0  0  0  0  0  0
 22 23  1  0  0  0
 23 24  1  0  0  0
 23 21  1  0  0  0
 21 20  1  0  0  0
 20 19  1  0  0  0
  1 19  1  0  0  0
  1 10  1  0  0  0
 10 11  1  0  0  0
 11 12  2  0  0  0
 12 13  1  0  0  0
 13 14  1  0  0  0
 13 15  2  0  0  0
 15 16  1  0  0  0
  1  2  1  0  0  0
  2  3  1  0  0  0
  3  4  1  0  0  0
  4  5  2  0  0  0
  5  6  1  0  0  0
  6  7  2  0  0  0
  7  8  1  0  0  0
  8 17  1  0  0  0
 17 18  3  0  0  0
  8  9  2  0  0  0
  5  1  1  0  0  0
 16 10  2  0  0  0
  9  4  1  0  0  0
M  END
> <minimizedAffinity>
-8.67900

$$$$
OCNT-2328864


 22 24  0  0  0  0  0  0  0  0999 V2000
   -3.5661   25.7214    3.5404 C   0  0  0  0  0  0  0  0  0  0  0  0
   -4.5045   26.8631    3.8792 C   0  0  0  0  0  0  0  0  0  0  0  0
   -5.4221   27.4694    3.0388 C   0  0  0  0  0  0  0  0  0  0  0  0
   -6.1498   28.5113    3.6822 C   0  0  0  0  0  0  0  0  0  0  0  0
   -5.7719   28.6666    4.9959 C   0  0  0  0  0  0  0  0  0  0  0  0
   -4.5513   27.5605    5.4484 S   0  0  0  0  0  0  0  0  0  0  0  0
   -2.1057   26.2002    3.5664 C   0  0  0  0  0  0  0  0  0  0  0  0
   -1.3644   25.8990    4.8749 C   0  0  0  0  0  0  0  0  0  0  0  0
    0.6977   26.4253    3.6778 C   0  0  0  0  0  0  0  0  0  0  0  0
    0.0276   26.3350    4.9630 N   0  0  0  0  0  0  0  0  0  0  0  0
    0.1011   27.2132    5.4761 H   0  0  0  0  0  0  0  0  0  0  0  0
   -3.8828   25.2374    2.2254 O   0  0  0  0  0  0  0  0  0  0  0  0
   -4.5306   24.0250    2.1640 C   0  0  0  0  0  0  0  0  0  0  0  0
   -4.2084   22.9641    3.0169 C   0  0  0  0  0  0  0  0  0  0  0  0
   -4.8944   21.7561    2.9238 C   0  0  0  0  0  0  0  0  0  0  0  0
   -5.9183   21.6062    1.9907 C   0  0  0  0  0  0  0  0  0  0  0  0
   -6.2848   22.6676    1.1499 C   0  0  0  0  0  0  0  0  0  0  0  0
   -7.3322   22.5186    0.2254 C   0  0  0  0  0  0  0  0  0  0  0  0
   -7.7107   23.5734   -0.6051 C   0  0  0  0  0  0  0  0  0  0  0  0
   -7.0495   24.7923   -0.5197 C   0  0  0  0  0  0  0  0  0  0  0  0
   -6.0056   24.9546    0.3930 C   0  0  0  0  0  0  0  0  0  0  0  0
   -5.5959   23.9019    1.2394 C   0  0  0  0  0  0  0  0  0  0  0  0
  9 10  1  0  0  0
 10  8  1  0  0  0
  8  7  1  0  0  0
  7  1  1  0  0  0
  1 12  1  0  0  0
 12 13  1  0  0  0
 13 14  2  0  0  0
 14 15  1  0  0  0
 15 16  2  0  0  0
 16 17  1  0  0  0
 17 18  2  0  0  0
 18 19  1  0  0  0
 19 20  2  0  0  0
 20 21  1  0  0  0
 21 22  2  0  0  0
  1  2  1  0  0  0
  2  3  2  0  0  0
  3  4  1  0  0  0
  4  5  2  0  0  0
  5  6  1  0  0  0
 22 13  1  0  0  0
  6  2  1  0  0  0
 22 17  1  0  0  0
 10 11  1  0  0  0
M  END
> <minimizedAffinity>
-8.67917

$$$$
OCNT-2328868


 20 20  0  0  0  0  0  0  0  0999 V2000
   -5.4920   25.9061    2.2966 C   0  0  0  0  0  0  0  0  0  0  0  0
   -6.0745   25.8273    1.2285 O   0  0  0  0  0  0  0  0  0  0  0  0
   -5.8051   26.9184    3.3194 C   0  0  0  0  0  0  0  0  0  0  0  0
   -5.8111   28.2572    2.9093 C   0  0  0  0  0  0  0  0  0  0  0  0
   -6.0948   29.2694    3.8296 C   0  0  0  0  0  0  0  0  0  0  0  0
   -6.3438   28.9648    5.1699 C   0  0  0  0  0  0  0  0  0  0  0  0
   -6.7441   29.9702    6.0549 N   0  0  0  0  0  0  0  0  0  0  0  0
   -6.4136   27.6213    5.5520 C   0  0  0  0  0  0  0  0  0  0  0  0
   -6.1325   26.5965    4.6388 C   0  0  0  0  0  0  0  0  0  0  0  0
   -6.2786   24.9680    5.1995 Cl  0  0  0  0  0  0  0  0  0  0  0  0
   -6.3950   30.8960    5.8253 H   0  0  0  0  0  0  0  0  0  0  0  0
   -6.6158   29.7444    7.0369 H   0  0  0  0  0  0  0  0  0  0  0  0
   -4.4151   25.1875    2.6922 O   0  0  0  0  0  0  0  0  0  0  0  0
   -4.2081   23.9481    1.9899 C   0  0  0  0  0  0  0  0  0  0  0  0
   -4.9358   22.8004    2.7108 C   0  0  0  0  0  0  0  0  0  0  0  0
   -6.0841   22.1826    2.0172 N   0  0  0  0  0  0  0  0  0  0  0  0
   -7.3362   22.7907   -0.0757 C   0  0  0  0  0  0  0  0  0  0  0  0
   -6.0274   22.3183    0.5517 C   0  0  0  0  0  0  0  0  0  0  0  0
   -7.3607   22.6690    2.5670 C   0  0  0  0  0  0  0  0  0  0  0  0
   -8.0629   21.6328    3.4391 C   0  0  0  0  0  0  0  0  0  0  0  0
 17 18  1  0  0  0
 18 16  1  0  0  0
 16 19  1  0  0  0
 19 20  1  0  0  0
 16 15  1  0  0  0
 15 14  1  0  0  0
 14 13  1  0  0  0
 13  1  1  0  0  0
  1  2  2  0  0  0
  1  3  1  0  0  0
  3  4  1  0  0  0
  4  5  2  0  0  0
  5  6  1  0  0  0
  6  7  1  0  0  0
  6  8  2  0  0  0
  8  9  1  0  0  0
  9 10  1  0  0  0
  9  3  2  0  0  0
  7 11  1  0  0  0
  7 12  1  0  0  0
M  END
> <minimizedAffinity>
-6.42797

$$$$
OCNT-2328870


 22 25  0  0  0  0  0  0  0  0999 V2000
   -1.0298   26.2745    4.7327 C   0  0  0  0  0  0  0  0  0  0  0  0
   -2.4475   26.3860    4.3959 N   0  0  0  0  0  0  0  0  0  0  0  0
   -2.7053   25.8469    3.0493 C   0  0  0  0  0  0  0  0  0  0  0  0
   -4.1892   25.9431    2.6519 C   0  0  0  0  0  0  0  0  0  0  0  0
   -5.0888   25.2623    3.6762 C   0  0  0  0  0  0  0  0  0  0  0  0
   -6.0067   24.2975    3.3911 C   0  0  0  0  0  0  0  0  0  0  0  0
   -6.7477   23.6458    4.4975 C   0  0  0  0  0  0  0  0  0  0  0  0
   -7.7774   24.3111    5.1744 C   0  0  0  0  0  0  0  0  0  0  0  0
   -8.4620   23.6723    6.2078 C   0  0  0  0  0  0  0  0  0  0  0  0
   -8.1288   22.3653    6.5609 C   0  0  0  0  0  0  0  0  0  0  0  0
   -7.1178   21.6883    5.8760 C   0  0  0  0  0  0  0  0  0  0  0  0
   -6.4252   22.3203    4.8355 C   0  0  0  0  0  0  0  0  0  0  0  0
   -5.3647   21.5927    4.0468 C   0  0  0  0  0  0  0  0  0  0  0  0
   -5.8142   21.3005    2.6093 C   0  0  0  0  0  0  0  0  0  0  0  0
   -6.1159   22.4451    1.6621 C   0  0  0  0  0  0  0  0  0  0  0  0
   -6.2116   23.8025    2.0023 C   0  0  0  0  0  0  0  0  0  0  0  0
   -6.5527   24.7645    1.1009 N   0  0  0  0  0  0  0  0  0  0  0  0
   -6.7837   24.3883   -0.1721 C   0  0  0  0  0  0  0  0  0  0  0  0
   -6.7003   23.0830   -0.6091 C   0  0  0  0  0  0  0  0  0  0  0  0
   -6.3673   22.1053    0.3203 C   0  0  0  0  0  0  0  0  0  0  0  0
   -4.7752   25.7882    5.0717 C   0  0  0  0  0  0  0  0  0  0  0  0
   -3.2747   25.6829    5.3911 C   0  0  0  0  0  0  0  0  0  0  0  0
  1  2  1  0  0  0
  2  3  1  0  0  0
  3  4  1  0  0  0
  4  5  1  0  0  0
  5  6  2  0  0  0
  6  7  1  0  0  0
  7  8  2  0  0  0
  8  9  1  0  0  0
  9 10  2  0  0  0
 10 11  1  0  0  0
 11 12  2  0  0  0
 12 13  1  0  0  0
 13 14  1  0  0  0
 14 15  1  0  0  0
 15 16  2  0  0  0
 16 17  1  0  0  0
 17 18  2  0  0  0
 18 19  1  0  0  0
 19 20  2  0  0  0
  5 21  1  0  0  0
 21 22  1  0  0  0
 22  2  1  0  0  0
 16  6  1  0  0  0
 12  7  1  0  0  0
 20 15  1  0  0  0
M  END
> <minimizedAffinity>
-8.92547

$$$$
OCNT-2328890


 13 13  0  0  0  0  0  0  0  0999 V2000
   -2.4403   31.6580    7.3035 C   0  0  0  0  0  0  0  0  0  0  0  0
   -1.2543   30.7509    7.5374 C   0  0  0  0  0  0  0  0  0  0  0  0
   -0.7332   30.5750    8.8262 C   0  0  0  0  0  0  0  0  0  0  0  0
    0.3722   29.7486    9.0347 C   0  0  0  0  0  0  0  0  0  0  0  0
    0.9673   29.0930    7.9584 C   0  0  0  0  0  0  0  0  0  0  0  0
    0.4582   29.2629    6.6723 C   0  0  0  0  0  0  0  0  0  0  0  0
   -0.6470   30.0883    6.4619 C   0  0  0  0  0  0  0  0  0  0  0  0
   -3.7089   30.9146    6.8498 C   0  0  0  0  0  0  0  0  0  0  0  0
   -5.1405   30.3170    5.0302 N   0  0  0  0  0  0  0  0  0  0  0  0
   -4.2277   31.3222    5.5301 N   0  0  0  0  0  0  0  0  0  0  0  0
   -5.9898   30.2888    5.6037 H   0  0  0  0  0  0  0  0  0  0  0  0
   -5.4761   30.5746    4.0967 H   0  0  0  0  0  0  0  0  0  0  0  0
   -3.4219   31.4432    4.9032 H   0  0  0  0  0  0  0  0  0  0  0  0
  9 10  1  0  0  0
 10  8  1  0  0  0
  8  1  1  0  0  0
  1  2  1  0  0  0
  2  3  2  0  0  0
  3  4  1  0  0  0
  4  5  2  0  0  0
  5  6  1  0  0  0
  6  7  2  0  0  0
  7  2  1  0  0  0
  9 11  1  0  0  0
  9 12  1  0  0  0
 10 13  1  0  0  0
M  END
> <minimizedAffinity>
-6.07278

$$$$
OCNT-2328898


 25 26  0  0  0  0  0  0  0  0999 V2000
   -4.7004   26.9202    5.7076 N   0  0  0  0  0  0  0  0  0  0  0  0
   -5.2116   26.0745    5.4671 H   0  0  0  0  0  0  0  0  0  0  0  0
   -3.3181   26.7620    5.5145 C   0  0  0  0  0  0  0  0  0  0  0  0
   -2.7954   26.0358    4.4434 C   0  0  0  0  0  0  0  0  0  0  0  0
   -1.4248   25.9404    4.2931 C   0  0  0  0  0  0  0  0  0  0  0  0
   -0.5350   26.5313    5.1099 N   0  0  0  0  0  0  0  0  0  0  0  0
   -1.0103   27.2816    6.1114 C   0  0  0  0  0  0  0  0  0  0  0  0
   -0.0849   27.9181    6.9247 C   0  0  0  0  0  0  0  0  0  0  0  0
   -0.4867   28.7388    7.9738 C   0  0  0  0  0  0  0  0  0  0  0  0
    0.6927   29.5142    8.9575 Cl  0  0  0  0  0  0  0  0  0  0  0  0
   -1.8345   28.9425    8.2252 C   0  0  0  0  0  0  0  0  0  0  0  0
   -2.7813   28.3071    7.4219 C   0  0  0  0  0  0  0  0  0  0  0  0
   -2.3958   27.4528    6.3577 C   0  0  0  0  0  0  0  0  0  0  0  0
   -5.4403   28.1336    5.3377 C   0  0  0  0  0  0  0  0  0  0  0  0
   -5.9703   27.9855    3.9084 C   0  0  0  0  0  0  0  0  0  0  0  0
   -6.5967   28.3010    6.3515 C   0  0  0  0  0  0  0  0  0  0  0  0
   -6.8791   29.7557    6.7593 C   0  0  0  0  0  0  0  0  0  0  0  0
   -5.6428   30.5078    7.2694 C   0  0  0  0  0  0  0  0  0  0  0  0
   -5.6405   30.9125    8.6800 N   0  0  0  0  0  0  0  0  0  0  0  0
   -3.6502   32.2513    9.3850 C   0  0  0  0  0  0  0  0  0  0  0  0
   -5.1038   32.2524    8.9230 C   0  0  0  0  0  0  0  0  0  0  0  0
   -5.1960   29.8655    9.6102 C   0  0  0  0  0  0  0  0  0  0  0  0
   -6.2589   29.1699   10.4705 C   0  0  0  0  0  0  0  0  0  0  0  0
   -5.7156   27.9710   11.0202 O   0  0  0  0  0  0  0  0  0  0  0  0
   -6.4229   27.5503   11.5385 H   0  0  0  0  0  0  0  0  0  0  0  0
 20 21  1  0  0  0
 21 19  1  0  0  0
 19 22  1  0  0  0
 22 23  1  0  0  0
 23 24  1  0  0  0
 19 18  1  0  0  0
 18 17  1  0  0  0
 17 16  1  0  0  0
 16 14  1  0  0  0
 14 15  1  0  0  0
 14  1  1  0  0  0
  1  3  1  0  0  0
  3  4  2  0  0  0
  4  5  1  0  0  0
  5  6  2  0  0  0
  6  7  1  0  0  0
  7  8  2  0  0  0
  8  9  1  0  0  0
  9 10  1  0  0  0
  9 11  2  0  0  0
 11 12  1  0  0  0
 12 13  2  0  0  0
 13  3  1  0  0  0
 13  7  1  0  0  0
 24 25  1  0  0  0
  1  2  1  0  0  0
M  END
> <minimizedAffinity>
-7.71983

$$$$
OCNT-2328911


 26 28  0  0  0  0  0  0  0  0999 V2000
   -2.6809   27.3555    6.5776 C   0  0  0  0  0  0  0  0  0  0  0  0
   -3.1698   26.8967    5.2290 C   0  0  0  0  0  0  0  0  0  0  0  0
   -2.2535   26.2976    4.3400 C   0  0  0  0  0  0  0  0  0  0  0  0
   -2.6775   25.8794    3.0833 C   0  0  0  0  0  0  0  0  0  0  0  0
   -4.0015   26.0717    2.7485 C   0  0  0  0  0  0  0  0  0  0  0  0
   -4.9026   26.6430    3.5676 N   0  0  0  0  0  0  0  0  0  0  0  0
   -4.4936   27.0610    4.7945 C   0  0  0  0  0  0  0  0  0  0  0  0
   -0.9692   26.1746    4.8065 O   0  0  0  0  0  0  0  0  0  0  0  0
   -0.0273   25.4576    4.0012 C   0  0  0  0  0  0  0  0  0  0  0  0
    1.0898   26.3810    3.5386 C   0  0  0  0  0  0  0  0  0  0  0  0
    2.2914   25.7751    3.6992 F   0  0  0  0  0  0  0  0  0  0  0  0
    0.9718   26.6979    2.2310 F   0  0  0  0  0  0  0  0  0  0  0  0
    1.1207   27.5288    4.2499 F   0  0  0  0  0  0  0  0  0  0  0  0
   -5.5749   27.7075    5.6257 C   0  0  0  0  0  0  0  0  0  0  0  0
   -5.8823   29.4577    5.2321 S   0  0  0  0  0  0  0  0  0  0  0  0
   -7.2591   29.8410    5.6987 O   0  0  0  0  0  0  0  0  0  0  0  0
   -4.7388   30.1689    6.4248 C   0  0  0  0  0  0  0  0  0  0  0  0
   -4.8502   30.0609    7.7304 N   0  0  0  0  0  0  0  0  0  0  0  0
   -3.7752   30.7554    8.2329 C   0  0  0  0  0  0  0  0  0  0  0  0
   -3.3987   30.9820    9.5646 C   0  0  0  0  0  0  0  0  0  0  0  0
   -2.2415   31.7298    9.8184 C   0  0  0  0  0  0  0  0  0  0  0  0
   -1.4744   32.2412    8.7683 C   0  0  0  0  0  0  0  0  0  0  0  0
   -1.8330   32.0262    7.4323 C   0  0  0  0  0  0  0  0  0  0  0  0
   -2.9902   31.2781    7.2084 C   0  0  0  0  0  0  0  0  0  0  0  0
   -3.6278   30.8797    6.0640 N   0  0  0  0  0  0  0  0  0  0  0  0
   -3.3600   31.0758    5.1101 H   0  0  0  0  0  0  0  0  0  0  0  0
  1  2  1  0  0  0
  2  3  1  0  0  0
  3  8  1  0  0  0
  8  9  1  0  0  0
  9 10  1  0  0  0
 10 11  1  0  0  0
 10 12  1  0  0  0
 10 13  1  0  0  0
  3  4  2  0  0  0
  4  5  1  0  0  0
  5  6  2  0  0  0
  6  7  1  0  0  0
  7 14  1  0  0  0
 15 14  1  0  0  0
 15 16  2  0  0  0
 15 17  1  0  0  0
 17 18  2  0  0  0
 18 19  1  0  0  0
 19 20  2  0  0  0
 20 21  1  0  0  0
 21 22  2  0  0  0
 22 23  1  0  0  0
 23 24  2  0  0  0
 24 25  1  0  0  0
  7  2  2  0  0  0
 25 17  1  0  0  0
 24 19  1  0  0  0
 25 26  1  0  0  0
M  END
> <minimizedAffinity>
-8.71138

$$$$
OCNT-2328914


 33 35  0  0  0  0  0  0  0  0999 V2000
   -5.7571   27.4218    3.6373 C   0  0  0  0  0  0  0  0  0  0  0  0
   -5.8851   28.7790    3.3479 C   0  0  0  0  0  0  0  0  0  0  0  0
   -6.3425   29.6723    4.3244 C   0  0  0  0  0  0  0  0  0  0  0  0
   -6.6789   29.2240    5.6085 C   0  0  0  0  0  0  0  0  0  0  0  0
   -6.5282   27.8656    5.9026 C   0  0  0  0  0  0  0  0  0  0  0  0
   -6.0792   26.9735    4.9233 C   0  0  0  0  0  0  0  0  0  0  0  0
   -4.0651   25.9420    2.5201 C   0  0  0  0  0  0  0  0  0  0  0  0
   -3.0626   26.2312    3.1692 O   0  0  0  0  0  0  0  0  0  0  0  0
   -5.3361   26.4538    2.7077 N   0  0  0  0  0  0  0  0  0  0  0  0
   -6.0608   26.0494    2.1134 H   0  0  0  0  0  0  0  0  0  0  0  0
   -3.9636   24.9836    1.3420 C   0  0  0  0  0  0  0  0  0  0  0  0
   -8.1594   23.3799   -0.3298 N   0  0  0  0  0  0  0  0  0  0  0  0
   -7.0559   23.3710    0.4318 C   0  0  0  0  0  0  0  0  0  0  0  0
   -6.1493   24.3164    0.3846 N   0  0  0  0  0  0  0  0  0  0  0  0
   -5.1137   24.0336    1.2710 C   0  0  0  0  0  0  0  0  0  0  0  0
   -5.2826   22.8728    1.9993 C   0  0  0  0  0  0  0  0  0  0  0  0
   -6.7536   22.1125    1.5576 S   0  0  0  0  0  0  0  0  0  0  0  0
   -8.9641   22.8598   -0.0033 H   0  0  0  0  0  0  0  0  0  0  0  0
   -8.3907   24.2663   -0.7608 H   0  0  0  0  0  0  0  0  0  0  0  0
   -7.1898   30.1902    6.6507 C   0  0  0  0  0  0  0  0  0  0  0  0
   -6.1712   30.5254    7.7547 C   0  0  0  0  0  0  0  0  0  0  0  0
   -5.1989   31.5863    7.4379 N   0  0  0  0  0  0  0  0  0  0  0  0
   -5.1070   31.6142    6.4194 H   0  0  0  0  0  0  0  0  0  0  0  0
   -3.8485   31.3336    7.9893 C   0  0  0  0  0  0  0  0  0  0  0  0
   -2.7271   31.5137    6.9381 C   0  0  0  0  0  0  0  0  0  0  0  0
   -3.2445   31.1273    5.6588 O   0  0  0  0  0  0  0  0  0  0  0  0
   -4.1929   31.3762    5.7032 H   0  0  0  0  0  0  0  0  0  0  0  0
   -1.4800   30.7283    7.2928 C   0  0  0  0  0  0  0  0  0  0  0  0
   -0.6994   30.0912    6.3138 C   0  0  0  0  0  0  0  0  0  0  0  0
    0.4423   29.3672    6.6670 C   0  0  0  0  0  0  0  0  0  0  0  0
    0.8208   29.2690    8.0042 C   0  0  0  0  0  0  0  0  0  0  0  0
    0.0608   29.8995    8.9886 C   0  0  0  0  0  0  0  0  0  0  0  0
   -1.0797   30.6255    8.6361 C   0  0  0  0  0  0  0  0  0  0  0  0
 12 13  1  0  0  0
 13 14  2  0  0  0
 14 15  1  0  0  0
 15 11  1  0  0  0
 11  7  1  0  0  0
  7  8  2  0  0  0
  7  9  1  0  0  0
  9  1  1  0  0  0
  1  2  1  0  0  0
  2  3  2  0  0  0
  3  4  1  0  0  0
  4 20  1  0  0  0
 20 21  1  0  0  0
 21 22  1  0  0  0
 22 24  1  0  0  0
 24 25  1  0  0  0
 25 26  1  0  0  0
 25 28  1  0  0  0
 28 29  2  0  0  0
 29 30  1  0  0  0
 30 31  2  0  0  0
 31 32  1  0  0  0
 32 33  2  0  0  0
  4  5  2  0  0  0
  5  6  1  0  0  0
 15 16  2  0  0  0
 16 17  1  0  0  0
 17 13  1  0  0  0
  6  1  2  0  0  0
 33 28  1  0  0  0
 12 18  1  0  0  0
 12 19  1  0  0  0
  9 10  1  0  0  0
 22 23  1  0  0  0
 26 27  1  0  0  0
M  END
> <minimizedAffinity>
-9.98140

$$$$
OCNT-2328916


 24 26  0  0  0  0  0  0  0  0999 V2000
   -4.8406   30.4708    6.0979 C   0  0  0  0  0  0  0  0  0  0  0  0
   -4.9496   29.1095    6.6144 N   0  0  0  0  0  0  0  0  0  0  0  0
   -6.1837   28.4338    6.1841 C   0  0  0  0  0  0  0  0  0  0  0  0
   -6.0685   27.4642    5.0268 C   0  0  0  0  0  0  0  0  0  0  0  0
   -6.2009   26.0875    5.2279 C   0  0  0  0  0  0  0  0  0  0  0  0
   -6.0908   25.1950    4.1562 C   0  0  0  0  0  0  0  0  0  0  0  0
   -5.8481   25.6434    2.8442 C   0  0  0  0  0  0  0  0  0  0  0  0
   -5.7246   27.0286    2.6547 C   0  0  0  0  0  0  0  0  0  0  0  0
   -5.8345   27.9238    3.7262 C   0  0  0  0  0  0  0  0  0  0  0  0
   -5.7319   24.6318    1.6908 C   0  0  0  0  0  0  0  0  0  0  0  0
   -4.3200   24.0230    1.5336 C   0  0  0  0  0  0  0  0  0  0  0  0
   -6.7097   23.4604    1.9273 C   0  0  0  0  0  0  0  0  0  0  0  0
   -6.0817   25.3239    0.3558 C   0  0  0  0  0  0  0  0  0  0  0  0
   -4.7450   29.0420    8.0680 C   0  0  0  0  0  0  0  0  0  0  0  0
   -3.5539   29.8517    8.5619 C   0  0  0  0  0  0  0  0  0  0  0  0
   -3.8166   31.0146    9.3115 C   0  0  0  0  0  0  0  0  0  0  0  0
   -2.7782   31.7944    9.8078 C   0  0  0  0  0  0  0  0  0  0  0  0
   -1.4588   31.4248    9.5652 C   0  0  0  0  0  0  0  0  0  0  0  0
   -1.1575   30.2749    8.8210 C   0  0  0  0  0  0  0  0  0  0  0  0
    0.1823   29.9210    8.5883 C   0  0  0  0  0  0  0  0  0  0  0  0
    0.5078   28.7852    7.8493 C   0  0  0  0  0  0  0  0  0  0  0  0
   -0.5040   27.9892    7.3310 C   0  0  0  0  0  0  0  0  0  0  0  0
   -1.8408   28.3280    7.5550 C   0  0  0  0  0  0  0  0  0  0  0  0
   -2.2057   29.4709    8.3033 C   0  0  0  0  0  0  0  0  0  0  0  0
  1  2  1  0  0  0
  2  3  1  0  0  0
  3  4  1  0  0  0
  4  5  1  0  0  0
  5  6  2  0  0  0
  6  7  1  0  0  0
  7 10  1  0  0  0
 10 11  1  0  0  0
 10 12  1  0  0  0
 10 13  1  0  0  0
  7  8  2  0  0  0
  8  9  1  0  0  0
  2 14  1  0  0  0
 14 15  1  0  0  0
 15 16  2  0  0  0
 16 17  1  0  0  0
 17 18  2  0  0  0
 18 19  1  0  0  0
 19 20  2  0  0  0
 20 21  1  0  0  0
 21 22  2  0  0  0
 22 23  1  0  0  0
 23 24  2  0  0  0
  9  4  2  0  0  0
 24 15  1  0  0  0
 24 19  1  0  0  0
M  END
> <minimizedAffinity>
-10.25840

$$$$
OCNT-2328919


 52 57  0  0  0  0  0  0  0  0999 V2000
   -5.3907   28.5915    5.9388 C   0  0  0  0  0  0  0  0  0  0  0  0
   -4.1116   27.7499    5.8673 C   0  0  0  0  0  0  0  0  0  0  0  0
   -4.2118   26.6851    4.7762 C   0  0  0  0  0  0  0  0  0  0  0  0
   -4.3379   27.2853    3.4359 N   0  0  0  0  0  0  0  0  0  0  0  0
   -5.1717   28.5011    3.4304 C   0  0  0  0  0  0  0  0  0  0  0  0
   -6.1461   28.5980    4.6025 C   0  0  0  0  0  0  0  0  0  0  0  0
   -5.7599   29.6630    8.5447 O   0  0  0  0  0  0  0  0  0  0  0  0
   -5.3567   30.3895    7.6469 C   0  0  0  0  0  0  0  0  0  0  0  0
   -5.0691   29.9495    6.3702 N   0  0  0  0  0  0  0  0  0  0  0  0
   -4.9266   30.6479    5.6515 H   0  0  0  0  0  0  0  0  0  0  0  0
   -5.1332   31.8452    7.8654 C   0  0  0  0  0  0  0  0  0  0  0  0
   -6.2608   32.6833    7.9341 C   0  0  0  0  0  0  0  0  0  0  0  0
   -6.1083   34.0541    8.1343 C   0  0  0  0  0  0  0  0  0  0  0  0
   -4.8322   34.5941    8.2649 C   0  0  0  0  0  0  0  0  0  0  0  0
   -3.7084   33.7665    8.1915 C   0  0  0  0  0  0  0  0  0  0  0  0
   -3.8346   32.3788    7.9903 C   0  0  0  0  0  0  0  0  0  0  0  0
   -2.6162   31.5601    7.9462 C   0  0  0  0  0  0  0  0  0  0  0  0
   -2.0440   31.0714    9.1306 C   0  0  0  0  0  0  0  0  0  0  0  0
   -0.8869   30.2873    9.0975 C   0  0  0  0  0  0  0  0  0  0  0  0
   -0.2726   29.9770    7.8757 C   0  0  0  0  0  0  0  0  0  0  0  0
   -0.8514   30.4528    6.6891 C   0  0  0  0  0  0  0  0  0  0  0  0
   -2.0091   31.2370    6.7237 C   0  0  0  0  0  0  0  0  0  0  0  0
    0.9724   29.1249    7.8301 C   0  0  0  0  0  0  0  0  0  0  0  0
    1.7446   29.3693    6.7330 F   0  0  0  0  0  0  0  0  0  0  0  0
    0.6857   27.7942    7.7916 F   0  0  0  0  0  0  0  0  0  0  0  0
    1.7912   29.2968    8.9058 F   0  0  0  0  0  0  0  0  0  0  0  0
   -4.7631   26.3049    2.4221 C   0  0  0  0  0  0  0  0  0  0  0  0
   -6.0600   25.5595    2.7782 C   0  0  0  0  0  0  0  0  0  0  0  0
   -5.9536   24.5594    3.9315 C   0  0  0  0  0  0  0  0  0  0  0  0
   -7.2914   24.4478    4.6844 C   0  0  0  0  0  0  0  0  0  0  0  0
   -7.7050   23.0182    5.1210 C   0  0  0  0  0  0  0  0  0  0  0  0
   -6.6623   22.3587    6.0364 C   0  0  0  0  0  0  0  0  0  0  0  0
   -5.3321   22.0704    5.7639 C   0  0  0  0  0  0  0  0  0  0  0  0
   -4.5731   21.4607    6.7643 C   0  0  0  0  0  0  0  0  0  0  0  0
   -5.1446   21.1470    8.0085 C   0  0  0  0  0  0  0  0  0  0  0  0
   -6.4865   21.4356    8.2762 C   0  0  0  0  0  0  0  0  0  0  0  0
   -7.2417   22.0426    7.2867 C   0  0  0  0  0  0  0  0  0  0  0  0
   -8.6324   22.4453    7.2828 C   0  0  0  0  0  0  0  0  0  0  0  0
   -9.6037   22.3282    8.2634 C   0  0  0  0  0  0  0  0  0  0  0  0
  -10.8923   22.7948    7.9832 C   0  0  0  0  0  0  0  0  0  0  0  0
  -11.1984   23.3664    6.7368 C   0  0  0  0  0  0  0  0  0  0  0  0
  -10.2216   23.4848    5.7473 C   0  0  0  0  0  0  0  0  0  0  0  0
   -8.9433   23.0247    6.0318 C   0  0  0  0  0  0  0  0  0  0  0  0
   -7.9748   22.1391    3.8672 C   0  0  0  0  0  0  0  0  0  0  0  0
   -8.5340   21.0441    3.9219 O   0  0  0  0  0  0  0  0  0  0  0  0
   -7.5403   22.6546    2.6590 N   0  0  0  0  0  0  0  0  0  0  0  0
   -6.9308   23.4673    2.6797 H   0  0  0  0  0  0  0  0  0  0  0  0
   -7.5695   21.8409    1.4454 C   0  0  0  0  0  0  0  0  0  0  0  0
   -7.4185   22.6238    0.1381 C   0  0  0  0  0  0  0  0  0  0  0  0
   -8.4447   22.3420   -0.7034 F   0  0  0  0  0  0  0  0  0  0  0  0
   -6.2729   22.2755   -0.4945 F   0  0  0  0  0  0  0  0  0  0  0  0
   -7.3964   23.9613    0.3230 F   0  0  0  0  0  0  0  0  0  0  0  0
  7  8  2  0  0  0
  8  9  1  0  0  0
  9  1  1  0  0  0
  1  2  1  0  0  0
  2  3  1  0  0  0
  3  4  1  0  0  0
  4 27  1  0  0  0
 27 28  1  0  0  0
 28 29  1  0  0  0
 29 30  1  0  0  0
 30 31  1  0  0  0
 31 44  1  0  0  0
 44 45  2  0  0  0
 44 46  1  0  0  0
 46 48  1  0  0  0
 48 49  1  0  0  0
 49 50  1  0  0  0
 49 51  1  0  0  0
 49 52  1  0  0  0
 31 32  1  0  0  0
 32 33  2  0  0  0
 33 34  1  0  0  0
 34 35  2  0  0  0
 35 36  1  0  0  0
 36 37  2  0  0  0
 37 38  1  0  0  0
 38 39  2  0  0  0
 39 40  1  0  0  0
 40 41  2  0  0  0
 41 42  1  0  0  0
 42 43  2  0  0  0
  4  5  1  0  0  0
  5  6  1  0  0  0
  8 11  1  0  0  0
 11 12  2  0  0  0
 12 13  1  0  0  0
 13 14  2  0  0  0
 14 15  1  0  0  0
 15 16  2  0  0  0
 16 17  1  0  0  0
 17 18  1  0  0  0
 18 19  2  0  0  0
 19 20  1  0  0  0
 20 23  1  0  0  0
 23 24  1  0  0  0
 23 25  1  0  0  0
 23 26  1  0  0  0
 20 21  2  0  0  0
 21 22  1  0  0  0
  6  1  1  0  0  0
 16 11  1  0  0  0
 22 17  2  0  0  0
 43 31  1  0  0  0
 37 32  1  0  0  0
 43 38  1  0  0  0
  9 10  1  0  0  0
 46 47  1  0  0  0
M  END
> <minimizedAffinity>
-10.37941

$$$$
OCNT-2328942


 69 77  0  0  0  0  0  0  0  0999 V2000
   -3.5291   24.3386    3.9430 C   0  0  0  0  0  0  0  0  0  0  0  0
   -2.4874   24.4233    4.8665 C   0  0  0  0  0  0  0  0  0  0  0  0
   -2.1901   25.6396    5.4969 C   0  0  0  0  0  0  0  0  0  0  0  0
   -2.9360   26.7967    5.2244 C   0  0  0  0  0  0  0  0  0  0  0  0
   -3.9879   26.6986    4.2986 C   0  0  0  0  0  0  0  0  0  0  0  0
   -4.2656   25.4890    3.6482 C   0  0  0  0  0  0  0  0  0  0  0  0
   -4.7723   27.9478    3.9953 C   0  0  0  0  0  0  0  0  0  0  0  0
   -4.9566   28.7996    5.1377 O   0  0  0  0  0  0  0  0  0  0  0  0
   -3.7976   29.0300    5.8432 C   0  0  0  0  0  0  0  0  0  0  0  0
   -3.7504   30.2260    6.5541 C   0  0  0  0  0  0  0  0  0  0  0  0
   -2.5977   30.5447    7.2857 C   0  0  0  0  0  0  0  0  0  0  0  0
   -2.4941   31.7493    8.0139 C   0  0  0  0  0  0  0  0  0  0  0  0
   -3.3660   32.7731    8.2584 N   0  0  0  0  0  0  0  0  0  0  0  0
   -2.7324   33.7340    9.0059 C   0  0  0  0  0  0  0  0  0  0  0  0
   -1.4971   33.3587    9.2906 N   0  0  0  0  0  0  0  0  0  0  0  0
   -1.3472   32.1175    8.7102 C   0  0  0  0  0  0  0  0  0  0  0  0
   -0.2463   31.2519    8.7207 C   0  0  0  0  0  0  0  0  0  0  0  0
   -0.3322   30.0328    8.0261 C   0  0  0  0  0  0  0  0  0  0  0  0
   -1.4891   29.6709    7.3063 C   0  0  0  0  0  0  0  0  0  0  0  0
   -1.5870   28.4472    6.6118 C   0  0  0  0  0  0  0  0  0  0  0  0
   -2.7466   28.0945    5.8942 C   0  0  0  0  0  0  0  0  0  0  0  0
   -4.3288   32.8164    7.9473 H   0  0  0  0  0  0  0  0  0  0  0  0
   -3.4588   34.9717    9.4150 C   0  0  0  0  0  0  0  0  0  0  0  0
   -3.0001   35.5389   10.7504 C   0  0  0  0  0  0  0  0  0  0  0  0
   -4.1396   36.5048   11.0414 C   0  0  0  0  0  0  0  0  0  0  0  0
   -5.3967   35.7428   10.5582 C   0  0  0  0  0  0  0  0  0  0  0  0
   -6.1815   35.1906   11.7421 C   0  0  0  0  0  0  0  0  0  0  0  0
   -4.8845   34.7259    9.6259 N   0  0  0  0  0  0  0  0  0  0  0  0
   -5.6186   34.3964    8.4901 C   0  0  0  0  0  0  0  0  0  0  0  0
   -5.2739   34.8154    7.3811 O   0  0  0  0  0  0  0  0  0  0  0  0
   -6.8487   33.4610    8.7048 C   0  0  0  0  0  0  0  0  0  0  0  0
   -7.6764   33.5445    7.4982 N   0  0  0  0  0  0  0  0  0  0  0  0
   -8.5469   32.5709    7.1015 C   0  0  0  0  0  0  0  0  0  0  0  0
   -8.9151   31.6079    7.7540 O   0  0  0  0  0  0  0  0  0  0  0  0
   -7.3449   34.1116    6.7335 H   0  0  0  0  0  0  0  0  0  0  0  0
   -8.9496   32.8477    5.8332 O   0  0  0  0  0  0  0  0  0  0  0  0
  -10.3525   33.0889    5.7180 C   0  0  0  0  0  0  0  0  0  0  0  0
   -6.4697   32.0125    9.1415 C   0  0  0  0  0  0  0  0  0  0  0  0
   -7.4383   31.4320   10.1828 C   0  0  0  0  0  0  0  0  0  0  0  0
   -6.4316   31.0214    7.9685 C   0  0  0  0  0  0  0  0  0  0  0  0
   -5.1987   21.4482    2.5413 C   0  0  0  0  0  0  0  0  0  0  0  0
   -4.0049   20.9038    2.6509 N   0  0  0  0  0  0  0  0  0  0  0  0
   -3.1858   21.9048    3.1136 C   0  0  0  0  0  0  0  0  0  0  0  0
   -3.8966   23.0714    3.3327 C   0  0  0  0  0  0  0  0  0  0  0  0
   -5.1462   22.7901    2.8399 N   0  0  0  0  0  0  0  0  0  0  0  0
   -5.9096   23.4444    2.7512 H   0  0  0  0  0  0  0  0  0  0  0  0
   -8.3463   20.8122    0.7304 C   0  0  0  0  0  0  0  0  0  0  0  0
   -6.8307   20.9338    0.7392 C   0  0  0  0  0  0  0  0  0  0  0  0
   -6.5010   20.7807    2.2272 C   0  0  0  0  0  0  0  0  0  0  0  0
   -7.6286   21.4033    2.9133 N   0  0  0  0  0  0  0  0  0  0  0  0
   -7.6992   21.3956    4.2990 C   0  0  0  0  0  0  0  0  0  0  0  0
   -6.8539   20.7597    4.9466 O   0  0  0  0  0  0  0  0  0  0  0  0
   -8.7482   21.5775    1.9907 C   0  0  0  0  0  0  0  0  0  0  0  0
   -8.9975   21.3571   -0.5340 C   0  0  0  0  0  0  0  0  0  0  0  0
   -7.8906   23.4621   -0.6317 C   0  0  0  0  0  0  0  0  0  0  0  0
   -9.1276   22.7770   -0.4939 O   0  0  0  0  0  0  0  0  0  0  0  0
   -8.7006   22.3450    5.0442 C   0  0  0  0  0  0  0  0  0  0  0  0
   -8.8096   22.0245    6.5349 C   0  0  0  0  0  0  0  0  0  0  0  0
   -7.6923   21.7467    7.3385 C   0  0  0  0  0  0  0  0  0  0  0  0
   -7.8390   21.4946    8.7047 C   0  0  0  0  0  0  0  0  0  0  0  0
   -9.1022   21.5330    9.2915 C   0  0  0  0  0  0  0  0  0  0  0  0
  -10.2185   21.8317    8.5191 C   0  0  0  0  0  0  0  0  0  0  0  0
  -10.0748   22.0737    7.1491 C   0  0  0  0  0  0  0  0  0  0  0  0
   -8.5068   23.7740    4.9061 N   0  0  0  0  0  0  0  0  0  0  0  0
   -7.3343   24.3865    5.1989 C   0  0  0  0  0  0  0  0  0  0  0  0
   -6.3379   23.8329    5.6355 O   0  0  0  0  0  0  0  0  0  0  0  0
   -9.2730   24.3560    4.5952 H   0  0  0  0  0  0  0  0  0  0  0  0
   -7.4588   25.7122    4.9613 O   0  0  0  0  0  0  0  0  0  0  0  0
   -7.7604   26.4866    6.1219 C   0  0  0  0  0  0  0  0  0  0  0  0
 55 56  1  0  0  0
 56 54  1  0  0  0
 54 47  1  0  0  0
 47 48  1  0  0  0
 48 49  1  0  0  0
 49 41  1  0  0  0
 41 42  2  0  0  0
 42 43  1  0  0  0
 43 44  2  0  0  0
 44  1  1  0  0  0
  1  2  2  0  0  0
  2  3  1  0  0  0
  3  4  2  0  0  0
  4  5  1  0  0  0
  5  6  2  0  0  0
  5  7  1  0  0  0
  7  8  1  0  0  0
  8  9  1  0  0  0
  9 10  2  0  0  0
 10 11  1  0  0  0
 11 12  2  0  0  0
 12 13  1  0  0  0
 13 14  1  0  0  0
 14 23  1  0  0  0
 23 24  1  0  0  0
 24 25  1  0  0  0
 25 26  1  0  0  0
 26 27  1  0  0  0
 26 28  1  0  0  0
 28 29  1  0  0  0
 29 30  2  0  0  0
 29 31  1  0  0  0
 31 32  1  0  0  0
 32 33  1  0  0  0
 33 34  2  0  0  0
 33 36  1  0  0  0
 36 37  1  0  0  0
 31 38  1  0  0  0
 38 39  1  0  0  0
 38 40  1  0  0  0
 14 15  2  0  0  0
 15 16  1  0  0  0
 16 17  2  0  0  0
 17 18  1  0  0  0
 18 19  2  0  0  0
 19 20  1  0  0  0
 20 21  2  0  0  0
 44 45  1  0  0  0
 49 50  1  0  0  0
 50 51  1  0  0  0
 51 52  2  0  0  0
 51 57  1  0  0  0
 57 64  1  0  0  0
 64 65  1  0  0  0
 65 66  2  0  0  0
 65 68  1  0  0  0
 68 69  1  0  0  0
 57 58  1  0  0  0
 58 59  2  0  0  0
 59 60  1  0  0  0
 60 61  2  0  0  0
 61 62  1  0  0  0
 62 63  2  0  0  0
 50 53  1  0  0  0
 53 47  1  0  0  0
 45 41  1  0  0  0
 63 58  1  0  0  0
  6  1  1  0  0  0
 21  9  1  0  0  0
 21  4  1  0  0  0
 19 11  1  0  0  0
 16 12  1  0  0  0
 28 23  1  0  0  0
 13 22  1  0  0  0
 32 35  1  0  0  0
 45 46  1  0  0  0
 64 67  1  0  0  0
M  END
> <minimizedAffinity>
28.69840

$$$$
OCNT-2328943


 37 41  0  0  0  0  0  0  0  0999 V2000
   -3.7579   22.4739    3.0640 C   0  0  0  0  0  0  0  0  0  0  0  0
   -4.3942   23.7145    2.5388 C   0  0  0  0  0  0  0  0  0  0  0  0
   -4.0889   25.0177    2.9086 C   0  0  0  0  0  0  0  0  0  0  0  0
   -4.9051   25.8622    2.1757 N   0  0  0  0  0  0  0  0  0  0  0  0
   -5.7520   25.1245    1.3643 C   0  0  0  0  0  0  0  0  0  0  0  0
   -6.7566   25.5235    0.4625 C   0  0  0  0  0  0  0  0  0  0  0  0
   -7.4580   24.5349   -0.2349 C   0  0  0  0  0  0  0  0  0  0  0  0
   -7.1626   23.1945   -0.0334 C   0  0  0  0  0  0  0  0  0  0  0  0
   -7.8355   22.2132   -0.7034 O   0  0  0  0  0  0  0  0  0  0  0  0
   -6.1690   22.7978    0.8591 C   0  0  0  0  0  0  0  0  0  0  0  0
   -5.4461   23.7775    1.5730 C   0  0  0  0  0  0  0  0  0  0  0  0
   -8.4803   22.6314   -1.2965 H   0  0  0  0  0  0  0  0  0  0  0  0
   -3.1017   25.4798    3.8817 C   0  0  0  0  0  0  0  0  0  0  0  0
   -1.8231   25.8634    3.4631 C   0  0  0  0  0  0  0  0  0  0  0  0
   -0.8857   26.3133    4.3941 C   0  0  0  0  0  0  0  0  0  0  0  0
   -1.2252   26.3664    5.7411 C   0  0  0  0  0  0  0  0  0  0  0  0
   -0.2803   26.8126    6.6169 O   0  0  0  0  0  0  0  0  0  0  0  0
   -2.4882   25.9755    6.1760 C   0  0  0  0  0  0  0  0  0  0  0  0
   -3.4270   25.5295    5.2427 C   0  0  0  0  0  0  0  0  0  0  0  0
   -0.6356   26.7412    7.5180 H   0  0  0  0  0  0  0  0  0  0  0  0
   -4.9322   27.3209    2.2964 C   0  0  0  0  0  0  0  0  0  0  0  0
   -5.5660   27.7980    3.5813 C   0  0  0  0  0  0  0  0  0  0  0  0
   -5.7304   29.1711    3.8148 C   0  0  0  0  0  0  0  0  0  0  0  0
   -6.3028   29.6379    5.0045 C   0  0  0  0  0  0  0  0  0  0  0  0
   -6.7099   28.7394    5.9876 C   0  0  0  0  0  0  0  0  0  0  0  0
   -6.5379   27.3717    5.7653 C   0  0  0  0  0  0  0  0  0  0  0  0
   -5.9700   26.9017    4.5780 C   0  0  0  0  0  0  0  0  0  0  0  0
   -7.2806   29.0470    7.1890 O   0  0  0  0  0  0  0  0  0  0  0  0
   -6.4831   29.0022    8.3729 C   0  0  0  0  0  0  0  0  0  0  0  0
   -5.5319   30.2113    8.4979 C   0  0  0  0  0  0  0  0  0  0  0  0
   -4.2157   29.9294    9.0882 N   0  0  0  0  0  0  0  0  0  0  0  0
   -3.3533   29.0958    8.2540 C   0  0  0  0  0  0  0  0  0  0  0  0
   -3.1439   29.5121    6.7961 C   0  0  0  0  0  0  0  0  0  0  0  0
   -2.7776   30.9688    6.5123 C   0  0  0  0  0  0  0  0  0  0  0  0
   -2.0922   31.7262    7.6433 C   0  0  0  0  0  0  0  0  0  0  0  0
   -3.0622   32.1753    8.7361 C   0  0  0  0  0  0  0  0  0  0  0  0
   -3.5141   31.0633    9.6824 C   0  0  0  0  0  0  0  0  0  0  0  0
  1  2  1  0  0  0
  2  3  2  0  0  0
  3 13  1  0  0  0
 13 14  1  0  0  0
 14 15  2  0  0  0
 15 16  1  0  0  0
 16 17  1  0  0  0
 16 18  2  0  0  0
 18 19  1  0  0  0
  3  4  1  0  0  0
  4 21  1  0  0  0
 21 22  1  0  0  0
 22 23  1  0  0  0
 23 24  2  0  0  0
 24 25  1  0  0  0
 25 28  1  0  0  0
 28 29  1  0  0  0
 29 30  1  0  0  0
 30 31  1  0  0  0
 31 32  1  0  0  0
 32 33  1  0  0  0
 33 34  1  0  0  0
 34 35  1  0  0  0
 35 36  1  0  0  0
 36 37  1  0  0  0
 25 26  2  0  0  0
 26 27  1  0  0  0
  4  5  1  0  0  0
  5  6  2  0  0  0
  6  7  1  0  0  0
  7  8  2  0  0  0
  8  9  1  0  0  0
  8 10  1  0  0  0
 10 11  2  0  0  0
 11  2  1  0  0  0
 19 13  2  0  0  0
 27 22  2  0  0  0
 11  5  1  0  0  0
 37 31  1  0  0  0
 17 20  1  0  0  0
  9 12  1  0  0  0
M  END
> <minimizedAffinity>
-10.01710

$$$$
OCNT-2328949


 28 30  0  0  0  0  0  0  0  0999 V2000
   -4.7925   27.6655    5.8166 N   0  0  0  0  0  0  0  0  0  0  0  0
   -4.8783   29.0003    6.1441 C   0  0  0  0  0  0  0  0  0  0  0  0
   -5.8073   29.7180    5.7875 O   0  0  0  0  0  0  0  0  0  0  0  0
   -3.9267   27.1819    6.0397 H   0  0  0  0  0  0  0  0  0  0  0  0
   -3.7715   29.5702    6.9645 C   0  0  0  0  0  0  0  0  0  0  0  0
   -4.0396   30.6992    7.7514 C   0  0  0  0  0  0  0  0  0  0  0  0
   -3.0310   31.2794    8.5382 C   0  0  0  0  0  0  0  0  0  0  0  0
   -3.4380   32.6643    9.4946 Cl  0  0  0  0  0  0  0  0  0  0  0  0
   -1.7116   30.7841    8.5318 C   0  0  0  0  0  0  0  0  0  0  0  0
   -0.7222   31.2876    9.3892 N   0  0  0  0  0  0  0  0  0  0  0  0
   -1.4818   29.6326    7.7906 C   0  0  0  0  0  0  0  0  0  0  0  0
   -2.4848   29.0491    7.0160 C   0  0  0  0  0  0  0  0  0  0  0  0
   -2.0423   27.9410    6.3271 O   0  0  0  0  0  0  0  0  0  0  0  0
   -0.7858   27.6127    6.9620 C   0  0  0  0  0  0  0  0  0  0  0  0
   -0.2208   28.8724    7.6071 C   0  0  0  0  0  0  0  0  0  0  0  0
   -0.9163   32.2395    9.6972 H   0  0  0  0  0  0  0  0  0  0  0  0
    0.2291   31.1711    9.0577 H   0  0  0  0  0  0  0  0  0  0  0  0
   -5.2394   24.9863    2.7413 N   0  0  0  0  0  0  0  0  0  0  0  0
   -4.5893   26.3083    2.7632 C   0  0  0  0  0  0  0  0  0  0  0  0
   -5.4255   27.3905    3.4404 C   0  0  0  0  0  0  0  0  0  0  0  0
   -5.7277   27.0238    4.9007 C   0  0  0  0  0  0  0  0  0  0  0  0
   -5.7267   25.5077    5.1248 C   0  0  0  0  0  0  0  0  0  0  0  0
   -6.1691   24.7746    3.8618 C   0  0  0  0  0  0  0  0  0  0  0  0
   -5.8626   24.7131    1.4319 C   0  0  0  0  0  0  0  0  0  0  0  0
   -6.7007   23.4265    1.4147 C   0  0  0  0  0  0  0  0  0  0  0  0
   -6.0058   22.3069    0.6432 C   0  0  0  0  0  0  0  0  0  0  0  0
   -5.3782   21.2732    2.6655 C   0  0  0  0  0  0  0  0  0  0  0  0
   -6.0250   21.1061    1.4110 O   0  0  0  0  0  0  0  0  0  0  0  0
 27 28  1  0  0  0
 28 26  1  0  0  0
 26 25  1  0  0  0
 25 24  1  0  0  0
 24 18  1  0  0  0
 18 19  1  0  0  0
 19 20  1  0  0  0
 20 21  1  0  0  0
 21  1  1  0  0  0
  1  2  1  0  0  0
  2  3  2  0  0  0
  2  5  1  0  0  0
  5  6  1  0  0  0
  6  7  2  0  0  0
  7  8  1  0  0  0
  7  9  1  0  0  0
  9 10  1  0  0  0
  9 11  2  0  0  0
 11 12  1  0  0  0
 12 13  1  0  0  0
 13 14  1  0  0  0
 14 15  1  0  0  0
 21 22  1  0  0  0
 22 23  1  0  0  0
 23 18  1  0  0  0
 12  5  2  0  0  0
 15 11  1  0  0  0
  1  4  1  0  0  0
 10 16  1  0  0  0
 10 17  1  0  0  0
M  END
> <minimizedAffinity>
-8.40824

$$$$
OCNT-2328950


 19 20  0  0  0  0  0  0  0  0999 V2000
   -6.3774   28.7555    5.0488 C   0  0  0  0  0  0  0  0  0  0  0  0
   -6.1610   27.4098    5.3794 C   0  0  0  0  0  0  0  0  0  0  0  0
   -5.7898   26.4597    4.4179 C   0  0  0  0  0  0  0  0  0  0  0  0
   -5.5928   26.8257    3.0852 C   0  0  0  0  0  0  0  0  0  0  0  0
   -5.7809   28.1668    2.7533 C   0  0  0  0  0  0  0  0  0  0  0  0
   -6.1486   29.1154    3.7224 C   0  0  0  0  0  0  0  0  0  0  0  0
   -6.6843   29.6347    6.0753 N   0  0  0  0  0  0  0  0  0  0  0  0
   -7.2776   30.3971    5.7563 H   0  0  0  0  0  0  0  0  0  0  0  0
   -4.4748   30.5427    6.7622 C   0  0  0  0  0  0  0  0  0  0  0  0
   -5.8417   30.0323    7.2044 C   0  0  0  0  0  0  0  0  0  0  0  0
   -6.5547   30.9603    8.1810 C   0  0  0  0  0  0  0  0  0  0  0  0
   -5.2626   25.8374    2.1444 N   0  0  0  0  0  0  0  0  0  0  0  0
   -4.2665   25.7308    1.9922 H   0  0  0  0  0  0  0  0  0  0  0  0
   -6.0544   24.9764    1.3650 C   0  0  0  0  0  0  0  0  0  0  0  0
   -6.4272   25.2667    0.0478 C   0  0  0  0  0  0  0  0  0  0  0  0
   -7.1856   24.3633   -0.7035 C   0  0  0  0  0  0  0  0  0  0  0  0
   -7.5754   23.1479   -0.1479 C   0  0  0  0  0  0  0  0  0  0  0  0
   -7.2083   22.8374    1.1582 C   0  0  0  0  0  0  0  0  0  0  0  0
   -6.4520   23.7447    1.9059 C   0  0  0  0  0  0  0  0  0  0  0  0
  9 10  1  0  0  0
 10 11  1  0  0  0
 10  7  1  0  0  0
  7  1  1  0  0  0
  1  2  1  0  0  0
  2  3  2  0  0  0
  3  4  1  0  0  0
  4 12  1  0  0  0
 12 14  1  0  0  0
 14 15  2  0  0  0
 15 16  1  0  0  0
 16 17  2  0  0  0
 17 18  1  0  0  0
 18 19  2  0  0  0
  4  5  2  0  0  0
  5  6  1  0  0  0
  6  1  2  0  0  0
 19 14  1  0  0  0
  7  8  1  0  0  0
 12 13  1  0  0  0
M  END
> <minimizedAffinity>
-7.61413

$$$$
OCNT-2328958


 22 24  0  0  0  0  0  0  0  0999 V2000
   -5.9645   28.8563    5.9555 C   0  0  0  0  0  0  0  0  0  0  0  0
   -4.7663   28.4608    6.3081 N   0  0  0  0  0  0  0  0  0  0  0  0
   -4.3505   27.6468    5.2825 C   0  0  0  0  0  0  0  0  0  0  0  0
   -3.1485   26.9435    5.1302 C   0  0  0  0  0  0  0  0  0  0  0  0
   -2.9580   26.1672    3.9762 C   0  0  0  0  0  0  0  0  0  0  0  0
   -1.4906   25.2560    3.8991 Cl  0  0  0  0  0  0  0  0  0  0  0  0
   -3.9447   26.1128    2.9772 C   0  0  0  0  0  0  0  0  0  0  0  0
   -5.1713   26.7813    3.1412 C   0  0  0  0  0  0  0  0  0  0  0  0
   -5.3269   27.5475    4.2963 C   0  0  0  0  0  0  0  0  0  0  0  0
   -6.3506   28.3361    4.7560 N   0  0  0  0  0  0  0  0  0  0  0  0
   -7.2332   28.5152    4.3015 H   0  0  0  0  0  0  0  0  0  0  0  0
   -5.8453   30.7762    7.8685 C   0  0  0  0  0  0  0  0  0  0  0  0
   -7.0276   29.9036    6.8159 S   0  0  0  0  0  0  0  0  0  0  0  0
   -3.8637   25.3646    1.8183 O   0  0  0  0  0  0  0  0  0  0  0  0
   -4.6918   24.2694    1.6815 C   0  0  0  0  0  0  0  0  0  0  0  0
   -4.4502   23.2402    2.6037 C   0  0  0  0  0  0  0  0  0  0  0  0
   -5.2210   22.0808    2.5900 C   0  0  0  0  0  0  0  0  0  0  0  0
   -6.2555   21.9528    1.6672 C   0  0  0  0  0  0  0  0  0  0  0  0
   -6.5326   22.9918    0.7706 C   0  0  0  0  0  0  0  0  0  0  0  0
   -7.8614   22.7550   -0.3148 Cl  0  0  0  0  0  0  0  0  0  0  0  0
   -5.7632   24.1678    0.7785 C   0  0  0  0  0  0  0  0  0  0  0  0
   -6.1865   25.4869   -0.2645 Cl  0  0  0  0  0  0  0  0  0  0  0  0
 12 13  1  0  0  0
 13  1  1  0  0  0
  1  2  2  0  0  0
  2  3  1  0  0  0
  3  4  2  0  0  0
  4  5  1  0  0  0
  5  6  1  0  0  0
  5  7  2  0  0  0
  7 14  1  0  0  0
 14 15  1  0  0  0
 15 16  2  0  0  0
 16 17  1  0  0  0
 17 18  2  0  0  0
 18 19  1  0  0  0
 19 20  1  0  0  0
 19 21  2  0  0  0
 21 22  1  0  0  0
  7  8  1  0  0  0
  8  9  2  0  0  0
  9 10  1  0  0  0
 10  1  1  0  0  0
  9  3  1  0  0  0
 21 15  1  0  0  0
 10 11  1  0  0  0
M  END
> <minimizedAffinity>
-8.09289

$$$$
OCNT-2328975


 21 24  0  0  0  0  0  0  0  0999 V2000
   -5.8920   27.0254    2.2465 C   0  0  0  0  0  0  0  0  0  0  0  0
   -5.2387   27.4391    3.4826 N   0  0  0  0  0  0  0  0  0  0  0  0
   -6.2110   27.9529    4.4628 C   0  0  0  0  0  0  0  0  0  0  0  0
   -5.8300   27.7380    5.9434 C   0  0  0  0  0  0  0  0  0  0  0  0
   -4.3316   27.8268    6.1747 C   0  0  0  0  0  0  0  0  0  0  0  0
   -3.7169   28.6814    7.0389 C   0  0  0  0  0  0  0  0  0  0  0  0
   -4.5502   29.6316    7.8284 C   0  0  0  0  0  0  0  0  0  0  0  0
   -5.3289   29.1804    8.9038 C   0  0  0  0  0  0  0  0  0  0  0  0
   -6.0953   30.0810    9.6434 C   0  0  0  0  0  0  0  0  0  0  0  0
   -6.0787   31.4372    9.3229 C   0  0  0  0  0  0  0  0  0  0  0  0
   -5.2881   31.9004    8.2699 C   0  0  0  0  0  0  0  0  0  0  0  0
   -4.5122   31.0062    7.5194 C   0  0  0  0  0  0  0  0  0  0  0  0
   -3.6113   31.5094    6.4124 C   0  0  0  0  0  0  0  0  0  0  0  0
   -2.1238   31.4022    6.7686 C   0  0  0  0  0  0  0  0  0  0  0  0
   -1.6046   30.0027    7.0059 C   0  0  0  0  0  0  0  0  0  0  0  0
   -2.2751   28.7953    7.1393 C   0  0  0  0  0  0  0  0  0  0  0  0
   -1.3843   27.7182    7.4414 C   0  0  0  0  0  0  0  0  0  0  0  0
   -0.0698   28.1217    7.4792 C   0  0  0  0  0  0  0  0  0  0  0  0
    0.0947   29.7934    7.1825 S   0  0  0  0  0  0  0  0  0  0  0  0
   -3.5665   26.9031    5.2305 C   0  0  0  0  0  0  0  0  0  0  0  0
   -4.4073   26.3760    4.0488 C   0  0  0  0  0  0  0  0  0  0  0  0
  1  2  1  0  0  0
  2  3  1  0  0  0
  3  4  1  0  0  0
  4  5  1  0  0  0
  5  6  2  0  0  0
  6  7  1  0  0  0
  7  8  2  0  0  0
  8  9  1  0  0  0
  9 10  2  0  0  0
 10 11  1  0  0  0
 11 12  2  0  0  0
 12 13  1  0  0  0
 13 14  1  0  0  0
 14 15  1  0  0  0
 15 16  2  0  0  0
 16 17  1  0  0  0
 17 18  2  0  0  0
 18 19  1  0  0  0
  5 20  1  0  0  0
 20 21  1  0  0  0
 21  2  1  0  0  0
 16  6  1  0  0  0
 12  7  1  0  0  0
 19 15  1  0  0  0
M  END
> <minimizedAffinity>
-8.13129

$$$$
OCNT-2328989


 32 35  0  0  0  0  0  0  0  0999 V2000
   -4.5134   28.8405    6.1151 C   0  0  0  0  0  0  0  0  0  0  0  0
   -4.0951   29.7557    5.4114 O   0  0  0  0  0  0  0  0  0  0  0  0
   -4.5849   27.5499    5.6425 N   0  0  0  0  0  0  0  0  0  0  0  0
   -5.0761   26.8476    6.1807 H   0  0  0  0  0  0  0  0  0  0  0  0
   -4.1034   27.2153    4.2769 C   0  0  0  0  0  0  0  0  0  0  0  0
   -5.1627   27.2848    3.1570 C   0  0  0  0  0  0  0  0  0  0  0  0
   -6.0390   28.0548    2.8370 O   0  0  0  0  0  0  0  0  0  0  0  0
   -4.8759   26.0162    2.7321 N   0  0  0  0  0  0  0  0  0  0  0  0
   -4.0161   25.7180    3.8939 C   0  0  0  0  0  0  0  0  0  0  0  0
   -5.0068   24.5088    4.8593 S   0  0  0  0  0  0  0  0  0  0  0  0
   -5.7781   23.8376    3.3077 C   0  0  0  0  0  0  0  0  0  0  0  0
   -4.8142   22.8056    2.7060 C   0  0  0  0  0  0  0  0  0  0  0  0
   -7.1056   23.1718    3.6776 C   0  0  0  0  0  0  0  0  0  0  0  0
   -5.9806   25.0987    2.4416 C   0  0  0  0  0  0  0  0  0  0  0  0
   -6.1287   24.7869    0.9551 C   0  0  0  0  0  0  0  0  0  0  0  0
   -7.0756   24.2044    0.4469 O   0  0  0  0  0  0  0  0  0  0  0  0
   -5.0979   25.1876    0.1850 O   0  0  0  0  0  0  0  0  0  0  0  0
   -5.3590   24.9469   -0.7284 H   0  0  0  0  0  0  0  0  0  0  0  0
   -7.5719   28.4446    7.4283 C   0  0  0  0  0  0  0  0  0  0  0  0
   -6.2727   28.8922    7.9682 C   0  0  0  0  0  0  0  0  0  0  0  0
   -4.9977   29.0534    7.4614 C   0  0  0  0  0  0  0  0  0  0  0  0
   -4.2298   29.4414    8.6011 C   0  0  0  0  0  0  0  0  0  0  0  0
   -5.0040   29.5559    9.6894 N   0  0  0  0  0  0  0  0  0  0  0  0
   -6.2746   29.2073    9.2903 O   0  0  0  0  0  0  0  0  0  0  0  0
   -2.8043   29.7306    8.6717 C   0  0  0  0  0  0  0  0  0  0  0  0
   -2.3478   31.0034    9.0537 C   0  0  0  0  0  0  0  0  0  0  0  0
   -3.4300   32.2858    9.4838 Cl  0  0  0  0  0  0  0  0  0  0  0  0
   -0.9764   31.2783    9.1182 C   0  0  0  0  0  0  0  0  0  0  0  0
   -0.0460   30.2889    8.8072 C   0  0  0  0  0  0  0  0  0  0  0  0
   -0.4849   29.0203    8.4348 C   0  0  0  0  0  0  0  0  0  0  0  0
   -1.8548   28.7396    8.3687 C   0  0  0  0  0  0  0  0  0  0  0  0
   -2.3103   27.1326    7.9063 Cl  0  0  0  0  0  0  0  0  0  0  0  0
 19 20  1  0  0  0
 20 21  2  0  0  0
 21  1  1  0  0  0
  1  2  2  0  0  0
  1  3  1  0  0  0
  3  5  1  0  0  0
  5  6  1  0  0  0
  6  7  2  0  0  0
  6  8  1  0  0  0
  8  9  1  0  0  0
  9 10  1  0  0  0
 10 11  1  0  0  0
 11 12  1  0  0  0
 11 13  1  0  0  0
 11 14  1  0  0  0
 14 15  1  0  0  0
 15 16  2  0  0  0
 15 17  1  0  0  0
 21 22  1  0  0  0
 22 25  1  0  0  0
 25 26  2  0  0  0
 26 27  1  0  0  0
 26 28  1  0  0  0
 28 29  2  0  0  0
 29 30  1  0  0  0
 30 31  2  0  0  0
 31 32  1  0  0  0
 22 23  2  0  0  0
 23 24  1  0  0  0
 24 20  1  0  0  0
  9  5  1  0  0  0
 31 25  1  0  0  0
 14  8  1  0  0  0
  3  4  1  0  0  0
 17 18  1  0  0  0
M  END
> <minimizedAffinity>
-9.26075

$$$$
OCNT-2328990


 28 31  0  0  0  0  0  0  0  0999 V2000
   -5.1584   23.1167    1.9266 N   0  0  0  0  0  0  0  0  0  0  0  0
   -4.1965   22.8543    2.9618 C   0  0  0  0  0  0  0  0  0  0  0  0
   -4.2087   24.1473    3.7823 C   0  0  0  0  0  0  0  0  0  0  0  0
   -5.7491   24.5286    3.7781 C   0  0  0  0  0  0  0  0  0  0  0  0
   -6.1301   24.0270    2.3474 C   0  0  0  0  0  0  0  0  0  0  0  0
   -7.1345   24.3064    1.7054 O   0  0  0  0  0  0  0  0  0  0  0  0
   -5.9438   26.0386    4.0331 C   0  0  0  0  0  0  0  0  0  0  0  0
   -5.8000   27.0088    3.0273 C   0  0  0  0  0  0  0  0  0  0  0  0
   -5.9602   28.3688    3.3100 C   0  0  0  0  0  0  0  0  0  0  0  0
   -6.2631   28.7875    4.6021 C   0  0  0  0  0  0  0  0  0  0  0  0
   -6.4056   27.8471    5.6165 C   0  0  0  0  0  0  0  0  0  0  0  0
   -6.2450   26.4883    5.3366 C   0  0  0  0  0  0  0  0  0  0  0  0
   -6.6287   23.7195    4.7837 C   0  0  0  0  0  0  0  0  0  0  0  0
   -8.0267   23.6061    4.6892 C   0  0  0  0  0  0  0  0  0  0  0  0
   -8.7553   22.8554    5.6189 C   0  0  0  0  0  0  0  0  0  0  0  0
   -8.1043   22.1960    6.6567 C   0  0  0  0  0  0  0  0  0  0  0  0
   -6.7215   22.2810    6.7653 C   0  0  0  0  0  0  0  0  0  0  0  0
   -5.9932   23.0295    5.8384 C   0  0  0  0  0  0  0  0  0  0  0  0
   -6.0400   20.9257    1.2098 C   0  0  0  0  0  0  0  0  0  0  0  0
   -5.3559   22.2202    0.8029 C   0  0  0  0  0  0  0  0  0  0  0  0
   -3.2688   25.2112    3.1373 C   0  0  0  0  0  0  0  0  0  0  0  0
   -1.8946   25.2921    3.8297 C   0  0  0  0  0  0  0  0  0  0  0  0
   -1.6937   26.5840    4.4974 N   0  0  0  0  0  0  0  0  0  0  0  0
   -0.3096   26.7071    5.0040 C   0  0  0  0  0  0  0  0  0  0  0  0
   -0.1942   27.7946    6.0812 C   0  0  0  0  0  0  0  0  0  0  0  0
   -0.9487   27.4834    7.2603 O   0  0  0  0  0  0  0  0  0  0  0  0
   -2.0932   26.6634    6.9933 C   0  0  0  0  0  0  0  0  0  0  0  0
   -2.6679   26.8542    5.5791 C   0  0  0  0  0  0  0  0  0  0  0  0
 19 20  1  0  0  0
 20  1  1  0  0  0
  1  2  1  0  0  0
  2  3  1  0  0  0
  3 21  1  0  0  0
 21 22  1  0  0  0
 22 23  1  0  0  0
 23 24  1  0  0  0
 24 25  1  0  0  0
 25 26  1  0  0  0
 26 27  1  0  0  0
 27 28  1  0  0  0
  3  4  1  0  0  0
  4  7  1  0  0  0
  7  8  2  0  0  0
  8  9  1  0  0  0
  9 10  2  0  0  0
 10 11  1  0  0  0
 11 12  2  0  0  0
  4 13  1  0  0  0
 13 14  2  0  0  0
 14 15  1  0  0  0
 15 16  2  0  0  0
 16 17  1  0  0  0
 17 18  2  0  0  0
  4  5  1  0  0  0
  5  6  2  0  0  0
  5  1  1  0  0  0
 28 23  1  0  0  0
 12  7  1  0  0  0
 18 13  1  0  0  0
M  END
> <minimizedAffinity>
-8.58080

$$$$
OCNT-2328994


 27 29  0  0  0  0  0  0  0  0999 V2000
   -2.7902   30.5666    8.9619 C   0  0  0  0  0  0  0  0  0  0  0  0
   -3.0442   29.3267    8.3450 C   0  0  0  0  0  0  0  0  0  0  0  0
   -2.0071   28.4375    8.0262 C   0  0  0  0  0  0  0  0  0  0  0  0
   -0.6900   28.8308    8.2887 C   0  0  0  0  0  0  0  0  0  0  0  0
   -0.4164   30.0525    8.9075 C   0  0  0  0  0  0  0  0  0  0  0  0
   -1.4638   30.9057    9.2474 C   0  0  0  0  0  0  0  0  0  0  0  0
   -1.1967   32.0863    9.8805 O   0  0  0  0  0  0  0  0  0  0  0  0
   -0.2464   32.2697    9.8097 H   0  0  0  0  0  0  0  0  0  0  0  0
   -2.3038   27.2252    7.3621 N   0  0  0  0  0  0  0  0  0  0  0  0
   -2.2145   26.4251    7.9854 H   0  0  0  0  0  0  0  0  0  0  0  0
   -1.9105   26.8340    6.0508 C   0  0  0  0  0  0  0  0  0  0  0  0
   -0.5765   26.5459    5.7595 C   0  0  0  0  0  0  0  0  0  0  0  0
   -0.2597   26.0937    4.4950 C   0  0  0  0  0  0  0  0  0  0  0  0
   -1.1679   25.8936    3.5191 N   0  0  0  0  0  0  0  0  0  0  0  0
   -2.4569   26.1470    3.7922 C   0  0  0  0  0  0  0  0  0  0  0  0
   -3.3931   25.9312    2.7921 C   0  0  0  0  0  0  0  0  0  0  0  0
   -4.7484   26.1727    3.0054 C   0  0  0  0  0  0  0  0  0  0  0  0
   -5.8780   25.8919    1.7381 Cl  0  0  0  0  0  0  0  0  0  0  0  0
   -5.1946   26.6416    4.2331 C   0  0  0  0  0  0  0  0  0  0  0  0
   -4.2708   26.8653    5.2523 C   0  0  0  0  0  0  0  0  0  0  0  0
   -2.8929   26.6179    5.0520 C   0  0  0  0  0  0  0  0  0  0  0  0
   -3.9379   31.5005    9.2922 C   0  0  0  0  0  0  0  0  0  0  0  0
   -4.7394   31.8936    8.1107 N   0  0  0  0  0  0  0  0  0  0  0  0
   -6.4174   30.8011    9.5974 C   0  0  0  0  0  0  0  0  0  0  0  0
   -6.1309   31.4282    8.2352 C   0  0  0  0  0  0  0  0  0  0  0  0
   -4.6746   33.3512    7.9061 C   0  0  0  0  0  0  0  0  0  0  0  0
   -4.6651   34.1170    9.2267 C   0  0  0  0  0  0  0  0  0  0  0  0
 24 25  1  0  0  0
 25 23  1  0  0  0
 23 26  1  0  0  0
 26 27  1  0  0  0
 23 22  1  0  0  0
 22  1  1  0  0  0
  1  2  1  0  0  0
  2  3  2  0  0  0
  3  9  1  0  0  0
  9 11  1  0  0  0
 11 12  2  0  0  0
 12 13  1  0  0  0
 13 14  2  0  0  0
 14 15  1  0  0  0
 15 16  2  0  0  0
 16 17  1  0  0  0
 17 18  1  0  0  0
 17 19  2  0  0  0
 19 20  1  0  0  0
 20 21  2  0  0  0
  3  4  1  0  0  0
  4  5  2  0  0  0
  5  6  1  0  0  0
  6  7  1  0  0  0
  6  1  2  0  0  0
 21 11  1  0  0  0
 21 15  1  0  0  0
  9 10  1  0  0  0
  7  8  1  0  0  0
M  END
> <minimizedAffinity>
-9.34123

$$$$
