OCNT-0018684
     RDKit          3D

 40 41  0  0  0  0  0  0  0  0999 V2000
   -5.6804   -0.1767    1.5231 C   0  0  0  0  0  0  0  0  0  0  0  0
   -4.5494    0.7410    1.0536 C   0  0  0  0  0  0  0  0  0  0  0  0
   -5.0898    1.7416    0.0297 C   0  0  0  0  0  0  0  0  0  0  0  0
   -3.4908   -0.1064    0.5002 N   0  0  0  0  0  0  0  0  0  0  0  0
   -2.1935    0.5736    0.3954 C   0  0  0  0  0  0  0  0  0  0  0  0
   -1.1901   -0.3244   -0.3489 C   0  0  0  0  0  0  0  0  0  0  0  0
   -1.6650   -0.5454   -1.6899 O   0  0  0  0  0  0  0  0  0  0  0  0
    0.1940    0.3299   -0.4086 C   0  0  0  0  0  0  0  0  0  0  0  0
    1.0810   -0.5963   -1.0646 O   0  0  0  0  0  0  0  0  0  0  0  0
    2.3801   -0.1563   -0.9680 C   0  0  0  0  0  0  0  0  0  0  0  0
    3.2602   -0.7605   -0.0444 C   0  0  0  0  0  0  0  0  0  0  0  0
    2.8710   -1.8044    0.8212 C   0  0  0  0  0  0  0  0  0  0  0  0
    3.7720   -2.3658    1.7274 C   0  0  0  0  0  0  0  0  0  0  0  0
    5.0791   -1.8956    1.7856 C   0  0  0  0  0  0  0  0  0  0  0  0
    5.4877   -0.8669    0.9357 C   0  0  0  0  0  0  0  0  0  0  0  0
    4.5942   -0.2928    0.0162 C   0  0  0  0  0  0  0  0  0  0  0  0
    5.0083    0.7357   -0.8476 C   0  0  0  0  0  0  0  0  0  0  0  0
    4.1266    1.2968   -1.7727 C   0  0  0  0  0  0  0  0  0  0  0  0
    2.8126    0.8462   -1.8391 C   0  0  0  0  0  0  0  0  0  0  0  0
   -6.4871    0.4068    1.9804 H   0  0  0  0  0  0  0  0  0  0  0  0
   -5.3221   -0.8895    2.2746 H   0  0  0  0  0  0  0  0  0  0  0  0
   -6.1088   -0.7481    0.6910 H   0  0  0  0  0  0  0  0  0  0  0  0
   -4.1754    1.2841    1.9306 H   0  0  0  0  0  0  0  0  0  0  0  0
   -5.9139    2.3221    0.4586 H   0  0  0  0  0  0  0  0  0  0  0  0
   -4.3222    2.4539   -0.2867 H   0  0  0  0  0  0  0  0  0  0  0  0
   -5.4700    1.2344   -0.8646 H   0  0  0  0  0  0  0  0  0  0  0  0
   -3.7471   -0.4376   -0.4349 H   0  0  0  0  0  0  0  0  0  0  0  0
   -2.3012    1.5116   -0.1598 H   0  0  0  0  0  0  0  0  0  0  0  0
   -1.8164    0.8021    1.3985 H   0  0  0  0  0  0  0  0  0  0  0  0
   -1.1179   -1.3076    0.1320 H   0  0  0  0  0  0  0  0  0  0  0  0
   -0.9575   -1.0492   -2.1358 H   0  0  0  0  0  0  0  0  0  0  0  0
    0.1433    1.2552   -0.9955 H   0  0  0  0  0  0  0  0  0  0  0  0
    0.5494    0.5498    0.6059 H   0  0  0  0  0  0  0  0  0  0  0  0
    1.8547   -2.1912    0.7865 H   0  0  0  0  0  0  0  0  0  0  0  0
    3.4520   -3.1708    2.3834 H   0  0  0  0  0  0  0  0  0  0  0  0
    5.7842   -2.3316    2.4884 H   0  0  0  0  0  0  0  0  0  0  0  0
    6.5164   -0.5176    0.9938 H   0  0  0  0  0  0  0  0  0  0  0  0
    6.0325    1.1016   -0.8124 H   0  0  0  0  0  0  0  0  0  0  0  0
    4.4686    2.0793   -2.4449 H   0  0  0  0  0  0  0  0  0  0  0  0
    2.1308    1.2693   -2.5709 H   0  0  0  0  0  0  0  0  0  0  0  0
  1  2  1  0
  2  3  1  0
  2  4  1  0
  4  5  1  0
  5  6  1  0
  6  7  1  0
  6  8  1  0
  8  9  1  0
  9 10  1  0
 10 11  1  0
 11 12  2  0
 12 13  1  0
 13 14  2  0
 14 15  1  0
 15 16  2  0
 16 17  1  0
 17 18  2  0
 18 19  1  0
 19 10  2  0
 16 11  1  0
  1 20  1  0
  1 21  1  0
  1 22  1  0
  2 23  1  0
  3 24  1  0
  3 25  1  0
  3 26  1  0
  4 27  1  0
  5 28  1  0
  5 29  1  0
  6 30  1  0
  7 31  1  0
  8 32  1  0
  8 33  1  0
 12 34  1  0
 13 35  1  0
 14 36  1  0
 15 37  1  0
 17 38  1  0
 18 39  1  0
 19 40  1  0
M  END
$$$$
OCNT-0020887
     RDKit          3D

 30 30  0  0  0  0  0  0  0  0999 V2000
    3.5838    1.6111   -0.0653 C   0  0  0  0  0  0  0  0  0  0  0  0
    2.9796    0.6081    0.8035 N   0  0  0  0  0  0  0  0  0  0  0  0
    1.7731   -0.0068    0.2091 C   0  0  0  0  0  0  0  0  0  0  0  0
    1.5063   -1.3189    0.9604 C   0  0  0  0  0  0  0  0  0  0  0  0
    0.5498    0.9382    0.2885 C   0  0  0  0  0  0  0  0  0  0  0  0
   -0.6465    0.4452   -0.5055 C   0  0  0  0  0  0  0  0  0  0  0  0
   -1.7449   -0.1835    0.1113 C   0  0  0  0  0  0  0  0  0  0  0  0
   -1.6709   -0.3248    1.4718 O   0  0  0  0  0  0  0  0  0  0  0  0
   -2.7602   -0.9582    2.1283 C   0  0  0  0  0  0  0  0  0  0  0  0
   -2.8160   -0.6231   -0.6748 C   0  0  0  0  0  0  0  0  0  0  0  0
   -2.8013   -0.4446   -2.0606 C   0  0  0  0  0  0  0  0  0  0  0  0
   -1.7173    0.1740   -2.6738 C   0  0  0  0  0  0  0  0  0  0  0  0
   -0.6456    0.6161   -1.9015 C   0  0  0  0  0  0  0  0  0  0  0  0
    4.5008    1.9846    0.4017 H   0  0  0  0  0  0  0  0  0  0  0  0
    3.8548    1.1894   -1.0386 H   0  0  0  0  0  0  0  0  0  0  0  0
    2.9290    2.4733   -0.2165 H   0  0  0  0  0  0  0  0  0  0  0  0
    3.6724   -0.1196    0.9803 H   0  0  0  0  0  0  0  0  0  0  0  0
    1.9825   -0.2700   -0.8359 H   0  0  0  0  0  0  0  0  0  0  0  0
    1.2605   -1.1366    2.0127 H   0  0  0  0  0  0  0  0  0  0  0  0
    0.6788   -1.8742    0.5079 H   0  0  0  0  0  0  0  0  0  0  0  0
    2.3826   -1.9768    0.9278 H   0  0  0  0  0  0  0  0  0  0  0  0
    0.2774    1.1195    1.3358 H   0  0  0  0  0  0  0  0  0  0  0  0
    0.8028    1.9293   -0.1086 H   0  0  0  0  0  0  0  0  0  0  0  0
   -2.8789   -1.9923    1.7885 H   0  0  0  0  0  0  0  0  0  0  0  0
   -3.6860   -0.3883    1.9977 H   0  0  0  0  0  0  0  0  0  0  0  0
   -2.5351   -0.9848    3.1989 H   0  0  0  0  0  0  0  0  0  0  0  0
   -3.6814   -1.1113   -0.2397 H   0  0  0  0  0  0  0  0  0  0  0  0
   -3.6396   -0.7899   -2.6602 H   0  0  0  0  0  0  0  0  0  0  0  0
   -1.7063    0.3137   -3.7515 H   0  0  0  0  0  0  0  0  0  0  0  0
    0.1959    1.1011   -2.3916 H   0  0  0  0  0  0  0  0  0  0  0  0
  1  2  1  0
  2  3  1  0
  3  4  1  0
  3  5  1  0
  5  6  1  0
  6  7  1  0
  7  8  1  0
  8  9  1  0
  7 10  2  0
 10 11  1  0
 11 12  2  0
 12 13  1  0
 13  6  2  0
  1 14  1  0
  1 15  1  0
  1 16  1  0
  2 17  1  0
  3 18  1  0
  4 19  1  0
  4 20  1  0
  4 21  1  0
  5 22  1  0
  5 23  1  0
  9 24  1  0
  9 25  1  0
  9 26  1  0
 10 27  1  0
 11 28  1  0
 12 29  1  0
 13 30  1  0
M  END
$$$$
OCNT-0021749
     RDKit          3D

 37 39  0  0  0  0  0  0  0  0999 V2000
   -0.0206   -0.1818    2.5460 O   0  0  0  0  0  0  0  0  0  0  0  0
   -0.0741   -0.3462    1.1096 S   0  0  0  0  0  0  0  0  0  0  0  0
   -0.4332   -1.6117    0.5069 O   0  0  0  0  0  0  0  0  0  0  0  0
    1.5198    0.1700    0.4871 C   0  0  0  0  0  0  0  0  0  0  0  0
    1.7196    1.5537    0.3309 C   0  0  0  0  0  0  0  0  0  0  0  0
    2.9120    2.0354   -0.1942 C   0  0  0  0  0  0  0  0  0  0  0  0
    3.9122    1.1405   -0.5589 C   0  0  0  0  0  0  0  0  0  0  0  0
    3.7411   -0.2442   -0.3839 C   0  0  0  0  0  0  0  0  0  0  0  0
    4.7591   -1.1368   -0.7308 C   0  0  0  0  0  0  0  0  0  0  0  0
    4.6967   -2.4770   -0.5808 N   0  0  0  0  0  0  0  0  0  0  0  0
    3.5636   -2.9613   -0.0449 C   0  0  0  0  0  0  0  0  0  0  0  0
    2.4891   -2.1691    0.3342 C   0  0  0  0  0  0  0  0  0  0  0  0
    2.5416   -0.7659    0.1562 C   0  0  0  0  0  0  0  0  0  0  0  0
   -1.1498    0.8135    0.4734 N   0  0  0  0  0  0  0  0  0  0  0  0
   -1.4159    0.7877   -0.9805 C   0  0  0  0  0  0  0  0  0  0  0  0
   -2.5574   -0.1350   -1.3969 C   0  0  0  0  0  0  0  0  0  0  0  0
   -3.9307    0.3759   -0.9692 C   0  0  0  0  0  0  0  0  0  0  0  0
   -4.3664    0.0321    0.3789 N   0  0  0  0  0  0  0  0  0  0  0  0
   -3.3554    0.0910    1.4406 C   0  0  0  0  0  0  0  0  0  0  0  0
   -2.3013    1.2017    1.3283 C   0  0  0  0  0  0  0  0  0  0  0  0
    0.9477    2.2634    0.6217 H   0  0  0  0  0  0  0  0  0  0  0  0
    3.0638    3.1050   -0.3175 H   0  0  0  0  0  0  0  0  0  0  0  0
    4.8412    1.5324   -0.9701 H   0  0  0  0  0  0  0  0  0  0  0  0
    5.6968   -0.7831   -1.1535 H   0  0  0  0  0  0  0  0  0  0  0  0
    3.5327   -4.0398    0.0836 H   0  0  0  0  0  0  0  0  0  0  0  0
    1.6336   -2.6697    0.7742 H   0  0  0  0  0  0  0  0  0  0  0  0
   -0.5063    0.4859   -1.5125 H   0  0  0  0  0  0  0  0  0  0  0  0
   -1.6160    1.8147   -1.3103 H   0  0  0  0  0  0  0  0  0  0  0  0
   -2.5506   -0.1843   -2.4936 H   0  0  0  0  0  0  0  0  0  0  0  0
   -2.4031   -1.1617   -1.0494 H   0  0  0  0  0  0  0  0  0  0  0  0
   -3.9860    1.4636   -1.0980 H   0  0  0  0  0  0  0  0  0  0  0  0
   -4.6794   -0.0331   -1.6590 H   0  0  0  0  0  0  0  0  0  0  0  0
   -4.7727   -0.9048    0.3795 H   0  0  0  0  0  0  0  0  0  0  0  0
   -3.9050    0.2422    2.3771 H   0  0  0  0  0  0  0  0  0  0  0  0
   -2.8760   -0.8899    1.5284 H   0  0  0  0  0  0  0  0  0  0  0  0
   -1.9279    1.4552    2.3275 H   0  0  0  0  0  0  0  0  0  0  0  0
   -2.7430    2.1314    0.9494 H   0  0  0  0  0  0  0  0  0  0  0  0
  1  2  2  0
  2  3  2  0
  2  4  1  0
  4  5  2  0
  5  6  1  0
  6  7  2  0
  7  8  1  0
  8  9  2  0
  9 10  1  0
 10 11  2  0
 11 12  1  0
 12 13  2  0
  2 14  1  0
 14 15  1  0
 15 16  1  0
 16 17  1  0
 17 18  1  0
 18 19  1  0
 19 20  1  0
 13  4  1  0
 20 14  1  0
 13  8  1  0
  5 21  1  0
  6 22  1  0
  7 23  1  0
  9 24  1  0
 11 25  1  0
 12 26  1  0
 15 27  1  0
 15 28  1  0
 16 29  1  0
 16 30  1  0
 17 31  1  0
 17 32  1  0
 18 33  1  0
 19 34  1  0
 19 35  1  0
 20 36  1  0
 20 37  1  0
M  END
$$$$
OCNT-0022006
     RDKit          3D

 61 65  0  0  0  0  0  0  0  0999 V2000
   -3.6780    1.0106    1.6902 O   0  0  0  0  0  0  0  0  0  0  0  0
   -3.2372    0.0937    0.9952 C   0  0  0  0  0  0  0  0  0  0  0  0
   -1.7642   -0.0393    0.7701 C   0  0  0  0  0  0  0  0  0  0  0  0
   -1.2174   -0.9557   -0.1362 C   0  0  0  0  0  0  0  0  0  0  0  0
    0.1693   -1.0350   -0.3013 C   0  0  0  0  0  0  0  0  0  0  0  0
    1.0270   -0.2051    0.4246 C   0  0  0  0  0  0  0  0  0  0  0  0
    2.3554   -0.3915    0.1635 O   0  0  0  0  0  0  0  0  0  0  0  0
    3.2839    0.4389    0.8698 C   0  0  0  0  0  0  0  0  0  0  0  0
    4.7032    0.0383    0.4326 C   0  0  0  0  0  0  0  0  0  0  0  0
    5.7781    0.7314    1.1666 N   0  0  0  0  0  0  0  0  0  0  0  0
    5.8734    2.1684    0.8664 C   0  0  0  0  0  0  0  0  0  0  0  0
    6.4183    2.4840   -0.5293 C   0  0  0  0  0  0  0  0  0  0  0  0
    7.7536    1.7896   -0.7751 C   0  0  0  0  0  0  0  0  0  0  0  0
    7.6678    0.3045   -0.4438 C   0  0  0  0  0  0  0  0  0  0  0  0
    7.0827    0.0808    0.9540 C   0  0  0  0  0  0  0  0  0  0  0  0
    0.4858    0.7136    1.3226 C   0  0  0  0  0  0  0  0  0  0  0  0
   -0.9020    0.7963    1.4934 C   0  0  0  0  0  0  0  0  0  0  0  0
   -4.1219   -0.8944    0.3865 C   0  0  0  0  0  0  0  0  0  0  0  0
   -4.8819   -0.6209   -0.7393 C   0  0  0  0  0  0  0  0  0  0  0  0
   -4.9591    0.6135   -1.5186 C   0  0  0  0  0  0  0  0  0  0  0  0
   -4.1600    0.7822   -2.6575 C   0  0  0  0  0  0  0  0  0  0  0  0
   -4.2236    1.9720   -3.3864 C   0  0  0  0  0  0  0  0  0  0  0  0
   -5.0824    2.9899   -2.9763 C   0  0  0  0  0  0  0  0  0  0  0  0
   -5.1131    4.1349   -3.7166 O   0  0  0  0  0  0  0  0  0  0  0  0
   -5.8848    2.8380   -1.8488 C   0  0  0  0  0  0  0  0  0  0  0  0
   -5.8200    1.6484   -1.1179 C   0  0  0  0  0  0  0  0  0  0  0  0
   -5.8077   -1.9673   -1.2293 S   0  0  0  0  0  0  0  0  0  0  0  0
   -5.2216   -2.9450    0.0621 C   0  0  0  0  0  0  0  0  0  0  0  0
   -5.5653   -4.2845    0.3306 C   0  0  0  0  0  0  0  0  0  0  0  0
   -4.9858   -4.9165    1.4298 C   0  0  0  0  0  0  0  0  0  0  0  0
   -5.3369   -6.2152    1.6641 O   0  0  0  0  0  0  0  0  0  0  0  0
   -4.0889   -4.2561    2.2529 C   0  0  0  0  0  0  0  0  0  0  0  0
   -3.7528   -2.9246    1.9812 C   0  0  0  0  0  0  0  0  0  0  0  0
   -4.3183   -2.2441    0.8679 C   0  0  0  0  0  0  0  0  0  0  0  0
   -1.8428   -1.6168   -0.7307 H   0  0  0  0  0  0  0  0  0  0  0  0
    0.5860   -1.7511   -1.0062 H   0  0  0  0  0  0  0  0  0  0  0  0
    3.0920    1.4880    0.6203 H   0  0  0  0  0  0  0  0  0  0  0  0
    3.1799    0.2809    1.9502 H   0  0  0  0  0  0  0  0  0  0  0  0
    4.7896   -1.0437    0.6070 H   0  0  0  0  0  0  0  0  0  0  0  0
    4.7942    0.1605   -0.6538 H   0  0  0  0  0  0  0  0  0  0  0  0
    4.9072    2.6654    1.0050 H   0  0  0  0  0  0  0  0  0  0  0  0
    6.5347    2.6278    1.6140 H   0  0  0  0  0  0  0  0  0  0  0  0
    6.5470    3.5669   -0.6345 H   0  0  0  0  0  0  0  0  0  0  0  0
    5.6968    2.1791   -1.2946 H   0  0  0  0  0  0  0  0  0  0  0  0
    8.5244    2.2561   -0.1496 H   0  0  0  0  0  0  0  0  0  0  0  0
    8.0617    1.9251   -1.8176 H   0  0  0  0  0  0  0  0  0  0  0  0
    8.6675   -0.1414   -0.4980 H   0  0  0  0  0  0  0  0  0  0  0  0
    7.0555   -0.2066   -1.1961 H   0  0  0  0  0  0  0  0  0  0  0  0
    7.7882    0.4690    1.7020 H   0  0  0  0  0  0  0  0  0  0  0  0
    7.0097   -0.9955    1.1574 H   0  0  0  0  0  0  0  0  0  0  0  0
    1.1111    1.3822    1.9059 H   0  0  0  0  0  0  0  0  0  0  0  0
   -1.3060    1.5219    2.1979 H   0  0  0  0  0  0  0  0  0  0  0  0
   -3.4825   -0.0083   -2.9835 H   0  0  0  0  0  0  0  0  0  0  0  0
   -3.6060    2.1038   -4.2706 H   0  0  0  0  0  0  0  0  0  0  0  0
   -5.7355    4.7542   -3.3022 H   0  0  0  0  0  0  0  0  0  0  0  0
   -6.5668    3.6217   -1.5258 H   0  0  0  0  0  0  0  0  0  0  0  0
   -6.4404    1.5316   -0.2308 H   0  0  0  0  0  0  0  0  0  0  0  0
   -6.2693   -4.8167   -0.3033 H   0  0  0  0  0  0  0  0  0  0  0  0
   -4.8809   -6.5275    2.4640 H   0  0  0  0  0  0  0  0  0  0  0  0
   -3.6387   -4.7504    3.1107 H   0  0  0  0  0  0  0  0  0  0  0  0
   -3.0524   -2.4099    2.6373 H   0  0  0  0  0  0  0  0  0  0  0  0
  1  2  2  0
  2  3  1  0
  3  4  1  0
  4  5  2  0
  5  6  1  0
  6  7  1  0
  7  8  1  0
  8  9  1  0
  9 10  1  0
 10 11  1  0
 11 12  1  0
 12 13  1  0
 13 14  1  0
 14 15  1  0
  6 16  2  0
 16 17  1  0
  2 18  1  0
 18 19  2  0
 19 20  1  0
 20 21  1  0
 21 22  2  0
 22 23  1  0
 23 24  1  0
 23 25  2  0
 25 26  1  0
 19 27  1  0
 27 28  1  0
 28 29  2  0
 29 30  1  0
 30 31  1  0
 30 32  2  0
 32 33  1  0
 33 34  2  0
 17  3  2  0
 34 18  1  0
 15 10  1  0
 26 20  2  0
 34 28  1  0
  4 35  1  0
  5 36  1  0
  8 37  1  0
  8 38  1  0
  9 39  1  0
  9 40  1  0
 11 41  1  0
 11 42  1  0
 12 43  1  0
 12 44  1  0
 13 45  1  0
 13 46  1  0
 14 47  1  0
 14 48  1  0
 15 49  1  0
 15 50  1  0
 16 51  1  0
 17 52  1  0
 21 53  1  0
 22 54  1  0
 24 55  1  0
 25 56  1  0
 26 57  1  0
 29 58  1  0
 31 59  1  0
 32 60  1  0
 33 61  1  0
M  END
$$$$
OCNT-0022012
     RDKit          3D

 53 55  0  0  0  0  0  0  0  0999 V2000
   -1.5511    0.0599    2.3559 O   0  0  0  0  0  0  0  0  0  0  0  0
   -1.0893    0.2544    0.9846 C   0  0  0  0  0  0  0  0  0  0  0  0
    0.4391   -0.0609    1.0769 C   0  0  0  0  0  0  0  0  0  0  0  0
    1.3595    0.3780   -0.0711 C   0  0  0  0  0  0  0  0  0  0  0  0
    2.7533   -0.0670    0.1196 N   0  0  0  0  0  0  0  0  0  0  0  0
    2.8914   -1.5339    0.0644 C   0  0  0  0  0  0  0  0  0  0  0  0
    4.2707   -2.0229   -0.3999 C   0  0  0  0  0  0  0  0  0  0  0  0
    5.3738   -1.0830    0.0599 C   0  0  0  0  0  0  0  0  0  0  0  0
    5.1189    0.3424   -0.4323 C   0  0  0  0  0  0  0  0  0  0  0  0
    3.6583    0.5971   -0.8221 C   0  0  0  0  0  0  0  0  0  0  0  0
   -1.4138    1.7046    0.5876 C   0  0  0  0  0  0  0  0  0  0  0  0
   -2.0118    2.6021    1.4957 C   0  0  0  0  0  0  0  0  0  0  0  0
   -2.3178    3.9194    1.1367 C   0  0  0  0  0  0  0  0  0  0  0  0
   -2.0417    4.3753   -0.1459 C   0  0  0  0  0  0  0  0  0  0  0  0
   -1.4678    3.5108   -1.0694 C   0  0  0  0  0  0  0  0  0  0  0  0
   -1.1641    2.1935   -0.7072 C   0  0  0  0  0  0  0  0  0  0  0  0
   -1.9135   -0.8452    0.2088 C   0  0  0  0  0  0  0  0  0  0  0  0
   -3.4279   -0.5210    0.1657 C   0  0  0  0  0  0  0  0  0  0  0  0
   -4.2442   -1.6584   -0.4448 C   0  0  0  0  0  0  0  0  0  0  0  0
   -3.7352   -2.0294   -1.8314 C   0  0  0  0  0  0  0  0  0  0  0  0
   -2.2516   -2.3716   -1.7997 C   0  0  0  0  0  0  0  0  0  0  0  0
   -1.4167   -1.2423   -1.1910 C   0  0  0  0  0  0  0  0  0  0  0  0
   -0.9695    0.5795    2.9363 H   0  0  0  0  0  0  0  0  0  0  0  0
    0.8408    0.4031    1.9902 H   0  0  0  0  0  0  0  0  0  0  0  0
    0.5361   -1.1397    1.2554 H   0  0  0  0  0  0  0  0  0  0  0  0
    0.9951    0.0437   -1.0456 H   0  0  0  0  0  0  0  0  0  0  0  0
    1.3647    1.4738   -0.0845 H   0  0  0  0  0  0  0  0  0  0  0  0
    2.7061   -1.9292    1.0702 H   0  0  0  0  0  0  0  0  0  0  0  0
    2.1423   -1.9829   -0.6003 H   0  0  0  0  0  0  0  0  0  0  0  0
    4.2876   -2.0891   -1.4954 H   0  0  0  0  0  0  0  0  0  0  0  0
    4.4521   -3.0342   -0.0187 H   0  0  0  0  0  0  0  0  0  0  0  0
    6.3507   -1.4332   -0.2914 H   0  0  0  0  0  0  0  0  0  0  0  0
    5.4157   -1.0859    1.1565 H   0  0  0  0  0  0  0  0  0  0  0  0
    5.4272    1.0458    0.3513 H   0  0  0  0  0  0  0  0  0  0  0  0
    5.7540    0.5502   -1.3019 H   0  0  0  0  0  0  0  0  0  0  0  0
    3.4987    1.6825   -0.8191 H   0  0  0  0  0  0  0  0  0  0  0  0
    3.4713    0.2538   -1.8481 H   0  0  0  0  0  0  0  0  0  0  0  0
   -2.2769    2.2880    2.5027 H   0  0  0  0  0  0  0  0  0  0  0  0
   -2.7812    4.5833    1.8620 H   0  0  0  0  0  0  0  0  0  0  0  0
   -2.2811    5.3970   -0.4267 H   0  0  0  0  0  0  0  0  0  0  0  0
   -1.2570    3.8574   -2.0780 H   0  0  0  0  0  0  0  0  0  0  0  0
   -0.7215    1.5629   -1.4706 H   0  0  0  0  0  0  0  0  0  0  0  0
   -1.8297   -1.7606    0.8174 H   0  0  0  0  0  0  0  0  0  0  0  0
   -3.8061   -0.3240    1.1755 H   0  0  0  0  0  0  0  0  0  0  0  0
   -3.6037    0.3858   -0.4252 H   0  0  0  0  0  0  0  0  0  0  0  0
   -5.2977   -1.3627   -0.5064 H   0  0  0  0  0  0  0  0  0  0  0  0
   -4.1969   -2.5360    0.2116 H   0  0  0  0  0  0  0  0  0  0  0  0
   -4.3034   -2.8830   -2.2176 H   0  0  0  0  0  0  0  0  0  0  0  0
   -3.9044   -1.1933   -2.5209 H   0  0  0  0  0  0  0  0  0  0  0  0
   -2.1006   -3.2896   -1.2181 H   0  0  0  0  0  0  0  0  0  0  0  0
   -1.9001   -2.5792   -2.8168 H   0  0  0  0  0  0  0  0  0  0  0  0
   -0.3832   -1.5954   -1.1403 H   0  0  0  0  0  0  0  0  0  0  0  0
   -1.4479   -0.3903   -1.8742 H   0  0  0  0  0  0  0  0  0  0  0  0
  1  2  1  0
  2  3  1  0
  3  4  1  0
  4  5  1  0
  5  6  1  0
  6  7  1  0
  7  8  1  0
  8  9  1  0
  9 10  1  0
  2 11  1  0
 11 12  2  0
 12 13  1  0
 13 14  2  0
 14 15  1  0
 15 16  2  0
  2 17  1  0
 17 18  1  0
 18 19  1  0
 19 20  1  0
 20 21  1  0
 21 22  1  0
 10  5  1  0
 16 11  1  0
 22 17  1  0
  1 23  1  0
  3 24  1  0
  3 25  1  0
  4 26  1  0
  4 27  1  0
  6 28  1  0
  6 29  1  0
  7 30  1  0
  7 31  1  0
  8 32  1  0
  8 33  1  0
  9 34  1  0
  9 35  1  0
 10 36  1  0
 10 37  1  0
 12 38  1  0
 13 39  1  0
 14 40  1  0
 15 41  1  0
 16 42  1  0
 17 43  1  0
 18 44  1  0
 18 45  1  0
 19 46  1  0
 19 47  1  0
 20 48  1  0
 20 49  1  0
 21 50  1  0
 21 51  1  0
 22 52  1  0
 22 53  1  0
M  END
$$$$
OCNT-0022107
     RDKit          3D

 65 68  0  0  0  0  0  0  0  0999 V2000
   -4.9174   -1.2867    2.3826 C   0  0  0  0  0  0  0  0  0  0  0  0
   -4.3303    0.0911    2.6255 C   0  0  0  0  0  0  0  0  0  0  0  0
   -3.1026    0.3016    1.7872 C   0  0  0  0  0  0  0  0  0  0  0  0
   -1.9059    0.0718    2.2493 N   0  0  0  0  0  0  0  0  0  0  0  0
   -1.0810    0.3797    1.1972 N   0  0  0  0  0  0  0  0  0  0  0  0
    0.3504    0.1883    1.2433 C   0  0  0  0  0  0  0  0  0  0  0  0
    0.7289   -1.2699    1.0090 C   0  0  0  0  0  0  0  0  0  0  0  0
    2.2199   -1.5773    1.1957 C   0  0  0  0  0  0  0  0  0  0  0  0
    3.0594   -0.9598    0.1632 N   0  0  0  0  0  0  0  0  0  0  0  0
    4.1441   -1.8687   -0.2629 C   0  0  0  0  0  0  0  0  0  0  0  0
    5.2643   -1.1664   -1.0624 C   0  0  0  0  0  0  0  0  0  0  0  0
    5.9179   -0.1318   -0.2446 N   0  0  0  0  0  0  0  0  0  0  0  0
    7.2139    0.2845   -0.4980 C   0  0  0  0  0  0  0  0  0  0  0  0
    7.8339    0.0602   -1.7408 C   0  0  0  0  0  0  0  0  0  0  0  0
    9.1435    0.4780   -2.0094 C   0  0  0  0  0  0  0  0  0  0  0  0
    9.8749    1.1390   -1.0311 C   0  0  0  0  0  0  0  0  0  0  0  0
    9.2895    1.3739    0.2062 C   0  0  0  0  0  0  0  0  0  0  0  0
   10.1887    2.1867    1.4290 Cl  0  0  0  0  0  0  0  0  0  0  0  0
    7.9814    0.9533    0.4694 C   0  0  0  0  0  0  0  0  0  0  0  0
    5.1173    0.4311    0.8542 C   0  0  0  0  0  0  0  0  0  0  0  0
    3.6001    0.3645    0.5443 C   0  0  0  0  0  0  0  0  0  0  0  0
   -1.8327    0.7620    0.0885 C   0  0  0  0  0  0  0  0  0  0  0  0
   -1.4274    1.0727   -1.0195 O   0  0  0  0  0  0  0  0  0  0  0  0
   -3.1433    0.7047    0.5036 N   0  0  0  0  0  0  0  0  0  0  0  0
   -4.2611    1.0675   -0.3508 C   0  0  0  0  0  0  0  0  0  0  0  0
   -4.5106    0.0507   -1.4696 C   0  0  0  0  0  0  0  0  0  0  0  0
   -5.5156    0.5166   -2.3744 O   0  0  0  0  0  0  0  0  0  0  0  0
   -6.8233    0.4625   -1.9856 C   0  0  0  0  0  0  0  0  0  0  0  0
   -7.6747    1.3242   -2.6829 C   0  0  0  0  0  0  0  0  0  0  0  0
   -9.0376    1.3717   -2.3867 C   0  0  0  0  0  0  0  0  0  0  0  0
   -9.5603    0.5468   -1.3943 C   0  0  0  0  0  0  0  0  0  0  0  0
   -8.7202   -0.3274   -0.7068 C   0  0  0  0  0  0  0  0  0  0  0  0
   -7.3541   -0.3739   -1.0046 C   0  0  0  0  0  0  0  0  0  0  0  0
   -4.1843   -2.0689    2.6052 H   0  0  0  0  0  0  0  0  0  0  0  0
   -5.7911   -1.4465    3.0209 H   0  0  0  0  0  0  0  0  0  0  0  0
   -5.2247   -1.4118    1.3419 H   0  0  0  0  0  0  0  0  0  0  0  0
   -5.0720    0.8644    2.4078 H   0  0  0  0  0  0  0  0  0  0  0  0
   -4.0543    0.1919    3.6811 H   0  0  0  0  0  0  0  0  0  0  0  0
    0.7002    0.5306    2.2236 H   0  0  0  0  0  0  0  0  0  0  0  0
    0.7962    0.8264    0.4732 H   0  0  0  0  0  0  0  0  0  0  0  0
    0.1625   -1.9031    1.7054 H   0  0  0  0  0  0  0  0  0  0  0  0
    0.4106   -1.5741    0.0026 H   0  0  0  0  0  0  0  0  0  0  0  0
    2.5555   -1.3090    2.2052 H   0  0  0  0  0  0  0  0  0  0  0  0
    2.3060   -2.6705    1.1362 H   0  0  0  0  0  0  0  0  0  0  0  0
    4.6019   -2.3485    0.6138 H   0  0  0  0  0  0  0  0  0  0  0  0
    3.7150   -2.6640   -0.8837 H   0  0  0  0  0  0  0  0  0  0  0  0
    4.8512   -0.7138   -1.9718 H   0  0  0  0  0  0  0  0  0  0  0  0
    5.9843   -1.9382   -1.3591 H   0  0  0  0  0  0  0  0  0  0  0  0
    7.2927   -0.4309   -2.5452 H   0  0  0  0  0  0  0  0  0  0  0  0
    9.5833    0.2903   -2.9856 H   0  0  0  0  0  0  0  0  0  0  0  0
   10.8899    1.4647   -1.2370 H   0  0  0  0  0  0  0  0  0  0  0  0
    7.5753    1.1389    1.4593 H   0  0  0  0  0  0  0  0  0  0  0  0
    5.3651    1.4864    1.0190 H   0  0  0  0  0  0  0  0  0  0  0  0
    5.3321   -0.1169    1.7795 H   0  0  0  0  0  0  0  0  0  0  0  0
    3.0567    0.7976    1.3915 H   0  0  0  0  0  0  0  0  0  0  0  0
    3.4055    1.0324   -0.3051 H   0  0  0  0  0  0  0  0  0  0  0  0
   -5.1631    1.1975    0.2528 H   0  0  0  0  0  0  0  0  0  0  0  0
   -4.0390    2.0442   -0.7981 H   0  0  0  0  0  0  0  0  0  0  0  0
   -3.5997   -0.0614   -2.0675 H   0  0  0  0  0  0  0  0  0  0  0  0
   -4.7268   -0.9514   -1.0868 H   0  0  0  0  0  0  0  0  0  0  0  0
   -7.2720    1.9683   -3.4610 H   0  0  0  0  0  0  0  0  0  0  0  0
   -9.6883    2.0491   -2.9330 H   0  0  0  0  0  0  0  0  0  0  0  0
  -10.6226    0.5776   -1.1643 H   0  0  0  0  0  0  0  0  0  0  0  0
   -9.1320   -0.9830    0.0572 H   0  0  0  0  0  0  0  0  0  0  0  0
   -6.7442   -1.0894   -0.4673 H   0  0  0  0  0  0  0  0  0  0  0  0
  1  2  1  0
  2  3  1  0
  3  4  2  0
  4  5  1  0
  5  6  1  0
  6  7  1  0
  7  8  1  0
  8  9  1  0
  9 10  1  0
 10 11  1  0
 11 12  1  0
 12 13  1  0
 13 14  2  0
 14 15  1  0
 15 16  2  0
 16 17  1  0
 17 18  1  0
 17 19  2  0
 12 20  1  0
 20 21  1  0
  5 22  1  0
 22 23  2  0
 22 24  1  0
 24 25  1  0
 25 26  1  0
 26 27  1  0
 27 28  1  0
 28 29  2  0
 29 30  1  0
 30 31  2  0
 31 32  1  0
 32 33  2  0
 24  3  1  0
 33 28  1  0
 21  9  1  0
 19 13  1  0
  1 34  1  0
  1 35  1  0
  1 36  1  0
  2 37  1  0
  2 38  1  0
  6 39  1  0
  6 40  1  0
  7 41  1  0
  7 42  1  0
  8 43  1  0
  8 44  1  0
 10 45  1  0
 10 46  1  0
 11 47  1  0
 11 48  1  0
 14 49  1  0
 15 50  1  0
 16 51  1  0
 19 52  1  0
 20 53  1  0
 20 54  1  0
 21 55  1  0
 21 56  1  0
 25 57  1  0
 25 58  1  0
 26 59  1  0
 26 60  1  0
 29 61  1  0
 30 62  1  0
 31 63  1  0
 32 64  1  0
 33 65  1  0
M  END
$$$$
OCNT-0022119
     RDKit          3D

 53 56  0  0  0  0  0  0  0  0999 V2000
   -5.8960    2.0193    1.7162 O   0  0  0  0  0  0  0  0  0  0  0  0
   -5.4078    1.0377    2.6291 C   0  0  0  0  0  0  0  0  0  0  0  0
   -4.7906   -0.1343    1.8510 C   0  0  0  0  0  0  0  0  0  0  0  0
   -3.8308    0.3279    0.8233 N   0  0  0  0  0  0  0  0  0  0  0  0
   -2.5811    0.8383    1.4320 C   0  0  0  0  0  0  0  0  0  0  0  0
   -1.5275    1.2305    0.3711 C   0  0  0  0  0  0  0  0  0  0  0  0
   -1.1930    0.1066   -0.5272 N   0  0  0  0  0  0  0  0  0  0  0  0
   -0.2006    0.5325   -1.5255 C   0  0  0  0  0  0  0  0  0  0  0  0
    0.5026   -0.6376   -2.2238 C   0  0  0  0  0  0  0  0  0  0  0  0
    1.2241   -1.6067   -1.2721 C   0  0  0  0  0  0  0  0  0  0  0  0
    2.4112   -1.0080   -0.6040 N   0  0  0  0  0  0  0  0  0  0  0  0
    2.1980   -0.4952    0.7047 C   0  0  0  0  0  0  0  0  0  0  0  0
    2.7780    0.7157    1.1312 C   0  0  0  0  0  0  0  0  0  0  0  0
    2.5568    1.1974    2.4338 C   0  0  0  0  0  0  0  0  0  0  0  0
    1.7832    0.4769    3.3393 C   0  0  0  0  0  0  0  0  0  0  0  0
    1.2337   -0.7361    2.9514 C   0  0  0  0  0  0  0  0  0  0  0  0
    1.4469   -1.2166    1.6553 C   0  0  0  0  0  0  0  0  0  0  0  0
    3.7755    1.7339    0.0628 S   0  0  0  0  0  0  0  0  0  0  0  0
    4.1891    0.5896   -1.2376 C   0  0  0  0  0  0  0  0  0  0  0  0
    5.2469    0.9594   -2.0871 C   0  0  0  0  0  0  0  0  0  0  0  0
    5.6260    0.1427   -3.1493 C   0  0  0  0  0  0  0  0  0  0  0  0
    4.9494   -1.0497   -3.3605 C   0  0  0  0  0  0  0  0  0  0  0  0
    5.4187   -2.0783   -4.6584 Cl  0  0  0  0  0  0  0  0  0  0  0  0
    3.8946   -1.4249   -2.5258 C   0  0  0  0  0  0  0  0  0  0  0  0
    3.4770   -0.6080   -1.4553 C   0  0  0  0  0  0  0  0  0  0  0  0
   -2.4343   -0.3969   -1.1451 C   0  0  0  0  0  0  0  0  0  0  0  0
   -3.4899   -0.7897   -0.0850 C   0  0  0  0  0  0  0  0  0  0  0  0
   -5.2752    1.9822    0.9594 H   0  0  0  0  0  0  0  0  0  0  0  0
   -4.6781    1.5142    3.2902 H   0  0  0  0  0  0  0  0  0  0  0  0
   -6.2457    0.6917    3.2417 H   0  0  0  0  0  0  0  0  0  0  0  0
   -4.3372   -0.8551    2.5419 H   0  0  0  0  0  0  0  0  0  0  0  0
   -5.6175   -0.6437    1.3394 H   0  0  0  0  0  0  0  0  0  0  0  0
   -2.1474    0.0875    2.1063 H   0  0  0  0  0  0  0  0  0  0  0  0
   -2.7940    1.7314    2.0294 H   0  0  0  0  0  0  0  0  0  0  0  0
   -1.8991    2.0876   -0.2069 H   0  0  0  0  0  0  0  0  0  0  0  0
   -0.6250    1.5600    0.9000 H   0  0  0  0  0  0  0  0  0  0  0  0
    0.5703    1.1473   -1.0469 H   0  0  0  0  0  0  0  0  0  0  0  0
   -0.6674    1.1774   -2.2815 H   0  0  0  0  0  0  0  0  0  0  0  0
   -0.2298   -1.2093   -2.8063 H   0  0  0  0  0  0  0  0  0  0  0  0
    1.2055   -0.2281   -2.9586 H   0  0  0  0  0  0  0  0  0  0  0  0
    1.5292   -2.4927   -1.8404 H   0  0  0  0  0  0  0  0  0  0  0  0
    0.4929   -2.0085   -0.5645 H   0  0  0  0  0  0  0  0  0  0  0  0
    2.9945    2.1416    2.7508 H   0  0  0  0  0  0  0  0  0  0  0  0
    1.6247    0.8557    4.3452 H   0  0  0  0  0  0  0  0  0  0  0  0
    0.6475   -1.3209    3.6553 H   0  0  0  0  0  0  0  0  0  0  0  0
    1.0360   -2.1921    1.4124 H   0  0  0  0  0  0  0  0  0  0  0  0
    5.7833    1.8919   -1.9224 H   0  0  0  0  0  0  0  0  0  0  0  0
    6.4471    0.4392   -3.7957 H   0  0  0  0  0  0  0  0  0  0  0  0
    3.4222   -2.3853   -2.7049 H   0  0  0  0  0  0  0  0  0  0  0  0
   -2.2207   -1.2886   -1.7445 H   0  0  0  0  0  0  0  0  0  0  0  0
   -2.8650    0.3561   -1.8186 H   0  0  0  0  0  0  0  0  0  0  0  0
   -4.3938   -1.1164   -0.6135 H   0  0  0  0  0  0  0  0  0  0  0  0
   -3.1172   -1.6497    0.4883 H   0  0  0  0  0  0  0  0  0  0  0  0
  1  2  1  0
  2  3  1  0
  3  4  1  0
  4  5  1  0
  5  6  1  0
  6  7  1  0
  7  8  1  0
  8  9  1  0
  9 10  1  0
 10 11  1  0
 11 12  1  0
 12 13  1  0
 13 14  2  0
 14 15  1  0
 15 16  2  0
 16 17  1  0
 13 18  1  0
 18 19  1  0
 19 20  1  0
 20 21  2  0
 21 22  1  0
 22 23  1  0
 22 24  2  0
 24 25  1  0
  7 26  1  0
 26 27  1  0
 27  4  1  0
 25 11  1  0
 17 12  2  0
 25 19  2  0
  1 28  1  0
  2 29  1  0
  2 30  1  0
  3 31  1  0
  3 32  1  0
  5 33  1  0
  5 34  1  0
  6 35  1  0
  6 36  1  0
  8 37  1  0
  8 38  1  0
  9 39  1  0
  9 40  1  0
 10 41  1  0
 10 42  1  0
 14 43  1  0
 15 44  1  0
 16 45  1  0
 17 46  1  0
 20 47  1  0
 21 48  1  0
 24 49  1  0
 26 50  1  0
 26 51  1  0
 27 52  1  0
 27 53  1  0
M  END
$$$$
OCNT-0022126
     RDKit          3D

 58 61  0  0  0  0  0  0  0  0999 V2000
    5.6741    2.1748    3.4505 C   0  0  0  0  0  0  0  0  0  0  0  0
    4.6706    1.6078    2.6197 O   0  0  0  0  0  0  0  0  0  0  0  0
    5.0799    0.8989    1.5164 C   0  0  0  0  0  0  0  0  0  0  0  0
    4.0552    0.3370    0.7274 C   0  0  0  0  0  0  0  0  0  0  0  0
    2.7738    0.5753    1.1531 O   0  0  0  0  0  0  0  0  0  0  0  0
    1.6766   -0.0630    0.4979 C   0  0  0  0  0  0  0  0  0  0  0  0
    1.1675    0.8088   -0.6487 C   0  0  0  0  0  0  0  0  0  0  0  0
    0.0743    0.1282   -1.4793 C   0  0  0  0  0  0  0  0  0  0  0  0
   -1.0821   -0.3316   -0.7011 N   0  0  0  0  0  0  0  0  0  0  0  0
   -1.9063    0.7587   -0.1547 C   0  0  0  0  0  0  0  0  0  0  0  0
   -3.1829    1.0198   -0.9530 C   0  0  0  0  0  0  0  0  0  0  0  0
   -4.0751   -0.2325   -1.0294 C   0  0  0  0  0  0  0  0  0  0  0  0
   -5.2230   -0.1959   -0.0611 C   0  0  0  0  0  0  0  0  0  0  0  0
   -5.0088    0.0108    1.2469 N   0  0  0  0  0  0  0  0  0  0  0  0
   -6.2553   -0.0233    1.8465 O   0  0  0  0  0  0  0  0  0  0  0  0
   -7.2086   -0.2450    0.9043 C   0  0  0  0  0  0  0  0  0  0  0  0
   -6.6070   -0.3636   -0.3374 C   0  0  0  0  0  0  0  0  0  0  0  0
   -7.4171   -0.5986   -1.4635 C   0  0  0  0  0  0  0  0  0  0  0  0
   -8.8029   -0.6999   -1.2736 C   0  0  0  0  0  0  0  0  0  0  0  0
   -9.3573   -0.5723   -0.0003 C   0  0  0  0  0  0  0  0  0  0  0  0
  -10.6860   -0.6744    0.1392 F   0  0  0  0  0  0  0  0  0  0  0  0
   -8.5771   -0.3414    1.1304 C   0  0  0  0  0  0  0  0  0  0  0  0
   -3.2562   -1.5260   -0.8840 C   0  0  0  0  0  0  0  0  0  0  0  0
   -1.8521   -1.3357   -1.4493 C   0  0  0  0  0  0  0  0  0  0  0  0
    4.3920   -0.3918   -0.4172 C   0  0  0  0  0  0  0  0  0  0  0  0
    5.7317   -0.5728   -0.7779 C   0  0  0  0  0  0  0  0  0  0  0  0
    6.7502   -0.0219    0.0036 C   0  0  0  0  0  0  0  0  0  0  0  0
    8.1945   -0.1825   -0.3431 C   0  0  0  0  0  0  0  0  0  0  0  0
    8.5711   -1.0112   -1.5431 C   0  0  0  0  0  0  0  0  0  0  0  0
    9.0540    0.3624    0.3465 O   0  0  0  0  0  0  0  0  0  0  0  0
    6.4181    0.7145    1.1495 C   0  0  0  0  0  0  0  0  0  0  0  0
    5.1731    2.6913    4.2747 H   0  0  0  0  0  0  0  0  0  0  0  0
    6.2657    2.9166    2.9046 H   0  0  0  0  0  0  0  0  0  0  0  0
    6.3126    1.3989    3.8844 H   0  0  0  0  0  0  0  0  0  0  0  0
    0.8889   -0.1587    1.2539 H   0  0  0  0  0  0  0  0  0  0  0  0
    1.9169   -1.0858    0.1872 H   0  0  0  0  0  0  0  0  0  0  0  0
    0.8249    1.7694   -0.2464 H   0  0  0  0  0  0  0  0  0  0  0  0
    1.9982    1.0672   -1.3167 H   0  0  0  0  0  0  0  0  0  0  0  0
   -0.2480    0.8036   -2.2826 H   0  0  0  0  0  0  0  0  0  0  0  0
    0.5433   -0.7358   -1.9703 H   0  0  0  0  0  0  0  0  0  0  0  0
   -1.3453    1.6951   -0.0690 H   0  0  0  0  0  0  0  0  0  0  0  0
   -2.1747    0.4884    0.8739 H   0  0  0  0  0  0  0  0  0  0  0  0
   -2.9006    1.3195   -1.9718 H   0  0  0  0  0  0  0  0  0  0  0  0
   -3.7239    1.8736   -0.5267 H   0  0  0  0  0  0  0  0  0  0  0  0
   -4.5080   -0.2320   -2.0401 H   0  0  0  0  0  0  0  0  0  0  0  0
   -6.9899   -0.6988   -2.4564 H   0  0  0  0  0  0  0  0  0  0  0  0
   -9.4597   -0.8789   -2.1210 H   0  0  0  0  0  0  0  0  0  0  0  0
   -9.0090   -0.2435    2.1168 H   0  0  0  0  0  0  0  0  0  0  0  0
   -3.7643   -2.3433   -1.4110 H   0  0  0  0  0  0  0  0  0  0  0  0
   -3.1849   -1.8403    0.1659 H   0  0  0  0  0  0  0  0  0  0  0  0
   -1.3174   -2.2919   -1.4105 H   0  0  0  0  0  0  0  0  0  0  0  0
   -1.9366   -1.0564   -2.5084 H   0  0  0  0  0  0  0  0  0  0  0  0
    3.6341   -0.8256   -1.0607 H   0  0  0  0  0  0  0  0  0  0  0  0
    5.9474   -1.1431   -1.6769 H   0  0  0  0  0  0  0  0  0  0  0  0
    8.1996   -2.0332   -1.4318 H   0  0  0  0  0  0  0  0  0  0  0  0
    9.6619   -1.0563   -1.6199 H   0  0  0  0  0  0  0  0  0  0  0  0
    8.1852   -0.5514   -2.4565 H   0  0  0  0  0  0  0  0  0  0  0  0
    7.2246    1.1378    1.7413 H   0  0  0  0  0  0  0  0  0  0  0  0
  1  2  1  0
  2  3  1  0
  3  4  2  0
  4  5  1  0
  5  6  1  0
  6  7  1  0
  7  8  1  0
  8  9  1  0
  9 10  1  0
 10 11  1  0
 11 12  1  0
 12 13  1  0
 13 14  2  0
 14 15  1  0
 15 16  1  0
 16 17  1  0
 17 18  2  0
 18 19  1  0
 19 20  2  0
 20 21  1  0
 20 22  1  0
 12 23  1  0
 23 24  1  0
  4 25  1  0
 25 26  2  0
 26 27  1  0
 27 28  1  0
 28 29  1  0
 28 30  2  0
 27 31  2  0
 31  3  1  0
 24  9  1  0
 17 13  1  0
 22 16  2  0
  1 32  1  0
  1 33  1  0
  1 34  1  0
  6 35  1  0
  6 36  1  0
  7 37  1  0
  7 38  1  0
  8 39  1  0
  8 40  1  0
 10 41  1  0
 10 42  1  0
 11 43  1  0
 11 44  1  0
 12 45  1  0
 18 46  1  0
 19 47  1  0
 22 48  1  0
 23 49  1  0
 23 50  1  0
 24 51  1  0
 24 52  1  0
 25 53  1  0
 26 54  1  0
 29 55  1  0
 29 56  1  0
 29 57  1  0
 31 58  1  0
M  END
$$$$
OCNT-0022127
     RDKit          3D

 49 51  0  0  0  0  0  0  0  0999 V2000
    3.6336    2.4668    1.8007 O   0  0  0  0  0  0  0  0  0  0  0  0
    3.3373    1.8163    0.7994 C   0  0  0  0  0  0  0  0  0  0  0  0
    2.2757    2.2920   -0.1791 C   0  0  0  0  0  0  0  0  0  0  0  0
    1.2267    3.1807    0.5008 C   0  0  0  0  0  0  0  0  0  0  0  0
    0.3588    2.4165    1.5144 C   0  0  0  0  0  0  0  0  0  0  0  0
   -0.4543    1.3775    0.8563 N   0  0  0  0  0  0  0  0  0  0  0  0
   -0.7756    0.2950    1.8064 C   0  0  0  0  0  0  0  0  0  0  0  0
   -1.8663   -0.6557    1.2804 C   0  0  0  0  0  0  0  0  0  0  0  0
   -2.0451   -0.5417   -0.2457 C   0  0  0  0  0  0  0  0  0  0  0  0
   -0.7717   -0.8748   -0.8374 O   0  0  0  0  0  0  0  0  0  0  0  0
   -3.1024   -1.4812   -0.8278 C   0  0  0  0  0  0  0  0  0  0  0  0
   -2.9010   -2.0966   -2.0790 C   0  0  0  0  0  0  0  0  0  0  0  0
   -3.8734   -2.9257   -2.6472 C   0  0  0  0  0  0  0  0  0  0  0  0
   -5.0705   -3.1477   -1.9742 C   0  0  0  0  0  0  0  0  0  0  0  0
   -6.2748   -4.1602   -2.6731 Cl  0  0  0  0  0  0  0  0  0  0  0  0
   -5.3016   -2.5469   -0.7403 C   0  0  0  0  0  0  0  0  0  0  0  0
   -4.3269   -1.7164   -0.1742 C   0  0  0  0  0  0  0  0  0  0  0  0
   -2.3766    0.9170   -0.6282 C   0  0  0  0  0  0  0  0  0  0  0  0
   -1.7005    1.9325    0.3043 C   0  0  0  0  0  0  0  0  0  0  0  0
    4.0587    0.5349    0.5355 C   0  0  0  0  0  0  0  0  0  0  0  0
    4.0310   -0.1016   -0.7135 C   0  0  0  0  0  0  0  0  0  0  0  0
    4.7243   -1.3027   -0.9016 C   0  0  0  0  0  0  0  0  0  0  0  0
    5.4454   -1.8579    0.1519 C   0  0  0  0  0  0  0  0  0  0  0  0
    6.1092   -3.0067   -0.0357 F   0  0  0  0  0  0  0  0  0  0  0  0
    5.4929   -1.2343    1.3935 C   0  0  0  0  0  0  0  0  0  0  0  0
    4.8023   -0.0349    1.5860 C   0  0  0  0  0  0  0  0  0  0  0  0
    1.7791    1.4405   -0.6525 H   0  0  0  0  0  0  0  0  0  0  0  0
    2.7854    2.8661   -0.9606 H   0  0  0  0  0  0  0  0  0  0  0  0
    1.7242    4.0096    1.0193 H   0  0  0  0  0  0  0  0  0  0  0  0
    0.5946    3.6375   -0.2717 H   0  0  0  0  0  0  0  0  0  0  0  0
   -0.2768    3.1177    2.0667 H   0  0  0  0  0  0  0  0  0  0  0  0
    1.0231    1.9597    2.2573 H   0  0  0  0  0  0  0  0  0  0  0  0
    0.1364   -0.2817    1.9941 H   0  0  0  0  0  0  0  0  0  0  0  0
   -1.1020    0.7012    2.7732 H   0  0  0  0  0  0  0  0  0  0  0  0
   -2.8010   -0.4173    1.7977 H   0  0  0  0  0  0  0  0  0  0  0  0
   -1.5980   -1.6811    1.5559 H   0  0  0  0  0  0  0  0  0  0  0  0
   -0.1693   -0.1609   -0.5497 H   0  0  0  0  0  0  0  0  0  0  0  0
   -1.9725   -1.9316   -2.6252 H   0  0  0  0  0  0  0  0  0  0  0  0
   -3.6872   -3.3889   -3.6116 H   0  0  0  0  0  0  0  0  0  0  0  0
   -6.2390   -2.7142   -0.2150 H   0  0  0  0  0  0  0  0  0  0  0  0
   -4.5520   -1.2506    0.7822 H   0  0  0  0  0  0  0  0  0  0  0  0
   -2.0506    1.1072   -1.6607 H   0  0  0  0  0  0  0  0  0  0  0  0
   -3.4591    1.1025   -0.5949 H   0  0  0  0  0  0  0  0  0  0  0  0
   -1.5199    2.8460   -0.2704 H   0  0  0  0  0  0  0  0  0  0  0  0
   -2.3856    2.2081    1.1177 H   0  0  0  0  0  0  0  0  0  0  0  0
    3.4912    0.3191   -1.5586 H   0  0  0  0  0  0  0  0  0  0  0  0
    4.7109   -1.8078   -1.8636 H   0  0  0  0  0  0  0  0  0  0  0  0
    6.0656   -1.6806    2.2029 H   0  0  0  0  0  0  0  0  0  0  0  0
    4.8472    0.4552    2.5616 H   0  0  0  0  0  0  0  0  0  0  0  0
  1  2  2  0
  2  3  1  0
  3  4  1  0
  4  5  1  0
  5  6  1  0
  6  7  1  0
  7  8  1  0
  8  9  1  0
  9 10  1  0
  9 11  1  0
 11 12  1  0
 12 13  2  0
 13 14  1  0
 14 15  1  0
 14 16  2  0
 16 17  1  0
  9 18  1  0
 18 19  1  0
  2 20  1  0
 20 21  1  0
 21 22  2  0
 22 23  1  0
 23 24  1  0
 23 25  2  0
 25 26  1  0
 19  6  1  0
 26 20  2  0
 17 11  2  0
  3 27  1  0
  3 28  1  0
  4 29  1  0
  4 30  1  0
  5 31  1  0
  5 32  1  0
  7 33  1  0
  7 34  1  0
  8 35  1  0
  8 36  1  0
 10 37  1  0
 12 38  1  0
 13 39  1  0
 16 40  1  0
 17 41  1  0
 18 42  1  0
 18 43  1  0
 19 44  1  0
 19 45  1  0
 21 46  1  0
 22 47  1  0
 25 48  1  0
 26 49  1  0
M  END
$$$$
OCNT-0022128
     RDKit          3D

 57 60  0  0  0  0  0  0  0  0999 V2000
   -8.4915   -2.0575    0.9147 O   0  0  0  0  0  0  0  0  0  0  0  0
   -7.2757   -1.8844    0.8667 C   0  0  0  0  0  0  0  0  0  0  0  0
   -6.2897   -2.9907    1.1669 C   0  0  0  0  0  0  0  0  0  0  0  0
   -5.0113   -2.4605    1.7954 C   0  0  0  0  0  0  0  0  0  0  0  0
   -4.4816   -1.2772    1.0357 C   0  0  0  0  0  0  0  0  0  0  0  0
   -5.3799   -0.4091    0.4104 C   0  0  0  0  0  0  0  0  0  0  0  0
   -4.9270    0.7550   -0.2089 C   0  0  0  0  0  0  0  0  0  0  0  0
   -3.5628    1.0609   -0.2241 C   0  0  0  0  0  0  0  0  0  0  0  0
   -3.2523    2.2217   -0.8776 O   0  0  0  0  0  0  0  0  0  0  0  0
   -1.9102    2.7087   -0.8121 C   0  0  0  0  0  0  0  0  0  0  0  0
   -1.0768    2.1287   -1.9542 C   0  0  0  0  0  0  0  0  0  0  0  0
    0.3674    2.6357   -1.9888 C   0  0  0  0  0  0  0  0  0  0  0  0
    1.1848    2.1840   -0.7695 C   0  0  0  0  0  0  0  0  0  0  0  0
    2.5952    2.5965   -0.8534 N   0  0  0  0  0  0  0  0  0  0  0  0
    3.2633    2.4747    0.4691 C   0  0  0  0  0  0  0  0  0  0  0  0
    3.4847    1.0234    0.9619 C   0  0  0  0  0  0  0  0  0  0  0  0
    4.2018    0.2386   -0.0609 N   0  0  0  0  0  0  0  0  0  0  0  0
    4.5986   -1.0496    0.3449 C   0  0  0  0  0  0  0  0  0  0  0  0
    3.7541   -2.1470    0.6434 C   0  0  0  0  0  0  0  0  0  0  0  0
    2.0214   -2.0103    0.5265 Cl  0  0  0  0  0  0  0  0  0  0  0  0
    4.3184   -3.3755    1.0431 C   0  0  0  0  0  0  0  0  0  0  0  0
    3.3552   -4.7644    1.4304 Cl  0  0  0  0  0  0  0  0  0  0  0  0
    5.7042   -3.5247    1.1491 C   0  0  0  0  0  0  0  0  0  0  0  0
    6.5417   -2.4550    0.8525 C   0  0  0  0  0  0  0  0  0  0  0  0
    5.9911   -1.2368    0.4570 C   0  0  0  0  0  0  0  0  0  0  0  0
    3.6204    0.3117   -1.4160 C   0  0  0  0  0  0  0  0  0  0  0  0
    3.3780    1.7874   -1.8231 C   0  0  0  0  0  0  0  0  0  0  0  0
   -2.6608    0.1904    0.3903 C   0  0  0  0  0  0  0  0  0  0  0  0
   -3.1186   -0.9689    1.0268 C   0  0  0  0  0  0  0  0  0  0  0  0
   -6.7479   -0.6991    0.4290 N   0  0  0  0  0  0  0  0  0  0  0  0
   -6.0725   -3.5004    0.2199 H   0  0  0  0  0  0  0  0  0  0  0  0
   -6.7595   -3.7146    1.8416 H   0  0  0  0  0  0  0  0  0  0  0  0
   -4.2658   -3.2635    1.8259 H   0  0  0  0  0  0  0  0  0  0  0  0
   -5.2042   -2.1451    2.8285 H   0  0  0  0  0  0  0  0  0  0  0  0
   -5.6253    1.4333   -0.6914 H   0  0  0  0  0  0  0  0  0  0  0  0
   -1.9710    3.7960   -0.9394 H   0  0  0  0  0  0  0  0  0  0  0  0
   -1.4737    2.5484    0.1789 H   0  0  0  0  0  0  0  0  0  0  0  0
   -1.5657    2.3828   -2.9037 H   0  0  0  0  0  0  0  0  0  0  0  0
   -1.0807    1.0333   -1.9142 H   0  0  0  0  0  0  0  0  0  0  0  0
    0.8197    2.2605   -2.9130 H   0  0  0  0  0  0  0  0  0  0  0  0
    0.3729    3.7307   -2.0552 H   0  0  0  0  0  0  0  0  0  0  0  0
    0.7431    2.6596    0.1146 H   0  0  0  0  0  0  0  0  0  0  0  0
    1.0783    1.1028   -0.6266 H   0  0  0  0  0  0  0  0  0  0  0  0
    4.2395    2.9731    0.3983 H   0  0  0  0  0  0  0  0  0  0  0  0
    2.7026    3.0375    1.2255 H   0  0  0  0  0  0  0  0  0  0  0  0
    2.5162    0.5807    1.2116 H   0  0  0  0  0  0  0  0  0  0  0  0
    4.0783    1.0582    1.8840 H   0  0  0  0  0  0  0  0  0  0  0  0
    6.1358   -4.4735    1.4594 H   0  0  0  0  0  0  0  0  0  0  0  0
    7.6208   -2.5644    0.9319 H   0  0  0  0  0  0  0  0  0  0  0  0
    6.6568   -0.4043    0.2319 H   0  0  0  0  0  0  0  0  0  0  0  0
    4.3152   -0.1340   -2.1387 H   0  0  0  0  0  0  0  0  0  0  0  0
    2.6794   -0.2418   -1.4851 H   0  0  0  0  0  0  0  0  0  0  0  0
    4.3554    2.2751   -1.9432 H   0  0  0  0  0  0  0  0  0  0  0  0
    2.9221    1.8197   -2.8181 H   0  0  0  0  0  0  0  0  0  0  0  0
   -1.5929    0.3790    0.3960 H   0  0  0  0  0  0  0  0  0  0  0  0
   -2.4031   -1.6242    1.5188 H   0  0  0  0  0  0  0  0  0  0  0  0
   -7.4159   -0.0115    0.1036 H   0  0  0  0  0  0  0  0  0  0  0  0
  1  2  2  0
  2  3  1  0
  3  4  1  0
  4  5  1  0
  5  6  2  0
  6  7  1  0
  7  8  2  0
  8  9  1  0
  9 10  1  0
 10 11  1  0
 11 12  1  0
 12 13  1  0
 13 14  1  0
 14 15  1  0
 15 16  1  0
 16 17  1  0
 17 18  1  0
 18 19  1  0
 19 20  1  0
 19 21  2  0
 21 22  1  0
 21 23  1  0
 23 24  2  0
 24 25  1  0
 17 26  1  0
 26 27  1  0
  8 28  1  0
 28 29  2  0
  6 30  1  0
 30  2  1  0
 29  5  1  0
 27 14  1  0
 25 18  2  0
  3 31  1  0
  3 32  1  0
  4 33  1  0
  4 34  1  0
  7 35  1  0
 10 36  1  0
 10 37  1  0
 11 38  1  0
 11 39  1  0
 12 40  1  0
 12 41  1  0
 13 42  1  0
 13 43  1  0
 15 44  1  0
 15 45  1  0
 16 46  1  0
 16 47  1  0
 23 48  1  0
 24 49  1  0
 25 50  1  0
 26 51  1  0
 26 52  1  0
 27 53  1  0
 27 54  1  0
 28 55  1  0
 29 56  1  0
 30 57  1  0
M  END
$$$$
OCNT-0022137
     RDKit          3D

 57 61  0  0  0  0  0  0  0  0999 V2000
   -3.6084   -2.5054    1.7643 C   0  0  0  0  0  0  0  0  0  0  0  0
   -3.8926   -1.3708    0.8124 C   0  0  0  0  0  0  0  0  0  0  0  0
   -2.9810   -0.8896   -0.0548 C   0  0  0  0  0  0  0  0  0  0  0  0
   -1.5867   -1.4217   -0.2791 C   0  0  0  0  0  0  0  0  0  0  0  0
   -0.5307   -0.5701    0.4472 C   0  0  0  0  0  0  0  0  0  0  0  0
    0.8162   -1.1823    0.4340 N   0  0  0  0  0  0  0  0  0  0  0  0
    1.6875   -0.4714    1.3854 C   0  0  0  0  0  0  0  0  0  0  0  0
    3.0534   -1.1495    1.4841 C   0  0  0  0  0  0  0  0  0  0  0  0
    3.7501   -1.2849    0.1258 C   0  0  0  0  0  0  0  0  0  0  0  0
    4.4694   -0.0264   -0.2816 C   0  0  0  0  0  0  0  0  0  0  0  0
    3.8049    1.0370   -0.7559 N   0  0  0  0  0  0  0  0  0  0  0  0
    4.7607    2.0001   -1.0229 O   0  0  0  0  0  0  0  0  0  0  0  0
    5.9909    1.5215   -0.7050 C   0  0  0  0  0  0  0  0  0  0  0  0
    5.8682    0.2294   -0.2227 C   0  0  0  0  0  0  0  0  0  0  0  0
    7.0299   -0.4587    0.1735 C   0  0  0  0  0  0  0  0  0  0  0  0
    8.2624    0.2000    0.0580 C   0  0  0  0  0  0  0  0  0  0  0  0
    8.3294    1.5022   -0.4368 C   0  0  0  0  0  0  0  0  0  0  0  0
    9.5262    2.0970   -0.5321 F   0  0  0  0  0  0  0  0  0  0  0  0
    7.1946    2.2053   -0.8343 C   0  0  0  0  0  0  0  0  0  0  0  0
    2.7815   -1.8173   -0.9380 C   0  0  0  0  0  0  0  0  0  0  0  0
    1.4096   -1.1381   -0.9139 C   0  0  0  0  0  0  0  0  0  0  0  0
   -3.3879    0.2579   -0.9138 C   0  0  0  0  0  0  0  0  0  0  0  0
   -2.6186    0.7063   -1.7610 O   0  0  0  0  0  0  0  0  0  0  0  0
   -4.6498    0.7564   -0.6862 N   0  0  0  0  0  0  0  0  0  0  0  0
   -5.1583    1.8555   -1.4907 C   0  0  0  0  0  0  0  0  0  0  0  0
   -5.8838    2.8842   -0.6271 C   0  0  0  0  0  0  0  0  0  0  0  0
   -6.8019    2.2514    0.4237 C   0  0  0  0  0  0  0  0  0  0  0  0
   -6.8809    0.7342    0.3132 C   0  0  0  0  0  0  0  0  0  0  0  0
   -5.4912    0.1475    0.2124 C   0  0  0  0  0  0  0  0  0  0  0  0
   -5.1652   -0.8687    0.9388 N   0  0  0  0  0  0  0  0  0  0  0  0
   -4.0433   -3.4346    1.3823 H   0  0  0  0  0  0  0  0  0  0  0  0
   -4.0529   -2.2982    2.7446 H   0  0  0  0  0  0  0  0  0  0  0  0
   -2.5412   -2.6644    1.9391 H   0  0  0  0  0  0  0  0  0  0  0  0
   -1.5124   -2.4640    0.0519 H   0  0  0  0  0  0  0  0  0  0  0  0
   -1.3857   -1.4555   -1.3565 H   0  0  0  0  0  0  0  0  0  0  0  0
   -0.8554   -0.4689    1.4919 H   0  0  0  0  0  0  0  0  0  0  0  0
   -0.4992    0.4450    0.0298 H   0  0  0  0  0  0  0  0  0  0  0  0
    1.7976    0.5853    1.1119 H   0  0  0  0  0  0  0  0  0  0  0  0
    1.2370   -0.4953    2.3857 H   0  0  0  0  0  0  0  0  0  0  0  0
    2.9112   -2.1540    1.9057 H   0  0  0  0  0  0  0  0  0  0  0  0
    3.6850   -0.6022    2.1946 H   0  0  0  0  0  0  0  0  0  0  0  0
    4.5287   -2.0521    0.2439 H   0  0  0  0  0  0  0  0  0  0  0  0
    6.9826   -1.4725    0.5595 H   0  0  0  0  0  0  0  0  0  0  0  0
    9.1800   -0.3015    0.3544 H   0  0  0  0  0  0  0  0  0  0  0  0
    7.2486    3.2152   -1.2169 H   0  0  0  0  0  0  0  0  0  0  0  0
    3.2177   -1.7299   -1.9409 H   0  0  0  0  0  0  0  0  0  0  0  0
    2.6313   -2.8913   -0.7593 H   0  0  0  0  0  0  0  0  0  0  0  0
    0.7767   -1.6815   -1.6239 H   0  0  0  0  0  0  0  0  0  0  0  0
    1.4799   -0.1075   -1.2808 H   0  0  0  0  0  0  0  0  0  0  0  0
   -5.8539    1.4277   -2.2232 H   0  0  0  0  0  0  0  0  0  0  0  0
   -4.3546    2.3425   -2.0523 H   0  0  0  0  0  0  0  0  0  0  0  0
   -5.1425    3.5057   -0.1089 H   0  0  0  0  0  0  0  0  0  0  0  0
   -6.4566    3.5629   -1.2696 H   0  0  0  0  0  0  0  0  0  0  0  0
   -6.4255    2.5173    1.4200 H   0  0  0  0  0  0  0  0  0  0  0  0
   -7.8068    2.6827    0.3508 H   0  0  0  0  0  0  0  0  0  0  0  0
   -7.3981    0.3190    1.1848 H   0  0  0  0  0  0  0  0  0  0  0  0
   -7.4461    0.4392   -0.5785 H   0  0  0  0  0  0  0  0  0  0  0  0
  1  2  1  0
  2  3  2  0
  3  4  1  0
  4  5  1  0
  5  6  1  0
  6  7  1  0
  7  8  1  0
  8  9  1  0
  9 10  1  0
 10 11  2  0
 11 12  1  0
 12 13  1  0
 13 14  1  0
 14 15  2  0
 15 16  1  0
 16 17  2  0
 17 18  1  0
 17 19  1  0
  9 20  1  0
 20 21  1  0
  3 22  1  0
 22 23  2  0
 22 24  1  0
 24 25  1  0
 25 26  1  0
 26 27  1  0
 27 28  1  0
 28 29  1  0
 29 30  2  0
 30  2  1  0
 21  6  1  0
 29 24  1  0
 14 10  1  0
 19 13  2  0
  1 31  1  0
  1 32  1  0
  1 33  1  0
  4 34  1  0
  4 35  1  0
  5 36  1  0
  5 37  1  0
  7 38  1  0
  7 39  1  0
  8 40  1  0
  8 41  1  0
  9 42  1  0
 15 43  1  0
 16 44  1  0
 19 45  1  0
 20 46  1  0
 20 47  1  0
 21 48  1  0
 21 49  1  0
 25 50  1  0
 25 51  1  0
 26 52  1  0
 26 53  1  0
 27 54  1  0
 27 55  1  0
 28 56  1  0
 28 57  1  0
M  END
$$$$
OCNT-0022139
     RDKit          3D

 41 44  0  0  0  0  0  0  0  0999 V2000
    5.1424    1.0435   -0.0480 C   0  0  0  0  0  0  0  0  0  0  0  0
    3.8325    1.6567    0.1503 N   0  0  0  0  0  0  0  0  0  0  0  0
    3.1944    1.1414    1.3824 C   0  0  0  0  0  0  0  0  0  0  0  0
    1.6533    1.1729    1.3420 C   0  0  0  0  0  0  0  0  0  0  0  0
    1.1444    0.3031    0.2600 N   0  0  0  0  0  0  0  0  0  0  0  0
   -0.2292    0.0445    0.1916 C   0  0  0  0  0  0  0  0  0  0  0  0
   -1.0328    0.7633    0.9280 N   0  0  0  0  0  0  0  0  0  0  0  0
   -2.4278    0.6232    0.9340 C   0  0  0  0  0  0  0  0  0  0  0  0
   -3.0887    0.8254    2.1505 C   0  0  0  0  0  0  0  0  0  0  0  0
   -4.4842    0.7947    2.2296 C   0  0  0  0  0  0  0  0  0  0  0  0
   -5.2424    0.5782    1.0810 C   0  0  0  0  0  0  0  0  0  0  0  0
   -4.6041    0.3849   -0.1424 C   0  0  0  0  0  0  0  0  0  0  0  0
   -3.2068    0.3946   -0.2076 C   0  0  0  0  0  0  0  0  0  0  0  0
   -2.6406    0.1878   -1.4449 O   0  0  0  0  0  0  0  0  0  0  0  0
   -1.8453   -0.9296   -1.4846 C   0  0  0  0  0  0  0  0  0  0  0  0
   -2.2171   -1.9425   -2.3733 C   0  0  0  0  0  0  0  0  0  0  0  0
   -1.4666   -3.1168   -2.4421 C   0  0  0  0  0  0  0  0  0  0  0  0
   -0.3479   -3.2703   -1.6242 C   0  0  0  0  0  0  0  0  0  0  0  0
    0.5721   -4.7220   -1.7018 Cl  0  0  0  0  0  0  0  0  0  0  0  0
    0.0385   -2.2544   -0.7523 C   0  0  0  0  0  0  0  0  0  0  0  0
   -0.7014   -1.0657   -0.6966 C   0  0  0  0  0  0  0  0  0  0  0  0
    1.9921    0.2731   -0.9513 C   0  0  0  0  0  0  0  0  0  0  0  0
    2.9527    1.4806   -1.0225 C   0  0  0  0  0  0  0  0  0  0  0  0
    5.6551    1.5014   -0.9011 H   0  0  0  0  0  0  0  0  0  0  0  0
    5.7809    1.2087    0.8270 H   0  0  0  0  0  0  0  0  0  0  0  0
    5.0725   -0.0353   -0.2273 H   0  0  0  0  0  0  0  0  0  0  0  0
    3.4997    0.1019    1.5666 H   0  0  0  0  0  0  0  0  0  0  0  0
    3.5470    1.7371    2.2320 H   0  0  0  0  0  0  0  0  0  0  0  0
    1.2745    0.8161    2.3072 H   0  0  0  0  0  0  0  0  0  0  0  0
    1.2991    2.2015    1.1993 H   0  0  0  0  0  0  0  0  0  0  0  0
   -2.5019    1.0231    3.0441 H   0  0  0  0  0  0  0  0  0  0  0  0
   -4.9747    0.9550    3.1861 H   0  0  0  0  0  0  0  0  0  0  0  0
   -6.3276    0.5656    1.1383 H   0  0  0  0  0  0  0  0  0  0  0  0
   -5.1892    0.2202   -1.0423 H   0  0  0  0  0  0  0  0  0  0  0  0
   -3.0987   -1.8214   -2.9974 H   0  0  0  0  0  0  0  0  0  0  0  0
   -1.7634   -3.9079   -3.1258 H   0  0  0  0  0  0  0  0  0  0  0  0
    0.9088   -2.3832   -0.1145 H   0  0  0  0  0  0  0  0  0  0  0  0
    1.3744    0.2823   -1.8569 H   0  0  0  0  0  0  0  0  0  0  0  0
    2.5728   -0.6565   -0.9532 H   0  0  0  0  0  0  0  0  0  0  0  0
    3.5372    1.4328   -1.9498 H   0  0  0  0  0  0  0  0  0  0  0  0
    2.3459    2.3919   -1.1086 H   0  0  0  0  0  0  0  0  0  0  0  0
  1  2  1  0
  2  3  1  0
  3  4  1  0
  4  5  1  0
  5  6  1  0
  6  7  2  0
  7  8  1  0
  8  9  2  0
  9 10  1  0
 10 11  2  0
 11 12  1  0
 12 13  2  0
 13 14  1  0
 14 15  1  0
 15 16  1  0
 16 17  2  0
 17 18  1  0
 18 19  1  0
 18 20  2  0
 20 21  1  0
  5 22  1  0
 22 23  1  0
 23  2  1  0
 21  6  1  0
 13  8  1  0
 21 15  2  0
  1 24  1  0
  1 25  1  0
  1 26  1  0
  3 27  1  0
  3 28  1  0
  4 29  1  0
  4 30  1  0
  9 31  1  0
 10 32  1  0
 11 33  1  0
 12 34  1  0
 16 35  1  0
 17 36  1  0
 20 37  1  0
 22 38  1  0
 22 39  1  0
 23 40  1  0
 23 41  1  0
M  END
$$$$
OCNT-0022141
     RDKit          3D

 51 54  0  0  0  0  0  0  0  0999 V2000
    2.0137    4.0526    3.1080 C   0  0  0  0  0  0  0  0  0  0  0  0
    1.8800    2.3808    3.7958 S   0  0  0  0  0  0  0  0  0  0  0  0
    2.3534    1.4022    2.3792 C   0  0  0  0  0  0  0  0  0  0  0  0
    3.4962    1.6783    1.6341 C   0  0  0  0  0  0  0  0  0  0  0  0
    3.8337    0.8666    0.5503 C   0  0  0  0  0  0  0  0  0  0  0  0
    3.0319   -0.2289    0.1930 C   0  0  0  0  0  0  0  0  0  0  0  0
    3.5382   -1.1604   -1.2371 S   0  0  0  0  0  0  0  0  0  0  0  0
    2.5574   -2.6381   -1.0733 C   0  0  0  0  0  0  0  0  0  0  0  0
    1.4383   -2.7194   -0.2241 C   0  0  0  0  0  0  0  0  0  0  0  0
    0.7502   -3.9481   -0.1693 C   0  0  0  0  0  0  0  0  0  0  0  0
    1.1269   -5.0387   -0.9582 C   0  0  0  0  0  0  0  0  0  0  0  0
    2.2140   -4.9307   -1.8143 C   0  0  0  0  0  0  0  0  0  0  0  0
    2.9282   -3.7363   -1.8685 C   0  0  0  0  0  0  0  0  0  0  0  0
    1.0347   -1.6346    0.6032 N   0  0  0  0  0  0  0  0  0  0  0  0
   -0.4149   -1.2981    0.5085 C   0  0  0  0  0  0  0  0  0  0  0  0
   -0.7206   -0.4703   -0.7516 C   0  0  0  0  0  0  0  0  0  0  0  0
   -2.2305   -0.1870   -0.9201 C   0  0  0  0  0  0  0  0  0  0  0  0
   -2.5068    0.5553   -2.2434 C   0  0  0  0  0  0  0  0  0  0  0  0
   -2.0860    2.0210   -2.1954 C   0  0  0  0  0  0  0  0  0  0  0  0
   -2.6781    2.7128   -0.9736 C   0  0  0  0  0  0  0  0  0  0  0  0
   -2.3902    1.9323    0.3098 C   0  0  0  0  0  0  0  0  0  0  0  0
   -2.7841    0.5158    0.2558 N   0  0  0  0  0  0  0  0  0  0  0  0
   -4.2358    0.3558    0.3602 C   0  0  0  0  0  0  0  0  0  0  0  0
    1.8676   -0.5237    0.9246 C   0  0  0  0  0  0  0  0  0  0  0  0
    1.5664    0.2959    2.0335 C   0  0  0  0  0  0  0  0  0  0  0  0
    1.4616    4.1307    2.1669 H   0  0  0  0  0  0  0  0  0  0  0  0
    1.5858    4.7650    3.8193 H   0  0  0  0  0  0  0  0  0  0  0  0
    3.0614    4.3220    2.9461 H   0  0  0  0  0  0  0  0  0  0  0  0
    4.1522    2.5037    1.8947 H   0  0  0  0  0  0  0  0  0  0  0  0
    4.7343    1.0950   -0.0170 H   0  0  0  0  0  0  0  0  0  0  0  0
   -0.0735   -4.0860    0.5262 H   0  0  0  0  0  0  0  0  0  0  0  0
    0.5764   -5.9737   -0.8879 H   0  0  0  0  0  0  0  0  0  0  0  0
    2.5147   -5.7744   -2.4294 H   0  0  0  0  0  0  0  0  0  0  0  0
    3.7853   -3.6662   -2.5347 H   0  0  0  0  0  0  0  0  0  0  0  0
   -1.0360   -2.2011    0.4987 H   0  0  0  0  0  0  0  0  0  0  0  0
   -0.7470   -0.7638    1.4039 H   0  0  0  0  0  0  0  0  0  0  0  0
   -0.3695   -1.0171   -1.6364 H   0  0  0  0  0  0  0  0  0  0  0  0
   -0.1488    0.4635   -0.7315 H   0  0  0  0  0  0  0  0  0  0  0  0
   -2.7093   -1.1740   -0.9957 H   0  0  0  0  0  0  0  0  0  0  0  0
   -1.9940    0.0540   -3.0730 H   0  0  0  0  0  0  0  0  0  0  0  0
   -3.5787    0.5034   -2.4724 H   0  0  0  0  0  0  0  0  0  0  0  0
   -0.9926    2.0967   -2.1682 H   0  0  0  0  0  0  0  0  0  0  0  0
   -2.4140    2.5333   -3.1069 H   0  0  0  0  0  0  0  0  0  0  0  0
   -2.2629    3.7236   -0.8897 H   0  0  0  0  0  0  0  0  0  0  0  0
   -3.7603    2.8291   -1.1076 H   0  0  0  0  0  0  0  0  0  0  0  0
   -2.8795    2.4292    1.1571 H   0  0  0  0  0  0  0  0  0  0  0  0
   -1.3170    1.9934    0.5308 H   0  0  0  0  0  0  0  0  0  0  0  0
   -4.7813    0.8027   -0.4769 H   0  0  0  0  0  0  0  0  0  0  0  0
   -4.5003   -0.7069    0.4110 H   0  0  0  0  0  0  0  0  0  0  0  0
   -4.6046    0.8077    1.2877 H   0  0  0  0  0  0  0  0  0  0  0  0
    0.7138    0.0549    2.6633 H   0  0  0  0  0  0  0  0  0  0  0  0
  1  2  1  0
  2  3  1  0
  3  4  1  0
  4  5  2  0
  5  6  1  0
  6  7  1  0
  7  8  1  0
  8  9  1  0
  9 10  2  0
 10 11  1  0
 11 12  2  0
 12 13  1  0
  9 14  1  0
 14 15  1  0
 15 16  1  0
 16 17  1  0
 17 18  1  0
 18 19  1  0
 19 20  1  0
 20 21  1  0
 21 22  1  0
 22 23  1  0
 14 24  1  0
 24 25  1  0
 25  3  2  0
 24  6  2  0
 13  8  2  0
 22 17  1  0
  1 26  1  0
  1 27  1  0
  1 28  1  0
  4 29  1  0
  5 30  1  0
 10 31  1  0
 11 32  1  0
 12 33  1  0
 13 34  1  0
 15 35  1  0
 15 36  1  0
 16 37  1  0
 16 38  1  0
 17 39  1  0
 18 40  1  0
 18 41  1  0
 19 42  1  0
 19 43  1  0
 20 44  1  0
 20 45  1  0
 21 46  1  0
 21 47  1  0
 23 48  1  0
 23 49  1  0
 23 50  1  0
 25 51  1  0
M  END
$$$$
OCNT-0022142
     RDKit          3D

 44 46  0  0  0  0  0  0  0  0999 V2000
    3.6932    2.5421    1.3024 C   0  0  0  0  0  0  0  0  0  0  0  0
    3.6645    1.9237   -0.0869 C   0  0  0  0  0  0  0  0  0  0  0  0
    3.2486    0.4847   -0.0620 C   0  0  0  0  0  0  0  0  0  0  0  0
    4.0908   -0.6216   -0.0370 C   0  0  0  0  0  0  0  0  0  0  0  0
    5.5753   -0.7033   -0.0271 C   0  0  0  0  0  0  0  0  0  0  0  0
    3.3119   -1.7543   -0.0265 N   0  0  0  0  0  0  0  0  0  0  0  0
    1.9953   -1.3952   -0.0402 C   0  0  0  0  0  0  0  0  0  0  0  0
    1.9123   -0.0176   -0.0543 C   0  0  0  0  0  0  0  0  0  0  0  0
    0.6153    0.6585   -0.0643 C   0  0  0  0  0  0  0  0  0  0  0  0
    0.5199    1.8833   -0.1097 O   0  0  0  0  0  0  0  0  0  0  0  0
   -0.6218   -0.2537    0.0658 C   0  0  0  0  0  0  0  0  0  0  0  0
   -1.8439    0.4671   -0.5371 C   0  0  0  0  0  0  0  0  0  0  0  0
   -3.1029   -0.2991   -0.4491 N   0  0  0  0  0  0  0  0  0  0  0  0
   -4.1891    0.3542   -1.2167 C   0  0  0  0  0  0  0  0  0  0  0  0
   -5.1469    1.1806   -0.3443 C   0  0  0  0  0  0  0  0  0  0  0  0
   -5.8024    0.4006    0.6653 O   0  0  0  0  0  0  0  0  0  0  0  0
   -5.0360   -0.7382    1.0802 C   0  0  0  0  0  0  0  0  0  0  0  0
   -3.5218   -0.5092    0.9567 C   0  0  0  0  0  0  0  0  0  0  0  0
   -0.3827   -1.6302   -0.6047 C   0  0  0  0  0  0  0  0  0  0  0  0
    0.8549   -2.3456   -0.0419 C   0  0  0  0  0  0  0  0  0  0  0  0
    4.0053    3.5896    1.2449 H   0  0  0  0  0  0  0  0  0  0  0  0
    4.3956    2.0132    1.9556 H   0  0  0  0  0  0  0  0  0  0  0  0
    2.7059    2.5072    1.7747 H   0  0  0  0  0  0  0  0  0  0  0  0
    4.6599    2.0129   -0.5385 H   0  0  0  0  0  0  0  0  0  0  0  0
    2.9882    2.4965   -0.7314 H   0  0  0  0  0  0  0  0  0  0  0  0
    5.9894   -0.0522    0.7493 H   0  0  0  0  0  0  0  0  0  0  0  0
    5.9778   -0.3872   -0.9946 H   0  0  0  0  0  0  0  0  0  0  0  0
    5.9220   -1.7230    0.1696 H   0  0  0  0  0  0  0  0  0  0  0  0
    3.6637   -2.7035   -0.0141 H   0  0  0  0  0  0  0  0  0  0  0  0
   -0.7724   -0.4030    1.1431 H   0  0  0  0  0  0  0  0  0  0  0  0
   -1.9750    1.4508   -0.0665 H   0  0  0  0  0  0  0  0  0  0  0  0
   -1.6213    0.6620   -1.5954 H   0  0  0  0  0  0  0  0  0  0  0  0
   -4.7655   -0.4488   -1.6936 H   0  0  0  0  0  0  0  0  0  0  0  0
   -3.7958    0.9715   -2.0329 H   0  0  0  0  0  0  0  0  0  0  0  0
   -5.9276    1.6303   -0.9662 H   0  0  0  0  0  0  0  0  0  0  0  0
   -4.6129    2.0003    0.1502 H   0  0  0  0  0  0  0  0  0  0  0  0
   -5.3519   -1.6025    0.4843 H   0  0  0  0  0  0  0  0  0  0  0  0
   -5.3007   -0.9482    2.1215 H   0  0  0  0  0  0  0  0  0  0  0  0
   -2.9921   -1.3770    1.3641 H   0  0  0  0  0  0  0  0  0  0  0  0
   -3.2617    0.3651    1.5678 H   0  0  0  0  0  0  0  0  0  0  0  0
   -0.2509   -1.4863   -1.6860 H   0  0  0  0  0  0  0  0  0  0  0  0
   -1.2525   -2.2835   -0.4727 H   0  0  0  0  0  0  0  0  0  0  0  0
    1.0801   -3.2298   -0.6479 H   0  0  0  0  0  0  0  0  0  0  0  0
    0.6578   -2.6810    0.9829 H   0  0  0  0  0  0  0  0  0  0  0  0
  1  2  1  0
  2  3  1  0
  3  4  2  0
  4  5  1  0
  4  6  1  0
  6  7  1  0
  7  8  2  0
  8  9  1  0
  9 10  2  0
  9 11  1  0
 11 12  1  0
 12 13  1  0
 13 14  1  0
 14 15  1  0
 15 16  1  0
 16 17  1  0
 17 18  1  0
 11 19  1  0
 19 20  1  0
  8  3  1  0
 18 13  1  0
 20  7  1  0
  1 21  1  0
  1 22  1  0
  1 23  1  0
  2 24  1  0
  2 25  1  0
  5 26  1  0
  5 27  1  0
  5 28  1  0
  6 29  1  0
 11 30  1  0
 12 31  1  0
 12 32  1  0
 14 33  1  0
 14 34  1  0
 15 35  1  0
 15 36  1  0
 17 37  1  0
 17 38  1  0
 18 39  1  0
 18 40  1  0
 19 41  1  0
 19 42  1  0
 20 43  1  0
 20 44  1  0
M  END
$$$$
OCNT-0022215
     RDKit          3D

 62 66  0  0  0  0  0  0  0  0999 V2000
   -1.4233   -1.2679   -2.6484 N   0  0  0  0  0  0  0  0  0  0  0  0
   -2.4880   -1.6274   -1.8553 C   0  0  0  0  0  0  0  0  0  0  0  0
   -3.1019   -2.6445   -2.1687 O   0  0  0  0  0  0  0  0  0  0  0  0
   -2.7849   -0.7027   -0.5924 C   0  0  0  0  0  0  0  0  0  0  0  0
   -2.8311    0.7642   -1.1308 C   0  0  0  0  0  0  0  0  0  0  0  0
   -3.6734    1.0513   -2.2323 C   0  0  0  0  0  0  0  0  0  0  0  0
   -3.7633    2.3359   -2.7717 C   0  0  0  0  0  0  0  0  0  0  0  0
   -3.0210    3.3721   -2.2195 C   0  0  0  0  0  0  0  0  0  0  0  0
   -2.1994    3.1228   -1.1252 C   0  0  0  0  0  0  0  0  0  0  0  0
   -2.1096    1.8353   -0.5837 C   0  0  0  0  0  0  0  0  0  0  0  0
   -4.1532   -1.0839    0.0870 C   0  0  0  0  0  0  0  0  0  0  0  0
   -4.4877   -2.4283    0.3481 C   0  0  0  0  0  0  0  0  0  0  0  0
   -5.6782   -2.7766    0.9935 C   0  0  0  0  0  0  0  0  0  0  0  0
   -6.5601   -1.7884    1.4141 C   0  0  0  0  0  0  0  0  0  0  0  0
   -6.2464   -0.4519    1.1974 C   0  0  0  0  0  0  0  0  0  0  0  0
   -5.0556   -0.1037    0.5511 C   0  0  0  0  0  0  0  0  0  0  0  0
   -1.6656   -1.0654    0.4602 C   0  0  2  0  0  0  0  0  0  0  0  0
   -1.7977   -0.4488    1.8652 C   0  0  0  0  0  0  0  0  0  0  0  0
   -0.3751   -0.1075    2.2931 C   0  0  0  0  0  0  0  0  0  0  0  0
    0.4763   -0.8692    1.3783 N   0  0  0  0  0  0  0  0  0  0  0  0
    1.8502   -0.3524    1.3501 C   0  0  0  0  0  0  0  0  0  0  0  0
    2.8041   -1.2391    0.5337 C   0  0  0  0  0  0  0  0  0  0  0  0
    4.2243   -0.7232    0.5883 C   0  0  0  0  0  0  0  0  0  0  0  0
    5.0875   -1.1400    1.6253 C   0  0  0  0  0  0  0  0  0  0  0  0
    6.3953   -0.6557    1.7091 C   0  0  0  0  0  0  0  0  0  0  0  0
    6.8162    0.2338    0.7444 C   0  0  0  0  0  0  0  0  0  0  0  0
    8.0659    0.7957    0.7032 O   0  0  0  0  0  0  0  0  0  0  0  0
    8.1182    1.4094   -0.6059 C   0  0  0  0  0  0  0  0  0  0  0  0
    6.6930    1.6577   -1.1023 C   0  0  0  0  0  0  0  0  0  0  0  0
    5.9812    0.6582   -0.2762 C   0  0  0  0  0  0  0  0  0  0  0  0
    4.6792    0.1985   -0.3688 C   0  0  0  0  0  0  0  0  0  0  0  0
   -0.2009   -0.8305    0.0773 C   0  0  0  0  0  0  0  0  0  0  0  0
   -1.3375   -1.8120   -3.4988 H   0  0  0  0  0  0  0  0  0  0  0  0
   -1.1623   -0.2920   -2.7209 H   0  0  0  0  0  0  0  0  0  0  0  0
   -4.2867    0.2648   -2.6749 H   0  0  0  0  0  0  0  0  0  0  0  0
   -4.4213    2.5252   -3.6161 H   0  0  0  0  0  0  0  0  0  0  0  0
   -3.0920    4.3749   -2.6325 H   0  0  0  0  0  0  0  0  0  0  0  0
   -1.6294    3.9364   -0.6822 H   0  0  0  0  0  0  0  0  0  0  0  0
   -1.4656    1.7132    0.2788 H   0  0  0  0  0  0  0  0  0  0  0  0
   -3.8220   -3.2370    0.0507 H   0  0  0  0  0  0  0  0  0  0  0  0
   -5.9106   -3.8243    1.1666 H   0  0  0  0  0  0  0  0  0  0  0  0
   -7.4851   -2.0592    1.9151 H   0  0  0  0  0  0  0  0  0  0  0  0
   -6.9255    0.3267    1.5351 H   0  0  0  0  0  0  0  0  0  0  0  0
   -4.8501    0.9573    0.4296 H   0  0  0  0  0  0  0  0  0  0  0  0
   -1.7354   -2.1551    0.6202 H   0  0  0  0  0  0  0  0  0  0  0  0
   -2.4313    0.4416    1.8995 H   0  0  0  0  0  0  0  0  0  0  0  0
   -2.2363   -1.1845    2.5505 H   0  0  0  0  0  0  0  0  0  0  0  0
   -0.2115    0.9725    2.1917 H   0  0  0  0  0  0  0  0  0  0  0  0
   -0.1952   -0.3828    3.3372 H   0  0  0  0  0  0  0  0  0  0  0  0
    2.2251   -0.3048    2.3813 H   0  0  0  0  0  0  0  0  0  0  0  0
    1.8706    0.6756    0.9636 H   0  0  0  0  0  0  0  0  0  0  0  0
    2.7784   -2.2704    0.9088 H   0  0  0  0  0  0  0  0  0  0  0  0
    2.4886   -1.2897   -0.5157 H   0  0  0  0  0  0  0  0  0  0  0  0
    4.7361   -1.8456    2.3758 H   0  0  0  0  0  0  0  0  0  0  0  0
    7.0614   -0.9708    2.5040 H   0  0  0  0  0  0  0  0  0  0  0  0
    8.6918    2.3402   -0.5467 H   0  0  0  0  0  0  0  0  0  0  0  0
    8.6553    0.7243   -1.2746 H   0  0  0  0  0  0  0  0  0  0  0  0
    6.3566    2.6680   -0.8492 H   0  0  0  0  0  0  0  0  0  0  0  0
    6.6019    1.4894   -2.1779 H   0  0  0  0  0  0  0  0  0  0  0  0
    4.0264    0.5481   -1.1620 H   0  0  0  0  0  0  0  0  0  0  0  0
   -0.0387    0.1244   -0.4294 H   0  0  0  0  0  0  0  0  0  0  0  0
    0.1691   -1.6345   -0.5663 H   0  0  0  0  0  0  0  0  0  0  0  0
  1  2  1  0
  2  3  2  0
  2  4  1  0
  4  5  1  0
  5  6  2  0
  6  7  1  0
  7  8  2  0
  8  9  1  0
  9 10  2  0
  4 11  1  0
 11 12  2  0
 12 13  1  0
 13 14  2  0
 14 15  1  0
 15 16  2  0
  4 17  1  0
 17 18  1  0
 18 19  1  0
 19 20  1  0
 20 21  1  0
 21 22  1  0
 22 23  1  0
 23 24  1  0
 24 25  2  0
 25 26  1  0
 26 27  1  0
 27 28  1  0
 28 29  1  0
 29 30  1  0
 30 31  1  0
 20 32  1  0
 10  5  1  0
 16 11  1  0
 32 17  1  0
 31 23  2  0
 30 26  2  0
  1 33  1  0
  1 34  1  0
  6 35  1  0
  7 36  1  0
  8 37  1  0
  9 38  1  0
 10 39  1  0
 12 40  1  0
 13 41  1  0
 14 42  1  0
 15 43  1  0
 16 44  1  0
 17 45  1  1
 18 46  1  0
 18 47  1  0
 19 48  1  0
 19 49  1  0
 21 50  1  0
 21 51  1  0
 22 52  1  0
 22 53  1  0
 24 54  1  0
 25 55  1  0
 28 56  1  0
 28 57  1  0
 29 58  1  0
 29 59  1  0
 31 60  1  0
 32 61  1  0
 32 62  1  0
M  END
$$$$
OCNT-0022237
     RDKit          3D

 43 47  0  0  0  0  0  0  0  0999 V2000
   -6.0468   -0.4788    2.1631 C   0  0  0  0  0  0  0  0  0  0  0  0
   -5.2973   -0.3244    0.9630 O   0  0  0  0  0  0  0  0  0  0  0  0
   -3.9370   -0.2193    1.0530 C   0  0  0  0  0  0  0  0  0  0  0  0
   -3.2433   -0.2101    2.2663 C   0  0  0  0  0  0  0  0  0  0  0  0
   -1.8470   -0.1594    2.2940 C   0  0  0  0  0  0  0  0  0  0  0  0
   -1.1085   -0.1274    1.1060 C   0  0  0  0  0  0  0  0  0  0  0  0
    0.2894   -0.0972    1.1194 C   0  0  0  0  0  0  0  0  0  0  0  0
    1.0195   -0.0726   -0.0777 C   0  0  0  0  0  0  0  0  0  0  0  0
    2.4951   -0.0612   -0.1528 C   0  0  0  0  0  0  0  0  0  0  0  0
    3.1464   -0.5057   -1.3389 C   0  0  0  0  0  0  0  0  0  0  0  0
    4.5469   -0.5651   -1.4332 C   0  0  0  0  0  0  0  0  0  0  0  0
    5.2801   -0.1457   -0.3484 C   0  0  0  0  0  0  0  0  0  0  0  0
    6.6347   -0.1209   -0.2639 O   0  0  0  0  0  0  0  0  0  0  0  0
    6.8188    0.4025    1.0696 C   0  0  0  0  0  0  0  0  0  0  0  0
    5.5711    0.6846    1.7428 O   0  0  0  0  0  0  0  0  0  0  0  0
    4.6739    0.3112    0.7927 C   0  0  0  0  0  0  0  0  0  0  0  0
    3.2996    0.3665    0.9217 C   0  0  0  0  0  0  0  0  0  0  0  0
    2.2956   -0.9424   -2.4991 C   0  0  0  0  0  0  0  0  0  0  0  0
    1.0665   -0.0533   -2.5578 C   0  0  0  0  0  0  0  0  0  0  0  0
    0.3423   -0.0977   -1.2601 N   0  0  0  0  0  0  0  0  0  0  0  0
   -1.0115   -0.1124   -1.2881 C   0  0  0  0  0  0  0  0  0  0  0  0
   -1.7845   -0.1295   -0.1226 C   0  0  0  0  0  0  0  0  0  0  0  0
   -3.2037   -0.1467   -0.1478 C   0  0  0  0  0  0  0  0  0  0  0  0
   -3.7458   -0.1466   -1.4151 O   0  0  0  0  0  0  0  0  0  0  0  0
   -4.9975    0.5182   -1.5816 C   0  0  0  0  0  0  0  0  0  0  0  0
   -5.7568   -1.3904    2.6955 H   0  0  0  0  0  0  0  0  0  0  0  0
   -5.9498    0.4043    2.8029 H   0  0  0  0  0  0  0  0  0  0  0  0
   -7.1013   -0.5754    1.8871 H   0  0  0  0  0  0  0  0  0  0  0  0
   -3.7612   -0.2514    3.2209 H   0  0  0  0  0  0  0  0  0  0  0  0
   -1.3491   -0.1580    3.2636 H   0  0  0  0  0  0  0  0  0  0  0  0
    0.8085   -0.1139    2.0761 H   0  0  0  0  0  0  0  0  0  0  0  0
    5.0531   -0.9214   -2.3257 H   0  0  0  0  0  0  0  0  0  0  0  0
    7.4011    1.3288    1.0067 H   0  0  0  0  0  0  0  0  0  0  0  0
    7.3796   -0.3302    1.6612 H   0  0  0  0  0  0  0  0  0  0  0  0
    2.8879    0.7454    1.8521 H   0  0  0  0  0  0  0  0  0  0  0  0
    2.0119   -1.9918   -2.3573 H   0  0  0  0  0  0  0  0  0  0  0  0
    2.8476   -0.8604   -3.4419 H   0  0  0  0  0  0  0  0  0  0  0  0
    1.3170    1.0005   -2.7309 H   0  0  0  0  0  0  0  0  0  0  0  0
    0.3970   -0.3953   -3.3537 H   0  0  0  0  0  0  0  0  0  0  0  0
   -1.4776   -0.1092   -2.2706 H   0  0  0  0  0  0  0  0  0  0  0  0
   -5.8249   -0.1736   -1.3998 H   0  0  0  0  0  0  0  0  0  0  0  0
   -5.0629    0.8341   -2.6276 H   0  0  0  0  0  0  0  0  0  0  0  0
   -5.0772    1.4186   -0.9629 H   0  0  0  0  0  0  0  0  0  0  0  0
  1  2  1  0
  2  3  1  0
  3  4  2  0
  4  5  1  0
  5  6  2  0
  6  7  1  0
  7  8  2  0
  8  9  1  0
  9 10  2  0
 10 11  1  0
 11 12  2  0
 12 13  1  0
 13 14  1  0
 14 15  1  0
 15 16  1  0
 16 17  2  0
 10 18  1  0
 18 19  1  0
 19 20  1  0
 20 21  2  0
 21 22  1  0
 22 23  2  0
 23 24  1  0
 24 25  1  0
 23  3  1  0
 22  6  1  0
 20  8  1  0
 17  9  1  0
 16 12  1  0
  1 26  1  0
  1 27  1  0
  1 28  1  0
  4 29  1  0
  5 30  1  0
  7 31  1  0
 11 32  1  0
 14 33  1  0
 14 34  1  0
 17 35  1  0
 18 36  1  0
 18 37  1  0
 19 38  1  0
 19 39  1  0
 21 40  1  0
 25 41  1  0
 25 42  1  0
 25 43  1  0
M  CHG  1  20   1
M  END
$$$$
OCNT-0022246
     RDKit          3D

 52 55  0  0  0  0  0  0  0  0999 V2000
    6.4782   -0.3970   -0.5834 C   0  0  0  0  0  0  0  0  0  0  0  0
    5.1465   -0.9893   -0.5077 N   0  0  0  0  0  0  0  0  0  0  0  0
    4.4191   -0.4925    0.6751 C   0  0  0  0  0  0  0  0  0  0  0  0
    2.8901   -0.6977    0.5731 C   0  0  0  0  0  0  0  0  0  0  0  0
    2.2558   -0.0487   -0.5968 N   0  0  0  0  0  0  0  0  0  0  0  0
    1.4583    1.1315   -0.2474 C   0  0  0  0  0  0  0  0  0  0  0  0
    0.1350    0.7816    0.4438 C   0  0  0  0  0  0  0  0  0  0  0  0
   -0.7706   -0.0886   -0.4420 C   0  0  0  0  0  0  0  0  0  0  0  0
   -2.0782   -0.3468    0.2122 N   0  0  0  0  0  0  0  0  0  0  0  0
   -2.1817   -1.5319    1.0010 C   0  0  0  0  0  0  0  0  0  0  0  0
   -1.0461   -2.2692    1.4106 C   0  0  0  0  0  0  0  0  0  0  0  0
   -1.1365   -3.4264    2.1942 C   0  0  0  0  0  0  0  0  0  0  0  0
   -2.3747   -3.8898    2.6028 C   0  0  0  0  0  0  0  0  0  0  0  0
   -3.5149   -3.1910    2.2254 C   0  0  0  0  0  0  0  0  0  0  0  0
   -3.4282   -2.0248    1.4377 C   0  0  0  0  0  0  0  0  0  0  0  0
   -4.9834   -1.2733    1.0230 S   0  0  0  0  0  0  0  0  0  0  0  0
   -4.4786    0.2547    0.2722 C   0  0  0  0  0  0  0  0  0  0  0  0
   -3.1444    0.5571   -0.0644 C   0  0  0  0  0  0  0  0  0  0  0  0
   -2.9270    1.8179   -0.6688 C   0  0  0  0  0  0  0  0  0  0  0  0
   -3.9630    2.7365   -0.9352 C   0  0  0  0  0  0  0  0  0  0  0  0
   -3.6569    4.0554   -1.6001 C   0  0  0  0  0  0  0  0  0  0  0  0
   -3.6135    3.9529   -2.9567 F   0  0  0  0  0  0  0  0  0  0  0  0
   -2.4513    4.5704   -1.2268 F   0  0  0  0  0  0  0  0  0  0  0  0
   -4.5743    5.0240   -1.3257 F   0  0  0  0  0  0  0  0  0  0  0  0
   -5.2695    2.3898   -0.6032 C   0  0  0  0  0  0  0  0  0  0  0  0
   -5.5215    1.1614   -0.0019 C   0  0  0  0  0  0  0  0  0  0  0  0
    3.2608    0.2839   -1.6290 C   0  0  0  0  0  0  0  0  0  0  0  0
    4.3741   -0.7802   -1.7479 C   0  0  0  0  0  0  0  0  0  0  0  0
    7.0523   -0.8465   -1.4012 H   0  0  0  0  0  0  0  0  0  0  0  0
    7.0395   -0.5913    0.3373 H   0  0  0  0  0  0  0  0  0  0  0  0
    6.4398    0.6865   -0.7434 H   0  0  0  0  0  0  0  0  0  0  0  0
    4.6102    0.5780    0.8325 H   0  0  0  0  0  0  0  0  0  0  0  0
    4.7898   -1.0184    1.5628 H   0  0  0  0  0  0  0  0  0  0  0  0
    2.6892   -1.7741    0.4955 H   0  0  0  0  0  0  0  0  0  0  0  0
    2.4331   -0.3789    1.5166 H   0  0  0  0  0  0  0  0  0  0  0  0
    2.0373    1.8159    0.3859 H   0  0  0  0  0  0  0  0  0  0  0  0
    1.2082    1.6893   -1.1599 H   0  0  0  0  0  0  0  0  0  0  0  0
    0.3198    0.2925    1.4056 H   0  0  0  0  0  0  0  0  0  0  0  0
   -0.3738    1.7196    0.6951 H   0  0  0  0  0  0  0  0  0  0  0  0
   -0.9095    0.3816   -1.4240 H   0  0  0  0  0  0  0  0  0  0  0  0
   -0.2758   -1.0300   -0.7104 H   0  0  0  0  0  0  0  0  0  0  0  0
   -0.0404   -1.9618    1.1427 H   0  0  0  0  0  0  0  0  0  0  0  0
   -0.2326   -3.9576    2.4813 H   0  0  0  0  0  0  0  0  0  0  0  0
   -2.4563   -4.7870    3.2096 H   0  0  0  0  0  0  0  0  0  0  0  0
   -4.4853   -3.5631    2.5483 H   0  0  0  0  0  0  0  0  0  0  0  0
   -1.9250    2.1395   -0.9401 H   0  0  0  0  0  0  0  0  0  0  0  0
   -6.0956    3.0695   -0.8047 H   0  0  0  0  0  0  0  0  0  0  0  0
   -6.5488    0.9069    0.2549 H   0  0  0  0  0  0  0  0  0  0  0  0
    3.7289    1.2555   -1.4189 H   0  0  0  0  0  0  0  0  0  0  0  0
    2.7531    0.3728   -2.5968 H   0  0  0  0  0  0  0  0  0  0  0  0
    3.9095   -1.7395   -2.0110 H   0  0  0  0  0  0  0  0  0  0  0  0
    5.0287   -0.5289   -2.5919 H   0  0  0  0  0  0  0  0  0  0  0  0
  1  2  1  0
  2  3  1  0
  3  4  1  0
  4  5  1  0
  5  6  1  0
  6  7  1  0
  7  8  1  0
  8  9  1  0
  9 10  1  0
 10 11  2  0
 11 12  1  0
 12 13  2  0
 13 14  1  0
 14 15  2  0
 15 16  1  0
 16 17  1  0
 17 18  2  0
 18 19  1  0
 19 20  2  0
 20 21  1  0
 21 22  1  0
 21 23  1  0
 21 24  1  0
 20 25  1  0
 25 26  2  0
  5 27  1  0
 27 28  1  0
 28  2  1  0
 18  9  1  0
 15 10  1  0
 26 17  1  0
  1 29  1  0
  1 30  1  0
  1 31  1  0
  3 32  1  0
  3 33  1  0
  4 34  1  0
  4 35  1  0
  6 36  1  0
  6 37  1  0
  7 38  1  0
  7 39  1  0
  8 40  1  0
  8 41  1  0
 11 42  1  0
 12 43  1  0
 13 44  1  0
 14 45  1  0
 19 46  1  0
 25 47  1  0
 26 48  1  0
 27 49  1  0
 27 50  1  0
 28 51  1  0
 28 52  1  0
M  END
$$$$
OCNT-0022254
     RDKit          3D

 43 45  0  0  0  0  0  0  0  0999 V2000
    4.5455   -0.7979    1.1133 C   0  0  0  0  0  0  0  0  0  0  0  0
    3.1007   -0.8395    0.8662 N   0  0  0  0  0  0  0  0  0  0  0  0
    2.5476   -2.0806    1.4171 C   0  0  0  0  0  0  0  0  0  0  0  0
    2.4571    0.3528    1.4430 C   0  0  0  0  0  0  0  0  0  0  0  0
    0.9867    0.5289    1.0442 C   0  0  0  0  0  0  0  0  0  0  0  0
    0.8007    0.6047   -0.4787 C   0  0  0  0  0  0  0  0  0  0  0  0
   -0.6285    0.8105   -0.8496 N   0  0  0  0  0  0  0  0  0  0  0  0
   -1.0881    2.1458   -0.6732 C   0  0  0  0  0  0  0  0  0  0  0  0
   -2.2748    2.4435    0.0225 C   0  0  0  0  0  0  0  0  0  0  0  0
   -2.6996    3.7756    0.1655 C   0  0  0  0  0  0  0  0  0  0  0  0
   -1.9713    4.8214   -0.3968 C   0  0  0  0  0  0  0  0  0  0  0  0
   -0.8160    4.5427   -1.1140 C   0  0  0  0  0  0  0  0  0  0  0  0
   -0.3854    3.2207   -1.2546 C   0  0  0  0  0  0  0  0  0  0  0  0
   -3.2790    1.1917    0.7955 S   0  0  0  0  0  0  0  0  0  0  0  0
   -2.6682   -0.2913    0.0220 C   0  0  0  0  0  0  0  0  0  0  0  0
   -3.4465   -1.4508    0.1714 C   0  0  0  0  0  0  0  0  0  0  0  0
   -3.0373   -2.6635   -0.3816 C   0  0  0  0  0  0  0  0  0  0  0  0
   -1.8475   -2.7348   -1.1093 C   0  0  0  0  0  0  0  0  0  0  0  0
   -1.3881   -4.0403   -1.7078 C   0  0  0  0  0  0  0  0  0  0  0  0
   -0.6504   -4.7760   -0.8308 F   0  0  0  0  0  0  0  0  0  0  0  0
   -0.6069   -3.8838   -2.8127 F   0  0  0  0  0  0  0  0  0  0  0  0
   -2.4190   -4.8430   -2.0934 F   0  0  0  0  0  0  0  0  0  0  0  0
   -1.0677   -1.5733   -1.2455 C   0  0  0  0  0  0  0  0  0  0  0  0
   -1.4461   -0.3410   -0.6727 C   0  0  0  0  0  0  0  0  0  0  0  0
    4.7825   -0.7996    2.1838 H   0  0  0  0  0  0  0  0  0  0  0  0
    5.0414   -1.6568    0.6472 H   0  0  0  0  0  0  0  0  0  0  0  0
    4.9871    0.0980    0.6626 H   0  0  0  0  0  0  0  0  0  0  0  0
    2.6492   -2.1294    2.5077 H   0  0  0  0  0  0  0  0  0  0  0  0
    1.4901   -2.1938    1.1591 H   0  0  0  0  0  0  0  0  0  0  0  0
    3.0572   -2.9505    0.9873 H   0  0  0  0  0  0  0  0  0  0  0  0
    2.9934    1.2484    1.1027 H   0  0  0  0  0  0  0  0  0  0  0  0
    2.5331    0.3409    2.5382 H   0  0  0  0  0  0  0  0  0  0  0  0
    0.3794   -0.2776    1.4696 H   0  0  0  0  0  0  0  0  0  0  0  0
    0.6180    1.4532    1.5070 H   0  0  0  0  0  0  0  0  0  0  0  0
    1.1959   -0.2997   -0.9519 H   0  0  0  0  0  0  0  0  0  0  0  0
    1.4355    1.4040   -0.8769 H   0  0  0  0  0  0  0  0  0  0  0  0
   -3.6088    4.0046    0.7171 H   0  0  0  0  0  0  0  0  0  0  0  0
   -2.3138    5.8465   -0.2849 H   0  0  0  0  0  0  0  0  0  0  0  0
   -0.2536    5.3490   -1.5775 H   0  0  0  0  0  0  0  0  0  0  0  0
    0.4960    3.0361   -1.8632 H   0  0  0  0  0  0  0  0  0  0  0  0
   -4.3825   -1.4145    0.7254 H   0  0  0  0  0  0  0  0  0  0  0  0
   -3.6586   -3.5480   -0.2500 H   0  0  0  0  0  0  0  0  0  0  0  0
   -0.1593   -1.6332   -1.8432 H   0  0  0  0  0  0  0  0  0  0  0  0
  1  2  1  0
  2  3  1  0
  2  4  1  0
  4  5  1  0
  5  6  1  0
  6  7  1  0
  7  8  1  0
  8  9  1  0
  9 10  2  0
 10 11  1  0
 11 12  2  0
 12 13  1  0
  9 14  1  0
 14 15  1  0
 15 16  1  0
 16 17  2  0
 17 18  1  0
 18 19  1  0
 19 20  1  0
 19 21  1  0
 19 22  1  0
 18 23  2  0
 23 24  1  0
 24  7  1  0
 13  8  2  0
 24 15  2  0
  1 25  1  0
  1 26  1  0
  1 27  1  0
  3 28  1  0
  3 29  1  0
  3 30  1  0
  4 31  1  0
  4 32  1  0
  5 33  1  0
  5 34  1  0
  6 35  1  0
  6 36  1  0
 10 37  1  0
 11 38  1  0
 12 39  1  0
 13 40  1  0
 16 41  1  0
 17 42  1  0
 23 43  1  0
M  END
$$$$
OCNT-0022266
     RDKit          3D

 40 42  0  0  0  0  0  0  0  0999 V2000
   -1.5705   -1.3515   -0.9232 C   0  0  0  0  0  0  0  0  0  0  0  0
   -1.6471   -0.1465    0.0254 C   0  0  0  0  0  0  0  0  0  0  0  0
   -0.4923   -0.1490    1.0831 C   0  0  0  0  0  0  0  0  0  0  0  0
    0.8439    0.1441    0.4920 N   0  0  0  0  0  0  0  0  0  0  0  0
    1.1450    1.5265    0.2608 C   0  0  0  0  0  0  0  0  0  0  0  0
    0.2193    2.5650    0.5309 C   0  0  0  0  0  0  0  0  0  0  0  0
    0.5039    3.9189    0.3078 C   0  0  0  0  0  0  0  0  0  0  0  0
    1.7348    4.2920   -0.1983 C   0  0  0  0  0  0  0  0  0  0  0  0
    2.6715    3.3061   -0.4785 C   0  0  0  0  0  0  0  0  0  0  0  0
    2.3891    1.9411   -0.2556 C   0  0  0  0  0  0  0  0  0  0  0  0
    3.7093    0.8344   -0.6736 S   0  0  0  0  0  0  0  0  0  0  0  0
    3.0300   -0.7521   -0.2629 C   0  0  0  0  0  0  0  0  0  0  0  0
    3.9015   -1.8383   -0.4958 C   0  0  0  0  0  0  0  0  0  0  0  0
    3.5132   -3.1438   -0.2302 C   0  0  0  0  0  0  0  0  0  0  0  0
    2.2452   -3.3725    0.2690 C   0  0  0  0  0  0  0  0  0  0  0  0
    1.3773   -2.2960    0.5020 C   0  0  0  0  0  0  0  0  0  0  0  0
    1.7310   -0.9487    0.2517 C   0  0  0  0  0  0  0  0  0  0  0  0
   -2.9649    0.0148    0.7000 N   0  0  0  0  0  0  0  0  0  0  0  0
   -3.4341   -1.1779    1.4031 C   0  0  0  0  0  0  0  0  0  0  0  0
   -3.9976    0.5044   -0.2147 C   0  0  0  0  0  0  0  0  0  0  0  0
   -1.6156   -2.3026   -0.3840 H   0  0  0  0  0  0  0  0  0  0  0  0
   -0.6394   -1.3324   -1.4984 H   0  0  0  0  0  0  0  0  0  0  0  0
   -2.3851   -1.3401   -1.6541 H   0  0  0  0  0  0  0  0  0  0  0  0
   -1.5033    0.7406   -0.6035 H   0  0  0  0  0  0  0  0  0  0  0  0
   -0.7054    0.5805    1.8762 H   0  0  0  0  0  0  0  0  0  0  0  0
   -0.5072   -1.0779    1.6585 H   0  0  0  0  0  0  0  0  0  0  0  0
   -0.7734    2.3654    0.9228 H   0  0  0  0  0  0  0  0  0  0  0  0
   -0.2459    4.6732    0.5332 H   0  0  0  0  0  0  0  0  0  0  0  0
    1.9672    5.3380   -0.3750 H   0  0  0  0  0  0  0  0  0  0  0  0
    3.6388    3.6069   -0.8772 H   0  0  0  0  0  0  0  0  0  0  0  0
    4.9004   -1.6637   -0.8918 H   0  0  0  0  0  0  0  0  0  0  0  0
    4.1943   -3.9692   -0.4145 H   0  0  0  0  0  0  0  0  0  0  0  0
    1.9176   -4.3874    0.4801 H   0  0  0  0  0  0  0  0  0  0  0  0
    0.4030   -2.5785    0.8812 H   0  0  0  0  0  0  0  0  0  0  0  0
   -2.6927   -1.5365    2.1235 H   0  0  0  0  0  0  0  0  0  0  0  0
   -4.3336   -0.9433    1.9840 H   0  0  0  0  0  0  0  0  0  0  0  0
   -3.6825   -1.9986    0.7216 H   0  0  0  0  0  0  0  0  0  0  0  0
   -4.2523   -0.2227   -0.9927 H   0  0  0  0  0  0  0  0  0  0  0  0
   -3.6801    1.4347   -0.6986 H   0  0  0  0  0  0  0  0  0  0  0  0
   -4.9134    0.7425    0.3382 H   0  0  0  0  0  0  0  0  0  0  0  0
  1  2  1  0
  2  3  1  0
  3  4  1  0
  4  5  1  0
  5  6  2  0
  6  7  1  0
  7  8  2  0
  8  9  1  0
  9 10  2  0
 10 11  1  0
 11 12  1  0
 12 13  2  0
 13 14  1  0
 14 15  2  0
 15 16  1  0
 16 17  2  0
  2 18  1  0
 18 19  1  0
 18 20  1  0
 17  4  1  0
 10  5  1  0
 17 12  1  0
  1 21  1  0
  1 22  1  0
  1 23  1  0
  2 24  1  0
  3 25  1  0
  3 26  1  0
  6 27  1  0
  7 28  1  0
  8 29  1  0
  9 30  1  0
 13 31  1  0
 14 32  1  0
 15 33  1  0
 16 34  1  0
 19 35  1  0
 19 36  1  0
 19 37  1  0
 20 38  1  0
 20 39  1  0
 20 40  1  0
M  END
$$$$
OCNT-0022267
     RDKit          3D

 40 42  0  0  0  0  0  0  0  0999 V2000
    3.6274   -1.5966    0.4495 C   0  0  0  0  0  0  0  0  0  0  0  0
    3.3778   -0.3590   -0.2957 N   0  0  0  0  0  0  0  0  0  0  0  0
    4.6464    0.1537   -0.8240 C   0  0  0  0  0  0  0  0  0  0  0  0
    2.7315    0.6623    0.5442 C   0  0  0  0  0  0  0  0  0  0  0  0
    1.2614    0.3649    0.8630 C   0  0  0  0  0  0  0  0  0  0  0  0
    0.4028    0.2520   -0.4063 C   0  0  0  0  0  0  0  0  0  0  0  0
   -1.0419    0.1660   -0.0760 N   0  0  0  0  0  0  0  0  0  0  0  0
   -1.6017   -1.1375    0.0680 C   0  0  0  0  0  0  0  0  0  0  0  0
   -0.7991   -2.2933    0.2067 C   0  0  0  0  0  0  0  0  0  0  0  0
   -1.3382   -3.5767    0.3614 C   0  0  0  0  0  0  0  0  0  0  0  0
   -2.7105   -3.7518    0.3864 C   0  0  0  0  0  0  0  0  0  0  0  0
   -3.5344   -2.6404    0.2578 C   0  0  0  0  0  0  0  0  0  0  0  0
   -2.9955   -1.3466    0.1035 C   0  0  0  0  0  0  0  0  0  0  0  0
   -4.1914   -0.0452   -0.0751 S   0  0  0  0  0  0  0  0  0  0  0  0
   -3.1808    1.4133    0.0083 C   0  0  0  0  0  0  0  0  0  0  0  0
   -3.8883    2.6310    0.0758 C   0  0  0  0  0  0  0  0  0  0  0  0
   -3.2208    3.8485    0.1284 C   0  0  0  0  0  0  0  0  0  0  0  0
   -1.8372    3.8571    0.1149 C   0  0  0  0  0  0  0  0  0  0  0  0
   -1.1304    2.6498    0.0458 C   0  0  0  0  0  0  0  0  0  0  0  0
   -1.7715    1.3903   -0.0165 C   0  0  0  0  0  0  0  0  0  0  0  0
    4.2683   -1.4312    1.3232 H   0  0  0  0  0  0  0  0  0  0  0  0
    2.6929   -2.0530    0.7882 H   0  0  0  0  0  0  0  0  0  0  0  0
    4.1115   -2.3397   -0.1945 H   0  0  0  0  0  0  0  0  0  0  0  0
    5.3522    0.4123   -0.0262 H   0  0  0  0  0  0  0  0  0  0  0  0
    4.4756    1.0453   -1.4377 H   0  0  0  0  0  0  0  0  0  0  0  0
    5.1193   -0.5873   -1.4783 H   0  0  0  0  0  0  0  0  0  0  0  0
    2.7568    1.6294    0.0241 H   0  0  0  0  0  0  0  0  0  0  0  0
    3.2865    0.8022    1.4811 H   0  0  0  0  0  0  0  0  0  0  0  0
    0.8857    1.1735    1.5012 H   0  0  0  0  0  0  0  0  0  0  0  0
    1.1757   -0.5403    1.4728 H   0  0  0  0  0  0  0  0  0  0  0  0
    0.5983    1.0973   -1.0786 H   0  0  0  0  0  0  0  0  0  0  0  0
    0.7189   -0.6021   -1.0178 H   0  0  0  0  0  0  0  0  0  0  0  0
    0.2838   -2.2348    0.2114 H   0  0  0  0  0  0  0  0  0  0  0  0
   -0.6766   -4.4330    0.4640 H   0  0  0  0  0  0  0  0  0  0  0  0
   -3.1396   -4.7424    0.5049 H   0  0  0  0  0  0  0  0  0  0  0  0
   -4.6129   -2.7855    0.2759 H   0  0  0  0  0  0  0  0  0  0  0  0
   -4.9767    2.6318    0.0865 H   0  0  0  0  0  0  0  0  0  0  0  0
   -3.7792    4.7786    0.1812 H   0  0  0  0  0  0  0  0  0  0  0  0
   -1.2972    4.7993    0.1618 H   0  0  0  0  0  0  0  0  0  0  0  0
   -0.0493    2.7374    0.0589 H   0  0  0  0  0  0  0  0  0  0  0  0
  1  2  1  0
  2  3  1  0
  2  4  1  0
  4  5  1  0
  5  6  1  0
  6  7  1  0
  7  8  1  0
  8  9  2  0
  9 10  1  0
 10 11  2  0
 11 12  1  0
 12 13  2  0
 13 14  1  0
 14 15  1  0
 15 16  2  0
 16 17  1  0
 17 18  2  0
 18 19  1  0
 19 20  2  0
 20  7  1  0
 13  8  1  0
 20 15  1  0
  1 21  1  0
  1 22  1  0
  1 23  1  0
  3 24  1  0
  3 25  1  0
  3 26  1  0
  4 27  1  0
  4 28  1  0
  5 29  1  0
  5 30  1  0
  6 31  1  0
  6 32  1  0
  9 33  1  0
 10 34  1  0
 11 35  1  0
 12 36  1  0
 16 37  1  0
 17 38  1  0
 18 39  1  0
 19 40  1  0
M  END
$$$$
OCNT-0022268
     RDKit          3D

 49 52  0  0  0  0  0  0  0  0999 V2000
    5.8094    1.1044    0.2964 C   0  0  0  0  0  0  0  0  0  0  0  0
    4.4657    0.7955    0.7649 N   0  0  0  0  0  0  0  0  0  0  0  0
    3.4317    1.4038   -0.0946 C   0  0  0  0  0  0  0  0  0  0  0  0
    2.0704    0.6541   -0.1329 C   0  0  0  0  0  0  0  0  0  0  0  0
    1.7784   -0.0426    1.1123 N   0  0  0  0  0  0  0  0  0  0  0  0
    0.4204   -0.5563    1.2765 C   0  0  0  0  0  0  0  0  0  0  0  0
   -0.0591   -1.6508    0.3086 C   0  0  0  0  0  0  0  0  0  0  0  0
   -0.7211   -1.1570   -0.9887 C   0  0  0  0  0  0  0  0  0  0  0  0
   -2.0037   -0.4411   -0.7720 N   0  0  0  0  0  0  0  0  0  0  0  0
   -1.9795    0.9695   -0.9264 C   0  0  0  0  0  0  0  0  0  0  0  0
   -1.2870    1.5723   -1.9961 C   0  0  0  0  0  0  0  0  0  0  0  0
   -1.2588    2.9595   -2.1690 C   0  0  0  0  0  0  0  0  0  0  0  0
   -1.9401    3.7818   -1.2827 C   0  0  0  0  0  0  0  0  0  0  0  0
   -2.6641    3.2131   -0.2382 C   0  0  0  0  0  0  0  0  0  0  0  0
   -2.7017    1.8192   -0.0652 C   0  0  0  0  0  0  0  0  0  0  0  0
   -3.6655    1.2014    1.3010 S   0  0  0  0  0  0  0  0  0  0  0  0
   -3.8736   -0.5074    0.8388 C   0  0  0  0  0  0  0  0  0  0  0  0
   -4.8946   -1.2205    1.4902 C   0  0  0  0  0  0  0  0  0  0  0  0
   -5.1091   -2.5682    1.2118 C   0  0  0  0  0  0  0  0  0  0  0  0
   -4.3034   -3.2040    0.2778 C   0  0  0  0  0  0  0  0  0  0  0  0
   -4.5673   -4.8653   -0.0868 Cl  0  0  0  0  0  0  0  0  0  0  0  0
   -3.2829   -2.5064   -0.3718 C   0  0  0  0  0  0  0  0  0  0  0  0
   -3.0331   -1.1472   -0.0961 C   0  0  0  0  0  0  0  0  0  0  0  0
    2.8459   -0.9731    1.5047 C   0  0  0  0  0  0  0  0  0  0  0  0
    4.2446   -0.6461    0.9140 C   0  0  0  0  0  0  0  0  0  0  0  0
    6.5591    0.7212    0.9974 H   0  0  0  0  0  0  0  0  0  0  0  0
    5.9569    2.1885    0.2382 H   0  0  0  0  0  0  0  0  0  0  0  0
    6.0119    0.6744   -0.6911 H   0  0  0  0  0  0  0  0  0  0  0  0
    3.2609    2.4232    0.2727 H   0  0  0  0  0  0  0  0  0  0  0  0
    3.7820    1.4919   -1.1315 H   0  0  0  0  0  0  0  0  0  0  0  0
    1.2877    1.3869   -0.3570 H   0  0  0  0  0  0  0  0  0  0  0  0
    2.1012   -0.0646   -0.9609 H   0  0  0  0  0  0  0  0  0  0  0  0
   -0.2771    0.2872    1.2765 H   0  0  0  0  0  0  0  0  0  0  0  0
    0.3499   -0.9632    2.2945 H   0  0  0  0  0  0  0  0  0  0  0  0
    0.7769   -2.3043    0.0341 H   0  0  0  0  0  0  0  0  0  0  0  0
   -0.7549   -2.2979    0.8554 H   0  0  0  0  0  0  0  0  0  0  0  0
   -0.8951   -2.0163   -1.6476 H   0  0  0  0  0  0  0  0  0  0  0  0
    0.0073   -0.5559   -1.5364 H   0  0  0  0  0  0  0  0  0  0  0  0
   -0.7847    0.9642   -2.7433 H   0  0  0  0  0  0  0  0  0  0  0  0
   -0.7145    3.3919   -3.0045 H   0  0  0  0  0  0  0  0  0  0  0  0
   -1.9227    4.8608   -1.4100 H   0  0  0  0  0  0  0  0  0  0  0  0
   -3.2068    3.8653    0.4427 H   0  0  0  0  0  0  0  0  0  0  0  0
   -5.5300   -0.7252    2.2217 H   0  0  0  0  0  0  0  0  0  0  0  0
   -5.9035   -3.1071    1.7204 H   0  0  0  0  0  0  0  0  0  0  0  0
   -2.6993   -3.0339   -1.1194 H   0  0  0  0  0  0  0  0  0  0  0  0
    2.9172   -0.9489    2.5991 H   0  0  0  0  0  0  0  0  0  0  0  0
    2.6077   -2.0053    1.2248 H   0  0  0  0  0  0  0  0  0  0  0  0
    5.0039   -1.0808    1.5755 H   0  0  0  0  0  0  0  0  0  0  0  0
    4.3442   -1.1409   -0.0617 H   0  0  0  0  0  0  0  0  0  0  0  0
  1  2  1  0
  2  3  1  0
  3  4  1  0
  4  5  1  0
  5  6  1  0
  6  7  1  0
  7  8  1  0
  8  9  1  0
  9 10  1  0
 10 11  2  0
 11 12  1  0
 12 13  2  0
 13 14  1  0
 14 15  2  0
 15 16  1  0
 16 17  1  0
 17 18  1  0
 18 19  2  0
 19 20  1  0
 20 21  1  0
 20 22  2  0
 22 23  1  0
  5 24  1  0
 24 25  1  0
 25  2  1  0
 23  9  1  0
 15 10  1  0
 23 17  2  0
  1 26  1  0
  1 27  1  0
  1 28  1  0
  3 29  1  0
  3 30  1  0
  4 31  1  0
  4 32  1  0
  6 33  1  0
  6 34  1  0
  7 35  1  0
  7 36  1  0
  8 37  1  0
  8 38  1  0
 11 39  1  0
 12 40  1  0
 13 41  1  0
 14 42  1  0
 18 43  1  0
 19 44  1  0
 22 45  1  0
 24 46  1  0
 24 47  1  0
 25 48  1  0
 25 49  1  0
M  END
$$$$
OCNT-0022269
     RDKit          3D

 59 62  0  0  0  0  0  0  0  0999 V2000
   -4.0391    5.0363   -0.2218 C   0  0  0  0  0  0  0  0  0  0  0  0
   -3.3427    3.8133    0.3153 C   0  0  0  0  0  0  0  0  0  0  0  0
   -2.3301    3.9090    1.0057 O   0  0  0  0  0  0  0  0  0  0  0  0
   -3.9094    2.4661    0.0106 C   0  0  0  0  0  0  0  0  0  0  0  0
   -5.1738    2.3064   -0.5425 C   0  0  0  0  0  0  0  0  0  0  0  0
   -5.6456    1.0213   -0.7940 C   0  0  0  0  0  0  0  0  0  0  0  0
   -4.8681   -0.1157   -0.4966 C   0  0  0  0  0  0  0  0  0  0  0  0
   -5.6415   -1.6743   -0.8511 S   0  0  0  0  0  0  0  0  0  0  0  0
   -4.3092   -2.8234   -0.6050 C   0  0  0  0  0  0  0  0  0  0  0  0
   -3.0711   -2.4713   -0.0299 C   0  0  0  0  0  0  0  0  0  0  0  0
   -2.1295   -3.5182    0.1026 C   0  0  0  0  0  0  0  0  0  0  0  0
   -2.3991   -4.8337   -0.2956 C   0  0  0  0  0  0  0  0  0  0  0  0
   -3.6273   -5.1513   -0.8482 C   0  0  0  0  0  0  0  0  0  0  0  0
   -4.5773   -4.1492   -1.0022 C   0  0  0  0  0  0  0  0  0  0  0  0
   -2.7839   -1.1325    0.3695 N   0  0  0  0  0  0  0  0  0  0  0  0
   -1.6041   -0.9238    1.2429 C   0  0  0  0  0  0  0  0  0  0  0  0
   -0.3350   -0.6321    0.4283 C   0  0  0  0  0  0  0  0  0  0  0  0
    0.8625   -0.4237    1.3629 C   0  0  0  0  0  0  0  0  0  0  0  0
    2.0901   -0.0699    0.6389 N   0  0  0  0  0  0  0  0  0  0  0  0
    3.0667    0.5575    1.5463 C   0  0  0  0  0  0  0  0  0  0  0  0
    4.5220    0.4959    1.0552 C   0  0  0  0  0  0  0  0  0  0  0  0
    4.5996    0.5000   -0.4733 C   0  0  0  0  0  0  0  0  0  0  0  0
    6.0434    0.4540   -1.0107 C   0  0  0  0  0  0  0  0  0  0  0  0
    6.9075    1.6512   -0.6263 C   0  0  0  0  0  0  0  0  0  0  0  0
    6.3136    2.8523   -1.0929 O   0  0  0  0  0  0  0  0  0  0  0  0
    3.7849   -0.6843   -1.0360 C   0  0  0  0  0  0  0  0  0  0  0  0
    2.6885   -1.1879   -0.0872 C   0  0  0  0  0  0  0  0  0  0  0  0
   -3.5850    0.0090    0.0719 C   0  0  0  0  0  0  0  0  0  0  0  0
   -3.1351    1.3293    0.3070 C   0  0  0  0  0  0  0  0  0  0  0  0
   -4.9719    5.2055    0.3219 H   0  0  0  0  0  0  0  0  0  0  0  0
   -4.2266    4.9321   -1.2937 H   0  0  0  0  0  0  0  0  0  0  0  0
   -3.3914    5.9076   -0.0827 H   0  0  0  0  0  0  0  0  0  0  0  0
   -5.8128    3.1513   -0.7784 H   0  0  0  0  0  0  0  0  0  0  0  0
   -6.6394    0.9050   -1.2245 H   0  0  0  0  0  0  0  0  0  0  0  0
   -1.1379   -3.3444    0.5066 H   0  0  0  0  0  0  0  0  0  0  0  0
   -1.6402   -5.6027   -0.1751 H   0  0  0  0  0  0  0  0  0  0  0  0
   -3.8466   -6.1682   -1.1607 H   0  0  0  0  0  0  0  0  0  0  0  0
   -5.5409   -4.4065   -1.4380 H   0  0  0  0  0  0  0  0  0  0  0  0
   -1.7880   -0.1210    1.9686 H   0  0  0  0  0  0  0  0  0  0  0  0
   -1.4439   -1.7892    1.8990 H   0  0  0  0  0  0  0  0  0  0  0  0
   -0.1450   -1.4545   -0.2676 H   0  0  0  0  0  0  0  0  0  0  0  0
   -0.4740    0.2606   -0.1924 H   0  0  0  0  0  0  0  0  0  0  0  0
    0.6013    0.3969    2.0447 H   0  0  0  0  0  0  0  0  0  0  0  0
    1.0231   -1.3142    1.9842 H   0  0  0  0  0  0  0  0  0  0  0  0
    2.7803    1.6089    1.6724 H   0  0  0  0  0  0  0  0  0  0  0  0
    3.0354    0.0978    2.5431 H   0  0  0  0  0  0  0  0  0  0  0  0
    4.9978   -0.4157    1.4402 H   0  0  0  0  0  0  0  0  0  0  0  0
    5.0686    1.3431    1.4828 H   0  0  0  0  0  0  0  0  0  0  0  0
    4.1283    1.4258   -0.8314 H   0  0  0  0  0  0  0  0  0  0  0  0
    5.9947    0.4057   -2.1065 H   0  0  0  0  0  0  0  0  0  0  0  0
    6.5389   -0.4630   -0.6694 H   0  0  0  0  0  0  0  0  0  0  0  0
    7.8958    1.5557   -1.0877 H   0  0  0  0  0  0  0  0  0  0  0  0
    7.0437    1.7184    0.4567 H   0  0  0  0  0  0  0  0  0  0  0  0
    6.8956    3.5841   -0.8270 H   0  0  0  0  0  0  0  0  0  0  0  0
    4.4408   -1.5306   -1.2755 H   0  0  0  0  0  0  0  0  0  0  0  0
    3.3325   -0.3689   -1.9854 H   0  0  0  0  0  0  0  0  0  0  0  0
    1.9521   -1.7215   -0.6968 H   0  0  0  0  0  0  0  0  0  0  0  0
    3.1039   -1.9248    0.6131 H   0  0  0  0  0  0  0  0  0  0  0  0
   -2.1461    1.5165    0.7156 H   0  0  0  0  0  0  0  0  0  0  0  0
  1  2  1  0
  2  3  2  0
  2  4  1  0
  4  5  1  0
  5  6  2  0
  6  7  1  0
  7  8  1  0
  8  9  1  0
  9 10  1  0
 10 11  2  0
 11 12  1  0
 12 13  2  0
 13 14  1  0
 10 15  1  0
 15 16  1  0
 16 17  1  0
 17 18  1  0
 18 19  1  0
 19 20  1  0
 20 21  1  0
 21 22  1  0
 22 23  1  0
 23 24  1  0
 24 25  1  0
 22 26  1  0
 26 27  1  0
 15 28  1  0
 28 29  1  0
 29  4  2  0
 28  7  2  0
 14  9  2  0
 27 19  1  0
  1 30  1  0
  1 31  1  0
  1 32  1  0
  5 33  1  0
  6 34  1  0
 11 35  1  0
 12 36  1  0
 13 37  1  0
 14 38  1  0
 16 39  1  0
 16 40  1  0
 17 41  1  0
 17 42  1  0
 18 43  1  0
 18 44  1  0
 20 45  1  0
 20 46  1  0
 21 47  1  0
 21 48  1  0
 22 49  1  0
 23 50  1  0
 23 51  1  0
 24 52  1  0
 24 53  1  0
 25 54  1  0
 26 55  1  0
 26 56  1  0
 27 57  1  0
 27 58  1  0
 29 59  1  0
M  END
$$$$
OCNT-0022271
     RDKit          3D

 63 67  0  0  0  0  0  0  0  0999 V2000
    3.2865   -2.7933    0.9395 O   0  0  0  0  0  0  0  0  0  0  0  0
    4.3181   -2.1446    0.9015 C   0  0  0  0  0  0  0  0  0  0  0  0
    5.5664   -2.5950    1.3556 N   0  0  0  0  0  0  0  0  0  0  0  0
    6.5091   -1.5957    1.1603 C   0  0  0  0  0  0  0  0  0  0  0  0
    7.8522   -1.6071    1.4608 C   0  0  0  0  0  0  0  0  0  0  0  0
    8.5754   -0.4512    1.1558 C   0  0  0  0  0  0  0  0  0  0  0  0
    7.9431    0.6645    0.5687 C   0  0  0  0  0  0  0  0  0  0  0  0
    6.5736    0.6490    0.2733 C   0  0  0  0  0  0  0  0  0  0  0  0
    5.8724   -0.4984    0.5790 C   0  0  0  0  0  0  0  0  0  0  0  0
    4.5158   -0.8318    0.4136 N   0  0  0  0  0  0  0  0  0  0  0  0
    3.4933    0.0340   -0.1497 C   0  0  0  0  0  0  0  0  0  0  0  0
    2.8603   -0.5605   -1.4096 C   0  0  0  0  0  0  0  0  0  0  0  0
    1.7933    0.3801   -1.9671 C   0  0  0  0  0  0  0  0  0  0  0  0
    0.7597    0.6838   -0.9651 N   0  0  0  0  0  0  0  0  0  0  0  0
   -0.2896    1.5283   -1.5589 C   0  0  0  0  0  0  0  0  0  0  0  0
   -1.5583    1.6677   -0.7029 C   0  0  0  0  0  0  0  0  0  0  0  0
   -2.1863    0.3119   -0.3413 C   0  0  0  0  0  0  0  0  0  0  0  0
   -3.4899    0.4556    0.4841 C   0  0  0  0  0  0  0  0  0  0  0  0
   -4.6116    1.1067   -0.3237 C   0  0  0  0  0  0  0  0  0  0  0  0
   -5.1357    0.4928   -1.4750 C   0  0  0  0  0  0  0  0  0  0  0  0
   -6.1614    1.1015   -2.1998 C   0  0  0  0  0  0  0  0  0  0  0  0
   -6.6682    2.3231   -1.7764 C   0  0  0  0  0  0  0  0  0  0  0  0
   -7.6523    2.9065   -2.4728 F   0  0  0  0  0  0  0  0  0  0  0  0
   -6.1703    2.9483   -0.6406 C   0  0  0  0  0  0  0  0  0  0  0  0
   -5.1445    2.3418    0.0862 C   0  0  0  0  0  0  0  0  0  0  0  0
   -3.9633   -0.8417    1.1454 C   0  0  0  0  0  0  0  0  0  0  0  0
   -3.6639   -2.1142    0.6285 C   0  0  0  0  0  0  0  0  0  0  0  0
   -4.1321   -3.2689    1.2609 C   0  0  0  0  0  0  0  0  0  0  0  0
   -4.9063   -3.1591    2.4082 C   0  0  0  0  0  0  0  0  0  0  0  0
   -5.3550   -4.2674    3.0116 F   0  0  0  0  0  0  0  0  0  0  0  0
   -5.2246   -1.9157    2.9366 C   0  0  0  0  0  0  0  0  0  0  0  0
   -4.7570   -0.7612    2.3067 C   0  0  0  0  0  0  0  0  0  0  0  0
    1.3453    1.2862    0.2412 C   0  0  0  0  0  0  0  0  0  0  0  0
    2.4026    0.3760    0.8672 C   0  0  0  0  0  0  0  0  0  0  0  0
    5.7139   -3.5057    1.7571 H   0  0  0  0  0  0  0  0  0  0  0  0
    8.3311   -2.4672    1.9122 H   0  0  0  0  0  0  0  0  0  0  0  0
    9.6409   -0.4089    1.3734 H   0  0  0  0  0  0  0  0  0  0  0  0
    8.5313    1.5518    0.3421 H   0  0  0  0  0  0  0  0  0  0  0  0
    6.1046    1.5142   -0.1772 H   0  0  0  0  0  0  0  0  0  0  0  0
    3.9735    0.9755   -0.4418 H   0  0  0  0  0  0  0  0  0  0  0  0
    2.4069   -1.5361   -1.1957 H   0  0  0  0  0  0  0  0  0  0  0  0
    3.6312   -0.7345   -2.1700 H   0  0  0  0  0  0  0  0  0  0  0  0
    2.2661    1.3033   -2.3274 H   0  0  0  0  0  0  0  0  0  0  0  0
    1.3362   -0.1098   -2.8356 H   0  0  0  0  0  0  0  0  0  0  0  0
    0.1029    2.5281   -1.7855 H   0  0  0  0  0  0  0  0  0  0  0  0
   -0.6008    1.0918   -2.5172 H   0  0  0  0  0  0  0  0  0  0  0  0
   -1.3446    2.2347    0.2101 H   0  0  0  0  0  0  0  0  0  0  0  0
   -2.2763    2.2677   -1.2746 H   0  0  0  0  0  0  0  0  0  0  0  0
   -2.3640   -0.2548   -1.2636 H   0  0  0  0  0  0  0  0  0  0  0  0
   -1.4610   -0.2639    0.2479 H   0  0  0  0  0  0  0  0  0  0  0  0
   -3.2333    1.1285    1.3163 H   0  0  0  0  0  0  0  0  0  0  0  0
   -4.7531   -0.4685   -1.8105 H   0  0  0  0  0  0  0  0  0  0  0  0
   -6.5690    0.6285   -3.0871 H   0  0  0  0  0  0  0  0  0  0  0  0
   -6.5843    3.9011   -0.3274 H   0  0  0  0  0  0  0  0  0  0  0  0
   -4.7633    2.8394    0.9753 H   0  0  0  0  0  0  0  0  0  0  0  0
   -3.0638   -2.2281   -0.2706 H   0  0  0  0  0  0  0  0  0  0  0  0
   -3.8969   -4.2511    0.8636 H   0  0  0  0  0  0  0  0  0  0  0  0
   -5.8351   -1.8514    3.8314 H   0  0  0  0  0  0  0  0  0  0  0  0
   -5.0193    0.2089    2.7248 H   0  0  0  0  0  0  0  0  0  0  0  0
    0.5739    1.4534    1.0004 H   0  0  0  0  0  0  0  0  0  0  0  0
    1.7899    2.2627    0.0093 H   0  0  0  0  0  0  0  0  0  0  0  0
    2.8458    0.8738    1.7384 H   0  0  0  0  0  0  0  0  0  0  0  0
    1.9202   -0.5356    1.2413 H   0  0  0  0  0  0  0  0  0  0  0  0
  1  2  2  0
  2  3  1  0
  3  4  1  0
  4  5  2  0
  5  6  1  0
  6  7  2  0
  7  8  1  0
  8  9  2  0
  9 10  1  0
 10 11  1  0
 11 12  1  0
 12 13  1  0
 13 14  1  0
 14 15  1  0
 15 16  1  0
 16 17  1  0
 17 18  1  0
 18 19  1  0
 19 20  1  0
 20 21  2  0
 21 22  1  0
 22 23  1  0
 22 24  2  0
 24 25  1  0
 18 26  1  0
 26 27  1  0
 27 28  2  0
 28 29  1  0
 29 30  1  0
 29 31  2  0
 31 32  1  0
 14 33  1  0
 33 34  1  0
 10  2  1  0
 34 11  1  0
  9  4  1  0
 25 19  2  0
 32 26  2  0
  3 35  1  0
  5 36  1  0
  6 37  1  0
  7 38  1  0
  8 39  1  0
 11 40  1  0
 12 41  1  0
 12 42  1  0
 13 43  1  0
 13 44  1  0
 15 45  1  0
 15 46  1  0
 16 47  1  0
 16 48  1  0
 17 49  1  0
 17 50  1  0
 18 51  1  0
 20 52  1  0
 21 53  1  0
 24 54  1  0
 25 55  1  0
 27 56  1  0
 28 57  1  0
 31 58  1  0
 32 59  1  0
 33 60  1  0
 33 61  1  0
 34 62  1  0
 34 63  1  0
M  END
$$$$
OCNT-0022281
     RDKit          3D

 41 42  0  0  0  0  0  0  0  0999 V2000
   -4.6929    1.3923    1.3686 C   0  0  0  0  0  0  0  0  0  0  0  0
   -4.4008    0.5877    0.1022 C   0  0  0  0  0  0  0  0  0  0  0  0
   -3.4210    1.3244   -0.8253 C   0  0  0  0  0  0  0  0  0  0  0  0
   -1.9892    0.8132   -0.6562 C   0  0  0  0  0  0  0  0  0  0  0  0
   -1.8561   -0.6082   -0.9992 N   0  0  0  0  0  0  0  0  0  0  0  0
   -0.6279   -1.2294   -0.4861 C   0  0  0  0  0  0  0  0  0  0  0  0
    0.6829   -0.6228   -1.0129 C   0  0  0  0  0  0  0  0  0  0  0  0
    1.2597    0.4736   -0.1212 C   0  0  0  0  0  0  0  0  0  0  0  0
    2.5990    0.9465   -0.6508 C   0  0  0  0  0  0  0  0  0  0  0  0
    2.6592    1.8625   -1.4706 O   0  0  0  0  0  0  0  0  0  0  0  0
    3.8644    0.2978   -0.1849 C   0  0  0  0  0  0  0  0  0  0  0  0
    5.0841    0.8765   -0.5748 C   0  0  0  0  0  0  0  0  0  0  0  0
    6.2974    0.3150   -0.1710 C   0  0  0  0  0  0  0  0  0  0  0  0
    6.2918   -0.8263    0.6197 C   0  0  0  0  0  0  0  0  0  0  0  0
    7.4530   -1.3677    1.0084 F   0  0  0  0  0  0  0  0  0  0  0  0
    5.0960   -1.4169    1.0121 C   0  0  0  0  0  0  0  0  0  0  0  0
    3.8788   -0.8572    0.6099 C   0  0  0  0  0  0  0  0  0  0  0  0
   -3.0512   -1.4038   -0.6705 C   0  0  0  0  0  0  0  0  0  0  0  0
   -3.8829   -0.8121    0.4657 C   0  0  0  0  0  0  0  0  0  0  0  0
   -5.1341    2.3629    1.1185 H   0  0  0  0  0  0  0  0  0  0  0  0
   -5.4009    0.8592    2.0120 H   0  0  0  0  0  0  0  0  0  0  0  0
   -3.7797    1.5747    1.9451 H   0  0  0  0  0  0  0  0  0  0  0  0
   -5.3496    0.4791   -0.4398 H   0  0  0  0  0  0  0  0  0  0  0  0
   -3.7303    1.1716   -1.8681 H   0  0  0  0  0  0  0  0  0  0  0  0
   -3.4557    2.4068   -0.6544 H   0  0  0  0  0  0  0  0  0  0  0  0
   -1.3379    1.4024   -1.3109 H   0  0  0  0  0  0  0  0  0  0  0  0
   -1.6780    0.9961    0.3803 H   0  0  0  0  0  0  0  0  0  0  0  0
   -0.6235   -2.2764   -0.8179 H   0  0  0  0  0  0  0  0  0  0  0  0
   -0.6287   -1.2523    0.6111 H   0  0  0  0  0  0  0  0  0  0  0  0
    1.4195   -1.4331   -1.0910 H   0  0  0  0  0  0  0  0  0  0  0  0
    0.5525   -0.2530   -2.0380 H   0  0  0  0  0  0  0  0  0  0  0  0
    1.3536    0.1447    0.9183 H   0  0  0  0  0  0  0  0  0  0  0  0
    0.6078    1.3519   -0.0890 H   0  0  0  0  0  0  0  0  0  0  0  0
    5.0938    1.7706   -1.1969 H   0  0  0  0  0  0  0  0  0  0  0  0
    7.2411    0.7605   -0.4702 H   0  0  0  0  0  0  0  0  0  0  0  0
    5.1194   -2.3121    1.6265 H   0  0  0  0  0  0  0  0  0  0  0  0
    2.9640   -1.3497    0.9236 H   0  0  0  0  0  0  0  0  0  0  0  0
   -3.6745   -1.4580   -1.5725 H   0  0  0  0  0  0  0  0  0  0  0  0
   -2.7957   -2.4436   -0.4319 H   0  0  0  0  0  0  0  0  0  0  0  0
   -4.7334   -1.4686    0.6856 H   0  0  0  0  0  0  0  0  0  0  0  0
   -3.2739   -0.7788    1.3786 H   0  0  0  0  0  0  0  0  0  0  0  0
  1  2  1  0
  2  3  1  0
  3  4  1  0
  4  5  1  0
  5  6  1  0
  6  7  1  0
  7  8  1  0
  8  9  1  0
  9 10  2  0
  9 11  1  0
 11 12  1  0
 12 13  2  0
 13 14  1  0
 14 15  1  0
 14 16  2  0
 16 17  1  0
  5 18  1  0
 18 19  1  0
 19  2  1  0
 17 11  2  0
  1 20  1  0
  1 21  1  0
  1 22  1  0
  2 23  1  0
  3 24  1  0
  3 25  1  0
  4 26  1  0
  4 27  1  0
  6 28  1  0
  6 29  1  0
  7 30  1  0
  7 31  1  0
  8 32  1  0
  8 33  1  0
 12 34  1  0
 13 35  1  0
 16 36  1  0
 17 37  1  0
 18 38  1  0
 18 39  1  0
 19 40  1  0
 19 41  1  0
M  END
$$$$
OCNT-0022288
     RDKit          3D

 56 59  0  0  0  0  0  0  0  0999 V2000
    4.7628   -2.5755   -0.6942 O   0  0  0  0  0  0  0  0  0  0  0  0
    5.6748   -1.5090   -0.9511 C   0  0  0  0  0  0  0  0  0  0  0  0
    5.3653   -0.3224   -0.0251 C   0  0  0  0  0  0  0  0  0  0  0  0
    3.9363    0.0453   -0.0662 N   0  0  0  0  0  0  0  0  0  0  0  0
    3.5309    0.5939   -1.3796 C   0  0  0  0  0  0  0  0  0  0  0  0
    2.2514    1.4746   -1.3453 C   0  0  0  0  0  0  0  0  0  0  0  0
    1.3338    1.2173   -0.2209 N   0  0  0  0  0  0  0  0  0  0  0  0
    0.6834   -0.1032   -0.3075 C   0  0  0  0  0  0  0  0  0  0  0  0
   -0.4271   -0.1634   -1.3650 C   0  0  0  0  0  0  0  0  0  0  0  0
   -1.5597    0.8560   -1.1571 C   0  0  0  0  0  0  0  0  0  0  0  0
   -2.4233    0.5518    0.0167 N   0  0  0  0  0  0  0  0  0  0  0  0
   -2.0766    1.2102    1.2286 C   0  0  0  0  0  0  0  0  0  0  0  0
   -1.7552    2.5827    1.2433 C   0  0  0  0  0  0  0  0  0  0  0  0
   -1.4226    3.2530    2.4244 C   0  0  0  0  0  0  0  0  0  0  0  0
   -1.4186    2.5689    3.6317 C   0  0  0  0  0  0  0  0  0  0  0  0
   -1.7590    1.2198    3.6537 C   0  0  0  0  0  0  0  0  0  0  0  0
   -2.0995    0.5431    2.4691 C   0  0  0  0  0  0  0  0  0  0  0  0
   -2.4986   -1.1857    2.6232 S   0  0  0  0  0  0  0  0  0  0  0  0
   -3.3010   -1.5063    1.0672 C   0  0  0  0  0  0  0  0  0  0  0  0
   -4.0548   -2.6886    0.9791 C   0  0  0  0  0  0  0  0  0  0  0  0
   -4.6972   -3.0404   -0.2060 C   0  0  0  0  0  0  0  0  0  0  0  0
   -4.5937   -2.2146   -1.3272 C   0  0  0  0  0  0  0  0  0  0  0  0
   -5.3096   -2.5565   -2.6100 C   0  0  0  0  0  0  0  0  0  0  0  0
   -5.5577   -3.8886   -2.7493 F   0  0  0  0  0  0  0  0  0  0  0  0
   -4.6078   -2.1933   -3.7203 F   0  0  0  0  0  0  0  0  0  0  0  0
   -6.5176   -1.9378   -2.7123 F   0  0  0  0  0  0  0  0  0  0  0  0
   -3.8415   -1.0292   -1.2295 C   0  0  0  0  0  0  0  0  0  0  0  0
   -3.1651   -0.6583   -0.0485 C   0  0  0  0  0  0  0  0  0  0  0  0
    2.0867    1.3531    1.0488 C   0  0  0  0  0  0  0  0  0  0  0  0
    3.5992    1.0024    1.0001 C   0  0  0  0  0  0  0  0  0  0  0  0
    3.9346   -2.1331   -0.4144 H   0  0  0  0  0  0  0  0  0  0  0  0
    6.6906   -1.8760   -0.7780 H   0  0  0  0  0  0  0  0  0  0  0  0
    5.5880   -1.2291   -2.0055 H   0  0  0  0  0  0  0  0  0  0  0  0
    5.6063   -0.6427    0.9968 H   0  0  0  0  0  0  0  0  0  0  0  0
    6.0135    0.5289   -0.2659 H   0  0  0  0  0  0  0  0  0  0  0  0
    3.3481   -0.2494   -2.0563 H   0  0  0  0  0  0  0  0  0  0  0  0
    4.3362    1.1974   -1.8182 H   0  0  0  0  0  0  0  0  0  0  0  0
    1.7307    1.4058   -2.3064 H   0  0  0  0  0  0  0  0  0  0  0  0
    2.5648    2.5252   -1.2717 H   0  0  0  0  0  0  0  0  0  0  0  0
    1.4090   -0.8997   -0.5101 H   0  0  0  0  0  0  0  0  0  0  0  0
    0.2286   -0.3621    0.6548 H   0  0  0  0  0  0  0  0  0  0  0  0
    0.0050   -0.0009   -2.3597 H   0  0  0  0  0  0  0  0  0  0  0  0
   -0.8292   -1.1833   -1.3845 H   0  0  0  0  0  0  0  0  0  0  0  0
   -2.1709    0.8849   -2.0665 H   0  0  0  0  0  0  0  0  0  0  0  0
   -1.1289    1.8609   -1.1207 H   0  0  0  0  0  0  0  0  0  0  0  0
   -1.7845    3.1690    0.3289 H   0  0  0  0  0  0  0  0  0  0  0  0
   -1.1759    4.3111    2.3945 H   0  0  0  0  0  0  0  0  0  0  0  0
   -1.1618    3.0834    4.5532 H   0  0  0  0  0  0  0  0  0  0  0  0
   -1.7595    0.6935    4.6055 H   0  0  0  0  0  0  0  0  0  0  0  0
   -4.1464   -3.3454    1.8426 H   0  0  0  0  0  0  0  0  0  0  0  0
   -5.2806   -3.9591   -0.2461 H   0  0  0  0  0  0  0  0  0  0  0  0
   -3.8198   -0.3742   -2.0979 H   0  0  0  0  0  0  0  0  0  0  0  0
    2.0012    2.3997    1.3679 H   0  0  0  0  0  0  0  0  0  0  0  0
    1.6067    0.7747    1.8481 H   0  0  0  0  0  0  0  0  0  0  0  0
    3.8817    0.5930    1.9780 H   0  0  0  0  0  0  0  0  0  0  0  0
    4.1745    1.9278    0.8605 H   0  0  0  0  0  0  0  0  0  0  0  0
  1  2  1  0
  2  3  1  0
  3  4  1  0
  4  5  1  0
  5  6  1  0
  6  7  1  0
  7  8  1  0
  8  9  1  0
  9 10  1  0
 10 11  1  0
 11 12  1  0
 12 13  2  0
 13 14  1  0
 14 15  2  0
 15 16  1  0
 16 17  2  0
 17 18  1  0
 18 19  1  0
 19 20  1  0
 20 21  2  0
 21 22  1  0
 22 23  1  0
 23 24  1  0
 23 25  1  0
 23 26  1  0
 22 27  2  0
 27 28  1  0
  7 29  1  0
 29 30  1  0
 30  4  1  0
 28 11  1  0
 17 12  1  0
 28 19  2  0
  1 31  1  0
  2 32  1  0
  2 33  1  0
  3 34  1  0
  3 35  1  0
  5 36  1  0
  5 37  1  0
  6 38  1  0
  6 39  1  0
  8 40  1  0
  8 41  1  0
  9 42  1  0
  9 43  1  0
 10 44  1  0
 10 45  1  0
 13 46  1  0
 14 47  1  0
 15 48  1  0
 16 49  1  0
 20 50  1  0
 21 51  1  0
 27 52  1  0
 29 53  1  0
 29 54  1  0
 30 55  1  0
 30 56  1  0
M  END
$$$$
OCNT-0022291
     RDKit          3D

 50 53  0  0  0  0  0  0  0  0999 V2000
    4.4534    1.3022    1.8762 O   0  0  0  0  0  0  0  0  0  0  0  0
    4.7367    0.6110    0.9004 C   0  0  0  0  0  0  0  0  0  0  0  0
    3.6835    0.1055   -0.0718 C   0  0  0  0  0  0  0  0  0  0  0  0
    2.2615    0.2959    0.4642 C   0  0  0  0  0  0  0  0  0  0  0  0
    1.2235   -0.1652   -0.5671 C   0  0  0  0  0  0  0  0  0  0  0  0
   -0.1470   -0.1999   -0.0372 N   0  0  0  0  0  0  0  0  0  0  0  0
   -1.0316   -0.9111   -0.9693 C   0  0  0  0  0  0  0  0  0  0  0  0
   -2.4938   -0.8094   -0.6377 C   0  0  0  0  0  0  0  0  0  0  0  0
   -3.0165    0.0806    0.2261 C   0  0  0  0  0  0  0  0  0  0  0  0
   -4.3728    0.1665    0.5369 N   0  0  0  0  0  0  0  0  0  0  0  0
   -4.8751    0.7618    1.7535 C   0  0  0  0  0  0  0  0  0  0  0  0
   -4.2718    1.3040    2.6672 O   0  0  0  0  0  0  0  0  0  0  0  0
   -6.2666    0.5982    1.7478 N   0  0  0  0  0  0  0  0  0  0  0  0
   -6.6515   -0.0329    0.5808 C   0  0  0  0  0  0  0  0  0  0  0  0
   -5.5139   -0.2916   -0.1849 C   0  0  0  0  0  0  0  0  0  0  0  0
   -5.6563   -0.8378   -1.4474 C   0  0  0  0  0  0  0  0  0  0  0  0
   -6.9468   -1.1697   -1.8875 C   0  0  0  0  0  0  0  0  0  0  0  0
   -8.0736   -0.9340   -1.0795 C   0  0  0  0  0  0  0  0  0  0  0  0
   -7.9327   -0.3455    0.1765 C   0  0  0  0  0  0  0  0  0  0  0  0
   -2.0648    1.0344    0.9238 C   0  0  0  0  0  0  0  0  0  0  0  0
   -0.6879    1.1359    0.2452 C   0  0  0  0  0  0  0  0  0  0  0  0
    6.1713    0.2720    0.6443 C   0  0  0  0  0  0  0  0  0  0  0  0
    7.1235    0.6297    1.6131 C   0  0  0  0  0  0  0  0  0  0  0  0
    8.4749    0.3344    1.4212 C   0  0  0  0  0  0  0  0  0  0  0  0
    8.8734   -0.3170    0.2616 C   0  0  0  0  0  0  0  0  0  0  0  0
   10.1676   -0.6060    0.0768 F   0  0  0  0  0  0  0  0  0  0  0  0
    7.9472   -0.6734   -0.7124 C   0  0  0  0  0  0  0  0  0  0  0  0
    6.5929   -0.3790   -0.5244 C   0  0  0  0  0  0  0  0  0  0  0  0
    3.8491   -0.9633   -0.2507 H   0  0  0  0  0  0  0  0  0  0  0  0
    3.7993    0.6527   -1.0141 H   0  0  0  0  0  0  0  0  0  0  0  0
    2.1088    1.3516    0.7164 H   0  0  0  0  0  0  0  0  0  0  0  0
    2.1467   -0.2765    1.3941 H   0  0  0  0  0  0  0  0  0  0  0  0
    1.2797    0.4701   -1.4610 H   0  0  0  0  0  0  0  0  0  0  0  0
    1.5016   -1.1801   -0.8818 H   0  0  0  0  0  0  0  0  0  0  0  0
   -0.8980   -0.5470   -1.9969 H   0  0  0  0  0  0  0  0  0  0  0  0
   -0.7599   -1.9741   -0.9622 H   0  0  0  0  0  0  0  0  0  0  0  0
   -3.1040   -1.5651   -1.1129 H   0  0  0  0  0  0  0  0  0  0  0  0
   -6.8602    0.9230    2.4926 H   0  0  0  0  0  0  0  0  0  0  0  0
   -4.8219   -0.9847   -2.1190 H   0  0  0  0  0  0  0  0  0  0  0  0
   -7.0803   -1.6045   -2.8761 H   0  0  0  0  0  0  0  0  0  0  0  0
   -9.0633   -1.1966   -1.4470 H   0  0  0  0  0  0  0  0  0  0  0  0
   -8.7954   -0.1353    0.7973 H   0  0  0  0  0  0  0  0  0  0  0  0
   -1.9217    0.7008    1.9600 H   0  0  0  0  0  0  0  0  0  0  0  0
   -2.4927    2.0437    0.9477 H   0  0  0  0  0  0  0  0  0  0  0  0
   -0.0354    1.6909    0.9279 H   0  0  0  0  0  0  0  0  0  0  0  0
   -0.7671    1.7267   -0.6778 H   0  0  0  0  0  0  0  0  0  0  0  0
    6.8150    1.1412    2.5233 H   0  0  0  0  0  0  0  0  0  0  0  0
    9.2131    0.6078    2.1687 H   0  0  0  0  0  0  0  0  0  0  0  0
    8.2859   -1.1789   -1.6115 H   0  0  0  0  0  0  0  0  0  0  0  0
    5.8936   -0.6623   -1.3052 H   0  0  0  0  0  0  0  0  0  0  0  0
  1  2  2  0
  2  3  1  0
  3  4  1  0
  4  5  1  0
  5  6  1  0
  6  7  1  0
  7  8  1  0
  8  9  2  0
  9 10  1  0
 10 11  1  0
 11 12  2  0
 11 13  1  0
 13 14  1  0
 14 15  1  0
 15 16  2  0
 16 17  1  0
 17 18  2  0
 18 19  1  0
  9 20  1  0
 20 21  1  0
  2 22  1  0
 22 23  1  0
 23 24  2  0
 24 25  1  0
 25 26  1  0
 25 27  2  0
 27 28  1  0
 21  6  1  0
 28 22  2  0
 15 10  1  0
 19 14  2  0
  3 29  1  0
  3 30  1  0
  4 31  1  0
  4 32  1  0
  5 33  1  0
  5 34  1  0
  7 35  1  0
  7 36  1  0
  8 37  1  0
 13 38  1  0
 16 39  1  0
 17 40  1  0
 18 41  1  0
 19 42  1  0
 20 43  1  0
 20 44  1  0
 21 45  1  0
 21 46  1  0
 23 47  1  0
 24 48  1  0
 27 49  1  0
 28 50  1  0
M  END
$$$$
OCNT-0022294
     RDKit          3D

 40 42  0  0  0  0  0  0  0  0999 V2000
    4.8751    1.3411    0.1321 C   0  0  0  0  0  0  0  0  0  0  0  0
    3.6391    0.8504   -0.4848 N   0  0  0  0  0  0  0  0  0  0  0  0
    3.9272   -0.3471   -1.2774 C   0  0  0  0  0  0  0  0  0  0  0  0
    2.6203    0.6067    0.5492 C   0  0  0  0  0  0  0  0  0  0  0  0
    1.2289    0.3227   -0.0304 C   0  0  0  0  0  0  0  0  0  0  0  0
    0.1868    0.2452    1.0956 C   0  0  0  0  0  0  0  0  0  0  0  0
   -1.1614   -0.0896    0.5797 N   0  0  0  0  0  0  0  0  0  0  0  0
   -1.5235   -1.4690    0.5560 C   0  0  0  0  0  0  0  0  0  0  0  0
   -0.5634   -2.5028    0.6537 C   0  0  0  0  0  0  0  0  0  0  0  0
   -0.9072   -3.8601    0.6190 C   0  0  0  0  0  0  0  0  0  0  0  0
   -2.2322   -4.2347    0.4806 C   0  0  0  0  0  0  0  0  0  0  0  0
   -3.2051   -3.2483    0.3744 C   0  0  0  0  0  0  0  0  0  0  0  0
   -2.8633   -1.8811    0.4062 C   0  0  0  0  0  0  0  0  0  0  0  0
   -4.2307   -0.7535    0.2862 S   0  0  0  0  0  0  0  0  0  0  0  0
   -3.4149    0.8110    0.0829 C   0  0  0  0  0  0  0  0  0  0  0  0
   -2.0274    0.9976    0.2605 C   0  0  0  0  0  0  0  0  0  0  0  0
   -1.5469    2.3146    0.0784 C   0  0  0  0  0  0  0  0  0  0  0  0
   -2.3937    3.3796   -0.2464 C   0  0  0  0  0  0  0  0  0  0  0  0
   -1.7404    4.9594   -0.4511 Cl  0  0  0  0  0  0  0  0  0  0  0  0
   -3.7528    3.1745   -0.4071 C   0  0  0  0  0  0  0  0  0  0  0  0
   -4.2604    1.8912   -0.2428 C   0  0  0  0  0  0  0  0  0  0  0  0
    4.6905    2.2728    0.6785 H   0  0  0  0  0  0  0  0  0  0  0  0
    5.6231    1.5741   -0.6341 H   0  0  0  0  0  0  0  0  0  0  0  0
    5.3071    0.6120    0.8272 H   0  0  0  0  0  0  0  0  0  0  0  0
    4.2525   -1.1869   -0.6529 H   0  0  0  0  0  0  0  0  0  0  0  0
    4.7149   -0.1420   -2.0117 H   0  0  0  0  0  0  0  0  0  0  0  0
    3.0534   -0.6605   -1.8566 H   0  0  0  0  0  0  0  0  0  0  0  0
    2.9253   -0.2166    1.2086 H   0  0  0  0  0  0  0  0  0  0  0  0
    2.5383    1.5037    1.1771 H   0  0  0  0  0  0  0  0  0  0  0  0
    1.2355   -0.6142   -0.5961 H   0  0  0  0  0  0  0  0  0  0  0  0
    0.9614    1.1072   -0.7471 H   0  0  0  0  0  0  0  0  0  0  0  0
    0.5044   -0.4772    1.8589 H   0  0  0  0  0  0  0  0  0  0  0  0
    0.1683    1.1854    1.6623 H   0  0  0  0  0  0  0  0  0  0  0  0
    0.4963   -2.2886    0.7424 H   0  0  0  0  0  0  0  0  0  0  0  0
   -0.1317   -4.6181    0.6952 H   0  0  0  0  0  0  0  0  0  0  0  0
   -2.5099   -5.2845    0.4522 H   0  0  0  0  0  0  0  0  0  0  0  0
   -4.2451   -3.5507    0.2660 H   0  0  0  0  0  0  0  0  0  0  0  0
   -0.4915    2.5481    0.1665 H   0  0  0  0  0  0  0  0  0  0  0  0
   -4.4170    3.9958   -0.6592 H   0  0  0  0  0  0  0  0  0  0  0  0
   -5.3300    1.7322   -0.3692 H   0  0  0  0  0  0  0  0  0  0  0  0
  1  2  1  0
  2  3  1  0
  2  4  1  0
  4  5  1  0
  5  6  1  0
  6  7  1  0
  7  8  1  0
  8  9  2  0
  9 10  1  0
 10 11  2  0
 11 12  1  0
 12 13  2  0
 13 14  1  0
 14 15  1  0
 15 16  2  0
 16 17  1  0
 17 18  2  0
 18 19  1  0
 18 20  1  0
 20 21  2  0
 16  7  1  0
 13  8  1  0
 21 15  1  0
  1 22  1  0
  1 23  1  0
  1 24  1  0
  3 25  1  0
  3 26  1  0
  3 27  1  0
  4 28  1  0
  4 29  1  0
  5 30  1  0
  5 31  1  0
  6 32  1  0
  6 33  1  0
  9 34  1  0
 10 35  1  0
 11 36  1  0
 12 37  1  0
 17 38  1  0
 20 39  1  0
 21 40  1  0
M  END
$$$$
OCNT-0022297
     RDKit          3D

 58 62  0  0  0  0  0  0  0  0999 V2000
  -10.8661   -1.0479   -1.6371 O   0  0  0  0  0  0  0  0  0  0  0  0
   -9.8558   -0.5523   -1.1511 C   0  0  0  0  0  0  0  0  0  0  0  0
   -9.9340    0.6818   -0.3311 C   0  0  0  0  0  0  0  0  0  0  0  0
   -8.8380    1.2326    0.2077 C   0  0  0  0  0  0  0  0  0  0  0  0
   -7.5293    0.6166   -0.0088 C   0  0  0  0  0  0  0  0  0  0  0  0
   -7.4443   -0.5463   -0.7838 C   0  0  0  0  0  0  0  0  0  0  0  0
   -6.2134   -1.1578   -1.0146 C   0  0  0  0  0  0  0  0  0  0  0  0
   -5.0470   -0.6155   -0.4667 C   0  0  0  0  0  0  0  0  0  0  0  0
   -3.9082   -1.3042   -0.7758 O   0  0  0  0  0  0  0  0  0  0  0  0
   -2.6845   -0.9430   -0.1327 C   0  0  0  0  0  0  0  0  0  0  0  0
   -1.9430    0.1141   -0.9518 C   0  0  0  0  0  0  0  0  0  0  0  0
   -0.6249    0.5601   -0.3144 C   0  0  0  0  0  0  0  0  0  0  0  0
    0.4732   -0.5099   -0.4019 C   0  0  0  0  0  0  0  0  0  0  0  0
    1.7078   -0.0952    0.2694 N   0  0  0  0  0  0  0  0  0  0  0  0
    2.3532    1.0861   -0.3509 C   0  0  0  0  0  0  0  0  0  0  0  0
    3.9003    1.0463   -0.4618 C   0  0  0  0  0  0  0  0  0  0  0  0
    4.4982    0.4785    0.7524 N   0  0  0  0  0  0  0  0  0  0  0  0
    5.9084    0.5463    0.7854 C   0  0  0  0  0  0  0  0  0  0  0  0
    6.7962   -0.1902   -0.0608 C   0  0  0  0  0  0  0  0  0  0  0  0
    6.5342   -1.1562   -1.1010 C   0  0  0  0  0  0  0  0  0  0  0  0
    7.6723   -1.6493   -1.6917 C   0  0  0  0  0  0  0  0  0  0  0  0
    9.0795   -0.9718   -1.0159 S   0  0  0  0  0  0  0  0  0  0  0  0
    8.1760   -0.0025    0.0892 C   0  0  0  0  0  0  0  0  0  0  0  0
    8.7107    0.8837    1.0443 C   0  0  0  0  0  0  0  0  0  0  0  0
    7.8396    1.5917    1.8655 C   0  0  0  0  0  0  0  0  0  0  0  0
    6.4676    1.4249    1.7357 C   0  0  0  0  0  0  0  0  0  0  0  0
    3.9362   -0.8105    1.1929 C   0  0  0  0  0  0  0  0  0  0  0  0
    2.6630   -1.2057    0.4044 C   0  0  0  0  0  0  0  0  0  0  0  0
   -5.1270    0.5463    0.3041 C   0  0  0  0  0  0  0  0  0  0  0  0
   -6.3646    1.1608    0.5337 C   0  0  0  0  0  0  0  0  0  0  0  0
   -8.6126   -1.0948   -1.3302 N   0  0  0  0  0  0  0  0  0  0  0  0
  -10.9210    1.1047   -0.1976 H   0  0  0  0  0  0  0  0  0  0  0  0
   -8.9032    2.1346    0.8051 H   0  0  0  0  0  0  0  0  0  0  0  0
   -6.1470   -2.0585   -1.6185 H   0  0  0  0  0  0  0  0  0  0  0  0
   -2.8353   -0.6439    0.9108 H   0  0  0  0  0  0  0  0  0  0  0  0
   -2.0878   -1.8602   -0.0970 H   0  0  0  0  0  0  0  0  0  0  0  0
   -1.7674   -0.2630   -1.9677 H   0  0  0  0  0  0  0  0  0  0  0  0
   -2.5856    0.9936   -1.0770 H   0  0  0  0  0  0  0  0  0  0  0  0
   -0.2985    1.4697   -0.8319 H   0  0  0  0  0  0  0  0  0  0  0  0
   -0.7985    0.8375    0.7329 H   0  0  0  0  0  0  0  0  0  0  0  0
    0.6689   -0.7648   -1.4515 H   0  0  0  0  0  0  0  0  0  0  0  0
    0.1042   -1.4205    0.0833 H   0  0  0  0  0  0  0  0  0  0  0  0
    2.0716    1.9580    0.2523 H   0  0  0  0  0  0  0  0  0  0  0  0
    1.9706    1.2657   -1.3640 H   0  0  0  0  0  0  0  0  0  0  0  0
    4.2640    2.0681   -0.6239 H   0  0  0  0  0  0  0  0  0  0  0  0
    4.1739    0.4570   -1.3444 H   0  0  0  0  0  0  0  0  0  0  0  0
    5.5427   -1.4742   -1.3949 H   0  0  0  0  0  0  0  0  0  0  0  0
    7.7422   -2.3776   -2.4885 H   0  0  0  0  0  0  0  0  0  0  0  0
    9.7851    1.0119    1.1423 H   0  0  0  0  0  0  0  0  0  0  0  0
    8.2333    2.2778    2.6112 H   0  0  0  0  0  0  0  0  0  0  0  0
    5.7997    1.9872    2.3855 H   0  0  0  0  0  0  0  0  0  0  0  0
    3.6818   -0.7149    2.2533 H   0  0  0  0  0  0  0  0  0  0  0  0
    4.6590   -1.6294    1.1152 H   0  0  0  0  0  0  0  0  0  0  0  0
    2.9517   -1.5733   -0.5873 H   0  0  0  0  0  0  0  0  0  0  0  0
    2.1911   -2.0435    0.9289 H   0  0  0  0  0  0  0  0  0  0  0  0
   -4.2460    1.0107    0.7346 H   0  0  0  0  0  0  0  0  0  0  0  0
   -6.4034    2.0658    1.1352 H   0  0  0  0  0  0  0  0  0  0  0  0
   -8.5702   -1.9349   -1.8904 H   0  0  0  0  0  0  0  0  0  0  0  0
  1  2  2  0
  2  3  1  0
  3  4  2  0
  4  5  1  0
  5  6  2  0
  6  7  1  0
  7  8  2  0
  8  9  1  0
  9 10  1  0
 10 11  1  0
 11 12  1  0
 12 13  1  0
 13 14  1  0
 14 15  1  0
 15 16  1  0
 16 17  1  0
 17 18  1  0
 18 19  2  0
 19 20  1  0
 20 21  2  0
 21 22  1  0
 22 23  1  0
 23 24  2  0
 24 25  1  0
 25 26  2  0
 17 27  1  0
 27 28  1  0
  8 29  1  0
 29 30  2  0
  6 31  1  0
 31  2  1  0
 30  5  1  0
 28 14  1  0
 26 18  1  0
 23 19  1  0
  3 32  1  0
  4 33  1  0
  7 34  1  0
 10 35  1  0
 10 36  1  0
 11 37  1  0
 11 38  1  0
 12 39  1  0
 12 40  1  0
 13 41  1  0
 13 42  1  0
 15 43  1  0
 15 44  1  0
 16 45  1  0
 16 46  1  0
 20 47  1  0
 21 48  1  0
 24 49  1  0
 25 50  1  0
 26 51  1  0
 27 52  1  0
 27 53  1  0
 28 54  1  0
 28 55  1  0
 29 56  1  0
 30 57  1  0
 31 58  1  0
M  END
$$$$
OCNT-0022301
     RDKit          3D

 52 55  0  0  0  0  0  0  0  0999 V2000
    3.3535    1.5619    1.3351 O   0  0  0  0  0  0  0  0  0  0  0  0
    4.0384    0.7644    0.6989 C   0  0  0  0  0  0  0  0  0  0  0  0
    3.4313   -0.3828   -0.0914 C   0  0  0  0  0  0  0  0  0  0  0  0
    1.9016   -0.3166   -0.1357 C   0  0  0  0  0  0  0  0  0  0  0  0
    1.3320   -1.5213   -0.8989 C   0  0  0  0  0  0  0  0  0  0  0  0
   -0.1260   -1.5822   -1.0731 N   0  0  0  0  0  0  0  0  0  0  0  0
   -0.6282   -0.5275   -1.9598 C   0  0  0  0  0  0  0  0  0  0  0  0
   -2.1110   -0.7290   -2.2790 C   0  0  0  0  0  0  0  0  0  0  0  0
   -3.0057   -1.0522   -1.0706 C   0  0  0  0  0  0  0  0  0  0  0  0
   -3.6510    0.1099   -0.4597 N   0  0  0  0  0  0  0  0  0  0  0  0
   -3.0573    1.3316   -0.0739 C   0  0  0  0  0  0  0  0  0  0  0  0
   -1.9137    1.7155   -0.2414 O   0  0  0  0  0  0  0  0  0  0  0  0
   -4.0487    2.0793    0.5768 N   0  0  0  0  0  0  0  0  0  0  0  0
   -5.2148    1.3338    0.6382 C   0  0  0  0  0  0  0  0  0  0  0  0
   -6.4203    1.6640    1.2146 C   0  0  0  0  0  0  0  0  0  0  0  0
   -7.4322    0.7030    1.1523 C   0  0  0  0  0  0  0  0  0  0  0  0
   -7.2096   -0.5418    0.5283 C   0  0  0  0  0  0  0  0  0  0  0  0
   -5.9711   -0.8509   -0.0492 C   0  0  0  0  0  0  0  0  0  0  0  0
   -4.9826    0.1097    0.0130 C   0  0  0  0  0  0  0  0  0  0  0  0
   -2.3065   -1.9409   -0.0359 C   0  0  0  0  0  0  0  0  0  0  0  0
   -0.8503   -1.5583    0.2009 C   0  0  0  0  0  0  0  0  0  0  0  0
    5.5268    0.9173    0.7110 C   0  0  0  0  0  0  0  0  0  0  0  0
    6.3828   -0.0159    0.1081 C   0  0  0  0  0  0  0  0  0  0  0  0
    7.7675    0.1750    0.1494 C   0  0  0  0  0  0  0  0  0  0  0  0
    8.2923    1.2914    0.7908 C   0  0  0  0  0  0  0  0  0  0  0  0
    9.6191    1.4678    0.8266 F   0  0  0  0  0  0  0  0  0  0  0  0
    7.4598    2.2242    1.3953 C   0  0  0  0  0  0  0  0  0  0  0  0
    6.0764    2.0373    1.3566 C   0  0  0  0  0  0  0  0  0  0  0  0
    3.7415   -1.3230    0.3784 H   0  0  0  0  0  0  0  0  0  0  0  0
    3.8161   -0.3453   -1.1167 H   0  0  0  0  0  0  0  0  0  0  0  0
    1.5990    0.6229   -0.6118 H   0  0  0  0  0  0  0  0  0  0  0  0
    1.5117   -0.2981    0.8887 H   0  0  0  0  0  0  0  0  0  0  0  0
    1.8023   -1.5764   -1.8895 H   0  0  0  0  0  0  0  0  0  0  0  0
    1.6471   -2.4401   -0.3865 H   0  0  0  0  0  0  0  0  0  0  0  0
   -0.0811   -0.5571   -2.9109 H   0  0  0  0  0  0  0  0  0  0  0  0
   -0.4531    0.4657   -1.5422 H   0  0  0  0  0  0  0  0  0  0  0  0
   -2.1767   -1.5801   -2.9719 H   0  0  0  0  0  0  0  0  0  0  0  0
   -2.4959    0.1388   -2.8281 H   0  0  0  0  0  0  0  0  0  0  0  0
   -3.8287   -1.6453   -1.4888 H   0  0  0  0  0  0  0  0  0  0  0  0
   -3.8860    2.9941    0.9634 H   0  0  0  0  0  0  0  0  0  0  0  0
   -6.5815    2.6196    1.6983 H   0  0  0  0  0  0  0  0  0  0  0  0
   -8.4042    0.9140    1.5933 H   0  0  0  0  0  0  0  0  0  0  0  0
   -8.0142   -1.2740    0.4966 H   0  0  0  0  0  0  0  0  0  0  0  0
   -5.8168   -1.8131   -0.5211 H   0  0  0  0  0  0  0  0  0  0  0  0
   -2.3326   -2.9779   -0.3986 H   0  0  0  0  0  0  0  0  0  0  0  0
   -2.8496   -1.9363    0.9168 H   0  0  0  0  0  0  0  0  0  0  0  0
   -0.4183   -2.2942    0.8902 H   0  0  0  0  0  0  0  0  0  0  0  0
   -0.7891   -0.5805    0.6922 H   0  0  0  0  0  0  0  0  0  0  0  0
    6.0021   -0.8996   -0.3951 H   0  0  0  0  0  0  0  0  0  0  0  0
    8.4406   -0.5405   -0.3135 H   0  0  0  0  0  0  0  0  0  0  0  0
    7.8883    3.0890    1.8923 H   0  0  0  0  0  0  0  0  0  0  0  0
    5.4266    2.7707    1.8321 H   0  0  0  0  0  0  0  0  0  0  0  0
  1  2  2  0
  2  3  1  0
  3  4  1  0
  4  5  1  0
  5  6  1  0
  6  7  1  0
  7  8  1  0
  8  9  1  0
  9 10  1  0
 10 11  1  0
 11 12  2  0
 11 13  1  0
 13 14  1  0
 14 15  2  0
 15 16  1  0
 16 17  2  0
 17 18  1  0
 18 19  2  0
  9 20  1  0
 20 21  1  0
  2 22  1  0
 22 23  1  0
 23 24  2  0
 24 25  1  0
 25 26  1  0
 25 27  2  0
 27 28  1  0
 21  6  1  0
 28 22  2  0
 19 10  1  0
 19 14  1  0
  3 29  1  0
  3 30  1  0
  4 31  1  0
  4 32  1  0
  5 33  1  0
  5 34  1  0
  7 35  1  0
  7 36  1  0
  8 37  1  0
  8 38  1  0
  9 39  1  0
 13 40  1  0
 15 41  1  0
 16 42  1  0
 17 43  1  0
 18 44  1  0
 20 45  1  0
 20 46  1  0
 21 47  1  0
 21 48  1  0
 23 49  1  0
 24 50  1  0
 27 51  1  0
 28 52  1  0
M  END
$$$$
OCNT-0022303
     RDKit          3D

 38 41  0  0  0  0  0  0  0  0999 V2000
   -0.7320   -5.1384   -0.0555 Cl  0  0  0  0  0  0  0  0  0  0  0  0
   -1.0548   -3.5159    0.4170 C   0  0  0  0  0  0  0  0  0  0  0  0
   -2.0374   -3.2571    1.3718 C   0  0  0  0  0  0  0  0  0  0  0  0
   -2.3023   -1.9409    1.7518 C   0  0  0  0  0  0  0  0  0  0  0  0
   -1.5863   -0.8903    1.1704 C   0  0  0  0  0  0  0  0  0  0  0  0
   -1.9086    0.3807    1.5740 O   0  0  0  0  0  0  0  0  0  0  0  0
   -2.3587    1.1714    0.5420 C   0  0  0  0  0  0  0  0  0  0  0  0
   -3.6580    1.6775    0.6546 C   0  0  0  0  0  0  0  0  0  0  0  0
   -4.1805    2.4790   -0.3582 C   0  0  0  0  0  0  0  0  0  0  0  0
   -3.3991    2.7835   -1.4707 C   0  0  0  0  0  0  0  0  0  0  0  0
   -2.0936    2.2919   -1.5634 C   0  0  0  0  0  0  0  0  0  0  0  0
   -1.5536    1.4769   -0.5624 C   0  0  0  0  0  0  0  0  0  0  0  0
   -0.2082    1.1047   -0.6924 N   0  0  0  0  0  0  0  0  0  0  0  0
    0.2679   -0.0537   -0.3266 C   0  0  0  0  0  0  0  0  0  0  0  0
    1.6393   -0.3088   -0.4859 N   0  0  0  0  0  0  0  0  0  0  0  0
    2.3929   -0.7679    0.7118 C   0  0  0  0  0  0  0  0  0  0  0  0
    3.9174   -0.5856    0.5563 C   0  0  0  0  0  0  0  0  0  0  0  0
    4.3386    0.8005    0.2849 N   0  0  0  0  0  0  0  0  0  0  0  0
    3.3434    1.5076   -0.5482 C   0  0  0  0  0  0  0  0  0  0  0  0
    2.4292    0.5791   -1.3698 C   0  0  0  0  0  0  0  0  0  0  0  0
   -0.5776   -1.1520    0.2423 C   0  0  0  0  0  0  0  0  0  0  0  0
   -0.3240   -2.4735   -0.1492 C   0  0  0  0  0  0  0  0  0  0  0  0
   -2.6024   -4.0718    1.8174 H   0  0  0  0  0  0  0  0  0  0  0  0
   -3.0737   -1.7307    2.4880 H   0  0  0  0  0  0  0  0  0  0  0  0
   -4.2600    1.4401    1.5268 H   0  0  0  0  0  0  0  0  0  0  0  0
   -5.1915    2.8696   -0.2784 H   0  0  0  0  0  0  0  0  0  0  0  0
   -3.7962    3.4149   -2.2612 H   0  0  0  0  0  0  0  0  0  0  0  0
   -1.4782    2.5549   -2.4201 H   0  0  0  0  0  0  0  0  0  0  0  0
    2.1878   -1.8280    0.8928 H   0  0  0  0  0  0  0  0  0  0  0  0
    2.0550   -0.2061    1.5923 H   0  0  0  0  0  0  0  0  0  0  0  0
    4.4198   -0.9283    1.4672 H   0  0  0  0  0  0  0  0  0  0  0  0
    4.2707   -1.2281   -0.2604 H   0  0  0  0  0  0  0  0  0  0  0  0
    5.2377    0.7831   -0.1947 H   0  0  0  0  0  0  0  0  0  0  0  0
    2.7284    2.1285    0.1143 H   0  0  0  0  0  0  0  0  0  0  0  0
    3.8725    2.1917   -1.2209 H   0  0  0  0  0  0  0  0  0  0  0  0
    3.0393   -0.0498   -2.0308 H   0  0  0  0  0  0  0  0  0  0  0  0
    1.7941    1.1736   -2.0360 H   0  0  0  0  0  0  0  0  0  0  0  0
    0.4425   -2.6821   -0.8910 H   0  0  0  0  0  0  0  0  0  0  0  0
  1  2  1  0
  2  3  1  0
  3  4  2  0
  4  5  1  0
  5  6  1  0
  6  7  1  0
  7  8  2  0
  8  9  1  0
  9 10  2  0
 10 11  1  0
 11 12  2  0
 12 13  1  0
 13 14  2  0
 14 15  1  0
 15 16  1  0
 16 17  1  0
 17 18  1  0
 18 19  1  0
 19 20  1  0
 14 21  1  0
 21 22  1  0
 22  2  2  0
 21  5  2  0
 12  7  1  0
 20 15  1  0
  3 23  1  0
  4 24  1  0
  8 25  1  0
  9 26  1  0
 10 27  1  0
 11 28  1  0
 16 29  1  0
 16 30  1  0
 17 31  1  0
 17 32  1  0
 18 33  1  0
 19 34  1  0
 19 35  1  0
 20 36  1  0
 20 37  1  0
 22 38  1  0
M  END
$$$$
OCNT-0022315
     RDKit          3D

 57 60  0  0  0  0  0  0  0  0999 V2000
   -5.2874   -2.1281   -1.0256 C   0  0  0  0  0  0  0  0  0  0  0  0
   -4.8758   -1.1285   -1.9587 O   0  0  0  0  0  0  0  0  0  0  0  0
   -5.2773    0.1108   -1.5071 C   0  0  0  0  0  0  0  0  0  0  0  0
   -4.5101    0.8489   -0.5744 C   0  0  0  0  0  0  0  0  0  0  0  0
   -3.2798    0.4016   -0.0902 N   0  0  0  0  0  0  0  0  0  0  0  0
   -2.3328   -0.1936   -1.0579 C   0  0  0  0  0  0  0  0  0  0  0  0
   -0.8735    0.2262   -0.7613 C   0  0  0  0  0  0  0  0  0  0  0  0
   -0.3921   -0.0347    0.6155 N   0  0  0  0  0  0  0  0  0  0  0  0
    0.2577   -1.3545    0.7146 C   0  0  0  0  0  0  0  0  0  0  0  0
    1.0189   -1.5906    2.0394 C   0  0  0  0  0  0  0  0  0  0  0  0
    1.5078   -2.9418    2.0576 O   0  0  0  0  0  0  0  0  0  0  0  0
    2.1997   -0.6262    2.2310 C   0  0  0  0  0  0  0  0  0  0  0  0
    3.1474   -0.8678    1.1829 O   0  0  0  0  0  0  0  0  0  0  0  0
    4.2186   -0.0128    1.0805 C   0  0  0  0  0  0  0  0  0  0  0  0
    4.5648    0.9230    2.0607 C   0  0  0  0  0  0  0  0  0  0  0  0
    5.6748    1.7475    1.8860 C   0  0  0  0  0  0  0  0  0  0  0  0
    6.4504    1.6412    0.7344 C   0  0  0  0  0  0  0  0  0  0  0  0
    6.1299    0.7086   -0.2619 C   0  0  0  0  0  0  0  0  0  0  0  0
    6.9161    0.6045   -1.4222 C   0  0  0  0  0  0  0  0  0  0  0  0
    6.6045   -0.3194   -2.4199 C   0  0  0  0  0  0  0  0  0  0  0  0
    5.5028   -1.1525   -2.2700 C   0  0  0  0  0  0  0  0  0  0  0  0
    4.7122   -1.0600   -1.1223 C   0  0  0  0  0  0  0  0  0  0  0  0
    5.0034   -0.1340   -0.0956 C   0  0  0  0  0  0  0  0  0  0  0  0
   -1.5016    0.0970    1.5927 C   0  0  0  0  0  0  0  0  0  0  0  0
   -2.6754    0.9841    1.1163 C   0  0  0  0  0  0  0  0  0  0  0  0
   -5.0725    2.0635   -0.1426 C   0  0  0  0  0  0  0  0  0  0  0  0
   -6.2955    2.5372   -0.6389 C   0  0  0  0  0  0  0  0  0  0  0  0
   -6.9970    1.8057   -1.5899 C   0  0  0  0  0  0  0  0  0  0  0  0
   -6.4849    0.5920   -2.0295 C   0  0  0  0  0  0  0  0  0  0  0  0
   -6.3798   -2.1735   -0.9570 H   0  0  0  0  0  0  0  0  0  0  0  0
   -4.8515   -1.9655   -0.0349 H   0  0  0  0  0  0  0  0  0  0  0  0
   -4.9313   -3.0960   -1.3941 H   0  0  0  0  0  0  0  0  0  0  0  0
   -2.5588    0.1212   -2.0838 H   0  0  0  0  0  0  0  0  0  0  0  0
   -2.4079   -1.2854   -1.0081 H   0  0  0  0  0  0  0  0  0  0  0  0
   -0.7938    1.3104   -0.9241 H   0  0  0  0  0  0  0  0  0  0  0  0
   -0.2042   -0.2217   -1.5066 H   0  0  0  0  0  0  0  0  0  0  0  0
   -0.4739   -2.1611    0.5669 H   0  0  0  0  0  0  0  0  0  0  0  0
    0.9775   -1.4742   -0.1062 H   0  0  0  0  0  0  0  0  0  0  0  0
    0.3341   -1.4983    2.8886 H   0  0  0  0  0  0  0  0  0  0  0  0
    2.3091   -2.9444    1.4989 H   0  0  0  0  0  0  0  0  0  0  0  0
    2.6786   -0.8477    3.1924 H   0  0  0  0  0  0  0  0  0  0  0  0
    1.8492    0.4119    2.2127 H   0  0  0  0  0  0  0  0  0  0  0  0
    3.9950    1.0311    2.9767 H   0  0  0  0  0  0  0  0  0  0  0  0
    5.9384    2.4733    2.6505 H   0  0  0  0  0  0  0  0  0  0  0  0
    7.3128    2.2946    0.6199 H   0  0  0  0  0  0  0  0  0  0  0  0
    7.7832    1.2481   -1.5583 H   0  0  0  0  0  0  0  0  0  0  0  0
    7.2221   -0.3863   -3.3119 H   0  0  0  0  0  0  0  0  0  0  0  0
    5.2544   -1.8745   -3.0437 H   0  0  0  0  0  0  0  0  0  0  0  0
    3.8531   -1.7213   -1.0314 H   0  0  0  0  0  0  0  0  0  0  0  0
   -1.9192   -0.8900    1.8348 H   0  0  0  0  0  0  0  0  0  0  0  0
   -1.0966    0.5133    2.5219 H   0  0  0  0  0  0  0  0  0  0  0  0
   -3.4142    1.0292    1.9246 H   0  0  0  0  0  0  0  0  0  0  0  0
   -2.3186    2.0021    0.9201 H   0  0  0  0  0  0  0  0  0  0  0  0
   -4.5525    2.6916    0.5758 H   0  0  0  0  0  0  0  0  0  0  0  0
   -6.6895    3.4856   -0.2838 H   0  0  0  0  0  0  0  0  0  0  0  0
   -7.9410    2.1763   -1.9809 H   0  0  0  0  0  0  0  0  0  0  0  0
   -7.0278    0.0041   -2.7646 H   0  0  0  0  0  0  0  0  0  0  0  0
  1  2  1  0
  2  3  1  0
  3  4  1  0
  4  5  1  0
  5  6  1  0
  6  7  1  0
  7  8  1  0
  8  9  1  0
  9 10  1  0
 10 11  1  0
 10 12  1  0
 12 13  1  0
 13 14  1  0
 14 15  2  0
 15 16  1  0
 16 17  2  0
 17 18  1  0
 18 19  2  0
 19 20  1  0
 20 21  2  0
 21 22  1  0
 22 23  2  0
  8 24  1  0
 24 25  1  0
  4 26  2  0
 26 27  1  0
 27 28  2  0
 28 29  1  0
 29  3  2  0
 25  5  1  0
 23 14  1  0
 23 18  1  0
  1 30  1  0
  1 31  1  0
  1 32  1  0
  6 33  1  0
  6 34  1  0
  7 35  1  0
  7 36  1  0
  9 37  1  0
  9 38  1  0
 10 39  1  0
 11 40  1  0
 12 41  1  0
 12 42  1  0
 15 43  1  0
 16 44  1  0
 17 45  1  0
 19 46  1  0
 20 47  1  0
 21 48  1  0
 22 49  1  0
 24 50  1  0
 24 51  1  0
 25 52  1  0
 25 53  1  0
 26 54  1  0
 27 55  1  0
 28 56  1  0
 29 57  1  0
M  END
$$$$
OCNT-0022317
     RDKit          3D

 67 69  0  0  0  0  0  0  0  0999 V2000
    1.2207   -1.2777   -0.1466 C   0  0  0  0  0  0  0  0  0  0  0  0
    1.4685    0.2249   -0.3191 C   0  0  2  0  0  0  0  0  0  0  0  0
    0.5594    1.0681    0.6103 C   0  0  0  0  0  0  0  0  0  0  0  0
   -0.9327    0.9007    0.4322 C   0  0  0  0  0  0  0  0  0  0  0  0
   -1.6469   -0.0229    1.2164 C   0  0  0  0  0  0  0  0  0  0  0  0
   -3.0427   -0.1889    1.0833 C   0  0  0  0  0  0  0  0  0  0  0  0
   -3.6558   -1.1369    2.0312 C   0  0  0  0  0  0  0  0  0  0  0  0
   -3.6323   -0.7403    3.3408 N   0  0  0  0  0  0  0  0  0  0  0  0
   -4.1159   -2.2174    1.6901 O   0  0  0  0  0  0  0  0  0  0  0  0
   -3.7424    0.5605    0.1404 C   0  0  0  0  0  0  0  0  0  0  0  0
   -3.0034    1.4888   -0.6249 C   0  0  0  0  0  0  0  0  0  0  0  0
   -1.6300    1.6725   -0.4979 C   0  0  0  0  0  0  0  0  0  0  0  0
   -3.9191    2.2584   -1.5180 C   0  0  0  0  0  0  0  0  0  0  0  0
   -5.1500    1.3526   -1.4673 C   0  0  0  0  0  0  0  0  0  0  0  0
   -5.1151    0.6491   -0.1694 N   0  0  0  0  0  0  0  0  0  0  0  0
   -6.0282   -0.4859   -0.0121 C   0  0  0  0  0  0  0  0  0  0  0  0
   -6.8376   -0.3560    1.2780 C   0  0  0  0  0  0  0  0  0  0  0  0
   -7.7671    0.8538    1.2568 C   0  0  0  0  0  0  0  0  0  0  0  0
   -8.5897    0.8512    2.4223 O   0  0  0  0  0  0  0  0  0  0  0  0
    1.3073    0.6518   -1.7242 N   0  0  0  0  0  0  0  0  0  0  0  0
    2.4088    0.2427   -2.6113 C   0  0  0  0  0  0  0  0  0  0  0  0
    3.7289    1.0150   -2.4064 C   0  0  0  0  0  0  0  0  0  0  0  0
    4.4831    0.5674   -1.2803 O   0  0  0  0  0  0  0  0  0  0  0  0
    5.1157   -0.6433   -1.3368 C   0  0  0  0  0  0  0  0  0  0  0  0
    5.4135   -1.2366   -0.0987 C   0  0  0  0  0  0  0  0  0  0  0  0
    4.9853   -0.6196    1.0492 O   0  0  0  0  0  0  0  0  0  0  0  0
    6.0701   -0.1067    1.8399 C   0  0  0  0  0  0  0  0  0  0  0  0
    6.8316    1.0680    1.2349 C   0  0  0  0  0  0  0  0  0  0  0  0
    6.0152    2.0664    0.8383 F   0  0  0  0  0  0  0  0  0  0  0  0
    7.6678    1.5898    2.1711 F   0  0  0  0  0  0  0  0  0  0  0  0
    7.6026    0.6982    0.1874 F   0  0  0  0  0  0  0  0  0  0  0  0
    6.0481   -2.4782   -0.0324 C   0  0  0  0  0  0  0  0  0  0  0  0
    6.4399   -3.1138   -1.2081 C   0  0  0  0  0  0  0  0  0  0  0  0
    6.1772   -2.5171   -2.4424 C   0  0  0  0  0  0  0  0  0  0  0  0
    5.5176   -1.2865   -2.5081 C   0  0  0  0  0  0  0  0  0  0  0  0
    0.2350   -1.5725   -0.5199 H   0  0  0  0  0  0  0  0  0  0  0  0
    1.9639   -1.8710   -0.6834 H   0  0  0  0  0  0  0  0  0  0  0  0
    1.2809   -1.5637    0.9101 H   0  0  0  0  0  0  0  0  0  0  0  0
    2.4848    0.4380    0.0185 H   0  0  0  0  0  0  0  0  0  0  0  0
    0.8066    2.1320    0.4910 H   0  0  0  0  0  0  0  0  0  0  0  0
    0.8143    0.8392    1.6540 H   0  0  0  0  0  0  0  0  0  0  0  0
   -1.1108   -0.6240    1.9505 H   0  0  0  0  0  0  0  0  0  0  0  0
   -3.4375    0.2190    3.5918 H   0  0  0  0  0  0  0  0  0  0  0  0
   -4.1272   -1.3228    4.0028 H   0  0  0  0  0  0  0  0  0  0  0  0
   -1.1112    2.4146   -1.1024 H   0  0  0  0  0  0  0  0  0  0  0  0
   -3.5393    2.3622   -2.5372 H   0  0  0  0  0  0  0  0  0  0  0  0
   -4.1308    3.2427   -1.0861 H   0  0  0  0  0  0  0  0  0  0  0  0
   -5.1039    0.6220   -2.2889 H   0  0  0  0  0  0  0  0  0  0  0  0
   -6.0764    1.9291   -1.5822 H   0  0  0  0  0  0  0  0  0  0  0  0
   -5.5006   -1.4409   -0.0829 H   0  0  0  0  0  0  0  0  0  0  0  0
   -6.7424   -0.5027   -0.8498 H   0  0  0  0  0  0  0  0  0  0  0  0
   -6.1848   -0.2713    2.1535 H   0  0  0  0  0  0  0  0  0  0  0  0
   -7.4348   -1.2662    1.4304 H   0  0  0  0  0  0  0  0  0  0  0  0
   -7.2115    1.7941    1.2447 H   0  0  0  0  0  0  0  0  0  0  0  0
   -8.4315    0.8288    0.3867 H   0  0  0  0  0  0  0  0  0  0  0  0
   -7.9980    0.8574    3.1933 H   0  0  0  0  0  0  0  0  0  0  0  0
    0.4326    0.2582   -2.0768 H   0  0  0  0  0  0  0  0  0  0  0  0
    2.0707    0.4621   -3.6312 H   0  0  0  0  0  0  0  0  0  0  0  0
    2.5668   -0.8386   -2.5655 H   0  0  0  0  0  0  0  0  0  0  0  0
    4.3379    1.0037   -3.3147 H   0  0  0  0  0  0  0  0  0  0  0  0
    3.5007    2.0720   -2.2291 H   0  0  0  0  0  0  0  0  0  0  0  0
    5.6087    0.2424    2.7717 H   0  0  0  0  0  0  0  0  0  0  0  0
    6.7554   -0.9151    2.1283 H   0  0  0  0  0  0  0  0  0  0  0  0
    6.2322   -2.9554    0.9264 H   0  0  0  0  0  0  0  0  0  0  0  0
    6.9491   -4.0729   -1.1645 H   0  0  0  0  0  0  0  0  0  0  0  0
    6.4954   -3.0047   -3.3587 H   0  0  0  0  0  0  0  0  0  0  0  0
    5.3531   -0.8477   -3.4876 H   0  0  0  0  0  0  0  0  0  0  0  0
  1  2  1  0
  2  3  1  0
  3  4  1  0
  4  5  1  0
  5  6  2  0
  6  7  1  0
  7  8  1  0
  7  9  2  0
  6 10  1  0
 10 11  2  0
 11 12  1  0
 11 13  1  0
 13 14  1  0
 14 15  1  0
 15 16  1  0
 16 17  1  0
 17 18  1  0
 18 19  1  0
  2 20  1  0
 20 21  1  0
 21 22  1  0
 22 23  1  0
 23 24  1  0
 24 25  1  0
 25 26  1  0
 26 27  1  0
 27 28  1  0
 28 29  1  0
 28 30  1  0
 28 31  1  0
 25 32  2  0
 32 33  1  0
 33 34  2  0
 34 35  1  0
 12  4  2  0
 35 24  2  0
 15 10  1  0
  1 36  1  0
  1 37  1  0
  1 38  1  0
  2 39  1  1
  3 40  1  0
  3 41  1  0
  5 42  1  0
  8 43  1  0
  8 44  1  0
 12 45  1  0
 13 46  1  0
 13 47  1  0
 14 48  1  0
 14 49  1  0
 16 50  1  0
 16 51  1  0
 17 52  1  0
 17 53  1  0
 18 54  1  0
 18 55  1  0
 19 56  1  0
 20 57  1  0
 21 58  1  0
 21 59  1  0
 22 60  1  0
 22 61  1  0
 27 62  1  0
 27 63  1  0
 32 64  1  0
 33 65  1  0
 34 66  1  0
 35 67  1  0
M  END
$$$$
OCNT-0283087
     RDKit          3D

 41 44  0  0  0  0  0  0  0  0999 V2000
    6.8697   -0.8839   -0.6977 C   0  0  0  0  0  0  0  0  0  0  0  0
    5.8737   -0.3651    0.1742 O   0  0  0  0  0  0  0  0  0  0  0  0
    4.6008   -0.2685   -0.3240 C   0  0  0  0  0  0  0  0  0  0  0  0
    4.1936   -0.6584   -1.5973 C   0  0  0  0  0  0  0  0  0  0  0  0
    2.8584   -0.5081   -1.9983 C   0  0  0  0  0  0  0  0  0  0  0  0
    1.9175    0.0357   -1.1036 C   0  0  0  0  0  0  0  0  0  0  0  0
    0.5323    0.3253   -1.1940 C   0  0  0  0  0  0  0  0  0  0  0  0
    0.1070    0.8461    0.0182 C   0  0  0  0  0  0  0  0  0  0  0  0
   -1.2073    1.3299    0.3995 C   0  0  0  0  0  0  0  0  0  0  0  0
   -1.3412    2.4433    0.9059 O   0  0  0  0  0  0  0  0  0  0  0  0
   -2.3132    0.4977    0.1956 N   0  0  0  0  0  0  0  0  0  0  0  0
   -2.2481   -0.8702   -0.3406 C   0  0  0  0  0  0  0  0  0  0  0  0
   -3.2678   -1.7954    0.3164 C   0  0  0  0  0  0  0  0  0  0  0  0
   -4.5655   -1.1666    0.3210 N   0  0  0  0  0  0  0  0  0  0  0  0
   -5.7847   -1.7644    0.3483 C   0  0  0  0  0  0  0  0  0  0  0  0
   -6.7465   -0.8683    0.3393 N   0  0  0  0  0  0  0  0  0  0  0  0
   -6.1117    0.3499    0.3101 C   0  0  0  0  0  0  0  0  0  0  0  0
   -4.7431    0.1889    0.2946 C   0  0  0  0  0  0  0  0  0  0  0  0
   -3.6209    1.1573    0.2518 C   0  0  0  0  0  0  0  0  0  0  0  0
    1.2308    0.9314    0.8213 N   0  0  0  0  0  0  0  0  0  0  0  0
    1.2345    1.4764    2.1647 C   0  0  0  0  0  0  0  0  0  0  0  0
    2.3368    0.4220    0.1686 C   0  0  0  0  0  0  0  0  0  0  0  0
    3.6752    0.2793    0.5740 C   0  0  0  0  0  0  0  0  0  0  0  0
    6.9895   -0.2503   -1.5827 H   0  0  0  0  0  0  0  0  0  0  0  0
    7.8209   -0.8825   -0.1567 H   0  0  0  0  0  0  0  0  0  0  0  0
    6.6482   -1.9190   -0.9780 H   0  0  0  0  0  0  0  0  0  0  0  0
    4.8888   -1.0825   -2.3140 H   0  0  0  0  0  0  0  0  0  0  0  0
    2.5555   -0.8089   -2.9972 H   0  0  0  0  0  0  0  0  0  0  0  0
   -0.0908    0.1799   -2.0667 H   0  0  0  0  0  0  0  0  0  0  0  0
   -2.4290   -0.7994   -1.4202 H   0  0  0  0  0  0  0  0  0  0  0  0
   -1.2576   -1.3052   -0.1887 H   0  0  0  0  0  0  0  0  0  0  0  0
   -3.0071   -1.9864    1.3634 H   0  0  0  0  0  0  0  0  0  0  0  0
   -3.3366   -2.7477   -0.2184 H   0  0  0  0  0  0  0  0  0  0  0  0
   -5.9237   -2.8373    0.3748 H   0  0  0  0  0  0  0  0  0  0  0  0
   -6.6754    1.2742    0.2990 H   0  0  0  0  0  0  0  0  0  0  0  0
   -3.7067    1.7860   -0.6425 H   0  0  0  0  0  0  0  0  0  0  0  0
   -3.6634    1.8129    1.1289 H   0  0  0  0  0  0  0  0  0  0  0  0
    0.3205    1.1694    2.6795 H   0  0  0  0  0  0  0  0  0  0  0  0
    2.0902    1.0903    2.7220 H   0  0  0  0  0  0  0  0  0  0  0  0
    1.2920    2.5649    2.0886 H   0  0  0  0  0  0  0  0  0  0  0  0
    4.0043    0.5889    1.5610 H   0  0  0  0  0  0  0  0  0  0  0  0
  1  2  1  0
  2  3  1  0
  3  4  2  0
  4  5  1  0
  5  6  2  0
  6  7  1  0
  7  8  2  0
  8  9  1  0
  9 10  2  0
  9 11  1  0
 11 12  1  0
 12 13  1  0
 13 14  1  0
 14 15  1  0
 15 16  2  0
 16 17  1  0
 17 18  2  0
 18 19  1  0
  8 20  1  0
 20 21  1  0
 20 22  1  0
 22 23  2  0
 23  3  1  0
 22  6  1  0
 19 11  1  0
 18 14  1  0
  1 24  1  0
  1 25  1  0
  1 26  1  0
  4 27  1  0
  5 28  1  0
  7 29  1  0
 12 30  1  0
 12 31  1  0
 13 32  1  0
 13 33  1  0
 15 34  1  0
 17 35  1  0
 19 36  1  0
 19 37  1  0
 21 38  1  0
 21 39  1  0
 21 40  1  0
 23 41  1  0
M  END
$$$$
OCNT-0381046
     RDKit          3D

 52 53  0  0  0  0  0  0  0  0999 V2000
    6.0239   -1.2040    0.1122 C   0  0  0  0  0  0  0  0  0  0  0  0
    5.3766   -0.1202    0.9619 C   0  0  0  0  0  0  0  0  0  0  0  0
    4.3485    0.7152    0.1921 C   0  0  0  0  0  0  0  0  0  0  0  0
    3.2321   -0.0412   -0.3686 N   0  0  0  0  0  0  0  0  0  0  0  0
    2.3388   -0.6880    0.6054 C   0  0  0  0  0  0  0  0  0  0  0  0
    1.5722    0.1995    1.6207 C   0  0  0  0  0  0  0  0  0  0  0  0
    2.4733    0.7246    2.6075 O   0  0  0  0  0  0  0  0  0  0  0  0
    0.7894    1.3638    0.9971 C   0  0  0  0  0  0  0  0  0  0  0  0
   -0.3954    0.9111    0.3361 O   0  0  0  0  0  0  0  0  0  0  0  0
   -0.3320    0.7803   -1.0215 C   0  0  0  0  0  0  0  0  0  0  0  0
    0.1647    1.7931   -1.8462 C   0  0  0  0  0  0  0  0  0  0  0  0
    0.1640    1.6356   -3.2348 C   0  0  0  0  0  0  0  0  0  0  0  0
   -0.3558    0.4769   -3.8102 C   0  0  0  0  0  0  0  0  0  0  0  0
   -0.8933   -0.5212   -2.9988 C   0  0  0  0  0  0  0  0  0  0  0  0
   -0.8946   -0.3629   -1.6064 C   0  0  0  0  0  0  0  0  0  0  0  0
   -1.4863   -1.4308   -0.7636 C   0  0  0  0  0  0  0  0  0  0  0  0
   -0.8297   -1.9349    0.1444 O   0  0  0  0  0  0  0  0  0  0  0  0
   -2.8891   -1.8939   -1.1107 C   0  0  0  0  0  0  0  0  0  0  0  0
   -3.7486   -2.0868    0.1372 C   0  0  0  0  0  0  0  0  0  0  0  0
   -4.2071   -0.7741    0.7267 C   0  0  0  0  0  0  0  0  0  0  0  0
   -3.4298   -0.1201    1.6912 C   0  0  0  0  0  0  0  0  0  0  0  0
   -3.8378    1.1059    2.2170 C   0  0  0  0  0  0  0  0  0  0  0  0
   -5.0266    1.6897    1.7849 C   0  0  0  0  0  0  0  0  0  0  0  0
   -5.8070    1.0489    0.8248 C   0  0  0  0  0  0  0  0  0  0  0  0
   -5.3987   -0.1767    0.2957 C   0  0  0  0  0  0  0  0  0  0  0  0
    6.5076   -0.7707   -0.7697 H   0  0  0  0  0  0  0  0  0  0  0  0
    5.2904   -1.9430   -0.2248 H   0  0  0  0  0  0  0  0  0  0  0  0
    6.7886   -1.7309    0.6925 H   0  0  0  0  0  0  0  0  0  0  0  0
    4.9252   -0.5753    1.8497 H   0  0  0  0  0  0  0  0  0  0  0  0
    6.1630    0.5518    1.3273 H   0  0  0  0  0  0  0  0  0  0  0  0
    3.9906    1.5389    0.8165 H   0  0  0  0  0  0  0  0  0  0  0  0
    4.8680    1.1938   -0.6476 H   0  0  0  0  0  0  0  0  0  0  0  0
    2.6817    0.5676   -0.9735 H   0  0  0  0  0  0  0  0  0  0  0  0
    2.9128   -1.4413    1.1576 H   0  0  0  0  0  0  0  0  0  0  0  0
    1.6111   -1.2559    0.0200 H   0  0  0  0  0  0  0  0  0  0  0  0
    0.8645   -0.4442    2.1561 H   0  0  0  0  0  0  0  0  0  0  0  0
    2.9297   -0.0374    3.0046 H   0  0  0  0  0  0  0  0  0  0  0  0
    0.4513    2.0253    1.8045 H   0  0  0  0  0  0  0  0  0  0  0  0
    1.4404    1.9914    0.3805 H   0  0  0  0  0  0  0  0  0  0  0  0
    0.5240    2.7284   -1.4285 H   0  0  0  0  0  0  0  0  0  0  0  0
    0.5579    2.4262   -3.8692 H   0  0  0  0  0  0  0  0  0  0  0  0
   -0.3508    0.3577   -4.8910 H   0  0  0  0  0  0  0  0  0  0  0  0
   -1.2935   -1.4215   -3.4574 H   0  0  0  0  0  0  0  0  0  0  0  0
   -3.3682   -1.1865   -1.7975 H   0  0  0  0  0  0  0  0  0  0  0  0
   -2.7857   -2.8500   -1.6376 H   0  0  0  0  0  0  0  0  0  0  0  0
   -3.2172   -2.6674    0.9012 H   0  0  0  0  0  0  0  0  0  0  0  0
   -4.6332   -2.6811   -0.1256 H   0  0  0  0  0  0  0  0  0  0  0  0
   -2.4929   -0.5583    2.0310 H   0  0  0  0  0  0  0  0  0  0  0  0
   -3.2232    1.6055    2.9606 H   0  0  0  0  0  0  0  0  0  0  0  0
   -5.3429    2.6447    2.1949 H   0  0  0  0  0  0  0  0  0  0  0  0
   -6.7334    1.5047    0.4867 H   0  0  0  0  0  0  0  0  0  0  0  0
   -6.0174   -0.6622   -0.4551 H   0  0  0  0  0  0  0  0  0  0  0  0
  1  2  1  0
  2  3  1  0
  3  4  1  0
  4  5  1  0
  5  6  1  0
  6  7  1  0
  6  8  1  0
  8  9  1  0
  9 10  1  0
 10 11  2  0
 11 12  1  0
 12 13  2  0
 13 14  1  0
 14 15  2  0
 15 16  1  0
 16 17  2  0
 16 18  1  0
 18 19  1  0
 19 20  1  0
 20 21  2  0
 21 22  1  0
 22 23  2  0
 23 24  1  0
 24 25  2  0
 15 10  1  0
 25 20  1  0
  1 26  1  0
  1 27  1  0
  1 28  1  0
  2 29  1  0
  2 30  1  0
  3 31  1  0
  3 32  1  0
  4 33  1  0
  5 34  1  0
  5 35  1  0
  6 36  1  0
  7 37  1  0
  8 38  1  0
  8 39  1  0
 11 40  1  0
 12 41  1  0
 13 42  1  0
 14 43  1  0
 18 44  1  0
 18 45  1  0
 19 46  1  0
 19 47  1  0
 21 48  1  0
 22 49  1  0
 23 50  1  0
 24 51  1  0
 25 52  1  0
M  END
$$$$
OCNT-0476550
     RDKit          3D

 58 60  0  0  0  0  0  0  0  0999 V2000
    4.7962   -0.7671    2.9518 C   0  0  0  0  0  0  0  0  0  0  0  0
    4.1209    0.4508    2.3284 C   0  0  0  0  0  0  0  0  0  0  0  0
    4.3218    0.5039    0.8661 N   0  0  0  0  0  0  0  0  0  0  0  0
    5.6680    1.0201    0.5475 C   0  0  0  0  0  0  0  0  0  0  0  0
    6.1115    0.6247   -0.8584 C   0  0  0  0  0  0  0  0  0  0  0  0
    3.2787    1.3331    0.2299 C   0  0  0  0  0  0  0  0  0  0  0  0
    1.9916    0.5234    0.0140 C   0  0  0  0  0  0  0  0  0  0  0  0
    0.9211    1.3643   -0.6935 C   0  0  0  0  0  0  0  0  0  0  0  0
   -0.3534    0.5611   -1.0345 C   0  0  0  0  0  0  0  0  0  0  0  0
   -1.2093    1.3848   -2.0023 C   0  0  0  0  0  0  0  0  0  0  0  0
   -1.0988    0.2758    0.2159 N   0  0  0  0  0  0  0  0  0  0  0  0
   -2.1294   -0.7117    0.0689 C   0  0  0  0  0  0  0  0  0  0  0  0
   -3.4812   -0.2799    0.0103 C   0  0  0  0  0  0  0  0  0  0  0  0
   -3.8821    1.0710    0.1774 C   0  0  0  0  0  0  0  0  0  0  0  0
   -5.2213    1.4470    0.1009 C   0  0  0  0  0  0  0  0  0  0  0  0
   -5.7154    2.7130    0.2383 O   0  0  0  0  0  0  0  0  0  0  0  0
   -4.7694    3.7490    0.4723 C   0  0  0  0  0  0  0  0  0  0  0  0
   -6.1763    0.4659   -0.1354 C   0  0  0  0  0  0  0  0  0  0  0  0
   -5.7920   -0.8688   -0.2860 C   0  0  0  0  0  0  0  0  0  0  0  0
   -4.4634   -1.2594   -0.2123 C   0  0  0  0  0  0  0  0  0  0  0  0
   -4.1769   -2.5607   -0.3548 N   0  0  0  0  0  0  0  0  0  0  0  0
   -2.9067   -2.9740   -0.2661 C   0  0  0  0  0  0  0  0  0  0  0  0
   -1.8240   -2.0974   -0.0485 C   0  0  0  0  0  0  0  0  0  0  0  0
   -0.5210   -2.6501    0.0489 C   0  0  0  0  0  0  0  0  0  0  0  0
   -0.3022   -4.0207   -0.0818 C   0  0  0  0  0  0  0  0  0  0  0  0
   -1.3831   -4.8583   -0.3069 C   0  0  0  0  0  0  0  0  0  0  0  0
   -1.1323   -6.5519   -0.4720 Cl  0  0  0  0  0  0  0  0  0  0  0  0
   -2.6692   -4.3343   -0.3957 C   0  0  0  0  0  0  0  0  0  0  0  0
    4.4510   -1.6921    2.4776 H   0  0  0  0  0  0  0  0  0  0  0  0
    4.5473   -0.8253    4.0167 H   0  0  0  0  0  0  0  0  0  0  0  0
    5.8860   -0.7260    2.8723 H   0  0  0  0  0  0  0  0  0  0  0  0
    4.4740    1.3711    2.8108 H   0  0  0  0  0  0  0  0  0  0  0  0
    3.0553    0.3671    2.5695 H   0  0  0  0  0  0  0  0  0  0  0  0
    6.4145    0.6015    1.2311 H   0  0  0  0  0  0  0  0  0  0  0  0
    5.7134    2.1098    0.6691 H   0  0  0  0  0  0  0  0  0  0  0  0
    7.1470    0.9410   -1.0236 H   0  0  0  0  0  0  0  0  0  0  0  0
    6.0694   -0.4617   -0.9913 H   0  0  0  0  0  0  0  0  0  0  0  0
    5.4993    1.0897   -1.6359 H   0  0  0  0  0  0  0  0  0  0  0  0
    3.6062    1.6792   -0.7568 H   0  0  0  0  0  0  0  0  0  0  0  0
    3.0784    2.2369    0.8201 H   0  0  0  0  0  0  0  0  0  0  0  0
    2.2185   -0.3606   -0.5953 H   0  0  0  0  0  0  0  0  0  0  0  0
    1.6052    0.1639    0.9719 H   0  0  0  0  0  0  0  0  0  0  0  0
    0.6644    2.2288   -0.0677 H   0  0  0  0  0  0  0  0  0  0  0  0
    1.3535    1.7595   -1.6217 H   0  0  0  0  0  0  0  0  0  0  0  0
   -0.0557   -0.3655   -1.5393 H   0  0  0  0  0  0  0  0  0  0  0  0
   -0.6383    1.6444   -2.9005 H   0  0  0  0  0  0  0  0  0  0  0  0
   -2.0906    0.8272   -2.3340 H   0  0  0  0  0  0  0  0  0  0  0  0
   -1.5513    2.3170   -1.5399 H   0  0  0  0  0  0  0  0  0  0  0  0
   -0.4626   -0.0708    0.9327 H   0  0  0  0  0  0  0  0  0  0  0  0
   -3.1105    1.8088    0.3740 H   0  0  0  0  0  0  0  0  0  0  0  0
   -4.2403    3.5938    1.4184 H   0  0  0  0  0  0  0  0  0  0  0  0
   -4.0682    3.8403   -0.3639 H   0  0  0  0  0  0  0  0  0  0  0  0
   -5.3192    4.6920    0.5497 H   0  0  0  0  0  0  0  0  0  0  0  0
   -7.2277    0.7343   -0.1985 H   0  0  0  0  0  0  0  0  0  0  0  0
   -6.5541   -1.6243   -0.4626 H   0  0  0  0  0  0  0  0  0  0  0  0
    0.3409   -2.0153    0.2314 H   0  0  0  0  0  0  0  0  0  0  0  0
    0.7054   -4.4208   -0.0058 H   0  0  0  0  0  0  0  0  0  0  0  0
   -3.5137   -4.9978   -0.5669 H   0  0  0  0  0  0  0  0  0  0  0  0
  1  2  1  0
  2  3  1  0
  3  4  1  0
  4  5  1  0
  3  6  1  0
  6  7  1  0
  7  8  1  0
  8  9  1  0
  9 10  1  0
  9 11  1  0
 11 12  1  0
 12 13  1  0
 13 14  2  0
 14 15  1  0
 15 16  1  0
 16 17  1  0
 15 18  2  0
 18 19  1  0
 19 20  2  0
 20 21  1  0
 21 22  2  0
 22 23  1  0
 23 24  1  0
 24 25  2  0
 25 26  1  0
 26 27  1  0
 26 28  2  0
 23 12  2  0
 20 13  1  0
 28 22  1  0
  1 29  1  0
  1 30  1  0
  1 31  1  0
  2 32  1  0
  2 33  1  0
  4 34  1  0
  4 35  1  0
  5 36  1  0
  5 37  1  0
  5 38  1  0
  6 39  1  0
  6 40  1  0
  7 41  1  0
  7 42  1  0
  8 43  1  0
  8 44  1  0
  9 45  1  0
 10 46  1  0
 10 47  1  0
 10 48  1  0
 11 49  1  0
 14 50  1  0
 17 51  1  0
 17 52  1  0
 17 53  1  0
 18 54  1  0
 19 55  1  0
 24 56  1  0
 25 57  1  0
 28 58  1  0
M  END
$$$$
OCNT-0476578
     RDKit          3D

 38 40  0  0  0  0  0  0  0  0999 V2000
    6.2509   -0.3295   -0.5138 C   0  0  0  0  0  0  0  0  0  0  0  0
    5.1167    0.0099    0.3460 N   0  0  0  0  0  0  0  0  0  0  0  0
    5.3672    1.0645    1.3288 C   0  0  0  0  0  0  0  0  0  0  0  0
    3.8141   -0.1911   -0.1191 C   0  0  0  0  0  0  0  0  0  0  0  0
    3.5404   -0.8746   -1.3119 C   0  0  0  0  0  0  0  0  0  0  0  0
    2.2309   -1.0901   -1.7616 C   0  0  0  0  0  0  0  0  0  0  0  0
    1.1314   -0.6417   -1.0320 C   0  0  0  0  0  0  0  0  0  0  0  0
   -0.1342   -0.9131   -1.5692 N   0  0  0  0  0  0  0  0  0  0  0  0
   -1.2148   -0.5616   -0.9564 C   0  0  0  0  0  0  0  0  0  0  0  0
   -2.4861   -0.9193   -1.6311 C   0  0  0  0  0  0  0  0  0  0  0  0
   -3.6906   -0.6479   -1.1223 C   0  0  0  0  0  0  0  0  0  0  0  0
   -3.8471    0.0514    0.1846 C   0  0  0  0  0  0  0  0  0  0  0  0
   -5.0154    0.3127    0.7031 N   0  0  0  0  0  0  0  0  0  0  0  0
   -5.1826    1.1161    1.9577 C   0  0  0  0  0  0  0  0  0  0  0  0
   -6.2961   -0.1688    0.0904 C   0  0  0  0  0  0  0  0  0  0  0  0
   -2.5659    0.4316    0.8529 C   0  0  0  0  0  0  0  0  0  0  0  0
   -1.3572    0.1547    0.3390 C   0  0  0  0  0  0  0  0  0  0  0  0
    0.0532    0.6422    1.2021 S   0  0  0  0  0  0  0  0  0  0  0  0
    1.3646    0.0293    0.1675 C   0  0  0  0  0  0  0  0  0  0  0  0
    2.6887    0.2413    0.6063 C   0  0  0  0  0  0  0  0  0  0  0  0
    6.2308   -1.3871   -0.7985 H   0  0  0  0  0  0  0  0  0  0  0  0
    7.2027   -0.1782    0.0079 H   0  0  0  0  0  0  0  0  0  0  0  0
    6.2616    0.2950   -1.4138 H   0  0  0  0  0  0  0  0  0  0  0  0
    4.8788    0.8392    2.2827 H   0  0  0  0  0  0  0  0  0  0  0  0
    6.4359    1.1588    1.5522 H   0  0  0  0  0  0  0  0  0  0  0  0
    5.0222    2.0365    0.9591 H   0  0  0  0  0  0  0  0  0  0  0  0
    4.3407   -1.2615   -1.9359 H   0  0  0  0  0  0  0  0  0  0  0  0
    2.0724   -1.6220   -2.6970 H   0  0  0  0  0  0  0  0  0  0  0  0
   -2.3800   -1.4272   -2.5871 H   0  0  0  0  0  0  0  0  0  0  0  0
   -4.5605   -0.9418   -1.7001 H   0  0  0  0  0  0  0  0  0  0  0  0
   -6.2300    1.4077    2.0726 H   0  0  0  0  0  0  0  0  0  0  0  0
   -4.5817    2.0262    1.8797 H   0  0  0  0  0  0  0  0  0  0  0  0
   -4.8718    0.4969    2.8028 H   0  0  0  0  0  0  0  0  0  0  0  0
   -6.5003    0.4403   -0.7936 H   0  0  0  0  0  0  0  0  0  0  0  0
   -6.1948   -1.2276   -0.1626 H   0  0  0  0  0  0  0  0  0  0  0  0
   -7.1110   -0.0678    0.8122 H   0  0  0  0  0  0  0  0  0  0  0  0
   -2.6118    0.9450    1.8088 H   0  0  0  0  0  0  0  0  0  0  0  0
    2.8285    0.7518    1.5552 H   0  0  0  0  0  0  0  0  0  0  0  0
  1  2  1  0
  2  3  1  0
  2  4  1  0
  4  5  1  0
  5  6  2  0
  6  7  1  0
  7  8  1  0
  8  9  2  0
  9 10  1  0
 10 11  2  0
 11 12  1  0
 12 13  2  3
 13 14  1  0
 13 15  1  0
 12 16  1  0
 16 17  2  0
 17 18  1  0
 18 19  1  0
 19 20  1  0
 20  4  2  0
 19  7  2  0
 17  9  1  0
  1 21  1  0
  1 22  1  0
  1 23  1  0
  3 24  1  0
  3 25  1  0
  3 26  1  0
  5 27  1  0
  6 28  1  0
 10 29  1  0
 11 30  1  0
 14 31  1  0
 14 32  1  0
 14 33  1  0
 15 34  1  0
 15 35  1  0
 15 36  1  0
 16 37  1  0
 20 38  1  0
M  CHG  1  13   1
M  END
$$$$
OCNT-0477348
     RDKit          3D

 45 47  0  0  0  0  0  0  0  0999 V2000
    4.7751    0.8690    1.7761 C   0  0  0  0  0  0  0  0  0  0  0  0
    3.4273    0.3000    1.6866 N   0  0  0  0  0  0  0  0  0  0  0  0
    3.4866   -1.1445    1.9216 C   0  0  0  0  0  0  0  0  0  0  0  0
    2.8270    0.6286    0.3820 C   0  0  0  0  0  0  0  0  0  0  0  0
    1.3385    0.2699    0.2930 C   0  0  0  0  0  0  0  0  0  0  0  0
    0.7398    0.7768   -1.0265 C   0  0  0  0  0  0  0  0  0  0  0  0
   -0.6841    0.3700   -1.1838 N   0  0  0  0  0  0  0  0  0  0  0  0
   -0.9183   -1.0056   -1.4471 C   0  0  0  0  0  0  0  0  0  0  0  0
   -1.9058   -1.7937   -0.8182 C   0  0  0  0  0  0  0  0  0  0  0  0
   -2.0872   -3.1415   -1.2187 C   0  0  0  0  0  0  0  0  0  0  0  0
   -1.3063   -3.7259   -2.2095 C   0  0  0  0  0  0  0  0  0  0  0  0
   -0.3388   -2.9661   -2.8394 C   0  0  0  0  0  0  0  0  0  0  0  0
   -0.1606   -1.6306   -2.4689 C   0  0  0  0  0  0  0  0  0  0  0  0
   -2.8411   -1.3205    0.2720 C   0  0  0  0  0  0  0  0  0  0  0  0
   -2.3008   -0.2377    1.1925 C   0  0  0  0  0  0  0  0  0  0  0  0
   -2.3466    1.0965    0.5051 C   0  0  0  0  0  0  0  0  0  0  0  0
   -3.1780    2.1106    1.0162 C   0  0  0  0  0  0  0  0  0  0  0  0
   -3.2524    3.3533    0.3903 C   0  0  0  0  0  0  0  0  0  0  0  0
   -2.4986    3.5866   -0.7518 C   0  0  0  0  0  0  0  0  0  0  0  0
   -2.5888    5.1139   -1.5397 Cl  0  0  0  0  0  0  0  0  0  0  0  0
   -1.6679    2.5911   -1.2621 C   0  0  0  0  0  0  0  0  0  0  0  0
   -1.5702    1.3323   -0.6382 C   0  0  0  0  0  0  0  0  0  0  0  0
    5.4472    0.4612    1.0122 H   0  0  0  0  0  0  0  0  0  0  0  0
    5.2122    0.6731    2.7617 H   0  0  0  0  0  0  0  0  0  0  0  0
    4.7427    1.9584    1.6623 H   0  0  0  0  0  0  0  0  0  0  0  0
    4.0374   -1.6691    1.1326 H   0  0  0  0  0  0  0  0  0  0  0  0
    2.4842   -1.5771    1.9950 H   0  0  0  0  0  0  0  0  0  0  0  0
    3.9751   -1.3584    2.8794 H   0  0  0  0  0  0  0  0  0  0  0  0
    2.9155    1.7109    0.2194 H   0  0  0  0  0  0  0  0  0  0  0  0
    3.3779    0.1391   -0.4320 H   0  0  0  0  0  0  0  0  0  0  0  0
    0.8022    0.7183    1.1378 H   0  0  0  0  0  0  0  0  0  0  0  0
    1.2057   -0.8149    0.3636 H   0  0  0  0  0  0  0  0  0  0  0  0
    0.8452    1.8696   -1.0587 H   0  0  0  0  0  0  0  0  0  0  0  0
    1.3490    0.4298   -1.8675 H   0  0  0  0  0  0  0  0  0  0  0  0
   -2.8569   -3.7492   -0.7450 H   0  0  0  0  0  0  0  0  0  0  0  0
   -1.4666   -4.7615   -2.4948 H   0  0  0  0  0  0  0  0  0  0  0  0
    0.2642   -3.3952   -3.6345 H   0  0  0  0  0  0  0  0  0  0  0  0
    0.5635   -1.0597   -3.0434 H   0  0  0  0  0  0  0  0  0  0  0  0
   -3.0799   -2.1795    0.9140 H   0  0  0  0  0  0  0  0  0  0  0  0
   -3.7839   -1.0049   -0.1942 H   0  0  0  0  0  0  0  0  0  0  0  0
   -1.2838   -0.4600    1.5345 H   0  0  0  0  0  0  0  0  0  0  0  0
   -2.9239   -0.2058    2.0953 H   0  0  0  0  0  0  0  0  0  0  0  0
   -3.7777    1.9330    1.9064 H   0  0  0  0  0  0  0  0  0  0  0  0
   -3.9007    4.1257    0.7940 H   0  0  0  0  0  0  0  0  0  0  0  0
   -1.0975    2.7838   -2.1672 H   0  0  0  0  0  0  0  0  0  0  0  0
  1  2  1  0
  2  3  1  0
  2  4  1  0
  4  5  1  0
  5  6  1  0
  6  7  1  0
  7  8  1  0
  8  9  1  0
  9 10  2  0
 10 11  1  0
 11 12  2  0
 12 13  1  0
  9 14  1  0
 14 15  1  0
 15 16  1  0
 16 17  1  0
 17 18  2  0
 18 19  1  0
 19 20  1  0
 19 21  2  0
 21 22  1  0
 22  7  1  0
 13  8  2  0
 22 16  2  0
  1 23  1  0
  1 24  1  0
  1 25  1  0
  3 26  1  0
  3 27  1  0
  3 28  1  0
  4 29  1  0
  4 30  1  0
  5 31  1  0
  5 32  1  0
  6 33  1  0
  6 34  1  0
 10 35  1  0
 11 36  1  0
 12 37  1  0
 13 38  1  0
 14 39  1  0
 14 40  1  0
 15 41  1  0
 15 42  1  0
 17 43  1  0
 18 44  1  0
 21 45  1  0
M  END
$$$$
OCNT-0477587
     RDKit          3D

 48 49  0  0  0  0  0  0  0  0999 V2000
   -4.9727   -2.8384    1.2028 C   0  0  0  0  0  0  0  0  0  0  0  0
   -3.6507   -2.1168    0.9592 C   0  0  0  0  0  0  0  0  0  0  0  0
   -3.7530   -1.0551   -0.0591 N   0  0  0  0  0  0  0  0  0  0  0  0
   -4.5397    0.0937    0.4189 C   0  0  0  0  0  0  0  0  0  0  0  0
   -4.7711    1.1637   -0.6448 C   0  0  0  0  0  0  0  0  0  0  0  0
   -2.4186   -0.6905   -0.5742 C   0  0  0  0  0  0  0  0  0  0  0  0
   -1.4612    0.0336    0.3855 C   0  0  0  0  0  0  0  0  0  0  0  0
   -0.1987    0.1999   -0.2821 O   0  0  0  0  0  0  0  0  0  0  0  0
    0.6798    1.0221    0.3600 C   0  0  0  0  0  0  0  0  0  0  0  0
    0.4369    1.6005    1.4123 O   0  0  0  0  0  0  0  0  0  0  0  0
    2.0247    1.0946   -0.3785 C   0  0  0  0  0  0  0  0  0  0  0  0
    2.9680    0.0093    0.1642 C   0  0  0  0  0  0  0  0  0  0  0  0
    4.0842    0.2981    0.9664 C   0  0  0  0  0  0  0  0  0  0  0  0
    4.9095   -0.7203    1.4540 C   0  0  0  0  0  0  0  0  0  0  0  0
    4.6320   -2.0505    1.1579 C   0  0  0  0  0  0  0  0  0  0  0  0
    3.5240   -2.3650    0.3789 C   0  0  0  0  0  0  0  0  0  0  0  0
    2.7000   -1.3477   -0.1076 C   0  0  0  0  0  0  0  0  0  0  0  0
    1.8594    0.9997   -1.9171 C   0  0  0  0  0  0  0  0  0  0  0  0
    3.0891    1.6954   -2.4959 C   0  0  0  0  0  0  0  0  0  0  0  0
    3.5079    2.7265   -1.4544 C   0  0  0  0  0  0  0  0  0  0  0  0
    2.5351    2.5547   -0.2905 C   0  0  0  0  0  0  0  0  0  0  0  0
   -4.8066   -3.7098    1.8447 H   0  0  0  0  0  0  0  0  0  0  0  0
   -5.7035   -2.1984    1.7058 H   0  0  0  0  0  0  0  0  0  0  0  0
   -5.4085   -3.1936    0.2627 H   0  0  0  0  0  0  0  0  0  0  0  0
   -2.9407   -2.8804    0.6156 H   0  0  0  0  0  0  0  0  0  0  0  0
   -3.2644   -1.7256    1.9089 H   0  0  0  0  0  0  0  0  0  0  0  0
   -4.0809    0.5505    1.3031 H   0  0  0  0  0  0  0  0  0  0  0  0
   -5.5342   -0.2483    0.7248 H   0  0  0  0  0  0  0  0  0  0  0  0
   -5.1933    0.7289   -1.5574 H   0  0  0  0  0  0  0  0  0  0  0  0
   -3.8485    1.6915   -0.9043 H   0  0  0  0  0  0  0  0  0  0  0  0
   -5.4796    1.9108   -0.2717 H   0  0  0  0  0  0  0  0  0  0  0  0
   -2.5307   -0.0831   -1.4825 H   0  0  0  0  0  0  0  0  0  0  0  0
   -1.9211   -1.5970   -0.9487 H   0  0  0  0  0  0  0  0  0  0  0  0
   -1.2944   -0.5617    1.2886 H   0  0  0  0  0  0  0  0  0  0  0  0
   -1.8673    1.0133    0.6582 H   0  0  0  0  0  0  0  0  0  0  0  0
    4.3424    1.3168    1.2378 H   0  0  0  0  0  0  0  0  0  0  0  0
    5.7701   -0.4694    2.0706 H   0  0  0  0  0  0  0  0  0  0  0  0
    5.2734   -2.8403    1.5390 H   0  0  0  0  0  0  0  0  0  0  0  0
    3.2957   -3.4033    0.1516 H   0  0  0  0  0  0  0  0  0  0  0  0
    1.8340   -1.6345   -0.7022 H   0  0  0  0  0  0  0  0  0  0  0  0
    0.9608    1.5456   -2.2383 H   0  0  0  0  0  0  0  0  0  0  0  0
    1.7623   -0.0185   -2.3076 H   0  0  0  0  0  0  0  0  0  0  0  0
    3.8978    0.9741   -2.6547 H   0  0  0  0  0  0  0  0  0  0  0  0
    2.8680    2.1582   -3.4631 H   0  0  0  0  0  0  0  0  0  0  0  0
    3.4688    3.7452   -1.8540 H   0  0  0  0  0  0  0  0  0  0  0  0
    4.5385    2.5398   -1.1339 H   0  0  0  0  0  0  0  0  0  0  0  0
    1.6972    3.2512   -0.4378 H   0  0  0  0  0  0  0  0  0  0  0  0
    2.9801    2.8305    0.6691 H   0  0  0  0  0  0  0  0  0  0  0  0
  1  2  1  0
  2  3  1  0
  3  4  1  0
  4  5  1  0
  3  6  1  0
  6  7  1  0
  7  8  1  0
  8  9  1  0
  9 10  2  0
  9 11  1  0
 11 12  1  0
 12 13  2  0
 13 14  1  0
 14 15  2  0
 15 16  1  0
 16 17  2  0
 11 18  1  0
 18 19  1  0
 19 20  1  0
 20 21  1  0
 21 11  1  0
 17 12  1  0
  1 22  1  0
  1 23  1  0
  1 24  1  0
  2 25  1  0
  2 26  1  0
  4 27  1  0
  4 28  1  0
  5 29  1  0
  5 30  1  0
  5 31  1  0
  6 32  1  0
  6 33  1  0
  7 34  1  0
  7 35  1  0
 13 36  1  0
 14 37  1  0
 15 38  1  0
 16 39  1  0
 17 40  1  0
 18 41  1  0
 18 42  1  0
 19 43  1  0
 19 44  1  0
 20 45  1  0
 20 46  1  0
 21 47  1  0
 21 48  1  0
M  END
$$$$
OCNT-0478484
     RDKit          3D

 42 44  0  0  0  0  0  0  0  0999 V2000
    5.4169   -0.2477   -0.3632 C   0  0  0  0  0  0  0  0  0  0  0  0
    4.0313   -0.4576    0.0392 N   0  0  0  0  0  0  0  0  0  0  0  0
    3.3876    0.8111    0.3814 C   0  0  0  0  0  0  0  0  0  0  0  0
    1.9190    0.6000    0.7538 C   0  0  0  0  0  0  0  0  0  0  0  0
    1.0814    0.1042   -0.4409 C   0  0  0  0  0  0  0  0  0  0  0  0
   -0.3774    0.0356   -0.1165 N   0  0  0  0  0  0  0  0  0  0  0  0
   -1.1140    1.1307   -0.6832 C   0  0  0  0  0  0  0  0  0  0  0  0
   -2.4131    1.0063   -1.2091 C   0  0  0  0  0  0  0  0  0  0  0  0
   -3.0609    2.1046   -1.8220 C   0  0  0  0  0  0  0  0  0  0  0  0
   -2.4537    3.3506   -1.8978 C   0  0  0  0  0  0  0  0  0  0  0  0
   -1.1946    3.5154   -1.3523 C   0  0  0  0  0  0  0  0  0  0  0  0
   -0.5460    2.4266   -0.7572 C   0  0  0  0  0  0  0  0  0  0  0  0
   -3.1825   -0.2765   -1.1117 C   0  0  0  0  0  0  0  0  0  0  0  0
   -3.3425   -0.6254    0.3565 C   0  0  0  0  0  0  0  0  0  0  0  0
   -2.1778   -1.4381    0.8574 C   0  0  0  0  0  0  0  0  0  0  0  0
   -0.8240   -1.1481    0.5641 C   0  0  0  0  0  0  0  0  0  0  0  0
    0.1034   -2.1151    1.0371 C   0  0  0  0  0  0  0  0  0  0  0  0
   -0.2561   -3.2442    1.7861 C   0  0  0  0  0  0  0  0  0  0  0  0
   -1.5795   -3.4645    2.1035 C   0  0  0  0  0  0  0  0  0  0  0  0
   -2.5309   -2.5691    1.6406 C   0  0  0  0  0  0  0  0  0  0  0  0
    5.8728   -1.2106   -0.6138 H   0  0  0  0  0  0  0  0  0  0  0  0
    5.4785    0.3872   -1.2530 H   0  0  0  0  0  0  0  0  0  0  0  0
    6.0047    0.2045    0.4421 H   0  0  0  0  0  0  0  0  0  0  0  0
    4.0148   -1.0753    0.8516 H   0  0  0  0  0  0  0  0  0  0  0  0
    3.4493    1.5109   -0.4608 H   0  0  0  0  0  0  0  0  0  0  0  0
    3.9035    1.2708    1.2330 H   0  0  0  0  0  0  0  0  0  0  0  0
    1.8546   -0.0888    1.6028 H   0  0  0  0  0  0  0  0  0  0  0  0
    1.5216    1.5478    1.1320 H   0  0  0  0  0  0  0  0  0  0  0  0
    1.4377   -0.8650   -0.8118 H   0  0  0  0  0  0  0  0  0  0  0  0
    1.2649    0.7559   -1.3068 H   0  0  0  0  0  0  0  0  0  0  0  0
   -4.0615    1.9887   -2.2340 H   0  0  0  0  0  0  0  0  0  0  0  0
   -2.9673    4.1854   -2.3650 H   0  0  0  0  0  0  0  0  0  0  0  0
   -0.7076    4.4861   -1.3831 H   0  0  0  0  0  0  0  0  0  0  0  0
    0.4313    2.6331   -0.3361 H   0  0  0  0  0  0  0  0  0  0  0  0
   -2.6908   -1.0647   -1.6949 H   0  0  0  0  0  0  0  0  0  0  0  0
   -4.1808   -0.1479   -1.5489 H   0  0  0  0  0  0  0  0  0  0  0  0
   -3.4774    0.2561    0.9963 H   0  0  0  0  0  0  0  0  0  0  0  0
   -4.2637   -1.2161    0.4466 H   0  0  0  0  0  0  0  0  0  0  0  0
    1.1677   -2.0283    0.8476 H   0  0  0  0  0  0  0  0  0  0  0  0
    0.5102   -3.9376    2.1215 H   0  0  0  0  0  0  0  0  0  0  0  0
   -1.8734   -4.3286    2.6911 H   0  0  0  0  0  0  0  0  0  0  0  0
   -3.5758   -2.7628    1.8779 H   0  0  0  0  0  0  0  0  0  0  0  0
  1  2  1  0
  2  3  1  0
  3  4  1  0
  4  5  1  0
  5  6  1  0
  6  7  1  0
  7  8  1  0
  8  9  2  0
  9 10  1  0
 10 11  2  0
 11 12  1  0
  8 13  1  0
 13 14  1  0
 14 15  1  0
 15 16  1  0
 16 17  2  0
 17 18  1  0
 18 19  2  0
 19 20  1  0
 16  6  1  0
 12  7  2  0
 20 15  2  0
  1 21  1  0
  1 22  1  0
  1 23  1  0
  2 24  1  0
  3 25  1  0
  3 26  1  0
  4 27  1  0
  4 28  1  0
  5 29  1  0
  5 30  1  0
  9 31  1  0
 10 32  1  0
 11 33  1  0
 12 34  1  0
 13 35  1  0
 13 36  1  0
 14 37  1  0
 14 38  1  0
 17 39  1  0
 18 40  1  0
 19 41  1  0
 20 42  1  0
M  END
$$$$
OCNT-0478585
     RDKit          3D

 29 31  0  0  0  0  0  0  0  0999 V2000
    0.5048    2.4125   -0.8620 N   0  0  0  0  0  0  0  0  0  0  0  0
    0.4854    1.0293   -0.5529 C   0  0  0  0  0  0  0  0  0  0  0  0
   -0.7528    0.3833   -0.4639 C   0  0  0  0  0  0  0  0  0  0  0  0
   -2.0652    1.0136   -0.8499 C   0  0  0  0  0  0  0  0  0  0  0  0
   -3.1819    0.6339    0.1285 C   0  0  0  0  0  0  0  0  0  0  0  0
   -3.1710   -0.8322    0.5846 C   0  0  0  0  0  0  0  0  0  0  0  0
   -2.0879   -1.6837   -0.0731 C   0  0  0  0  0  0  0  0  0  0  0  0
   -0.7697   -0.9553   -0.0764 C   0  0  0  0  0  0  0  0  0  0  0  0
    0.3341   -1.6480    0.2722 N   0  0  0  0  0  0  0  0  0  0  0  0
    1.5119   -1.0087    0.2621 C   0  0  0  0  0  0  0  0  0  0  0  0
    1.6553    0.3432   -0.1268 C   0  0  0  0  0  0  0  0  0  0  0  0
    2.9470    0.9260   -0.0707 C   0  0  0  0  0  0  0  0  0  0  0  0
    4.0589    0.1916    0.3423 C   0  0  0  0  0  0  0  0  0  0  0  0
    3.9030   -1.1364    0.7083 C   0  0  0  0  0  0  0  0  0  0  0  0
    2.6353   -1.7184    0.6649 C   0  0  0  0  0  0  0  0  0  0  0  0
    1.3887    2.7136   -1.2584 H   0  0  0  0  0  0  0  0  0  0  0  0
    0.2989    2.9584   -0.0272 H   0  0  0  0  0  0  0  0  0  0  0  0
   -2.3250    0.6753   -1.8610 H   0  0  0  0  0  0  0  0  0  0  0  0
   -2.0004    2.1061   -0.8885 H   0  0  0  0  0  0  0  0  0  0  0  0
   -4.1526    0.8767   -0.3203 H   0  0  0  0  0  0  0  0  0  0  0  0
   -3.1000    1.2679    1.0216 H   0  0  0  0  0  0  0  0  0  0  0  0
   -3.0233   -0.8503    1.6729 H   0  0  0  0  0  0  0  0  0  0  0  0
   -4.1535   -1.2857    0.4082 H   0  0  0  0  0  0  0  0  0  0  0  0
   -2.3635   -1.9130   -1.1096 H   0  0  0  0  0  0  0  0  0  0  0  0
   -1.9960   -2.6384    0.4571 H   0  0  0  0  0  0  0  0  0  0  0  0
    3.1029    1.9640   -0.3479 H   0  0  0  0  0  0  0  0  0  0  0  0
    5.0406    0.6569    0.3757 H   0  0  0  0  0  0  0  0  0  0  0  0
    4.7589   -1.7231    1.0309 H   0  0  0  0  0  0  0  0  0  0  0  0
    2.5171   -2.7590    0.9593 H   0  0  0  0  0  0  0  0  0  0  0  0
  1  2  1  0
  2  3  2  0
  3  4  1  0
  4  5  1  0
  5  6  1  0
  6  7  1  0
  7  8  1  0
  8  9  2  0
  9 10  1  0
 10 11  1  0
 11 12  2  0
 12 13  1  0
 13 14  2  0
 14 15  1  0
 11  2  1  0
  8  3  1  0
 15 10  2  0
  1 16  1  0
  1 17  1  0
  4 18  1  0
  4 19  1  0
  5 20  1  0
  5 21  1  0
  6 22  1  0
  6 23  1  0
  7 24  1  0
  7 25  1  0
 12 26  1  0
 13 27  1  0
 14 28  1  0
 15 29  1  0
M  END
$$$$
OCNT-0483502
     RDKit          3D

 37 40  0  0  0  0  0  0  0  0999 V2000
    0.9702   -0.9090    2.8474 O   0  0  0  0  0  0  0  0  0  0  0  0
    1.6478   -0.4886    1.9164 C   0  0  0  0  0  0  0  0  0  0  0  0
    2.8424   -1.1049    1.5746 O   0  0  0  0  0  0  0  0  0  0  0  0
    3.6064   -0.6742    0.4787 C   0  0  0  0  0  0  0  0  0  0  0  0
    4.7895   -1.3654    0.2191 C   0  0  0  0  0  0  0  0  0  0  0  0
    5.5802   -0.9780   -0.8598 C   0  0  0  0  0  0  0  0  0  0  0  0
    5.1817    0.0908   -1.6632 C   0  0  0  0  0  0  0  0  0  0  0  0
    3.9912    0.7727   -1.3881 C   0  0  0  0  0  0  0  0  0  0  0  0
    3.1868    0.3925   -0.3073 C   0  0  0  0  0  0  0  0  0  0  0  0
    1.9348    1.0615    0.0383 C   0  0  0  0  0  0  0  0  0  0  0  0
    1.5614    2.0867   -0.8074 O   0  0  0  0  0  0  0  0  0  0  0  0
    1.2112    0.6759    1.1043 C   0  0  0  0  0  0  0  0  0  0  0  0
   -0.0234    1.3954    1.6072 C   0  0  0  0  0  0  0  0  0  0  0  0
   -1.3240    0.7320    1.2204 C   0  0  0  0  0  0  0  0  0  0  0  0
   -1.7616    0.6345   -0.0458 C   0  0  0  0  0  0  0  0  0  0  0  0
   -1.0121    1.1405   -1.0932 O   0  0  0  0  0  0  0  0  0  0  0  0
   -3.0260   -0.0355   -0.3614 C   0  0  0  0  0  0  0  0  0  0  0  0
   -3.6079   -0.0768   -1.6358 C   0  0  0  0  0  0  0  0  0  0  0  0
   -4.8034   -0.7740   -1.8515 C   0  0  0  0  0  0  0  0  0  0  0  0
   -5.4368   -1.4300   -0.7968 C   0  0  0  0  0  0  0  0  0  0  0  0
   -4.8860   -1.3754    0.4795 C   0  0  0  0  0  0  0  0  0  0  0  0
   -3.6976   -0.6730    0.6792 C   0  0  0  0  0  0  0  0  0  0  0  0
   -3.2273   -0.5969    2.0007 O   0  0  0  0  0  0  0  0  0  0  0  0
   -2.1544    0.2157    2.3387 C   0  0  0  0  0  0  0  0  0  0  0  0
   -1.9196    0.4933    3.5090 O   0  0  0  0  0  0  0  0  0  0  0  0
    5.0906   -2.1951    0.8520 H   0  0  0  0  0  0  0  0  0  0  0  0
    6.5063   -1.5054   -1.0740 H   0  0  0  0  0  0  0  0  0  0  0  0
    5.7988    0.3982   -2.5041 H   0  0  0  0  0  0  0  0  0  0  0  0
    3.7012    1.6073   -2.0227 H   0  0  0  0  0  0  0  0  0  0  0  0
    0.5842    2.1447   -0.7990 H   0  0  0  0  0  0  0  0  0  0  0  0
    0.0649    1.5228    2.6931 H   0  0  0  0  0  0  0  0  0  0  0  0
   -0.0419    2.4291    1.2358 H   0  0  0  0  0  0  0  0  0  0  0  0
   -1.1699    0.5786   -1.8747 H   0  0  0  0  0  0  0  0  0  0  0  0
   -3.1652    0.4408   -2.4820 H   0  0  0  0  0  0  0  0  0  0  0  0
   -5.2449   -0.7997   -2.8456 H   0  0  0  0  0  0  0  0  0  0  0  0
   -6.3657   -1.9689   -0.9668 H   0  0  0  0  0  0  0  0  0  0  0  0
   -5.3821   -1.8623    1.3146 H   0  0  0  0  0  0  0  0  0  0  0  0
  1  2  2  0
  2  3  1  0
  3  4  1  0
  4  5  2  0
  5  6  1  0
  6  7  2  0
  7  8  1  0
  8  9  2  0
  9 10  1  0
 10 11  1  0
 10 12  2  0
 12 13  1  0
 13 14  1  0
 14 15  2  0
 15 16  1  0
 15 17  1  0
 17 18  2  0
 18 19  1  0
 19 20  2  0
 20 21  1  0
 21 22  2  0
 22 23  1  0
 23 24  1  0
 24 25  2  0
 12  2  1  0
 24 14  1  0
  9  4  1  0
 22 17  1  0
  5 26  1  0
  6 27  1  0
  7 28  1  0
  8 29  1  0
 11 30  1  0
 13 31  1  0
 13 32  1  0
 16 33  1  0
 18 34  1  0
 19 35  1  0
 20 36  1  0
 21 37  1  0
M  END
$$$$
OCNT-0483505
     RDKit          3D

 24 26  0  0  0  0  0  0  0  0999 V2000
    0.5808    3.1211    0.9755 C   0  0  0  0  0  0  0  0  0  0  0  0
   -0.3375    2.0431    1.0882 O   0  0  0  0  0  0  0  0  0  0  0  0
   -0.0232    0.8876    0.3954 C   0  0  0  0  0  0  0  0  0  0  0  0
   -0.9302   -0.1823    0.5046 C   0  0  0  0  0  0  0  0  0  0  0  0
   -2.0803    0.0217    1.3127 O   0  0  0  0  0  0  0  0  0  0  0  0
   -3.0404   -0.9604    1.4927 C   0  0  0  0  0  0  0  0  0  0  0  0
   -4.0364   -0.7962    2.1872 O   0  0  0  0  0  0  0  0  0  0  0  0
   -2.8121   -2.2396    0.8007 C   0  0  0  0  0  0  0  0  0  0  0  0
   -1.7399   -2.4592    0.0347 C   0  0  0  0  0  0  0  0  0  0  0  0
   -0.7461   -1.4096   -0.1375 C   0  0  0  0  0  0  0  0  0  0  0  0
    0.3868   -1.6148   -0.9353 C   0  0  0  0  0  0  0  0  0  0  0  0
    1.3221   -0.5708   -1.0733 C   0  0  0  0  0  0  0  0  0  0  0  0
    1.0961    0.6384   -0.4128 C   0  0  0  0  0  0  0  0  0  0  0  0
    2.1236    1.4980   -0.6876 O   0  0  0  0  0  0  0  0  0  0  0  0
    2.9915    0.8551   -1.5072 C   0  0  0  0  0  0  0  0  0  0  0  0
    2.5482   -0.4169   -1.7754 C   0  0  0  0  0  0  0  0  0  0  0  0
    1.5597    2.8521    1.3847 H   0  0  0  0  0  0  0  0  0  0  0  0
    0.6553    3.4715   -0.0588 H   0  0  0  0  0  0  0  0  0  0  0  0
    0.1927    3.9507    1.5746 H   0  0  0  0  0  0  0  0  0  0  0  0
   -3.5718   -2.9968    0.9518 H   0  0  0  0  0  0  0  0  0  0  0  0
   -1.5969   -3.4119   -0.4637 H   0  0  0  0  0  0  0  0  0  0  0  0
    0.5519   -2.5601   -1.4444 H   0  0  0  0  0  0  0  0  0  0  0  0
    3.8603    1.4248   -1.8071 H   0  0  0  0  0  0  0  0  0  0  0  0
    3.0458   -1.1454   -2.3997 H   0  0  0  0  0  0  0  0  0  0  0  0
  1  2  1  0
  2  3  1  0
  3  4  1  0
  4  5  1  0
  5  6  1  0
  6  7  2  0
  6  8  1  0
  8  9  2  0
  9 10  1  0
 10 11  1  0
 11 12  2  0
 12 13  1  0
 13 14  1  0
 14 15  1  0
 15 16  2  0
 13  3  2  0
 10  4  2  0
 16 12  1  0
  1 17  1  0
  1 18  1  0
  1 19  1  0
  8 20  1  0
  9 21  1  0
 11 22  1  0
 15 23  1  0
 16 24  1  0
M  END
$$$$
OCNT-0493312
     RDKit          3D

 50 53  0  0  0  0  0  0  0  0999 V2000
    5.0342   -0.4336   -3.5330 C   0  0  0  0  0  0  0  0  0  0  0  0
    5.3493   -1.0902   -2.2020 C   0  0  0  0  0  0  0  0  0  0  0  0
    4.1952   -1.0628   -1.3508 O   0  0  0  0  0  0  0  0  0  0  0  0
    4.0323    0.0633   -0.6019 C   0  0  0  0  0  0  0  0  0  0  0  0
    4.8003    1.0173   -0.6288 O   0  0  0  0  0  0  0  0  0  0  0  0
    2.8984    0.0021    0.1833 N   0  0  0  0  0  0  0  0  0  0  0  0
    2.5506    1.1140    1.0572 C   0  0  0  0  0  0  0  0  0  0  0  0
    1.0476    1.4272    1.0261 C   0  0  0  0  0  0  0  0  0  0  0  0
    0.1464    0.1978    1.1520 C   0  0  0  0  0  0  0  0  0  0  0  0
   -1.2126    0.2672    1.0682 C   0  0  0  0  0  0  0  0  0  0  0  0
   -2.0118   -0.9795    1.1240 C   0  0  0  0  0  0  0  0  0  0  0  0
   -2.1857   -1.6730    2.3294 C   0  0  0  0  0  0  0  0  0  0  0  0
   -2.9435   -2.8443    2.3603 C   0  0  0  0  0  0  0  0  0  0  0  0
   -3.5344   -3.3155    1.1895 C   0  0  0  0  0  0  0  0  0  0  0  0
   -4.4689   -4.7602    1.2281 Cl  0  0  0  0  0  0  0  0  0  0  0  0
   -3.3835   -2.6226   -0.0124 C   0  0  0  0  0  0  0  0  0  0  0  0
   -2.6255   -1.4443   -0.0520 C   0  0  0  0  0  0  0  0  0  0  0  0
   -2.4853   -0.6487   -1.3261 C   0  0  0  0  0  0  0  0  0  0  0  0
   -3.2356    0.6868   -1.2544 C   0  0  0  0  0  0  0  0  0  0  0  0
   -2.8117    1.7375   -0.2475 C   0  0  0  0  0  0  0  0  0  0  0  0
   -3.4198    3.0011   -0.3630 C   0  0  0  0  0  0  0  0  0  0  0  0
   -3.1239    4.0166    0.5375 C   0  0  0  0  0  0  0  0  0  0  0  0
   -2.2261    3.7421    1.5469 C   0  0  0  0  0  0  0  0  0  0  0  0
   -1.6202    2.5482    1.7019 N   0  0  0  0  0  0  0  0  0  0  0  0
   -1.9043    1.5624    0.8080 C   0  0  0  0  0  0  0  0  0  0  0  0
    0.9396   -1.0956    1.2865 C   0  0  0  0  0  0  0  0  0  0  0  0
    2.0417   -1.1794    0.2241 C   0  0  0  0  0  0  0  0  0  0  0  0
    4.7788    0.6224   -3.4001 H   0  0  0  0  0  0  0  0  0  0  0  0
    5.8889   -0.5033   -4.2117 H   0  0  0  0  0  0  0  0  0  0  0  0
    4.1695   -0.9135   -4.0030 H   0  0  0  0  0  0  0  0  0  0  0  0
    6.2155   -0.6245   -1.7182 H   0  0  0  0  0  0  0  0  0  0  0  0
    5.6014   -2.1435   -2.3634 H   0  0  0  0  0  0  0  0  0  0  0  0
    3.1183    2.0116    0.7895 H   0  0  0  0  0  0  0  0  0  0  0  0
    2.8590    0.8330    2.0720 H   0  0  0  0  0  0  0  0  0  0  0  0
    0.8484    2.1297    1.8421 H   0  0  0  0  0  0  0  0  0  0  0  0
    0.8265    1.9272    0.0744 H   0  0  0  0  0  0  0  0  0  0  0  0
   -1.7313   -1.2999    3.2448 H   0  0  0  0  0  0  0  0  0  0  0  0
   -3.0710   -3.3792    3.2974 H   0  0  0  0  0  0  0  0  0  0  0  0
   -3.8639   -2.9966   -0.9131 H   0  0  0  0  0  0  0  0  0  0  0  0
   -2.8878   -1.2300   -2.1655 H   0  0  0  0  0  0  0  0  0  0  0  0
   -1.4238   -0.4931   -1.5565 H   0  0  0  0  0  0  0  0  0  0  0  0
   -4.2996    0.4775   -1.0767 H   0  0  0  0  0  0  0  0  0  0  0  0
   -3.1644    1.1426   -2.2515 H   0  0  0  0  0  0  0  0  0  0  0  0
   -4.1369    3.1936   -1.1586 H   0  0  0  0  0  0  0  0  0  0  0  0
   -3.5882    4.9926    0.4564 H   0  0  0  0  0  0  0  0  0  0  0  0
   -1.9614    4.4947    2.2836 H   0  0  0  0  0  0  0  0  0  0  0  0
    0.3249   -1.9948    1.1953 H   0  0  0  0  0  0  0  0  0  0  0  0
    1.3860   -1.1241    2.2888 H   0  0  0  0  0  0  0  0  0  0  0  0
    1.5990   -1.2973   -0.7729 H   0  0  0  0  0  0  0  0  0  0  0  0
    2.6692   -2.0587    0.4109 H   0  0  0  0  0  0  0  0  0  0  0  0
  1  2  1  0
  2  3  1  0
  3  4  1  0
  4  5  2  0
  4  6  1  0
  6  7  1  0
  7  8  1  0
  8  9  1  0
  9 10  2  3
 10 11  1  0
 11 12  1  0
 12 13  2  0
 13 14  1  0
 14 15  1  0
 14 16  2  0
 16 17  1  0
 17 18  1  0
 18 19  1  0
 19 20  1  0
 20 21  1  0
 21 22  2  0
 22 23  1  0
 23 24  2  0
 24 25  1  0
  9 26  1  0
 26 27  1  0
 27  6  1  0
 25 10  1  0
 17 11  2  0
 25 20  2  0
  1 28  1  0
  1 29  1  0
  1 30  1  0
  2 31  1  0
  2 32  1  0
  7 33  1  0
  7 34  1  0
  8 35  1  0
  8 36  1  0
 12 37  1  0
 13 38  1  0
 16 39  1  0
 18 40  1  0
 18 41  1  0
 19 42  1  0
 19 43  1  0
 21 44  1  0
 22 45  1  0
 23 46  1  0
 26 47  1  0
 26 48  1  0
 27 49  1  0
 27 50  1  0
M  END
$$$$
OCNT-0493664
     RDKit          3D

 39 41  0  0  0  0  0  0  0  0999 V2000
    0.2520   -2.6335   -1.0462 C   0  0  0  0  0  0  0  0  0  0  0  0
   -0.2965   -1.2977   -0.6601 C   0  0  0  0  0  0  0  0  0  0  0  0
    0.3727   -0.1998   -0.2718 C   0  0  0  0  0  0  0  0  0  0  0  0
    1.6929    0.1455   -0.1505 N   0  0  0  0  0  0  0  0  0  0  0  0
    2.7935   -0.4663   -0.7077 C   0  0  0  0  0  0  0  0  0  0  0  0
    2.7686   -1.3943   -1.5064 O   0  0  0  0  0  0  0  0  0  0  0  0
    4.1074    0.1176   -0.3363 C   0  0  0  0  0  0  0  0  0  0  0  0
    4.3363    0.8003    0.8621 C   0  0  0  0  0  0  0  0  0  0  0  0
    5.6067    1.3114    1.1257 C   0  0  0  0  0  0  0  0  0  0  0  0
    6.6064    1.1164    0.1854 C   0  0  0  0  0  0  0  0  0  0  0  0
    6.4230    0.4507   -0.9747 N   0  0  0  0  0  0  0  0  0  0  0  0
    5.1797   -0.0417   -1.2064 C   0  0  0  0  0  0  0  0  0  0  0  0
   -0.6756    0.7923    0.1301 C   0  0  0  0  0  0  0  0  0  0  0  0
   -0.3811    1.8812    0.6046 O   0  0  0  0  0  0  0  0  0  0  0  0
   -1.9117    0.1815   -0.0869 N   0  0  0  0  0  0  0  0  0  0  0  0
   -3.1270    0.5247    0.5601 C   0  0  0  0  0  0  0  0  0  0  0  0
   -3.3654    1.8375    0.9896 C   0  0  0  0  0  0  0  0  0  0  0  0
   -4.5636    2.1822    1.6244 C   0  0  0  0  0  0  0  0  0  0  0  0
   -5.5413    1.2166    1.8445 C   0  0  0  0  0  0  0  0  0  0  0  0
   -5.3203   -0.0940    1.4331 C   0  0  0  0  0  0  0  0  0  0  0  0
   -4.1225   -0.4359    0.7972 C   0  0  0  0  0  0  0  0  0  0  0  0
   -1.6953   -1.1196   -0.6291 N   0  0  0  0  0  0  0  0  0  0  0  0
   -2.4272   -1.3556   -1.8890 C   0  0  0  0  0  0  0  0  0  0  0  0
   -0.4730   -3.4254   -0.8261 H   0  0  0  0  0  0  0  0  0  0  0  0
    1.1495   -2.8834   -0.4737 H   0  0  0  0  0  0  0  0  0  0  0  0
    0.4729   -2.6679   -2.1171 H   0  0  0  0  0  0  0  0  0  0  0  0
    1.8205    1.0629    0.2702 H   0  0  0  0  0  0  0  0  0  0  0  0
    3.5563    0.9216    1.6077 H   0  0  0  0  0  0  0  0  0  0  0  0
    5.8155    1.8432    2.0480 H   0  0  0  0  0  0  0  0  0  0  0  0
    7.6115    1.4962    0.3478 H   0  0  0  0  0  0  0  0  0  0  0  0
    5.0706   -0.5793   -2.1456 H   0  0  0  0  0  0  0  0  0  0  0  0
   -2.6336    2.6238    0.8235 H   0  0  0  0  0  0  0  0  0  0  0  0
   -4.7287    3.2078    1.9451 H   0  0  0  0  0  0  0  0  0  0  0  0
   -6.4705    1.4844    2.3407 H   0  0  0  0  0  0  0  0  0  0  0  0
   -6.0744   -0.8557    1.6139 H   0  0  0  0  0  0  0  0  0  0  0  0
   -3.9678   -1.4751    0.5202 H   0  0  0  0  0  0  0  0  0  0  0  0
   -3.4971   -1.1555   -1.7839 H   0  0  0  0  0  0  0  0  0  0  0  0
   -2.3242   -2.4012   -2.1977 H   0  0  0  0  0  0  0  0  0  0  0  0
   -2.0393   -0.7158   -2.6902 H   0  0  0  0  0  0  0  0  0  0  0  0
  1  2  1  0
  2  3  2  0
  3  4  1  0
  4  5  1  0
  5  6  2  0
  5  7  1  0
  7  8  1  0
  8  9  2  0
  9 10  1  0
 10 11  2  0
 11 12  1  0
  3 13  1  0
 13 14  2  0
 13 15  1  0
 15 16  1  0
 16 17  2  0
 17 18  1  0
 18 19  2  0
 19 20  1  0
 20 21  2  0
 15 22  1  0
 22 23  1  0
 22  2  1  0
 12  7  2  0
 21 16  1  0
  1 24  1  0
  1 25  1  0
  1 26  1  0
  4 27  1  0
  8 28  1  0
  9 29  1  0
 10 30  1  0
 12 31  1  0
 17 32  1  0
 18 33  1  0
 19 34  1  0
 20 35  1  0
 21 36  1  0
 23 37  1  0
 23 38  1  0
 23 39  1  0
M  END
$$$$
OCNT-0493764
     RDKit          3D

 52 53  0  0  0  0  0  0  0  0999 V2000
    7.2127   -2.6331    1.3654 C   0  0  0  0  0  0  0  0  0  0  0  0
    6.6749   -1.3279    1.5176 O   0  0  0  0  0  0  0  0  0  0  0  0
    5.7390   -0.9144    0.6013 C   0  0  0  0  0  0  0  0  0  0  0  0
    5.2486   -1.7083   -0.4403 C   0  0  0  0  0  0  0  0  0  0  0  0
    4.2922   -1.2040   -1.3249 C   0  0  0  0  0  0  0  0  0  0  0  0
    3.8109    0.1007   -1.1831 C   0  0  0  0  0  0  0  0  0  0  0  0
    2.7643    0.6380   -2.1336 C   0  0  0  0  0  0  0  0  0  0  0  0
    1.3643    0.7724   -1.5076 C   0  0  0  0  0  0  0  0  0  0  0  0
    0.7867   -0.5374   -1.1727 N   0  0  0  0  0  0  0  0  0  0  0  0
   -0.4462   -0.4237   -0.3718 C   0  0  0  0  0  0  0  0  0  0  0  0
   -1.6202    0.3068   -1.0563 C   0  0  0  0  0  0  0  0  0  0  0  0
   -1.4209    1.7297   -0.9907 O   0  0  0  0  0  0  0  0  0  0  0  0
   -2.9457   -0.0217   -0.3531 C   0  0  0  0  0  0  0  0  0  0  0  0
   -3.9919    0.6427   -1.0744 O   0  0  0  0  0  0  0  0  0  0  0  0
   -5.2704    0.4611   -0.6232 C   0  0  0  0  0  0  0  0  0  0  0  0
   -6.2529    1.0863   -1.3938 C   0  0  0  0  0  0  0  0  0  0  0  0
   -7.5990    0.9900   -1.0422 C   0  0  0  0  0  0  0  0  0  0  0  0
   -7.9725    0.2616    0.0856 C   0  0  0  0  0  0  0  0  0  0  0  0
   -7.0026   -0.3825    0.8620 C   0  0  0  0  0  0  0  0  0  0  0  0
   -7.4002   -1.1375    2.0966 C   0  0  0  0  0  0  0  0  0  0  0  0
   -5.6485   -0.2668    0.5073 C   0  0  0  0  0  0  0  0  0  0  0  0
    4.3026    0.8985   -0.1388 C   0  0  0  0  0  0  0  0  0  0  0  0
    5.2606    0.4022    0.7546 C   0  0  0  0  0  0  0  0  0  0  0  0
    5.7880    1.1169    1.8025 O   0  0  0  0  0  0  0  0  0  0  0  0
    5.3369    2.4509    1.9841 C   0  0  0  0  0  0  0  0  0  0  0  0
    7.7297   -2.7394    0.4060 H   0  0  0  0  0  0  0  0  0  0  0  0
    6.4365   -3.3961    1.4846 H   0  0  0  0  0  0  0  0  0  0  0  0
    7.9512   -2.7851    2.1585 H   0  0  0  0  0  0  0  0  0  0  0  0
    5.5886   -2.7269   -0.5918 H   0  0  0  0  0  0  0  0  0  0  0  0
    3.9215   -1.8413   -2.1256 H   0  0  0  0  0  0  0  0  0  0  0  0
    3.0950    1.6238   -2.4857 H   0  0  0  0  0  0  0  0  0  0  0  0
    2.7101    0.0067   -3.0301 H   0  0  0  0  0  0  0  0  0  0  0  0
    0.7274    1.2737   -2.2441 H   0  0  0  0  0  0  0  0  0  0  0  0
    1.4210    1.4063   -0.6146 H   0  0  0  0  0  0  0  0  0  0  0  0
    1.4736   -1.0542   -0.6199 H   0  0  0  0  0  0  0  0  0  0  0  0
   -0.2091    0.0609    0.5836 H   0  0  0  0  0  0  0  0  0  0  0  0
   -0.7544   -1.4510   -0.1446 H   0  0  0  0  0  0  0  0  0  0  0  0
   -1.6863    0.0333   -2.1161 H   0  0  0  0  0  0  0  0  0  0  0  0
   -2.2464    2.1238   -1.3321 H   0  0  0  0  0  0  0  0  0  0  0  0
   -2.9180    0.3583    0.6754 H   0  0  0  0  0  0  0  0  0  0  0  0
   -3.1140   -1.1049   -0.3629 H   0  0  0  0  0  0  0  0  0  0  0  0
   -5.9677    1.6558   -2.2747 H   0  0  0  0  0  0  0  0  0  0  0  0
   -8.3545    1.4851   -1.6461 H   0  0  0  0  0  0  0  0  0  0  0  0
   -9.0245    0.1993    0.3549 H   0  0  0  0  0  0  0  0  0  0  0  0
   -8.4092   -1.5509    1.9950 H   0  0  0  0  0  0  0  0  0  0  0  0
   -7.3766   -0.4724    2.9653 H   0  0  0  0  0  0  0  0  0  0  0  0
   -6.7219   -1.9786    2.2746 H   0  0  0  0  0  0  0  0  0  0  0  0
   -4.9102   -0.7549    1.1352 H   0  0  0  0  0  0  0  0  0  0  0  0
    3.9192    1.9093   -0.0432 H   0  0  0  0  0  0  0  0  0  0  0  0
    5.8589    2.8652    2.8521 H   0  0  0  0  0  0  0  0  0  0  0  0
    4.2634    2.4795    2.1982 H   0  0  0  0  0  0  0  0  0  0  0  0
    5.5861    3.0740    1.1189 H   0  0  0  0  0  0  0  0  0  0  0  0
  1  2  1  0
  2  3  1  0
  3  4  1  0
  4  5  2  0
  5  6  1  0
  6  7  1  0
  7  8  1  0
  8  9  1  0
  9 10  1  0
 10 11  1  0
 11 12  1  0
 11 13  1  0
 13 14  1  0
 14 15  1  0
 15 16  1  0
 16 17  2  0
 17 18  1  0
 18 19  2  0
 19 20  1  0
 19 21  1  0
  6 22  2  0
 22 23  1  0
 23 24  1  0
 24 25  1  0
 23  3  2  0
 21 15  2  0
  1 26  1  0
  1 27  1  0
  1 28  1  0
  4 29  1  0
  5 30  1  0
  7 31  1  0
  7 32  1  0
  8 33  1  0
  8 34  1  0
  9 35  1  0
 10 36  1  0
 10 37  1  0
 11 38  1  0
 12 39  1  0
 13 40  1  0
 13 41  1  0
 16 42  1  0
 17 43  1  0
 18 44  1  0
 20 45  1  0
 20 46  1  0
 20 47  1  0
 21 48  1  0
 22 49  1  0
 25 50  1  0
 25 51  1  0
 25 52  1  0
M  END
$$$$
OCNT-0493927
     RDKit          3D

 30 32  0  0  0  0  0  0  0  0999 V2000
   -1.9797   -3.9690   -0.7559 O   0  0  0  0  0  0  0  0  0  0  0  0
   -1.7194   -2.7828   -0.5992 C   0  0  0  0  0  0  0  0  0  0  0  0
   -2.6230   -1.8117   -0.9229 N   0  0  0  0  0  0  0  0  0  0  0  0
   -2.3634   -0.4501   -0.8682 C   0  0  0  0  0  0  0  0  0  0  0  0
   -3.2558    0.4566   -1.4404 C   0  0  0  0  0  0  0  0  0  0  0  0
   -2.9788    1.8228   -1.3844 C   0  0  0  0  0  0  0  0  0  0  0  0
   -1.8232    2.2680   -0.7459 C   0  0  0  0  0  0  0  0  0  0  0  0
   -1.4870    3.9527   -0.6661 Cl  0  0  0  0  0  0  0  0  0  0  0  0
   -0.9435    1.3578   -0.1573 C   0  0  0  0  0  0  0  0  0  0  0  0
   -1.2070   -0.0219   -0.2214 C   0  0  0  0  0  0  0  0  0  0  0  0
   -0.3637   -1.0800    0.4735 C   0  0  1  0  0  0  0  0  0  0  0  0
    1.0821   -0.7449    0.3947 C   0  0  0  0  0  0  0  0  0  0  0  0
    2.2496   -0.4684    0.3315 C   0  0  0  0  0  0  0  0  0  0  0  0
    3.6394   -0.1300    0.2564 C   0  0  0  0  0  0  0  0  0  0  0  0
    4.1353    1.0591    1.0366 C   0  0  0  0  0  0  0  0  0  0  0  0
    4.0364    1.1346   -0.4593 C   0  0  0  0  0  0  0  0  0  0  0  0
   -0.7970   -1.2154    1.9619 C   0  0  0  0  0  0  0  0  0  0  0  0
   -0.6283   -0.0569    2.6490 F   0  0  0  0  0  0  0  0  0  0  0  0
   -0.0870   -2.1679    2.6153 F   0  0  0  0  0  0  0  0  0  0  0  0
   -2.1055   -1.5542    2.0828 F   0  0  0  0  0  0  0  0  0  0  0  0
   -0.5021   -2.3681   -0.1771 O   0  0  0  0  0  0  0  0  0  0  0  0
   -3.4782   -2.1569   -1.3407 H   0  0  0  0  0  0  0  0  0  0  0  0
   -4.1598    0.1164   -1.9388 H   0  0  0  0  0  0  0  0  0  0  0  0
   -3.6669    2.5331   -1.8359 H   0  0  0  0  0  0  0  0  0  0  0  0
   -0.0634    1.7335    0.3619 H   0  0  0  0  0  0  0  0  0  0  0  0
    4.3202   -0.9719    0.1662 H   0  0  0  0  0  0  0  0  0  0  0  0
    3.4276    1.6360    1.6218 H   0  0  0  0  0  0  0  0  0  0  0  0
    5.1229    0.9954    1.4792 H   0  0  0  0  0  0  0  0  0  0  0  0
    4.9575    1.1227   -1.0312 H   0  0  0  0  0  0  0  0  0  0  0  0
    3.2616    1.7616   -0.8862 H   0  0  0  0  0  0  0  0  0  0  0  0
  1  2  2  0
  2  3  1  0
  3  4  1  0
  4  5  1  0
  5  6  2  0
  6  7  1  0
  7  8  1  0
  7  9  2  0
  9 10  1  0
 10 11  1  0
 11 12  1  1
 12 13  3  0
 13 14  1  0
 14 15  1  0
 15 16  1  0
 11 17  1  0
 17 18  1  0
 17 19  1  0
 17 20  1  0
 11 21  1  0
 21  2  1  0
 10  4  2  0
 16 14  1  0
  3 22  1  0
  5 23  1  0
  6 24  1  0
  9 25  1  0
 14 26  1  0
 15 27  1  0
 15 28  1  0
 16 29  1  0
 16 30  1  0
M  END
$$$$
OCNT-0493940
     RDKit          3D

 40 42  0  0  0  0  0  0  0  0999 V2000
    4.5831    2.2176   -1.9085 C   0  0  0  0  0  0  0  0  0  0  0  0
    3.4313    1.4631   -1.3155 C   0  0  0  0  0  0  0  0  0  0  0  0
    2.6703    0.5872   -2.0890 C   0  0  0  0  0  0  0  0  0  0  0  0
    1.6139   -0.1390   -1.5181 C   0  0  0  0  0  0  0  0  0  0  0  0
    1.2819   -0.0213   -0.1577 C   0  0  0  0  0  0  0  0  0  0  0  0
    0.2330   -0.7544    0.4528 N   0  0  0  0  0  0  0  0  0  0  0  0
   -0.2751   -1.9581   -0.2470 C   0  0  0  0  0  0  0  0  0  0  0  0
   -1.3317   -1.6236   -1.2992 C   0  0  0  0  0  0  0  0  0  0  0  0
   -1.6033   -2.4689   -2.2679 N   0  0  0  0  0  0  0  0  0  0  0  0
   -2.6981   -1.7976   -3.0315 C   0  0  0  0  0  0  0  0  0  0  0  0
   -3.2420   -0.6981   -2.1151 C   0  0  0  0  0  0  0  0  0  0  0  0
   -2.1011   -0.4818   -1.2678 N   0  0  0  0  0  0  0  0  0  0  0  0
   -0.4493   -0.4029    1.6433 C   0  0  0  0  0  0  0  0  0  0  0  0
   -0.6774   -1.3386    2.6647 C   0  0  0  0  0  0  0  0  0  0  0  0
   -1.3547   -0.9842    3.8373 C   0  0  0  0  0  0  0  0  0  0  0  0
   -1.8155    0.3183    4.0101 C   0  0  0  0  0  0  0  0  0  0  0  0
   -1.5888    1.2568    3.0096 C   0  0  0  0  0  0  0  0  0  0  0  0
   -2.0211    2.5450    3.1376 O   0  0  0  0  0  0  0  0  0  0  0  0
   -0.9122    0.9091    1.8436 C   0  0  0  0  0  0  0  0  0  0  0  0
    2.0748    0.8564    0.6040 C   0  0  0  0  0  0  0  0  0  0  0  0
    3.1300    1.5854    0.0422 C   0  0  0  0  0  0  0  0  0  0  0  0
    5.5259    1.7370   -1.6295 H   0  0  0  0  0  0  0  0  0  0  0  0
    4.5189    2.2476   -3.0015 H   0  0  0  0  0  0  0  0  0  0  0  0
    4.5878    3.2539   -1.5521 H   0  0  0  0  0  0  0  0  0  0  0  0
    2.8872    0.4556   -3.1471 H   0  0  0  0  0  0  0  0  0  0  0  0
    1.0551   -0.7890   -2.1827 H   0  0  0  0  0  0  0  0  0  0  0  0
   -0.7454   -2.6727    0.4383 H   0  0  0  0  0  0  0  0  0  0  0  0
    0.5418   -2.5157   -0.7201 H   0  0  0  0  0  0  0  0  0  0  0  0
   -2.2772   -1.3759   -3.9538 H   0  0  0  0  0  0  0  0  0  0  0  0
   -3.4792   -2.5189   -3.2962 H   0  0  0  0  0  0  0  0  0  0  0  0
   -4.0851   -1.0760   -1.5244 H   0  0  0  0  0  0  0  0  0  0  0  0
   -3.5536    0.2003   -2.6562 H   0  0  0  0  0  0  0  0  0  0  0  0
   -2.2283   -0.0415   -0.3612 H   0  0  0  0  0  0  0  0  0  0  0  0
   -0.2923   -2.3534    2.5748 H   0  0  0  0  0  0  0  0  0  0  0  0
   -1.5081   -1.7269    4.6160 H   0  0  0  0  0  0  0  0  0  0  0  0
   -2.3381    0.5821    4.9226 H   0  0  0  0  0  0  0  0  0  0  0  0
   -2.4178    2.6491    4.0175 H   0  0  0  0  0  0  0  0  0  0  0  0
   -0.7538    1.6655    1.0780 H   0  0  0  0  0  0  0  0  0  0  0  0
    1.8954    0.9673    1.6713 H   0  0  0  0  0  0  0  0  0  0  0  0
    3.7188    2.2415    0.6785 H   0  0  0  0  0  0  0  0  0  0  0  0
  1  2  1  0
  2  3  1  0
  3  4  2  0
  4  5  1  0
  5  6  1  0
  6  7  1  0
  7  8  1  0
  8  9  2  0
  9 10  1  0
 10 11  1  0
 11 12  1  0
  6 13  1  0
 13 14  2  0
 14 15  1  0
 15 16  2  0
 16 17  1  0
 17 18  1  0
 17 19  2  0
  5 20  2  0
 20 21  1  0
 21  2  2  0
 12  8  1  0
 19 13  1  0
  1 22  1  0
  1 23  1  0
  1 24  1  0
  3 25  1  0
  4 26  1  0
  7 27  1  0
  7 28  1  0
 10 29  1  0
 10 30  1  0
 11 31  1  0
 11 32  1  0
 12 33  1  0
 14 34  1  0
 15 35  1  0
 16 36  1  0
 18 37  1  0
 19 38  1  0
 20 39  1  0
 21 40  1  0
M  END
$$$$
OCNT-0493990
     RDKit          3D

 48 50  0  0  0  0  0  0  0  0999 V2000
   -9.9055    0.1223    1.0861 C   0  0  0  0  0  0  0  0  0  0  0  0
   -8.6353    0.2164    0.4208 N   0  0  0  0  0  0  0  0  0  0  0  0
   -7.5560    0.8727    0.9735 C   0  0  0  0  0  0  0  0  0  0  0  0
   -7.5963    1.5030    2.0234 O   0  0  0  0  0  0  0  0  0  0  0  0
   -6.2884    0.7448    0.1837 C   0  0  0  0  0  0  0  0  0  0  0  0
   -5.1467    1.4072    0.6042 C   0  0  0  0  0  0  0  0  0  0  0  0
   -3.9944    1.2406   -0.1522 C   0  0  0  0  0  0  0  0  0  0  0  0
   -2.8731    1.9285    0.2539 O   0  0  0  0  0  0  0  0  0  0  0  0
   -1.6887    1.2300    0.2744 C   0  0  0  0  0  0  0  0  0  0  0  0
   -0.5913    1.8062   -0.3595 C   0  0  0  0  0  0  0  0  0  0  0  0
    0.6473    1.1557   -0.3458 C   0  0  0  0  0  0  0  0  0  0  0  0
    0.8015   -0.0620    0.3214 C   0  0  0  0  0  0  0  0  0  0  0  0
    2.0122   -0.7841    0.3760 N   0  0  0  0  0  0  0  0  0  0  0  0
    3.2632   -0.3696   -0.0579 C   0  0  0  0  0  0  0  0  0  0  0  0
    3.5270    0.7434   -0.4911 O   0  0  0  0  0  0  0  0  0  0  0  0
    4.1789   -1.4065    0.0655 N   0  0  0  0  0  0  0  0  0  0  0  0
    5.5708   -1.3476   -0.1519 C   0  0  0  0  0  0  0  0  0  0  0  0
    6.2653   -2.5601   -0.1813 C   0  0  0  0  0  0  0  0  0  0  0  0
    7.6471   -2.5809   -0.3835 C   0  0  0  0  0  0  0  0  0  0  0  0
    8.3534   -1.3877   -0.5516 C   0  0  0  0  0  0  0  0  0  0  0  0
   10.0579   -1.5007   -0.7968 Cl  0  0  0  0  0  0  0  0  0  0  0  0
    7.6839   -0.1606   -0.5145 C   0  0  0  0  0  0  0  0  0  0  0  0
    8.4214    1.1408   -0.6823 C   0  0  0  0  0  0  0  0  0  0  0  0
    9.3761    1.3347    0.2698 F   0  0  0  0  0  0  0  0  0  0  0  0
    7.6130    2.2370   -0.6060 F   0  0  0  0  0  0  0  0  0  0  0  0
    9.0526    1.2427   -1.8846 F   0  0  0  0  0  0  0  0  0  0  0  0
    6.2869   -0.1572   -0.3104 C   0  0  0  0  0  0  0  0  0  0  0  0
   -0.3071   -0.6232    0.9716 C   0  0  0  0  0  0  0  0  0  0  0  0
   -1.5470    0.0227    0.9573 C   0  0  0  0  0  0  0  0  0  0  0  0
   -4.0208    0.4632   -1.3084 C   0  0  0  0  0  0  0  0  0  0  0  0
   -5.2104   -0.1580   -1.6471 C   0  0  0  0  0  0  0  0  0  0  0  0
   -6.3474   -0.0464   -0.9278 N   0  0  0  0  0  0  0  0  0  0  0  0
  -10.1173    1.0395    1.6417 H   0  0  0  0  0  0  0  0  0  0  0  0
  -10.6796   -0.0471    0.3345 H   0  0  0  0  0  0  0  0  0  0  0  0
   -9.8732   -0.7229    1.7786 H   0  0  0  0  0  0  0  0  0  0  0  0
   -8.4387   -0.3514   -0.4000 H   0  0  0  0  0  0  0  0  0  0  0  0
   -5.1527    2.0287    1.4930 H   0  0  0  0  0  0  0  0  0  0  0  0
   -0.6935    2.7602   -0.8703 H   0  0  0  0  0  0  0  0  0  0  0  0
    1.4727    1.6312   -0.8669 H   0  0  0  0  0  0  0  0  0  0  0  0
    1.9946   -1.6298    0.9249 H   0  0  0  0  0  0  0  0  0  0  0  0
    3.7819   -2.3292    0.1578 H   0  0  0  0  0  0  0  0  0  0  0  0
    5.7458   -3.5067   -0.0538 H   0  0  0  0  0  0  0  0  0  0  0  0
    8.1685   -3.5354   -0.4092 H   0  0  0  0  0  0  0  0  0  0  0  0
    5.7775    0.8040   -0.2691 H   0  0  0  0  0  0  0  0  0  0  0  0
   -0.2221   -1.5646    1.5081 H   0  0  0  0  0  0  0  0  0  0  0  0
   -2.3879   -0.4150    1.4880 H   0  0  0  0  0  0  0  0  0  0  0  0
   -3.1444    0.3486   -1.9363 H   0  0  0  0  0  0  0  0  0  0  0  0
   -5.2816   -0.7773   -2.5373 H   0  0  0  0  0  0  0  0  0  0  0  0
  1  2  1  0
  2  3  1  0
  3  4  2  0
  3  5  1  0
  5  6  2  0
  6  7  1  0
  7  8  1  0
  8  9  1  0
  9 10  1  0
 10 11  2  0
 11 12  1  0
 12 13  1  0
 13 14  1  0
 14 15  2  0
 14 16  1  0
 16 17  1  0
 17 18  1  0
 18 19  2  0
 19 20  1  0
 20 21  1  0
 20 22  2  0
 22 23  1  0
 23 24  1  0
 23 25  1  0
 23 26  1  0
 22 27  1  0
 12 28  2  0
 28 29  1  0
  7 30  2  0
 30 31  1  0
 31 32  2  0
 32  5  1  0
 29  9  2  0
 27 17  2  0
  1 33  1  0
  1 34  1  0
  1 35  1  0
  2 36  1  0
  6 37  1  0
 10 38  1  0
 11 39  1  0
 13 40  1  0
 16 41  1  0
 18 42  1  0
 19 43  1  0
 27 44  1  0
 28 45  1  0
 29 46  1  0
 30 47  1  0
 31 48  1  0
M  END
$$$$
OCNT-0494023
     RDKit          3D

 55 58  0  0  0  0  0  0  0  0999 V2000
   -0.1668   -5.6436   -3.0804 C   0  0  0  0  0  0  0  0  0  0  0  0
    0.3217   -4.4825   -2.4218 O   0  0  0  0  0  0  0  0  0  0  0  0
   -0.5944   -3.5275   -2.0657 C   0  0  0  0  0  0  0  0  0  0  0  0
   -1.9841   -3.6772   -2.1540 C   0  0  0  0  0  0  0  0  0  0  0  0
   -2.8618   -2.6655   -1.7762 C   0  0  0  0  0  0  0  0  0  0  0  0
   -4.1746   -2.8890   -1.8919 N   0  0  0  0  0  0  0  0  0  0  0  0
   -4.9899   -1.8961   -1.5209 C   0  0  0  0  0  0  0  0  0  0  0  0
   -4.6151   -0.7010   -1.0540 N   0  0  0  0  0  0  0  0  0  0  0  0
   -3.2924   -0.4743   -0.9504 C   0  0  0  0  0  0  0  0  0  0  0  0
   -2.8350    0.7947   -0.4916 N   0  0  0  0  0  0  0  0  0  0  0  0
   -3.5839    1.8117    0.1429 C   0  0  0  0  0  0  0  0  0  0  0  0
   -3.1349    3.1415    0.0539 C   0  0  0  0  0  0  0  0  0  0  0  0
   -3.8118    4.1745    0.7083 C   0  0  0  0  0  0  0  0  0  0  0  0
   -4.9311    3.8816    1.4804 C   0  0  0  0  0  0  0  0  0  0  0  0
   -5.5695    4.8872    2.0984 F   0  0  0  0  0  0  0  0  0  0  0  0
   -5.3668    2.5673    1.6196 C   0  0  0  0  0  0  0  0  0  0  0  0
   -6.7317    2.1940    2.6061 Cl  0  0  0  0  0  0  0  0  0  0  0  0
   -4.6887    1.5365    0.9642 C   0  0  0  0  0  0  0  0  0  0  0  0
   -2.3405   -1.4543   -1.2980 C   0  0  0  0  0  0  0  0  0  0  0  0
   -0.9361   -1.2975   -1.1921 C   0  0  0  0  0  0  0  0  0  0  0  0
   -0.0749   -2.3328   -1.5563 C   0  0  0  0  0  0  0  0  0  0  0  0
    1.2864   -2.1745   -1.5100 O   0  0  0  0  0  0  0  0  0  0  0  0
    1.7877   -1.7954   -0.2218 C   0  0  0  0  0  0  0  0  0  0  0  0
    2.4654   -0.4313   -0.3355 C   0  0  0  0  0  0  0  0  0  0  0  0
    2.9849    0.0450    1.0237 C   0  0  0  0  0  0  0  0  0  0  0  0
    3.5112    1.4128    0.9503 N   0  0  0  0  0  0  0  0  0  0  0  0
    4.8247    1.5105    0.2733 C   0  0  0  0  0  0  0  0  0  0  0  0
    6.0008    1.7925    1.2261 C   0  0  0  0  0  0  0  0  0  0  0  0
    5.8336    2.9857    1.9997 O   0  0  0  0  0  0  0  0  0  0  0  0
    4.4606    3.2783    2.2950 C   0  0  0  0  0  0  0  0  0  0  0  0
    3.5692    2.0295    2.2931 C   0  0  0  0  0  0  0  0  0  0  0  0
   -0.7039   -5.3829   -3.9987 H   0  0  0  0  0  0  0  0  0  0  0  0
    0.6956   -6.2557   -3.3621 H   0  0  0  0  0  0  0  0  0  0  0  0
   -0.7937   -6.2413   -2.4103 H   0  0  0  0  0  0  0  0  0  0  0  0
   -2.4277   -4.5985   -2.5214 H   0  0  0  0  0  0  0  0  0  0  0  0
   -6.0567   -2.0767   -1.6125 H   0  0  0  0  0  0  0  0  0  0  0  0
   -2.1955    1.1764   -1.1844 H   0  0  0  0  0  0  0  0  0  0  0  0
   -2.2531    3.3886   -0.5335 H   0  0  0  0  0  0  0  0  0  0  0  0
   -3.4722    5.2023    0.6225 H   0  0  0  0  0  0  0  0  0  0  0  0
   -5.0261    0.5126    1.1044 H   0  0  0  0  0  0  0  0  0  0  0  0
   -0.5194   -0.3633   -0.8274 H   0  0  0  0  0  0  0  0  0  0  0  0
    1.0138   -1.7964    0.5567 H   0  0  0  0  0  0  0  0  0  0  0  0
    2.5274   -2.5513    0.0669 H   0  0  0  0  0  0  0  0  0  0  0  0
    1.7548    0.2984   -0.7440 H   0  0  0  0  0  0  0  0  0  0  0  0
    3.2750   -0.5000   -1.0731 H   0  0  0  0  0  0  0  0  0  0  0  0
    3.7401   -0.6476    1.4168 H   0  0  0  0  0  0  0  0  0  0  0  0
    2.1387    0.0242    1.7235 H   0  0  0  0  0  0  0  0  0  0  0  0
    5.0550    0.6188   -0.3181 H   0  0  0  0  0  0  0  0  0  0  0  0
    4.7534    2.3454   -0.4336 H   0  0  0  0  0  0  0  0  0  0  0  0
    6.9282    1.9043    0.6519 H   0  0  0  0  0  0  0  0  0  0  0  0
    6.1471    0.9543    1.9187 H   0  0  0  0  0  0  0  0  0  0  0  0
    4.1013    4.0134    1.5639 H   0  0  0  0  0  0  0  0  0  0  0  0
    4.4348    3.7568    3.2802 H   0  0  0  0  0  0  0  0  0  0  0  0
    2.5545    2.3032    2.6057 H   0  0  0  0  0  0  0  0  0  0  0  0
    3.9665    1.3141    3.0263 H   0  0  0  0  0  0  0  0  0  0  0  0
  1  2  1  0
  2  3  1  0
  3  4  2  0
  4  5  1  0
  5  6  2  0
  6  7  1  0
  7  8  2  0
  8  9  1  0
  9 10  1  0
 10 11  1  0
 11 12  1  0
 12 13  2  0
 13 14  1  0
 14 15  1  0
 14 16  2  0
 16 17  1  0
 16 18  1  0
  9 19  2  0
 19 20  1  0
 20 21  2  0
 21 22  1  0
 22 23  1  0
 23 24  1  0
 24 25  1  0
 25 26  1  0
 26 27  1  0
 27 28  1  0
 28 29  1  0
 29 30  1  0
 30 31  1  0
 21  3  1  0
 31 26  1  0
 19  5  1  0
 18 11  2  0
  1 32  1  0
  1 33  1  0
  1 34  1  0
  4 35  1  0
  7 36  1  0
 10 37  1  0
 12 38  1  0
 13 39  1  0
 18 40  1  0
 20 41  1  0
 23 42  1  0
 23 43  1  0
 24 44  1  0
 24 45  1  0
 25 46  1  0
 25 47  1  0
 27 48  1  0
 27 49  1  0
 28 50  1  0
 28 51  1  0
 30 52  1  0
 30 53  1  0
 31 54  1  0
 31 55  1  0
M  END
$$$$
OCNT-0494139
     RDKit          3D

 40 42  0  0  0  0  0  0  0  0999 V2000
   -3.6359    3.8743   -0.9523 C   0  0  0  0  0  0  0  0  0  0  0  0
   -3.0459    2.5252   -0.6646 C   0  0  0  0  0  0  0  0  0  0  0  0
   -3.2590    1.9081    0.5735 C   0  0  0  0  0  0  0  0  0  0  0  0
   -2.7372    0.6378    0.8314 C   0  0  0  0  0  0  0  0  0  0  0  0
   -1.9934   -0.0328   -0.1459 C   0  0  0  0  0  0  0  0  0  0  0  0
   -1.4622   -1.3655    0.1208 C   0  0  0  0  0  0  0  0  0  0  0  0
   -2.1973   -2.5189    0.3239 C   0  0  0  0  0  0  0  0  0  0  0  0
   -1.2689   -3.5793    0.3685 C   0  0  0  0  0  0  0  0  0  0  0  0
   -1.5821   -5.0422    0.5321 C   0  0  0  0  0  0  0  0  0  0  0  0
   -0.9731   -5.5870    1.6184 F   0  0  0  0  0  0  0  0  0  0  0  0
   -2.9180   -5.2560    0.6955 F   0  0  0  0  0  0  0  0  0  0  0  0
   -1.2071   -5.7781   -0.5476 F   0  0  0  0  0  0  0  0  0  0  0  0
   -0.0182   -3.1177    0.2101 N   0  0  0  0  0  0  0  0  0  0  0  0
   -0.1225   -1.7581    0.1467 N   0  0  0  0  0  0  0  0  0  0  0  0
    1.0824   -0.9824    0.1331 C   0  0  0  0  0  0  0  0  0  0  0  0
    1.0924    0.3978    0.3765 C   0  0  0  0  0  0  0  0  0  0  0  0
    2.2952    1.1144    0.3554 C   0  0  0  0  0  0  0  0  0  0  0  0
    3.4957    0.4520    0.0938 C   0  0  0  0  0  0  0  0  0  0  0  0
    5.0165    1.3538    0.1006 S   0  0  0  0  0  0  0  0  0  0  0  0
    5.1811    1.7665   -1.5186 N   0  0  0  0  0  0  0  0  0  0  0  0
    6.1052    0.4516    0.3936 O   0  0  0  0  0  0  0  0  0  0  0  0
    4.8293    2.5987    0.8087 O   0  0  0  0  0  0  0  0  0  0  0  0
    3.5103   -0.9261   -0.1177 C   0  0  0  0  0  0  0  0  0  0  0  0
    2.3077   -1.6385   -0.0966 C   0  0  0  0  0  0  0  0  0  0  0  0
   -1.8066    0.5699   -1.3957 C   0  0  0  0  0  0  0  0  0  0  0  0
   -2.3292    1.8400   -1.6523 C   0  0  0  0  0  0  0  0  0  0  0  0
   -3.0163    4.4271   -1.6664 H   0  0  0  0  0  0  0  0  0  0  0  0
   -4.6416    3.7617   -1.3688 H   0  0  0  0  0  0  0  0  0  0  0  0
   -3.6955    4.4770   -0.0400 H   0  0  0  0  0  0  0  0  0  0  0  0
   -3.8350    2.4127    1.3464 H   0  0  0  0  0  0  0  0  0  0  0  0
   -2.9124    0.1801    1.8025 H   0  0  0  0  0  0  0  0  0  0  0  0
   -3.2765   -2.5916    0.3753 H   0  0  0  0  0  0  0  0  0  0  0  0
    0.1953    0.9532    0.6258 H   0  0  0  0  0  0  0  0  0  0  0  0
    2.2839    2.1843    0.5549 H   0  0  0  0  0  0  0  0  0  0  0  0
    6.0195    1.3291   -1.9020 H   0  0  0  0  0  0  0  0  0  0  0  0
    5.1638    2.7817   -1.6191 H   0  0  0  0  0  0  0  0  0  0  0  0
    4.4446   -1.4540   -0.2964 H   0  0  0  0  0  0  0  0  0  0  0  0
    2.3435   -2.7138   -0.2693 H   0  0  0  0  0  0  0  0  0  0  0  0
   -1.2570    0.0553   -2.1811 H   0  0  0  0  0  0  0  0  0  0  0  0
   -2.1757    2.2896   -2.6311 H   0  0  0  0  0  0  0  0  0  0  0  0
  1  2  1  0
  2  3  1  0
  3  4  2  0
  4  5  1  0
  5  6  1  0
  6  7  2  0
  7  8  1  0
  8  9  1  0
  9 10  1  0
  9 11  1  0
  9 12  1  0
  8 13  2  0
 13 14  1  0
 14 15  1  0
 15 16  1  0
 16 17  2  0
 17 18  1  0
 18 19  1  0
 19 20  1  0
 19 21  2  0
 19 22  2  0
 18 23  2  0
 23 24  1  0
  5 25  2  0
 25 26  1  0
 26  2  2  0
 14  6  1  0
 24 15  2  0
  1 27  1  0
  1 28  1  0
  1 29  1  0
  3 30  1  0
  4 31  1  0
  7 32  1  0
 16 33  1  0
 17 34  1  0
 20 35  1  0
 20 36  1  0
 23 37  1  0
 24 38  1  0
 25 39  1  0
 26 40  1  0
M  END
$$$$
OCNT-0494161
     RDKit          3D

 48 51  0  0  0  0  0  0  0  0999 V2000
    5.1502   -0.7703    0.8758 C   0  0  0  0  0  0  0  0  0  0  0  0
    4.3592   -1.0814   -0.1594 C   0  0  0  0  0  0  0  0  0  0  0  0
    3.3775   -0.1798   -0.8794 C   0  0  1  0  0  0  0  0  0  0  0  0
    2.0305   -0.9081   -1.1721 C   0  0  0  0  0  0  0  0  0  0  0  0
    0.8575   -0.1512   -0.6603 N   0  0  0  0  0  0  0  0  0  0  0  0
    0.8142    1.1579   -1.3478 C   0  0  0  0  0  0  0  0  0  0  0  0
    2.1272    1.9396   -1.1980 C   0  0  0  0  0  0  0  0  0  0  0  0
    3.0498    1.1885   -0.2210 C   0  0  1  0  0  0  0  0  0  0  0  0
    2.2308    1.0045    1.0727 C   0  0  0  0  0  0  0  0  0  0  0  0
    1.0603    0.0252    0.8123 C   0  0  1  0  0  0  0  0  0  0  0  0
   -0.2322    0.4098    1.6018 C   0  0  2  0  0  0  0  0  0  0  0  0
    0.1110    0.7494    2.9576 O   0  0  0  0  0  0  0  0  0  0  0  0
   -1.2647   -0.7115    1.6362 C   0  0  0  0  0  0  0  0  0  0  0  0
   -1.0281   -1.7955    2.4980 C   0  0  0  0  0  0  0  0  0  0  0  0
   -1.9484   -2.8199    2.5598 C   0  0  0  0  0  0  0  0  0  0  0  0
   -3.0795   -2.8475    1.8336 N   0  0  0  0  0  0  0  0  0  0  0  0
   -3.3141   -1.8318    0.9894 C   0  0  0  0  0  0  0  0  0  0  0  0
   -4.4782   -1.8857    0.2398 C   0  0  0  0  0  0  0  0  0  0  0  0
   -4.8141   -0.8847   -0.6720 C   0  0  0  0  0  0  0  0  0  0  0  0
   -3.9715    0.2030   -0.8545 C   0  0  0  0  0  0  0  0  0  0  0  0
   -4.4008    1.1129   -1.7792 O   0  0  0  0  0  0  0  0  0  0  0  0
   -3.5195    2.1842   -2.0908 C   0  0  0  0  0  0  0  0  0  0  0  0
   -2.7982    0.2808   -0.1022 C   0  0  0  0  0  0  0  0  0  0  0  0
   -2.4415   -0.7260    0.8349 C   0  0  0  0  0  0  0  0  0  0  0  0
    5.8265   -1.5111    1.2932 H   0  0  0  0  0  0  0  0  0  0  0  0
    5.1633    0.2140    1.3305 H   0  0  0  0  0  0  0  0  0  0  0  0
    4.4454   -2.0903   -0.5644 H   0  0  0  0  0  0  0  0  0  0  0  0
    3.8436    0.0298   -1.8535 H   0  0  0  0  0  0  0  0  0  0  0  0
    1.9192   -1.0488   -2.2556 H   0  0  0  0  0  0  0  0  0  0  0  0
    2.0152   -1.9218   -0.7507 H   0  0  0  0  0  0  0  0  0  0  0  0
   -0.0174    1.7612   -0.9690 H   0  0  0  0  0  0  0  0  0  0  0  0
    0.5950    1.0052   -2.4121 H   0  0  0  0  0  0  0  0  0  0  0  0
    1.9192    2.9495   -0.8247 H   0  0  0  0  0  0  0  0  0  0  0  0
    2.6163    2.0513   -2.1731 H   0  0  0  0  0  0  0  0  0  0  0  0
    3.9539    1.7782   -0.0360 H   0  0  0  0  0  0  0  0  0  0  0  0
    1.8607    1.9835    1.4029 H   0  0  0  0  0  0  0  0  0  0  0  0
    2.8583    0.6173    1.8823 H   0  0  0  0  0  0  0  0  0  0  0  0
    1.3784   -0.9454    1.2220 H   0  0  0  0  0  0  0  0  0  0  0  0
   -0.6582    1.3296    1.1956 H   0  0  0  0  0  0  0  0  0  0  0  0
   -0.7250    0.7885    3.4548 H   0  0  0  0  0  0  0  0  0  0  0  0
   -0.1347   -1.8395    3.1145 H   0  0  0  0  0  0  0  0  0  0  0  0
   -1.7971   -3.6716    3.2164 H   0  0  0  0  0  0  0  0  0  0  0  0
   -5.1452   -2.7355    0.3651 H   0  0  0  0  0  0  0  0  0  0  0  0
   -5.7345   -0.9640   -1.2446 H   0  0  0  0  0  0  0  0  0  0  0  0
   -3.3706    2.8354   -1.2233 H   0  0  0  0  0  0  0  0  0  0  0  0
   -3.9860    2.7825   -2.8793 H   0  0  0  0  0  0  0  0  0  0  0  0
   -2.5638    1.8128   -2.4758 H   0  0  0  0  0  0  0  0  0  0  0  0
   -2.1398    1.1267   -0.2429 H   0  0  0  0  0  0  0  0  0  0  0  0
  1  2  2  0
  2  3  1  0
  3  4  1  0
  4  5  1  0
  5  6  1  0
  6  7  1  0
  7  8  1  0
  8  9  1  0
  9 10  1  0
 10 11  1  0
 11 12  1  0
 11 13  1  0
 13 14  2  0
 14 15  1  0
 15 16  2  0
 16 17  1  0
 17 18  2  0
 18 19  1  0
 19 20  2  0
 20 21  1  0
 21 22  1  0
 20 23  1  0
 23 24  2  0
  8  3  1  0
 24 13  1  0
 10  5  1  0
 24 17  1  0
  1 25  1  0
  1 26  1  0
  2 27  1  0
  3 28  1  6
  4 29  1  0
  4 30  1  0
  6 31  1  0
  6 32  1  0
  7 33  1  0
  7 34  1  0
  8 35  1  1
  9 36  1  0
  9 37  1  0
 10 38  1  1
 11 39  1  6
 12 40  1  0
 14 41  1  0
 15 42  1  0
 18 43  1  0
 19 44  1  0
 22 45  1  0
 22 46  1  0
 22 47  1  0
 23 48  1  0
M  END
$$$$
OCNT-0494166
     RDKit          3D

 51 54  0  0  0  0  0  0  0  0999 V2000
    3.2261    2.2353   -2.2124 C   0  0  0  0  0  0  0  0  0  0  0  0
    3.2549    1.3224   -1.4316 C   0  0  0  0  0  0  0  0  0  0  0  0
    3.3090    0.2011   -0.4641 C   0  0  2  0  0  0  0  0  0  0  0  0
    4.4477    0.4084    0.3497 O   0  0  0  0  0  0  0  0  0  0  0  0
    3.4471   -1.1599   -1.2114 C   0  0  0  0  0  0  0  0  0  0  0  0
    2.0297   -1.7772   -1.2902 C   0  0  0  0  0  0  0  0  0  0  0  0
    1.1383   -0.6556   -0.7851 C   0  0  1  0  0  0  0  0  0  0  0  0
   -0.2927   -0.8764   -0.3285 C   0  0  2  0  0  0  0  0  0  0  0  0
   -1.1164   -1.8461   -1.1714 C   0  0  0  0  0  0  0  0  0  0  0  0
   -2.4991   -2.0142   -0.5360 C   0  0  0  0  0  0  0  0  0  0  0  0
   -3.1968   -0.6999   -0.2456 C   0  0  0  0  0  0  0  0  0  0  0  0
   -4.5052   -0.5726   -0.5292 C   0  0  0  0  0  0  0  0  0  0  0  0
   -5.2646    0.6372   -0.1403 C   0  0  0  0  0  0  0  0  0  0  0  0
   -6.4429    0.7464   -0.4688 O   0  0  0  0  0  0  0  0  0  0  0  0
   -4.5710    1.6465    0.7348 C   0  0  0  0  0  0  0  0  0  0  0  0
   -3.1075    1.7701    0.3427 C   0  0  0  0  0  0  0  0  0  0  0  0
   -2.3609    0.4201    0.3869 C   0  0  2  0  0  0  0  0  0  0  0  0
   -0.9862    0.5145   -0.3336 C   0  0  1  0  0  0  0  0  0  0  0  0
   -0.0334    1.6695    0.0956 C   0  0  0  0  0  0  0  0  0  0  0  0
    1.2376    1.2736    0.8653 C   0  0  0  0  0  0  0  0  0  0  0  0
    1.9825    0.0146    0.3438 C   0  0  2  0  0  0  0  0  0  0  0  0
    2.2076   -0.9436    1.5869 C   0  0  0  0  0  0  0  0  0  0  0  0
    3.0490   -0.3969    2.7419 C   0  0  0  0  0  0  0  0  0  0  0  0
    3.2060    3.0420   -2.9086 H   0  0  0  0  0  0  0  0  0  0  0  0
    4.3809    1.3105    0.7060 H   0  0  0  0  0  0  0  0  0  0  0  0
    4.1182   -1.8436   -0.6775 H   0  0  0  0  0  0  0  0  0  0  0  0
    3.8655   -1.0344   -2.2174 H   0  0  0  0  0  0  0  0  0  0  0  0
    1.9569   -2.6760   -0.6695 H   0  0  0  0  0  0  0  0  0  0  0  0
    1.7808   -2.0657   -2.3168 H   0  0  0  0  0  0  0  0  0  0  0  0
    1.0611    0.0255   -1.6482 H   0  0  0  0  0  0  0  0  0  0  0  0
   -0.2980   -1.2703    0.6927 H   0  0  0  0  0  0  0  0  0  0  0  0
   -0.6258   -2.8248   -1.2205 H   0  0  0  0  0  0  0  0  0  0  0  0
   -1.2132   -1.4809   -2.2012 H   0  0  0  0  0  0  0  0  0  0  0  0
   -3.1089   -2.6521   -1.1874 H   0  0  0  0  0  0  0  0  0  0  0  0
   -2.3898   -2.5536    0.4140 H   0  0  0  0  0  0  0  0  0  0  0  0
   -5.0897   -1.3594   -0.9933 H   0  0  0  0  0  0  0  0  0  0  0  0
   -5.0640    2.6167    0.6106 H   0  0  0  0  0  0  0  0  0  0  0  0
   -4.6774    1.3351    1.7796 H   0  0  0  0  0  0  0  0  0  0  0  0
   -2.6360    2.4890    1.0208 H   0  0  0  0  0  0  0  0  0  0  0  0
   -3.0447    2.1944   -0.6685 H   0  0  0  0  0  0  0  0  0  0  0  0
   -2.1906    0.1531    1.4388 H   0  0  0  0  0  0  0  0  0  0  0  0
   -1.2260    0.7481   -1.3849 H   0  0  0  0  0  0  0  0  0  0  0  0
   -0.5586    2.4346    0.6731 H   0  0  0  0  0  0  0  0  0  0  0  0
    0.2910    2.1831   -0.8199 H   0  0  0  0  0  0  0  0  0  0  0  0
    1.9203    2.1299    0.9182 H   0  0  0  0  0  0  0  0  0  0  0  0
    0.9014    1.1081    1.8970 H   0  0  0  0  0  0  0  0  0  0  0  0
    2.6542   -1.8958    1.2831 H   0  0  0  0  0  0  0  0  0  0  0  0
    1.2355   -1.2048    2.0192 H   0  0  0  0  0  0  0  0  0  0  0  0
    2.8016    0.6370    2.9942 H   0  0  0  0  0  0  0  0  0  0  0  0
    4.1190   -0.4577    2.5301 H   0  0  0  0  0  0  0  0  0  0  0  0
    2.8775   -1.0056    3.6368 H   0  0  0  0  0  0  0  0  0  0  0  0
  1  2  3  0
  3  2  1  6
  3  4  1  0
  3  5  1  0
  5  6  1  0
  6  7  1  0
  7  8  1  0
  8  9  1  0
  9 10  1  0
 10 11  1  0
 11 12  2  0
 12 13  1  0
 13 14  2  0
 13 15  1  0
 15 16  1  0
 16 17  1  0
 17 18  1  0
 18 19  1  0
 19 20  1  0
 20 21  1  0
 21 22  1  1
 22 23  1  0
 21  3  1  0
 21  7  1  0
 18  8  1  0
 17 11  1  0
  1 24  1  0
  4 25  1  0
  5 26  1  0
  5 27  1  0
  6 28  1  0
  6 29  1  0
  7 30  1  6
  8 31  1  1
  9 32  1  0
  9 33  1  0
 10 34  1  0
 10 35  1  0
 12 36  1  0
 15 37  1  0
 15 38  1  0
 16 39  1  0
 16 40  1  0
 17 41  1  1
 18 42  1  6
 19 43  1  0
 19 44  1  0
 20 45  1  0
 20 46  1  0
 22 47  1  0
 22 48  1  0
 23 49  1  0
 23 50  1  0
 23 51  1  0
M  END
$$$$
OCNT-0494811
     RDKit          3D

 35 36  0  0  0  0  0  0  0  0999 V2000
   -2.1996    0.0579    2.2878 O   0  0  0  0  0  0  0  0  0  0  0  0
   -1.9864    0.4291    1.1391 C   0  0  0  0  0  0  0  0  0  0  0  0
   -0.9148    1.2216    0.7815 N   0  0  0  0  0  0  0  0  0  0  0  0
    0.1399    1.5087    1.7399 C   0  0  0  0  0  0  0  0  0  0  0  0
    1.1882    0.3795    1.7768 C   0  0  0  0  0  0  0  0  0  0  0  0
    1.7642    0.1016    0.4428 N   0  0  0  0  0  0  0  0  0  0  0  0
    2.3735   -1.2474    0.4204 C   0  0  0  0  0  0  0  0  0  0  0  0
    3.3744   -1.3973   -0.7341 C   0  0  0  0  0  0  0  0  0  0  0  0
    4.5000   -0.5165   -0.6129 O   0  0  0  0  0  0  0  0  0  0  0  0
    4.2100    0.6671    0.1408 C   0  0  0  0  0  0  0  0  0  0  0  0
    2.7464    1.1213    0.0116 C   0  0  0  0  0  0  0  0  0  0  0  0
   -2.8821   -0.0101    0.0317 C   0  0  0  0  0  0  0  0  0  0  0  0
   -3.0065    0.7196   -1.1588 C   0  0  0  0  0  0  0  0  0  0  0  0
   -3.8626    0.2699   -2.1693 C   0  0  0  0  0  0  0  0  0  0  0  0
   -4.5977   -0.9013   -1.9881 C   0  0  0  0  0  0  0  0  0  0  0  0
   -5.6490   -1.4503   -3.2341 Cl  0  0  0  0  0  0  0  0  0  0  0  0
   -4.4914   -1.6258   -0.8025 C   0  0  0  0  0  0  0  0  0  0  0  0
   -3.6372   -1.1780    0.2088 C   0  0  0  0  0  0  0  0  0  0  0  0
   -0.6023    1.1725   -0.1799 H   0  0  0  0  0  0  0  0  0  0  0  0
    0.5902    2.4608    1.4438 H   0  0  0  0  0  0  0  0  0  0  0  0
   -0.2969    1.6399    2.7359 H   0  0  0  0  0  0  0  0  0  0  0  0
    1.9750    0.6194    2.5026 H   0  0  0  0  0  0  0  0  0  0  0  0
    0.6808   -0.5236    2.1415 H   0  0  0  0  0  0  0  0  0  0  0  0
    1.5799   -1.9956    0.3172 H   0  0  0  0  0  0  0  0  0  0  0  0
    2.9024   -1.4428    1.3628 H   0  0  0  0  0  0  0  0  0  0  0  0
    2.8901   -1.2020   -1.6982 H   0  0  0  0  0  0  0  0  0  0  0  0
    3.7620   -2.4206   -0.7666 H   0  0  0  0  0  0  0  0  0  0  0  0
    4.4664    0.4781    1.1898 H   0  0  0  0  0  0  0  0  0  0  0  0
    4.8796    1.4550   -0.2190 H   0  0  0  0  0  0  0  0  0  0  0  0
    2.5440    1.3222   -1.0480 H   0  0  0  0  0  0  0  0  0  0  0  0
    2.6122    2.0728    0.5367 H   0  0  0  0  0  0  0  0  0  0  0  0
   -2.4658    1.6504   -1.3056 H   0  0  0  0  0  0  0  0  0  0  0  0
   -3.9578    0.8409   -3.0895 H   0  0  0  0  0  0  0  0  0  0  0  0
   -5.0696   -2.5344   -0.6559 H   0  0  0  0  0  0  0  0  0  0  0  0
   -3.5596   -1.7425    1.1365 H   0  0  0  0  0  0  0  0  0  0  0  0
  1  2  2  0
  2  3  1  0
  3  4  1  0
  4  5  1  0
  5  6  1  0
  6  7  1  0
  7  8  1  0
  8  9  1  0
  9 10  1  0
 10 11  1  0
  2 12  1  0
 12 13  1  0
 13 14  2  0
 14 15  1  0
 15 16  1  0
 15 17  2  0
 17 18  1  0
 11  6  1  0
 18 12  2  0
  3 19  1  0
  4 20  1  0
  4 21  1  0
  5 22  1  0
  5 23  1  0
  7 24  1  0
  7 25  1  0
  8 26  1  0
  8 27  1  0
 10 28  1  0
 10 29  1  0
 11 30  1  0
 11 31  1  0
 13 32  1  0
 14 33  1  0
 17 34  1  0
 18 35  1  0
M  END
$$$$
OCNT-0495153
     RDKit          3D

 55 58  0  0  0  0  0  0  0  0999 V2000
    6.2581    1.4783    1.7594 C   0  0  0  0  0  0  0  0  0  0  0  0
    5.6986    0.6339    0.6531 C   0  0  0  0  0  0  0  0  0  0  0  0
    6.2236   -0.6367    0.3962 C   0  0  0  0  0  0  0  0  0  0  0  0
    5.6854   -1.4300   -0.6163 C   0  0  0  0  0  0  0  0  0  0  0  0
    4.6084   -0.9660   -1.3715 C   0  0  0  0  0  0  0  0  0  0  0  0
    4.0489    0.2940   -1.1177 C   0  0  0  0  0  0  0  0  0  0  0  0
    2.8757    0.7978   -1.9333 C   0  0  0  0  0  0  0  0  0  0  0  0
    1.5397    0.5567   -1.3896 N   0  0  0  0  0  0  0  0  0  0  0  0
    1.1089   -0.8460   -1.4048 C   0  0  0  0  0  0  0  0  0  0  0  0
   -0.1099   -1.1544   -0.4910 C   0  0  0  0  0  0  0  0  0  0  0  0
   -1.0179    0.0002   -0.3425 N   0  0  0  0  0  0  0  0  0  0  0  0
   -2.2347   -0.3313    0.4491 C   0  0  0  0  0  0  0  0  0  0  0  0
   -3.0649   -1.4748   -0.1504 C   0  0  0  0  0  0  0  0  0  0  0  0
   -3.3543   -1.5364   -1.5249 C   0  0  0  0  0  0  0  0  0  0  0  0
   -4.1284   -2.5740   -2.0468 C   0  0  0  0  0  0  0  0  0  0  0  0
   -4.6306   -3.5617   -1.2027 C   0  0  0  0  0  0  0  0  0  0  0  0
   -4.3608   -3.5128    0.1633 C   0  0  0  0  0  0  0  0  0  0  0  0
   -3.5859   -2.4759    0.6874 C   0  0  0  0  0  0  0  0  0  0  0  0
   -3.1493    0.8781    0.7026 C   0  0  0  0  0  0  0  0  0  0  0  0
   -3.6479    1.1208    1.9947 C   0  0  0  0  0  0  0  0  0  0  0  0
   -4.4961    2.2040    2.2397 C   0  0  0  0  0  0  0  0  0  0  0  0
   -4.8578    3.0514    1.1950 C   0  0  0  0  0  0  0  0  0  0  0  0
   -5.9008    4.3857    1.4998 Cl  0  0  0  0  0  0  0  0  0  0  0  0
   -4.3810    2.8256   -0.0932 C   0  0  0  0  0  0  0  0  0  0  0  0
   -3.5338    1.7426   -0.3383 C   0  0  0  0  0  0  0  0  0  0  0  0
   -0.2551    1.1276    0.2554 C   0  0  0  0  0  0  0  0  0  0  0  0
    1.2563    1.1892   -0.1057 C   0  0  0  0  0  0  0  0  0  0  0  0
    4.6069    1.0861   -0.1009 C   0  0  0  0  0  0  0  0  0  0  0  0
    6.1641    2.5434    1.5229 H   0  0  0  0  0  0  0  0  0  0  0  0
    7.3232    1.2722    1.9087 H   0  0  0  0  0  0  0  0  0  0  0  0
    5.7241    1.2739    2.6924 H   0  0  0  0  0  0  0  0  0  0  0  0
    7.0593   -1.0147    0.9806 H   0  0  0  0  0  0  0  0  0  0  0  0
    6.1057   -2.4120   -0.8171 H   0  0  0  0  0  0  0  0  0  0  0  0
    4.2034   -1.5957   -2.1605 H   0  0  0  0  0  0  0  0  0  0  0  0
    3.0037    1.8770   -2.0937 H   0  0  0  0  0  0  0  0  0  0  0  0
    2.9347    0.3715   -2.9440 H   0  0  0  0  0  0  0  0  0  0  0  0
    0.8446   -1.1022   -2.4380 H   0  0  0  0  0  0  0  0  0  0  0  0
    1.9115   -1.5245   -1.0980 H   0  0  0  0  0  0  0  0  0  0  0  0
    0.2563   -1.4630    0.4981 H   0  0  0  0  0  0  0  0  0  0  0  0
   -0.6195   -2.0216   -0.9236 H   0  0  0  0  0  0  0  0  0  0  0  0
   -1.8753   -0.6764    1.4305 H   0  0  0  0  0  0  0  0  0  0  0  0
   -2.9645   -0.7745   -2.1967 H   0  0  0  0  0  0  0  0  0  0  0  0
   -4.3396   -2.6085   -3.1122 H   0  0  0  0  0  0  0  0  0  0  0  0
   -5.2355   -4.3676   -1.6095 H   0  0  0  0  0  0  0  0  0  0  0  0
   -4.7580   -4.2805    0.8221 H   0  0  0  0  0  0  0  0  0  0  0  0
   -3.3943   -2.4521    1.7575 H   0  0  0  0  0  0  0  0  0  0  0  0
   -3.3816    0.4637    2.8195 H   0  0  0  0  0  0  0  0  0  0  0  0
   -4.8728    2.3778    3.2439 H   0  0  0  0  0  0  0  0  0  0  0  0
   -4.6623    3.4838   -0.9103 H   0  0  0  0  0  0  0  0  0  0  0  0
   -3.1614    1.5764   -1.3474 H   0  0  0  0  0  0  0  0  0  0  0  0
   -0.7126    2.0629   -0.0874 H   0  0  0  0  0  0  0  0  0  0  0  0
   -0.3224    1.1112    1.3512 H   0  0  0  0  0  0  0  0  0  0  0  0
    1.5587    2.2433   -0.1181 H   0  0  0  0  0  0  0  0  0  0  0  0
    1.8233    0.6950    0.6937 H   0  0  0  0  0  0  0  0  0  0  0  0
    4.1863    2.0692    0.1024 H   0  0  0  0  0  0  0  0  0  0  0  0
  1  2  1  0
  2  3  1  0
  3  4  2  0
  4  5  1  0
  5  6  2  0
  6  7  1  0
  7  8  1  0
  8  9  1  0
  9 10  1  0
 10 11  1  0
 11 12  1  0
 12 13  1  0
 13 14  2  0
 14 15  1  0
 15 16  2  0
 16 17  1  0
 17 18  2  0
 12 19  1  0
 19 20  1  0
 20 21  2  0
 21 22  1  0
 22 23  1  0
 22 24  2  0
 24 25  1  0
 11 26  1  0
 26 27  1  0
  6 28  1  0
 28  2  2  0
 27  8  1  0
 18 13  1  0
 25 19  2  0
  1 29  1  0
  1 30  1  0
  1 31  1  0
  3 32  1  0
  4 33  1  0
  5 34  1  0
  7 35  1  0
  7 36  1  0
  9 37  1  0
  9 38  1  0
 10 39  1  0
 10 40  1  0
 12 41  1  0
 14 42  1  0
 15 43  1  0
 16 44  1  0
 17 45  1  0
 18 46  1  0
 20 47  1  0
 21 48  1  0
 24 49  1  0
 25 50  1  0
 26 51  1  0
 26 52  1  0
 27 53  1  0
 27 54  1  0
 28 55  1  0
M  END
$$$$
OCNT-0495216
     RDKit          3D

 57 58  0  0  0  0  0  0  0  0999 V2000
    4.2794   -2.7901   -1.3751 C   0  0  0  0  0  0  0  0  0  0  0  0
    4.9855   -1.4821   -1.0336 C   0  0  0  0  0  0  0  0  0  0  0  0
    5.0857   -1.2371    0.4079 N   0  0  0  0  0  0  0  0  0  0  0  0
    6.0418   -0.1808    0.7561 C   0  0  0  0  0  0  0  0  0  0  0  0
    5.7304    1.2329    0.2782 C   0  0  0  0  0  0  0  0  0  0  0  0
    3.8117   -1.1630    1.1306 C   0  0  0  0  0  0  0  0  0  0  0  0
    2.8400   -0.2027    0.5862 C   0  0  0  0  0  0  0  0  0  0  0  0
    2.0274    0.5618    0.1396 C   0  0  0  0  0  0  0  0  0  0  0  0
    1.0187    1.4739   -0.4075 C   0  0  0  0  0  0  0  0  0  0  0  0
   -0.2731    0.8605   -0.3312 O   0  0  0  0  0  0  0  0  0  0  0  0
   -0.9873    1.1287    0.7925 C   0  0  0  0  0  0  0  0  0  0  0  0
   -0.6504    1.9168    1.6743 O   0  0  0  0  0  0  0  0  0  0  0  0
   -2.3105    0.3162    0.8664 C   0  0  0  0  0  0  0  0  0  0  0  0
   -2.8094    0.4112    2.2234 O   0  0  0  0  0  0  0  0  0  0  0  0
   -2.0713   -1.1900    0.6891 C   0  0  0  0  0  0  0  0  0  0  0  0
   -0.9684   -1.7993    1.3244 C   0  0  0  0  0  0  0  0  0  0  0  0
   -0.7197   -3.1691    1.2035 C   0  0  0  0  0  0  0  0  0  0  0  0
   -1.5798   -3.9691    0.4607 C   0  0  0  0  0  0  0  0  0  0  0  0
   -2.6931   -3.4006   -0.1483 C   0  0  0  0  0  0  0  0  0  0  0  0
   -2.9416   -2.0286   -0.0264 C   0  0  0  0  0  0  0  0  0  0  0  0
   -3.3987    0.9826   -0.0450 C   0  0  0  0  0  0  0  0  0  0  0  0
   -3.7559    2.4219    0.4037 C   0  0  0  0  0  0  0  0  0  0  0  0
   -4.8947    3.0089   -0.4314 C   0  0  0  0  0  0  0  0  0  0  0  0
   -4.5881    2.9663   -1.9240 C   0  0  0  0  0  0  0  0  0  0  0  0
   -4.2095    1.5614   -2.3797 C   0  0  0  0  0  0  0  0  0  0  0  0
   -3.0554    0.9992   -1.5501 C   0  0  0  0  0  0  0  0  0  0  0  0
    4.3591   -2.9872   -2.4498 H   0  0  0  0  0  0  0  0  0  0  0  0
    3.2146   -2.7561   -1.1259 H   0  0  0  0  0  0  0  0  0  0  0  0
    4.7338   -3.6342   -0.8463 H   0  0  0  0  0  0  0  0  0  0  0  0
    5.9972   -1.5506   -1.4533 H   0  0  0  0  0  0  0  0  0  0  0  0
    4.4885   -0.6569   -1.5555 H   0  0  0  0  0  0  0  0  0  0  0  0
    7.0254   -0.4648    0.3604 H   0  0  0  0  0  0  0  0  0  0  0  0
    6.1763   -0.1616    1.8449 H   0  0  0  0  0  0  0  0  0  0  0  0
    4.8495    1.6446    0.7765 H   0  0  0  0  0  0  0  0  0  0  0  0
    5.5782    1.2760   -0.8037 H   0  0  0  0  0  0  0  0  0  0  0  0
    6.5712    1.8935    0.5158 H   0  0  0  0  0  0  0  0  0  0  0  0
    3.9985   -0.9338    2.1873 H   0  0  0  0  0  0  0  0  0  0  0  0
    3.3537   -2.1596    1.1442 H   0  0  0  0  0  0  0  0  0  0  0  0
    1.2206    1.6562   -1.4683 H   0  0  0  0  0  0  0  0  0  0  0  0
    1.0408    2.4508    0.0878 H   0  0  0  0  0  0  0  0  0  0  0  0
   -2.3801    1.1944    2.6204 H   0  0  0  0  0  0  0  0  0  0  0  0
   -0.2898   -1.2099    1.9387 H   0  0  0  0  0  0  0  0  0  0  0  0
    0.1397   -3.6093    1.7008 H   0  0  0  0  0  0  0  0  0  0  0  0
   -1.3925   -5.0357    0.3697 H   0  0  0  0  0  0  0  0  0  0  0  0
   -3.3796   -4.0266   -0.7127 H   0  0  0  0  0  0  0  0  0  0  0  0
   -3.8392   -1.6417   -0.4979 H   0  0  0  0  0  0  0  0  0  0  0  0
   -4.3274    0.4083    0.0852 H   0  0  0  0  0  0  0  0  0  0  0  0
   -2.8780    3.0737    0.3162 H   0  0  0  0  0  0  0  0  0  0  0  0
   -4.0613    2.4343    1.4560 H   0  0  0  0  0  0  0  0  0  0  0  0
   -5.8167    2.4482   -0.2331 H   0  0  0  0  0  0  0  0  0  0  0  0
   -5.0805    4.0442   -0.1234 H   0  0  0  0  0  0  0  0  0  0  0  0
   -5.4582    3.3163   -2.4901 H   0  0  0  0  0  0  0  0  0  0  0  0
   -3.7643    3.6562   -2.1450 H   0  0  0  0  0  0  0  0  0  0  0  0
   -3.9249    1.5837   -3.4380 H   0  0  0  0  0  0  0  0  0  0  0  0
   -5.0795    0.8982   -2.2964 H   0  0  0  0  0  0  0  0  0  0  0  0
   -2.1733    1.6232   -1.7332 H   0  0  0  0  0  0  0  0  0  0  0  0
   -2.8154   -0.0036   -1.9156 H   0  0  0  0  0  0  0  0  0  0  0  0
  1  2  1  0
  2  3  1  0
  3  4  1  0
  4  5  1  0
  3  6  1  0
  6  7  1  0
  7  8  3  0
  8  9  1  0
  9 10  1  0
 10 11  1  0
 11 12  2  0
 11 13  1  0
 13 14  1  0
 13 15  1  0
 15 16  2  0
 16 17  1  0
 17 18  2  0
 18 19  1  0
 19 20  2  0
 13 21  1  0
 21 22  1  0
 22 23  1  0
 23 24  1  0
 24 25  1  0
 25 26  1  0
 20 15  1  0
 26 21  1  0
  1 27  1  0
  1 28  1  0
  1 29  1  0
  2 30  1  0
  2 31  1  0
  4 32  1  0
  4 33  1  0
  5 34  1  0
  5 35  1  0
  5 36  1  0
  6 37  1  0
  6 38  1  0
  9 39  1  0
  9 40  1  0
 14 41  1  0
 16 42  1  0
 17 43  1  0
 18 44  1  0
 19 45  1  0
 20 46  1  0
 21 47  1  0
 22 48  1  0
 22 49  1  0
 23 50  1  0
 23 51  1  0
 24 52  1  0
 24 53  1  0
 25 54  1  0
 25 55  1  0
 26 56  1  0
 26 57  1  0
M  END
$$$$
OCNT-0495340
     RDKit          3D

 98101  0  0  0  0  0  0  0  0999 V2000
   -7.7741    1.8812    1.4462 C   0  0  0  0  0  0  0  0  0  0  0  0
   -8.4968    1.3512    0.2055 C   0  0  0  0  0  0  0  0  0  0  0  0
   -7.8854    1.9376   -1.0658 C   0  0  0  0  0  0  0  0  0  0  0  0
   -8.4440   -0.1556    0.1754 C   0  0  0  0  0  0  0  0  0  0  0  0
   -7.3677   -0.8576   -0.1246 N   0  0  0  0  0  0  0  0  0  0  0  0
   -7.6410   -2.2213   -0.0167 C   0  0  0  0  0  0  0  0  0  0  0  0
   -6.5362   -3.2014   -0.2739 C   0  0  0  0  0  0  0  0  0  0  0  0
   -5.6327   -3.2194    0.8737 N   0  0  0  0  0  0  0  0  0  0  0  0
   -5.8042   -4.2969    1.8298 C   0  0  0  0  0  0  0  0  0  0  0  0
   -4.5368   -2.3825    1.0058 C   0  0  0  0  0  0  0  0  0  0  0  0
   -3.6659   -2.5594    1.8525 O   0  0  0  0  0  0  0  0  0  0  0  0
   -4.5158   -1.3313    0.1257 N   0  0  0  0  0  0  0  0  0  0  0  0
   -3.4344   -0.3450    0.1004 C   0  0  2  0  0  0  0  0  0  0  0  0
   -2.1383   -0.9375   -0.5326 C   0  0  0  0  0  0  0  0  0  0  0  0
   -2.0322   -2.0979   -0.9270 O   0  0  0  0  0  0  0  0  0  0  0  0
   -1.1156   -0.0188   -0.6969 N   0  0  0  0  0  0  0  0  0  0  0  0
    0.1911   -0.3906   -1.2669 C   0  0  1  0  0  0  0  0  0  0  0  0
    0.0847   -0.3586   -2.8116 C   0  0  0  0  0  0  0  0  0  0  0  0
    1.3142   -0.7990   -3.5653 C   0  0  0  0  0  0  0  0  0  0  0  0
    1.7783   -2.1158   -3.4549 C   0  0  0  0  0  0  0  0  0  0  0  0
    2.9220   -2.5237   -4.1425 C   0  0  0  0  0  0  0  0  0  0  0  0
    3.6066   -1.6243   -4.9589 C   0  0  0  0  0  0  0  0  0  0  0  0
    3.1461   -0.3156   -5.0864 C   0  0  0  0  0  0  0  0  0  0  0  0
    2.0047    0.0970   -4.3938 C   0  0  0  0  0  0  0  0  0  0  0  0
    1.2542    0.5864   -0.7079 C   0  0  0  0  0  0  0  0  0  0  0  0
    2.6861    0.0280   -0.6279 C   0  0  2  0  0  0  0  0  0  0  0  0
    2.6508   -1.1562    0.1792 O   0  0  0  0  0  0  0  0  0  0  0  0
    3.6982    1.0601   -0.0422 C   0  0  2  0  0  0  0  0  0  0  0  0
    3.8829    2.2874   -0.9612 C   0  0  0  0  0  0  0  0  0  0  0  0
    4.7715    3.3542   -0.3580 C   0  0  0  0  0  0  0  0  0  0  0  0
    4.3180    4.1328    0.7171 C   0  0  0  0  0  0  0  0  0  0  0  0
    5.1414    5.1079    1.2827 C   0  0  0  0  0  0  0  0  0  0  0  0
    6.4242    5.3148    0.7821 C   0  0  0  0  0  0  0  0  0  0  0  0
    6.8847    4.5467   -0.2857 C   0  0  0  0  0  0  0  0  0  0  0  0
    6.0634    3.5704   -0.8543 C   0  0  0  0  0  0  0  0  0  0  0  0
    4.9898    0.4210    0.2142 N   0  0  0  0  0  0  0  0  0  0  0  0
    5.2712   -0.2387    1.3672 C   0  0  0  0  0  0  0  0  0  0  0  0
    4.5027   -0.3524    2.3110 O   0  0  0  0  0  0  0  0  0  0  0  0
    6.5211   -0.7461    1.2992 O   0  0  0  0  0  0  0  0  0  0  0  0
    6.9494   -1.3687    2.5123 C   0  0  0  0  0  0  0  0  0  0  0  0
    8.3754   -1.7495    2.3083 C   0  0  0  0  0  0  0  0  0  0  0  0
    8.9117   -2.9815    1.9913 C   0  0  0  0  0  0  0  0  0  0  0  0
   10.2882   -3.0282    1.8815 N   0  0  0  0  0  0  0  0  0  0  0  0
   10.7794   -1.8296    2.1036 C   0  0  0  0  0  0  0  0  0  0  0  0
    9.6410   -0.5980    2.4570 S   0  0  0  0  0  0  0  0  0  0  0  0
   -3.2919    0.4163    1.4508 C   0  0  0  0  0  0  0  0  0  0  0  0
   -3.4021    1.9319    1.2397 C   0  0  0  0  0  0  0  0  0  0  0  0
   -2.0243    0.1066    2.2558 C   0  0  0  0  0  0  0  0  0  0  0  0
   -8.9417   -2.5193    0.3487 C   0  0  0  0  0  0  0  0  0  0  0  0
   -9.8377   -1.0811    0.5785 S   0  0  0  0  0  0  0  0  0  0  0  0
   -6.7249    1.5617    1.4711 H   0  0  0  0  0  0  0  0  0  0  0  0
   -8.2489    1.5168    2.3630 H   0  0  0  0  0  0  0  0  0  0  0  0
   -7.7947    2.9758    1.4761 H   0  0  0  0  0  0  0  0  0  0  0  0
   -9.5400    1.6844    0.2553 H   0  0  0  0  0  0  0  0  0  0  0  0
   -7.9367    3.0302   -1.0488 H   0  0  0  0  0  0  0  0  0  0  0  0
   -6.8355    1.6454   -1.1843 H   0  0  0  0  0  0  0  0  0  0  0  0
   -8.4267    1.5903   -1.9518 H   0  0  0  0  0  0  0  0  0  0  0  0
   -5.9876   -2.9174   -1.1803 H   0  0  0  0  0  0  0  0  0  0  0  0
   -6.9339   -4.2096   -0.4372 H   0  0  0  0  0  0  0  0  0  0  0  0
   -5.2029   -4.1458    2.7286 H   0  0  0  0  0  0  0  0  0  0  0  0
   -5.5052   -5.2361    1.3565 H   0  0  0  0  0  0  0  0  0  0  0  0
   -6.8548   -4.3548    2.1226 H   0  0  0  0  0  0  0  0  0  0  0  0
   -5.4430   -0.9704   -0.0813 H   0  0  0  0  0  0  0  0  0  0  0  0
   -3.7860    0.3699   -0.6576 H   0  0  0  0  0  0  0  0  0  0  0  0
   -1.3223    0.9610   -0.5708 H   0  0  0  0  0  0  0  0  0  0  0  0
    0.4038   -1.4119   -0.9302 H   0  0  0  0  0  0  0  0  0  0  0  0
   -0.1994    0.6544   -3.1285 H   0  0  0  0  0  0  0  0  0  0  0  0
   -0.7463   -0.9968   -3.1391 H   0  0  0  0  0  0  0  0  0  0  0  0
    1.2556   -2.8308   -2.8210 H   0  0  0  0  0  0  0  0  0  0  0  0
    3.2777   -3.5454   -4.0403 H   0  0  0  0  0  0  0  0  0  0  0  0
    4.4913   -1.9483   -5.5001 H   0  0  0  0  0  0  0  0  0  0  0  0
    3.6753    0.3835   -5.7287 H   0  0  0  0  0  0  0  0  0  0  0  0
    1.6563    1.1203   -4.5115 H   0  0  0  0  0  0  0  0  0  0  0  0
    0.9627    0.8589    0.3165 H   0  0  0  0  0  0  0  0  0  0  0  0
    1.2212    1.5108   -1.2929 H   0  0  0  0  0  0  0  0  0  0  0  0
    3.0456   -0.2827   -1.6116 H   0  0  0  0  0  0  0  0  0  0  0  0
    2.8357   -0.9102    1.1096 H   0  0  0  0  0  0  0  0  0  0  0  0
    3.3145    1.3894    0.9339 H   0  0  0  0  0  0  0  0  0  0  0  0
    2.9203    2.7604   -1.1828 H   0  0  0  0  0  0  0  0  0  0  0  0
    4.2968    1.9663   -1.9260 H   0  0  0  0  0  0  0  0  0  0  0  0
    3.3216    3.9827    1.1262 H   0  0  0  0  0  0  0  0  0  0  0  0
    4.7820    5.7026    2.1185 H   0  0  0  0  0  0  0  0  0  0  0  0
    7.0654    6.0736    1.2252 H   0  0  0  0  0  0  0  0  0  0  0  0
    7.8860    4.7081   -0.6762 H   0  0  0  0  0  0  0  0  0  0  0  0
    6.4443    2.9793   -1.6836 H   0  0  0  0  0  0  0  0  0  0  0  0
    5.6639    0.3081   -0.5328 H   0  0  0  0  0  0  0  0  0  0  0  0
    6.3417   -2.2618    2.7083 H   0  0  0  0  0  0  0  0  0  0  0  0
    6.8544   -0.6734    3.3570 H   0  0  0  0  0  0  0  0  0  0  0  0
    8.3413   -3.8886    1.8305 H   0  0  0  0  0  0  0  0  0  0  0  0
   11.8413   -1.6259    2.0656 H   0  0  0  0  0  0  0  0  0  0  0  0
   -4.1451    0.1479    2.0867 H   0  0  0  0  0  0  0  0  0  0  0  0
   -2.6024    2.3151    0.6005 H   0  0  0  0  0  0  0  0  0  0  0  0
   -3.3484    2.4655    2.1942 H   0  0  0  0  0  0  0  0  0  0  0  0
   -4.3569    2.1891    0.7741 H   0  0  0  0  0  0  0  0  0  0  0  0
   -2.1545    0.4310    3.2944 H   0  0  0  0  0  0  0  0  0  0  0  0
   -1.7876   -0.9576    2.2718 H   0  0  0  0  0  0  0  0  0  0  0  0
   -1.1587    0.6447    1.8641 H   0  0  0  0  0  0  0  0  0  0  0  0
   -9.3904   -3.4906    0.4984 H   0  0  0  0  0  0  0  0  0  0  0  0
  1  2  1  0
  2  3  1  0
  2  4  1  0
  4  5  2  0
  5  6  1  0
  6  7  1  0
  7  8  1  0
  8  9  1  0
  8 10  1  0
 10 11  2  0
 10 12  1  0
 12 13  1  0
 13 14  1  0
 14 15  2  0
 14 16  1  0
 16 17  1  0
 17 18  1  0
 18 19  1  0
 19 20  2  0
 20 21  1  0
 21 22  2  0
 22 23  1  0
 23 24  2  0
 17 25  1  0
 25 26  1  0
 26 27  1  0
 26 28  1  0
 28 29  1  0
 29 30  1  0
 30 31  2  0
 31 32  1  0
 32 33  2  0
 33 34  1  0
 34 35  2  0
 28 36  1  0
 36 37  1  0
 37 38  2  0
 37 39  1  0
 39 40  1  0
 40 41  1  0
 41 42  2  0
 42 43  1  0
 43 44  2  0
 44 45  1  0
 13 46  1  0
 46 47  1  0
 46 48  1  0
  6 49  2  0
 49 50  1  0
 50  4  1  0
 24 19  1  0
 35 30  1  0
 45 41  1  0
  1 51  1  0
  1 52  1  0
  1 53  1  0
  2 54  1  0
  3 55  1  0
  3 56  1  0
  3 57  1  0
  7 58  1  0
  7 59  1  0
  9 60  1  0
  9 61  1  0
  9 62  1  0
 12 63  1  0
 13 64  1  6
 16 65  1  0
 17 66  1  6
 18 67  1  0
 18 68  1  0
 20 69  1  0
 21 70  1  0
 22 71  1  0
 23 72  1  0
 24 73  1  0
 25 74  1  0
 25 75  1  0
 26 76  1  6
 27 77  1  0
 28 78  1  1
 29 79  1  0
 29 80  1  0
 31 81  1  0
 32 82  1  0
 33 83  1  0
 34 84  1  0
 35 85  1  0
 36 86  1  0
 40 87  1  0
 40 88  1  0
 42 89  1  0
 44 90  1  0
 46 91  1  0
 47 92  1  0
 47 93  1  0
 47 94  1  0
 48 95  1  0
 48 96  1  0
 48 97  1  0
 49 98  1  0
M  END
$$$$
OCNT-0495493
     RDKit          3D

 38 41  0  0  0  0  0  0  0  0999 V2000
   -0.7056    1.9089    3.5357 O   0  0  0  0  0  0  0  0  0  0  0  0
   -0.6164    1.5046    2.3941 C   0  0  0  0  0  0  0  0  0  0  0  0
   -0.0225    0.3508    1.9849 O   0  0  0  0  0  0  0  0  0  0  0  0
   -0.0387    0.1821    0.5317 C   0  0  0  0  0  0  0  0  0  0  0  0
    1.4487    0.2036    0.1361 C   0  0  0  0  0  0  0  0  0  0  0  0
    2.3182   -0.7625    0.6904 C   0  0  0  0  0  0  0  0  0  0  0  0
    3.6761   -0.7967    0.3626 C   0  0  0  0  0  0  0  0  0  0  0  0
    4.1851    0.1412   -0.5246 C   0  0  0  0  0  0  0  0  0  0  0  0
    5.5018    0.1487   -0.8758 O   0  0  0  0  0  0  0  0  0  0  0  0
    3.3605    1.1086   -1.0815 C   0  0  0  0  0  0  0  0  0  0  0  0
    2.0017    1.1432   -0.7526 C   0  0  0  0  0  0  0  0  0  0  0  0
   -0.7385   -1.1433    0.1790 C   0  0  0  0  0  0  0  0  0  0  0  0
   -0.5572   -1.7369   -1.0867 C   0  0  0  0  0  0  0  0  0  0  0  0
   -1.2088   -2.9251   -1.4239 C   0  0  0  0  0  0  0  0  0  0  0  0
   -2.0540   -3.5317   -0.5057 C   0  0  0  0  0  0  0  0  0  0  0  0
   -2.6698   -4.6897   -0.8767 O   0  0  0  0  0  0  0  0  0  0  0  0
   -2.2611   -2.9694    0.7475 C   0  0  0  0  0  0  0  0  0  0  0  0
   -1.6088   -1.7797    1.0859 C   0  0  0  0  0  0  0  0  0  0  0  0
   -0.8633    1.3619    0.1047 C   0  0  0  0  0  0  0  0  0  0  0  0
   -1.3428    1.7344   -1.1465 C   0  0  0  0  0  0  0  0  0  0  0  0
   -2.1008    2.9057   -1.2552 C   0  0  0  0  0  0  0  0  0  0  0  0
   -2.3818    3.6862   -0.1227 C   0  0  0  0  0  0  0  0  0  0  0  0
   -1.9140    3.2983    1.1322 C   0  0  0  0  0  0  0  0  0  0  0  0
   -1.1651    2.1354    1.2074 C   0  0  0  0  0  0  0  0  0  0  0  0
    1.9317   -1.5009    1.3928 H   0  0  0  0  0  0  0  0  0  0  0  0
    4.3105   -1.5556    0.8093 H   0  0  0  0  0  0  0  0  0  0  0  0
    5.9544   -0.5616   -0.3920 H   0  0  0  0  0  0  0  0  0  0  0  0
    3.7748    1.8412   -1.7690 H   0  0  0  0  0  0  0  0  0  0  0  0
    1.3988    1.9259   -1.2043 H   0  0  0  0  0  0  0  0  0  0  0  0
    0.1010   -1.2817   -1.8246 H   0  0  0  0  0  0  0  0  0  0  0  0
   -1.0556   -3.3755   -2.4008 H   0  0  0  0  0  0  0  0  0  0  0  0
   -3.2177   -4.9998   -0.1371 H   0  0  0  0  0  0  0  0  0  0  0  0
   -2.9221   -3.4350    1.4720 H   0  0  0  0  0  0  0  0  0  0  0  0
   -1.7891   -1.3565    2.0727 H   0  0  0  0  0  0  0  0  0  0  0  0
   -1.1385    1.1360   -2.0301 H   0  0  0  0  0  0  0  0  0  0  0  0
   -2.4812    3.2141   -2.2273 H   0  0  0  0  0  0  0  0  0  0  0  0
   -2.9755    4.5921   -0.2244 H   0  0  0  0  0  0  0  0  0  0  0  0
   -2.1346    3.8789    2.0226 H   0  0  0  0  0  0  0  0  0  0  0  0
  1  2  2  0
  2  3  1  0
  3  4  1  0
  4  5  1  0
  5  6  1  0
  6  7  2  0
  7  8  1  0
  8  9  1  0
  8 10  2  0
 10 11  1  0
  4 12  1  0
 12 13  1  0
 13 14  2  0
 14 15  1  0
 15 16  1  0
 15 17  2  0
 17 18  1  0
  4 19  1  0
 19 20  2  0
 20 21  1  0
 21 22  2  0
 22 23  1  0
 23 24  2  0
 24  2  1  0
 11  5  2  0
 18 12  2  0
 24 19  1  0
  6 25  1  0
  7 26  1  0
  9 27  1  0
 10 28  1  0
 11 29  1  0
 13 30  1  0
 14 31  1  0
 16 32  1  0
 17 33  1  0
 18 34  1  0
 20 35  1  0
 21 36  1  0
 22 37  1  0
 23 38  1  0
M  END
$$$$
OCNT-0495620
     RDKit          3D

 68 71  0  0  0  0  0  0  0  0999 V2000
   -5.0335   -1.3822   -1.2081 C   0  0  0  0  0  0  0  0  0  0  0  0
   -3.9216   -1.3145   -0.1486 C   0  0  2  0  0  0  0  0  0  0  0  0
   -4.5016   -0.9824    1.2425 C   0  0  0  0  0  0  0  0  0  0  0  0
   -5.0997    0.4012    1.4834 C   0  0  0  0  0  0  0  0  0  0  0  0
   -6.4721    0.5791    0.8936 C   0  0  0  0  0  0  0  0  0  0  0  0
   -7.3586   -0.2553    0.8287 O   0  0  0  0  0  0  0  0  0  0  0  0
   -6.6786    1.8327    0.4462 O   0  0  0  0  0  0  0  0  0  0  0  0
   -2.6985   -0.5425   -0.7105 C   0  0  1  0  0  0  0  0  0  0  0  0
   -2.9310    0.8529   -1.3392 C   0  0  0  0  0  0  0  0  0  0  0  0
   -1.5398    1.5185   -1.4049 C   0  0  0  0  0  0  0  0  0  0  0  0
   -0.5722    0.4211   -0.9544 C   0  0  1  0  0  0  0  0  0  0  0  0
    0.8349    0.8282   -0.4963 C   0  0  2  0  0  0  0  0  0  0  0  0
    1.5748    1.5806   -1.6173 C   0  0  0  0  0  0  0  0  0  0  0  0
    3.0428    1.2003   -1.7540 C   0  0  0  0  0  0  0  0  0  0  0  0
    3.7419    1.0473   -0.3980 C   0  0  2  0  0  0  0  0  0  0  0  0
    5.2390    0.7807   -0.6587 C   0  0  0  0  0  0  0  0  0  0  0  0
    5.9704    0.2849    0.5786 C   0  0  2  0  0  0  0  0  0  0  0  0
    7.3481    0.0794    0.2785 O   0  0  0  0  0  0  0  0  0  0  0  0
    5.3833   -1.0271    1.0937 C   0  0  0  0  0  0  0  0  0  0  0  0
    3.9491   -1.2891    0.6240 C   0  0  0  0  0  0  0  0  0  0  0  0
    3.0562   -0.0214    0.5346 C   0  0  1  0  0  0  0  0  0  0  0  0
    2.9311    0.5866    1.9581 C   0  0  0  0  0  0  0  0  0  0  0  0
    1.6301   -0.4258   -0.0226 C   0  0  1  0  0  0  0  0  0  0  0  0
    0.8096   -1.3349    0.9417 C   0  0  0  0  0  0  0  0  0  0  0  0
   -0.6161   -1.6546    0.4496 C   0  0  2  0  0  0  0  0  0  0  0  0
   -0.5260   -2.5036   -0.6933 O   0  0  0  0  0  0  0  0  0  0  0  0
   -1.3852   -0.3625    0.1118 C   0  0  2  0  0  0  0  0  0  0  0  0
   -1.5832    0.4704    1.4040 C   0  0  0  0  0  0  0  0  0  0  0  0
   -5.4419   -0.3941   -1.4378 H   0  0  0  0  0  0  0  0  0  0  0  0
   -5.8553   -2.0243   -0.8733 H   0  0  0  0  0  0  0  0  0  0  0  0
   -4.6517   -1.8079   -2.1429 H   0  0  0  0  0  0  0  0  0  0  0  0
   -3.5668   -2.3514   -0.0414 H   0  0  0  0  0  0  0  0  0  0  0  0
   -3.7292   -1.1667    1.9934 H   0  0  0  0  0  0  0  0  0  0  0  0
   -5.2713   -1.7339    1.4694 H   0  0  0  0  0  0  0  0  0  0  0  0
   -5.2123    0.5572    2.5633 H   0  0  0  0  0  0  0  0  0  0  0  0
   -4.4398    1.1889    1.1238 H   0  0  0  0  0  0  0  0  0  0  0  0
   -7.5988    1.8144    0.1090 H   0  0  0  0  0  0  0  0  0  0  0  0
   -2.4170   -1.1648   -1.5782 H   0  0  0  0  0  0  0  0  0  0  0  0
   -3.6157    1.4788   -0.7654 H   0  0  0  0  0  0  0  0  0  0  0  0
   -3.3521    0.7552   -2.3464 H   0  0  0  0  0  0  0  0  0  0  0  0
   -1.3184    1.8690   -2.4180 H   0  0  0  0  0  0  0  0  0  0  0  0
   -1.4999    2.3877   -0.7389 H   0  0  0  0  0  0  0  0  0  0  0  0
   -0.4243   -0.2300   -1.8320 H   0  0  0  0  0  0  0  0  0  0  0  0
    0.7426    1.5287    0.3401 H   0  0  0  0  0  0  0  0  0  0  0  0
    1.4969    2.6579   -1.4220 H   0  0  0  0  0  0  0  0  0  0  0  0
    1.0963    1.4197   -2.5909 H   0  0  0  0  0  0  0  0  0  0  0  0
    3.5496    1.9639   -2.3575 H   0  0  0  0  0  0  0  0  0  0  0  0
    3.1230    0.2636   -2.3210 H   0  0  0  0  0  0  0  0  0  0  0  0
    3.6751    2.0265    0.0980 H   0  0  0  0  0  0  0  0  0  0  0  0
    5.3683    0.0488   -1.4678 H   0  0  0  0  0  0  0  0  0  0  0  0
    5.7164    1.6974   -1.0289 H   0  0  0  0  0  0  0  0  0  0  0  0
    5.9271    1.0466    1.3649 H   0  0  0  0  0  0  0  0  0  0  0  0
    7.7095    0.9253   -0.0367 H   0  0  0  0  0  0  0  0  0  0  0  0
    5.4117   -1.0132    2.1909 H   0  0  0  0  0  0  0  0  0  0  0  0
    6.0109   -1.8788    0.8022 H   0  0  0  0  0  0  0  0  0  0  0  0
    3.9928   -1.7626   -0.3663 H   0  0  0  0  0  0  0  0  0  0  0  0
    3.5092   -2.0360    1.2945 H   0  0  0  0  0  0  0  0  0  0  0  0
    2.1860    1.3874    1.9928 H   0  0  0  0  0  0  0  0  0  0  0  0
    3.8727    1.0231    2.3044 H   0  0  0  0  0  0  0  0  0  0  0  0
    2.6488   -0.1689    2.6989 H   0  0  0  0  0  0  0  0  0  0  0  0
    1.7991   -1.0422   -0.9191 H   0  0  0  0  0  0  0  0  0  0  0  0
    1.3445   -2.2822    1.0731 H   0  0  0  0  0  0  0  0  0  0  0  0
    0.7372   -0.8764    1.9316 H   0  0  0  0  0  0  0  0  0  0  0  0
   -1.1545   -2.2177    1.2208 H   0  0  0  0  0  0  0  0  0  0  0  0
   -0.0814   -3.3234   -0.4168 H   0  0  0  0  0  0  0  0  0  0  0  0
   -2.2392    1.3309    1.2573 H   0  0  0  0  0  0  0  0  0  0  0  0
   -0.6449    0.8711    1.7966 H   0  0  0  0  0  0  0  0  0  0  0  0
   -1.9965   -0.1356    2.2125 H   0  0  0  0  0  0  0  0  0  0  0  0
  1  2  1  0
  2  3  1  0
  3  4  1  0
  4  5  1  0
  5  6  2  0
  5  7  1  0
  2  8  1  0
  8  9  1  0
  9 10  1  0
 10 11  1  0
 11 12  1  0
 12 13  1  0
 13 14  1  0
 14 15  1  0
 15 16  1  0
 16 17  1  0
 17 18  1  0
 17 19  1  0
 19 20  1  0
 20 21  1  0
 21 22  1  1
 21 23  1  0
 23 24  1  0
 24 25  1  0
 25 26  1  0
 25 27  1  0
 27 28  1  1
 27  8  1  0
 27 11  1  0
 23 12  1  0
 21 15  1  0
  1 29  1  0
  1 30  1  0
  1 31  1  0
  2 32  1  1
  3 33  1  0
  3 34  1  0
  4 35  1  0
  4 36  1  0
  7 37  1  0
  8 38  1  6
  9 39  1  0
  9 40  1  0
 10 41  1  0
 10 42  1  0
 11 43  1  6
 12 44  1  1
 13 45  1  0
 13 46  1  0
 14 47  1  0
 14 48  1  0
 15 49  1  1
 16 50  1  0
 16 51  1  0
 17 52  1  1
 18 53  1  0
 19 54  1  0
 19 55  1  0
 20 56  1  0
 20 57  1  0
 22 58  1  0
 22 59  1  0
 22 60  1  0
 23 61  1  6
 24 62  1  0
 24 63  1  0
 25 64  1  1
 26 65  1  0
 28 66  1  0
 28 67  1  0
 28 68  1  0
M  END
$$$$
OCNT-0496415
     RDKit          3D

126129  0  0  0  0  0  0  0  0999 V2000
   -1.7380    6.7842    2.8506 C   0  0  0  0  0  0  0  0  0  0  0  0
   -0.7807    6.4819    1.9617 C   0  0  0  0  0  0  0  0  0  0  0  0
   -0.5343    5.0925    1.4224 C   0  0  0  0  0  0  0  0  0  0  0  0
   -0.6880    4.9863   -0.1099 C   0  0  2  0  0  0  0  0  0  0  0  0
   -2.1074    5.3006   -0.5515 C   0  0  0  0  0  0  0  0  0  0  0  0
   -3.1687    4.5268   -0.8656 C   0  0  0  0  0  0  0  0  0  0  0  0
   -4.4538    5.1842   -1.3140 C   0  0  0  0  0  0  0  0  0  0  0  0
   -3.2050    3.0174   -0.8754 C   0  0  0  0  0  0  0  0  0  0  0  0
   -4.2239    2.3462    0.0837 C   0  0  2  0  0  0  0  0  0  0  0  0
   -3.8799    2.6651    1.5452 C   0  0  0  0  0  0  0  0  0  0  0  0
   -4.2077    0.8228   -0.1779 C   0  0  0  0  0  0  0  0  0  0  0  0
   -5.5587    0.1086    0.0675 C   0  0  2  0  0  0  0  0  0  0  0  0
   -5.7863    0.0199    1.4789 O   0  0  0  0  0  0  0  0  0  0  0  0
   -7.0292    0.5922    1.8670 C   0  0  0  0  0  0  0  0  0  0  0  0
   -5.4880   -1.3088   -0.5602 C   0  0  1  0  0  0  0  0  0  0  0  0
   -4.3626   -2.0037   -0.0016 O   0  0  0  0  0  0  0  0  0  0  0  0
   -4.0100   -3.1981   -0.6988 C   0  0  1  0  0  0  0  0  0  0  0  0
   -3.7104   -2.8879   -2.0500 O   0  0  0  0  0  0  0  0  0  0  0  0
   -2.7789   -3.7548    0.0640 C   0  0  0  0  0  0  0  0  0  0  0  0
   -2.7670   -4.8216    0.6726 O   0  0  0  0  0  0  0  0  0  0  0  0
   -1.5612   -2.8168    0.0549 C   0  0  0  0  0  0  0  0  0  0  0  0
   -1.6082   -1.8255   -0.6724 O   0  0  0  0  0  0  0  0  0  0  0  0
   -0.4694   -3.0731    0.8856 N   0  0  0  0  0  0  0  0  0  0  0  0
   -0.1627   -4.3741    1.4816 C   0  0  0  0  0  0  0  0  0  0  0  0
    1.3331   -4.5660    1.7157 C   0  0  0  0  0  0  0  0  0  0  0  0
    1.9584   -3.4481    2.5466 C   0  0  0  0  0  0  0  0  0  0  0  0
    1.1470   -2.1530    2.5259 C   0  0  0  0  0  0  0  0  0  0  0  0
    0.4033   -1.9317    1.2044 C   0  0  1  0  0  0  0  0  0  0  0  0
    1.3908   -1.5873    0.0765 C   0  0  0  0  0  0  0  0  0  0  0  0
    1.8263   -2.3787   -0.7514 O   0  0  0  0  0  0  0  0  0  0  0  0
    1.7467   -0.2699    0.1853 O   0  0  0  0  0  0  0  0  0  0  0  0
    2.8083    0.1790   -0.6778 C   0  0  2  0  0  0  0  0  0  0  0  0
    4.1550   -0.0902    0.0199 C   0  0  0  0  0  0  0  0  0  0  0  0
    4.3057    0.4410    1.4159 C   0  0  0  0  0  0  0  0  0  0  0  0
    5.0942   -0.8044   -0.6414 C   0  0  0  0  0  0  0  0  0  0  0  0
    6.5219   -1.2175   -0.3317 C   0  0  2  0  0  0  0  0  0  0  0  0
    7.2383   -0.5201    0.8431 C   0  0  0  0  0  0  0  0  0  0  0  0
    8.7712   -0.5375    0.7478 C   0  0  0  0  0  0  0  0  0  0  0  0
    9.2968   -1.7427   -0.0303 C   0  0  1  0  0  0  0  0  0  0  0  0
    8.9013   -2.9416    0.6483 O   0  0  0  0  0  0  0  0  0  0  0  0
    8.7529   -1.7518   -1.4747 C   0  0  2  0  0  0  0  0  0  0  0  0
    9.7089   -1.0778   -2.3118 O   0  0  0  0  0  0  0  0  0  0  0  0
    9.5282   -1.3514   -3.6962 C   0  0  0  0  0  0  0  0  0  0  0  0
    7.3825   -1.0564   -1.5987 C   0  0  0  0  0  0  0  0  0  0  0  0
    2.5637    1.6659   -1.1073 C   0  0  2  0  0  0  0  0  0  0  0  0
    3.7921    2.2375   -1.8321 C   0  0  0  0  0  0  0  0  0  0  0  0
    2.0168    2.5682    0.0363 C   0  0  1  0  0  0  0  0  0  0  0  0
    2.5229    3.9049   -0.0080 O   0  0  0  0  0  0  0  0  0  0  0  0
    0.4781    2.6062    0.0926 C   0  0  0  0  0  0  0  0  0  0  0  0
   -0.0772    3.7297   -0.7664 C   0  0  0  0  0  0  0  0  0  0  0  0
    0.0287    3.6483   -1.9979 O   0  0  0  0  0  0  0  0  0  0  0  0
   -5.2058   -4.1825   -0.6408 C   0  0  2  0  0  0  0  0  0  0  0  0
   -4.9852   -5.4369   -1.4942 C   0  0  0  0  0  0  0  0  0  0  0  0
   -6.5246   -3.5072   -1.0745 C   0  0  0  0  0  0  0  0  0  0  0  0
   -6.7562   -2.1553   -0.3797 C   0  0  2  0  0  0  0  0  0  0  0  0
   -7.8678   -1.4639   -0.9609 O   0  0  0  0  0  0  0  0  0  0  0  0
   -9.1265   -2.0544   -0.6659 C   0  0  0  0  0  0  0  0  0  0  0  0
   -2.4213    6.0307    3.2375 H   0  0  0  0  0  0  0  0  0  0  0  0
   -1.8659    7.8042    3.2059 H   0  0  0  0  0  0  0  0  0  0  0  0
   -0.1221    7.2727    1.5995 H   0  0  0  0  0  0  0  0  0  0  0  0
   -1.2027    4.3702    1.9152 H   0  0  0  0  0  0  0  0  0  0  0  0
    0.4899    4.8287    1.7135 H   0  0  0  0  0  0  0  0  0  0  0  0
   -0.0599    5.7879   -0.5304 H   0  0  0  0  0  0  0  0  0  0  0  0
   -2.2677    6.3810   -0.6064 H   0  0  0  0  0  0  0  0  0  0  0  0
   -4.7775    4.7688   -2.2722 H   0  0  0  0  0  0  0  0  0  0  0  0
   -4.3504    6.2655   -1.4442 H   0  0  0  0  0  0  0  0  0  0  0  0
   -5.2463    5.0219   -0.5767 H   0  0  0  0  0  0  0  0  0  0  0  0
   -3.4281    2.7176   -1.9090 H   0  0  0  0  0  0  0  0  0  0  0  0
   -2.2251    2.5921   -0.6586 H   0  0  0  0  0  0  0  0  0  0  0  0
   -5.2285    2.7316   -0.1397 H   0  0  0  0  0  0  0  0  0  0  0  0
   -2.8304    2.4292    1.7601 H   0  0  0  0  0  0  0  0  0  0  0  0
   -4.0327    3.7290    1.7552 H   0  0  0  0  0  0  0  0  0  0  0  0
   -4.5041    2.1025    2.2402 H   0  0  0  0  0  0  0  0  0  0  0  0
   -3.9336    0.6493   -1.2249 H   0  0  0  0  0  0  0  0  0  0  0  0
   -3.4167    0.3676    0.4301 H   0  0  0  0  0  0  0  0  0  0  0  0
   -6.3570    0.6761   -0.4263 H   0  0  0  0  0  0  0  0  0  0  0  0
   -7.1300    0.4874    2.9490 H   0  0  0  0  0  0  0  0  0  0  0  0
   -7.8638    0.0725    1.3952 H   0  0  0  0  0  0  0  0  0  0  0  0
   -7.0615    1.6555    1.6179 H   0  0  0  0  0  0  0  0  0  0  0  0
   -5.3278   -1.1477   -1.6353 H   0  0  0  0  0  0  0  0  0  0  0  0
   -2.9645   -2.2558   -2.0062 H   0  0  0  0  0  0  0  0  0  0  0  0
   -0.5036   -5.1719    0.8152 H   0  0  0  0  0  0  0  0  0  0  0  0
   -0.7149   -4.4430    2.4273 H   0  0  0  0  0  0  0  0  0  0  0  0
    1.8354   -4.6041    0.7399 H   0  0  0  0  0  0  0  0  0  0  0  0
    1.5216   -5.5346    2.1932 H   0  0  0  0  0  0  0  0  0  0  0  0
    2.9723   -3.2583    2.1712 H   0  0  0  0  0  0  0  0  0  0  0  0
    2.0714   -3.7772    3.5887 H   0  0  0  0  0  0  0  0  0  0  0  0
    1.8055   -1.3106    2.7629 H   0  0  0  0  0  0  0  0  0  0  0  0
    0.4053   -2.1997    3.3371 H   0  0  0  0  0  0  0  0  0  0  0  0
   -0.2562   -1.0552    1.3183 H   0  0  0  0  0  0  0  0  0  0  0  0
    2.7658   -0.3918   -1.6150 H   0  0  0  0  0  0  0  0  0  0  0  0
    4.9705   -0.1778    2.0308 H   0  0  0  0  0  0  0  0  0  0  0  0
    3.3482    0.4353    1.9541 H   0  0  0  0  0  0  0  0  0  0  0  0
    4.6879    1.4697    1.3969 H   0  0  0  0  0  0  0  0  0  0  0  0
    4.7841   -1.1853   -1.6177 H   0  0  0  0  0  0  0  0  0  0  0  0
    6.4612   -2.2944   -0.1094 H   0  0  0  0  0  0  0  0  0  0  0  0
    6.9457   -1.0210    1.7763 H   0  0  0  0  0  0  0  0  0  0  0  0
    6.9355    0.5315    0.9290 H   0  0  0  0  0  0  0  0  0  0  0  0
    9.1835   -0.5310    1.7626 H   0  0  0  0  0  0  0  0  0  0  0  0
    9.1173    0.3817    0.2607 H   0  0  0  0  0  0  0  0  0  0  0  0
   10.3941   -1.7260   -0.0434 H   0  0  0  0  0  0  0  0  0  0  0  0
    9.3290   -2.9303    1.5230 H   0  0  0  0  0  0  0  0  0  0  0  0
    8.6608   -2.7977   -1.8008 H   0  0  0  0  0  0  0  0  0  0  0  0
    8.5740   -0.9554   -4.0610 H   0  0  0  0  0  0  0  0  0  0  0  0
    9.5895   -2.4260   -3.8920 H   0  0  0  0  0  0  0  0  0  0  0  0
   10.3371   -0.8558   -4.2384 H   0  0  0  0  0  0  0  0  0  0  0  0
    6.8663   -1.4659   -2.4782 H   0  0  0  0  0  0  0  0  0  0  0  0
    7.5217    0.0127   -1.8163 H   0  0  0  0  0  0  0  0  0  0  0  0
    1.7698    1.6185   -1.8684 H   0  0  0  0  0  0  0  0  0  0  0  0
    3.5440    3.1597   -2.3657 H   0  0  0  0  0  0  0  0  0  0  0  0
    4.6081    2.4635   -1.1372 H   0  0  0  0  0  0  0  0  0  0  0  0
    4.1627    1.5315   -2.5813 H   0  0  0  0  0  0  0  0  0  0  0  0
    2.3537    2.1777    0.9973 H   0  0  0  0  0  0  0  0  0  0  0  0
    2.4451    4.2298   -0.9237 H   0  0  0  0  0  0  0  0  0  0  0  0
    0.0367    1.6633   -0.2450 H   0  0  0  0  0  0  0  0  0  0  0  0
    0.1458    2.7156    1.1285 H   0  0  0  0  0  0  0  0  0  0  0  0
   -5.3473   -4.4981    0.4033 H   0  0  0  0  0  0  0  0  0  0  0  0
   -5.8375   -6.1173   -1.4014 H   0  0  0  0  0  0  0  0  0  0  0  0
   -4.8814   -5.1937   -2.5549 H   0  0  0  0  0  0  0  0  0  0  0  0
   -4.0937   -5.9890   -1.1838 H   0  0  0  0  0  0  0  0  0  0  0  0
   -6.5372   -3.3548   -2.1639 H   0  0  0  0  0  0  0  0  0  0  0  0
   -7.3612   -4.1850   -0.8658 H   0  0  0  0  0  0  0  0  0  0  0  0
   -6.9395   -2.3246    0.6881 H   0  0  0  0  0  0  0  0  0  0  0  0
   -9.2528   -2.1879    0.4116 H   0  0  0  0  0  0  0  0  0  0  0  0
   -9.2390   -3.0092   -1.1904 H   0  0  0  0  0  0  0  0  0  0  0  0
   -9.9075   -1.3753   -1.0269 H   0  0  0  0  0  0  0  0  0  0  0  0
  1  2  2  0
  2  3  1  0
  3  4  1  0
  4  5  1  0
  5  6  2  3
  6  7  1  0
  6  8  1  0
  8  9  1  0
  9 10  1  0
  9 11  1  0
 11 12  1  0
 12 13  1  0
 13 14  1  0
 12 15  1  0
 15 16  1  0
 16 17  1  0
 17 18  1  6
 17 19  1  0
 19 20  2  0
 19 21  1  0
 21 22  2  0
 21 23  1  0
 23 24  1  0
 24 25  1  0
 25 26  1  0
 26 27  1  0
 27 28  1  0
 28 29  1  0
 29 30  2  0
 29 31  1  0
 31 32  1  0
 32 33  1  0
 33 34  1  0
 33 35  2  3
 35 36  1  0
 36 37  1  0
 37 38  1  0
 38 39  1  0
 39 40  1  0
 39 41  1  0
 41 42  1  0
 42 43  1  0
 41 44  1  0
 32 45  1  0
 45 46  1  0
 45 47  1  0
 47 48  1  0
 47 49  1  0
 49 50  1  0
 50 51  2  0
 17 52  1  0
 52 53  1  0
 52 54  1  0
 54 55  1  0
 55 56  1  0
 56 57  1  0
 50  4  1  0
 55 15  1  0
 28 23  1  0
 44 36  1  0
  1 58  1  0
  1 59  1  0
  2 60  1  0
  3 61  1  0
  3 62  1  0
  4 63  1  6
  5 64  1  0
  7 65  1  0
  7 66  1  0
  7 67  1  0
  8 68  1  0
  8 69  1  0
  9 70  1  6
 10 71  1  0
 10 72  1  0
 10 73  1  0
 11 74  1  0
 11 75  1  0
 12 76  1  6
 14 77  1  0
 14 78  1  0
 14 79  1  0
 15 80  1  6
 18 81  1  0
 24 82  1  0
 24 83  1  0
 25 84  1  0
 25 85  1  0
 26 86  1  0
 26 87  1  0
 27 88  1  0
 27 89  1  0
 28 90  1  1
 32 91  1  6
 34 92  1  0
 34 93  1  0
 34 94  1  0
 35 95  1  0
 36 96  1  1
 37 97  1  0
 37 98  1  0
 38 99  1  0
 38100  1  0
 39101  1  6
 40102  1  0
 41103  1  6
 43104  1  0
 43105  1  0
 43106  1  0
 44107  1  0
 44108  1  0
 45109  1  6
 46110  1  0
 46111  1  0
 46112  1  0
 47113  1  1
 48114  1  0
 49115  1  0
 49116  1  0
 52117  1  1
 53118  1  0
 53119  1  0
 53120  1  0
 54121  1  0
 54122  1  0
 55123  1  1
 57124  1  0
 57125  1  0
 57126  1  0
M  END
$$$$
OCNT-0496475
     RDKit          3D

 31 33  0  0  0  0  0  0  0  0999 V2000
   -1.9728   -1.2532   -2.4681 Cl  0  0  0  0  0  0  0  0  0  0  0  0
   -2.6045   -0.5020   -1.0452 C   0  0  0  0  0  0  0  0  0  0  0  0
   -3.7606    0.2734   -1.1862 C   0  0  0  0  0  0  0  0  0  0  0  0
   -4.3319    0.8947   -0.0764 C   0  0  0  0  0  0  0  0  0  0  0  0
   -3.7503    0.7413    1.1786 C   0  0  0  0  0  0  0  0  0  0  0  0
   -2.5964   -0.0311    1.3240 C   0  0  0  0  0  0  0  0  0  0  0  0
   -2.0039   -0.6639    0.2145 C   0  0  0  0  0  0  0  0  0  0  0  0
   -0.7448   -1.4810    0.4191 C   0  0  0  0  0  0  0  0  0  0  0  0
    0.4747   -0.8209   -0.0744 N   0  0  0  0  0  0  0  0  0  0  0  0
    1.6027   -1.7804   -0.0906 C   0  0  0  0  0  0  0  0  0  0  0  0
    2.8441   -1.2088   -0.8088 C   0  0  0  0  0  0  0  0  0  0  0  0
    3.0839    0.1891   -0.3463 C   0  0  0  0  0  0  0  0  0  0  0  0
    2.1433    0.9354    0.3341 C   0  0  0  0  0  0  0  0  0  0  0  0
    2.6416    2.2453    0.6167 C   0  0  0  0  0  0  0  0  0  0  0  0
    3.9226    2.4297    0.1399 C   0  0  0  0  0  0  0  0  0  0  0  0
    4.5264    1.0314   -0.6431 S   0  0  0  0  0  0  0  0  0  0  0  0
    0.8003    0.3817    0.7263 C   0  0  0  0  0  0  0  0  0  0  0  0
   -4.2211    0.3964   -2.1634 H   0  0  0  0  0  0  0  0  0  0  0  0
   -5.2295    1.4967   -0.1926 H   0  0  0  0  0  0  0  0  0  0  0  0
   -4.1940    1.2248    2.0457 H   0  0  0  0  0  0  0  0  0  0  0  0
   -2.1561   -0.1346    2.3138 H   0  0  0  0  0  0  0  0  0  0  0  0
   -0.6356   -1.7437    1.4806 H   0  0  0  0  0  0  0  0  0  0  0  0
   -0.8941   -2.4405   -0.0939 H   0  0  0  0  0  0  0  0  0  0  0  0
    1.3138   -2.6987   -0.6170 H   0  0  0  0  0  0  0  0  0  0  0  0
    1.8666   -2.0683    0.9365 H   0  0  0  0  0  0  0  0  0  0  0  0
    2.6710   -1.2040   -1.8921 H   0  0  0  0  0  0  0  0  0  0  0  0
    3.7107   -1.8482   -0.6070 H   0  0  0  0  0  0  0  0  0  0  0  0
    2.0891    3.0148    1.1418 H   0  0  0  0  0  0  0  0  0  0  0  0
    4.5351    3.3177    0.2110 H   0  0  0  0  0  0  0  0  0  0  0  0
    0.8225    0.1466    1.7983 H   0  0  0  0  0  0  0  0  0  0  0  0
    0.0471    1.1600    0.5593 H   0  0  0  0  0  0  0  0  0  0  0  0
  1  2  1  0
  2  3  2  0
  3  4  1  0
  4  5  2  0
  5  6  1  0
  6  7  2  0
  7  8  1  0
  8  9  1  0
  9 10  1  0
 10 11  1  0
 11 12  1  0
 12 13  2  0
 13 14  1  0
 14 15  2  0
 15 16  1  0
 13 17  1  0
  7  2  1  0
 17  9  1  0
 16 12  1  0
  3 18  1  0
  4 19  1  0
  5 20  1  0
  6 21  1  0
  8 22  1  0
  8 23  1  0
 10 24  1  0
 10 25  1  0
 11 26  1  0
 11 27  1  0
 14 28  1  0
 15 29  1  0
 17 30  1  0
 17 31  1  0
M  END
$$$$
OCNT-0496647
     RDKit          3D

 41 44  0  0  0  0  0  0  0  0999 V2000
    4.0179   -2.6832   -0.1800 C   0  0  0  0  0  0  0  0  0  0  0  0
    2.9199   -1.8540    0.3102 N   0  0  0  0  0  0  0  0  0  0  0  0
    1.6165   -2.5230    0.0826 C   0  0  0  0  0  0  0  0  0  0  0  0
    0.4366   -1.7660    0.7454 C   0  0  0  0  0  0  0  0  0  0  0  0
    0.5849   -0.3053    0.4904 C   0  0  0  0  0  0  0  0  0  0  0  0
    1.7453    0.2711    0.0160 C   0  0  0  0  0  0  0  0  0  0  0  0
    2.9649   -0.5203   -0.3424 C   0  0  0  0  0  0  0  0  0  0  0  0
    1.5115    1.6711   -0.0785 C   0  0  0  0  0  0  0  0  0  0  0  0
    2.2969    2.7642   -0.4999 C   0  0  0  0  0  0  0  0  0  0  0  0
    1.7607    4.0551   -0.4722 C   0  0  0  0  0  0  0  0  0  0  0  0
    0.4589    4.2691   -0.0331 C   0  0  0  0  0  0  0  0  0  0  0  0
   -0.3417    3.2039    0.3902 C   0  0  0  0  0  0  0  0  0  0  0  0
    0.2014    1.9072    0.3609 C   0  0  0  0  0  0  0  0  0  0  0  0
   -0.3433    0.6789    0.7087 N   0  0  0  0  0  0  0  0  0  0  0  0
   -1.6694    0.4756    1.2871 C   0  0  0  0  0  0  0  0  0  0  0  0
   -2.6706   -0.0823    0.3020 C   0  0  0  0  0  0  0  0  0  0  0  0
   -2.8429    0.4774   -0.9733 C   0  0  0  0  0  0  0  0  0  0  0  0
   -3.7964   -0.0371   -1.8541 C   0  0  0  0  0  0  0  0  0  0  0  0
   -4.5980   -1.1088   -1.4686 C   0  0  0  0  0  0  0  0  0  0  0  0
   -4.4495   -1.6658   -0.2008 C   0  0  0  0  0  0  0  0  0  0  0  0
   -3.4959   -1.1533    0.6811 C   0  0  0  0  0  0  0  0  0  0  0  0
    4.0348   -3.6462    0.3423 H   0  0  0  0  0  0  0  0  0  0  0  0
    4.9822   -2.2022    0.0186 H   0  0  0  0  0  0  0  0  0  0  0  0
    3.9435   -2.8768   -1.2562 H   0  0  0  0  0  0  0  0  0  0  0  0
    1.6359   -3.5379    0.4989 H   0  0  0  0  0  0  0  0  0  0  0  0
    1.4289   -2.6217   -0.9957 H   0  0  0  0  0  0  0  0  0  0  0  0
    0.4479   -1.9443    1.8272 H   0  0  0  0  0  0  0  0  0  0  0  0
   -0.5071   -2.1488    0.3451 H   0  0  0  0  0  0  0  0  0  0  0  0
    3.8601    0.0164   -0.0072 H   0  0  0  0  0  0  0  0  0  0  0  0
    3.0111   -0.6187   -1.4347 H   0  0  0  0  0  0  0  0  0  0  0  0
    3.3152    2.6076   -0.8425 H   0  0  0  0  0  0  0  0  0  0  0  0
    2.3684    4.8960   -0.7961 H   0  0  0  0  0  0  0  0  0  0  0  0
    0.0561    5.2791   -0.0180 H   0  0  0  0  0  0  0  0  0  0  0  0
   -1.3571    3.3892    0.7248 H   0  0  0  0  0  0  0  0  0  0  0  0
   -2.0354    1.4252    1.6895 H   0  0  0  0  0  0  0  0  0  0  0  0
   -1.5329   -0.2007    2.1398 H   0  0  0  0  0  0  0  0  0  0  0  0
   -2.2299    1.3159   -1.2985 H   0  0  0  0  0  0  0  0  0  0  0  0
   -3.9117    0.4008   -2.8424 H   0  0  0  0  0  0  0  0  0  0  0  0
   -5.3394   -1.5079   -2.1557 H   0  0  0  0  0  0  0  0  0  0  0  0
   -5.0780   -2.4991    0.1026 H   0  0  0  0  0  0  0  0  0  0  0  0
   -3.4004   -1.6006    1.6683 H   0  0  0  0  0  0  0  0  0  0  0  0
  1  2  1  0
  2  3  1  0
  3  4  1  0
  4  5  1  0
  5  6  2  0
  6  7  1  0
  6  8  1  0
  8  9  2  0
  9 10  1  0
 10 11  2  0
 11 12  1  0
 12 13  2  0
 13 14  1  0
 14 15  1  0
 15 16  1  0
 16 17  2  0
 17 18  1  0
 18 19  2  0
 19 20  1  0
 20 21  2  0
  7  2  1  0
 13  8  1  0
 21 16  1  0
 14  5  1  0
  1 22  1  0
  1 23  1  0
  1 24  1  0
  3 25  1  0
  3 26  1  0
  4 27  1  0
  4 28  1  0
  7 29  1  0
  7 30  1  0
  9 31  1  0
 10 32  1  0
 11 33  1  0
 12 34  1  0
 15 35  1  0
 15 36  1  0
 17 37  1  0
 18 38  1  0
 19 39  1  0
 20 40  1  0
 21 41  1  0
M  END
$$$$
OCNT-0497719
     RDKit          3D

 38 40  0  0  0  0  0  0  0  0999 V2000
    2.9634    2.5007   -1.0155 O   0  0  0  0  0  0  0  0  0  0  0  0
    2.5206    1.3659   -1.1738 C   0  0  0  0  0  0  0  0  0  0  0  0
    1.4257    1.0911   -2.1937 C   0  0  0  0  0  0  0  0  0  0  0  0
    0.1166    0.6782   -1.5656 C   0  0  0  0  0  0  0  0  0  0  0  0
   -0.5328    1.5237   -0.6599 C   0  0  0  0  0  0  0  0  0  0  0  0
   -1.7449    1.1426   -0.0760 C   0  0  0  0  0  0  0  0  0  0  0  0
   -2.3464   -0.0872   -0.3859 C   0  0  0  0  0  0  0  0  0  0  0  0
   -3.6266   -0.4810    0.2264 C   0  0  0  0  0  0  0  0  0  0  0  0
   -3.7964   -0.4733    1.6206 C   0  0  0  0  0  0  0  0  0  0  0  0
   -5.0161   -0.8330    2.2022 C   0  0  0  0  0  0  0  0  0  0  0  0
   -6.0870   -1.2099    1.4000 C   0  0  0  0  0  0  0  0  0  0  0  0
   -5.9399   -1.2270    0.0159 C   0  0  0  0  0  0  0  0  0  0  0  0
   -4.7199   -0.8657   -0.5645 C   0  0  0  0  0  0  0  0  0  0  0  0
   -1.6914   -0.9243   -1.3017 C   0  0  0  0  0  0  0  0  0  0  0  0
   -0.4767   -0.5492   -1.8862 C   0  0  0  0  0  0  0  0  0  0  0  0
    2.9321    0.2331   -0.5114 N   0  0  0  0  0  0  0  0  0  0  0  0
    3.9150    0.1089    0.4689 C   0  0  0  0  0  0  0  0  0  0  0  0
    4.6720    1.1657    0.9571 C   0  0  0  0  0  0  0  0  0  0  0  0
    5.6274    0.9095    1.9403 C   0  0  0  0  0  0  0  0  0  0  0  0
    5.7995   -0.3879    2.4041 C   0  0  0  0  0  0  0  0  0  0  0  0
    5.0020   -1.3799    1.8625 C   0  0  0  0  0  0  0  0  0  0  0  0
    4.0683   -1.1596    0.9097 N   0  0  0  0  0  0  0  0  0  0  0  0
    1.7909    0.3212   -2.8859 H   0  0  0  0  0  0  0  0  0  0  0  0
    1.2660    1.9947   -2.7938 H   0  0  0  0  0  0  0  0  0  0  0  0
   -0.1009    2.4875   -0.3962 H   0  0  0  0  0  0  0  0  0  0  0  0
   -2.2266    1.8245    0.6209 H   0  0  0  0  0  0  0  0  0  0  0  0
   -2.9683   -0.1932    2.2708 H   0  0  0  0  0  0  0  0  0  0  0  0
   -5.1275   -0.8174    3.2819 H   0  0  0  0  0  0  0  0  0  0  0  0
   -7.0362   -1.4873    1.8516 H   0  0  0  0  0  0  0  0  0  0  0  0
   -6.7756   -1.5136   -0.6159 H   0  0  0  0  0  0  0  0  0  0  0  0
   -4.6322   -0.8686   -1.6488 H   0  0  0  0  0  0  0  0  0  0  0  0
   -2.1238   -1.8882   -1.5617 H   0  0  0  0  0  0  0  0  0  0  0  0
   -0.0043   -1.2269   -2.5920 H   0  0  0  0  0  0  0  0  0  0  0  0
    2.4734   -0.6483   -0.7046 H   0  0  0  0  0  0  0  0  0  0  0  0
    4.5434    2.1821    0.6035 H   0  0  0  0  0  0  0  0  0  0  0  0
    6.2288    1.7223    2.3382 H   0  0  0  0  0  0  0  0  0  0  0  0
    6.5347   -0.6186    3.1668 H   0  0  0  0  0  0  0  0  0  0  0  0
    5.0935   -2.4117    2.1904 H   0  0  0  0  0  0  0  0  0  0  0  0
  1  2  2  0
  2  3  1  0
  3  4  1  0
  4  5  1  0
  5  6  2  0
  6  7  1  0
  7  8  1  0
  8  9  2  0
  9 10  1  0
 10 11  2  0
 11 12  1  0
 12 13  2  0
  7 14  2  0
 14 15  1  0
  2 16  1  0
 16 17  1  0
 17 18  2  0
 18 19  1  0
 19 20  2  0
 20 21  1  0
 21 22  2  0
 15  4  2  0
 22 17  1  0
 13  8  1  0
  3 23  1  0
  3 24  1  0
  5 25  1  0
  6 26  1  0
  9 27  1  0
 10 28  1  0
 11 29  1  0
 12 30  1  0
 13 31  1  0
 14 32  1  0
 15 33  1  0
 16 34  1  0
 18 35  1  0
 19 36  1  0
 20 37  1  0
 21 38  1  0
M  END
$$$$
OCNT-0497954
     RDKit          3D

 39 41  0  0  0  0  0  0  0  0999 V2000
    4.0774    0.4688    0.0778 C   0  0  0  0  0  0  0  0  0  0  0  0
    3.8011   -0.9539    0.2616 N   0  0  0  0  0  0  0  0  0  0  0  0
    4.3035   -1.7351   -0.8646 C   0  0  0  0  0  0  0  0  0  0  0  0
    2.3859   -1.2236    0.5590 C   0  0  0  0  0  0  0  0  0  0  0  0
    1.3694   -0.9376   -0.5622 C   0  0  0  0  0  0  0  0  0  0  0  0
   -0.0478   -1.1599   -0.0918 C   0  0  0  0  0  0  0  0  0  0  0  0
   -1.0390   -0.2576    0.0957 C   0  0  0  0  0  0  0  0  0  0  0  0
   -2.4051   -0.7869    0.3702 C   0  0  0  0  0  0  0  0  0  0  0  0
   -2.6399   -1.7810    1.3339 C   0  0  0  0  0  0  0  0  0  0  0  0
   -3.9335   -2.2519    1.5671 C   0  0  0  0  0  0  0  0  0  0  0  0
   -5.0061   -1.7304    0.8479 C   0  0  0  0  0  0  0  0  0  0  0  0
   -4.7902   -0.7275   -0.0981 C   0  0  0  0  0  0  0  0  0  0  0  0
   -3.4973   -0.2424   -0.3338 C   0  0  0  0  0  0  0  0  0  0  0  0
   -3.2883    1.0656   -1.5441 S   0  0  0  0  0  0  0  0  0  0  0  0
   -1.8308    1.8871   -0.9000 C   0  0  0  0  0  0  0  0  0  0  0  0
   -1.6823    3.2588   -1.1466 C   0  0  0  0  0  0  0  0  0  0  0  0
   -0.5941    3.9560   -0.6194 C   0  0  0  0  0  0  0  0  0  0  0  0
    0.3367    3.2855    0.1688 C   0  0  0  0  0  0  0  0  0  0  0  0
    1.6657    4.1470    0.8413 Cl  0  0  0  0  0  0  0  0  0  0  0  0
    0.2020    1.9207    0.4192 C   0  0  0  0  0  0  0  0  0  0  0  0
   -0.8596    1.1983   -0.1458 C   0  0  0  0  0  0  0  0  0  0  0  0
    3.7248    1.0472    0.9389 H   0  0  0  0  0  0  0  0  0  0  0  0
    5.1577    0.6397    0.0096 H   0  0  0  0  0  0  0  0  0  0  0  0
    3.6144    0.8771   -0.8266 H   0  0  0  0  0  0  0  0  0  0  0  0
    5.3900   -1.6218   -0.9508 H   0  0  0  0  0  0  0  0  0  0  0  0
    3.8567   -1.4347   -1.8185 H   0  0  0  0  0  0  0  0  0  0  0  0
    4.1119   -2.8030   -0.7123 H   0  0  0  0  0  0  0  0  0  0  0  0
    2.1101   -0.6579    1.4588 H   0  0  0  0  0  0  0  0  0  0  0  0
    2.2961   -2.2777    0.8554 H   0  0  0  0  0  0  0  0  0  0  0  0
    1.5443   -1.6216   -1.4019 H   0  0  0  0  0  0  0  0  0  0  0  0
    1.5024    0.0671   -0.9695 H   0  0  0  0  0  0  0  0  0  0  0  0
   -0.2760   -2.2194    0.0323 H   0  0  0  0  0  0  0  0  0  0  0  0
   -1.8188   -2.1899    1.9178 H   0  0  0  0  0  0  0  0  0  0  0  0
   -4.1035   -3.0243    2.3132 H   0  0  0  0  0  0  0  0  0  0  0  0
   -6.0131   -2.0981    1.0286 H   0  0  0  0  0  0  0  0  0  0  0  0
   -5.6388   -0.3223   -0.6444 H   0  0  0  0  0  0  0  0  0  0  0  0
   -2.4197    3.7953   -1.7398 H   0  0  0  0  0  0  0  0  0  0  0  0
   -0.4895    5.0201   -0.8138 H   0  0  0  0  0  0  0  0  0  0  0  0
    0.9234    1.4239    1.0611 H   0  0  0  0  0  0  0  0  0  0  0  0
  1  2  1  0
  2  3  1  0
  2  4  1  0
  4  5  1  0
  5  6  1  0
  6  7  2  0
  7  8  1  0
  8  9  2  0
  9 10  1  0
 10 11  2  0
 11 12  1  0
 12 13  2  0
 13 14  1  0
 14 15  1  0
 15 16  1  0
 16 17  2  0
 17 18  1  0
 18 19  1  0
 18 20  2  0
 20 21  1  0
 21  7  1  0
 13  8  1  0
 21 15  2  0
  1 22  1  0
  1 23  1  0
  1 24  1  0
  3 25  1  0
  3 26  1  0
  3 27  1  0
  4 28  1  0
  4 29  1  0
  5 30  1  0
  5 31  1  0
  6 32  1  0
  9 33  1  0
 10 34  1  0
 11 35  1  0
 12 36  1  0
 16 37  1  0
 17 38  1  0
 20 39  1  0
M  END
$$$$
OCNT-0497979
     RDKit          3D

 47 48  0  0  0  0  0  0  0  0999 V2000
    0.8234    2.2452   -0.3426 C   0  0  0  0  0  0  0  0  0  0  0  0
    0.8212    0.7930   -0.2657 N   0  0  0  0  0  0  0  0  0  0  0  0
    0.1520    0.2378    0.9036 C   0  0  0  0  0  0  0  0  0  0  0  0
   -1.3374    0.0699    0.7553 C   0  0  0  0  0  0  0  0  0  0  0  0
   -2.0639    0.2381   -0.3600 C   0  0  0  0  0  0  0  0  0  0  0  0
   -3.4702    0.0417   -0.3626 C   0  0  0  0  0  0  0  0  0  0  0  0
   -4.6598   -0.1239   -0.3671 C   0  0  0  0  0  0  0  0  0  0  0  0
   -6.1254   -0.3287   -0.3710 C   0  0  0  0  0  0  0  0  0  0  0  0
   -6.4335   -1.8003   -0.6810 C   0  0  0  0  0  0  0  0  0  0  0  0
   -6.6943    0.0359    1.0074 C   0  0  0  0  0  0  0  0  0  0  0  0
   -6.7625    0.5665   -1.4429 C   0  0  0  0  0  0  0  0  0  0  0  0
    2.0866    0.1511   -0.6358 C   0  0  0  0  0  0  0  0  0  0  0  0
    3.3289    0.2458    0.2469 C   0  0  0  0  0  0  0  0  0  0  0  0
    3.3309    0.9088    1.4855 C   0  0  0  0  0  0  0  0  0  0  0  0
    4.4774    0.9768    2.2733 C   0  0  0  0  0  0  0  0  0  0  0  0
    5.6543    0.3791    1.8422 C   0  0  0  0  0  0  0  0  0  0  0  0
    5.7039   -0.2973    0.6190 C   0  0  0  0  0  0  0  0  0  0  0  0
    6.9067   -0.8961    0.2076 C   0  0  0  0  0  0  0  0  0  0  0  0
    6.9925   -1.5801   -1.0021 C   0  0  0  0  0  0  0  0  0  0  0  0
    5.8738   -1.6739   -1.8160 C   0  0  0  0  0  0  0  0  0  0  0  0
    4.6709   -1.0823   -1.4192 C   0  0  0  0  0  0  0  0  0  0  0  0
    4.5437   -0.3765   -0.1968 C   0  0  0  0  0  0  0  0  0  0  0  0
    1.4324    2.7191    0.4314 H   0  0  0  0  0  0  0  0  0  0  0  0
    1.1955    2.5796   -1.3174 H   0  0  0  0  0  0  0  0  0  0  0  0
   -0.1931    2.6434   -0.2512 H   0  0  0  0  0  0  0  0  0  0  0  0
    0.5473   -0.7590    1.1390 H   0  0  0  0  0  0  0  0  0  0  0  0
    0.3336    0.8560    1.7904 H   0  0  0  0  0  0  0  0  0  0  0  0
   -1.8478   -0.2328    1.6682 H   0  0  0  0  0  0  0  0  0  0  0  0
   -1.5930    0.5246   -1.2954 H   0  0  0  0  0  0  0  0  0  0  0  0
   -5.9866   -2.4673    0.0659 H   0  0  0  0  0  0  0  0  0  0  0  0
   -7.5135   -1.9859   -0.6911 H   0  0  0  0  0  0  0  0  0  0  0  0
   -6.0346   -2.0939   -1.6593 H   0  0  0  0  0  0  0  0  0  0  0  0
   -6.2540   -0.5842    1.7974 H   0  0  0  0  0  0  0  0  0  0  0  0
   -7.7806   -0.1053    1.0382 H   0  0  0  0  0  0  0  0  0  0  0  0
   -6.4858    1.0822    1.2610 H   0  0  0  0  0  0  0  0  0  0  0  0
   -6.3720    0.3335   -2.4408 H   0  0  0  0  0  0  0  0  0  0  0  0
   -6.5557    1.6263   -1.2521 H   0  0  0  0  0  0  0  0  0  0  0  0
   -7.8504    0.4382   -1.4716 H   0  0  0  0  0  0  0  0  0  0  0  0
    2.3586    0.5393   -1.6266 H   0  0  0  0  0  0  0  0  0  0  0  0
    1.8714   -0.9161   -0.7824 H   0  0  0  0  0  0  0  0  0  0  0  0
    2.4416    1.3932    1.8697 H   0  0  0  0  0  0  0  0  0  0  0  0
    4.4512    1.4987    3.2265 H   0  0  0  0  0  0  0  0  0  0  0  0
    6.5370    0.4454    2.4742 H   0  0  0  0  0  0  0  0  0  0  0  0
    7.7943   -0.8337    0.8340 H   0  0  0  0  0  0  0  0  0  0  0  0
    7.9302   -2.0378   -1.3050 H   0  0  0  0  0  0  0  0  0  0  0  0
    5.9303   -2.2067   -2.7616 H   0  0  0  0  0  0  0  0  0  0  0  0
    3.8245   -1.1871   -2.0937 H   0  0  0  0  0  0  0  0  0  0  0  0
  1  2  1  0
  2  3  1  0
  3  4  1  0
  4  5  2  0
  5  6  1  0
  6  7  3  0
  7  8  1  0
  8  9  1  0
  8 10  1  0
  8 11  1  0
  2 12  1  0
 12 13  1  0
 13 14  2  0
 14 15  1  0
 15 16  2  0
 16 17  1  0
 17 18  2  0
 18 19  1  0
 19 20  2  0
 20 21  1  0
 21 22  2  0
 22 13  1  0
 22 17  1  0
  1 23  1  0
  1 24  1  0
  1 25  1  0
  3 26  1  0
  3 27  1  0
  4 28  1  0
  5 29  1  0
  9 30  1  0
  9 31  1  0
  9 32  1  0
 10 33  1  0
 10 34  1  0
 10 35  1  0
 11 36  1  0
 11 37  1  0
 11 38  1  0
 12 39  1  0
 12 40  1  0
 14 41  1  0
 15 42  1  0
 16 43  1  0
 18 44  1  0
 19 45  1  0
 20 46  1  0
 21 47  1  0
M  END
$$$$
OCNT-0497986
     RDKit          3D

 28 29  0  0  0  0  0  0  0  0999 V2000
    3.3130    1.7108    0.7264 N   0  0  0  0  0  0  0  0  0  0  0  0
    3.1806    0.1531    0.1155 S   0  0  0  0  0  0  0  0  0  0  0  0
    3.7165    0.2012   -1.2214 O   0  0  0  0  0  0  0  0  0  0  0  0
    3.6991   -0.6940    1.1602 O   0  0  0  0  0  0  0  0  0  0  0  0
    1.4296   -0.1214   -0.0097 C   0  0  0  0  0  0  0  0  0  0  0  0
    0.5692    0.9809   -0.0436 C   0  0  0  0  0  0  0  0  0  0  0  0
   -0.8119    0.7710   -0.1106 C   0  0  0  0  0  0  0  0  0  0  0  0
   -1.3735   -0.5048   -0.1592 C   0  0  0  0  0  0  0  0  0  0  0  0
   -0.4932   -1.5935   -0.0878 C   0  0  0  0  0  0  0  0  0  0  0  0
    0.9108   -1.4284   -0.0377 C   0  0  0  0  0  0  0  0  0  0  0  0
    1.7851   -2.6621    0.0109 C   0  0  0  0  0  0  0  0  0  0  0  0
    2.9094   -2.5658   -0.7419 F   0  0  0  0  0  0  0  0  0  0  0  0
    1.1367   -3.7674   -0.4627 F   0  0  0  0  0  0  0  0  0  0  0  0
    2.1670   -2.9845    1.2726 F   0  0  0  0  0  0  0  0  0  0  0  0
   -2.7515   -0.7441   -0.1171 N   0  0  0  0  0  0  0  0  0  0  0  0
   -3.6293    0.3196   -0.5462 C   0  0  0  0  0  0  0  0  0  0  0  0
   -3.3614    1.4793    0.2573 N   0  0  0  0  0  0  0  0  0  0  0  0
   -1.8807    2.1691   -0.0931 S   0  0  0  0  0  0  0  0  0  0  0  0
   -1.9234    2.6879   -1.4413 O   0  0  0  0  0  0  0  0  0  0  0  0
   -1.5234    2.9880    1.0431 O   0  0  0  0  0  0  0  0  0  0  0  0
    3.7583    1.6817    1.6460 H   0  0  0  0  0  0  0  0  0  0  0  0
    3.8115    2.3021    0.0584 H   0  0  0  0  0  0  0  0  0  0  0  0
    0.9518    1.9992   -0.0108 H   0  0  0  0  0  0  0  0  0  0  0  0
   -0.9039   -2.6045   -0.0687 H   0  0  0  0  0  0  0  0  0  0  0  0
   -3.0053   -1.6385   -0.5331 H   0  0  0  0  0  0  0  0  0  0  0  0
   -4.6652    0.0101   -0.3720 H   0  0  0  0  0  0  0  0  0  0  0  0
   -3.5366    0.5196   -1.6197 H   0  0  0  0  0  0  0  0  0  0  0  0
   -3.4793    1.3355    1.2571 H   0  0  0  0  0  0  0  0  0  0  0  0
  1  2  1  0
  2  3  2  0
  2  4  2  0
  2  5  1  0
  5  6  1  0
  6  7  2  0
  7  8  1  0
  8  9  2  0
  9 10  1  0
 10 11  1  0
 11 12  1  0
 11 13  1  0
 11 14  1  0
  8 15  1  0
 15 16  1  0
 16 17  1  0
 17 18  1  0
 18 19  2  0
 18 20  2  0
 10  5  2  0
 18  7  1  0
  1 21  1  0
  1 22  1  0
  6 23  1  0
  9 24  1  0
 15 25  1  0
 16 26  1  0
 16 27  1  0
 17 28  1  0
M  END
$$$$
OCNT-0497994
     RDKit          3D

 44 45  0  0  0  0  0  0  0  0999 V2000
    4.2815   -2.7866    0.9659 C   0  0  0  0  0  0  0  0  0  0  0  0
    2.8810   -2.5984    1.5174 C   0  0  0  0  0  0  0  0  0  0  0  0
    2.2634   -1.4521    0.9155 O   0  0  0  0  0  0  0  0  0  0  0  0
    1.6198   -1.6754   -0.2551 C   0  0  0  0  0  0  0  0  0  0  0  0
    1.5426   -2.7375   -0.8517 O   0  0  0  0  0  0  0  0  0  0  0  0
    1.0139   -0.4104   -0.7216 C   0  0  0  0  0  0  0  0  0  0  0  0
    1.1890    0.0257   -1.9897 C   0  0  0  0  0  0  0  0  0  0  0  0
    2.0372   -0.6687   -3.0253 C   0  0  0  0  0  0  0  0  0  0  0  0
    0.5892    1.2090   -2.3948 N   0  0  0  0  0  0  0  0  0  0  0  0
   -0.1189    2.0572   -1.5571 C   0  0  0  0  0  0  0  0  0  0  0  0
   -0.5327    3.3771   -2.1557 C   0  0  0  0  0  0  0  0  0  0  0  0
   -0.3543    1.6842   -0.2792 C   0  0  0  0  0  0  0  0  0  0  0  0
   -1.0741    2.5351    0.6886 C   0  0  0  0  0  0  0  0  0  0  0  0
   -0.6224    2.8484    1.7780 O   0  0  0  0  0  0  0  0  0  0  0  0
   -2.3086    2.8345    0.2121 O   0  0  0  0  0  0  0  0  0  0  0  0
   -3.1057    3.5942    1.1205 C   0  0  0  0  0  0  0  0  0  0  0  0
    0.1514    0.3563    0.2809 C   0  0  0  0  0  0  0  0  0  0  0  0
   -1.0210   -0.5127    0.7691 C   0  0  0  0  0  0  0  0  0  0  0  0
   -1.9874   -0.9319   -0.1739 C   0  0  0  0  0  0  0  0  0  0  0  0
   -3.0735   -1.7200    0.2011 C   0  0  0  0  0  0  0  0  0  0  0  0
   -3.2196   -2.1090    1.5277 C   0  0  0  0  0  0  0  0  0  0  0  0
   -2.2794   -1.7117    2.4821 C   0  0  0  0  0  0  0  0  0  0  0  0
   -2.5424   -2.2475    4.1082 Cl  0  0  0  0  0  0  0  0  0  0  0  0
   -1.1787   -0.9154    2.1138 C   0  0  0  0  0  0  0  0  0  0  0  0
   -0.0243   -0.4429    3.3206 Cl  0  0  0  0  0  0  0  0  0  0  0  0
    4.8778   -1.8803    1.1138 H   0  0  0  0  0  0  0  0  0  0  0  0
    4.7833   -3.6239    1.4590 H   0  0  0  0  0  0  0  0  0  0  0  0
    4.2571   -2.9791   -0.1114 H   0  0  0  0  0  0  0  0  0  0  0  0
    2.9314   -2.4068    2.5942 H   0  0  0  0  0  0  0  0  0  0  0  0
    2.2704   -3.4980    1.3784 H   0  0  0  0  0  0  0  0  0  0  0  0
    2.7628   -1.3632   -2.5936 H   0  0  0  0  0  0  0  0  0  0  0  0
    1.3998   -1.2183   -3.7253 H   0  0  0  0  0  0  0  0  0  0  0  0
    2.6175    0.0653   -3.5960 H   0  0  0  0  0  0  0  0  0  0  0  0
    0.8014    1.5437   -3.3319 H   0  0  0  0  0  0  0  0  0  0  0  0
   -0.7906    4.1285   -1.4045 H   0  0  0  0  0  0  0  0  0  0  0  0
   -1.3936    3.2360   -2.8170 H   0  0  0  0  0  0  0  0  0  0  0  0
    0.2875    3.7996   -2.7472 H   0  0  0  0  0  0  0  0  0  0  0  0
   -4.0724    3.7837    0.6460 H   0  0  0  0  0  0  0  0  0  0  0  0
   -2.6308    4.5567    1.3353 H   0  0  0  0  0  0  0  0  0  0  0  0
   -3.2772    3.0309    2.0432 H   0  0  0  0  0  0  0  0  0  0  0  0
    0.8143    0.6254    1.1104 H   0  0  0  0  0  0  0  0  0  0  0  0
   -1.8941   -0.6434   -1.2215 H   0  0  0  0  0  0  0  0  0  0  0  0
   -3.8024   -2.0322   -0.5433 H   0  0  0  0  0  0  0  0  0  0  0  0
   -4.0681   -2.7259    1.8141 H   0  0  0  0  0  0  0  0  0  0  0  0
  1  2  1  0
  2  3  1  0
  3  4  1  0
  4  5  2  0
  4  6  1  0
  6  7  2  0
  7  8  1  0
  7  9  1  0
  9 10  1  0
 10 11  1  0
 10 12  2  0
 12 13  1  0
 13 14  2  0
 13 15  1  0
 15 16  1  0
 12 17  1  0
 17 18  1  0
 18 19  2  0
 19 20  1  0
 20 21  2  0
 21 22  1  0
 22 23  1  0
 22 24  2  0
 24 25  1  0
 17  6  1  0
 24 18  1  0
  1 26  1  0
  1 27  1  0
  1 28  1  0
  2 29  1  0
  2 30  1  0
  8 31  1  0
  8 32  1  0
  8 33  1  0
  9 34  1  0
 11 35  1  0
 11 36  1  0
 11 37  1  0
 16 38  1  0
 16 39  1  0
 16 40  1  0
 17 41  1  0
 19 42  1  0
 20 43  1  0
 21 44  1  0
M  END
$$$$
OCNT-0498030
     RDKit          3D

 46 48  0  0  0  0  0  0  0  0999 V2000
    3.5574    2.5845   -3.4482 C   0  0  0  0  0  0  0  0  0  0  0  0
    3.7989    1.6932   -2.2686 C   0  0  0  0  0  0  0  0  0  0  0  0
    4.9751    0.9526   -2.1517 C   0  0  0  0  0  0  0  0  0  0  0  0
    5.1475    0.1707   -1.0223 C   0  0  0  0  0  0  0  0  0  0  0  0
    4.2419    0.0779   -0.0228 N   0  0  0  0  0  0  0  0  0  0  0  0
    3.1109    0.8095   -0.1387 C   0  0  0  0  0  0  0  0  0  0  0  0
    2.2411    0.6403    0.9398 N   0  0  0  0  0  0  0  0  0  0  0  0
    0.9938    1.1904    1.1315 C   0  0  0  0  0  0  0  0  0  0  0  0
    0.4283    1.9685    0.3633 O   0  0  0  0  0  0  0  0  0  0  0  0
    0.2771    0.7089    2.4035 C   0  0  0  0  0  0  0  0  0  0  0  0
    1.1283    0.8877    3.6646 C   0  0  0  0  0  0  0  0  0  0  0  0
   -0.2982   -0.6855    2.1952 C   0  0  0  0  0  0  0  0  0  0  0  0
    0.3712   -1.8559    2.5785 C   0  0  0  0  0  0  0  0  0  0  0  0
   -0.1838   -3.1117    2.3166 C   0  0  0  0  0  0  0  0  0  0  0  0
   -1.4082   -3.2169    1.6556 C   0  0  0  0  0  0  0  0  0  0  0  0
   -2.0838   -2.0636    1.2514 C   0  0  0  0  0  0  0  0  0  0  0  0
   -3.3918   -2.2087    0.5572 C   0  0  0  0  0  0  0  0  0  0  0  0
   -4.1216   -3.1567    0.8380 O   0  0  0  0  0  0  0  0  0  0  0  0
   -3.8411   -1.2274   -0.4614 C   0  0  0  0  0  0  0  0  0  0  0  0
   -2.9487   -0.6556   -1.3759 C   0  0  0  0  0  0  0  0  0  0  0  0
   -3.4105    0.2799   -2.3044 C   0  0  0  0  0  0  0  0  0  0  0  0
   -4.7620    0.6307   -2.3339 C   0  0  0  0  0  0  0  0  0  0  0  0
   -5.6576    0.0408   -1.4421 C   0  0  0  0  0  0  0  0  0  0  0  0
   -5.1993   -0.8922   -0.5090 C   0  0  0  0  0  0  0  0  0  0  0  0
   -1.5372   -0.8051    1.5345 C   0  0  0  0  0  0  0  0  0  0  0  0
    2.8613    1.6313   -1.2295 C   0  0  0  0  0  0  0  0  0  0  0  0
    4.1986    2.3141   -4.2944 H   0  0  0  0  0  0  0  0  0  0  0  0
    3.7596    3.6253   -3.1762 H   0  0  0  0  0  0  0  0  0  0  0  0
    2.5191    2.4991   -3.7854 H   0  0  0  0  0  0  0  0  0  0  0  0
    5.7431    0.9807   -2.9198 H   0  0  0  0  0  0  0  0  0  0  0  0
    6.0550   -0.4133   -0.8787 H   0  0  0  0  0  0  0  0  0  0  0  0
    2.5988   -0.0397    1.5970 H   0  0  0  0  0  0  0  0  0  0  0  0
   -0.5750    1.3928    2.5410 H   0  0  0  0  0  0  0  0  0  0  0  0
    2.0317    0.2693    3.6665 H   0  0  0  0  0  0  0  0  0  0  0  0
    1.4534    1.9301    3.7564 H   0  0  0  0  0  0  0  0  0  0  0  0
    0.5482    0.6332    4.5596 H   0  0  0  0  0  0  0  0  0  0  0  0
    1.3322   -1.8175    3.0849 H   0  0  0  0  0  0  0  0  0  0  0  0
    0.3432   -4.0135    2.6222 H   0  0  0  0  0  0  0  0  0  0  0  0
   -1.8342   -4.1990    1.4551 H   0  0  0  0  0  0  0  0  0  0  0  0
   -1.8973   -0.9285   -1.3819 H   0  0  0  0  0  0  0  0  0  0  0  0
   -2.7147    0.7336   -3.0082 H   0  0  0  0  0  0  0  0  0  0  0  0
   -5.1196    1.3616   -3.0581 H   0  0  0  0  0  0  0  0  0  0  0  0
   -6.7130    0.3074   -1.4712 H   0  0  0  0  0  0  0  0  0  0  0  0
   -5.9017   -1.3490    0.1852 H   0  0  0  0  0  0  0  0  0  0  0  0
   -2.0753    0.0992    1.2506 H   0  0  0  0  0  0  0  0  0  0  0  0
    1.9589    2.2262   -1.2966 H   0  0  0  0  0  0  0  0  0  0  0  0
  1  2  1  0
  2  3  2  0
  3  4  1  0
  4  5  2  0
  5  6  1  0
  6  7  1  0
  7  8  1  0
  8  9  2  0
  8 10  1  0
 10 11  1  0
 10 12  1  0
 12 13  2  0
 13 14  1  0
 14 15  2  0
 15 16  1  0
 16 17  1  0
 17 18  2  0
 17 19  1  0
 19 20  2  0
 20 21  1  0
 21 22  2  0
 22 23  1  0
 23 24  2  0
 16 25  2  0
  6 26  2  0
 26  2  1  0
 25 12  1  0
 24 19  1  0
  1 27  1  0
  1 28  1  0
  1 29  1  0
  3 30  1  0
  4 31  1  0
  7 32  1  0
 10 33  1  0
 11 34  1  0
 11 35  1  0
 11 36  1  0
 13 37  1  0
 14 38  1  0
 15 39  1  0
 20 40  1  0
 21 41  1  0
 22 42  1  0
 23 43  1  0
 24 44  1  0
 25 45  1  0
 26 46  1  0
M  END
$$$$
OCNT-0498067
     RDKit          3D

 51 54  0  0  0  0  0  0  0  0999 V2000
    0.7889    1.5317    0.7358 O   0  0  0  0  0  0  0  0  0  0  0  0
   -0.0562    0.7241    0.4228 C   0  0  0  0  0  0  0  0  0  0  0  0
   -0.0785   -0.8016    0.2357 C   0  0  2  0  0  0  0  0  0  0  0  0
    0.8154   -1.4041   -0.8453 C   0  0  0  0  0  0  0  0  0  0  0  0
    2.2994   -1.3287   -0.4591 C   0  0  0  0  0  0  0  0  0  0  0  0
    3.0214   -0.1320   -1.0958 C   0  0  2  0  0  0  0  0  0  0  0  0
    3.0943   -0.3310   -2.5092 O   0  0  0  0  0  0  0  0  0  0  0  0
    4.4134    0.0525   -0.5281 C   0  0  0  0  0  0  0  0  0  0  0  0
    5.4685   -0.8013   -0.8932 C   0  0  0  0  0  0  0  0  0  0  0  0
    6.7418   -0.6245   -0.3503 C   0  0  0  0  0  0  0  0  0  0  0  0
    6.9615    0.4004    0.5618 C   0  0  0  0  0  0  0  0  0  0  0  0
    8.1840    0.5684    1.0831 F   0  0  0  0  0  0  0  0  0  0  0  0
    5.9316    1.2511    0.9438 C   0  0  0  0  0  0  0  0  0  0  0  0
    4.6572    1.0769    0.4019 C   0  0  0  0  0  0  0  0  0  0  0  0
   -1.5763   -0.6031   -0.1717 C   0  0  1  0  0  0  0  0  0  0  0  0
   -2.6588   -1.3845    0.6959 C   0  0  0  0  0  0  0  0  0  0  0  0
   -3.0311   -0.9848    1.9970 C   0  0  0  0  0  0  0  0  0  0  0  0
   -3.9807   -1.6867    2.7449 C   0  0  0  0  0  0  0  0  0  0  0  0
   -4.5816   -2.8137    2.2073 C   0  0  0  0  0  0  0  0  0  0  0  0
   -5.5011   -3.4704    2.9681 O   0  0  0  0  0  0  0  0  0  0  0  0
   -4.2477   -3.2493    0.9333 C   0  0  0  0  0  0  0  0  0  0  0  0
   -3.2965   -2.5390    0.1926 C   0  0  0  0  0  0  0  0  0  0  0  0
   -1.3665    0.8247    0.0914 N   0  0  0  0  0  0  0  0  0  0  0  0
   -2.2035    1.9218   -0.1064 C   0  0  0  0  0  0  0  0  0  0  0  0
   -1.7592    3.2230    0.1638 C   0  0  0  0  0  0  0  0  0  0  0  0
   -2.6036    4.3191   -0.0352 C   0  0  0  0  0  0  0  0  0  0  0  0
   -3.8938    4.1143   -0.5039 C   0  0  0  0  0  0  0  0  0  0  0  0
   -4.7036    5.1638   -0.6943 F   0  0  0  0  0  0  0  0  0  0  0  0
   -4.3556    2.8339   -0.7770 C   0  0  0  0  0  0  0  0  0  0  0  0
   -3.5108    1.7381   -0.5788 C   0  0  0  0  0  0  0  0  0  0  0  0
    0.0502   -1.3215    1.1955 H   0  0  0  0  0  0  0  0  0  0  0  0
    0.5413   -2.4606   -0.9576 H   0  0  0  0  0  0  0  0  0  0  0  0
    0.6351   -0.9298   -1.8168 H   0  0  0  0  0  0  0  0  0  0  0  0
    2.7790   -2.2502   -0.8158 H   0  0  0  0  0  0  0  0  0  0  0  0
    2.4099   -1.3116    0.6320 H   0  0  0  0  0  0  0  0  0  0  0  0
    2.4495    0.7881   -0.9522 H   0  0  0  0  0  0  0  0  0  0  0  0
    3.7627    0.2932   -2.8428 H   0  0  0  0  0  0  0  0  0  0  0  0
    5.2975   -1.6085   -1.6032 H   0  0  0  0  0  0  0  0  0  0  0  0
    7.5604   -1.2795   -0.6303 H   0  0  0  0  0  0  0  0  0  0  0  0
    6.1247    2.0412    1.6622 H   0  0  0  0  0  0  0  0  0  0  0  0
    3.8516    1.7416    0.7126 H   0  0  0  0  0  0  0  0  0  0  0  0
   -1.7471   -0.7565   -1.2483 H   0  0  0  0  0  0  0  0  0  0  0  0
   -2.5741   -0.1014    2.4411 H   0  0  0  0  0  0  0  0  0  0  0  0
   -4.2473   -1.3508    3.7432 H   0  0  0  0  0  0  0  0  0  0  0  0
   -5.8333   -4.2334    2.4675 H   0  0  0  0  0  0  0  0  0  0  0  0
   -4.7092   -4.1308    0.4997 H   0  0  0  0  0  0  0  0  0  0  0  0
   -3.0431   -2.8941   -0.8056 H   0  0  0  0  0  0  0  0  0  0  0  0
   -0.7544    3.4079    0.5358 H   0  0  0  0  0  0  0  0  0  0  0  0
   -2.2600    5.3267    0.1756 H   0  0  0  0  0  0  0  0  0  0  0  0
   -5.3688    2.6943   -1.1401 H   0  0  0  0  0  0  0  0  0  0  0  0
   -3.8965    0.7467   -0.7982 H   0  0  0  0  0  0  0  0  0  0  0  0
  1  2  2  0
  2  3  1  0
  3  4  1  0
  4  5  1  0
  5  6  1  0
  6  7  1  0
  6  8  1  0
  8  9  1  0
  9 10  2  0
 10 11  1  0
 11 12  1  0
 11 13  2  0
 13 14  1  0
  3 15  1  0
 15 16  1  0
 16 17  1  0
 17 18  2  0
 18 19  1  0
 19 20  1  0
 19 21  2  0
 21 22  1  0
 15 23  1  0
 23 24  1  0
 24 25  1  0
 25 26  2  0
 26 27  1  0
 27 28  1  0
 27 29  2  0
 29 30  1  0
 23  2  1  0
 30 24  2  0
 14  8  2  0
 22 16  2  0
  3 31  1  1
  4 32  1  0
  4 33  1  0
  5 34  1  0
  5 35  1  0
  6 36  1  6
  7 37  1  0
  9 38  1  0
 10 39  1  0
 13 40  1  0
 14 41  1  0
 15 42  1  6
 17 43  1  0
 18 44  1  0
 20 45  1  0
 21 46  1  0
 22 47  1  0
 25 48  1  0
 26 49  1  0
 29 50  1  0
 30 51  1  0
M  END
$$$$
OCNT-0713834
     RDKit          3D

 57 59  0  0  0  0  0  0  0  0999 V2000
   -5.6665   -0.4911    0.7315 C   0  0  0  0  0  0  0  0  0  0  0  0
   -4.9273   -1.2621   -0.3930 C   0  0  0  0  0  0  0  0  0  0  0  0
   -5.6037   -0.8402   -1.7168 C   0  0  0  0  0  0  0  0  0  0  0  0
   -5.1873   -2.7622   -0.1286 C   0  0  0  0  0  0  0  0  0  0  0  0
   -3.4086   -0.9825   -0.4498 C   0  0  0  0  0  0  0  0  0  0  0  0
   -2.7795   -0.1103    0.4640 C   0  0  0  0  0  0  0  0  0  0  0  0
   -1.3864    0.1963    0.4700 C   0  0  0  0  0  0  0  0  0  0  0  0
   -0.8546    1.1889    1.5447 C   0  0  0  0  0  0  0  0  0  0  0  0
   -1.9537    1.7766    2.4834 C   0  0  0  0  0  0  0  0  0  0  0  0
   -0.2248    2.4347    0.8783 C   0  0  0  0  0  0  0  0  0  0  0  0
    0.1231    0.4731    2.5039 C   0  0  0  0  0  0  0  0  0  0  0  0
   -0.5821   -0.4331   -0.5197 C   0  0  0  0  0  0  0  0  0  0  0  0
    0.8219   -0.2103   -0.5930 N   0  0  0  0  0  0  0  0  0  0  0  0
    1.7260   -0.6780   -1.5307 C   0  0  0  0  0  0  0  0  0  0  0  0
    1.4575   -1.3619   -2.5168 O   0  0  0  0  0  0  0  0  0  0  0  0
    3.1526   -0.2858   -1.2865 C   0  0  0  0  0  0  0  0  0  0  0  0
    4.0918   -0.7323   -2.1405 C   0  0  0  0  0  0  0  0  0  0  0  0
    5.4353   -0.4698   -2.0576 N   0  0  0  0  0  0  0  0  0  0  0  0
    5.9594    0.2490   -0.9782 C   0  0  0  0  0  0  0  0  0  0  0  0
    5.0926    0.7958   -0.0179 C   0  0  0  0  0  0  0  0  0  0  0  0
    5.5892    1.5517    1.0501 C   0  0  0  0  0  0  0  0  0  0  0  0
    6.9621    1.7689    1.1598 C   0  0  0  0  0  0  0  0  0  0  0  0
    7.8303    1.2377    0.2049 C   0  0  0  0  0  0  0  0  0  0  0  0
    7.3311    0.4862   -0.8641 C   0  0  0  0  0  0  0  0  0  0  0  0
    3.6316    0.5568   -0.1542 C   0  0  0  0  0  0  0  0  0  0  0  0
    2.8464    1.0425    0.6555 O   0  0  0  0  0  0  0  0  0  0  0  0
   -1.1998   -1.3052   -1.4294 C   0  0  0  0  0  0  0  0  0  0  0  0
   -2.5724   -1.5706   -1.3973 C   0  0  0  0  0  0  0  0  0  0  0  0
   -3.0855   -2.4386   -2.3230 O   0  0  0  0  0  0  0  0  0  0  0  0
   -6.7393   -0.7198    0.7289 H   0  0  0  0  0  0  0  0  0  0  0  0
   -5.5716    0.5943    0.6068 H   0  0  0  0  0  0  0  0  0  0  0  0
   -5.2868   -0.7599    1.7248 H   0  0  0  0  0  0  0  0  0  0  0  0
   -5.2766   -1.4401   -2.5712 H   0  0  0  0  0  0  0  0  0  0  0  0
   -6.6930   -0.9531   -1.6565 H   0  0  0  0  0  0  0  0  0  0  0  0
   -5.3905    0.2099   -1.9506 H   0  0  0  0  0  0  0  0  0  0  0  0
   -4.6827   -3.0936    0.7864 H   0  0  0  0  0  0  0  0  0  0  0  0
   -4.8410   -3.4031   -0.9442 H   0  0  0  0  0  0  0  0  0  0  0  0
   -6.2585   -2.9615   -0.0085 H   0  0  0  0  0  0  0  0  0  0  0  0
   -3.4098    0.3533    1.2122 H   0  0  0  0  0  0  0  0  0  0  0  0
   -2.4552    0.9946    3.0661 H   0  0  0  0  0  0  0  0  0  0  0  0
   -2.7141    2.3330    1.9220 H   0  0  0  0  0  0  0  0  0  0  0  0
   -1.5194    2.4769    3.2080 H   0  0  0  0  0  0  0  0  0  0  0  0
    0.1584    3.1323    1.6329 H   0  0  0  0  0  0  0  0  0  0  0  0
    0.6024    2.2216    0.2026 H   0  0  0  0  0  0  0  0  0  0  0  0
   -0.9745    2.9722    0.2835 H   0  0  0  0  0  0  0  0  0  0  0  0
   -0.3929   -0.3225    3.0557 H   0  0  0  0  0  0  0  0  0  0  0  0
    0.9712   -0.0035    2.0137 H   0  0  0  0  0  0  0  0  0  0  0  0
    0.5333    1.1730    3.2414 H   0  0  0  0  0  0  0  0  0  0  0  0
    1.2259    0.3836    0.1242 H   0  0  0  0  0  0  0  0  0  0  0  0
    3.8353   -1.3605   -2.9911 H   0  0  0  0  0  0  0  0  0  0  0  0
    6.0663   -0.9659   -2.6778 H   0  0  0  0  0  0  0  0  0  0  0  0
    4.9127    1.9705    1.7912 H   0  0  0  0  0  0  0  0  0  0  0  0
    7.3548    2.3554    1.9866 H   0  0  0  0  0  0  0  0  0  0  0  0
    8.9003    1.4143    0.2887 H   0  0  0  0  0  0  0  0  0  0  0  0
    8.0230    0.0922   -1.6036 H   0  0  0  0  0  0  0  0  0  0  0  0
   -0.6175   -1.8182   -2.1842 H   0  0  0  0  0  0  0  0  0  0  0  0
   -2.3791   -2.6995   -2.9369 H   0  0  0  0  0  0  0  0  0  0  0  0
  1  2  1  0
  2  3  1  0
  2  4  1  0
  2  5  1  0
  5  6  2  0
  6  7  1  0
  7  8  1  0
  8  9  1  0
  8 10  1  0
  8 11  1  0
  7 12  2  0
 12 13  1  0
 13 14  1  0
 14 15  2  0
 14 16  1  0
 16 17  2  0
 17 18  1  0
 18 19  1  0
 19 20  1  0
 20 21  2  0
 21 22  1  0
 22 23  2  0
 23 24  1  0
 20 25  1  0
 25 26  2  0
 12 27  1  0
 27 28  2  0
 28 29  1  0
 28  5  1  0
 25 16  1  0
 24 19  2  0
  1 30  1  0
  1 31  1  0
  1 32  1  0
  3 33  1  0
  3 34  1  0
  3 35  1  0
  4 36  1  0
  4 37  1  0
  4 38  1  0
  6 39  1  0
  9 40  1  0
  9 41  1  0
  9 42  1  0
 10 43  1  0
 10 44  1  0
 10 45  1  0
 11 46  1  0
 11 47  1  0
 11 48  1  0
 13 49  1  0
 17 50  1  0
 18 51  1  0
 21 52  1  0
 22 53  1  0
 23 54  1  0
 24 55  1  0
 27 56  1  0
 29 57  1  0
M  END
$$$$
OCNT-0713835
     RDKit          3D

 75 78  0  0  0  0  0  0  0  0999 V2000
   -5.7156    2.0761   -1.9741 C   0  0  0  0  0  0  0  0  0  0  0  0
   -5.5984    2.9079   -0.7481 C   0  0  0  0  0  0  0  0  0  0  0  0
   -5.7386    4.2406   -0.8594 N   0  0  0  0  0  0  0  0  0  0  0  0
   -5.6137    4.6980    0.3969 N   0  0  0  0  0  0  0  0  0  0  0  0
   -5.7477    6.1113    0.6562 C   0  0  0  0  0  0  0  0  0  0  0  0
   -5.3388    3.7239    1.3039 C   0  0  0  0  0  0  0  0  0  0  0  0
   -5.3260    2.5394    0.5909 C   0  0  0  0  0  0  0  0  0  0  0  0
   -5.0065    0.9790    1.2313 S   0  0  0  0  0  0  0  0  0  0  0  0
   -5.1140    1.1640    2.6659 O   0  0  0  0  0  0  0  0  0  0  0  0
   -5.8732    0.0616    0.5325 O   0  0  0  0  0  0  0  0  0  0  0  0
   -3.4090    0.6142    0.9745 N   0  0  0  0  0  0  0  0  0  0  0  0
   -2.8645    0.1711   -0.2356 C   0  0  0  0  0  0  0  0  0  0  0  0
   -3.4774    0.1012   -1.2855 O   0  0  0  0  0  0  0  0  0  0  0  0
   -1.4191   -0.0911   -0.1652 C   0  0  0  0  0  0  0  0  0  0  0  0
   -0.5564    0.9712    0.1311 C   0  0  0  0  0  0  0  0  0  0  0  0
    0.8163    0.7528    0.1185 C   0  0  0  0  0  0  0  0  0  0  0  0
    1.2764   -0.5225   -0.1924 C   0  0  0  0  0  0  0  0  0  0  0  0
    2.6822   -0.7657   -0.2362 N   0  0  0  0  0  0  0  0  0  0  0  0
    3.2885   -1.9717   -0.5200 C   0  0  0  0  0  0  0  0  0  0  0  0
    4.6451   -1.7594   -0.4752 C   0  0  0  0  0  0  0  0  0  0  0  0
    4.7697   -0.4040   -0.1512 C   0  0  0  0  0  0  0  0  0  0  0  0
    5.9378    0.2564   -0.0118 O   0  0  0  0  0  0  0  0  0  0  0  0
    5.8130    1.6082    0.4330 C   0  0  0  0  0  0  0  0  0  0  0  0
    7.2043    2.2407    0.6275 C   0  0  0  0  0  0  0  0  0  0  0  0
    7.0242    3.7204    1.0175 C   0  0  0  0  0  0  0  0  0  0  0  0
    8.0252    2.1579   -0.6719 C   0  0  0  0  0  0  0  0  0  0  0  0
    7.9441    1.5099    1.7483 C   0  0  0  0  0  0  0  0  0  0  0  0
    7.2474    1.5561    2.9076 F   0  0  0  0  0  0  0  0  0  0  0  0
    9.1471    2.0858    1.9862 F   0  0  0  0  0  0  0  0  0  0  0  0
    8.1770    0.2110    1.4629 F   0  0  0  0  0  0  0  0  0  0  0  0
    3.5998    0.2143   -0.0007 N   0  0  0  0  0  0  0  0  0  0  0  0
    0.4403   -1.5619   -0.4690 N   0  0  0  0  0  0  0  0  0  0  0  0
   -0.8994   -1.3539   -0.4601 C   0  0  0  0  0  0  0  0  0  0  0  0
   -1.7341   -2.4383   -0.7064 N   0  0  0  0  0  0  0  0  0  0  0  0
   -1.3721   -3.1998   -1.9158 C   0  0  0  0  0  0  0  0  0  0  0  0
   -2.0414   -4.5569   -1.7111 C   0  0  1  0  0  0  0  0  0  0  0  0
   -1.4578   -5.6549   -2.5846 C   0  0  0  0  0  0  0  0  0  0  0  0
   -1.8163   -4.7809   -0.2184 C   0  0  0  0  0  0  0  0  0  0  0  0
   -2.0647   -3.3830    0.3989 C   0  0  0  0  0  0  0  0  0  0  0  0
   -3.5539   -3.2086    0.7422 C   0  0  0  0  0  0  0  0  0  0  0  0
   -1.2355   -3.2215    1.6804 C   0  0  0  0  0  0  0  0  0  0  0  0
   -6.0960    1.0746   -1.7599 H   0  0  0  0  0  0  0  0  0  0  0  0
   -4.7409    1.9929   -2.4655 H   0  0  0  0  0  0  0  0  0  0  0  0
   -6.4089    2.5341   -2.6897 H   0  0  0  0  0  0  0  0  0  0  0  0
   -6.5525    6.5106    0.0330 H   0  0  0  0  0  0  0  0  0  0  0  0
   -5.9880    6.2601    1.7122 H   0  0  0  0  0  0  0  0  0  0  0  0
   -4.7987    6.5945    0.4101 H   0  0  0  0  0  0  0  0  0  0  0  0
   -5.1894    3.9306    2.3557 H   0  0  0  0  0  0  0  0  0  0  0  0
   -2.8822    0.5585    1.8409 H   0  0  0  0  0  0  0  0  0  0  0  0
   -0.9463    1.9659    0.3319 H   0  0  0  0  0  0  0  0  0  0  0  0
    1.5004    1.5705    0.3281 H   0  0  0  0  0  0  0  0  0  0  0  0
    2.6967   -2.8523   -0.7273 H   0  0  0  0  0  0  0  0  0  0  0  0
    5.4312   -2.4793   -0.6524 H   0  0  0  0  0  0  0  0  0  0  0  0
    5.2579    2.1875   -0.3183 H   0  0  0  0  0  0  0  0  0  0  0  0
    5.2600    1.6437    1.3818 H   0  0  0  0  0  0  0  0  0  0  0  0
    6.5043    4.2761    0.2298 H   0  0  0  0  0  0  0  0  0  0  0  0
    7.9891    4.2106    1.1863 H   0  0  0  0  0  0  0  0  0  0  0  0
    6.4387    3.8199    1.9390 H   0  0  0  0  0  0  0  0  0  0  0  0
    7.4938    2.6302   -1.5048 H   0  0  0  0  0  0  0  0  0  0  0  0
    8.2334    1.1199   -0.9533 H   0  0  0  0  0  0  0  0  0  0  0  0
    8.9876    2.6690   -0.5631 H   0  0  0  0  0  0  0  0  0  0  0  0
   -0.2875   -3.3293   -2.0205 H   0  0  0  0  0  0  0  0  0  0  0  0
   -1.7517   -2.7042   -2.8161 H   0  0  0  0  0  0  0  0  0  0  0  0
   -3.1172   -4.4725   -1.9151 H   0  0  0  0  0  0  0  0  0  0  0  0
   -1.9192   -6.6185   -2.3488 H   0  0  0  0  0  0  0  0  0  0  0  0
   -0.3767   -5.7560   -2.4470 H   0  0  0  0  0  0  0  0  0  0  0  0
   -1.6442   -5.4385   -3.6419 H   0  0  0  0  0  0  0  0  0  0  0  0
   -2.4807   -5.5522    0.1870 H   0  0  0  0  0  0  0  0  0  0  0  0
   -0.7822   -5.1060   -0.0400 H   0  0  0  0  0  0  0  0  0  0  0  0
   -4.1864   -3.2539   -0.1524 H   0  0  0  0  0  0  0  0  0  0  0  0
   -3.7384   -2.2414    1.2224 H   0  0  0  0  0  0  0  0  0  0  0  0
   -3.8967   -3.9892    1.4320 H   0  0  0  0  0  0  0  0  0  0  0  0
   -1.5343   -3.9625    2.4330 H   0  0  0  0  0  0  0  0  0  0  0  0
   -0.1658   -3.3636    1.4918 H   0  0  0  0  0  0  0  0  0  0  0  0
   -1.3736   -2.2291    2.1267 H   0  0  0  0  0  0  0  0  0  0  0  0
  1  2  1  0
  2  3  2  0
  3  4  1  0
  4  5  1  0
  4  6  1  0
  6  7  2  0
  7  8  1  0
  8  9  2  0
  8 10  2  0
  8 11  1  0
 11 12  1  0
 12 13  2  0
 12 14  1  0
 14 15  2  0
 15 16  1  0
 16 17  2  0
 17 18  1  0
 18 19  1  0
 19 20  2  0
 20 21  1  0
 21 22  1  0
 22 23  1  0
 23 24  1  0
 24 25  1  0
 24 26  1  0
 24 27  1  0
 27 28  1  0
 27 29  1  0
 27 30  1  0
 21 31  2  0
 17 32  1  0
 32 33  2  0
 33 34  1  0
 34 35  1  0
 35 36  1  0
 36 37  1  0
 36 38  1  0
 38 39  1  0
 39 40  1  0
 39 41  1  0
  7  2  1  0
 33 14  1  0
 39 34  1  0
 31 18  1  0
  1 42  1  0
  1 43  1  0
  1 44  1  0
  5 45  1  0
  5 46  1  0
  5 47  1  0
  6 48  1  0
 11 49  1  0
 15 50  1  0
 16 51  1  0
 19 52  1  0
 20 53  1  0
 23 54  1  0
 23 55  1  0
 25 56  1  0
 25 57  1  0
 25 58  1  0
 26 59  1  0
 26 60  1  0
 26 61  1  0
 35 62  1  0
 35 63  1  0
 36 64  1  1
 37 65  1  0
 37 66  1  0
 37 67  1  0
 38 68  1  0
 38 69  1  0
 40 70  1  0
 40 71  1  0
 40 72  1  0
 41 73  1  0
 41 74  1  0
 41 75  1  0
M  END
$$$$
OCNT-1411118
     RDKit          3D

 50 52  0  0  0  0  0  0  0  0999 V2000
   -3.5144   -1.5435    1.8910 C   0  0  0  0  0  0  0  0  0  0  0  0
   -3.0541   -1.9757    0.5335 C   0  0  0  0  0  0  0  0  0  0  0  0
   -2.3652   -1.1873   -0.3881 C   0  0  0  0  0  0  0  0  0  0  0  0
   -1.9185    0.1756   -0.2999 C   0  0  0  0  0  0  0  0  0  0  0  0
   -0.8531    0.4908    0.4713 C   0  0  0  0  0  0  0  0  0  0  0  0
    0.0184   -0.4273    1.2902 C   0  0  0  0  0  0  0  0  0  0  0  0
    1.2233   -1.0272    0.5367 C   0  0  0  0  0  0  0  0  0  0  0  0
    2.4009   -0.1418    0.4303 N   0  0  0  0  0  0  0  0  0  0  0  0
    2.1765    0.9814   -0.4968 C   0  0  0  0  0  0  0  0  0  0  0  0
    3.4560    1.5458   -1.1284 C   0  0  0  0  0  0  0  0  0  0  0  0
    4.6374    1.4223   -0.1777 C   0  0  0  0  0  0  0  0  0  0  0  0
    4.8835   -0.0521    0.1800 C   0  0  1  0  0  0  0  0  0  0  0  0
    5.5331   -0.1935    1.5404 C   0  0  0  0  0  0  0  0  0  0  0  0
    5.7639    0.6856    2.3545 O   0  0  0  0  0  0  0  0  0  0  0  0
    5.9415   -1.4571    1.7913 O   0  0  0  0  0  0  0  0  0  0  0  0
    3.6065   -0.9071    0.0766 C   0  0  0  0  0  0  0  0  0  0  0  0
   -2.5413    1.2468   -1.0371 C   0  0  0  0  0  0  0  0  0  0  0  0
   -3.8287    1.7699   -0.9298 C   0  0  0  0  0  0  0  0  0  0  0  0
   -4.8680    1.3090    0.0390 C   0  0  0  0  0  0  0  0  0  0  0  0
   -4.0513    2.8304   -1.8712 C   0  0  0  0  0  0  0  0  0  0  0  0
   -2.9569    3.0770   -2.6636 C   0  0  0  0  0  0  0  0  0  0  0  0
   -1.6577    2.0383   -2.2969 S   0  0  0  0  0  0  0  0  0  0  0  0
   -2.0642   -2.0595   -1.8488 S   0  0  0  0  0  0  0  0  0  0  0  0
   -2.8154   -3.4678   -1.2554 C   0  0  0  0  0  0  0  0  0  0  0  0
   -3.2978   -3.2949    0.0197 C   0  0  0  0  0  0  0  0  0  0  0  0
   -2.9787   -0.6603    2.2495 H   0  0  0  0  0  0  0  0  0  0  0  0
   -3.3572   -2.3445    2.6218 H   0  0  0  0  0  0  0  0  0  0  0  0
   -4.5832   -1.3072    1.8646 H   0  0  0  0  0  0  0  0  0  0  0  0
   -0.5483    1.5356    0.5282 H   0  0  0  0  0  0  0  0  0  0  0  0
   -0.5765   -1.2555    1.6903 H   0  0  0  0  0  0  0  0  0  0  0  0
    0.3669    0.1184    2.1765 H   0  0  0  0  0  0  0  0  0  0  0  0
    1.5172   -1.9096    1.1216 H   0  0  0  0  0  0  0  0  0  0  0  0
    0.9247   -1.4034   -0.4501 H   0  0  0  0  0  0  0  0  0  0  0  0
    1.5023    0.7023   -1.3169 H   0  0  0  0  0  0  0  0  0  0  0  0
    1.6958    1.7902    0.0647 H   0  0  0  0  0  0  0  0  0  0  0  0
    3.3001    2.5963   -1.4028 H   0  0  0  0  0  0  0  0  0  0  0  0
    3.6802    1.0042   -2.0570 H   0  0  0  0  0  0  0  0  0  0  0  0
    4.4389    2.0293    0.7168 H   0  0  0  0  0  0  0  0  0  0  0  0
    5.5388    1.8432   -0.6421 H   0  0  0  0  0  0  0  0  0  0  0  0
    5.6124   -0.4458   -0.5419 H   0  0  0  0  0  0  0  0  0  0  0  0
    6.3518   -1.3893    2.6804 H   0  0  0  0  0  0  0  0  0  0  0  0
    3.6963   -1.7858    0.7276 H   0  0  0  0  0  0  0  0  0  0  0  0
    3.5088   -1.2946   -0.9479 H   0  0  0  0  0  0  0  0  0  0  0  0
   -5.2268    0.3123   -0.2334 H   0  0  0  0  0  0  0  0  0  0  0  0
   -5.7295    1.9836    0.0467 H   0  0  0  0  0  0  0  0  0  0  0  0
   -4.4641    1.2748    1.0552 H   0  0  0  0  0  0  0  0  0  0  0  0
   -4.9786    3.3847   -1.9610 H   0  0  0  0  0  0  0  0  0  0  0  0
   -2.8605    3.8160   -3.4469 H   0  0  0  0  0  0  0  0  0  0  0  0
   -2.8704   -4.3563   -1.8688 H   0  0  0  0  0  0  0  0  0  0  0  0
   -3.8153   -4.0768    0.5643 H   0  0  0  0  0  0  0  0  0  0  0  0
  1  2  1  0
  2  3  2  0
  3  4  1  0
  4  5  2  3
  5  6  1  0
  6  7  1  0
  7  8  1  0
  8  9  1  0
  9 10  1  0
 10 11  1  0
 11 12  1  0
 12 13  1  0
 13 14  2  0
 13 15  1  0
 12 16  1  0
  4 17  1  0
 17 18  2  0
 18 19  1  0
 18 20  1  0
 20 21  2  0
 21 22  1  0
  3 23  1  0
 23 24  1  0
 24 25  2  0
 25  2  1  0
 16  8  1  0
 22 17  1  0
  1 26  1  0
  1 27  1  0
  1 28  1  0
  5 29  1  0
  6 30  1  0
  6 31  1  0
  7 32  1  0
  7 33  1  0
  9 34  1  0
  9 35  1  0
 10 36  1  0
 10 37  1  0
 11 38  1  0
 11 39  1  0
 12 40  1  6
 15 41  1  0
 16 42  1  0
 16 43  1  0
 19 44  1  0
 19 45  1  0
 19 46  1  0
 20 47  1  0
 21 48  1  0
 24 49  1  0
 25 50  1  0
M  END
$$$$
OCNT-1893991
     RDKit          3D

 51 54  0  0  0  0  0  0  0  0999 V2000
    4.1859    0.1604   -2.3540 O   0  0  0  0  0  0  0  0  0  0  0  0
    4.1898    0.0559   -1.1327 C   0  0  0  0  0  0  0  0  0  0  0  0
    3.2682   -0.6935   -0.4297 N   0  0  0  0  0  0  0  0  0  0  0  0
    2.1424   -1.3458   -1.0940 C   0  0  0  0  0  0  0  0  0  0  0  0
    1.6203   -2.5281   -0.2684 C   0  0  0  0  0  0  0  0  0  0  0  0
    0.3281   -2.1714    0.4615 C   0  0  0  0  0  0  0  0  0  0  0  0
   -0.7474   -1.8389   -0.4817 N   0  0  0  0  0  0  0  0  0  0  0  0
   -1.9109   -1.2782    0.2298 C   0  0  0  0  0  0  0  0  0  0  0  0
   -3.2174   -1.3921   -0.5764 C   0  0  0  0  0  0  0  0  0  0  0  0
   -4.3876   -0.8263    0.1699 C   0  0  0  0  0  0  0  0  0  0  0  0
   -5.3232   -1.5408    0.8929 C   0  0  0  0  0  0  0  0  0  0  0  0
   -6.2254   -0.6574    1.4207 N   0  0  0  0  0  0  0  0  0  0  0  0
   -5.8999    0.6290    1.0598 C   0  0  0  0  0  0  0  0  0  0  0  0
   -6.5316    1.8398    1.3683 C   0  0  0  0  0  0  0  0  0  0  0  0
   -5.9713    3.0125    0.8533 C   0  0  0  0  0  0  0  0  0  0  0  0
   -4.8270    2.9725    0.0606 C   0  0  0  0  0  0  0  0  0  0  0  0
   -4.2089    1.7528   -0.2385 C   0  0  0  0  0  0  0  0  0  0  0  0
   -4.7524    0.5552    0.2702 C   0  0  0  0  0  0  0  0  0  0  0  0
   -0.3054   -1.0050   -1.6114 C   0  0  0  0  0  0  0  0  0  0  0  0
    1.0409   -0.3216   -1.3906 C   0  0  0  0  0  0  0  0  0  0  0  0
    5.2437    0.7348   -0.3296 C   0  0  0  0  0  0  0  0  0  0  0  0
    6.4949    0.9459   -0.9226 C   0  0  0  0  0  0  0  0  0  0  0  0
    7.5133    1.5795   -0.2085 C   0  0  0  0  0  0  0  0  0  0  0  0
    7.2829    2.0131    1.0964 C   0  0  0  0  0  0  0  0  0  0  0  0
    6.0333    1.8225    1.6864 C   0  0  0  0  0  0  0  0  0  0  0  0
    5.0112    1.1880    0.9755 C   0  0  0  0  0  0  0  0  0  0  0  0
    3.3417   -0.7638    0.5751 H   0  0  0  0  0  0  0  0  0  0  0  0
    2.5207   -1.7423   -2.0452 H   0  0  0  0  0  0  0  0  0  0  0  0
    1.4204   -3.3729   -0.9414 H   0  0  0  0  0  0  0  0  0  0  0  0
    2.3724   -2.8800    0.4478 H   0  0  0  0  0  0  0  0  0  0  0  0
    0.0187   -3.0321    1.0666 H   0  0  0  0  0  0  0  0  0  0  0  0
    0.5196   -1.3413    1.1546 H   0  0  0  0  0  0  0  0  0  0  0  0
   -2.0613   -1.8301    1.1681 H   0  0  0  0  0  0  0  0  0  0  0  0
   -1.7165   -0.2360    0.5159 H   0  0  0  0  0  0  0  0  0  0  0  0
   -3.4105   -2.4473   -0.8089 H   0  0  0  0  0  0  0  0  0  0  0  0
   -3.1347   -0.8754   -1.5392 H   0  0  0  0  0  0  0  0  0  0  0  0
   -5.4224   -2.6031    1.0732 H   0  0  0  0  0  0  0  0  0  0  0  0
   -7.0196   -0.9074    1.9927 H   0  0  0  0  0  0  0  0  0  0  0  0
   -7.4246    1.8742    1.9834 H   0  0  0  0  0  0  0  0  0  0  0  0
   -6.4385    3.9695    1.0737 H   0  0  0  0  0  0  0  0  0  0  0  0
   -4.4089    3.8960   -0.3321 H   0  0  0  0  0  0  0  0  0  0  0  0
   -3.3184    1.7335   -0.8595 H   0  0  0  0  0  0  0  0  0  0  0  0
   -1.0431   -0.2380   -1.8726 H   0  0  0  0  0  0  0  0  0  0  0  0
   -0.2288   -1.6562   -2.4911 H   0  0  0  0  0  0  0  0  0  0  0  0
    0.9510    0.3988   -0.5660 H   0  0  0  0  0  0  0  0  0  0  0  0
    1.3098    0.2659   -2.2769 H   0  0  0  0  0  0  0  0  0  0  0  0
    6.6773    0.6145   -1.9431 H   0  0  0  0  0  0  0  0  0  0  0  0
    8.4836    1.7373   -0.6727 H   0  0  0  0  0  0  0  0  0  0  0  0
    8.0758    2.5101    1.6504 H   0  0  0  0  0  0  0  0  0  0  0  0
    5.8531    2.1782    2.6978 H   0  0  0  0  0  0  0  0  0  0  0  0
    4.0367    1.0851    1.4424 H   0  0  0  0  0  0  0  0  0  0  0  0
  1  2  2  0
  2  3  1  0
  3  4  1  0
  4  5  1  0
  5  6  1  0
  6  7  1  0
  7  8  1  0
  8  9  1  0
  9 10  1  0
 10 11  2  0
 11 12  1  0
 12 13  1  0
 13 14  2  0
 14 15  1  0
 15 16  2  0
 16 17  1  0
 17 18  2  0
  7 19  1  0
 19 20  1  0
  2 21  1  0
 21 22  2  0
 22 23  1  0
 23 24  2  0
 24 25  1  0
 25 26  2  0
 20  4  1  0
 26 21  1  0
 18 10  1  0
 18 13  1  0
  3 27  1  0
  4 28  1  0
  5 29  1  0
  5 30  1  0
  6 31  1  0
  6 32  1  0
  8 33  1  0
  8 34  1  0
  9 35  1  0
  9 36  1  0
 11 37  1  0
 12 38  1  0
 14 39  1  0
 15 40  1  0
 16 41  1  0
 17 42  1  0
 19 43  1  0
 19 44  1  0
 20 45  1  0
 20 46  1  0
 22 47  1  0
 23 48  1  0
 24 49  1  0
 25 50  1  0
 26 51  1  0
M  END
$$$$
OCNT-1893994
     RDKit          3D

 46 47  0  0  0  0  0  0  0  0999 V2000
   -2.3576   -2.6666   -2.2324 C   0  0  0  0  0  0  0  0  0  0  0  0
   -2.7727   -1.2498   -1.8607 C   0  0  0  0  0  0  0  0  0  0  0  0
   -1.6862   -0.5544   -1.0262 C   0  0  0  0  0  0  0  0  0  0  0  0
   -1.9710    0.8567   -0.7383 N   0  0  0  0  0  0  0  0  0  0  0  0
   -3.2684    1.0496   -0.0682 C   0  0  0  0  0  0  0  0  0  0  0  0
   -3.4180    2.4329    0.5648 C   0  0  0  0  0  0  0  0  0  0  0  0
   -2.3655    2.6742    1.6446 C   0  0  0  0  0  0  0  0  0  0  0  0
   -1.0860    1.8779    1.3919 C   0  0  0  0  0  0  0  0  0  0  0  0
   -0.8685    1.6408   -0.1098 C   0  0  1  0  0  0  0  0  0  0  0  0
    0.5590    1.1401   -0.4443 C   0  0  0  0  0  0  0  0  0  0  0  0
    1.1428    1.5290   -1.4539 O   0  0  0  0  0  0  0  0  0  0  0  0
    1.0457    0.1909    0.4451 N   0  0  0  0  0  0  0  0  0  0  0  0
    2.3283   -0.4110    0.4060 C   0  0  0  0  0  0  0  0  0  0  0  0
    3.5132    0.3087    0.1377 C   0  0  0  0  0  0  0  0  0  0  0  0
    3.5808    1.8012   -0.0491 C   0  0  0  0  0  0  0  0  0  0  0  0
    4.7381   -0.3833    0.0768 C   0  0  0  0  0  0  0  0  0  0  0  0
    4.8096   -1.7465    0.3386 C   0  0  0  0  0  0  0  0  0  0  0  0
    3.6557   -2.4432    0.6726 C   0  0  0  0  0  0  0  0  0  0  0  0
    2.4115   -1.7921    0.7180 C   0  0  0  0  0  0  0  0  0  0  0  0
    1.1992   -2.6209    1.0556 C   0  0  0  0  0  0  0  0  0  0  0  0
   -1.4409   -2.6636   -2.8307 H   0  0  0  0  0  0  0  0  0  0  0  0
   -3.1444   -3.1499   -2.8201 H   0  0  0  0  0  0  0  0  0  0  0  0
   -2.1818   -3.2709   -1.3367 H   0  0  0  0  0  0  0  0  0  0  0  0
   -2.9623   -0.6798   -2.7780 H   0  0  0  0  0  0  0  0  0  0  0  0
   -3.7151   -1.3040   -1.3047 H   0  0  0  0  0  0  0  0  0  0  0  0
   -1.5439   -1.1088   -0.0907 H   0  0  0  0  0  0  0  0  0  0  0  0
   -0.7586   -0.6327   -1.6040 H   0  0  0  0  0  0  0  0  0  0  0  0
   -4.0753    0.9239   -0.7989 H   0  0  0  0  0  0  0  0  0  0  0  0
   -3.4123    0.2941    0.7157 H   0  0  0  0  0  0  0  0  0  0  0  0
   -4.4196    2.5463    0.9953 H   0  0  0  0  0  0  0  0  0  0  0  0
   -3.3282    3.2013   -0.2140 H   0  0  0  0  0  0  0  0  0  0  0  0
   -2.1397    3.7463    1.6886 H   0  0  0  0  0  0  0  0  0  0  0  0
   -2.7656    2.4025    2.6287 H   0  0  0  0  0  0  0  0  0  0  0  0
   -0.2321    2.4047    1.8350 H   0  0  0  0  0  0  0  0  0  0  0  0
   -1.1591    0.9177    1.9190 H   0  0  0  0  0  0  0  0  0  0  0  0
   -0.9031    2.6350   -0.5810 H   0  0  0  0  0  0  0  0  0  0  0  0
    0.3237   -0.3367    0.9127 H   0  0  0  0  0  0  0  0  0  0  0  0
    4.5213    2.1946    0.3549 H   0  0  0  0  0  0  0  0  0  0  0  0
    3.5396    2.0585   -1.1111 H   0  0  0  0  0  0  0  0  0  0  0  0
    2.7868    2.3176    0.4979 H   0  0  0  0  0  0  0  0  0  0  0  0
    5.6552    0.1541   -0.1580 H   0  0  0  0  0  0  0  0  0  0  0  0
    5.7661   -2.2602    0.2948 H   0  0  0  0  0  0  0  0  0  0  0  0
    3.7310   -3.5072    0.8869 H   0  0  0  0  0  0  0  0  0  0  0  0
    0.4939   -2.6192    0.2187 H   0  0  0  0  0  0  0  0  0  0  0  0
    0.7096   -2.2333    1.9546 H   0  0  0  0  0  0  0  0  0  0  0  0
    1.4646   -3.6646    1.2563 H   0  0  0  0  0  0  0  0  0  0  0  0
  1  2  1  0
  2  3  1  0
  3  4  1  0
  4  5  1  0
  5  6  1  0
  6  7  1  0
  7  8  1  0
  8  9  1  0
  9 10  1  0
 10 11  2  0
 10 12  1  0
 12 13  1  0
 13 14  2  0
 14 15  1  0
 14 16  1  0
 16 17  2  0
 17 18  1  0
 18 19  2  0
 19 20  1  0
  9  4  1  0
 19 13  1  0
  1 21  1  0
  1 22  1  0
  1 23  1  0
  2 24  1  0
  2 25  1  0
  3 26  1  0
  3 27  1  0
  5 28  1  0
  5 29  1  0
  6 30  1  0
  6 31  1  0
  7 32  1  0
  7 33  1  0
  8 34  1  0
  8 35  1  0
  9 36  1  6
 12 37  1  0
 15 38  1  0
 15 39  1  0
 15 40  1  0
 16 41  1  0
 17 42  1  0
 18 43  1  0
 20 44  1  0
 20 45  1  0
 20 46  1  0
M  END
$$$$
OCNT-1893998
     RDKit          3D

 48 48  0  0  0  0  0  0  0  0999 V2000
    6.8322   -2.3002   -0.6723 C   0  0  0  0  0  0  0  0  0  0  0  0
    6.8264   -0.8618   -1.1663 C   0  0  0  0  0  0  0  0  0  0  0  0
    5.4210   -0.2713   -1.3087 C   0  0  0  0  0  0  0  0  0  0  0  0
    4.6845   -0.1404    0.0272 C   0  0  0  0  0  0  0  0  0  0  0  0
    3.3759    0.6520   -0.0745 C   0  0  0  0  0  0  0  0  0  0  0  0
    2.3045   -0.0525   -0.9109 C   0  0  0  0  0  0  0  0  0  0  0  0
    0.9969    0.7390   -1.0122 C   0  0  0  0  0  0  0  0  0  0  0  0
    0.2556    0.8644    0.3179 C   0  0  0  0  0  0  0  0  0  0  0  0
   -1.0997    1.5296    0.1586 C   0  0  0  0  0  0  0  0  0  0  0  0
   -1.5291    1.9553   -0.9075 O   0  0  0  0  0  0  0  0  0  0  0  0
   -1.7925    1.6134    1.3474 N   0  0  0  0  0  0  0  0  0  0  0  0
   -3.1508    2.1046    1.4018 C   0  0  0  0  0  0  0  0  0  0  0  0
   -4.1320    0.9597    1.4116 C   0  0  0  0  0  0  0  0  0  0  0  0
   -4.7036    0.5146    2.6104 C   0  0  0  0  0  0  0  0  0  0  0  0
   -5.5930   -0.5602    2.6100 C   0  0  0  0  0  0  0  0  0  0  0  0
   -5.9064   -1.1980    1.4094 C   0  0  0  0  0  0  0  0  0  0  0  0
   -6.7782   -2.2550    1.4109 O   0  0  0  0  0  0  0  0  0  0  0  0
   -5.3418   -0.7786    0.1975 C   0  0  0  0  0  0  0  0  0  0  0  0
   -5.7124   -1.4781   -0.9207 O   0  0  0  0  0  0  0  0  0  0  0  0
   -5.1373   -1.0817   -2.1580 C   0  0  0  0  0  0  0  0  0  0  0  0
   -4.4554    0.3024    0.2101 C   0  0  0  0  0  0  0  0  0  0  0  0
    7.8530   -2.6958   -0.6802 H   0  0  0  0  0  0  0  0  0  0  0  0
    6.4569   -2.3738    0.3526 H   0  0  0  0  0  0  0  0  0  0  0  0
    6.2166   -2.9387   -1.3138 H   0  0  0  0  0  0  0  0  0  0  0  0
    7.3183   -0.8275   -2.1457 H   0  0  0  0  0  0  0  0  0  0  0  0
    7.4255   -0.2414   -0.4896 H   0  0  0  0  0  0  0  0  0  0  0  0
    5.5112    0.7203   -1.7688 H   0  0  0  0  0  0  0  0  0  0  0  0
    4.8417   -0.8923   -2.0011 H   0  0  0  0  0  0  0  0  0  0  0  0
    5.3367    0.3707    0.7462 H   0  0  0  0  0  0  0  0  0  0  0  0
    4.4717   -1.1328    0.4407 H   0  0  0  0  0  0  0  0  0  0  0  0
    3.0033    0.8062    0.9444 H   0  0  0  0  0  0  0  0  0  0  0  0
    3.5789    1.6457   -0.4916 H   0  0  0  0  0  0  0  0  0  0  0  0
    2.6775   -0.2064   -1.9296 H   0  0  0  0  0  0  0  0  0  0  0  0
    2.1015   -1.0462   -0.4938 H   0  0  0  0  0  0  0  0  0  0  0  0
    1.1985    1.7367   -1.4216 H   0  0  0  0  0  0  0  0  0  0  0  0
    0.3477    0.2335   -1.7387 H   0  0  0  0  0  0  0  0  0  0  0  0
    0.0994   -0.1304    0.7515 H   0  0  0  0  0  0  0  0  0  0  0  0
    0.8380    1.4634    1.0261 H   0  0  0  0  0  0  0  0  0  0  0  0
   -1.4562    1.0857    2.1410 H   0  0  0  0  0  0  0  0  0  0  0  0
   -3.2441    2.6968    2.3188 H   0  0  0  0  0  0  0  0  0  0  0  0
   -3.3581    2.7747    0.5600 H   0  0  0  0  0  0  0  0  0  0  0  0
   -4.4620    1.0032    3.5517 H   0  0  0  0  0  0  0  0  0  0  0  0
   -6.0287   -0.8880    3.5486 H   0  0  0  0  0  0  0  0  0  0  0  0
   -7.0977   -2.4024    2.3137 H   0  0  0  0  0  0  0  0  0  0  0  0
   -5.5305   -1.7428   -2.9363 H   0  0  0  0  0  0  0  0  0  0  0  0
   -5.4243   -0.0572   -2.4169 H   0  0  0  0  0  0  0  0  0  0  0  0
   -4.0484   -1.1974   -2.1435 H   0  0  0  0  0  0  0  0  0  0  0  0
   -3.9914    0.6593   -0.7059 H   0  0  0  0  0  0  0  0  0  0  0  0
  1  2  1  0
  2  3  1  0
  3  4  1  0
  4  5  1  0
  5  6  1  0
  6  7  1  0
  7  8  1  0
  8  9  1  0
  9 10  2  0
  9 11  1  0
 11 12  1  0
 12 13  1  0
 13 14  1  0
 14 15  2  0
 15 16  1  0
 16 17  1  0
 16 18  2  0
 18 19  1  0
 19 20  1  0
 18 21  1  0
 21 13  2  0
  1 22  1  0
  1 23  1  0
  1 24  1  0
  2 25  1  0
  2 26  1  0
  3 27  1  0
  3 28  1  0
  4 29  1  0
  4 30  1  0
  5 31  1  0
  5 32  1  0
  6 33  1  0
  6 34  1  0
  7 35  1  0
  7 36  1  0
  8 37  1  0
  8 38  1  0
 11 39  1  0
 12 40  1  0
 12 41  1  0
 14 42  1  0
 15 43  1  0
 17 44  1  0
 20 45  1  0
 20 46  1  0
 20 47  1  0
 21 48  1  0
M  END
$$$$
OCNT-1911794
     RDKit          3D

 48 51  0  0  0  0  0  0  0  0999 V2000
    3.4508    0.3225    3.3707 C   0  0  0  0  0  0  0  0  0  0  0  0
    2.6623   -0.0078    2.3396 C   0  0  0  0  0  0  0  0  0  0  0  0
    3.1641   -0.2432    0.9344 C   0  0  1  0  0  0  0  0  0  0  0  0
    2.7783   -1.6502    0.4081 C   0  0  0  0  0  0  0  0  0  0  0  0
    2.3304   -1.6271   -1.0129 N   0  0  0  0  0  0  0  0  0  0  0  0
    3.3721   -0.8972   -1.7863 C   0  0  0  0  0  0  0  0  0  0  0  0
    3.4240    0.5907   -1.3873 C   0  0  0  0  0  0  0  0  0  0  0  0
    2.6301    0.7949   -0.0812 C   0  0  1  0  0  0  0  0  0  0  0  0
    1.1479    0.4829   -0.3799 C   0  0  0  0  0  0  0  0  0  0  0  0
    1.0498   -0.8477   -1.1605 C   0  0  2  0  0  0  0  0  0  0  0  0
   -0.2415   -1.6894   -0.8860 C   0  0  1  0  0  0  0  0  0  0  0  0
   -0.4124   -2.0332    0.4832 O   0  0  0  0  0  0  0  0  0  0  0  0
   -1.4962   -1.0479   -1.4784 C   0  0  0  0  0  0  0  0  0  0  0  0
   -2.3860   -0.1626   -0.7991 C   0  0  0  0  0  0  0  0  0  0  0  0
   -2.2816    0.2380    0.5587 C   0  0  0  0  0  0  0  0  0  0  0  0
   -3.1860    1.1219    1.1560 C   0  0  0  0  0  0  0  0  0  0  0  0
   -2.9329    1.4064    2.4687 O   0  0  0  0  0  0  0  0  0  0  0  0
   -3.8456    2.2761    3.1263 C   0  0  0  0  0  0  0  0  0  0  0  0
   -4.2303    1.6246    0.3974 C   0  0  0  0  0  0  0  0  0  0  0  0
   -4.3579    1.2373   -0.9388 C   0  0  0  0  0  0  0  0  0  0  0  0
   -3.4684    0.3634   -1.5465 C   0  0  0  0  0  0  0  0  0  0  0  0
   -3.6936    0.0693   -2.8354 N   0  0  0  0  0  0  0  0  0  0  0  0
   -2.8472   -0.7734   -3.4493 C   0  0  0  0  0  0  0  0  0  0  0  0
   -1.7555   -1.3428   -2.8289 C   0  0  0  0  0  0  0  0  0  0  0  0
    4.5228    0.4491    3.2567 H   0  0  0  0  0  0  0  0  0  0  0  0
    3.0312    0.4780    4.3603 H   0  0  0  0  0  0  0  0  0  0  0  0
    1.5941   -0.1200    2.5204 H   0  0  0  0  0  0  0  0  0  0  0  0
    4.2616   -0.1721    0.9423 H   0  0  0  0  0  0  0  0  0  0  0  0
    3.6546   -2.3083    0.4845 H   0  0  0  0  0  0  0  0  0  0  0  0
    2.0266   -2.1266    1.0422 H   0  0  0  0  0  0  0  0  0  0  0  0
    3.1737   -0.9889   -2.8614 H   0  0  0  0  0  0  0  0  0  0  0  0
    4.3508   -1.3684   -1.6285 H   0  0  0  0  0  0  0  0  0  0  0  0
    2.9973    1.2120   -2.1840 H   0  0  0  0  0  0  0  0  0  0  0  0
    4.4666    0.9024   -1.2546 H   0  0  0  0  0  0  0  0  0  0  0  0
    2.7455    1.8199    0.2879 H   0  0  0  0  0  0  0  0  0  0  0  0
    0.5843    0.4513    0.5542 H   0  0  0  0  0  0  0  0  0  0  0  0
    0.7181    1.2901   -0.9859 H   0  0  0  0  0  0  0  0  0  0  0  0
    0.9837   -0.5865   -2.2280 H   0  0  0  0  0  0  0  0  0  0  0  0
   -0.1198   -2.6521   -1.4038 H   0  0  0  0  0  0  0  0  0  0  0  0
    0.1625   -2.8019    0.6371 H   0  0  0  0  0  0  0  0  0  0  0  0
   -1.4858   -0.1470    1.1887 H   0  0  0  0  0  0  0  0  0  0  0  0
   -4.8541    1.8499    3.1451 H   0  0  0  0  0  0  0  0  0  0  0  0
   -3.8442    3.2698    2.6664 H   0  0  0  0  0  0  0  0  0  0  0  0
   -3.5125    2.3887    4.1626 H   0  0  0  0  0  0  0  0  0  0  0  0
   -4.9632    2.3128    0.8030 H   0  0  0  0  0  0  0  0  0  0  0  0
   -5.1828    1.6335   -1.5276 H   0  0  0  0  0  0  0  0  0  0  0  0
   -3.0746   -0.9833   -4.4904 H   0  0  0  0  0  0  0  0  0  0  0  0
   -1.1114   -2.0082   -3.3964 H   0  0  0  0  0  0  0  0  0  0  0  0
  1  2  2  0
  2  3  1  0
  3  4  1  0
  4  5  1  0
  5  6  1  0
  6  7  1  0
  7  8  1  0
  8  9  1  0
  9 10  1  0
 10 11  1  0
 11 12  1  0
 11 13  1  0
 13 14  1  0
 14 15  2  0
 15 16  1  0
 16 17  1  0
 17 18  1  0
 16 19  2  0
 19 20  1  0
 20 21  2  0
 21 22  1  0
 22 23  2  0
 23 24  1  0
  8  3  1  0
 24 13  2  0
 10  5  1  0
 21 14  1  0
  1 25  1  0
  1 26  1  0
  2 27  1  0
  3 28  1  1
  4 29  1  0
  4 30  1  0
  6 31  1  0
  6 32  1  0
  7 33  1  0
  7 34  1  0
  8 35  1  1
  9 36  1  0
  9 37  1  0
 10 38  1  6
 11 39  1  6
 12 40  1  0
 15 41  1  0
 18 42  1  0
 18 43  1  0
 18 44  1  0
 19 45  1  0
 20 46  1  0
 23 47  1  0
 24 48  1  0
M  END
$$$$
OCNT-1911799
     RDKit          3D

 24 26  0  0  0  0  0  0  0  0999 V2000
   -1.0872   -0.7878   -3.0959 Cl  0  0  0  0  0  0  0  0  0  0  0  0
   -1.7359   -0.3381   -1.5455 C   0  0  0  0  0  0  0  0  0  0  0  0
   -0.9750   -0.6048   -0.3761 C   0  0  0  0  0  0  0  0  0  0  0  0
    0.3274   -1.1455   -0.4424 N   0  0  0  0  0  0  0  0  0  0  0  0
    1.4122   -0.3788   -0.1483 C   0  0  0  0  0  0  0  0  0  0  0  0
    1.4497    0.8661    0.2313 N   0  0  0  0  0  0  0  0  0  0  0  0
    2.8990    1.1579    0.3827 C   0  0  0  0  0  0  0  0  0  0  0  0
    3.6151   -0.1925    0.3261 C   0  0  0  0  0  0  0  0  0  0  0  0
    2.6023   -1.0361   -0.2775 N   0  0  0  0  0  0  0  0  0  0  0  0
   -1.6111   -0.2090    0.8420 C   0  0  0  0  0  0  0  0  0  0  0  0
   -1.1335   -0.3815    2.0891 N   0  0  0  0  0  0  0  0  0  0  0  0
   -2.2450    0.2758    3.1267 S   0  0  0  0  0  0  0  0  0  0  0  0
   -3.4263    0.7496    2.0608 N   0  0  0  0  0  0  0  0  0  0  0  0
   -2.9743    0.4432    0.8354 C   0  0  0  0  0  0  0  0  0  0  0  0
   -3.6690    0.6799   -0.3728 C   0  0  0  0  0  0  0  0  0  0  0  0
   -3.0174    0.2695   -1.5462 C   0  0  0  0  0  0  0  0  0  0  0  0
    0.4669   -1.7436   -1.2478 H   0  0  0  0  0  0  0  0  0  0  0  0
    3.2189    1.8093   -0.4382 H   0  0  0  0  0  0  0  0  0  0  0  0
    3.0922    1.6712    1.3297 H   0  0  0  0  0  0  0  0  0  0  0  0
    4.5304   -0.1557   -0.2706 H   0  0  0  0  0  0  0  0  0  0  0  0
    3.8532   -0.5499    1.3337 H   0  0  0  0  0  0  0  0  0  0  0  0
    2.5766   -1.9819    0.0858 H   0  0  0  0  0  0  0  0  0  0  0  0
   -4.6459    1.1479   -0.3843 H   0  0  0  0  0  0  0  0  0  0  0  0
   -3.5234    0.4349   -2.4978 H   0  0  0  0  0  0  0  0  0  0  0  0
  1  2  1  0
  2  3  2  0
  3  4  1  0
  4  5  1  0
  5  6  2  0
  6  7  1  0
  7  8  1  0
  8  9  1  0
  3 10  1  0
 10 11  2  0
 11 12  1  0
 12 13  1  0
 13 14  2  0
 14 15  1  0
 15 16  2  0
 16  2  1  0
  9  5  1  0
 14 10  1  0
  4 17  1  0
  7 18  1  0
  7 19  1  0
  8 20  1  0
  8 21  1  0
  9 22  1  0
 15 23  1  0
 16 24  1  0
M  END
$$$$
OCNT-1911800
     RDKit          3D

 44 47  0  0  0  0  0  0  0  0999 V2000
   -4.1314    4.2936    1.1415 F   0  0  0  0  0  0  0  0  0  0  0  0
   -3.7005    3.0925    0.7345 C   0  0  0  0  0  0  0  0  0  0  0  0
   -3.3748    2.1264    1.6774 C   0  0  0  0  0  0  0  0  0  0  0  0
   -2.9260    0.8741    1.2544 C   0  0  0  0  0  0  0  0  0  0  0  0
   -2.7968    0.5870   -0.1155 C   0  0  0  0  0  0  0  0  0  0  0  0
   -2.3073   -0.7695   -0.6015 C   0  0  2  0  0  0  0  0  0  0  0  0
   -3.3932   -1.8464   -0.3721 C   0  0  0  0  0  0  0  0  0  0  0  0
   -2.8143   -3.2191   -0.0320 C   0  0  0  0  0  0  0  0  0  0  0  0
   -1.6518   -3.4966   -0.8592 N   0  0  0  0  0  0  0  0  0  0  0  0
   -0.5385   -2.5800   -0.5930 C   0  0  0  0  0  0  0  0  0  0  0  0
   -0.9527   -1.2123   -0.0025 C   0  0  1  0  0  0  0  0  0  0  0  0
    0.1658   -0.1797   -0.2309 C   0  0  0  0  0  0  0  0  0  0  0  0
    1.3724   -0.6757    0.3550 O   0  0  0  0  0  0  0  0  0  0  0  0
    2.4933    0.1002    0.2316 C   0  0  0  0  0  0  0  0  0  0  0  0
    3.6504   -0.4644    0.7813 C   0  0  0  0  0  0  0  0  0  0  0  0
    4.8259    0.2509    0.7015 C   0  0  0  0  0  0  0  0  0  0  0  0
    4.8799    1.4864    0.1037 C   0  0  0  0  0  0  0  0  0  0  0  0
    3.7611    2.0725   -0.4454 C   0  0  0  0  0  0  0  0  0  0  0  0
    2.5523    1.3674   -0.3787 C   0  0  0  0  0  0  0  0  0  0  0  0
    6.1285    2.0228    0.1296 O   0  0  0  0  0  0  0  0  0  0  0  0
    6.8560    0.9816    0.8143 C   0  0  0  0  0  0  0  0  0  0  0  0
    6.0351   -0.1472    1.1798 O   0  0  0  0  0  0  0  0  0  0  0  0
   -3.1394    1.5787   -1.0501 C   0  0  0  0  0  0  0  0  0  0  0  0
   -3.5886    2.8300   -0.6246 C   0  0  0  0  0  0  0  0  0  0  0  0
   -3.4743    2.3523    2.7341 H   0  0  0  0  0  0  0  0  0  0  0  0
   -2.6818    0.1242    2.0036 H   0  0  0  0  0  0  0  0  0  0  0  0
   -2.1556   -0.6968   -1.6891 H   0  0  0  0  0  0  0  0  0  0  0  0
   -4.0036   -1.9192   -1.2825 H   0  0  0  0  0  0  0  0  0  0  0  0
   -4.0882   -1.5645    0.4286 H   0  0  0  0  0  0  0  0  0  0  0  0
   -3.5801   -3.9822   -0.2103 H   0  0  0  0  0  0  0  0  0  0  0  0
   -2.5541   -3.2805    1.0319 H   0  0  0  0  0  0  0  0  0  0  0  0
   -1.3394   -4.4584   -0.7261 H   0  0  0  0  0  0  0  0  0  0  0  0
    0.0020   -2.4422   -1.5368 H   0  0  0  0  0  0  0  0  0  0  0  0
    0.1608   -3.0645    0.1000 H   0  0  0  0  0  0  0  0  0  0  0  0
   -1.0596   -1.3486    1.0831 H   0  0  0  0  0  0  0  0  0  0  0  0
    0.3078   -0.0216   -1.3074 H   0  0  0  0  0  0  0  0  0  0  0  0
   -0.0985    0.7691    0.2487 H   0  0  0  0  0  0  0  0  0  0  0  0
    3.6249   -1.4381    1.2571 H   0  0  0  0  0  0  0  0  0  0  0  0
    3.8162    3.0493   -0.9128 H   0  0  0  0  0  0  0  0  0  0  0  0
    1.6715    1.8336   -0.8089 H   0  0  0  0  0  0  0  0  0  0  0  0
    7.2979    1.4031    1.7245 H   0  0  0  0  0  0  0  0  0  0  0  0
    7.6636    0.6309    0.1614 H   0  0  0  0  0  0  0  0  0  0  0  0
   -3.0613    1.3826   -2.1176 H   0  0  0  0  0  0  0  0  0  0  0  0
   -3.8538    3.5983   -1.3436 H   0  0  0  0  0  0  0  0  0  0  0  0
  1  2  1  0
  2  3  1  0
  3  4  2  0
  4  5  1  0
  5  6  1  0
  6  7  1  0
  7  8  1  0
  8  9  1  0
  9 10  1  0
 10 11  1  0
 11 12  1  0
 12 13  1  0
 13 14  1  0
 14 15  2  0
 15 16  1  0
 16 17  2  0
 17 18  1  0
 18 19  2  0
 17 20  1  0
 20 21  1  0
 21 22  1  0
  5 23  2  0
 23 24  1  0
 24  2  2  0
 11  6  1  0
 19 14  1  0
 22 16  1  0
  3 25  1  0
  4 26  1  0
  6 27  1  6
  7 28  1  0
  7 29  1  0
  8 30  1  0
  8 31  1  0
  9 32  1  0
 10 33  1  0
 10 34  1  0
 11 35  1  1
 12 36  1  0
 12 37  1  0
 15 38  1  0
 18 39  1  0
 19 40  1  0
 21 41  1  0
 21 42  1  0
 23 43  1  0
 24 44  1  0
M  END
$$$$
OCNT-1965934
     RDKit          3D

 49 50  0  0  0  0  0  0  0  0999 V2000
    2.8039    2.4572   -1.0727 C   0  0  0  0  0  0  0  0  0  0  0  0
    3.4116    1.9534    0.2306 C   0  0  0  0  0  0  0  0  0  0  0  0
    2.5374    0.9530    0.9936 C   0  0  0  0  0  0  0  0  0  0  0  0
    2.5730   -0.4834    0.4355 C   0  0  0  0  0  0  0  0  0  0  0  0
    1.7828   -0.6325   -0.8045 N   0  0  0  0  0  0  0  0  0  0  0  0
    2.5380   -1.3930   -1.8176 C   0  0  0  0  0  0  0  0  0  0  0  0
    2.6873   -2.8870   -1.4968 C   0  0  0  0  0  0  0  0  0  0  0  0
    1.3281   -3.5485   -1.2766 C   0  0  0  0  0  0  0  0  0  0  0  0
    0.5123   -2.7743   -0.2499 C   0  0  0  0  0  0  0  0  0  0  0  0
    0.4470   -1.2752   -0.6044 C   0  0  0  0  0  0  0  0  0  0  0  0
   -0.4268   -0.5445    0.4397 C   0  0  0  0  0  0  0  0  0  0  0  0
   -0.2028   -0.6221    1.6495 O   0  0  0  0  0  0  0  0  0  0  0  0
   -1.4644    0.1761   -0.1494 N   0  0  0  0  0  0  0  0  0  0  0  0
   -2.5879    0.7406    0.5036 C   0  0  0  0  0  0  0  0  0  0  0  0
   -3.1133    1.9452   -0.0332 C   0  0  0  0  0  0  0  0  0  0  0  0
   -2.5040    2.6407   -1.2258 C   0  0  0  0  0  0  0  0  0  0  0  0
   -4.2142    2.5617    0.5845 C   0  0  0  0  0  0  0  0  0  0  0  0
   -4.8086    1.9991    1.7081 C   0  0  0  0  0  0  0  0  0  0  0  0
   -4.3258    0.7961    2.2113 C   0  0  0  0  0  0  0  0  0  0  0  0
   -3.2408    0.1343    1.6060 C   0  0  0  0  0  0  0  0  0  0  0  0
   -2.8866   -1.2159    2.1779 C   0  0  0  0  0  0  0  0  0  0  0  0
    3.4475    3.2375   -1.4948 H   0  0  0  0  0  0  0  0  0  0  0  0
    2.7107    1.6652   -1.8241 H   0  0  0  0  0  0  0  0  0  0  0  0
    1.8115    2.8991   -0.8980 H   0  0  0  0  0  0  0  0  0  0  0  0
    4.3966    1.5106    0.0354 H   0  0  0  0  0  0  0  0  0  0  0  0
    3.5838    2.8268    0.8775 H   0  0  0  0  0  0  0  0  0  0  0  0
    2.9198    0.9026    2.0255 H   0  0  0  0  0  0  0  0  0  0  0  0
    1.5093    1.3309    1.0705 H   0  0  0  0  0  0  0  0  0  0  0  0
    3.6310   -0.7245    0.2635 H   0  0  0  0  0  0  0  0  0  0  0  0
    2.2552   -1.1884    1.2122 H   0  0  0  0  0  0  0  0  0  0  0  0
    2.0273   -1.2817   -2.7853 H   0  0  0  0  0  0  0  0  0  0  0  0
    3.5304   -0.9439   -1.9624 H   0  0  0  0  0  0  0  0  0  0  0  0
    3.2053   -3.3879   -2.3212 H   0  0  0  0  0  0  0  0  0  0  0  0
    3.3141   -3.0247   -0.6038 H   0  0  0  0  0  0  0  0  0  0  0  0
    0.7782   -3.5833   -2.2290 H   0  0  0  0  0  0  0  0  0  0  0  0
    1.4594   -4.5860   -0.9412 H   0  0  0  0  0  0  0  0  0  0  0  0
    0.9390   -2.9269    0.7510 H   0  0  0  0  0  0  0  0  0  0  0  0
   -0.5045   -3.1901   -0.2080 H   0  0  0  0  0  0  0  0  0  0  0  0
   -0.0796   -1.2018   -1.5706 H   0  0  0  0  0  0  0  0  0  0  0  0
   -1.2129    0.5825   -1.0429 H   0  0  0  0  0  0  0  0  0  0  0  0
   -1.5055    3.0114   -0.9729 H   0  0  0  0  0  0  0  0  0  0  0  0
   -3.1077    3.4972   -1.5459 H   0  0  0  0  0  0  0  0  0  0  0  0
   -2.4433    1.9614   -2.0814 H   0  0  0  0  0  0  0  0  0  0  0  0
   -4.6126    3.4967    0.1944 H   0  0  0  0  0  0  0  0  0  0  0  0
   -5.6556    2.4881    2.1815 H   0  0  0  0  0  0  0  0  0  0  0  0
   -4.8177    0.3553    3.0774 H   0  0  0  0  0  0  0  0  0  0  0  0
   -2.1202   -1.1103    2.9551 H   0  0  0  0  0  0  0  0  0  0  0  0
   -3.7621   -1.6965    2.6320 H   0  0  0  0  0  0  0  0  0  0  0  0
   -2.5438   -1.9001    1.3963 H   0  0  0  0  0  0  0  0  0  0  0  0
  1  2  1  0
  2  3  1  0
  3  4  1  0
  4  5  1  0
  5  6  1  0
  6  7  1  0
  7  8  1  0
  8  9  1  0
  9 10  1  0
 10 11  1  0
 11 12  2  0
 11 13  1  0
 13 14  1  0
 14 15  2  0
 15 16  1  0
 15 17  1  0
 17 18  2  0
 18 19  1  0
 19 20  2  0
 20 21  1  0
 10  5  1  0
 20 14  1  0
  1 22  1  0
  1 23  1  0
  1 24  1  0
  2 25  1  0
  2 26  1  0
  3 27  1  0
  3 28  1  0
  4 29  1  0
  4 30  1  0
  6 31  1  0
  6 32  1  0
  7 33  1  0
  7 34  1  0
  8 35  1  0
  8 36  1  0
  9 37  1  0
  9 38  1  0
 10 39  1  0
 13 40  1  0
 16 41  1  0
 16 42  1  0
 16 43  1  0
 17 44  1  0
 18 45  1  0
 19 46  1  0
 21 47  1  0
 21 48  1  0
 21 49  1  0
M  END
$$$$
OCNT-2077048
     RDKit          3D

 43 43  0  0  0  0  0  0  0  0999 V2000
   -4.7450   -0.2764    1.1927 C   0  0  0  0  0  0  0  0  0  0  0  0
   -3.8221   -1.2974    1.5455 O   0  0  0  0  0  0  0  0  0  0  0  0
   -3.5161   -2.1837    0.4725 C   0  0  0  0  0  0  0  0  0  0  0  0
   -2.6064   -1.5575   -0.5850 C   0  0  0  0  0  0  0  0  0  0  0  0
   -1.3172   -0.9890    0.0129 C   0  0  0  0  0  0  0  0  0  0  0  0
   -0.4030   -0.4320   -1.0784 C   0  0  0  0  0  0  0  0  0  0  0  0
    0.8390    0.2229   -0.4782 C   0  0  0  0  0  0  0  0  0  0  0  0
    0.8456    1.4419   -0.0174 N   0  0  0  0  0  0  0  0  0  0  0  0
   -0.4096    2.0542   -0.1332 O   0  0  0  0  0  0  0  0  0  0  0  0
   -0.3462    3.3434    0.4806 C   0  0  0  0  0  0  0  0  0  0  0  0
   -1.7203    4.0031    0.3531 C   0  0  0  0  0  0  0  0  0  0  0  0
   -1.7524    5.3616    0.8959 N   0  0  0  0  0  0  0  0  0  0  0  0
    2.1151   -0.5654   -0.4171 C   0  0  0  0  0  0  0  0  0  0  0  0
    3.3266    0.1220   -0.2592 C   0  0  0  0  0  0  0  0  0  0  0  0
    4.5386   -0.5727   -0.1956 C   0  0  0  0  0  0  0  0  0  0  0  0
    4.5632   -1.9706   -0.2905 C   0  0  0  0  0  0  0  0  0  0  0  0
    5.8652   -2.7296   -0.1984 C   0  0  0  0  0  0  0  0  0  0  0  0
    5.8959   -3.8257   -1.0074 F   0  0  0  0  0  0  0  0  0  0  0  0
    6.9509   -1.9827   -0.5446 F   0  0  0  0  0  0  0  0  0  0  0  0
    6.1099   -3.1865    1.0603 F   0  0  0  0  0  0  0  0  0  0  0  0
    3.3484   -2.6578   -0.4319 C   0  0  0  0  0  0  0  0  0  0  0  0
    2.1349   -1.9625   -0.4961 C   0  0  0  0  0  0  0  0  0  0  0  0
   -5.6646   -0.7081    0.7862 H   0  0  0  0  0  0  0  0  0  0  0  0
   -4.3024    0.4186    0.4744 H   0  0  0  0  0  0  0  0  0  0  0  0
   -4.9957    0.2834    2.0982 H   0  0  0  0  0  0  0  0  0  0  0  0
   -3.0088   -3.0498    0.9122 H   0  0  0  0  0  0  0  0  0  0  0  0
   -4.4415   -2.5545    0.0160 H   0  0  0  0  0  0  0  0  0  0  0  0
   -3.1406   -0.7549   -1.1060 H   0  0  0  0  0  0  0  0  0  0  0  0
   -2.3640   -2.3188   -1.3360 H   0  0  0  0  0  0  0  0  0  0  0  0
   -1.5579   -0.2007    0.7356 H   0  0  0  0  0  0  0  0  0  0  0  0
   -0.7936   -1.7715    0.5745 H   0  0  0  0  0  0  0  0  0  0  0  0
   -0.1162   -1.2223   -1.7797 H   0  0  0  0  0  0  0  0  0  0  0  0
   -0.9371    0.3088   -1.6850 H   0  0  0  0  0  0  0  0  0  0  0  0
   -0.0709    3.2322    1.5362 H   0  0  0  0  0  0  0  0  0  0  0  0
    0.4163    3.9457   -0.0277 H   0  0  0  0  0  0  0  0  0  0  0  0
   -2.0215    4.0240   -0.7009 H   0  0  0  0  0  0  0  0  0  0  0  0
   -2.4663    3.3883    0.8702 H   0  0  0  0  0  0  0  0  0  0  0  0
   -1.1106    5.9543    0.3696 H   0  0  0  0  0  0  0  0  0  0  0  0
   -2.6822    5.7558    0.7568 H   0  0  0  0  0  0  0  0  0  0  0  0
    3.3366    1.2081   -0.1829 H   0  0  0  0  0  0  0  0  0  0  0  0
    5.4645   -0.0125   -0.0696 H   0  0  0  0  0  0  0  0  0  0  0  0
    3.3414   -3.7461   -0.4877 H   0  0  0  0  0  0  0  0  0  0  0  0
    1.2201   -2.5398   -0.5889 H   0  0  0  0  0  0  0  0  0  0  0  0
  1  2  1  0
  2  3  1  0
  3  4  1  0
  4  5  1  0
  5  6  1  0
  6  7  1  0
  7  8  2  0
  8  9  1  0
  9 10  1  0
 10 11  1  0
 11 12  1  0
  7 13  1  0
 13 14  1  0
 14 15  2  0
 15 16  1  0
 16 17  1  0
 17 18  1  0
 17 19  1  0
 17 20  1  0
 16 21  2  0
 21 22  1  0
 22 13  2  0
  1 23  1  0
  1 24  1  0
  1 25  1  0
  3 26  1  0
  3 27  1  0
  4 28  1  0
  4 29  1  0
  5 30  1  0
  5 31  1  0
  6 32  1  0
  6 33  1  0
 10 34  1  0
 10 35  1  0
 11 36  1  0
 11 37  1  0
 12 38  1  0
 12 39  1  0
 14 40  1  0
 15 41  1  0
 21 42  1  0
 22 43  1  0
M  END
$$$$
OCNT-2127780
     RDKit          3D

 40 41  0  0  0  0  0  0  0  0999 V2000
    4.5644   -1.2926    0.2152 C   0  0  0  0  0  0  0  0  0  0  0  0
    3.4735   -1.4112   -0.7483 N   0  0  0  0  0  0  0  0  0  0  0  0
    3.7070   -0.5639   -1.9135 C   0  0  0  0  0  0  0  0  0  0  0  0
    2.1539   -1.1874   -0.1359 C   0  0  0  0  0  0  0  0  0  0  0  0
    1.8569    0.2201    0.4193 C   0  0  0  0  0  0  0  0  0  0  0  0
    0.5780    0.2796    1.0546 O   0  0  0  0  0  0  0  0  0  0  0  0
   -0.5285    0.3369    0.1389 C   0  0  0  0  0  0  0  0  0  0  0  0
   -1.4255   -0.8656    0.3865 C   0  0  0  0  0  0  0  0  0  0  0  0
   -1.9197   -1.6156   -0.6934 C   0  0  0  0  0  0  0  0  0  0  0  0
   -2.7511   -2.7161   -0.4747 C   0  0  0  0  0  0  0  0  0  0  0  0
   -3.1020   -3.0793    0.8238 C   0  0  0  0  0  0  0  0  0  0  0  0
   -2.6232   -2.3434    1.9053 C   0  0  0  0  0  0  0  0  0  0  0  0
   -1.7918   -1.2435    1.6885 C   0  0  0  0  0  0  0  0  0  0  0  0
   -1.2672    1.6610    0.2874 C   0  0  0  0  0  0  0  0  0  0  0  0
   -2.0458    2.1489   -0.7763 C   0  0  0  0  0  0  0  0  0  0  0  0
   -2.7404    3.3547   -0.6593 C   0  0  0  0  0  0  0  0  0  0  0  0
   -2.6708    4.0881    0.5228 C   0  0  0  0  0  0  0  0  0  0  0  0
   -1.9101    3.6156    1.5897 C   0  0  0  0  0  0  0  0  0  0  0  0
   -1.2156    2.4098    1.4742 C   0  0  0  0  0  0  0  0  0  0  0  0
    4.6943   -0.2686    0.5812 H   0  0  0  0  0  0  0  0  0  0  0  0
    4.3961   -1.9500    1.0753 H   0  0  0  0  0  0  0  0  0  0  0  0
    5.5092   -1.6103   -0.2401 H   0  0  0  0  0  0  0  0  0  0  0  0
    3.7996    0.4958   -1.6525 H   0  0  0  0  0  0  0  0  0  0  0  0
    4.6273   -0.8669   -2.4255 H   0  0  0  0  0  0  0  0  0  0  0  0
    2.8947   -0.6722   -2.6407 H   0  0  0  0  0  0  0  0  0  0  0  0
    2.0045   -1.9184    0.6702 H   0  0  0  0  0  0  0  0  0  0  0  0
    1.3884   -1.4542   -0.8750 H   0  0  0  0  0  0  0  0  0  0  0  0
    1.9216    0.9940   -0.3538 H   0  0  0  0  0  0  0  0  0  0  0  0
    2.5896    0.4731    1.1920 H   0  0  0  0  0  0  0  0  0  0  0  0
   -0.1487    0.2908   -0.8911 H   0  0  0  0  0  0  0  0  0  0  0  0
   -1.6594   -1.3488   -1.7149 H   0  0  0  0  0  0  0  0  0  0  0  0
   -3.1258   -3.2902   -1.3181 H   0  0  0  0  0  0  0  0  0  0  0  0
   -3.7493   -3.9356    0.9935 H   0  0  0  0  0  0  0  0  0  0  0  0
   -2.8962   -2.6240    2.9190 H   0  0  0  0  0  0  0  0  0  0  0  0
   -1.4234   -0.6774    2.5417 H   0  0  0  0  0  0  0  0  0  0  0  0
   -2.1211    1.5866   -1.7043 H   0  0  0  0  0  0  0  0  0  0  0  0
   -3.3400    3.7189   -1.4894 H   0  0  0  0  0  0  0  0  0  0  0  0
   -3.2134    5.0250    0.6150 H   0  0  0  0  0  0  0  0  0  0  0  0
   -1.8589    4.1830    2.5152 H   0  0  0  0  0  0  0  0  0  0  0  0
   -0.6313    2.0534    2.3203 H   0  0  0  0  0  0  0  0  0  0  0  0
  1  2  1  0
  2  3  1  0
  2  4  1  0
  4  5  1  0
  5  6  1  0
  6  7  1  0
  7  8  1  0
  8  9  2  0
  9 10  1  0
 10 11  2  0
 11 12  1  0
 12 13  2  0
  7 14  1  0
 14 15  2  0
 15 16  1  0
 16 17  2  0
 17 18  1  0
 18 19  2  0
 13  8  1  0
 19 14  1  0
  1 20  1  0
  1 21  1  0
  1 22  1  0
  3 23  1  0
  3 24  1  0
  3 25  1  0
  4 26  1  0
  4 27  1  0
  5 28  1  0
  5 29  1  0
  7 30  1  0
  9 31  1  0
 10 32  1  0
 11 33  1  0
 12 34  1  0
 13 35  1  0
 15 36  1  0
 16 37  1  0
 17 38  1  0
 18 39  1  0
 19 40  1  0
M  END
$$$$
OCNT-2308466
     RDKit          3D

 50 53  0  0  0  0  0  0  0  0999 V2000
   -0.9844    0.7606    2.6011 O   0  0  0  0  0  0  0  0  0  0  0  0
   -1.7216    0.7817    1.6229 C   0  0  0  0  0  0  0  0  0  0  0  0
   -1.3426    1.1953    0.3642 N   0  0  0  0  0  0  0  0  0  0  0  0
   -0.0052    1.6256    0.0251 C   0  0  0  0  0  0  0  0  0  0  0  0
    0.7496    0.5617   -0.7866 C   0  0  0  0  0  0  0  0  0  0  0  0
    1.0003   -0.7095    0.0450 C   0  0  0  0  0  0  0  0  0  0  0  0
    2.2234   -1.4650   -0.4677 C   0  0  0  0  0  0  0  0  0  0  0  0
    3.4589   -0.6844   -0.3057 N   0  0  0  0  0  0  0  0  0  0  0  0
    4.5276   -1.2314   -1.1578 C   0  0  0  0  0  0  0  0  0  0  0  0
    5.8985   -0.7908   -0.7153 C   0  0  0  0  0  0  0  0  0  0  0  0
    6.4191   -0.7506    0.5650 C   0  0  0  0  0  0  0  0  0  0  0  0
    7.7648   -0.2861    0.5926 C   0  0  0  0  0  0  0  0  0  0  0  0
    8.2331    0.0064   -0.6683 C   0  0  0  0  0  0  0  0  0  0  0  0
    7.0550   -0.2797   -1.8741 S   0  0  0  0  0  0  0  0  0  0  0  0
    3.2665    0.7635   -0.4797 C   0  0  0  0  0  0  0  0  0  0  0  0
    2.0662    1.1220   -1.3553 C   0  0  0  0  0  0  0  0  0  0  0  0
   -3.1505    0.3397    1.7113 C   0  0  0  0  0  0  0  0  0  0  0  0
   -3.6776   -0.0867    2.9197 C   0  0  0  0  0  0  0  0  0  0  0  0
   -5.0082   -0.4874    2.9438 C   0  0  0  0  0  0  0  0  0  0  0  0
   -5.7630   -0.4503    1.7690 C   0  0  0  0  0  0  0  0  0  0  0  0
   -5.1593   -0.0092    0.5904 C   0  0  0  0  0  0  0  0  0  0  0  0
   -5.9066    0.0389   -0.6334 N   0  0  0  0  0  0  0  0  0  0  0  0
   -7.2286   -0.3045   -0.8493 C   0  0  0  0  0  0  0  0  0  0  0  0
   -7.4930   -0.0898   -2.1815 C   0  0  0  0  0  0  0  0  0  0  0  0
   -6.2843    0.3831   -2.7086 C   0  0  0  0  0  0  0  0  0  0  0  0
   -5.3229    0.4647   -1.7901 N   0  0  0  0  0  0  0  0  0  0  0  0
   -3.8591    0.3863    0.5517 N   0  0  0  0  0  0  0  0  0  0  0  0
   -2.0635    1.1458   -0.3556 H   0  0  0  0  0  0  0  0  0  0  0  0
   -0.1241    2.5379   -0.5697 H   0  0  0  0  0  0  0  0  0  0  0  0
    0.5460    1.8894    0.9345 H   0  0  0  0  0  0  0  0  0  0  0  0
    0.1192    0.2890   -1.6447 H   0  0  0  0  0  0  0  0  0  0  0  0
    1.1509   -0.4617    1.1037 H   0  0  0  0  0  0  0  0  0  0  0  0
    0.1176   -1.3586   -0.0004 H   0  0  0  0  0  0  0  0  0  0  0  0
    2.3235   -2.4051    0.0874 H   0  0  0  0  0  0  0  0  0  0  0  0
    2.0566   -1.7279   -1.5212 H   0  0  0  0  0  0  0  0  0  0  0  0
    4.3426   -0.9785   -2.2099 H   0  0  0  0  0  0  0  0  0  0  0  0
    4.5235   -2.3283   -1.0919 H   0  0  0  0  0  0  0  0  0  0  0  0
    5.8470   -1.0353    1.4406 H   0  0  0  0  0  0  0  0  0  0  0  0
    8.3573   -0.1722    1.4917 H   0  0  0  0  0  0  0  0  0  0  0  0
    9.2122    0.3743   -0.9421 H   0  0  0  0  0  0  0  0  0  0  0  0
    4.1611    1.2548   -0.8795 H   0  0  0  0  0  0  0  0  0  0  0  0
    3.1171    1.2009    0.5158 H   0  0  0  0  0  0  0  0  0  0  0  0
    2.2266    0.7091   -2.3603 H   0  0  0  0  0  0  0  0  0  0  0  0
    2.0082    2.2093   -1.4824 H   0  0  0  0  0  0  0  0  0  0  0  0
   -3.0672   -0.1056    3.8170 H   0  0  0  0  0  0  0  0  0  0  0  0
   -5.4569   -0.8279    3.8739 H   0  0  0  0  0  0  0  0  0  0  0  0
   -6.7982   -0.7681    1.8133 H   0  0  0  0  0  0  0  0  0  0  0  0
   -7.8676   -0.6665   -0.0595 H   0  0  0  0  0  0  0  0  0  0  0  0
   -8.4284   -0.2524   -2.6978 H   0  0  0  0  0  0  0  0  0  0  0  0
   -6.0599    0.6735   -3.7273 H   0  0  0  0  0  0  0  0  0  0  0  0
  1  2  2  0
  2  3  1  0
  3  4  1  0
  4  5  1  0
  5  6  1  0
  6  7  1  0
  7  8  1  0
  8  9  1  0
  9 10  1  0
 10 11  2  0
 11 12  1  0
 12 13  2  0
 13 14  1  0
  8 15  1  0
 15 16  1  0
  2 17  1  0
 17 18  1  0
 18 19  2  0
 19 20  1  0
 20 21  2  0
 21 22  1  0
 22 23  1  0
 23 24  2  0
 24 25  1  0
 25 26  2  0
 21 27  1  0
 16  5  1  0
 27 17  2  0
 14 10  1  0
 26 22  1  0
  3 28  1  0
  4 29  1  0
  4 30  1  0
  5 31  1  0
  6 32  1  0
  6 33  1  0
  7 34  1  0
  7 35  1  0
  9 36  1  0
  9 37  1  0
 11 38  1  0
 12 39  1  0
 13 40  1  0
 15 41  1  0
 15 42  1  0
 16 43  1  0
 16 44  1  0
 18 45  1  0
 19 46  1  0
 20 47  1  0
 23 48  1  0
 24 49  1  0
 25 50  1  0
M  END
$$$$
OCNT-2308478
     RDKit          3D

 55 58  0  0  0  0  0  0  0  0999 V2000
    6.1334    2.1305    0.8254 C   0  0  0  0  0  0  0  0  0  0  0  0
    4.9232    1.9447   -0.0932 C   0  0  0  0  0  0  0  0  0  0  0  0
    5.2440    2.4029   -1.5181 C   0  0  0  0  0  0  0  0  0  0  0  0
    4.4183    0.5126   -0.0680 C   0  0  0  0  0  0  0  0  0  0  0  0
    5.2149   -0.5572   -0.4982 C   0  0  0  0  0  0  0  0  0  0  0  0
    4.7283   -1.8654   -0.4640 C   0  0  0  0  0  0  0  0  0  0  0  0
    3.4381   -2.1246   -0.0068 C   0  0  0  0  0  0  0  0  0  0  0  0
    3.0567   -3.4386   -0.0054 O   0  0  0  0  0  0  0  0  0  0  0  0
    1.6551   -3.6627    0.1642 C   0  0  0  0  0  0  0  0  0  0  0  0
    1.0718   -2.8275    1.2901 C   0  0  0  0  0  0  0  0  0  0  0  0
    1.2375   -1.3446    0.9583 C   0  0  2  0  0  0  0  0  0  0  0  0
    0.2652   -0.8956   -0.0253 N   0  0  0  0  0  0  0  0  0  0  0  0
   -1.0444   -0.6363    0.3066 C   0  0  0  0  0  0  0  0  0  0  0  0
   -1.4634   -0.7523    1.4534 O   0  0  0  0  0  0  0  0  0  0  0  0
   -1.8967   -0.2245   -0.8029 C   0  0  0  0  0  0  0  0  0  0  0  0
   -1.5217    0.1010   -2.0948 C   0  0  0  0  0  0  0  0  0  0  0  0
   -2.6603    0.4471   -2.7570 N   0  0  0  0  0  0  0  0  0  0  0  0
   -3.7600    0.3772   -2.0007 N   0  0  0  0  0  0  0  0  0  0  0  0
   -3.3173   -0.0416   -0.8037 C   0  0  0  0  0  0  0  0  0  0  0  0
   -4.2808   -0.2468    0.3486 C   0  0  0  0  0  0  0  0  0  0  0  0
   -4.4100    1.0153    1.2181 C   0  0  0  0  0  0  0  0  0  0  0  0
   -5.3247    2.0614    0.5809 C   0  0  0  0  0  0  0  0  0  0  0  0
   -6.6657    1.4570    0.1676 C   0  0  0  0  0  0  0  0  0  0  0  0
   -6.5051    0.3071   -0.7242 N   0  0  0  0  0  0  0  0  0  0  0  0
   -5.6816   -0.7344   -0.0856 C   0  0  0  0  0  0  0  0  0  0  0  0
    2.6293   -1.0789    0.4448 C   0  0  0  0  0  0  0  0  0  0  0  0
    3.1250    0.2366    0.4027 C   0  0  0  0  0  0  0  0  0  0  0  0
    6.9986    1.5508    0.4859 H   0  0  0  0  0  0  0  0  0  0  0  0
    5.9004    1.8144    1.8484 H   0  0  0  0  0  0  0  0  0  0  0  0
    6.4321    3.1838    0.8599 H   0  0  0  0  0  0  0  0  0  0  0  0
    4.1285    2.6018    0.2843 H   0  0  0  0  0  0  0  0  0  0  0  0
    6.0730    1.8352   -1.9545 H   0  0  0  0  0  0  0  0  0  0  0  0
    4.3744    2.2811   -2.1735 H   0  0  0  0  0  0  0  0  0  0  0  0
    5.5252    3.4616   -1.5276 H   0  0  0  0  0  0  0  0  0  0  0  0
    6.2251   -0.3844   -0.8622 H   0  0  0  0  0  0  0  0  0  0  0  0
    5.3584   -2.6858   -0.7978 H   0  0  0  0  0  0  0  0  0  0  0  0
    1.5266   -4.7255    0.3955 H   0  0  0  0  0  0  0  0  0  0  0  0
    1.1457   -3.4785   -0.7896 H   0  0  0  0  0  0  0  0  0  0  0  0
    1.6217   -3.0488    2.2143 H   0  0  0  0  0  0  0  0  0  0  0  0
    0.0219   -3.0903    1.4576 H   0  0  0  0  0  0  0  0  0  0  0  0
    1.0741   -0.7716    1.8803 H   0  0  0  0  0  0  0  0  0  0  0  0
    0.5532   -0.8623   -0.9917 H   0  0  0  0  0  0  0  0  0  0  0  0
   -0.5660    0.1364   -2.5965 H   0  0  0  0  0  0  0  0  0  0  0  0
   -2.7605    0.7466   -3.7220 H   0  0  0  0  0  0  0  0  0  0  0  0
   -3.8662   -1.0461    0.9758 H   0  0  0  0  0  0  0  0  0  0  0  0
   -3.4286    1.4587    1.4235 H   0  0  0  0  0  0  0  0  0  0  0  0
   -4.8352    0.7296    2.1892 H   0  0  0  0  0  0  0  0  0  0  0  0
   -5.4948    2.8783    1.2916 H   0  0  0  0  0  0  0  0  0  0  0  0
   -4.8319    2.5039   -0.2933 H   0  0  0  0  0  0  0  0  0  0  0  0
   -7.2369    1.1591    1.0553 H   0  0  0  0  0  0  0  0  0  0  0  0
   -7.2625    2.2191   -0.3456 H   0  0  0  0  0  0  0  0  0  0  0  0
   -5.9663    0.6151   -1.5452 H   0  0  0  0  0  0  0  0  0  0  0  0
   -5.5879   -1.5771   -0.7812 H   0  0  0  0  0  0  0  0  0  0  0  0
   -6.2217   -1.1191    0.7891 H   0  0  0  0  0  0  0  0  0  0  0  0
    2.4908    1.0516    0.7496 H   0  0  0  0  0  0  0  0  0  0  0  0
  1  2  1  0
  2  3  1  0
  2  4  1  0
  4  5  1  0
  5  6  2  0
  6  7  1  0
  7  8  1  0
  8  9  1  0
  9 10  1  0
 10 11  1  0
 11 12  1  0
 12 13  1  0
 13 14  2  0
 13 15  1  0
 15 16  2  0
 16 17  1  0
 17 18  1  0
 18 19  2  0
 19 20  1  0
 20 21  1  0
 21 22  1  0
 22 23  1  0
 23 24  1  0
 24 25  1  0
 11 26  1  0
 26 27  1  0
 27  4  2  0
 26  7  2  0
 19 15  1  0
 25 20  1  0
  1 28  1  0
  1 29  1  0
  1 30  1  0
  2 31  1  0
  3 32  1  0
  3 33  1  0
  3 34  1  0
  5 35  1  0
  6 36  1  0
  9 37  1  0
  9 38  1  0
 10 39  1  0
 10 40  1  0
 11 41  1  1
 12 42  1  0
 16 43  1  0
 17 44  1  0
 20 45  1  0
 21 46  1  0
 21 47  1  0
 22 48  1  0
 22 49  1  0
 23 50  1  0
 23 51  1  0
 24 52  1  0
 25 53  1  0
 25 54  1  0
 27 55  1  0
M  END
$$$$
OCNT-2308483
     RDKit          3D

 36 39  0  0  0  0  0  0  0  0999 V2000
    5.5301    0.7544   -0.3735 C   0  0  0  0  0  0  0  0  0  0  0  0
    4.0814    0.3687   -0.5070 C   0  0  0  0  0  0  0  0  0  0  0  0
    3.6374   -0.1781   -1.7145 C   0  0  0  0  0  0  0  0  0  0  0  0
    2.3041   -0.5397   -1.8745 C   0  0  0  0  0  0  0  0  0  0  0  0
    1.3895   -0.3578   -0.8292 C   0  0  0  0  0  0  0  0  0  0  0  0
    0.0397   -0.7061   -0.9941 C   0  0  0  0  0  0  0  0  0  0  0  0
   -0.8673   -0.5132    0.0444 C   0  0  0  0  0  0  0  0  0  0  0  0
   -2.2709   -0.8525   -0.0943 C   0  0  0  0  0  0  0  0  0  0  0  0
   -2.7049   -2.0669   -0.5891 C   0  0  0  0  0  0  0  0  0  0  0  0
   -4.0748   -2.0738   -0.5635 N   0  0  0  0  0  0  0  0  0  0  0  0
   -4.5456   -0.8815   -0.0669 C   0  0  0  0  0  0  0  0  0  0  0  0
   -5.8476   -0.4421    0.1366 C   0  0  0  0  0  0  0  0  0  0  0  0
   -6.0550    0.7956    0.6386 N   0  0  0  0  0  0  0  0  0  0  0  0
   -4.9881    1.5728    0.9249 C   0  0  0  0  0  0  0  0  0  0  0  0
   -3.6646    1.1971    0.7483 C   0  0  0  0  0  0  0  0  0  0  0  0
   -3.4368   -0.0898    0.2352 C   0  0  0  0  0  0  0  0  0  0  0  0
   -0.3687    0.0240    1.2191 C   0  0  0  0  0  0  0  0  0  0  0  0
    0.9272    0.3715    1.4121 N   0  0  0  0  0  0  0  0  0  0  0  0
    1.8089    0.1843    0.4068 C   0  0  0  0  0  0  0  0  0  0  0  0
    3.1654    0.5240    0.5630 C   0  0  0  0  0  0  0  0  0  0  0  0
    3.6246    1.1196    1.8739 C   0  0  0  0  0  0  0  0  0  0  0  0
    6.0451    0.0602    0.2980 H   0  0  0  0  0  0  0  0  0  0  0  0
    6.0427    0.7282   -1.3412 H   0  0  0  0  0  0  0  0  0  0  0  0
    5.6235    1.7752    0.0106 H   0  0  0  0  0  0  0  0  0  0  0  0
    4.3273   -0.3217   -2.5436 H   0  0  0  0  0  0  0  0  0  0  0  0
    1.9827   -0.9581   -2.8256 H   0  0  0  0  0  0  0  0  0  0  0  0
   -0.3042   -1.1148   -1.9412 H   0  0  0  0  0  0  0  0  0  0  0  0
   -2.1601   -2.9328   -0.9427 H   0  0  0  0  0  0  0  0  0  0  0  0
   -4.6585   -2.8431   -0.8632 H   0  0  0  0  0  0  0  0  0  0  0  0
   -6.7250   -1.0364   -0.0866 H   0  0  0  0  0  0  0  0  0  0  0  0
   -5.2325    2.5563    1.3179 H   0  0  0  0  0  0  0  0  0  0  0  0
   -2.8558    1.8756    0.9907 H   0  0  0  0  0  0  0  0  0  0  0  0
   -1.0086    0.1905    2.0816 H   0  0  0  0  0  0  0  0  0  0  0  0
    3.6226    2.2119    1.8055 H   0  0  0  0  0  0  0  0  0  0  0  0
    2.9850    0.8201    2.7102 H   0  0  0  0  0  0  0  0  0  0  0  0
    4.6317    0.7782    2.1331 H   0  0  0  0  0  0  0  0  0  0  0  0
  1  2  1  0
  2  3  2  0
  3  4  1  0
  4  5  2  0
  5  6  1  0
  6  7  2  0
  7  8  1  0
  8  9  2  0
  9 10  1  0
 10 11  1  0
 11 12  2  0
 12 13  1  0
 13 14  2  0
 14 15  1  0
 15 16  2  0
  7 17  1  0
 17 18  2  0
 18 19  1  0
 19 20  2  0
 20 21  1  0
 20  2  1  0
 19  5  1  0
 16  8  1  0
 16 11  1  0
  1 22  1  0
  1 23  1  0
  1 24  1  0
  3 25  1  0
  4 26  1  0
  6 27  1  0
  9 28  1  0
 10 29  1  0
 12 30  1  0
 14 31  1  0
 15 32  1  0
 17 33  1  0
 21 34  1  0
 21 35  1  0
 21 36  1  0
M  END
$$$$
OCNT-2308499
     RDKit          3D

 33 35  0  0  0  0  0  0  0  0999 V2000
    6.1322   -0.7271   -0.9656 C   0  0  0  0  0  0  0  0  0  0  0  0
    4.8045   -0.6298   -0.4096 N   0  0  0  0  0  0  0  0  0  0  0  0
    3.9965    0.4692   -0.4025 C   0  0  0  0  0  0  0  0  0  0  0  0
    2.8456    0.0802    0.2338 C   0  0  0  0  0  0  0  0  0  0  0  0
    1.8142    0.9234    0.4222 O   0  0  0  0  0  0  0  0  0  0  0  0
    0.6428    0.3152    1.0048 C   0  0  0  0  0  0  0  0  0  0  0  0
   -0.2472   -0.5375    0.0823 C   0  0  0  0  0  0  0  0  0  0  0  0
   -1.3886    0.1160    0.6696 N   0  0  0  0  0  0  0  0  0  0  0  0
   -2.7167    0.1124    0.1688 C   0  0  0  0  0  0  0  0  0  0  0  0
   -3.1000   -0.9247   -0.7097 C   0  0  0  0  0  0  0  0  0  0  0  0
   -4.3920   -0.9974   -1.2363 C   0  0  0  0  0  0  0  0  0  0  0  0
   -4.8477   -2.4013   -2.4164 Br  0  0  0  0  0  0  0  0  0  0  0  0
   -5.3420   -0.0481   -0.8971 C   0  0  0  0  0  0  0  0  0  0  0  0
   -4.9872    0.9681   -0.0190 C   0  0  0  0  0  0  0  0  0  0  0  0
   -5.9239    1.8715    0.3086 F   0  0  0  0  0  0  0  0  0  0  0  0
   -3.6981    1.0619    0.5232 C   0  0  0  0  0  0  0  0  0  0  0  0
   -3.4558    2.1338    1.4399 C   0  0  0  0  0  0  0  0  0  0  0  0
   -3.2590    3.0090    2.1778 N   0  0  0  0  0  0  0  0  0  0  0  0
   -0.5916    1.2308    1.1098 C   0  0  0  0  0  0  0  0  0  0  0  0
    3.0549   -1.2684    0.5815 C   0  0  0  0  0  0  0  0  0  0  0  0
    4.2510   -1.7098    0.1785 N   0  0  0  0  0  0  0  0  0  0  0  0
    6.4173    0.2353   -1.3974 H   0  0  0  0  0  0  0  0  0  0  0  0
    6.8231   -0.9954   -0.1625 H   0  0  0  0  0  0  0  0  0  0  0  0
    6.1253   -1.4970   -1.7411 H   0  0  0  0  0  0  0  0  0  0  0  0
    4.2971    1.4113   -0.8372 H   0  0  0  0  0  0  0  0  0  0  0  0
    0.8644   -0.1577    1.9731 H   0  0  0  0  0  0  0  0  0  0  0  0
   -0.2239   -1.6133    0.2734 H   0  0  0  0  0  0  0  0  0  0  0  0
   -0.1405   -0.3318   -0.9883 H   0  0  0  0  0  0  0  0  0  0  0  0
   -2.3809   -1.6925   -0.9873 H   0  0  0  0  0  0  0  0  0  0  0  0
   -6.3521   -0.0843   -1.2928 H   0  0  0  0  0  0  0  0  0  0  0  0
   -0.6081    2.0730    0.4103 H   0  0  0  0  0  0  0  0  0  0  0  0
   -0.8165    1.5582    2.1270 H   0  0  0  0  0  0  0  0  0  0  0  0
    2.4029   -1.9534    1.1056 H   0  0  0  0  0  0  0  0  0  0  0  0
  1  2  1  0
  2  3  1  0
  3  4  2  0
  4  5  1  0
  5  6  1  0
  6  7  1  0
  7  8  1  0
  8  9  1  0
  9 10  1  0
 10 11  2  0
 11 12  1  0
 11 13  1  0
 13 14  2  0
 14 15  1  0
 14 16  1  0
 16 17  1  0
 17 18  3  0
  8 19  1  0
  4 20  1  0
 20 21  2  0
 21  2  1  0
 19  6  1  0
 16  9  2  0
  1 22  1  0
  1 23  1  0
  1 24  1  0
  3 25  1  0
  6 26  1  0
  7 27  1  0
  7 28  1  0
 10 29  1  0
 13 30  1  0
 19 31  1  0
 19 32  1  0
 20 33  1  0
M  END
$$$$
OCNT-2308519
     RDKit          3D

 44 48  0  0  0  0  0  0  0  0999 V2000
    1.5572   -1.9387   -2.1787 O   0  0  0  0  0  0  0  0  0  0  0  0
    2.0548   -1.2213   -1.3140 C   0  0  0  0  0  0  0  0  0  0  0  0
    3.2499   -0.4746   -1.5516 C   0  0  0  0  0  0  0  0  0  0  0  0
    4.0633   -0.3853   -2.6581 C   0  0  0  0  0  0  0  0  0  0  0  0
    5.1096    0.4700   -2.4248 N   0  0  0  0  0  0  0  0  0  0  0  0
    4.9315    0.8955   -1.1916 C   0  0  0  0  0  0  0  0  0  0  0  0
    3.8126    0.3485   -0.6191 N   0  0  0  0  0  0  0  0  0  0  0  0
    3.2582    0.5241    0.6575 C   0  0  0  0  0  0  0  0  0  0  0  0
    3.8561    1.3814    1.5915 C   0  0  0  0  0  0  0  0  0  0  0  0
    3.2801    1.5300    2.8496 C   0  0  0  0  0  0  0  0  0  0  0  0
    2.1227    0.8272    3.1680 C   0  0  0  0  0  0  0  0  0  0  0  0
    1.5316   -0.0282    2.2302 C   0  0  0  0  0  0  0  0  0  0  0  0
    2.0821   -0.1969    0.9528 C   0  0  0  0  0  0  0  0  0  0  0  0
    1.4962   -1.0685   -0.0316 N   0  0  0  0  0  0  0  0  0  0  0  0
    0.2508   -1.7884    0.2276 C   0  0  0  0  0  0  0  0  0  0  0  0
   -0.9389   -0.9575   -0.1648 C   0  0  0  0  0  0  0  0  0  0  0  0
   -2.3341   -1.4509    0.1586 C   0  0  0  0  0  0  0  0  0  0  0  0
   -3.4384   -1.4363   -0.8569 C   0  0  0  0  0  0  0  0  0  0  0  0
   -3.6442   -0.1472   -1.6415 C   0  0  0  0  0  0  0  0  0  0  0  0
   -4.3283    0.9703   -0.8538 C   0  0  0  0  0  0  0  0  0  0  0  0
   -3.7569    1.2714    0.5318 C   0  0  0  0  0  0  0  0  0  0  0  0
   -2.2382    1.1712    0.5992 C   0  0  0  0  0  0  0  0  0  0  0  0
   -1.7817   -0.2309    0.8670 C   0  0  0  0  0  0  0  0  0  0  0  0
    3.9455   -0.8935   -3.6074 H   0  0  0  0  0  0  0  0  0  0  0  0
    5.5836    1.5918   -0.6834 H   0  0  0  0  0  0  0  0  0  0  0  0
    4.7601    1.9413    1.3716 H   0  0  0  0  0  0  0  0  0  0  0  0
    3.7334    2.1924    3.5836 H   0  0  0  0  0  0  0  0  0  0  0  0
    1.6737    0.9412    4.1524 H   0  0  0  0  0  0  0  0  0  0  0  0
    0.6355   -0.5500    2.5446 H   0  0  0  0  0  0  0  0  0  0  0  0
    0.2055   -2.1327    1.2654 H   0  0  0  0  0  0  0  0  0  0  0  0
    0.2357   -2.7051   -0.3747 H   0  0  0  0  0  0  0  0  0  0  0  0
   -0.7929   -0.5044   -1.1394 H   0  0  0  0  0  0  0  0  0  0  0  0
   -2.4046   -2.3610    0.7511 H   0  0  0  0  0  0  0  0  0  0  0  0
   -4.3767   -1.7084   -0.3579 H   0  0  0  0  0  0  0  0  0  0  0  0
   -3.2294   -2.2420   -1.5718 H   0  0  0  0  0  0  0  0  0  0  0  0
   -2.6978    0.2146   -2.0568 H   0  0  0  0  0  0  0  0  0  0  0  0
   -4.2782   -0.3701   -2.5095 H   0  0  0  0  0  0  0  0  0  0  0  0
   -5.3952    0.7382   -0.7445 H   0  0  0  0  0  0  0  0  0  0  0  0
   -4.2817    1.8839   -1.4605 H   0  0  0  0  0  0  0  0  0  0  0  0
   -4.0641    2.2878    0.8075 H   0  0  0  0  0  0  0  0  0  0  0  0
   -4.2135    0.6018    1.2715 H   0  0  0  0  0  0  0  0  0  0  0  0
   -1.8846    1.7960    1.4291 H   0  0  0  0  0  0  0  0  0  0  0  0
   -1.7750    1.5847   -0.3041 H   0  0  0  0  0  0  0  0  0  0  0  0
   -1.5752   -0.3710    1.9229 H   0  0  0  0  0  0  0  0  0  0  0  0
  1  2  2  0
  2  3  1  0
  3  4  2  0
  4  5  1  0
  5  6  2  0
  6  7  1  0
  7  8  1  0
  8  9  2  0
  9 10  1  0
 10 11  2  0
 11 12  1  0
 12 13  2  0
 13 14  1  0
 14 15  1  0
 15 16  1  0
 16 17  1  0
 17 18  1  0
 18 19  1  0
 19 20  1  0
 20 21  1  0
 21 22  1  0
 22 23  1  0
 14  2  1  0
 23 16  1  0
  7  3  1  0
 13  8  1  0
 23 17  1  0
  4 24  1  0
  6 25  1  0
  9 26  1  0
 10 27  1  0
 11 28  1  0
 12 29  1  0
 15 30  1  0
 15 31  1  0
 16 32  1  0
 17 33  1  0
 18 34  1  0
 18 35  1  0
 19 36  1  0
 19 37  1  0
 20 38  1  0
 20 39  1  0
 21 40  1  0
 21 41  1  0
 22 42  1  0
 22 43  1  0
 23 44  1  0
M  END
$$$$
OCNT-2308520
     RDKit          3D

 42 45  0  0  0  0  0  0  0  0999 V2000
   -0.6341    2.2959   -0.6110 O   0  0  0  0  0  0  0  0  0  0  0  0
   -1.0164    1.4711    0.2071 C   0  0  0  0  0  0  0  0  0  0  0  0
   -0.4421    1.2615    1.4308 N   0  0  0  0  0  0  0  0  0  0  0  0
    0.7571    1.9681    1.8244 C   0  0  0  0  0  0  0  0  0  0  0  0
    1.9947    1.1837    1.4960 C   0  0  0  0  0  0  0  0  0  0  0  0
    2.5095    1.1411    0.1986 C   0  0  0  0  0  0  0  0  0  0  0  0
    3.6511    0.3883   -0.0782 C   0  0  0  0  0  0  0  0  0  0  0  0
    4.2533   -0.3141    0.9610 C   0  0  0  0  0  0  0  0  0  0  0  0
    5.4171   -1.0955    0.7234 N   0  0  0  0  0  0  0  0  0  0  0  0
    6.1076   -1.2920   -0.4530 C   0  0  0  0  0  0  0  0  0  0  0  0
    7.1515   -2.1316   -0.1392 C   0  0  0  0  0  0  0  0  0  0  0  0
    7.1317   -2.4612    1.1863 N   0  0  0  0  0  0  0  0  0  0  0  0
    6.0876   -1.8289    1.6776 C   0  0  0  0  0  0  0  0  0  0  0  0
    3.7686   -0.2921    2.2304 N   0  0  0  0  0  0  0  0  0  0  0  0
    2.6618    0.4486    2.4662 C   0  0  0  0  0  0  0  0  0  0  0  0
   -2.0840    0.6393    0.0078 N   0  0  0  0  0  0  0  0  0  0  0  0
   -2.8817    0.7779   -1.1966 C   0  0  0  0  0  0  0  0  0  0  0  0
   -3.8212    2.0010   -1.1747 C   0  0  0  0  0  0  0  0  0  0  0  0
   -5.1213    1.5840   -0.6770 O   0  0  0  0  0  0  0  0  0  0  0  0
   -5.1473    0.2386   -0.9403 C   0  0  0  0  0  0  0  0  0  0  0  0
   -6.2801   -0.5446   -0.8652 C   0  0  0  0  0  0  0  0  0  0  0  0
   -6.1518   -1.9063   -1.1479 C   0  0  0  0  0  0  0  0  0  0  0  0
   -4.9013   -2.4512   -1.4858 C   0  0  0  0  0  0  0  0  0  0  0  0
   -3.7635   -1.6418   -1.5422 C   0  0  0  0  0  0  0  0  0  0  0  0
   -3.9078   -0.2919   -1.2682 C   0  0  0  0  0  0  0  0  0  0  0  0
   -0.5779    0.3393    1.8178 H   0  0  0  0  0  0  0  0  0  0  0  0
    0.6877    2.1361    2.9049 H   0  0  0  0  0  0  0  0  0  0  0  0
    0.7963    2.9538    1.3464 H   0  0  0  0  0  0  0  0  0  0  0  0
    2.0206    1.6926   -0.6035 H   0  0  0  0  0  0  0  0  0  0  0  0
    4.0284    0.3742   -1.0937 H   0  0  0  0  0  0  0  0  0  0  0  0
    5.8237   -0.8419   -1.3913 H   0  0  0  0  0  0  0  0  0  0  0  0
    7.9167   -2.5152   -0.8022 H   0  0  0  0  0  0  0  0  0  0  0  0
    5.7629   -1.8593    2.7098 H   0  0  0  0  0  0  0  0  0  0  0  0
    2.3182    0.4280    3.4976 H   0  0  0  0  0  0  0  0  0  0  0  0
   -2.5871    0.3698    0.8413 H   0  0  0  0  0  0  0  0  0  0  0  0
   -2.2241    0.8085   -2.0718 H   0  0  0  0  0  0  0  0  0  0  0  0
   -3.4507    2.8196   -0.5491 H   0  0  0  0  0  0  0  0  0  0  0  0
   -3.9759    2.3900   -2.1897 H   0  0  0  0  0  0  0  0  0  0  0  0
   -7.2388   -0.1134   -0.5997 H   0  0  0  0  0  0  0  0  0  0  0  0
   -7.0263   -2.5512   -1.1039 H   0  0  0  0  0  0  0  0  0  0  0  0
   -4.8191   -3.5148   -1.6988 H   0  0  0  0  0  0  0  0  0  0  0  0
   -2.7936   -2.0640   -1.7862 H   0  0  0  0  0  0  0  0  0  0  0  0
  1  2  2  0
  2  3  1  0
  3  4  1  0
  4  5  1  0
  5  6  2  0
  6  7  1  0
  7  8  2  0
  8  9  1  0
  9 10  1  0
 10 11  2  0
 11 12  1  0
 12 13  2  0
  8 14  1  0
 14 15  2  0
  2 16  1  0
 16 17  1  0
 17 18  1  0
 18 19  1  0
 19 20  1  0
 20 21  2  0
 21 22  1  0
 22 23  2  0
 23 24  1  0
 24 25  2  0
 15  5  1  0
 25 17  1  0
 13  9  1  0
 25 20  1  0
  3 26  1  0
  4 27  1  0
  4 28  1  0
  6 29  1  0
  7 30  1  0
 10 31  1  0
 11 32  1  0
 13 33  1  0
 15 34  1  0
 16 35  1  0
 17 36  1  0
 18 37  1  0
 18 38  1  0
 21 39  1  0
 22 40  1  0
 23 41  1  0
 24 42  1  0
M  END
$$$$
OCNT-2308523
     RDKit          3D

 48 50  0  0  0  0  0  0  0  0999 V2000
   -4.9006   -0.5875   -2.1145 C   0  0  0  0  0  0  0  0  0  0  0  0
   -5.3490   -1.1224   -0.7590 C   0  0  0  0  0  0  0  0  0  0  0  0
   -4.3483   -0.9108    0.2964 N   0  0  0  0  0  0  0  0  0  0  0  0
   -4.7266   -1.6592    1.5154 C   0  0  0  0  0  0  0  0  0  0  0  0
   -3.7266   -1.4252    2.6561 C   0  0  0  0  0  0  0  0  0  0  0  0
   -3.6084   -0.0315    2.9705 O   0  0  0  0  0  0  0  0  0  0  0  0
   -3.2011    0.7329    1.8316 C   0  0  0  0  0  0  0  0  0  0  0  0
   -1.7104    0.5920    1.4025 C   0  0  0  0  0  0  0  0  0  0  0  0
   -0.9564   -0.2292    1.9184 O   0  0  0  0  0  0  0  0  0  0  0  0
   -1.3245    1.5345    0.4537 N   0  0  0  0  0  0  0  0  0  0  0  0
   -0.0734    1.6325   -0.1917 C   0  0  0  0  0  0  0  0  0  0  0  0
    0.1474    2.7702   -0.9821 C   0  0  0  0  0  0  0  0  0  0  0  0
    1.3550    2.9497   -1.6623 C   0  0  0  0  0  0  0  0  0  0  0  0
    2.3582    1.9898   -1.5609 C   0  0  0  0  0  0  0  0  0  0  0  0
    2.1456    0.8503   -0.7767 C   0  0  0  0  0  0  0  0  0  0  0  0
    3.1909   -0.2008   -0.6716 C   0  0  0  0  0  0  0  0  0  0  0  0
    2.8570   -1.3717   -0.7910 O   0  0  0  0  0  0  0  0  0  0  0  0
    4.4623    0.2869   -0.4265 N   0  0  0  0  0  0  0  0  0  0  0  0
    5.6535   -0.4618   -0.3119 C   0  0  0  0  0  0  0  0  0  0  0  0
    5.7279   -1.8374   -0.5041 C   0  0  0  0  0  0  0  0  0  0  0  0
    6.9606   -2.4573   -0.3699 C   0  0  0  0  0  0  0  0  0  0  0  0
    8.1040   -1.8074   -0.0652 N   0  0  0  0  0  0  0  0  0  0  0  0
    8.0069   -0.4759    0.1170 C   0  0  0  0  0  0  0  0  0  0  0  0
    6.8213    0.2333    0.0051 C   0  0  0  0  0  0  0  0  0  0  0  0
    0.9294    0.6651   -0.1049 C   0  0  0  0  0  0  0  0  0  0  0  0
   -4.1805    0.5136    0.6511 C   0  0  0  0  0  0  0  0  0  0  0  0
   -4.8514    0.5052   -2.1271 H   0  0  0  0  0  0  0  0  0  0  0  0
   -5.6128   -0.8919   -2.8887 H   0  0  0  0  0  0  0  0  0  0  0  0
   -3.9174   -0.9834   -2.3901 H   0  0  0  0  0  0  0  0  0  0  0  0
   -6.3147   -0.6783   -0.4869 H   0  0  0  0  0  0  0  0  0  0  0  0
   -5.5162   -2.2001   -0.8812 H   0  0  0  0  0  0  0  0  0  0  0  0
   -4.7656   -2.7331    1.2994 H   0  0  0  0  0  0  0  0  0  0  0  0
   -5.7244   -1.3445    1.8490 H   0  0  0  0  0  0  0  0  0  0  0  0
   -2.7459   -1.8470    2.4146 H   0  0  0  0  0  0  0  0  0  0  0  0
   -4.0805   -1.9320    3.5599 H   0  0  0  0  0  0  0  0  0  0  0  0
   -3.3021    1.7794    2.1491 H   0  0  0  0  0  0  0  0  0  0  0  0
   -1.9835    2.2734    0.2487 H   0  0  0  0  0  0  0  0  0  0  0  0
   -0.6186    3.5357   -1.0805 H   0  0  0  0  0  0  0  0  0  0  0  0
    1.5053    3.8329   -2.2787 H   0  0  0  0  0  0  0  0  0  0  0  0
    3.2817    2.1188   -2.1195 H   0  0  0  0  0  0  0  0  0  0  0  0
    4.5421    1.2798   -0.2481 H   0  0  0  0  0  0  0  0  0  0  0  0
    4.8661   -2.4433   -0.7541 H   0  0  0  0  0  0  0  0  0  0  0  0
    7.0597   -3.5301   -0.5102 H   0  0  0  0  0  0  0  0  0  0  0  0
    8.9382    0.0256    0.3641 H   0  0  0  0  0  0  0  0  0  0  0  0
    6.8258    1.3045    0.1675 H   0  0  0  0  0  0  0  0  0  0  0  0
    0.7931   -0.2488    0.4672 H   0  0  0  0  0  0  0  0  0  0  0  0
   -3.8362    1.0780   -0.2204 H   0  0  0  0  0  0  0  0  0  0  0  0
   -5.1567    0.9266    0.9404 H   0  0  0  0  0  0  0  0  0  0  0  0
  1  2  1  0
  2  3  1  0
  3  4  1  0
  4  5  1  0
  5  6  1  0
  6  7  1  0
  7  8  1  0
  8  9  2  0
  8 10  1  0
 10 11  1  0
 11 12  2  0
 12 13  1  0
 13 14  2  0
 14 15  1  0
 15 16  1  0
 16 17  2  0
 16 18  1  0
 18 19  1  0
 19 20  2  0
 20 21  1  0
 21 22  2  0
 22 23  1  0
 23 24  2  0
 15 25  2  0
  7 26  1  0
 26  3  1  0
 25 11  1  0
 24 19  1  0
  1 27  1  0
  1 28  1  0
  1 29  1  0
  2 30  1  0
  2 31  1  0
  4 32  1  0
  4 33  1  0
  5 34  1  0
  5 35  1  0
  7 36  1  0
 10 37  1  0
 12 38  1  0
 13 39  1  0
 14 40  1  0
 18 41  1  0
 20 42  1  0
 21 43  1  0
 23 44  1  0
 24 45  1  0
 25 46  1  0
 26 47  1  0
 26 48  1  0
M  END
$$$$
OCNT-2308526
     RDKit          3D

 60 62  0  0  0  0  0  0  0  0999 V2000
    6.1861    0.9421   -0.4353 C   0  0  0  0  0  0  0  0  0  0  0  0
    5.1040    1.9542   -0.0412 C   0  0  0  0  0  0  0  0  0  0  0  0
    5.1120    3.1126   -1.0504 C   0  0  0  0  0  0  0  0  0  0  0  0
    3.6876    1.3293    0.1587 C   0  0  0  0  0  0  0  0  0  0  0  0
    2.8539    2.3474    0.7415 O   0  0  0  0  0  0  0  0  0  0  0  0
    3.0277    0.8571   -1.1581 C   0  0  0  0  0  0  0  0  0  0  0  0
    1.9816   -0.2537   -0.9723 C   0  0  0  0  0  0  0  0  0  0  0  0
    1.2786   -0.1769    0.3858 C   0  0  0  0  0  0  0  0  0  0  0  0
    0.2293   -1.2014    0.4273 N   0  0  0  0  0  0  0  0  0  0  0  0
   -0.6997   -1.0088    1.5473 C   0  0  0  0  0  0  0  0  0  0  0  0
   -1.7690   -2.0850    1.5712 C   0  0  0  0  0  0  0  0  0  0  0  0
   -1.4291   -3.3205    2.1664 C   0  0  0  0  0  0  0  0  0  0  0  0
   -2.3660   -4.3410    2.2924 C   0  0  0  0  0  0  0  0  0  0  0  0
   -3.6571   -4.1409    1.8282 C   0  0  0  0  0  0  0  0  0  0  0  0
   -4.0045   -2.9268    1.2278 C   0  0  0  0  0  0  0  0  0  0  0  0
   -3.0777   -1.8794    1.0681 C   0  0  0  0  0  0  0  0  0  0  0  0
   -3.4352   -0.6845    0.4339 N   0  0  0  0  0  0  0  0  0  0  0  0
   -2.7249   -0.4137   -0.8415 C   0  0  0  0  0  0  0  0  0  0  0  0
   -3.6955    0.0263   -1.9644 C   0  0  0  0  0  0  0  0  0  0  0  0
   -4.5957    1.1554   -1.6359 N   0  0  0  0  0  0  0  0  0  0  0  0
   -4.0242    2.4358   -2.0443 C   0  0  0  0  0  0  0  0  0  0  0  0
   -4.9251    1.1743   -0.1900 C   0  0  0  0  0  0  0  0  0  0  0  0
   -4.8299   -0.2134    0.4831 C   0  0  0  0  0  0  0  0  0  0  0  0
    2.2984   -0.3352    1.5290 C   0  0  0  0  0  0  0  0  0  0  0  0
    3.7038    0.1770    1.1779 C   0  0  0  0  0  0  0  0  0  0  0  0
    7.1535    1.4423   -0.5562 H   0  0  0  0  0  0  0  0  0  0  0  0
    5.9552    0.4405   -1.3793 H   0  0  0  0  0  0  0  0  0  0  0  0
    6.3213    0.1788    0.3365 H   0  0  0  0  0  0  0  0  0  0  0  0
    5.4063    2.3915    0.9209 H   0  0  0  0  0  0  0  0  0  0  0  0
    6.1130    3.5536   -1.1201 H   0  0  0  0  0  0  0  0  0  0  0  0
    4.4307    3.9141   -0.7488 H   0  0  0  0  0  0  0  0  0  0  0  0
    4.8286    2.7787   -2.0535 H   0  0  0  0  0  0  0  0  0  0  0  0
    2.6821    3.0310    0.0729 H   0  0  0  0  0  0  0  0  0  0  0  0
    2.5363    1.7071   -1.6487 H   0  0  0  0  0  0  0  0  0  0  0  0
    3.7748    0.4808   -1.8648 H   0  0  0  0  0  0  0  0  0  0  0  0
    1.2540   -0.1934   -1.7918 H   0  0  0  0  0  0  0  0  0  0  0  0
    2.4786   -1.2283   -1.0747 H   0  0  0  0  0  0  0  0  0  0  0  0
    0.8025    0.8100    0.4528 H   0  0  0  0  0  0  0  0  0  0  0  0
    0.6416   -2.1296    0.4954 H   0  0  0  0  0  0  0  0  0  0  0  0
   -1.1602   -0.0154    1.5077 H   0  0  0  0  0  0  0  0  0  0  0  0
   -0.1636   -1.0452    2.5045 H   0  0  0  0  0  0  0  0  0  0  0  0
   -0.4236   -3.4790    2.5499 H   0  0  0  0  0  0  0  0  0  0  0  0
   -2.0905   -5.2833    2.7571 H   0  0  0  0  0  0  0  0  0  0  0  0
   -4.3991   -4.9289    1.9222 H   0  0  0  0  0  0  0  0  0  0  0  0
   -5.0199   -2.8289    0.8574 H   0  0  0  0  0  0  0  0  0  0  0  0
   -2.1797   -1.2969   -1.1974 H   0  0  0  0  0  0  0  0  0  0  0  0
   -1.9973    0.3885   -0.6738 H   0  0  0  0  0  0  0  0  0  0  0  0
   -4.3374   -0.8307   -2.2087 H   0  0  0  0  0  0  0  0  0  0  0  0
   -3.1286    0.2310   -2.8814 H   0  0  0  0  0  0  0  0  0  0  0  0
   -3.8741    2.4598   -3.1293 H   0  0  0  0  0  0  0  0  0  0  0  0
   -4.7099    3.2564   -1.8048 H   0  0  0  0  0  0  0  0  0  0  0  0
   -3.0619    2.6359   -1.5595 H   0  0  0  0  0  0  0  0  0  0  0  0
   -5.9421    1.5649   -0.0727 H   0  0  0  0  0  0  0  0  0  0  0  0
   -4.2520    1.8534    0.3511 H   0  0  0  0  0  0  0  0  0  0  0  0
   -5.1533   -0.1248    1.5270 H   0  0  0  0  0  0  0  0  0  0  0  0
   -5.5097   -0.9053   -0.0288 H   0  0  0  0  0  0  0  0  0  0  0  0
    1.9256    0.2002    2.4116 H   0  0  0  0  0  0  0  0  0  0  0  0
    2.3915   -1.3860    1.8337 H   0  0  0  0  0  0  0  0  0  0  0  0
    4.1938    0.4915    2.1078 H   0  0  0  0  0  0  0  0  0  0  0  0
    4.2842   -0.6647    0.7810 H   0  0  0  0  0  0  0  0  0  0  0  0
  1  2  1  0
  2  3  1  0
  2  4  1  0
  4  5  1  0
  4  6  1  0
  6  7  1  0
  7  8  1  0
  8  9  1  0
  9 10  1  0
 10 11  1  0
 11 12  2  0
 12 13  1  0
 13 14  2  0
 14 15  1  0
 15 16  2  0
 16 17  1  0
 17 18  1  0
 18 19  1  0
 19 20  1  0
 20 21  1  0
 20 22  1  0
 22 23  1  0
  8 24  1  0
 24 25  1  0
 25  4  1  0
 16 11  1  0
 23 17  1  0
  1 26  1  0
  1 27  1  0
  1 28  1  0
  2 29  1  0
  3 30  1  0
  3 31  1  0
  3 32  1  0
  5 33  1  0
  6 34  1  0
  6 35  1  0
  7 36  1  0
  7 37  1  0
  8 38  1  0
  9 39  1  0
 10 40  1  0
 10 41  1  0
 12 42  1  0
 13 43  1  0
 14 44  1  0
 15 45  1  0
 18 46  1  0
 18 47  1  0
 19 48  1  0
 19 49  1  0
 21 50  1  0
 21 51  1  0
 21 52  1  0
 22 53  1  0
 22 54  1  0
 23 55  1  0
 23 56  1  0
 24 57  1  0
 24 58  1  0
 25 59  1  0
 25 60  1  0
M  END
$$$$
OCNT-2308537
     RDKit          3D

 51 55  0  0  0  0  0  0  0  0999 V2000
    5.2268    2.6893    0.8977 C   0  0  0  0  0  0  0  0  0  0  0  0
    6.0850    1.5703    0.9576 C   0  0  0  0  0  0  0  0  0  0  0  0
    5.6366    0.2810    0.6334 C   0  0  0  0  0  0  0  0  0  0  0  0
    4.2951    0.1959    0.2625 C   0  0  0  0  0  0  0  0  0  0  0  0
    3.6114   -0.9273   -0.0957 O   0  0  0  0  0  0  0  0  0  0  0  0
    2.3359   -0.4736   -0.3489 C   0  0  0  0  0  0  0  0  0  0  0  0
    1.3043   -1.4942   -0.7951 C   0  0  0  0  0  0  0  0  0  0  0  0
    1.7961   -2.9550   -0.7583 C   0  0  0  0  0  0  0  0  0  0  0  0
    1.7931   -3.5881    0.6392 C   0  0  0  0  0  0  0  0  0  0  0  0
    1.2713   -2.6377    1.7120 C   0  0  0  0  0  0  0  0  0  0  0  0
   -0.0260   -1.9619    1.2569 C   0  0  0  0  0  0  0  0  0  0  0  0
    0.0276   -1.3120   -0.0671 N   0  0  0  0  0  0  0  0  0  0  0  0
   -1.1364   -1.6552   -0.9019 C   0  0  0  0  0  0  0  0  0  0  0  0
   -2.4265   -1.1622   -0.3353 C   0  0  0  0  0  0  0  0  0  0  0  0
   -3.4156   -1.9135    0.1068 N   0  0  0  0  0  0  0  0  0  0  0  0
   -4.4285   -1.0877    0.5245 N   0  0  0  0  0  0  0  0  0  0  0  0
   -4.0453    0.1554    0.3346 C   0  0  0  0  0  0  0  0  0  0  0  0
   -4.8306    1.3796    0.6334 C   0  0  0  0  0  0  0  0  0  0  0  0
   -5.0936    2.2237   -0.6122 C   0  0  0  0  0  0  0  0  0  0  0  0
   -3.8777    3.0268   -1.0830 C   0  0  0  0  0  0  0  0  0  0  0  0
   -2.7146    2.1899   -1.6239 C   0  0  0  0  0  0  0  0  0  0  0  0
   -2.0224    1.3288   -0.5662 C   0  0  0  0  0  0  0  0  0  0  0  0
   -2.7857    0.1551   -0.2082 N   0  0  0  0  0  0  0  0  0  0  0  0
    2.1848    0.8348   -0.2149 N   0  0  0  0  0  0  0  0  0  0  0  0
    3.4193    1.2701    0.1900 C   0  0  0  0  0  0  0  0  0  0  0  0
    3.8905    2.5501    0.5081 C   0  0  0  0  0  0  0  0  0  0  0  0
    5.6064    3.6798    1.1568 H   0  0  0  0  0  0  0  0  0  0  0  0
    7.1135    1.7125    1.2654 H   0  0  0  0  0  0  0  0  0  0  0  0
    6.2793   -0.5893    0.6767 H   0  0  0  0  0  0  0  0  0  0  0  0
    1.1535   -1.2386   -1.8563 H   0  0  0  0  0  0  0  0  0  0  0  0
    1.1461   -3.5639   -1.4065 H   0  0  0  0  0  0  0  0  0  0  0  0
    2.7970   -3.0393   -1.2025 H   0  0  0  0  0  0  0  0  0  0  0  0
    2.7981   -3.9419    0.9031 H   0  0  0  0  0  0  0  0  0  0  0  0
    1.1541   -4.4832    0.6110 H   0  0  0  0  0  0  0  0  0  0  0  0
    1.0928   -3.1912    2.6441 H   0  0  0  0  0  0  0  0  0  0  0  0
    2.0289   -1.8838    1.9566 H   0  0  0  0  0  0  0  0  0  0  0  0
   -0.2935   -1.1998    2.0003 H   0  0  0  0  0  0  0  0  0  0  0  0
   -0.8207   -2.7214    1.2993 H   0  0  0  0  0  0  0  0  0  0  0  0
   -1.1968   -2.7383   -1.0636 H   0  0  0  0  0  0  0  0  0  0  0  0
   -1.0369   -1.2010   -1.8961 H   0  0  0  0  0  0  0  0  0  0  0  0
   -4.3244    1.9704    1.4051 H   0  0  0  0  0  0  0  0  0  0  0  0
   -5.7984    1.0761    1.0551 H   0  0  0  0  0  0  0  0  0  0  0  0
   -5.8915    2.9381   -0.3741 H   0  0  0  0  0  0  0  0  0  0  0  0
   -5.4683    1.5991   -1.4310 H   0  0  0  0  0  0  0  0  0  0  0  0
   -3.5203    3.6664   -0.2682 H   0  0  0  0  0  0  0  0  0  0  0  0
   -4.2097    3.7017   -1.8820 H   0  0  0  0  0  0  0  0  0  0  0  0
   -1.9696    2.8838   -2.0336 H   0  0  0  0  0  0  0  0  0  0  0  0
   -3.0605    1.5697   -2.4593 H   0  0  0  0  0  0  0  0  0  0  0  0
   -1.8327    1.8918    0.3558 H   0  0  0  0  0  0  0  0  0  0  0  0
   -1.0504    1.0103   -0.9585 H   0  0  0  0  0  0  0  0  0  0  0  0
    3.2289    3.4099    0.4565 H   0  0  0  0  0  0  0  0  0  0  0  0
  1  2  2  0
  2  3  1  0
  3  4  2  0
  4  5  1  0
  5  6  1  0
  6  7  1  0
  7  8  1  0
  8  9  1  0
  9 10  1  0
 10 11  1  0
 11 12  1  0
 12 13  1  0
 13 14  1  0
 14 15  2  0
 15 16  1  0
 16 17  2  0
 17 18  1  0
 18 19  1  0
 19 20  1  0
 20 21  1  0
 21 22  1  0
 22 23  1  0
  6 24  2  0
 24 25  1  0
 25 26  2  0
 26  1  1  0
 25  4  1  0
 12  7  1  0
 23 14  1  0
 23 17  1  0
  1 27  1  0
  2 28  1  0
  3 29  1  0
  7 30  1  0
  8 31  1  0
  8 32  1  0
  9 33  1  0
  9 34  1  0
 10 35  1  0
 10 36  1  0
 11 37  1  0
 11 38  1  0
 13 39  1  0
 13 40  1  0
 18 41  1  0
 18 42  1  0
 19 43  1  0
 19 44  1  0
 20 45  1  0
 20 46  1  0
 21 47  1  0
 21 48  1  0
 22 49  1  0
 22 50  1  0
 26 51  1  0
M  END
$$$$
OCNT-2308543
     RDKit          3D

 46 48  0  0  0  0  0  0  0  0999 V2000
    1.2253    1.4532   -2.5721 C   0  0  0  0  0  0  0  0  0  0  0  0
    1.8394    0.5274   -1.6052 C   0  0  0  0  0  0  0  0  0  0  0  0
    1.3627   -0.3785   -0.6801 C   0  0  0  0  0  0  0  0  0  0  0  0
   -0.0327   -0.7812   -0.3596 C   0  0  0  0  0  0  0  0  0  0  0  0
   -0.9054    0.3579    0.1584 C   0  0  0  0  0  0  0  0  0  0  0  0
   -0.5664    1.5395    0.0796 O   0  0  0  0  0  0  0  0  0  0  0  0
   -2.1444   -0.0038    0.6816 N   0  0  0  0  0  0  0  0  0  0  0  0
   -2.5992   -1.3857    0.8538 C   0  0  0  0  0  0  0  0  0  0  0  0
   -4.0438   -1.4798    1.3772 C   0  0  0  0  0  0  0  0  0  0  0  0
   -4.9608   -0.5805    0.6623 N   0  0  0  0  0  0  0  0  0  0  0  0
   -4.5071    0.8380    0.7297 C   0  0  0  0  0  0  0  0  0  0  0  0
   -4.6536    1.4513   -0.6764 C   0  0  0  0  0  0  0  0  0  0  0  0
   -5.4538    1.5742    1.6906 C   0  0  0  0  0  0  0  0  0  0  0  0
   -3.0360    1.0270    1.2195 C   0  0  0  0  0  0  0  0  0  0  0  0
    2.4298   -0.9877   -0.0493 N   0  0  0  0  0  0  0  0  0  0  0  0
    3.4950   -0.4166   -0.5811 C   0  0  0  0  0  0  0  0  0  0  0  0
    4.9081   -0.6501   -0.2943 C   0  0  0  0  0  0  0  0  0  0  0  0
    5.9272    0.0514   -0.9566 C   0  0  0  0  0  0  0  0  0  0  0  0
    7.2716   -0.1925   -0.6609 C   0  0  0  0  0  0  0  0  0  0  0  0
    7.6142   -1.1415    0.3000 C   0  0  0  0  0  0  0  0  0  0  0  0
    6.6150   -1.8469    0.9665 C   0  0  0  0  0  0  0  0  0  0  0  0
    5.2715   -1.6018    0.6710 C   0  0  0  0  0  0  0  0  0  0  0  0
    3.2040    0.5139   -1.5440 O   0  0  0  0  0  0  0  0  0  0  0  0
    1.2294    2.4742   -2.1787 H   0  0  0  0  0  0  0  0  0  0  0  0
    1.7758    1.4466   -3.5176 H   0  0  0  0  0  0  0  0  0  0  0  0
    0.1899    1.1708   -2.7865 H   0  0  0  0  0  0  0  0  0  0  0  0
   -0.5034   -1.1881   -1.2618 H   0  0  0  0  0  0  0  0  0  0  0  0
    0.0057   -1.5747    0.3941 H   0  0  0  0  0  0  0  0  0  0  0  0
   -1.9213   -1.8876    1.5522 H   0  0  0  0  0  0  0  0  0  0  0  0
   -2.5196   -1.8877   -0.1168 H   0  0  0  0  0  0  0  0  0  0  0  0
   -4.4005   -2.5114    1.2774 H   0  0  0  0  0  0  0  0  0  0  0  0
   -4.0742   -1.2462    2.4484 H   0  0  0  0  0  0  0  0  0  0  0  0
   -4.9896   -0.8717   -0.3156 H   0  0  0  0  0  0  0  0  0  0  0  0
   -4.3960    2.5169   -0.6713 H   0  0  0  0  0  0  0  0  0  0  0  0
   -3.9965    0.9546   -1.4001 H   0  0  0  0  0  0  0  0  0  0  0  0
   -5.6823    1.3660   -1.0458 H   0  0  0  0  0  0  0  0  0  0  0  0
   -5.4045    1.1523    2.7009 H   0  0  0  0  0  0  0  0  0  0  0  0
   -6.4957    1.5119    1.3549 H   0  0  0  0  0  0  0  0  0  0  0  0
   -5.1933    2.6366    1.7621 H   0  0  0  0  0  0  0  0  0  0  0  0
   -2.9779    0.9361    2.3120 H   0  0  0  0  0  0  0  0  0  0  0  0
   -2.6766    2.0314    0.9707 H   0  0  0  0  0  0  0  0  0  0  0  0
    5.6823    0.7980   -1.7093 H   0  0  0  0  0  0  0  0  0  0  0  0
    8.0497    0.3601   -1.1812 H   0  0  0  0  0  0  0  0  0  0  0  0
    8.6596   -1.3303    0.5301 H   0  0  0  0  0  0  0  0  0  0  0  0
    6.8784   -2.5869    1.7177 H   0  0  0  0  0  0  0  0  0  0  0  0
    4.5002   -2.1586    1.2008 H   0  0  0  0  0  0  0  0  0  0  0  0
  1  2  1  0
  2  3  2  0
  3  4  1  0
  4  5  1  0
  5  6  2  0
  5  7  1  0
  7  8  1  0
  8  9  1  0
  9 10  1  0
 10 11  1  0
 11 12  1  0
 11 13  1  0
 11 14  1  0
  3 15  1  0
 15 16  2  0
 16 17  1  0
 17 18  2  0
 18 19  1  0
 19 20  2  0
 20 21  1  0
 21 22  2  0
 16 23  1  0
 23  2  1  0
 14  7  1  0
 22 17  1  0
  1 24  1  0
  1 25  1  0
  1 26  1  0
  4 27  1  0
  4 28  1  0
  8 29  1  0
  8 30  1  0
  9 31  1  0
  9 32  1  0
 10 33  1  0
 12 34  1  0
 12 35  1  0
 12 36  1  0
 13 37  1  0
 13 38  1  0
 13 39  1  0
 14 40  1  0
 14 41  1  0
 18 42  1  0
 19 43  1  0
 20 44  1  0
 21 45  1  0
 22 46  1  0
M  END
$$$$
OCNT-2308546
     RDKit          3D

  0  0  0  0  0  0  0  0  0  0999 V3000
M  V30 BEGIN CTAB
M  V30 COUNTS 37 40 0 0 0
M  V30 BEGIN ATOM
M  V30 1 C -4.867533 -1.436969 1.292485 0
M  V30 2 N -4.374810 -0.670471 0.177600 0
M  V30 3 C -5.067188 -0.381216 -0.963321 0
M  V30 4 N -4.340056 0.322832 -1.803002 0
M  V30 5 C -3.132017 0.498387 -1.177703 0
M  V30 6 C -3.135573 -0.106608 0.057020 0
M  V30 7 C -1.969630 -0.165246 1.069955 0 CFG=2
M  V30 8 C -2.133201 0.489562 2.411758 0
M  V30 9 C -1.207123 1.103359 1.389892 0 CFG=1
M  V30 10 C 0.266946 1.044995 1.585766 0
M  V30 11 O 0.736425 1.338974 2.674892 0
M  V30 12 N 0.932507 0.659556 0.445036 0
M  V30 13 C 2.302837 0.513101 0.318100 0
M  V30 14 C 3.259326 0.723987 1.282944 0
M  V30 15 N 4.486621 0.465087 0.734490 0
M  V30 16 C 4.349664 0.083530 -0.580109 0
M  V30 17 C 5.322642 -0.273588 -1.521285 0
M  V30 18 C 4.887299 -0.620947 -2.803091 0
M  V30 19 C 3.533270 -0.610942 -3.128036 0
M  V30 20 C 2.572765 -0.251193 -2.174888 0
M  V30 21 C 2.984331 0.104562 -0.872210 0
M  V30 22 H -5.793057 -1.943465 1.006680 0
M  V30 23 H -5.057840 -0.753307 2.123402 0
M  V30 24 H -4.115751 -2.180011 1.570442 0
M  V30 25 H -6.086118 -0.704180 -1.134029 0
M  V30 26 H -2.333712 1.050807 -1.654747 0
M  V30 27 H -1.411570 -1.097955 1.052316 0
M  V30 28 H -3.048016 1.026498 2.634183 0
M  V30 29 H -1.686792 0.007639 3.275244 0
M  V30 30 H -1.546689 2.041126 0.961578 0
M  V30 31 H 0.387592 0.458962 -0.382055 0
M  V30 32 H 3.180135 1.038240 2.315352 0
M  V30 33 H 5.368021 0.542654 1.222493 0
M  V30 34 H 6.378666 -0.281947 -1.271671 0
M  V30 35 H 5.618461 -0.902673 -3.557595 0
M  V30 36 H 3.217310 -0.884424 -4.131914 0
M  V30 37 H 1.521859 -0.248718 -2.445969 0
M  V30 END ATOM
M  V30 BEGIN BOND
M  V30 1 1 1 2
M  V30 2 1 2 3
M  V30 3 2 3 4
M  V30 4 1 4 5
M  V30 5 2 5 6
M  V30 6 1 6 7
M  V30 7 1 7 8
M  V30 8 1 8 9
M  V30 9 1 9 10
M  V30 10 2 10 11
M  V30 11 1 10 12
M  V30 12 1 12 13
M  V30 13 2 13 14
M  V30 14 1 14 15
M  V30 15 1 15 16
M  V30 16 2 16 17
M  V30 17 1 17 18
M  V30 18 2 18 19
M  V30 19 1 19 20
M  V30 20 2 20 21
M  V30 21 1 6 2
M  V30 22 1 9 7
M  V30 23 1 21 13
M  V30 24 1 21 16
M  V30 25 1 1 22
M  V30 26 1 1 23
M  V30 27 1 1 24
M  V30 28 1 3 25
M  V30 29 1 5 26
M  V30 30 1 7 27 CFG=1
M  V30 31 1 8 28
M  V30 32 1 8 29
M  V30 33 1 9 30 CFG=3
M  V30 34 1 12 31
M  V30 35 1 14 32
M  V30 36 1 15 33
M  V30 37 1 17 34
M  V30 38 1 18 35
M  V30 39 1 19 36
M  V30 40 1 20 37
M  V30 END BOND
M  V30 BEGIN COLLECTION
M  V30 MDLV30/STERAC1 ATOMS=(2 7 9)
M  V30 END COLLECTION
M  V30 END CTAB
M  END
>  <_CXSMILES_Data>  (91) 
|&1:6,8|

$$$$
OCNT-2308571
     RDKit          3D

 37 39  0  0  0  0  0  0  0  0999 V2000
    1.9670    0.0467   -1.5245 O   0  0  0  0  0  0  0  0  0  0  0  0
    2.7524    0.1337   -0.5881 C   0  0  0  0  0  0  0  0  0  0  0  0
    2.3592    0.4234    0.7016 N   0  0  0  0  0  0  0  0  0  0  0  0
    0.9614    0.6606    1.0258 C   0  0  0  0  0  0  0  0  0  0  0  0
    0.1384   -0.6248    1.0652 C   0  0  0  0  0  0  0  0  0  0  0  0
   -1.2484   -0.3395    1.4884 C   0  0  0  0  0  0  0  0  0  0  0  0
   -1.7281   -0.1483    2.6979 N   0  0  0  0  0  0  0  0  0  0  0  0
   -3.0774    0.0950    2.5417 N   0  0  0  0  0  0  0  0  0  0  0  0
   -3.3266    0.0353    1.2476 C   0  0  0  0  0  0  0  0  0  0  0  0
   -4.5777    0.2137    0.5222 C   0  0  0  0  0  0  0  0  0  0  0  0
   -4.6430    0.1267   -0.8772 C   0  0  0  0  0  0  0  0  0  0  0  0
   -5.8567    0.3028   -1.5479 C   0  0  0  0  0  0  0  0  0  0  0  0
   -7.0199    0.5679   -0.8284 C   0  0  0  0  0  0  0  0  0  0  0  0
   -6.9724    0.6575    0.5607 C   0  0  0  0  0  0  0  0  0  0  0  0
   -5.7591    0.4817    1.2311 C   0  0  0  0  0  0  0  0  0  0  0  0
   -2.2003   -0.2374    0.5120 O   0  0  0  0  0  0  0  0  0  0  0  0
    4.2028   -0.1194   -0.8058 C   0  0  0  0  0  0  0  0  0  0  0  0
    4.5788   -0.9432   -1.8782 C   0  0  0  0  0  0  0  0  0  0  0  0
    5.9276   -1.2056   -2.1253 C   0  0  0  0  0  0  0  0  0  0  0  0
    6.8986   -0.6373   -1.3069 C   0  0  0  0  0  0  0  0  0  0  0  0
    8.1887   -0.9017   -1.5588 F   0  0  0  0  0  0  0  0  0  0  0  0
    6.5350    0.1956   -0.2496 C   0  0  0  0  0  0  0  0  0  0  0  0
    7.7367    0.9115    0.7548 Cl  0  0  0  0  0  0  0  0  0  0  0  0
    5.1875    0.4621    0.0039 C   0  0  0  0  0  0  0  0  0  0  0  0
    3.0075    0.3085    1.4693 H   0  0  0  0  0  0  0  0  0  0  0  0
    0.5485    1.3554    0.2842 H   0  0  0  0  0  0  0  0  0  0  0  0
    0.9447    1.1655    1.9984 H   0  0  0  0  0  0  0  0  0  0  0  0
    0.1394   -1.1158    0.0855 H   0  0  0  0  0  0  0  0  0  0  0  0
    0.5915   -1.3341    1.7682 H   0  0  0  0  0  0  0  0  0  0  0  0
   -3.7484   -0.0786   -1.4620 H   0  0  0  0  0  0  0  0  0  0  0  0
   -5.8923    0.2330   -2.6323 H   0  0  0  0  0  0  0  0  0  0  0  0
   -7.9637    0.7048   -1.3505 H   0  0  0  0  0  0  0  0  0  0  0  0
   -7.8786    0.8644    1.1247 H   0  0  0  0  0  0  0  0  0  0  0  0
   -5.7401    0.5552    2.3177 H   0  0  0  0  0  0  0  0  0  0  0  0
    3.8186   -1.3823   -2.5233 H   0  0  0  0  0  0  0  0  0  0  0  0
    6.2260   -1.8449   -2.9510 H   0  0  0  0  0  0  0  0  0  0  0  0
    4.9225    1.1412    0.8087 H   0  0  0  0  0  0  0  0  0  0  0  0
  1  2  2  0
  2  3  1  0
  3  4  1  0
  4  5  1  0
  5  6  1  0
  6  7  2  0
  7  8  1  0
  8  9  2  0
  9 10  1  0
 10 11  2  0
 11 12  1  0
 12 13  2  0
 13 14  1  0
 14 15  2  0
  9 16  1  0
  2 17  1  0
 17 18  1  0
 18 19  2  0
 19 20  1  0
 20 21  1  0
 20 22  2  0
 22 23  1  0
 22 24  1  0
 16  6  1  0
 24 17  2  0
 15 10  1  0
  3 25  1  0
  4 26  1  0
  4 27  1  0
  5 28  1  0
  5 29  1  0
 11 30  1  0
 12 31  1  0
 13 32  1  0
 14 33  1  0
 15 34  1  0
 18 35  1  0
 19 36  1  0
 24 37  1  0
M  END
$$$$
OCNT-2308588
     RDKit          3D

 47 49  0  0  0  0  0  0  0  0999 V2000
    5.8203   -1.2756   -0.0441 C   0  0  0  0  0  0  0  0  0  0  0  0
    4.8636   -0.2534    0.5870 C   0  0  0  0  0  0  0  0  0  0  0  0
    4.6498   -0.5980    2.0629 C   0  0  0  0  0  0  0  0  0  0  0  0
    3.6615   -0.1566   -0.2503 N   0  0  0  0  0  0  0  0  0  0  0  0
    3.1565    1.1941   -0.4877 C   0  0  0  0  0  0  0  0  0  0  0  0
    2.2573    1.7955    0.5943 C   0  0  0  0  0  0  0  0  0  0  0  0
    0.7870    1.4124    0.4335 C   0  0  0  0  0  0  0  0  0  0  0  0
    0.5254   -0.0176    0.4616 N   0  0  0  0  0  0  0  0  0  0  0  0
   -0.5961   -0.4829   -0.1985 C   0  0  0  0  0  0  0  0  0  0  0  0
   -0.7285   -1.8057   -0.4075 N   0  0  0  0  0  0  0  0  0  0  0  0
   -1.8253   -2.2415   -1.0541 C   0  0  0  0  0  0  0  0  0  0  0  0
   -2.8154   -1.4118   -1.4989 C   0  0  0  0  0  0  0  0  0  0  0  0
   -2.6107   -0.0837   -1.2224 C   0  0  0  0  0  0  0  0  0  0  0  0
   -3.5216    0.8597   -1.6537 O   0  0  0  0  0  0  0  0  0  0  0  0
   -4.7557    0.8284   -1.0433 C   0  0  0  0  0  0  0  0  0  0  0  0
   -4.9219    0.6690    0.3353 C   0  0  0  0  0  0  0  0  0  0  0  0
   -6.2052    0.6719    0.8838 C   0  0  0  0  0  0  0  0  0  0  0  0
   -7.3172    0.8482    0.0598 C   0  0  0  0  0  0  0  0  0  0  0  0
   -7.1486    1.0311   -1.3129 C   0  0  0  0  0  0  0  0  0  0  0  0
   -5.8668    1.0286   -1.8641 C   0  0  0  0  0  0  0  0  0  0  0  0
   -1.5215    0.3996   -0.6008 N   0  0  0  0  0  0  0  0  0  0  0  0
    1.5218   -0.9719    0.9260 C   0  0  0  0  0  0  0  0  0  0  0  0
    2.6367   -1.1999   -0.1167 C   0  0  0  0  0  0  0  0  0  0  0  0
    6.0255   -1.0264   -1.0914 H   0  0  0  0  0  0  0  0  0  0  0  0
    5.4189   -2.2939   -0.0088 H   0  0  0  0  0  0  0  0  0  0  0  0
    6.7802   -1.2790    0.4843 H   0  0  0  0  0  0  0  0  0  0  0  0
    5.3991    0.7047    0.5581 H   0  0  0  0  0  0  0  0  0  0  0  0
    5.6110   -0.6181    2.5895 H   0  0  0  0  0  0  0  0  0  0  0  0
    4.1901   -1.5825    2.1957 H   0  0  0  0  0  0  0  0  0  0  0  0
    4.0297    0.1483    2.5656 H   0  0  0  0  0  0  0  0  0  0  0  0
    4.0070    1.8699   -0.6453 H   0  0  0  0  0  0  0  0  0  0  0  0
    2.6256    1.2032   -1.4487 H   0  0  0  0  0  0  0  0  0  0  0  0
    2.3198    2.8890    0.5168 H   0  0  0  0  0  0  0  0  0  0  0  0
    2.6195    1.5559    1.5979 H   0  0  0  0  0  0  0  0  0  0  0  0
    0.4462    1.8564   -0.5115 H   0  0  0  0  0  0  0  0  0  0  0  0
    0.2105    1.8921    1.2341 H   0  0  0  0  0  0  0  0  0  0  0  0
   -1.8768   -3.3150   -1.2072 H   0  0  0  0  0  0  0  0  0  0  0  0
   -3.6868   -1.7727   -2.0236 H   0  0  0  0  0  0  0  0  0  0  0  0
   -4.0617    0.5587    0.9911 H   0  0  0  0  0  0  0  0  0  0  0  0
   -6.3367    0.5470    1.9558 H   0  0  0  0  0  0  0  0  0  0  0  0
   -8.3157    0.8547    0.4900 H   0  0  0  0  0  0  0  0  0  0  0  0
   -8.0145    1.1822   -1.9520 H   0  0  0  0  0  0  0  0  0  0  0  0
   -5.7348    1.1816   -2.9317 H   0  0  0  0  0  0  0  0  0  0  0  0
    1.0670   -1.9401    1.1725 H   0  0  0  0  0  0  0  0  0  0  0  0
    1.9355   -0.6298    1.8798 H   0  0  0  0  0  0  0  0  0  0  0  0
    3.1190   -2.1596    0.1033 H   0  0  0  0  0  0  0  0  0  0  0  0
    2.1771   -1.3410   -1.1036 H   0  0  0  0  0  0  0  0  0  0  0  0
  1  2  1  0
  2  3  1  0
  2  4  1  0
  4  5  1  0
  5  6  1  0
  6  7  1  0
  7  8  1  0
  8  9  1  0
  9 10  2  0
 10 11  1  0
 11 12  2  0
 12 13  1  0
 13 14  1  0
 14 15  1  0
 15 16  2  0
 16 17  1  0
 17 18  2  0
 18 19  1  0
 19 20  2  0
 13 21  2  0
  8 22  1  0
 22 23  1  0
 23  4  1  0
 21  9  1  0
 20 15  1  0
  1 24  1  0
  1 25  1  0
  1 26  1  0
  2 27  1  0
  3 28  1  0
  3 29  1  0
  3 30  1  0
  5 31  1  0
  5 32  1  0
  6 33  1  0
  6 34  1  0
  7 35  1  0
  7 36  1  0
 11 37  1  0
 12 38  1  0
 16 39  1  0
 17 40  1  0
 18 41  1  0
 19 42  1  0
 20 43  1  0
 22 44  1  0
 22 45  1  0
 23 46  1  0
 23 47  1  0
M  END
$$$$
OCNT-2308589
     RDKit          3D

 42 45  0  0  0  0  0  0  0  0999 V2000
    2.9620    1.8530    1.0769 C   0  0  0  0  0  0  0  0  0  0  0  0
    3.5767    0.7778    0.2140 C   0  0  0  0  0  0  0  0  0  0  0  0
    4.9745    0.6865    0.0737 C   0  0  0  0  0  0  0  0  0  0  0  0
    6.0476    1.7861    0.8701 Cl  0  0  0  0  0  0  0  0  0  0  0  0
    5.5525   -0.3112   -0.7082 C   0  0  0  0  0  0  0  0  0  0  0  0
    4.7416   -1.2388   -1.3493 C   0  0  0  0  0  0  0  0  0  0  0  0
    3.3495   -1.1751   -1.1993 C   0  0  0  0  0  0  0  0  0  0  0  0
    2.5208   -2.1064   -1.8259 C   0  0  0  0  0  0  0  0  0  0  0  0
    1.1432   -2.0315   -1.6498 C   0  0  0  0  0  0  0  0  0  0  0  0
    0.6048   -1.0326   -0.8460 C   0  0  0  0  0  0  0  0  0  0  0  0
   -0.7857   -0.9459   -0.6645 N   0  0  0  0  0  0  0  0  0  0  0  0
   -1.4201   -2.2052   -0.2437 C   0  0  0  0  0  0  0  0  0  0  0  0
   -2.6821   -1.9632    0.5887 C   0  0  0  0  0  0  0  0  0  0  0  0
   -3.5432   -0.8535   -0.0065 C   0  0  0  0  0  0  0  0  0  0  0  0
   -2.7511    0.4594   -0.1893 C   0  0  0  0  0  0  0  0  0  0  0  0
   -3.2851    1.5552    0.6877 C   0  0  0  0  0  0  0  0  0  0  0  0
   -3.4433    1.6639    2.0534 C   0  0  0  0  0  0  0  0  0  0  0  0
   -3.9913    2.9411    2.2521 C   0  0  0  0  0  0  0  0  0  0  0  0
   -4.1658    3.6016    1.1089 N   0  0  0  0  0  0  0  0  0  0  0  0
   -3.7274    2.7437    0.1749 N   0  0  0  0  0  0  0  0  0  0  0  0
   -1.2323    0.2696    0.0280 C   0  0  0  0  0  0  0  0  0  0  0  0
    1.4095   -0.1209   -0.2573 N   0  0  0  0  0  0  0  0  0  0  0  0
    2.7498   -0.1701   -0.4110 C   0  0  0  0  0  0  0  0  0  0  0  0
    1.8955    1.9942    0.8767 H   0  0  0  0  0  0  0  0  0  0  0  0
    3.4299    2.8233    0.8866 H   0  0  0  0  0  0  0  0  0  0  0  0
    3.0788    1.5950    2.1332 H   0  0  0  0  0  0  0  0  0  0  0  0
    6.6329   -0.3731   -0.8160 H   0  0  0  0  0  0  0  0  0  0  0  0
    5.2015   -2.0151   -1.9563 H   0  0  0  0  0  0  0  0  0  0  0  0
    2.9330   -2.8902   -2.4557 H   0  0  0  0  0  0  0  0  0  0  0  0
    0.4995   -2.7411   -2.1573 H   0  0  0  0  0  0  0  0  0  0  0  0
   -0.7365   -2.8312    0.3486 H   0  0  0  0  0  0  0  0  0  0  0  0
   -1.6952   -2.7720   -1.1438 H   0  0  0  0  0  0  0  0  0  0  0  0
   -2.4030   -1.6972    1.6176 H   0  0  0  0  0  0  0  0  0  0  0  0
   -3.2592   -2.8931    0.6540 H   0  0  0  0  0  0  0  0  0  0  0  0
   -4.4437   -0.7143    0.6068 H   0  0  0  0  0  0  0  0  0  0  0  0
   -3.8990   -1.1874   -0.9925 H   0  0  0  0  0  0  0  0  0  0  0  0
   -2.8961    0.7659   -1.2358 H   0  0  0  0  0  0  0  0  0  0  0  0
   -3.1980    0.9259    2.8014 H   0  0  0  0  0  0  0  0  0  0  0  0
   -4.2689    3.4198    3.1819 H   0  0  0  0  0  0  0  0  0  0  0  0
   -3.7609    3.0353   -0.7958 H   0  0  0  0  0  0  0  0  0  0  0  0
   -0.9857    0.2098    1.0974 H   0  0  0  0  0  0  0  0  0  0  0  0
   -0.7300    1.1619   -0.3708 H   0  0  0  0  0  0  0  0  0  0  0  0
  1  2  1  0
  2  3  1  0
  3  4  1  0
  3  5  2  0
  5  6  1  0
  6  7  2  0
  7  8  1  0
  8  9  2  0
  9 10  1  0
 10 11  1  0
 11 12  1  0
 12 13  1  0
 13 14  1  0
 14 15  1  0
 15 16  1  0
 16 17  2  0
 17 18  1  0
 18 19  2  0
 19 20  1  0
 15 21  1  0
 10 22  2  0
 22 23  1  0
 23  2  2  0
 23  7  1  0
 21 11  1  0
 20 16  1  0
  1 24  1  0
  1 25  1  0
  1 26  1  0
  5 27  1  0
  6 28  1  0
  8 29  1  0
  9 30  1  0
 12 31  1  0
 12 32  1  0
 13 33  1  0
 13 34  1  0
 14 35  1  0
 14 36  1  0
 15 37  1  0
 17 38  1  0
 18 39  1  0
 20 40  1  0
 21 41  1  0
 21 42  1  0
M  END
$$$$
OCNT-2308599
     RDKit          3D

 55 58  0  0  0  0  0  0  0  0999 V2000
    2.8768    2.9686   -2.1302 C   0  0  0  0  0  0  0  0  0  0  0  0
    2.2455    1.7037   -2.2987 O   0  0  0  0  0  0  0  0  0  0  0  0
    1.3194    1.3432   -1.3501 C   0  0  0  0  0  0  0  0  0  0  0  0
    0.8065    2.1865   -0.3627 C   0  0  0  0  0  0  0  0  0  0  0  0
   -0.1361    1.7022    0.5493 C   0  0  0  0  0  0  0  0  0  0  0  0
   -0.5717    0.3747    0.4677 C   0  0  0  0  0  0  0  0  0  0  0  0
   -1.7400   -0.2466    1.6622 S   0  0  0  0  0  0  0  0  0  0  0  0
   -1.3647   -1.6110    1.9597 O   0  0  0  0  0  0  0  0  0  0  0  0
   -1.8419    0.7457    2.7126 O   0  0  0  0  0  0  0  0  0  0  0  0
   -3.2080   -0.2505    0.8060 N   0  0  0  0  0  0  0  0  0  0  0  0
   -3.4106   -1.2907   -0.2216 C   0  0  0  0  0  0  0  0  0  0  0  0
   -4.7751   -1.9714   -0.0555 C   0  0  0  0  0  0  0  0  0  0  0  0
   -5.8043   -1.2270    0.7960 C   0  0  0  0  0  0  0  0  0  0  0  0
   -6.2149    0.1468    0.2706 C   0  0  0  0  0  0  0  0  0  0  0  0
   -5.0955    1.0116   -0.3045 C   0  0  0  0  0  0  0  0  0  0  0  0
   -3.8219    1.0747    0.5386 C   0  0  0  0  0  0  0  0  0  0  0  0
   -0.0540   -0.4843   -0.5022 C   0  0  0  0  0  0  0  0  0  0  0  0
    0.8778    0.0066   -1.4147 C   0  0  0  0  0  0  0  0  0  0  0  0
    1.4298   -0.8465   -2.4236 N   0  0  0  0  0  0  0  0  0  0  0  0
    2.4135   -2.1350   -1.9393 S   0  0  0  0  0  0  0  0  0  0  0  0
    3.1183   -2.5769   -3.1243 O   0  0  0  0  0  0  0  0  0  0  0  0
    1.6271   -3.0567   -1.1487 O   0  0  0  0  0  0  0  0  0  0  0  0
    3.6055   -1.3596   -0.8699 C   0  0  0  0  0  0  0  0  0  0  0  0
    4.7269   -0.7213   -1.4413 C   0  0  0  0  0  0  0  0  0  0  0  0
    5.6723   -0.1025   -0.6195 C   0  0  0  0  0  0  0  0  0  0  0  0
    5.4666   -0.1532    0.7436 C   0  0  0  0  0  0  0  0  0  0  0  0
    6.2780    0.3943    1.6875 O   0  0  0  0  0  0  0  0  0  0  0  0
    5.5914    0.0060    2.8966 C   0  0  0  0  0  0  0  0  0  0  0  0
    4.3735   -0.7269    2.6523 O   0  0  0  0  0  0  0  0  0  0  0  0
    4.3790   -0.7934    1.2946 C   0  0  0  0  0  0  0  0  0  0  0  0
    3.4279   -1.4163    0.5174 C   0  0  0  0  0  0  0  0  0  0  0  0
    3.6431    3.0650   -2.9060 H   0  0  0  0  0  0  0  0  0  0  0  0
    2.1596    3.7845   -2.2672 H   0  0  0  0  0  0  0  0  0  0  0  0
    3.3760    3.0357   -1.1575 H   0  0  0  0  0  0  0  0  0  0  0  0
    1.1172    3.2226   -0.2722 H   0  0  0  0  0  0  0  0  0  0  0  0
   -0.5203    2.3647    1.3236 H   0  0  0  0  0  0  0  0  0  0  0  0
   -2.6444   -2.0702   -0.1623 H   0  0  0  0  0  0  0  0  0  0  0  0
   -3.3050   -0.8591   -1.2231 H   0  0  0  0  0  0  0  0  0  0  0  0
   -4.6110   -2.9519    0.4102 H   0  0  0  0  0  0  0  0  0  0  0  0
   -5.1925   -2.1819   -1.0475 H   0  0  0  0  0  0  0  0  0  0  0  0
   -5.4245   -1.1245    1.8208 H   0  0  0  0  0  0  0  0  0  0  0  0
   -6.7053   -1.8472    0.8829 H   0  0  0  0  0  0  0  0  0  0  0  0
   -6.9760    0.0151   -0.5095 H   0  0  0  0  0  0  0  0  0  0  0  0
   -6.7100    0.6924    1.0835 H   0  0  0  0  0  0  0  0  0  0  0  0
   -5.4800    2.0321   -0.4296 H   0  0  0  0  0  0  0  0  0  0  0  0
   -4.8614    0.6701   -1.3195 H   0  0  0  0  0  0  0  0  0  0  0  0
   -3.1016    1.7138    0.0171 H   0  0  0  0  0  0  0  0  0  0  0  0
   -4.0628    1.5479    1.4972 H   0  0  0  0  0  0  0  0  0  0  0  0
   -0.3698   -1.5237   -0.5447 H   0  0  0  0  0  0  0  0  0  0  0  0
    1.8722   -0.3367   -3.1920 H   0  0  0  0  0  0  0  0  0  0  0  0
    4.8629   -0.7074   -2.5208 H   0  0  0  0  0  0  0  0  0  0  0  0
    6.5430    0.3939   -1.0347 H   0  0  0  0  0  0  0  0  0  0  0  0
    6.2635   -0.6190    3.4969 H   0  0  0  0  0  0  0  0  0  0  0  0
    5.3484    0.9102    3.4669 H   0  0  0  0  0  0  0  0  0  0  0  0
    2.5818   -1.9213    0.9722 H   0  0  0  0  0  0  0  0  0  0  0  0
  1  2  1  0
  2  3  1  0
  3  4  1  0
  4  5  2  0
  5  6  1  0
  6  7  1  0
  7  8  2  0
  7  9  2  0
  7 10  1  0
 10 11  1  0
 11 12  1  0
 12 13  1  0
 13 14  1  0
 14 15  1  0
 15 16  1  0
  6 17  2  0
 17 18  1  0
 18 19  1  0
 19 20  1  0
 20 21  2  0
 20 22  2  0
 20 23  1  0
 23 24  1  0
 24 25  2  0
 25 26  1  0
 26 27  1  0
 27 28  1  0
 28 29  1  0
 29 30  1  0
 30 31  1  0
 18  3  2  0
 31 23  2  0
 16 10  1  0
 30 26  2  0
  1 32  1  0
  1 33  1  0
  1 34  1  0
  4 35  1  0
  5 36  1  0
 11 37  1  0
 11 38  1  0
 12 39  1  0
 12 40  1  0
 13 41  1  0
 13 42  1  0
 14 43  1  0
 14 44  1  0
 15 45  1  0
 15 46  1  0
 16 47  1  0
 16 48  1  0
 17 49  1  0
 19 50  1  0
 24 51  1  0
 25 52  1  0
 28 53  1  0
 28 54  1  0
 31 55  1  0
M  END
$$$$
OCNT-2308603
     RDKit          3D

 43 45  0  0  0  0  0  0  0  0999 V2000
   -2.2200    1.5639   -2.1625 O   0  0  0  0  0  0  0  0  0  0  0  0
   -0.9403    1.2235   -1.6505 C   0  0  0  0  0  0  0  0  0  0  0  0
   -0.9889    0.2014   -0.4864 C   0  0  0  0  0  0  0  0  0  0  0  0
   -1.7989    0.7448    0.7209 C   0  0  0  0  0  0  0  0  0  0  0  0
   -3.2985    0.5959    0.5819 C   0  0  0  0  0  0  0  0  0  0  0  0
   -3.8996   -0.6650    0.7269 C   0  0  0  0  0  0  0  0  0  0  0  0
   -5.2816   -0.8071    0.5975 C   0  0  0  0  0  0  0  0  0  0  0  0
   -6.0627    0.3091    0.3250 C   0  0  0  0  0  0  0  0  0  0  0  0
   -7.3890    0.1706    0.1982 F   0  0  0  0  0  0  0  0  0  0  0  0
   -5.4882    1.5656    0.1809 C   0  0  0  0  0  0  0  0  0  0  0  0
   -4.1064    1.7104    0.3120 C   0  0  0  0  0  0  0  0  0  0  0  0
    0.3626   -0.1439    0.0022 N   0  0  0  0  0  0  0  0  0  0  0  0
    1.1262   -0.9854   -0.9095 C   0  0  0  0  0  0  0  0  0  0  0  0
    2.4070   -1.4731   -0.2604 C   0  0  0  0  0  0  0  0  0  0  0  0
    2.4094   -2.8394    0.1185 C   0  0  0  0  0  0  0  0  0  0  0  0
    3.4797   -3.4198    0.7987 C   0  0  0  0  0  0  0  0  0  0  0  0
    4.5746   -2.6416    1.1324 C   0  0  0  0  0  0  0  0  0  0  0  0
    5.8962   -3.3431    1.9806 Cl  0  0  0  0  0  0  0  0  0  0  0  0
    4.6073   -1.2946    0.7815 C   0  0  0  0  0  0  0  0  0  0  0  0
    3.5410   -0.6907    0.0708 C   0  0  0  0  0  0  0  0  0  0  0  0
    3.7062    0.6954   -0.2384 N   0  0  0  0  0  0  0  0  0  0  0  0
    3.0559    1.5166   -1.1276 C   0  0  0  0  0  0  0  0  0  0  0  0
    3.4933    2.7524   -1.0400 N   0  0  0  0  0  0  0  0  0  0  0  0
    4.4783    2.6516   -0.1128 C   0  0  0  0  0  0  0  0  0  0  0  0
    4.6689    1.4317    0.3841 N   0  0  0  0  0  0  0  0  0  0  0  0
   -2.7509    0.7515   -2.2377 H   0  0  0  0  0  0  0  0  0  0  0  0
   -0.4543    2.1511   -1.3287 H   0  0  0  0  0  0  0  0  0  0  0  0
   -0.3617    0.8255   -2.4897 H   0  0  0  0  0  0  0  0  0  0  0  0
   -1.4823   -0.7125   -0.8419 H   0  0  0  0  0  0  0  0  0  0  0  0
   -1.5357    1.7930    0.9152 H   0  0  0  0  0  0  0  0  0  0  0  0
   -1.5176    0.2020    1.6350 H   0  0  0  0  0  0  0  0  0  0  0  0
   -3.2932   -1.5405    0.9504 H   0  0  0  0  0  0  0  0  0  0  0  0
   -5.7537   -1.7775    0.7119 H   0  0  0  0  0  0  0  0  0  0  0  0
   -6.1168    2.4238   -0.0338 H   0  0  0  0  0  0  0  0  0  0  0  0
   -3.6617    2.6962    0.1882 H   0  0  0  0  0  0  0  0  0  0  0  0
    0.8677    0.7006    0.2649 H   0  0  0  0  0  0  0  0  0  0  0  0
    1.3475   -0.5175   -1.8698 H   0  0  0  0  0  0  0  0  0  0  0  0
    0.5114   -1.8559   -1.1748 H   0  0  0  0  0  0  0  0  0  0  0  0
    1.5468   -3.4699   -0.0985 H   0  0  0  0  0  0  0  0  0  0  0  0
    3.4413   -4.4700    1.0753 H   0  0  0  0  0  0  0  0  0  0  0  0
    5.4890   -0.7172    1.0596 H   0  0  0  0  0  0  0  0  0  0  0  0
    2.3095    1.1969   -1.8308 H   0  0  0  0  0  0  0  0  0  0  0  0
    5.0824    3.4910    0.2087 H   0  0  0  0  0  0  0  0  0  0  0  0
  1  2  1  0
  2  3  1  0
  3  4  1  0
  4  5  1  0
  5  6  1  0
  6  7  2  0
  7  8  1  0
  8  9  1  0
  8 10  2  0
 10 11  1  0
  3 12  1  0
 12 13  1  0
 13 14  1  0
 14 15  1  0
 15 16  2  0
 16 17  1  0
 17 18  1  0
 17 19  2  0
 19 20  1  0
 20 21  1  0
 21 22  1  0
 22 23  2  0
 23 24  1  0
 24 25  2  0
 11  5  2  0
 20 14  2  0
 25 21  1  0
  1 26  1  0
  2 27  1  0
  2 28  1  0
  3 29  1  0
  4 30  1  0
  4 31  1  0
  6 32  1  0
  7 33  1  0
 10 34  1  0
 11 35  1  0
 12 36  1  0
 13 37  1  0
 13 38  1  0
 15 39  1  0
 16 40  1  0
 19 41  1  0
 22 42  1  0
 24 43  1  0
M  END
$$$$
OCNT-2308609
     RDKit          3D

 46 48  0  0  0  0  0  0  0  0999 V2000
    6.2533   -1.7773    0.5361 C   0  0  0  0  0  0  0  0  0  0  0  0
    5.2674   -0.9695   -0.0933 O   0  0  0  0  0  0  0  0  0  0  0  0
    3.9684   -1.1042    0.3266 C   0  0  0  0  0  0  0  0  0  0  0  0
    3.5539   -1.9785    1.3316 C   0  0  0  0  0  0  0  0  0  0  0  0
    2.2112   -2.0372    1.6990 C   0  0  0  0  0  0  0  0  0  0  0  0
    1.2713   -1.2188    1.0713 C   0  0  0  0  0  0  0  0  0  0  0  0
   -0.3768   -1.3950    1.5761 Cl  0  0  0  0  0  0  0  0  0  0  0  0
    1.6570   -0.3154    0.0599 C   0  0  0  0  0  0  0  0  0  0  0  0
    3.0231   -0.2771   -0.3254 C   0  0  0  0  0  0  0  0  0  0  0  0
    3.5190    0.6848   -1.3891 C   0  0  0  0  0  0  0  0  0  0  0  0
    2.4234    1.3715   -2.1952 C   0  0  0  0  0  0  0  0  0  0  0  0
    1.2926    1.7987   -1.2744 C   0  0  0  0  0  0  0  0  0  0  0  0
    0.6198    0.5725   -0.6315 C   0  0  0  0  0  0  0  0  0  0  0  0
   -0.1267   -0.2510   -1.6054 N   0  0  0  0  0  0  0  0  0  0  0  0
   -1.2973    0.4107   -2.1927 C   0  0  0  0  0  0  0  0  0  0  0  0
   -2.3332    0.8061   -1.2007 C   0  0  0  0  0  0  0  0  0  0  0  0
   -2.6992    2.0252   -0.8666 N   0  0  0  0  0  0  0  0  0  0  0  0
   -3.6624    1.9288    0.1092 N   0  0  0  0  0  0  0  0  0  0  0  0
   -3.8668    0.6526    0.3573 C   0  0  0  0  0  0  0  0  0  0  0  0
   -4.7954    0.0511    1.3597 C   0  0  0  0  0  0  0  0  0  0  0  0
   -4.3475    0.3980    2.7789 C   0  0  0  0  0  0  0  0  0  0  0  0
   -6.2295    0.5185    1.1157 C   0  0  0  0  0  0  0  0  0  0  0  0
   -3.0597   -0.0890   -0.4625 N   0  0  0  0  0  0  0  0  0  0  0  0
    6.3251   -1.5515    1.6051 H   0  0  0  0  0  0  0  0  0  0  0  0
    6.0587   -2.8414    0.3668 H   0  0  0  0  0  0  0  0  0  0  0  0
    7.2196   -1.5400    0.0810 H   0  0  0  0  0  0  0  0  0  0  0  0
    4.2497   -2.6291    1.8504 H   0  0  0  0  0  0  0  0  0  0  0  0
    1.9041   -2.7288    2.4799 H   0  0  0  0  0  0  0  0  0  0  0  0
    4.1774    0.1595   -2.0915 H   0  0  0  0  0  0  0  0  0  0  0  0
    4.1179    1.4550   -0.8856 H   0  0  0  0  0  0  0  0  0  0  0  0
    2.0482    0.6953   -2.9726 H   0  0  0  0  0  0  0  0  0  0  0  0
    2.8417    2.2425   -2.7125 H   0  0  0  0  0  0  0  0  0  0  0  0
    1.6950    2.4489   -0.4853 H   0  0  0  0  0  0  0  0  0  0  0  0
    0.5717    2.4122   -1.8240 H   0  0  0  0  0  0  0  0  0  0  0  0
   -0.0527    0.9594    0.1437 H   0  0  0  0  0  0  0  0  0  0  0  0
   -0.4256   -1.1028   -1.1368 H   0  0  0  0  0  0  0  0  0  0  0  0
   -0.9975    1.2762   -2.7922 H   0  0  0  0  0  0  0  0  0  0  0  0
   -1.7506   -0.2890   -2.9057 H   0  0  0  0  0  0  0  0  0  0  0  0
   -4.7755   -1.0416    1.2568 H   0  0  0  0  0  0  0  0  0  0  0  0
   -5.0048   -0.0705    3.5191 H   0  0  0  0  0  0  0  0  0  0  0  0
   -4.3605    1.4802    2.9524 H   0  0  0  0  0  0  0  0  0  0  0  0
   -3.3268    0.0452    2.9650 H   0  0  0  0  0  0  0  0  0  0  0  0
   -6.3242    1.6049    1.2252 H   0  0  0  0  0  0  0  0  0  0  0  0
   -6.5596    0.2573    0.1038 H   0  0  0  0  0  0  0  0  0  0  0  0
   -6.9175    0.0469    1.8255 H   0  0  0  0  0  0  0  0  0  0  0  0
   -2.9798   -1.0944   -0.4842 H   0  0  0  0  0  0  0  0  0  0  0  0
  1  2  1  0
  2  3  1  0
  3  4  1  0
  4  5  2  0
  5  6  1  0
  6  7  1  0
  6  8  2  0
  8  9  1  0
  9 10  1  0
 10 11  1  0
 11 12  1  0
 12 13  1  0
 13 14  1  0
 14 15  1  0
 15 16  1  0
 16 17  2  0
 17 18  1  0
 18 19  2  0
 19 20  1  0
 20 21  1  0
 20 22  1  0
 19 23  1  0
  9  3  2  0
 23 16  1  0
 13  8  1  0
  1 24  1  0
  1 25  1  0
  1 26  1  0
  4 27  1  0
  5 28  1  0
 10 29  1  0
 10 30  1  0
 11 31  1  0
 11 32  1  0
 12 33  1  0
 12 34  1  0
 13 35  1  0
 14 36  1  0
 15 37  1  0
 15 38  1  0
 20 39  1  0
 21 40  1  0
 21 41  1  0
 21 42  1  0
 22 43  1  0
 22 44  1  0
 22 45  1  0
 23 46  1  0
M  END
$$$$
OCNT-2308610
     RDKit          3D

 51 55  0  0  0  0  0  0  0  0999 V2000
    0.5764   -1.0104    1.9914 O   0  0  0  0  0  0  0  0  0  0  0  0
    0.1143   -0.4152    1.0179 C   0  0  0  0  0  0  0  0  0  0  0  0
    0.4140   -0.8184   -0.4052 C   0  0  0  0  0  0  0  0  0  0  0  0
    1.7408   -1.3773   -0.5806 N   0  0  0  0  0  0  0  0  0  0  0  0
    2.9291   -0.9639   -0.0496 C   0  0  0  0  0  0  0  0  0  0  0  0
    3.8656   -1.7804   -0.6448 C   0  0  0  0  0  0  0  0  0  0  0  0
    5.2951   -1.7945   -0.4178 C   0  0  0  0  0  0  0  0  0  0  0  0
    6.1068   -2.6949   -1.1114 C   0  0  0  0  0  0  0  0  0  0  0  0
    7.4563   -2.7838   -0.9721 N   0  0  0  0  0  0  0  0  0  0  0  0
    8.0246   -1.9295   -0.0919 C   0  0  0  0  0  0  0  0  0  0  0  0
    7.3050   -1.0031    0.6406 C   0  0  0  0  0  0  0  0  0  0  0  0
    7.9255   -0.1772    1.4926 F   0  0  0  0  0  0  0  0  0  0  0  0
    5.9270   -0.9304    0.4810 C   0  0  0  0  0  0  0  0  0  0  0  0
    3.2305   -2.6096   -1.5330 N   0  0  0  0  0  0  0  0  0  0  0  0
    1.9335   -2.3391   -1.5031 N   0  0  0  0  0  0  0  0  0  0  0  0
   -0.7013    0.6774    1.1800 N   0  0  0  0  0  0  0  0  0  0  0  0
   -1.4185    1.0275    2.4237 C   0  0  0  0  0  0  0  0  0  0  0  0
   -1.9967    2.1727    1.5809 C   0  0  0  0  0  0  0  0  0  0  0  0
   -3.3437    2.8577    1.5432 C   0  0  0  0  0  0  0  0  0  0  0  0
   -3.6016    3.3329    0.0977 C   0  0  0  0  0  0  0  0  0  0  0  0
   -2.3342    3.4840   -0.7732 C   0  0  0  0  0  0  0  0  0  0  0  0
   -1.3058    2.3207   -0.6986 C   0  0  0  0  0  0  0  0  0  0  0  0
   -1.7486    1.2720    0.3312 C   0  0  0  0  0  0  0  0  0  0  0  0
   -2.8435    0.2123   -0.2421 C   0  0  0  0  0  0  0  0  0  0  0  0
   -2.8252   -0.2517   -1.5792 C   0  0  0  0  0  0  0  0  0  0  0  0
   -3.7540   -1.1731   -2.0801 C   0  0  0  0  0  0  0  0  0  0  0  0
   -4.7473   -1.6775   -1.2547 C   0  0  0  0  0  0  0  0  0  0  0  0
   -4.8040   -1.2637    0.0676 C   0  0  0  0  0  0  0  0  0  0  0  0
   -3.8682   -0.3434    0.5577 C   0  0  0  0  0  0  0  0  0  0  0  0
   -0.3124   -1.5798   -0.7069 H   0  0  0  0  0  0  0  0  0  0  0  0
    0.3591    0.0373   -1.0831 H   0  0  0  0  0  0  0  0  0  0  0  0
    2.9912   -0.1796    0.6892 H   0  0  0  0  0  0  0  0  0  0  0  0
    5.6847   -3.3976   -1.8278 H   0  0  0  0  0  0  0  0  0  0  0  0
    9.1012   -2.0065    0.0145 H   0  0  0  0  0  0  0  0  0  0  0  0
    5.3764   -0.2012    1.0639 H   0  0  0  0  0  0  0  0  0  0  0  0
   -2.1019    0.2506    2.7706 H   0  0  0  0  0  0  0  0  0  0  0  0
   -0.7559    1.3378    3.2364 H   0  0  0  0  0  0  0  0  0  0  0  0
   -1.2744    3.0100    1.6706 H   0  0  0  0  0  0  0  0  0  0  0  0
   -3.3432    3.7174    2.2235 H   0  0  0  0  0  0  0  0  0  0  0  0
   -4.1560    2.2041    1.8726 H   0  0  0  0  0  0  0  0  0  0  0  0
   -4.1574    4.2777    0.1156 H   0  0  0  0  0  0  0  0  0  0  0  0
   -4.2705    2.6155   -0.3934 H   0  0  0  0  0  0  0  0  0  0  0  0
   -1.8229    4.4097   -0.4784 H   0  0  0  0  0  0  0  0  0  0  0  0
   -2.6327    3.6312   -1.8182 H   0  0  0  0  0  0  0  0  0  0  0  0
   -1.1469    1.9011   -1.6960 H   0  0  0  0  0  0  0  0  0  0  0  0
   -0.3300    2.7461   -0.4242 H   0  0  0  0  0  0  0  0  0  0  0  0
   -2.0626    0.0972   -2.2720 H   0  0  0  0  0  0  0  0  0  0  0  0
   -3.6938   -1.4958   -3.1168 H   0  0  0  0  0  0  0  0  0  0  0  0
   -5.4711   -2.3912   -1.6389 H   0  0  0  0  0  0  0  0  0  0  0  0
   -5.5746   -1.6561    0.7272 H   0  0  0  0  0  0  0  0  0  0  0  0
   -3.9582   -0.0628    1.6037 H   0  0  0  0  0  0  0  0  0  0  0  0
  1  2  2  0
  2  3  1  0
  3  4  1  0
  4  5  1  0
  5  6  2  0
  6  7  1  0
  7  8  2  0
  8  9  1  0
  9 10  2  0
 10 11  1  0
 11 12  1  0
 11 13  2  0
  6 14  1  0
 14 15  2  0
  2 16  1  0
 16 17  1  0
 17 18  1  0
 18 19  1  0
 19 20  1  0
 20 21  1  0
 21 22  1  0
 22 23  1  0
 23 24  1  0
 24 25  2  0
 25 26  1  0
 26 27  2  0
 27 28  1  0
 28 29  2  0
 15  4  1  0
 23 16  1  0
 29 24  1  0
 13  7  1  0
 23 18  1  0
  3 30  1  0
  3 31  1  0
  5 32  1  0
  8 33  1  0
 10 34  1  0
 13 35  1  0
 17 36  1  0
 17 37  1  0
 18 38  1  0
 19 39  1  0
 19 40  1  0
 20 41  1  0
 20 42  1  0
 21 43  1  0
 21 44  1  0
 22 45  1  0
 22 46  1  0
 25 47  1  0
 26 48  1  0
 27 49  1  0
 28 50  1  0
 29 51  1  0
M  END
$$$$
OCNT-2308624
     RDKit          3D

 44 46  0  0  0  0  0  0  0  0999 V2000
    0.8080   -2.4114   -1.4362 C   0  0  0  0  0  0  0  0  0  0  0  0
    0.7410   -2.0596   -0.0264 N   0  0  0  0  0  0  0  0  0  0  0  0
    1.8201   -2.5515    0.8358 C   0  0  0  0  0  0  0  0  0  0  0  0
    3.1710   -1.8565    0.5943 C   0  0  0  0  0  0  0  0  0  0  0  0
    3.1861   -0.3648    0.8285 C   0  0  0  0  0  0  0  0  0  0  0  0
    2.7788    0.1850    2.0487 C   0  0  0  0  0  0  0  0  0  0  0  0
    2.8242    1.5622    2.2113 C   0  0  0  0  0  0  0  0  0  0  0  0
    3.2552    2.4196    1.2597 N   0  0  0  0  0  0  0  0  0  0  0  0
    3.6587    1.8701    0.0932 C   0  0  0  0  0  0  0  0  0  0  0  0
    3.6443    0.5065   -0.1663 C   0  0  0  0  0  0  0  0  0  0  0  0
   -0.2317   -1.2187    0.5300 C   0  0  0  0  0  0  0  0  0  0  0  0
   -0.2856   -1.0346    1.7518 O   0  0  0  0  0  0  0  0  0  0  0  0
   -1.2760   -0.5479   -0.4399 C   0  0  0  0  0  0  0  0  0  0  0  0
   -2.3902   -1.5204   -0.5208 N   0  0  0  0  0  0  0  0  0  0  0  0
   -3.3011   -1.2818   -1.6388 C   0  0  0  0  0  0  0  0  0  0  0  0
   -3.8108    0.1494   -1.7606 C   0  0  0  0  0  0  0  0  0  0  0  0
   -4.0712    0.6888   -0.4610 O   0  0  0  0  0  0  0  0  0  0  0  0
   -2.9802    1.3635    0.0264 C   0  0  0  0  0  0  0  0  0  0  0  0
   -3.2683    2.6340    0.5397 C   0  0  0  0  0  0  0  0  0  0  0  0
   -2.2438    3.4630    0.9858 C   0  0  0  0  0  0  0  0  0  0  0  0
   -0.9271    3.0222    0.9168 C   0  0  0  0  0  0  0  0  0  0  0  0
   -0.6440    1.7402    0.4380 C   0  0  0  0  0  0  0  0  0  0  0  0
   -1.6668    0.8599    0.0245 C   0  0  0  0  0  0  0  0  0  0  0  0
    1.4777   -1.7110   -1.9414 H   0  0  0  0  0  0  0  0  0  0  0  0
   -0.1739   -2.3812   -1.9135 H   0  0  0  0  0  0  0  0  0  0  0  0
    1.1950   -3.4309   -1.5384 H   0  0  0  0  0  0  0  0  0  0  0  0
    1.9282   -3.6255    0.6448 H   0  0  0  0  0  0  0  0  0  0  0  0
    1.5376   -2.4601    1.8897 H   0  0  0  0  0  0  0  0  0  0  0  0
    3.4996   -2.0713   -0.4314 H   0  0  0  0  0  0  0  0  0  0  0  0
    3.9254   -2.3066    1.2529 H   0  0  0  0  0  0  0  0  0  0  0  0
    2.4065   -0.4362    2.8574 H   0  0  0  0  0  0  0  0  0  0  0  0
    2.4961    2.0213    3.1394 H   0  0  0  0  0  0  0  0  0  0  0  0
    4.0100    2.5778   -0.6529 H   0  0  0  0  0  0  0  0  0  0  0  0
    3.9889    0.1402   -1.1275 H   0  0  0  0  0  0  0  0  0  0  0  0
   -0.8119   -0.4189   -1.4243 H   0  0  0  0  0  0  0  0  0  0  0  0
   -2.9115   -1.4299    0.3577 H   0  0  0  0  0  0  0  0  0  0  0  0
   -4.1586   -1.9433   -1.4896 H   0  0  0  0  0  0  0  0  0  0  0  0
   -2.8397   -1.5947   -2.5819 H   0  0  0  0  0  0  0  0  0  0  0  0
   -3.1206    0.7788   -2.3334 H   0  0  0  0  0  0  0  0  0  0  0  0
   -4.7567    0.1479   -2.3115 H   0  0  0  0  0  0  0  0  0  0  0  0
   -4.2969    2.9831    0.5689 H   0  0  0  0  0  0  0  0  0  0  0  0
   -2.4710    4.4519    1.3735 H   0  0  0  0  0  0  0  0  0  0  0  0
   -0.1141    3.6661    1.2477 H   0  0  0  0  0  0  0  0  0  0  0  0
    0.3991    1.4253    0.4160 H   0  0  0  0  0  0  0  0  0  0  0  0
  1  2  1  0
  2  3  1  0
  3  4  1  0
  4  5  1  0
  5  6  2  0
  6  7  1  0
  7  8  2  0
  8  9  1  0
  9 10  2  0
  2 11  1  0
 11 12  2  0
 11 13  1  0
 13 14  1  0
 14 15  1  0
 15 16  1  0
 16 17  1  0
 17 18  1  0
 18 19  2  0
 19 20  1  0
 20 21  2  0
 21 22  1  0
 22 23  2  0
 10  5  1  0
 23 13  1  0
 23 18  1  0
  1 24  1  0
  1 25  1  0
  1 26  1  0
  3 27  1  0
  3 28  1  0
  4 29  1  0
  4 30  1  0
  6 31  1  0
  7 32  1  0
  9 33  1  0
 10 34  1  0
 13 35  1  0
 14 36  1  0
 15 37  1  0
 15 38  1  0
 16 39  1  0
 16 40  1  0
 19 41  1  0
 20 42  1  0
 21 43  1  0
 22 44  1  0
M  END
$$$$
OCNT-2308630
     RDKit          3D

 41 44  0  0  0  0  0  0  0  0999 V2000
    6.8261   -1.3008   -0.3986 N   0  0  0  0  0  0  0  0  0  0  0  0
    5.7817   -1.8469   -1.0911 C   0  0  0  0  0  0  0  0  0  0  0  0
    5.9954   -2.7925   -1.8460 O   0  0  0  0  0  0  0  0  0  0  0  0
    4.4699   -1.2582   -0.8793 C   0  0  0  0  0  0  0  0  0  0  0  0
    3.2850   -1.6526   -1.4709 C   0  0  0  0  0  0  0  0  0  0  0  0
    2.1731   -0.8671   -1.0496 C   0  0  0  0  0  0  0  0  0  0  0  0
    2.5282    0.0952   -0.1211 C   0  0  0  0  0  0  0  0  0  0  0  0
    1.7085    1.1073    0.5394 C   0  0  0  0  0  0  0  0  0  0  0  0
    2.1541    2.2186    0.8387 O   0  0  0  0  0  0  0  0  0  0  0  0
    0.3483    0.8627    0.6656 N   0  0  0  0  0  0  0  0  0  0  0  0
   -0.6093    1.9643    0.5647 C   0  0  0  0  0  0  0  0  0  0  0  0
   -1.9473    1.3142    0.1685 C   0  0  0  0  0  0  0  0  0  0  0  0
   -3.1619    2.0603    0.7231 C   0  0  0  0  0  0  0  0  0  0  0  0
   -4.3081    1.7924   -0.2559 C   0  0  0  0  0  0  0  0  0  0  0  0
   -3.6897    1.1597   -1.5004 C   0  0  0  0  0  0  0  0  0  0  0  0
   -2.1839    1.3343   -1.3471 C   0  0  0  0  0  0  0  0  0  0  0  0
   -1.7303   -0.0887    0.7044 C   0  0  0  0  0  0  0  0  0  0  0  0
   -2.6787   -1.0829    0.9190 C   0  0  0  0  0  0  0  0  0  0  0  0
   -2.2649   -2.3051    1.4442 C   0  0  0  0  0  0  0  0  0  0  0  0
   -0.9224   -2.5098    1.7852 C   0  0  0  0  0  0  0  0  0  0  0  0
    0.0336   -1.5058    1.5820 C   0  0  0  0  0  0  0  0  0  0  0  0
    1.5955   -1.7788    2.2538 Cl  0  0  0  0  0  0  0  0  0  0  0  0
   -0.3680   -0.3098    0.9893 C   0  0  0  0  0  0  0  0  0  0  0  0
    4.2191    0.0717    0.1695 S   0  0  0  0  0  0  0  0  0  0  0  0
    7.7442   -1.7006   -0.5264 H   0  0  0  0  0  0  0  0  0  0  0  0
    6.6954   -0.5285    0.2394 H   0  0  0  0  0  0  0  0  0  0  0  0
    3.2278   -2.4697   -2.1818 H   0  0  0  0  0  0  0  0  0  0  0  0
    1.1631   -1.0078   -1.4149 H   0  0  0  0  0  0  0  0  0  0  0  0
   -0.2606    2.7154   -0.1528 H   0  0  0  0  0  0  0  0  0  0  0  0
   -0.6598    2.4379    1.5543 H   0  0  0  0  0  0  0  0  0  0  0  0
   -3.4264    1.7618    1.7432 H   0  0  0  0  0  0  0  0  0  0  0  0
   -2.9681    3.1406    0.7408 H   0  0  0  0  0  0  0  0  0  0  0  0
   -5.0570    1.1244    0.1830 H   0  0  0  0  0  0  0  0  0  0  0  0
   -4.8202    2.7284   -0.5054 H   0  0  0  0  0  0  0  0  0  0  0  0
   -3.9479    0.0960   -1.5494 H   0  0  0  0  0  0  0  0  0  0  0  0
   -4.0597    1.6235   -2.4202 H   0  0  0  0  0  0  0  0  0  0  0  0
   -1.6304    0.5616   -1.8915 H   0  0  0  0  0  0  0  0  0  0  0  0
   -1.8991    2.3074   -1.7671 H   0  0  0  0  0  0  0  0  0  0  0  0
   -3.7286   -0.9255    0.6932 H   0  0  0  0  0  0  0  0  0  0  0  0
   -2.9927   -3.0942    1.6215 H   0  0  0  0  0  0  0  0  0  0  0  0
   -0.6340   -3.4523    2.2466 H   0  0  0  0  0  0  0  0  0  0  0  0
  1  2  1  0
  2  3  2  0
  2  4  1  0
  4  5  2  0
  5  6  1  0
  6  7  2  0
  7  8  1  0
  8  9  2  0
  8 10  1  0
 10 11  1  0
 11 12  1  0
 12 13  1  0
 13 14  1  0
 14 15  1  0
 15 16  1  0
 12 17  1  0
 17 18  2  0
 18 19  1  0
 19 20  2  0
 20 21  1  0
 21 22  1  0
 21 23  2  0
  7 24  1  0
 24  4  1  0
 23 10  1  0
 16 12  1  0
 23 17  1  0
  1 25  1  0
  1 26  1  0
  5 27  1  0
  6 28  1  0
 11 29  1  0
 11 30  1  0
 13 31  1  0
 13 32  1  0
 14 33  1  0
 14 34  1  0
 15 35  1  0
 15 36  1  0
 16 37  1  0
 16 38  1  0
 18 39  1  0
 19 40  1  0
 20 41  1  0
M  END
$$$$
OCNT-2308638
     RDKit          3D

 38 41  0  0  0  0  0  0  0  0999 V2000
   -1.6491   -2.2718    0.6711 O   0  0  0  0  0  0  0  0  0  0  0  0
   -1.9156   -1.1149    0.3587 C   0  0  0  0  0  0  0  0  0  0  0  0
   -0.9998   -0.1016    0.1362 N   0  0  0  0  0  0  0  0  0  0  0  0
    0.4062   -0.1792    0.2205 C   0  0  0  0  0  0  0  0  0  0  0  0
    1.1282    0.9863   -0.0558 C   0  0  0  0  0  0  0  0  0  0  0  0
    2.5277    0.9952    0.0049 C   0  0  0  0  0  0  0  0  0  0  0  0
    3.2464   -0.1614    0.3426 C   0  0  0  0  0  0  0  0  0  0  0  0
    4.7117   -0.1563    0.4042 C   0  0  0  0  0  0  0  0  0  0  0  0
    5.5012   -1.1211   -0.2012 C   0  0  0  0  0  0  0  0  0  0  0  0
    6.8522   -1.1437   -0.1649 N   0  0  0  0  0  0  0  0  0  0  0  0
    7.4304   -0.1431    0.5137 C   0  0  0  0  0  0  0  0  0  0  0  0
    6.7901    0.8523    1.1429 N   0  0  0  0  0  0  0  0  0  0  0  0
    5.4410    0.8147    1.0721 C   0  0  0  0  0  0  0  0  0  0  0  0
    2.5104   -1.3238    0.6178 C   0  0  0  0  0  0  0  0  0  0  0  0
    1.1095   -1.3333    0.5585 C   0  0  0  0  0  0  0  0  0  0  0  0
   -3.3707   -0.6956    0.1841 C   0  0  2  0  0  0  0  0  0  0  0  0
   -3.6955   -0.1943   -1.2387 C   0  0  0  0  0  0  0  0  0  0  0  0
   -4.7248    0.8811   -1.0630 C   0  0  2  0  0  0  0  0  0  0  0  0
   -4.7896    1.2593    0.3839 C   0  0  2  0  0  0  0  0  0  0  0  0
   -3.8024    0.4294    1.1479 C   0  0  0  0  0  0  0  0  0  0  0  0
   -5.9692    0.6479   -0.2835 C   0  0  0  0  0  0  0  0  0  0  0  0
   -6.3832   -0.6238    0.0304 F   0  0  0  0  0  0  0  0  0  0  0  0
   -7.0904    1.4032   -0.5311 F   0  0  0  0  0  0  0  0  0  0  0  0
   -1.3698    0.8047   -0.1193 H   0  0  0  0  0  0  0  0  0  0  0  0
    0.6187    1.9075   -0.3271 H   0  0  0  0  0  0  0  0  0  0  0  0
    3.0514    1.9199   -0.2322 H   0  0  0  0  0  0  0  0  0  0  0  0
    5.0574   -1.9361   -0.7683 H   0  0  0  0  0  0  0  0  0  0  0  0
    8.5139   -0.1383    0.5575 H   0  0  0  0  0  0  0  0  0  0  0  0
    4.9454    1.6233    1.6038 H   0  0  0  0  0  0  0  0  0  0  0  0
    3.0170   -2.2460    0.8997 H   0  0  0  0  0  0  0  0  0  0  0  0
    0.6034   -2.2662    0.7876 H   0  0  0  0  0  0  0  0  0  0  0  0
   -3.9931   -1.5782    0.3870 H   0  0  0  0  0  0  0  0  0  0  0  0
   -4.0846   -1.0100   -1.8578 H   0  0  0  0  0  0  0  0  0  0  0  0
   -2.8187    0.2138   -1.7516 H   0  0  0  0  0  0  0  0  0  0  0  0
   -4.7354    1.6380   -1.8317 H   0  0  0  0  0  0  0  0  0  0  0  0
   -4.8480    2.2947    0.6811 H   0  0  0  0  0  0  0  0  0  0  0  0
   -4.2597    0.0118    2.0515 H   0  0  0  0  0  0  0  0  0  0  0  0
   -2.9630    1.0553    1.4675 H   0  0  0  0  0  0  0  0  0  0  0  0
  1  2  2  0
  2  3  1  0
  3  4  1  0
  4  5  1  0
  5  6  2  0
  6  7  1  0
  7  8  1  0
  8  9  2  0
  9 10  1  0
 10 11  2  0
 11 12  1  0
 12 13  2  0
  7 14  2  0
 14 15  1  0
  2 16  1  0
 16 17  1  0
 17 18  1  0
 18 19  1  0
 19 20  1  0
 19 21  1  0
 21 22  1  0
 21 23  1  0
 15  4  2  0
 20 16  1  0
 13  8  1  0
 21 18  1  0
  3 24  1  0
  5 25  1  0
  6 26  1  0
  9 27  1  0
 11 28  1  0
 13 29  1  0
 14 30  1  0
 15 31  1  0
 16 32  1  1
 17 33  1  0
 17 34  1  0
 18 35  1  6
 19 36  1  6
 20 37  1  0
 20 38  1  0
M  END
$$$$
OCNT-2308640
     RDKit          3D

 51 54  0  0  0  0  0  0  0  0999 V2000
    0.4102    2.3563    0.1593 O   0  0  0  0  0  0  0  0  0  0  0  0
    0.5963    1.1418    0.1289 C   0  0  0  0  0  0  0  0  0  0  0  0
   -0.5608    0.2832   -0.2133 C   0  0  0  0  0  0  0  0  0  0  0  0
   -1.3117    0.5901   -1.3517 C   0  0  0  0  0  0  0  0  0  0  0  0
   -2.4273   -0.1841   -1.6785 C   0  0  0  0  0  0  0  0  0  0  0  0
   -2.8097   -1.2466   -0.8549 C   0  0  0  0  0  0  0  0  0  0  0  0
   -3.9644   -1.9991   -1.2119 N   0  0  0  0  0  0  0  0  0  0  0  0
   -5.2356   -2.1772   -0.1137 S   0  0  0  0  0  0  0  0  0  0  0  0
   -4.7417   -2.8948    1.0436 O   0  0  0  0  0  0  0  0  0  0  0  0
   -6.3745   -2.6778   -0.8511 O   0  0  0  0  0  0  0  0  0  0  0  0
   -5.6037   -0.5186    0.3925 C   0  0  0  0  0  0  0  0  0  0  0  0
   -5.4492   -0.1922    1.7494 C   0  0  0  0  0  0  0  0  0  0  0  0
   -5.7287    1.0999    2.1854 C   0  0  0  0  0  0  0  0  0  0  0  0
   -5.5347    1.5029    3.8452 Cl  0  0  0  0  0  0  0  0  0  0  0  0
   -6.1648    2.0681    1.2852 C   0  0  0  0  0  0  0  0  0  0  0  0
   -6.3224    1.7405   -0.0638 C   0  0  0  0  0  0  0  0  0  0  0  0
   -6.0440    0.4456   -0.5188 C   0  0  0  0  0  0  0  0  0  0  0  0
   -6.2433    0.1590   -2.2095 Cl  0  0  0  0  0  0  0  0  0  0  0  0
   -2.0585   -1.5499    0.2826 C   0  0  0  0  0  0  0  0  0  0  0  0
   -0.9422   -0.7773    0.6141 C   0  0  0  0  0  0  0  0  0  0  0  0
    1.8274    0.5471    0.4030 N   0  0  0  0  0  0  0  0  0  0  0  0
    2.9099    1.4168    0.8581 C   0  0  0  0  0  0  0  0  0  0  0  0
    3.9969    0.6341    1.5839 C   0  0  0  0  0  0  0  0  0  0  0  0
    4.5983   -0.4780    0.7037 C   0  0  0  0  0  0  0  0  0  0  0  0
    5.9426   -0.1049    0.1484 C   0  0  0  0  0  0  0  0  0  0  0  0
    6.2844    0.9619   -0.6583 C   0  0  0  0  0  0  0  0  0  0  0  0
    7.6255    0.8607   -0.8881 N   0  0  0  0  0  0  0  0  0  0  0  0
    8.1885   -0.1997   -0.2900 N   0  0  0  0  0  0  0  0  0  0  0  0
    7.1689   -0.7854    0.3401 C   0  0  0  0  0  0  0  0  0  0  0  0
    3.6377   -0.9304   -0.4109 C   0  0  0  0  0  0  0  0  0  0  0  0
    2.1817   -0.8247    0.0274 C   0  0  0  0  0  0  0  0  0  0  0  0
   -1.0288    1.4327   -1.9794 H   0  0  0  0  0  0  0  0  0  0  0  0
   -2.9960    0.0648   -2.5706 H   0  0  0  0  0  0  0  0  0  0  0  0
   -4.3094   -1.9240   -2.1695 H   0  0  0  0  0  0  0  0  0  0  0  0
   -5.1122   -0.9383    2.4666 H   0  0  0  0  0  0  0  0  0  0  0  0
   -6.3826    3.0782    1.6246 H   0  0  0  0  0  0  0  0  0  0  0  0
   -6.6623    2.5073   -0.7577 H   0  0  0  0  0  0  0  0  0  0  0  0
   -2.3240   -2.3888    0.9215 H   0  0  0  0  0  0  0  0  0  0  0  0
   -0.3848   -0.9995    1.5204 H   0  0  0  0  0  0  0  0  0  0  0  0
    2.4994    2.1856    1.5228 H   0  0  0  0  0  0  0  0  0  0  0  0
    3.3156    1.9304   -0.0214 H   0  0  0  0  0  0  0  0  0  0  0  0
    3.5449    0.1666    2.4696 H   0  0  0  0  0  0  0  0  0  0  0  0
    4.7682    1.3177    1.9580 H   0  0  0  0  0  0  0  0  0  0  0  0
    4.7574   -1.3411    1.3670 H   0  0  0  0  0  0  0  0  0  0  0  0
    5.7046    1.7690   -1.0831 H   0  0  0  0  0  0  0  0  0  0  0  0
    8.2177    1.4737   -1.4390 H   0  0  0  0  0  0  0  0  0  0  0  0
    7.3573   -1.6843    0.9138 H   0  0  0  0  0  0  0  0  0  0  0  0
    3.8684   -1.9631   -0.7002 H   0  0  0  0  0  0  0  0  0  0  0  0
    3.7756   -0.3207   -1.3138 H   0  0  0  0  0  0  0  0  0  0  0  0
    2.0050   -1.4601    0.9027 H   0  0  0  0  0  0  0  0  0  0  0  0
    1.5352   -1.1735   -0.7835 H   0  0  0  0  0  0  0  0  0  0  0  0
  1  2  2  0
  2  3  1  0
  3  4  1  0
  4  5  2  0
  5  6  1  0
  6  7  1  0
  7  8  1  0
  8  9  2  0
  8 10  2  0
  8 11  1  0
 11 12  1  0
 12 13  2  0
 13 14  1  0
 13 15  1  0
 15 16  2  0
 16 17  1  0
 17 18  1  0
  6 19  2  0
 19 20  1  0
  2 21  1  0
 21 22  1  0
 22 23  1  0
 23 24  1  0
 24 25  1  0
 25 26  2  0
 26 27  1  0
 27 28  1  0
 28 29  2  0
 24 30  1  0
 30 31  1  0
 20  3  2  0
 31 21  1  0
 17 11  2  0
 29 25  1  0
  4 32  1  0
  5 33  1  0
  7 34  1  0
 12 35  1  0
 15 36  1  0
 16 37  1  0
 19 38  1  0
 20 39  1  0
 22 40  1  0
 22 41  1  0
 23 42  1  0
 23 43  1  0
 24 44  1  0
 26 45  1  0
 27 46  1  0
 29 47  1  0
 30 48  1  0
 30 49  1  0
 31 50  1  0
 31 51  1  0
M  END
$$$$
OCNT-2308641
     RDKit          3D

 48 51  0  0  0  0  0  0  0  0999 V2000
   -4.3601   -0.9974    2.9842 C   0  0  0  0  0  0  0  0  0  0  0  0
   -3.4282   -1.5508    1.9233 C   0  0  0  0  0  0  0  0  0  0  0  0
   -3.3501   -0.6972    0.7664 N   0  0  0  0  0  0  0  0  0  0  0  0
   -2.3430    0.2573    0.5260 C   0  0  0  0  0  0  0  0  0  0  0  0
   -1.3624    0.5004    1.2175 O   0  0  0  0  0  0  0  0  0  0  0  0
   -2.6523    0.8589   -0.7082 N   0  0  0  0  0  0  0  0  0  0  0  0
   -1.8081    1.8112   -1.3704 C   0  0  0  0  0  0  0  0  0  0  0  0
   -0.6878    1.0441   -2.0650 C   0  0  0  0  0  0  0  0  0  0  0  0
   -0.7773    0.6255   -3.2167 O   0  0  0  0  0  0  0  0  0  0  0  0
    0.3928    0.7871   -1.2414 N   0  0  0  0  0  0  0  0  0  0  0  0
    1.4010   -0.1543   -1.6447 C   0  0  0  0  0  0  0  0  0  0  0  0
    2.6719    0.0314   -0.8727 C   0  0  0  0  0  0  0  0  0  0  0  0
    2.7636   -0.2820    0.4832 C   0  0  0  0  0  0  0  0  0  0  0  0
    3.9731   -0.1146    1.1582 C   0  0  0  0  0  0  0  0  0  0  0  0
    5.0707    0.3646    0.4524 C   0  0  0  0  0  0  0  0  0  0  0  0
    6.3343    0.5062    1.0886 N   0  0  0  0  0  0  0  0  0  0  0  0
    6.6830    0.2573    2.3970 C   0  0  0  0  0  0  0  0  0  0  0  0
    8.0311    0.5143    2.4855 C   0  0  0  0  0  0  0  0  0  0  0  0
    8.5263    0.9240    1.2819 N   0  0  0  0  0  0  0  0  0  0  0  0
    7.4912    0.9218    0.4686 C   0  0  0  0  0  0  0  0  0  0  0  0
    4.9999    0.6921   -0.8611 N   0  0  0  0  0  0  0  0  0  0  0  0
    3.8133    0.5235   -1.4875 C   0  0  0  0  0  0  0  0  0  0  0  0
   -3.7992    0.2570   -1.2369 C   0  0  0  0  0  0  0  0  0  0  0  0
   -4.4522    0.4700   -2.4302 C   0  0  0  0  0  0  0  0  0  0  0  0
   -5.5946   -0.3018   -2.6804 C   0  0  0  0  0  0  0  0  0  0  0  0
   -6.0481   -1.2546   -1.7467 C   0  0  0  0  0  0  0  0  0  0  0  0
   -5.3672   -1.4632   -0.5459 C   0  0  0  0  0  0  0  0  0  0  0  0
   -4.2438   -0.6951   -0.3150 C   0  0  0  0  0  0  0  0  0  0  0  0
   -4.3917   -1.6648    3.8499 H   0  0  0  0  0  0  0  0  0  0  0  0
   -5.3764   -0.8901    2.5954 H   0  0  0  0  0  0  0  0  0  0  0  0
   -4.0257   -0.0138    3.3261 H   0  0  0  0  0  0  0  0  0  0  0  0
   -2.4277   -1.6450    2.3537 H   0  0  0  0  0  0  0  0  0  0  0  0
   -3.7453   -2.5497    1.6112 H   0  0  0  0  0  0  0  0  0  0  0  0
   -2.3611    2.4042   -2.0951 H   0  0  0  0  0  0  0  0  0  0  0  0
   -1.3820    2.4825   -0.6250 H   0  0  0  0  0  0  0  0  0  0  0  0
    0.2594    0.9580   -0.2517 H   0  0  0  0  0  0  0  0  0  0  0  0
    1.5780   -0.0671   -2.7166 H   0  0  0  0  0  0  0  0  0  0  0  0
    1.0032   -1.1565   -1.4708 H   0  0  0  0  0  0  0  0  0  0  0  0
    1.8976   -0.6646    1.0183 H   0  0  0  0  0  0  0  0  0  0  0  0
    4.0247   -0.3795    2.2051 H   0  0  0  0  0  0  0  0  0  0  0  0
    5.9810   -0.0678    3.1449 H   0  0  0  0  0  0  0  0  0  0  0  0
    8.6688    0.4285    3.3578 H   0  0  0  0  0  0  0  0  0  0  0  0
    7.5090    1.2045   -0.5760 H   0  0  0  0  0  0  0  0  0  0  0  0
    3.8115    0.8034   -2.5373 H   0  0  0  0  0  0  0  0  0  0  0  0
   -4.1103    1.1943   -3.1614 H   0  0  0  0  0  0  0  0  0  0  0  0
   -6.1442   -0.1699   -3.6147 H   0  0  0  0  0  0  0  0  0  0  0  0
   -6.9384   -1.8379   -1.9741 H   0  0  0  0  0  0  0  0  0  0  0  0
   -5.7085   -2.2046    0.1627 H   0  0  0  0  0  0  0  0  0  0  0  0
  1  2  1  0
  2  3  1  0
  3  4  1  0
  4  5  2  0
  4  6  1  0
  6  7  1  0
  7  8  1  0
  8  9  2  0
  8 10  1  0
 10 11  1  0
 11 12  1  0
 12 13  2  0
 13 14  1  0
 14 15  2  0
 15 16  1  0
 16 17  1  0
 17 18  2  0
 18 19  1  0
 19 20  2  0
 15 21  1  0
 21 22  2  0
  6 23  1  0
 23 24  2  0
 24 25  1  0
 25 26  2  0
 26 27  1  0
 27 28  2  0
 28  3  1  0
 22 12  1  0
 28 23  1  0
 20 16  1  0
  1 29  1  0
  1 30  1  0
  1 31  1  0
  2 32  1  0
  2 33  1  0
  7 34  1  0
  7 35  1  0
 10 36  1  0
 11 37  1  0
 11 38  1  0
 13 39  1  0
 14 40  1  0
 17 41  1  0
 18 42  1  0
 20 43  1  0
 22 44  1  0
 24 45  1  0
 25 46  1  0
 26 47  1  0
 27 48  1  0
M  END
$$$$
OCNT-2308647
     RDKit          3D

 56 58  0  0  0  0  0  0  0  0999 V2000
   -3.3313   -1.3611    2.5407 C   0  0  0  0  0  0  0  0  0  0  0  0
   -3.3039   -0.6501    1.2364 C   0  0  0  0  0  0  0  0  0  0  0  0
   -4.0352    0.4551    1.0648 N   0  0  0  0  0  0  0  0  0  0  0  0
   -3.7791    0.8353   -0.2030 N   0  0  0  0  0  0  0  0  0  0  0  0
   -4.4022    2.0539   -0.7193 C   0  0  0  0  0  0  0  0  0  0  0  0
   -3.7636    3.2959   -0.1015 C   0  0  0  0  0  0  0  0  0  0  0  0
   -5.9198    2.0484   -0.5239 C   0  0  0  0  0  0  0  0  0  0  0  0
   -2.8993    0.0007   -0.8501 C   0  0  0  0  0  0  0  0  0  0  0  0
   -2.4452    0.2091   -2.2497 C   0  0  0  0  0  0  0  0  0  0  0  0
   -2.5609   -0.9838    0.0691 C   0  0  0  0  0  0  0  0  0  0  0  0
   -1.6357   -2.1470   -0.1082 C   0  0  0  0  0  0  0  0  0  0  0  0
   -0.2546   -1.6952   -0.3295 N   0  0  0  0  0  0  0  0  0  0  0  0
    0.3415   -1.0443    0.8333 C   0  0  0  0  0  0  0  0  0  0  0  0
    1.6580   -0.3643    0.4359 C   0  0  0  0  0  0  0  0  0  0  0  0
    2.4966   -1.1766   -0.5760 C   0  0  0  0  0  0  0  0  0  0  0  0
    4.0083   -1.0004   -0.3377 C   0  0  0  0  0  0  0  0  0  0  0  0
    4.7423   -1.8462   -1.2273 O   0  0  0  0  0  0  0  0  0  0  0  0
    4.4748    0.3964   -0.6329 C   0  0  0  0  0  0  0  0  0  0  0  0
    4.4786    0.9498   -1.8336 N   0  0  0  0  0  0  0  0  0  0  0  0
    4.9901    2.2091   -1.6644 C   0  0  0  0  0  0  0  0  0  0  0  0
    5.3196    2.4270   -0.3509 C   0  0  0  0  0  0  0  0  0  0  0  0
    5.0080    1.2612    0.2938 N   0  0  0  0  0  0  0  0  0  0  0  0
    5.2370    0.9982    1.6934 C   0  0  0  0  0  0  0  0  0  0  0  0
    2.0749   -2.6508   -0.5321 C   0  0  0  0  0  0  0  0  0  0  0  0
    0.5740   -2.8109   -0.8108 C   0  0  0  0  0  0  0  0  0  0  0  0
   -3.7203   -2.3770    2.4130 H   0  0  0  0  0  0  0  0  0  0  0  0
   -3.9678   -0.8466    3.2697 H   0  0  0  0  0  0  0  0  0  0  0  0
   -2.3213   -1.4258    2.9628 H   0  0  0  0  0  0  0  0  0  0  0  0
   -4.2135    2.0772   -1.7974 H   0  0  0  0  0  0  0  0  0  0  0  0
   -3.9250    3.3388    0.9809 H   0  0  0  0  0  0  0  0  0  0  0  0
   -2.6827    3.3027   -0.2765 H   0  0  0  0  0  0  0  0  0  0  0  0
   -4.1827    4.2062   -0.5417 H   0  0  0  0  0  0  0  0  0  0  0  0
   -6.3712    2.9288   -0.9950 H   0  0  0  0  0  0  0  0  0  0  0  0
   -6.3657    1.1548   -0.9768 H   0  0  0  0  0  0  0  0  0  0  0  0
   -6.1966    2.0570    0.5370 H   0  0  0  0  0  0  0  0  0  0  0  0
   -1.7502   -0.5723   -2.5696 H   0  0  0  0  0  0  0  0  0  0  0  0
   -3.2969    0.1899   -2.9387 H   0  0  0  0  0  0  0  0  0  0  0  0
   -1.9332    1.1717   -2.3508 H   0  0  0  0  0  0  0  0  0  0  0  0
   -1.6918   -2.8292    0.7492 H   0  0  0  0  0  0  0  0  0  0  0  0
   -1.9854   -2.7096   -0.9843 H   0  0  0  0  0  0  0  0  0  0  0  0
   -0.3080   -0.2664    1.2505 H   0  0  0  0  0  0  0  0  0  0  0  0
    0.5154   -1.7709    1.6386 H   0  0  0  0  0  0  0  0  0  0  0  0
    2.2242   -0.1756    1.3555 H   0  0  0  0  0  0  0  0  0  0  0  0
    1.4436    0.6194   -0.0030 H   0  0  0  0  0  0  0  0  0  0  0  0
    2.2598   -0.8147   -1.5883 H   0  0  0  0  0  0  0  0  0  0  0  0
    4.2673   -1.3122    0.6792 H   0  0  0  0  0  0  0  0  0  0  0  0
    4.7737   -1.3643   -2.0801 H   0  0  0  0  0  0  0  0  0  0  0  0
    5.0970    2.8901   -2.4979 H   0  0  0  0  0  0  0  0  0  0  0  0
    5.7487    3.2802    0.1535 H   0  0  0  0  0  0  0  0  0  0  0  0
    5.6926    1.8785    2.1595 H   0  0  0  0  0  0  0  0  0  0  0  0
    5.9149    0.1441    1.7814 H   0  0  0  0  0  0  0  0  0  0  0  0
    4.2773    0.7870    2.1712 H   0  0  0  0  0  0  0  0  0  0  0  0
    2.3107   -3.0674    0.4561 H   0  0  0  0  0  0  0  0  0  0  0  0
    2.6330   -3.2436   -1.2672 H   0  0  0  0  0  0  0  0  0  0  0  0
    0.4227   -2.8974   -1.8915 H   0  0  0  0  0  0  0  0  0  0  0  0
    0.2585   -3.7625   -0.3687 H   0  0  0  0  0  0  0  0  0  0  0  0
  1  2  1  0
  2  3  2  0
  3  4  1  0
  4  5  1  0
  5  6  1  0
  5  7  1  0
  4  8  1  0
  8  9  1  0
  8 10  2  0
 10 11  1  0
 11 12  1  0
 12 13  1  0
 13 14  1  0
 14 15  1  0
 15 16  1  0
 16 17  1  0
 16 18  1  0
 18 19  2  0
 19 20  1  0
 20 21  2  0
 21 22  1  0
 22 23  1  0
 15 24  1  0
 24 25  1  0
 10  2  1  0
 25 12  1  0
 22 18  1  0
  1 26  1  0
  1 27  1  0
  1 28  1  0
  5 29  1  0
  6 30  1  0
  6 31  1  0
  6 32  1  0
  7 33  1  0
  7 34  1  0
  7 35  1  0
  9 36  1  0
  9 37  1  0
  9 38  1  0
 11 39  1  0
 11 40  1  0
 13 41  1  0
 13 42  1  0
 14 43  1  0
 14 44  1  0
 15 45  1  0
 16 46  1  0
 17 47  1  0
 20 48  1  0
 21 49  1  0
 23 50  1  0
 23 51  1  0
 23 52  1  0
 24 53  1  0
 24 54  1  0
 25 55  1  0
 25 56  1  0
M  END
$$$$
OCNT-2308660
     RDKit          3D

 36 38  0  0  0  0  0  0  0  0999 V2000
    0.6846   -0.3445   -1.9792 O   0  0  0  0  0  0  0  0  0  0  0  0
    0.5965   -0.1699   -0.7693 C   0  0  0  0  0  0  0  0  0  0  0  0
    1.6664   -0.1649    0.0974 N   0  0  0  0  0  0  0  0  0  0  0  0
    3.0350   -0.1531   -0.3727 C   0  0  0  0  0  0  0  0  0  0  0  0
    3.9978   -0.7185    0.6708 C   0  0  0  0  0  0  0  0  0  0  0  0
    5.4158   -0.6717    0.2213 C   0  0  0  0  0  0  0  0  0  0  0  0
    6.1124   -1.6125   -0.5074 C   0  0  0  0  0  0  0  0  0  0  0  0
    7.3727   -1.1168   -0.6722 N   0  0  0  0  0  0  0  0  0  0  0  0
    7.5506    0.0839   -0.0994 N   0  0  0  0  0  0  0  0  0  0  0  0
    6.3628    0.3540    0.4448 C   0  0  0  0  0  0  0  0  0  0  0  0
   -0.6745    0.0744   -0.0866 C   0  0  0  0  0  0  0  0  0  0  0  0
   -1.9292    0.1000   -0.6609 C   0  0  0  0  0  0  0  0  0  0  0  0
   -2.8233    0.3687    0.3509 N   0  0  0  0  0  0  0  0  0  0  0  0
   -4.2412    0.4900    0.2431 C   0  0  0  0  0  0  0  0  0  0  0  0
   -5.0237    0.7694    1.3732 C   0  0  0  0  0  0  0  0  0  0  0  0
   -6.4143    0.8870    1.2604 C   0  0  0  0  0  0  0  0  0  0  0  0
   -7.0411    0.7280    0.0234 C   0  0  0  0  0  0  0  0  0  0  0  0
   -8.7592    0.8874   -0.0357 Cl  0  0  0  0  0  0  0  0  0  0  0  0
   -6.2706    0.4495   -1.1079 C   0  0  0  0  0  0  0  0  0  0  0  0
   -6.9727    0.2391   -2.6736 Cl  0  0  0  0  0  0  0  0  0  0  0  0
   -4.8773    0.3311   -0.9988 C   0  0  0  0  0  0  0  0  0  0  0  0
   -2.0559    0.4964    1.4915 C   0  0  0  0  0  0  0  0  0  0  0  0
   -0.7705    0.3294    1.2675 N   0  0  0  0  0  0  0  0  0  0  0  0
    1.4444    0.1541    1.0374 H   0  0  0  0  0  0  0  0  0  0  0  0
    3.2846    0.8882   -0.6082 H   0  0  0  0  0  0  0  0  0  0  0  0
    3.1014   -0.7215   -1.3079 H   0  0  0  0  0  0  0  0  0  0  0  0
    3.8943   -0.1590    1.6094 H   0  0  0  0  0  0  0  0  0  0  0  0
    3.7199   -1.7544    0.9040 H   0  0  0  0  0  0  0  0  0  0  0  0
    5.8279   -2.5713   -0.9174 H   0  0  0  0  0  0  0  0  0  0  0  0
    8.1560   -1.5387   -1.1603 H   0  0  0  0  0  0  0  0  0  0  0  0
    6.2338    1.2860    0.9809 H   0  0  0  0  0  0  0  0  0  0  0  0
   -2.2132   -0.0533   -1.6913 H   0  0  0  0  0  0  0  0  0  0  0  0
   -4.5956    0.9038    2.3627 H   0  0  0  0  0  0  0  0  0  0  0  0
   -7.0052    1.1041    2.1482 H   0  0  0  0  0  0  0  0  0  0  0  0
   -4.3171    0.1138   -1.9040 H   0  0  0  0  0  0  0  0  0  0  0  0
   -2.4724    0.7117    2.4653 H   0  0  0  0  0  0  0  0  0  0  0  0
  1  2  2  0
  2  3  1  0
  3  4  1  0
  4  5  1  0
  5  6  1  0
  6  7  2  0
  7  8  1  0
  8  9  1  0
  9 10  2  0
  2 11  1  0
 11 12  2  0
 12 13  1  0
 13 14  1  0
 14 15  1  0
 15 16  2  0
 16 17  1  0
 17 18  1  0
 17 19  2  0
 19 20  1  0
 19 21  1  0
 13 22  1  0
 22 23  2  0
 10  6  1  0
 23 11  1  0
 21 14  2  0
  3 24  1  0
  4 25  1  0
  4 26  1  0
  5 27  1  0
  5 28  1  0
  7 29  1  0
  8 30  1  0
 10 31  1  0
 12 32  1  0
 15 33  1  0
 16 34  1  0
 21 35  1  0
 22 36  1  0
M  END
$$$$
OCNT-2308661
     RDKit          3D

 38 41  0  0  0  0  0  0  0  0999 V2000
    7.1454    0.8594   -2.0160 C   0  0  0  0  0  0  0  0  0  0  0  0
    6.5854   -0.2291   -1.2945 O   0  0  0  0  0  0  0  0  0  0  0  0
    5.3049   -0.0949   -0.8267 C   0  0  0  0  0  0  0  0  0  0  0  0
    4.5101    1.0400   -1.0059 C   0  0  0  0  0  0  0  0  0  0  0  0
    3.2068    1.0875   -0.4900 C   0  0  0  0  0  0  0  0  0  0  0  0
    2.6701    0.0027    0.2155 C   0  0  0  0  0  0  0  0  0  0  0  0
    1.3231    0.0253    0.7597 C   0  0  0  0  0  0  0  0  0  0  0  0
    0.3949    1.0400    0.6669 C   0  0  0  0  0  0  0  0  0  0  0  0
   -0.6916    0.5539    1.3351 N   0  0  0  0  0  0  0  0  0  0  0  0
   -1.9646    1.2047    1.5525 C   0  0  0  0  0  0  0  0  0  0  0  0
   -3.1471    0.4352    0.9948 C   0  0  0  0  0  0  0  0  0  0  0  0
   -4.2371    0.4064    1.7167 N   0  0  0  0  0  0  0  0  0  0  0  0
   -5.3071   -0.2660    1.1970 C   0  0  0  0  0  0  0  0  0  0  0  0
   -6.5690   -0.5118    1.6864 C   0  0  0  0  0  0  0  0  0  0  0  0
   -7.2142   -1.2524    0.6820 C   0  0  0  0  0  0  0  0  0  0  0  0
   -6.4382   -1.4710   -0.3824 N   0  0  0  0  0  0  0  0  0  0  0  0
   -5.2613   -0.8711   -0.0563 N   0  0  0  0  0  0  0  0  0  0  0  0
   -4.1021   -0.8134   -0.8373 C   0  0  0  0  0  0  0  0  0  0  0  0
   -4.0968   -1.4142   -2.0858 O   0  0  0  0  0  0  0  0  0  0  0  0
   -3.0180   -0.1799   -0.3721 C   0  0  0  0  0  0  0  0  0  0  0  0
   -0.4579   -0.6721    1.8264 N   0  0  0  0  0  0  0  0  0  0  0  0
    0.7729   -1.0123    1.4707 N   0  0  0  0  0  0  0  0  0  0  0  0
    3.4685   -1.1340    0.3947 C   0  0  0  0  0  0  0  0  0  0  0  0
    4.7691   -1.1821   -0.1197 C   0  0  0  0  0  0  0  0  0  0  0  0
    5.6896   -2.6236    0.1450 Cl  0  0  0  0  0  0  0  0  0  0  0  0
    7.2168    1.7538   -1.3884 H   0  0  0  0  0  0  0  0  0  0  0  0
    6.5777    1.0608   -2.9303 H   0  0  0  0  0  0  0  0  0  0  0  0
    8.1611    0.5782   -2.3106 H   0  0  0  0  0  0  0  0  0  0  0  0
    4.8716    1.9111   -1.5432 H   0  0  0  0  0  0  0  0  0  0  0  0
    2.6262    1.9919   -0.6530 H   0  0  0  0  0  0  0  0  0  0  0  0
    0.4057    2.0173    0.2093 H   0  0  0  0  0  0  0  0  0  0  0  0
   -1.9362    2.1928    1.0813 H   0  0  0  0  0  0  0  0  0  0  0  0
   -2.0745    1.3379    2.6344 H   0  0  0  0  0  0  0  0  0  0  0  0
   -6.9599   -0.1948    2.6418 H   0  0  0  0  0  0  0  0  0  0  0  0
   -8.2247   -1.6419    0.6824 H   0  0  0  0  0  0  0  0  0  0  0  0
   -4.9826   -1.8279   -2.1805 H   0  0  0  0  0  0  0  0  0  0  0  0
   -2.0974   -0.1131   -0.9336 H   0  0  0  0  0  0  0  0  0  0  0  0
    3.0803   -1.9934    0.9391 H   0  0  0  0  0  0  0  0  0  0  0  0
  1  2  1  0
  2  3  1  0
  3  4  1  0
  4  5  2  0
  5  6  1  0
  6  7  1  0
  7  8  2  0
  8  9  1  0
  9 10  1  0
 10 11  1  0
 11 12  2  0
 12 13  1  0
 13 14  2  0
 14 15  1  0
 15 16  2  0
 16 17  1  0
 17 18  1  0
 18 19  1  0
 18 20  2  0
  9 21  1  0
 21 22  2  0
  6 23  2  0
 23 24  1  0
 24 25  1  0
 24  3  2  0
 22  7  1  0
 20 11  1  0
 17 13  1  0
  1 26  1  0
  1 27  1  0
  1 28  1  0
  4 29  1  0
  5 30  1  0
  8 31  1  0
 10 32  1  0
 10 33  1  0
 14 34  1  0
 15 35  1  0
 19 36  1  0
 20 37  1  0
 23 38  1  0
M  END
$$$$
OCNT-2308666
     RDKit          3D

 53 56  0  0  0  0  0  0  0  0999 V2000
   -4.5392   -4.4363   -1.6275 C   0  0  0  0  0  0  0  0  0  0  0  0
   -4.4173   -4.0603   -0.2615 O   0  0  0  0  0  0  0  0  0  0  0  0
   -3.6344   -2.9733    0.0121 C   0  0  0  0  0  0  0  0  0  0  0  0
   -3.0321   -2.1377   -0.9266 C   0  0  0  0  0  0  0  0  0  0  0  0
   -2.2534   -1.0525   -0.5069 C   0  0  0  0  0  0  0  0  0  0  0  0
   -2.0591   -0.7874    0.8586 C   0  0  0  0  0  0  0  0  0  0  0  0
   -1.2362    0.3961    1.3407 C   0  0  0  0  0  0  0  0  0  0  0  0
   -1.9110    1.7254    1.0231 C   0  0  0  0  0  0  0  0  0  0  0  0
   -0.9885    2.2452   -0.0525 C   0  0  0  0  0  0  0  0  0  0  0  0
   -1.3144    3.4598   -0.8366 C   0  0  0  0  0  0  0  0  0  0  0  0
   -0.4562    3.8499   -1.8726 C   0  0  0  0  0  0  0  0  0  0  0  0
   -0.7395    4.9885   -2.6291 C   0  0  0  0  0  0  0  0  0  0  0  0
   -1.8789    5.7422   -2.3541 C   0  0  0  0  0  0  0  0  0  0  0  0
   -2.7358    5.3601   -1.3230 C   0  0  0  0  0  0  0  0  0  0  0  0
   -2.4561    4.2217   -0.5626 C   0  0  0  0  0  0  0  0  0  0  0  0
    0.1140    1.5708   -0.2092 N   0  0  0  0  0  0  0  0  0  0  0  0
    0.0474    0.5076    0.6547 N   0  0  0  0  0  0  0  0  0  0  0  0
    1.1286   -0.3236    0.9070 C   0  0  0  0  0  0  0  0  0  0  0  0
    1.0957   -1.1936    1.7769 O   0  0  0  0  0  0  0  0  0  0  0  0
    2.3424   -0.0415    0.0434 C   0  0  0  0  0  0  0  0  0  0  0  0
    3.3852   -1.0453    0.1718 N   0  0  0  0  0  0  0  0  0  0  0  0
    3.4929   -2.1544   -0.6194 C   0  0  0  0  0  0  0  0  0  0  0  0
    4.5821   -2.8347   -0.3512 N   0  0  0  0  0  0  0  0  0  0  0  0
    5.1971   -2.1550    0.6731 C   0  0  0  0  0  0  0  0  0  0  0  0
    6.4612   -2.6625    1.2531 C   0  0  0  0  0  0  0  0  0  0  0  0
    4.4696   -1.0280    1.0179 C   0  0  0  0  0  0  0  0  0  0  0  0
    4.7035    0.0080    2.0513 C   0  0  0  0  0  0  0  0  0  0  0  0
   -2.6696   -1.6342    1.7934 C   0  0  0  0  0  0  0  0  0  0  0  0
   -3.4506   -2.7132    1.3706 C   0  0  0  0  0  0  0  0  0  0  0  0
   -5.0629   -3.6648   -2.2016 H   0  0  0  0  0  0  0  0  0  0  0  0
   -5.1398   -5.3499   -1.6702 H   0  0  0  0  0  0  0  0  0  0  0  0
   -3.5618   -4.6605   -2.0675 H   0  0  0  0  0  0  0  0  0  0  0  0
   -3.1459   -2.3012   -1.9931 H   0  0  0  0  0  0  0  0  0  0  0  0
   -1.7929   -0.4192   -1.2628 H   0  0  0  0  0  0  0  0  0  0  0  0
   -1.0445    0.3027    2.4166 H   0  0  0  0  0  0  0  0  0  0  0  0
   -1.8630    2.4047    1.8807 H   0  0  0  0  0  0  0  0  0  0  0  0
   -2.9440    1.6347    0.6776 H   0  0  0  0  0  0  0  0  0  0  0  0
    0.4371    3.2723   -2.1003 H   0  0  0  0  0  0  0  0  0  0  0  0
   -0.0704    5.2869   -3.4328 H   0  0  0  0  0  0  0  0  0  0  0  0
   -2.0989    6.6292   -2.9438 H   0  0  0  0  0  0  0  0  0  0  0  0
   -3.6232    5.9522   -1.1095 H   0  0  0  0  0  0  0  0  0  0  0  0
   -3.1416    3.9557    0.2366 H   0  0  0  0  0  0  0  0  0  0  0  0
    2.7702    0.9296    0.3121 H   0  0  0  0  0  0  0  0  0  0  0  0
    2.0520   -0.0175   -1.0133 H   0  0  0  0  0  0  0  0  0  0  0  0
    2.7607   -2.4143   -1.3726 H   0  0  0  0  0  0  0  0  0  0  0  0
    6.8370   -3.5191    0.6848 H   0  0  0  0  0  0  0  0  0  0  0  0
    6.3041   -2.9823    2.2876 H   0  0  0  0  0  0  0  0  0  0  0  0
    7.2304   -1.8842    1.2418 H   0  0  0  0  0  0  0  0  0  0  0  0
    5.5371   -0.2668    2.7052 H   0  0  0  0  0  0  0  0  0  0  0  0
    4.9450    0.9680    1.5847 H   0  0  0  0  0  0  0  0  0  0  0  0
    3.8173    0.1386    2.6807 H   0  0  0  0  0  0  0  0  0  0  0  0
   -2.5357   -1.4725    2.8608 H   0  0  0  0  0  0  0  0  0  0  0  0
   -3.9133   -3.3640    2.1092 H   0  0  0  0  0  0  0  0  0  0  0  0
  1  2  1  0
  2  3  1  0
  3  4  1  0
  4  5  2  0
  5  6  1  0
  6  7  1  0
  7  8  1  0
  8  9  1  0
  9 10  1  0
 10 11  2  0
 11 12  1  0
 12 13  2  0
 13 14  1  0
 14 15  2  0
  9 16  2  0
 16 17  1  0
 17 18  1  0
 18 19  2  0
 18 20  1  0
 20 21  1  0
 21 22  1  0
 22 23  2  0
 23 24  1  0
 24 25  1  0
 24 26  2  0
 26 27  1  0
  6 28  2  0
 28 29  1  0
 29  3  2  0
 17  7  1  0
 26 21  1  0
 15 10  1  0
  1 30  1  0
  1 31  1  0
  1 32  1  0
  4 33  1  0
  5 34  1  0
  7 35  1  0
  8 36  1  0
  8 37  1  0
 11 38  1  0
 12 39  1  0
 13 40  1  0
 14 41  1  0
 15 42  1  0
 20 43  1  0
 20 44  1  0
 22 45  1  0
 25 46  1  0
 25 47  1  0
 25 48  1  0
 27 49  1  0
 27 50  1  0
 27 51  1  0
 28 52  1  0
 29 53  1  0
M  END
$$$$
OCNT-2308676
     RDKit          3D

 49 52  0  0  0  0  0  0  0  0999 V2000
   -3.1464   -0.9012   -3.7552 C   0  0  0  0  0  0  0  0  0  0  0  0
   -2.5535   -0.6838   -2.3961 C   0  0  0  0  0  0  0  0  0  0  0  0
   -1.1899   -0.7945   -2.2046 C   0  0  0  0  0  0  0  0  0  0  0  0
   -0.6930   -0.5778   -0.9307 C   0  0  0  0  0  0  0  0  0  0  0  0
    0.6857   -0.6542   -0.6829 N   0  0  0  0  0  0  0  0  0  0  0  0
    1.0919   -0.1837    0.6534 C   0  0  0  0  0  0  0  0  0  0  0  0
    2.5675   -0.4798    0.9240 C   0  0  0  0  0  0  0  0  0  0  0  0
    3.3756   -0.4511   -0.3713 C   0  0  0  0  0  0  0  0  0  0  0  0
    4.7595   -0.7343   -0.1168 O   0  0  0  0  0  0  0  0  0  0  0  0
    5.5230    0.3521    0.2531 C   0  0  0  0  0  0  0  0  0  0  0  0
    6.8832    0.1419    0.4389 C   0  0  0  0  0  0  0  0  0  0  0  0
    7.7351    1.1295    0.8118 N   0  0  0  0  0  0  0  0  0  0  0  0
    7.1601    2.3394    0.9916 C   0  0  0  0  0  0  0  0  0  0  0  0
    5.8022    2.5499    0.8100 C   0  0  0  0  0  0  0  0  0  0  0  0
    4.9528    1.5631    0.4398 N   0  0  0  0  0  0  0  0  0  0  0  0
    2.8655   -1.5383   -1.3320 C   0  0  0  0  0  0  0  0  0  0  0  0
    1.3804   -1.8541   -1.1478 C   0  0  0  0  0  0  0  0  0  0  0  0
   -1.5235   -0.2319    0.0685 N   0  0  0  0  0  0  0  0  0  0  0  0
   -2.8410   -0.1452   -0.1938 C   0  0  0  0  0  0  0  0  0  0  0  0
   -3.7426    0.2213    0.9192 C   0  0  0  0  0  0  0  0  0  0  0  0
   -3.2438    0.4858    2.2120 C   0  0  0  0  0  0  0  0  0  0  0  0
   -4.0865    0.8339    3.2735 C   0  0  0  0  0  0  0  0  0  0  0  0
   -5.4602    0.9276    3.0701 C   0  0  0  0  0  0  0  0  0  0  0  0
   -5.9815    0.6704    1.7977 C   0  0  0  0  0  0  0  0  0  0  0  0
   -7.4300    0.7670    1.5757 N   0  0  0  0  0  0  0  0  0  0  0  0
   -8.1401    1.0895    2.5394 O   0  0  0  0  0  0  0  0  0  0  0  0
   -7.8604    0.5205    0.4402 O   0  0  0  0  0  0  0  0  0  0  0  0
   -5.1360    0.3214    0.7330 C   0  0  0  0  0  0  0  0  0  0  0  0
   -3.3945   -0.3686   -1.3972 N   0  0  0  0  0  0  0  0  0  0  0  0
   -2.7517   -0.1648   -4.4622 H   0  0  0  0  0  0  0  0  0  0  0  0
   -2.9109   -1.9078   -4.1146 H   0  0  0  0  0  0  0  0  0  0  0  0
   -4.2359   -0.7968   -3.7265 H   0  0  0  0  0  0  0  0  0  0  0  0
   -0.5364   -1.0105   -3.0392 H   0  0  0  0  0  0  0  0  0  0  0  0
    0.5024   -0.6553    1.4502 H   0  0  0  0  0  0  0  0  0  0  0  0
    0.9318    0.9004    0.7095 H   0  0  0  0  0  0  0  0  0  0  0  0
    2.6712   -1.4692    1.3902 H   0  0  0  0  0  0  0  0  0  0  0  0
    2.9579    0.2253    1.6661 H   0  0  0  0  0  0  0  0  0  0  0  0
    3.2570    0.5156   -0.8805 H   0  0  0  0  0  0  0  0  0  0  0  0
    7.3256   -0.8362    0.2909 H   0  0  0  0  0  0  0  0  0  0  0  0
    7.8242    3.1432    1.2886 H   0  0  0  0  0  0  0  0  0  0  0  0
    5.3577    3.5274    0.9591 H   0  0  0  0  0  0  0  0  0  0  0  0
    3.0429   -1.1936   -2.3594 H   0  0  0  0  0  0  0  0  0  0  0  0
    3.4465   -2.4639   -1.2328 H   0  0  0  0  0  0  0  0  0  0  0  0
    0.9971   -2.2473   -2.0953 H   0  0  0  0  0  0  0  0  0  0  0  0
    1.2567   -2.6566   -0.4085 H   0  0  0  0  0  0  0  0  0  0  0  0
   -2.1719    0.4211    2.4010 H   0  0  0  0  0  0  0  0  0  0  0  0
   -3.6648    1.0311    4.2567 H   0  0  0  0  0  0  0  0  0  0  0  0
   -6.1041    1.1993    3.9039 H   0  0  0  0  0  0  0  0  0  0  0  0
   -5.5549    0.1239   -0.2539 H   0  0  0  0  0  0  0  0  0  0  0  0
  1  2  1  0
  2  3  1  0
  3  4  2  0
  4  5  1  0
  5  6  1  0
  6  7  1  0
  7  8  1  0
  8  9  1  0
  9 10  1  0
 10 11  2  0
 11 12  1  0
 12 13  2  0
 13 14  1  0
 14 15  2  0
  8 16  1  0
 16 17  1  0
  4 18  1  0
 18 19  2  0
 19 20  1  0
 20 21  1  0
 21 22  2  0
 22 23  1  0
 23 24  2  0
 24 25  1  0
 25 26  2  0
 25 27  1  0
 24 28  1  0
 19 29  1  0
 29  2  2  0
 17  5  1  0
 28 20  2  0
 15 10  1  0
  1 30  1  0
  1 31  1  0
  1 32  1  0
  3 33  1  0
  6 34  1  0
  6 35  1  0
  7 36  1  0
  7 37  1  0
  8 38  1  0
 11 39  1  0
 13 40  1  0
 14 41  1  0
 16 42  1  0
 16 43  1  0
 17 44  1  0
 17 45  1  0
 21 46  1  0
 22 47  1  0
 23 48  1  0
 28 49  1  0
M  CHG  2  25   1  27  -1
M  END
$$$$
OCNT-2308682
     RDKit          3D

 44 48  0  0  0  0  0  0  0  0999 V2000
    3.4073   -1.1938   -2.0354 O   0  0  0  0  0  0  0  0  0  0  0  0
    2.3399   -0.8063   -1.5664 C   0  0  0  0  0  0  0  0  0  0  0  0
    1.1415   -1.6553   -1.6922 C   0  0  0  0  0  0  0  0  0  0  0  0
    1.2404   -2.8771   -2.3778 C   0  0  0  0  0  0  0  0  0  0  0  0
    0.1168   -3.6831   -2.5371 C   0  0  0  0  0  0  0  0  0  0  0  0
   -1.1047   -3.2669   -2.0191 C   0  0  0  0  0  0  0  0  0  0  0  0
   -1.2031   -2.0504   -1.3340 C   0  0  0  0  0  0  0  0  0  0  0  0
   -0.0744   -1.2364   -1.1519 C   0  0  0  0  0  0  0  0  0  0  0  0
   -0.0813    0.0686   -0.4374 C   0  0  0  0  0  0  0  0  0  0  0  0
   -1.2670    0.5733    0.2286 C   0  0  0  0  0  0  0  0  0  0  0  0
   -2.3906   -0.0554    0.5067 N   0  0  0  0  0  0  0  0  0  0  0  0
   -3.1328    0.9119    1.1394 C   0  0  0  0  0  0  0  0  0  0  0  0
   -4.5024    0.6759    1.6486 C   0  0  0  0  0  0  0  0  0  0  0  0
   -5.4774    0.9479    0.6128 N   0  0  0  0  0  0  0  0  0  0  0  0
   -5.8198    2.1569    0.0870 C   0  0  0  0  0  0  0  0  0  0  0  0
   -6.7880    1.9975   -0.7853 N   0  0  0  0  0  0  0  0  0  0  0  0
   -7.0182    0.6522   -0.7488 C   0  0  0  0  0  0  0  0  0  0  0  0
   -6.2498   -0.0342    0.1014 N   0  0  0  0  0  0  0  0  0  0  0  0
   -2.5095    2.0886    1.2818 N   0  0  0  0  0  0  0  0  0  0  0  0
   -1.2682    1.8683    0.6808 O   0  0  0  0  0  0  0  0  0  0  0  0
    0.9790    0.8211   -0.3647 N   0  0  0  0  0  0  0  0  0  0  0  0
    2.1638    0.4099   -0.9230 N   0  0  0  0  0  0  0  0  0  0  0  0
    3.3156    1.2842   -0.7114 C   0  0  0  0  0  0  0  0  0  0  0  0
    3.9786    1.0369    0.6242 C   0  0  0  0  0  0  0  0  0  0  0  0
    5.0179    0.1028    0.7416 C   0  0  0  0  0  0  0  0  0  0  0  0
    5.6183   -0.1364    1.9786 C   0  0  0  0  0  0  0  0  0  0  0  0
    5.1819    0.5495    3.1107 C   0  0  0  0  0  0  0  0  0  0  0  0
    4.1413    1.4710    3.0088 C   0  0  0  0  0  0  0  0  0  0  0  0
    3.5394    1.7113    1.7727 C   0  0  0  0  0  0  0  0  0  0  0  0
    2.1941   -3.1987   -2.7935 H   0  0  0  0  0  0  0  0  0  0  0  0
    0.1937   -4.6281   -3.0698 H   0  0  0  0  0  0  0  0  0  0  0  0
   -1.9892   -3.8879   -2.1490 H   0  0  0  0  0  0  0  0  0  0  0  0
   -2.1860   -1.7746   -0.9657 H   0  0  0  0  0  0  0  0  0  0  0  0
   -4.7381    1.3257    2.4984 H   0  0  0  0  0  0  0  0  0  0  0  0
   -4.6226   -0.3637    1.9715 H   0  0  0  0  0  0  0  0  0  0  0  0
   -5.3472    3.0901    0.3633 H   0  0  0  0  0  0  0  0  0  0  0  0
   -7.7688    0.1613   -1.3552 H   0  0  0  0  0  0  0  0  0  0  0  0
    4.0436    1.1427   -1.5194 H   0  0  0  0  0  0  0  0  0  0  0  0
    2.9789    2.3262   -0.7809 H   0  0  0  0  0  0  0  0  0  0  0  0
    5.3599   -0.4483   -0.1331 H   0  0  0  0  0  0  0  0  0  0  0  0
    6.4241   -0.8613    2.0580 H   0  0  0  0  0  0  0  0  0  0  0  0
    5.6494    0.3615    4.0735 H   0  0  0  0  0  0  0  0  0  0  0  0
    3.7949    2.0001    3.8926 H   0  0  0  0  0  0  0  0  0  0  0  0
    2.7187    2.4227    1.7071 H   0  0  0  0  0  0  0  0  0  0  0  0
  1  2  2  0
  2  3  1  0
  3  4  2  0
  4  5  1  0
  5  6  2  0
  6  7  1  0
  7  8  2  0
  8  9  1  0
  9 10  1  0
 10 11  2  0
 11 12  1  0
 12 13  1  0
 13 14  1  0
 14 15  1  0
 15 16  2  0
 16 17  1  0
 17 18  2  0
 12 19  2  0
 19 20  1  0
  9 21  2  0
 21 22  1  0
 22 23  1  0
 23 24  1  0
 24 25  2  0
 25 26  1  0
 26 27  2  0
 27 28  1  0
 28 29  2  0
 22  2  1  0
 29 24  1  0
  8  3  1  0
 20 10  1  0
 18 14  1  0
  4 30  1  0
  5 31  1  0
  6 32  1  0
  7 33  1  0
 13 34  1  0
 13 35  1  0
 15 36  1  0
 17 37  1  0
 23 38  1  0
 23 39  1  0
 25 40  1  0
 26 41  1  0
 27 42  1  0
 28 43  1  0
 29 44  1  0
M  END
$$$$
OCNT-2308683
     RDKit          3D

 48 51  0  0  0  0  0  0  0  0999 V2000
   -3.1625    2.8714   -0.0487 N   0  0  0  0  0  0  0  0  0  0  0  0
   -2.7305    1.7950   -0.1073 C   0  0  0  0  0  0  0  0  0  0  0  0
   -2.2063    0.4135   -0.1747 C   0  0  0  0  0  0  0  0  0  0  0  0
   -2.9715   -0.4758   -1.1504 C   0  0  0  0  0  0  0  0  0  0  0  0
   -2.2585   -1.3407   -1.9997 C   0  0  0  0  0  0  0  0  0  0  0  0
   -2.9304   -2.1881   -2.8823 C   0  0  0  0  0  0  0  0  0  0  0  0
   -4.3219   -2.1866   -2.9278 C   0  0  0  0  0  0  0  0  0  0  0  0
   -5.0432   -1.3369   -2.0930 C   0  0  0  0  0  0  0  0  0  0  0  0
   -4.3750   -0.4876   -1.2089 C   0  0  0  0  0  0  0  0  0  0  0  0
   -2.1119   -0.2618    1.2256 C   0  0  0  0  0  0  0  0  0  0  0  0
   -3.4242   -0.2294    2.0417 C   0  0  0  0  0  0  0  0  0  0  0  0
   -2.9611   -0.0926    3.4869 C   0  0  0  0  0  0  0  0  0  0  0  0
   -1.7347    0.7934    3.3645 C   0  0  0  0  0  0  0  0  0  0  0  0
   -1.1146    0.3412    2.1311 N   0  0  0  0  0  0  0  0  0  0  0  0
    0.2478    0.4975    1.9495 C   0  0  0  0  0  0  0  0  0  0  0  0
    0.9121    1.2068    2.6974 O   0  0  0  0  0  0  0  0  0  0  0  0
    0.7550   -0.2228    0.8911 N   0  0  0  0  0  0  0  0  0  0  0  0
    2.0465   -0.1161    0.3342 C   0  0  0  0  0  0  0  0  0  0  0  0
    2.4603   -1.1381   -0.5269 C   0  0  0  0  0  0  0  0  0  0  0  0
    3.7193   -1.0919   -1.1316 C   0  0  0  0  0  0  0  0  0  0  0  0
    4.5694   -0.0084   -0.9010 C   0  0  0  0  0  0  0  0  0  0  0  0
    5.8250   -0.0176   -1.5234 N   0  0  0  0  0  0  0  0  0  0  0  0
    6.7158    1.0193   -1.5661 C   0  0  0  0  0  0  0  0  0  0  0  0
    7.8183    0.8396   -2.0881 O   0  0  0  0  0  0  0  0  0  0  0  0
    6.2705    2.3890   -1.1082 C   0  0  0  0  0  0  0  0  0  0  0  0
    5.2570    2.3635    0.3839 S   0  0  0  0  0  0  0  0  0  0  0  0
    4.1670    1.0202   -0.0413 C   0  0  0  0  0  0  0  0  0  0  0  0
    2.9060    0.9600    0.5713 C   0  0  0  0  0  0  0  0  0  0  0  0
   -1.1932    0.5169   -0.5826 H   0  0  0  0  0  0  0  0  0  0  0  0
   -1.1704   -1.3575   -1.9910 H   0  0  0  0  0  0  0  0  0  0  0  0
   -2.3688   -2.8472   -3.5400 H   0  0  0  0  0  0  0  0  0  0  0  0
   -4.8454   -2.8432   -3.6183 H   0  0  0  0  0  0  0  0  0  0  0  0
   -6.1301   -1.3312   -2.1338 H   0  0  0  0  0  0  0  0  0  0  0  0
   -4.9714    0.1675   -0.5755 H   0  0  0  0  0  0  0  0  0  0  0  0
   -1.8094   -1.3108    1.1053 H   0  0  0  0  0  0  0  0  0  0  0  0
   -4.0253   -1.1309    1.8867 H   0  0  0  0  0  0  0  0  0  0  0  0
   -4.0517    0.6323    1.7923 H   0  0  0  0  0  0  0  0  0  0  0  0
   -2.6794   -1.0772    3.8792 H   0  0  0  0  0  0  0  0  0  0  0  0
   -3.7266    0.3332    4.1412 H   0  0  0  0  0  0  0  0  0  0  0  0
   -2.0096    1.8464    3.2377 H   0  0  0  0  0  0  0  0  0  0  0  0
   -1.0592    0.6975    4.2196 H   0  0  0  0  0  0  0  0  0  0  0  0
    0.2516   -1.0688    0.6778 H   0  0  0  0  0  0  0  0  0  0  0  0
    1.8173   -1.9901   -0.7320 H   0  0  0  0  0  0  0  0  0  0  0  0
    4.0196   -1.9046   -1.7881 H   0  0  0  0  0  0  0  0  0  0  0  0
    6.1461   -0.8605   -1.9826 H   0  0  0  0  0  0  0  0  0  0  0  0
    7.1582    2.9955   -0.9043 H   0  0  0  0  0  0  0  0  0  0  0  0
    5.7125    2.8598   -1.9241 H   0  0  0  0  0  0  0  0  0  0  0  0
    2.6114    1.7696    1.2346 H   0  0  0  0  0  0  0  0  0  0  0  0
  1  2  3  0
  2  3  1  0
  3  4  1  0
  4  5  2  0
  5  6  1  0
  6  7  2  0
  7  8  1  0
  8  9  2  0
  3 10  1  0
 10 11  1  0
 11 12  1  0
 12 13  1  0
 13 14  1  0
 14 15  1  0
 15 16  2  0
 15 17  1  0
 17 18  1  0
 18 19  1  0
 19 20  2  0
 20 21  1  0
 21 22  1  0
 22 23  1  0
 23 24  2  0
 23 25  1  0
 25 26  1  0
 26 27  1  0
 27 28  1  0
  9  4  1  0
 14 10  1  0
 28 18  2  0
 27 21  2  0
  3 29  1  0
  5 30  1  0
  6 31  1  0
  7 32  1  0
  8 33  1  0
  9 34  1  0
 10 35  1  0
 11 36  1  0
 11 37  1  0
 12 38  1  0
 12 39  1  0
 13 40  1  0
 13 41  1  0
 17 42  1  0
 19 43  1  0
 20 44  1  0
 22 45  1  0
 25 46  1  0
 25 47  1  0
 28 48  1  0
M  END
$$$$
OCNT-2308684
     RDKit          3D

 54 57  0  0  0  0  0  0  0  0999 V2000
    8.3529   -0.3634    0.7845 C   0  0  0  0  0  0  0  0  0  0  0  0
    8.3376   -0.6322   -0.6438 N   0  0  0  0  0  0  0  0  0  0  0  0
    7.5129    0.3858   -1.6864 S   0  0  0  0  0  0  0  0  0  0  0  0
    7.9901    1.7339   -1.4717 O   0  0  0  0  0  0  0  0  0  0  0  0
    7.5522   -0.2403   -2.9893 O   0  0  0  0  0  0  0  0  0  0  0  0
    5.8453    0.2829   -1.0842 C   0  0  0  0  0  0  0  0  0  0  0  0
    5.0626   -0.8231   -1.4251 C   0  0  0  0  0  0  0  0  0  0  0  0
    3.7482   -0.9020   -0.9638 C   0  0  0  0  0  0  0  0  0  0  0  0
    3.2099    0.1224   -0.1699 C   0  0  0  0  0  0  0  0  0  0  0  0
    1.7785    0.0402    0.3012 C   0  0  0  0  0  0  0  0  0  0  0  0
    0.7994    0.5168   -0.7748 C   0  0  0  0  0  0  0  0  0  0  0  0
   -0.5792    0.4698   -0.3238 N   0  0  0  0  0  0  0  0  0  0  0  0
   -1.2710   -0.7219   -0.2629 C   0  0  0  0  0  0  0  0  0  0  0  0
   -0.8095   -1.8019   -0.6047 O   0  0  0  0  0  0  0  0  0  0  0  0
   -2.6505   -0.6167    0.2671 C   0  0  0  0  0  0  0  0  0  0  0  0
   -3.5097    0.2924   -0.3555 C   0  0  0  0  0  0  0  0  0  0  0  0
   -4.8034    0.4142    0.1213 C   0  0  0  0  0  0  0  0  0  0  0  0
   -5.7954    1.3403   -0.4605 C   0  0  0  0  0  0  0  0  0  0  0  0
   -5.8020    1.6765   -1.8219 C   0  0  0  0  0  0  0  0  0  0  0  0
   -6.7602    2.5592   -2.3000 C   0  0  0  0  0  0  0  0  0  0  0  0
   -7.7068    3.1298   -1.5296 N   0  0  0  0  0  0  0  0  0  0  0  0
   -7.7058    2.7902   -0.2254 C   0  0  0  0  0  0  0  0  0  0  0  0
   -6.7904    1.9180    0.3419 C   0  0  0  0  0  0  0  0  0  0  0  0
   -5.2339   -0.3141    1.1799 N   0  0  0  0  0  0  0  0  0  0  0  0
   -4.4126   -1.2020    1.7672 C   0  0  0  0  0  0  0  0  0  0  0  0
   -4.9011   -1.9404    2.8373 C   0  0  0  0  0  0  0  0  0  0  0  0
   -4.1153   -2.8785    3.5102 C   0  0  0  0  0  0  0  0  0  0  0  0
   -2.8046   -3.0891    3.1092 C   0  0  0  0  0  0  0  0  0  0  0  0
   -2.2903   -2.3599    2.0388 C   0  0  0  0  0  0  0  0  0  0  0  0
   -3.0859   -1.4087    1.3501 C   0  0  0  0  0  0  0  0  0  0  0  0
    4.0024    1.2348    0.1485 C   0  0  0  0  0  0  0  0  0  0  0  0
    5.3185    1.3188   -0.3089 C   0  0  0  0  0  0  0  0  0  0  0  0
    8.3654    0.7082    0.9988 H   0  0  0  0  0  0  0  0  0  0  0  0
    9.2564   -0.8011    1.2189 H   0  0  0  0  0  0  0  0  0  0  0  0
    7.4862   -0.8244    1.2655 H   0  0  0  0  0  0  0  0  0  0  0  0
    8.4461   -1.5874   -0.9775 H   0  0  0  0  0  0  0  0  0  0  0  0
    5.4638   -1.6171   -2.0510 H   0  0  0  0  0  0  0  0  0  0  0  0
    3.1389   -1.7642   -1.2327 H   0  0  0  0  0  0  0  0  0  0  0  0
    1.5559   -0.9926    0.5983 H   0  0  0  0  0  0  0  0  0  0  0  0
    1.6519    0.6392    1.2124 H   0  0  0  0  0  0  0  0  0  0  0  0
    1.0082    1.5546   -1.0575 H   0  0  0  0  0  0  0  0  0  0  0  0
    0.8885   -0.0992   -1.6774 H   0  0  0  0  0  0  0  0  0  0  0  0
   -0.9719    1.2971    0.1080 H   0  0  0  0  0  0  0  0  0  0  0  0
   -3.1626    0.8835   -1.1961 H   0  0  0  0  0  0  0  0  0  0  0  0
   -5.0913    1.2492   -2.5212 H   0  0  0  0  0  0  0  0  0  0  0  0
   -6.7922    2.8342   -3.3509 H   0  0  0  0  0  0  0  0  0  0  0  0
   -8.4847    3.2507    0.3758 H   0  0  0  0  0  0  0  0  0  0  0  0
   -6.8533    1.6914    1.4024 H   0  0  0  0  0  0  0  0  0  0  0  0
   -5.9291   -1.7827    3.1571 H   0  0  0  0  0  0  0  0  0  0  0  0
   -4.5328   -3.4414    4.3410 H   0  0  0  0  0  0  0  0  0  0  0  0
   -2.1837   -3.8200    3.6210 H   0  0  0  0  0  0  0  0  0  0  0  0
   -1.2611   -2.5470    1.7367 H   0  0  0  0  0  0  0  0  0  0  0  0
    3.5979    2.0460    0.7506 H   0  0  0  0  0  0  0  0  0  0  0  0
    5.9204    2.1909   -0.0620 H   0  0  0  0  0  0  0  0  0  0  0  0
  1  2  1  0
  2  3  1  0
  3  4  2  0
  3  5  2  0
  3  6  1  0
  6  7  1  0
  7  8  2  0
  8  9  1  0
  9 10  1  0
 10 11  1  0
 11 12  1  0
 12 13  1  0
 13 14  2  0
 13 15  1  0
 15 16  2  0
 16 17  1  0
 17 18  1  0
 18 19  2  0
 19 20  1  0
 20 21  2  0
 21 22  1  0
 22 23  2  0
 17 24  2  0
 24 25  1  0
 25 26  2  0
 26 27  1  0
 27 28  2  0
 28 29  1  0
 29 30  2  0
  9 31  2  0
 31 32  1  0
 32  6  2  0
 30 15  1  0
 23 18  1  0
 30 25  1  0
  1 33  1  0
  1 34  1  0
  1 35  1  0
  2 36  1  0
  7 37  1  0
  8 38  1  0
 10 39  1  0
 10 40  1  0
 11 41  1  0
 11 42  1  0
 12 43  1  0
 16 44  1  0
 19 45  1  0
 20 46  1  0
 22 47  1  0
 23 48  1  0
 26 49  1  0
 27 50  1  0
 28 51  1  0
 29 52  1  0
 31 53  1  0
 32 54  1  0
M  END
$$$$
OCNT-2308710
     RDKit          3D

 50 52  0  0  0  0  0  0  0  0999 V2000
   -6.0349    2.2524    1.5041 C   0  0  0  0  0  0  0  0  0  0  0  0
   -6.0393    0.9826    2.1449 O   0  0  0  0  0  0  0  0  0  0  0  0
   -4.7761    0.3120    2.0360 C   0  0  0  0  0  0  0  0  0  0  0  0
   -4.6623   -0.4863    0.7537 C   0  0  0  0  0  0  0  0  0  0  0  0
   -5.8164   -1.0179    0.1494 C   0  0  0  0  0  0  0  0  0  0  0  0
   -5.7361   -1.7744   -1.0218 C   0  0  0  0  0  0  0  0  0  0  0  0
   -4.4984   -2.0332   -1.6026 C   0  0  0  0  0  0  0  0  0  0  0  0
   -3.3381   -1.5377   -1.0100 C   0  0  0  0  0  0  0  0  0  0  0  0
   -3.4154   -0.7662    0.1620 C   0  0  0  0  0  0  0  0  0  0  0  0
   -2.1508   -0.2908    0.7809 C   0  0  0  0  0  0  0  0  0  0  0  0
   -1.9515   -0.4368    1.9798 O   0  0  0  0  0  0  0  0  0  0  0  0
   -1.2627    0.3182   -0.0815 N   0  0  0  0  0  0  0  0  0  0  0  0
    0.0646    0.7368    0.3579 C   0  0  0  0  0  0  0  0  0  0  0  0
    0.6160    1.8534   -0.5391 C   0  0  0  0  0  0  0  0  0  0  0  0
    1.5890    1.3164   -1.5795 C   0  0  0  0  0  0  0  0  0  0  0  0
    2.7135    0.6204   -0.9609 N   0  0  0  0  0  0  0  0  0  0  0  0
    3.8679    0.4535   -1.7273 C   0  0  0  0  0  0  0  0  0  0  0  0
    3.9381    0.7761   -2.9114 O   0  0  0  0  0  0  0  0  0  0  0  0
    5.0724   -0.1343   -1.0967 C   0  0  0  0  0  0  0  0  0  0  0  0
    5.7152   -1.1990   -1.7360 C   0  0  0  0  0  0  0  0  0  0  0  0
    6.8620   -1.7564   -1.1696 C   0  0  0  0  0  0  0  0  0  0  0  0
    7.3724   -1.2406    0.0229 C   0  0  0  0  0  0  0  0  0  0  0  0
    6.7454   -0.1609    0.6474 C   0  0  0  0  0  0  0  0  0  0  0  0
    5.5981    0.4001    0.0851 C   0  0  0  0  0  0  0  0  0  0  0  0
    2.4618   -0.0692    0.3088 C   0  0  0  0  0  0  0  0  0  0  0  0
    1.0008   -0.4777    0.4413 C   0  0  0  0  0  0  0  0  0  0  0  0
   -5.7936    2.1555    0.4415 H   0  0  0  0  0  0  0  0  0  0  0  0
   -7.0350    2.6847    1.5953 H   0  0  0  0  0  0  0  0  0  0  0  0
   -5.3219    2.9235    1.9926 H   0  0  0  0  0  0  0  0  0  0  0  0
   -3.9744    1.0505    2.1413 H   0  0  0  0  0  0  0  0  0  0  0  0
   -4.7092   -0.3862    2.8775 H   0  0  0  0  0  0  0  0  0  0  0  0
   -6.7941   -0.8423    0.5971 H   0  0  0  0  0  0  0  0  0  0  0  0
   -6.6434   -2.1713   -1.4713 H   0  0  0  0  0  0  0  0  0  0  0  0
   -4.4370   -2.6368   -2.5048 H   0  0  0  0  0  0  0  0  0  0  0  0
   -2.3748   -1.7854   -1.4489 H   0  0  0  0  0  0  0  0  0  0  0  0
   -1.4897    0.3659   -1.0669 H   0  0  0  0  0  0  0  0  0  0  0  0
   -0.0542    1.1530    1.3670 H   0  0  0  0  0  0  0  0  0  0  0  0
    1.1543    2.5726    0.0929 H   0  0  0  0  0  0  0  0  0  0  0  0
   -0.1928    2.4099   -1.0266 H   0  0  0  0  0  0  0  0  0  0  0  0
    1.0878    0.6091   -2.2514 H   0  0  0  0  0  0  0  0  0  0  0  0
    1.9682    2.1398   -2.1956 H   0  0  0  0  0  0  0  0  0  0  0  0
    5.3246   -1.5887   -2.6731 H   0  0  0  0  0  0  0  0  0  0  0  0
    7.3622   -2.5865   -1.6621 H   0  0  0  0  0  0  0  0  0  0  0  0
    8.2695   -1.6733    0.4596 H   0  0  0  0  0  0  0  0  0  0  0  0
    7.1581    0.2491    1.5659 H   0  0  0  0  0  0  0  0  0  0  0  0
    5.1288    1.2579    0.5587 H   0  0  0  0  0  0  0  0  0  0  0  0
    2.7369    0.6190    1.1160 H   0  0  0  0  0  0  0  0  0  0  0  0
    3.0931   -0.9593    0.3883 H   0  0  0  0  0  0  0  0  0  0  0  0
    0.7594   -1.1943   -0.3558 H   0  0  0  0  0  0  0  0  0  0  0  0
    0.8421   -1.0066    1.3885 H   0  0  0  0  0  0  0  0  0  0  0  0
  1  2  1  0
  2  3  1  0
  3  4  1  0
  4  5  2  0
  5  6  1  0
  6  7  2  0
  7  8  1  0
  8  9  2  0
  9 10  1  0
 10 11  2  0
 10 12  1  0
 12 13  1  0
 13 14  1  0
 14 15  1  0
 15 16  1  0
 16 17  1  0
 17 18  2  0
 17 19  1  0
 19 20  2  0
 20 21  1  0
 21 22  2  0
 22 23  1  0
 23 24  2  0
 16 25  1  0
 25 26  1  0
  9  4  1  0
 26 13  1  0
 24 19  1  0
  1 27  1  0
  1 28  1  0
  1 29  1  0
  3 30  1  0
  3 31  1  0
  5 32  1  0
  6 33  1  0
  7 34  1  0
  8 35  1  0
 12 36  1  0
 13 37  1  0
 14 38  1  0
 14 39  1  0
 15 40  1  0
 15 41  1  0
 20 42  1  0
 21 43  1  0
 22 44  1  0
 23 45  1  0
 24 46  1  0
 25 47  1  0
 25 48  1  0
 26 49  1  0
 26 50  1  0
M  END
$$$$
OCNT-2308724
     RDKit          3D

 40 42  0  0  0  0  0  0  0  0999 V2000
    0.1284   -0.3626   -1.4937 O   0  0  0  0  0  0  0  0  0  0  0  0
    0.2998    0.6227   -0.7899 C   0  0  0  0  0  0  0  0  0  0  0  0
   -0.6905    1.5640   -0.5997 N   0  0  0  0  0  0  0  0  0  0  0  0
   -1.9143    1.4642   -1.3679 C   0  0  0  0  0  0  0  0  0  0  0  0
   -2.9463    2.2954   -0.7177 C   0  0  0  0  0  0  0  0  0  0  0  0
   -3.0903    3.5923   -0.9258 N   0  0  0  0  0  0  0  0  0  0  0  0
   -4.2275    3.9650   -0.2771 N   0  0  0  0  0  0  0  0  0  0  0  0
   -4.7842    2.9330    0.3310 N   0  0  0  0  0  0  0  0  0  0  0  0
   -3.9594    1.8697    0.1331 N   0  0  0  0  0  0  0  0  0  0  0  0
   -4.2317    0.6287    0.7735 C   0  0  0  0  0  0  0  0  0  0  0  0
   -3.2842   -0.3970    0.8687 C   0  0  0  0  0  0  0  0  0  0  0  0
   -3.6061   -1.5989    1.5098 C   0  0  0  0  0  0  0  0  0  0  0  0
   -4.8670   -1.7848    2.0701 C   0  0  0  0  0  0  0  0  0  0  0  0
   -5.8105   -0.7650    2.0015 C   0  0  0  0  0  0  0  0  0  0  0  0
   -5.4953    0.4371    1.3630 C   0  0  0  0  0  0  0  0  0  0  0  0
    1.4244    0.9428   -0.0647 N   0  0  0  0  0  0  0  0  0  0  0  0
    2.6555    0.2585   -0.0422 C   0  0  0  0  0  0  0  0  0  0  0  0
    2.9701   -0.8087   -0.8837 C   0  0  0  0  0  0  0  0  0  0  0  0
    4.2216   -1.4383   -0.8086 C   0  0  0  0  0  0  0  0  0  0  0  0
    5.1761   -1.0040    0.1090 C   0  0  0  0  0  0  0  0  0  0  0  0
    6.4261   -1.5198    0.2906 O   0  0  0  0  0  0  0  0  0  0  0  0
    6.8146   -2.6129   -0.5237 C   0  0  0  0  0  0  0  0  0  0  0  0
    6.0084   -3.6781   -0.3285 F   0  0  0  0  0  0  0  0  0  0  0  0
    8.0737   -2.9740   -0.1897 F   0  0  0  0  0  0  0  0  0  0  0  0
    6.8093   -2.2742   -1.8306 F   0  0  0  0  0  0  0  0  0  0  0  0
    4.8643    0.0680    0.9479 C   0  0  0  0  0  0  0  0  0  0  0  0
    3.6169    0.6959    0.8734 C   0  0  0  0  0  0  0  0  0  0  0  0
   -0.3585    2.5082   -0.4554 H   0  0  0  0  0  0  0  0  0  0  0  0
   -2.2220    0.4260   -1.5151 H   0  0  0  0  0  0  0  0  0  0  0  0
   -1.6946    1.8616   -2.3662 H   0  0  0  0  0  0  0  0  0  0  0  0
   -2.2694   -0.3048    0.5014 H   0  0  0  0  0  0  0  0  0  0  0  0
   -2.8620   -2.3900    1.5794 H   0  0  0  0  0  0  0  0  0  0  0  0
   -5.1101   -2.7203    2.5678 H   0  0  0  0  0  0  0  0  0  0  0  0
   -6.7939   -0.9022    2.4449 H   0  0  0  0  0  0  0  0  0  0  0  0
   -6.2612    1.2110    1.3262 H   0  0  0  0  0  0  0  0  0  0  0  0
    1.3111    1.6852    0.6096 H   0  0  0  0  0  0  0  0  0  0  0  0
    2.2631   -1.1788   -1.6207 H   0  0  0  0  0  0  0  0  0  0  0  0
    4.4035   -2.2642   -1.4907 H   0  0  0  0  0  0  0  0  0  0  0  0
    5.5977    0.4221    1.6692 H   0  0  0  0  0  0  0  0  0  0  0  0
    3.4144    1.5270    1.5438 H   0  0  0  0  0  0  0  0  0  0  0  0
  1  2  2  0
  2  3  1  0
  3  4  1  0
  4  5  1  0
  5  6  2  0
  6  7  1  0
  7  8  2  0
  8  9  1  0
  9 10  1  0
 10 11  2  0
 11 12  1  0
 12 13  2  0
 13 14  1  0
 14 15  2  0
  2 16  1  0
 16 17  1  0
 17 18  1  0
 18 19  2  0
 19 20  1  0
 20 21  1  0
 21 22  1  0
 22 23  1  0
 22 24  1  0
 22 25  1  0
 20 26  2  0
 26 27  1  0
  9  5  1  0
 15 10  1  0
 27 17  2  0
  3 28  1  0
  4 29  1  0
  4 30  1  0
 11 31  1  0
 12 32  1  0
 13 33  1  0
 14 34  1  0
 15 35  1  0
 16 36  1  0
 18 37  1  0
 19 38  1  0
 26 39  1  0
 27 40  1  0
M  END
$$$$
OCNT-2308752
     RDKit          3D

 48 50  0  0  0  0  0  0  0  0999 V2000
    3.1962    0.7887    2.5093 C   0  0  0  0  0  0  0  0  0  0  0  0
    3.9223    0.9383    1.1727 C   0  0  0  0  0  0  0  0  0  0  0  0
    4.7560   -0.3028    0.8570 C   0  0  0  0  0  0  0  0  0  0  0  0
    2.9408    1.2267    0.0597 C   0  0  0  0  0  0  0  0  0  0  0  0
    3.0577    2.4017   -0.5783 N   0  0  0  0  0  0  0  0  0  0  0  0
    2.1665    2.6226   -1.5549 C   0  0  0  0  0  0  0  0  0  0  0  0
    1.1774    1.7302   -1.9011 C   0  0  0  0  0  0  0  0  0  0  0  0
    1.1093    0.5481   -1.1898 C   0  0  0  0  0  0  0  0  0  0  0  0
    0.1555   -0.4110   -1.4568 N   0  0  0  0  0  0  0  0  0  0  0  0
   -1.0626   -0.1387   -2.2008 C   0  0  0  0  0  0  0  0  0  0  0  0
   -1.8956   -1.4041   -2.0173 C   0  0  0  0  0  0  0  0  0  0  0  0
   -1.4689   -1.9721   -0.6502 C   0  0  0  0  0  0  0  0  0  0  0  0
   -1.5754   -3.5110   -0.6787 C   0  0  0  0  0  0  0  0  0  0  0  0
   -1.1582   -4.0922    0.5502 O   0  0  0  0  0  0  0  0  0  0  0  0
   -2.3203   -1.4479    0.5478 C   0  0  0  0  0  0  0  0  0  0  0  0
   -2.5680    0.0398    0.6674 C   0  0  0  0  0  0  0  0  0  0  0  0
   -3.7704    0.5965    0.2007 C   0  0  0  0  0  0  0  0  0  0  0  0
   -3.9999    1.9697    0.2993 C   0  0  0  0  0  0  0  0  0  0  0  0
   -3.0312    2.7879    0.8670 C   0  0  0  0  0  0  0  0  0  0  0  0
   -3.2505    4.1064    0.9539 F   0  0  0  0  0  0  0  0  0  0  0  0
   -1.8403    2.2581    1.3452 C   0  0  0  0  0  0  0  0  0  0  0  0
   -1.6115    0.8845    1.2523 C   0  0  0  0  0  0  0  0  0  0  0  0
    0.0114   -1.5462   -0.5467 C   0  0  0  0  0  0  0  0  0  0  0  0
    2.0047    0.2967   -0.2157 N   0  0  0  0  0  0  0  0  0  0  0  0
    3.9127    0.6394    3.3241 H   0  0  0  0  0  0  0  0  0  0  0  0
    2.5099   -0.0658    2.5051 H   0  0  0  0  0  0  0  0  0  0  0  0
    2.6084    1.6849    2.7381 H   0  0  0  0  0  0  0  0  0  0  0  0
    4.6083    1.7911    1.2566 H   0  0  0  0  0  0  0  0  0  0  0  0
    5.2828   -0.1883   -0.0970 H   0  0  0  0  0  0  0  0  0  0  0  0
    5.5060   -0.4733    1.6367 H   0  0  0  0  0  0  0  0  0  0  0  0
    4.1343   -1.2026    0.7873 H   0  0  0  0  0  0  0  0  0  0  0  0
    2.2697    3.5707   -2.0736 H   0  0  0  0  0  0  0  0  0  0  0  0
    0.4931    1.9671   -2.7024 H   0  0  0  0  0  0  0  0  0  0  0  0
   -0.8576    0.0293   -3.2639 H   0  0  0  0  0  0  0  0  0  0  0  0
   -1.5856    0.7397   -1.8117 H   0  0  0  0  0  0  0  0  0  0  0  0
   -1.6379   -2.1074   -2.8204 H   0  0  0  0  0  0  0  0  0  0  0  0
   -2.9697   -1.2109   -2.0959 H   0  0  0  0  0  0  0  0  0  0  0  0
   -2.6143   -3.8153   -0.8489 H   0  0  0  0  0  0  0  0  0  0  0  0
   -0.9771   -3.9489   -1.4863 H   0  0  0  0  0  0  0  0  0  0  0  0
   -0.1871   -4.1551    0.5414 H   0  0  0  0  0  0  0  0  0  0  0  0
   -3.3023   -1.9416    0.5180 H   0  0  0  0  0  0  0  0  0  0  0  0
   -1.8718   -1.7841    1.4932 H   0  0  0  0  0  0  0  0  0  0  0  0
   -4.5356   -0.0371   -0.2423 H   0  0  0  0  0  0  0  0  0  0  0  0
   -4.9263    2.4053   -0.0606 H   0  0  0  0  0  0  0  0  0  0  0  0
   -1.0954    2.9131    1.7855 H   0  0  0  0  0  0  0  0  0  0  0  0
   -0.6736    0.4830    1.6303 H   0  0  0  0  0  0  0  0  0  0  0  0
    0.6833   -2.3414   -0.8922 H   0  0  0  0  0  0  0  0  0  0  0  0
    0.2807   -1.3215    0.4912 H   0  0  0  0  0  0  0  0  0  0  0  0
  1  2  1  0
  2  3  1  0
  2  4  1  0
  4  5  2  0
  5  6  1  0
  6  7  2  0
  7  8  1  0
  8  9  1  0
  9 10  1  0
 10 11  1  0
 11 12  1  0
 12 13  1  0
 13 14  1  0
 12 15  1  0
 15 16  1  0
 16 17  1  0
 17 18  2  0
 18 19  1  0
 19 20  1  0
 19 21  2  0
 21 22  1  0
 12 23  1  0
  8 24  2  0
 24  4  1  0
 23  9  1  0
 22 16  2  0
  1 25  1  0
  1 26  1  0
  1 27  1  0
  2 28  1  0
  3 29  1  0
  3 30  1  0
  3 31  1  0
  6 32  1  0
  7 33  1  0
 10 34  1  0
 10 35  1  0
 11 36  1  0
 11 37  1  0
 13 38  1  0
 13 39  1  0
 14 40  1  0
 15 41  1  0
 15 42  1  0
 17 43  1  0
 18 44  1  0
 21 45  1  0
 22 46  1  0
 23 47  1  0
 23 48  1  0
M  END
$$$$
OCNT-2308766
     RDKit          3D

 56 58  0  0  0  0  0  0  0  0999 V2000
    3.1609   -1.9084    0.9082 O   0  0  0  0  0  0  0  0  0  0  0  0
    3.3723   -1.0131    0.0961 C   0  0  0  0  0  0  0  0  0  0  0  0
    4.7432   -0.3694   -0.1363 C   0  0  0  0  0  0  0  0  0  0  0  0
    5.6923   -0.8239    0.8161 O   0  0  0  0  0  0  0  0  0  0  0  0
    6.9581   -0.3170    0.7338 C   0  0  0  0  0  0  0  0  0  0  0  0
    7.8310   -0.7737    1.7264 C   0  0  0  0  0  0  0  0  0  0  0  0
    9.1573   -0.3380    1.7655 C   0  0  0  0  0  0  0  0  0  0  0  0
    9.6133    0.5592    0.8046 C   0  0  0  0  0  0  0  0  0  0  0  0
   11.2447    1.1027    0.8441 Cl  0  0  0  0  0  0  0  0  0  0  0  0
    8.7535    1.0201   -0.1907 C   0  0  0  0  0  0  0  0  0  0  0  0
    7.4247    0.5819   -0.2272 C   0  0  0  0  0  0  0  0  0  0  0  0
    2.3783   -0.4905   -0.7184 N   0  0  0  0  0  0  0  0  0  0  0  0
    0.9872   -0.9077   -0.5778 C   0  0  0  0  0  0  0  0  0  0  0  0
    0.2101   -0.6388   -1.8774 C   0  0  0  0  0  0  0  0  0  0  0  0
   -0.5196    0.7004   -1.8219 C   0  0  0  0  0  0  0  0  0  0  0  0
   -1.5793    0.7401   -0.6989 C   0  0  0  0  0  0  0  0  0  0  0  0
   -2.8621    0.3084   -1.2639 N   0  0  0  0  0  0  0  0  0  0  0  0
   -4.0447    0.7869   -0.5464 C   0  0  0  0  0  0  0  0  0  0  0  0
   -5.2973    0.5991   -1.4102 C   0  0  0  0  0  0  0  0  0  0  0  0
   -6.4394    0.3528   -0.4244 C   0  0  0  0  0  0  0  0  0  0  0  0
   -5.8360    0.4502    0.9082 N   0  0  0  0  0  0  0  0  0  0  0  0
   -6.5382   -0.3485    1.9364 C   0  0  0  0  0  0  0  0  0  0  0  0
   -8.0170   -0.0121    2.2161 C   0  0  0  0  0  0  0  0  0  0  0  0
   -8.7988   -0.2582    1.1400 F   0  0  0  0  0  0  0  0  0  0  0  0
   -8.1870    1.2799    2.5710 F   0  0  0  0  0  0  0  0  0  0  0  0
   -8.4852   -0.7763    3.2325 F   0  0  0  0  0  0  0  0  0  0  0  0
   -4.4333    0.0571    0.7454 C   0  0  0  0  0  0  0  0  0  0  0  0
   -1.1643   -0.1236    0.5089 C   0  0  0  0  0  0  0  0  0  0  0  0
    0.3512   -0.2216    0.6452 C   0  0  0  0  0  0  0  0  0  0  0  0
    5.0608   -0.6445   -1.1492 H   0  0  0  0  0  0  0  0  0  0  0  0
    4.6175    0.7169   -0.0516 H   0  0  0  0  0  0  0  0  0  0  0  0
    7.4721   -1.4760    2.4761 H   0  0  0  0  0  0  0  0  0  0  0  0
    9.8217   -0.7023    2.5441 H   0  0  0  0  0  0  0  0  0  0  0  0
    9.1109    1.7196   -0.9420 H   0  0  0  0  0  0  0  0  0  0  0  0
    6.7872    0.9602   -1.0186 H   0  0  0  0  0  0  0  0  0  0  0  0
    2.5651    0.3734   -1.2114 H   0  0  0  0  0  0  0  0  0  0  0  0
    0.9921   -1.9926   -0.4104 H   0  0  0  0  0  0  0  0  0  0  0  0
   -0.5278   -1.4373   -2.0277 H   0  0  0  0  0  0  0  0  0  0  0  0
    0.8788   -0.6668   -2.7462 H   0  0  0  0  0  0  0  0  0  0  0  0
   -0.9731    0.9208   -2.7967 H   0  0  0  0  0  0  0  0  0  0  0  0
    0.2131    1.5003   -1.6507 H   0  0  0  0  0  0  0  0  0  0  0  0
   -1.6574    1.7893   -0.3853 H   0  0  0  0  0  0  0  0  0  0  0  0
   -2.8925   -0.7043   -1.3734 H   0  0  0  0  0  0  0  0  0  0  0  0
   -3.9442    1.8624   -0.3427 H   0  0  0  0  0  0  0  0  0  0  0  0
   -5.2046   -0.2664   -2.0785 H   0  0  0  0  0  0  0  0  0  0  0  0
   -5.4785    1.4817   -2.0337 H   0  0  0  0  0  0  0  0  0  0  0  0
   -7.2342    1.0954   -0.5473 H   0  0  0  0  0  0  0  0  0  0  0  0
   -6.8653   -0.6408   -0.6128 H   0  0  0  0  0  0  0  0  0  0  0  0
   -5.9999   -0.2204    2.8837 H   0  0  0  0  0  0  0  0  0  0  0  0
   -6.4782   -1.4150    1.6834 H   0  0  0  0  0  0  0  0  0  0  0  0
   -3.8328    0.3860    1.5976 H   0  0  0  0  0  0  0  0  0  0  0  0
   -4.3282   -1.0294    0.6295 H   0  0  0  0  0  0  0  0  0  0  0  0
   -1.5706   -1.1400    0.4242 H   0  0  0  0  0  0  0  0  0  0  0  0
   -1.5807    0.3033    1.4276 H   0  0  0  0  0  0  0  0  0  0  0  0
    0.7640    0.7874    0.7799 H   0  0  0  0  0  0  0  0  0  0  0  0
    0.6087   -0.7787    1.5543 H   0  0  0  0  0  0  0  0  0  0  0  0
  1  2  2  0
  2  3  1  0
  3  4  1  0
  4  5  1  0
  5  6  1  0
  6  7  2  0
  7  8  1  0
  8  9  1  0
  8 10  2  0
 10 11  1  0
  2 12  1  0
 12 13  1  0
 13 14  1  0
 14 15  1  0
 15 16  1  0
 16 17  1  0
 17 18  1  0
 18 19  1  0
 19 20  1  0
 20 21  1  0
 21 22  1  0
 22 23  1  0
 23 24  1  0
 23 25  1  0
 23 26  1  0
 21 27  1  0
 16 28  1  0
 28 29  1  0
 11  5  2  0
 29 13  1  0
 27 18  1  0
  3 30  1  0
  3 31  1  0
  6 32  1  0
  7 33  1  0
 10 34  1  0
 11 35  1  0
 12 36  1  0
 13 37  1  0
 14 38  1  0
 14 39  1  0
 15 40  1  0
 15 41  1  0
 16 42  1  0
 17 43  1  0
 18 44  1  0
 19 45  1  0
 19 46  1  0
 20 47  1  0
 20 48  1  0
 22 49  1  0
 22 50  1  0
 27 51  1  0
 27 52  1  0
 28 53  1  0
 28 54  1  0
 29 55  1  0
 29 56  1  0
M  END
$$$$
OCNT-2308774
     RDKit          3D

 46 48  0  0  0  0  0  0  0  0999 V2000
    4.3547    2.3505   -1.2887 C   0  0  0  0  0  0  0  0  0  0  0  0
    4.2301    0.8667   -1.0521 C   0  0  0  0  0  0  0  0  0  0  0  0
    4.9664    0.0068   -1.8808 C   0  0  0  0  0  0  0  0  0  0  0  0
    4.8802   -1.3691   -1.7276 C   0  0  0  0  0  0  0  0  0  0  0  0
    4.0531   -1.9018   -0.7450 C   0  0  0  0  0  0  0  0  0  0  0  0
    3.2995   -1.0766    0.1182 C   0  0  0  0  0  0  0  0  0  0  0  0
    2.4323   -1.8026    1.1473 C   0  0  0  0  0  0  0  0  0  0  0  0
    3.0724   -1.8031    2.5357 C   0  0  0  0  0  0  0  0  0  0  0  0
    1.0726   -1.3165    1.1881 N   0  0  0  0  0  0  0  0  0  0  0  0
    0.1156   -1.7023    0.2762 C   0  0  0  0  0  0  0  0  0  0  0  0
    0.2498   -2.6257   -0.5202 O   0  0  0  0  0  0  0  0  0  0  0  0
   -1.1057   -0.8851    0.3544 C   0  0  0  0  0  0  0  0  0  0  0  0
   -1.2263    0.1401    1.2229 N   0  0  0  0  0  0  0  0  0  0  0  0
   -2.4606    0.6164    0.9789 N   0  0  0  0  0  0  0  0  0  0  0  0
   -3.1511   -0.0411   -0.0072 C   0  0  0  0  0  0  0  0  0  0  0  0
   -4.5114    0.3309   -0.4216 C   0  0  0  0  0  0  0  0  0  0  0  0
   -5.1480   -0.3896   -1.4453 C   0  0  0  0  0  0  0  0  0  0  0  0
   -6.4416   -0.0633   -1.8647 C   0  0  0  0  0  0  0  0  0  0  0  0
   -7.1246    0.9917   -1.2673 C   0  0  0  0  0  0  0  0  0  0  0  0
   -6.5172    1.7237   -0.2494 C   0  0  0  0  0  0  0  0  0  0  0  0
   -5.2232    1.3948    0.1677 C   0  0  0  0  0  0  0  0  0  0  0  0
   -4.6472    2.1335    1.1741 O   0  0  0  0  0  0  0  0  0  0  0  0
   -2.2799   -1.0275   -0.4287 C   0  0  0  0  0  0  0  0  0  0  0  0
    3.4098    0.3336   -0.0205 C   0  0  0  0  0  0  0  0  0  0  0  0
    2.6200    1.2854    0.8446 C   0  0  0  0  0  0  0  0  0  0  0  0
    4.9065    2.8189   -0.4677 H   0  0  0  0  0  0  0  0  0  0  0  0
    4.8934    2.5661   -2.2179 H   0  0  0  0  0  0  0  0  0  0  0  0
    3.3654    2.8102   -1.3810 H   0  0  0  0  0  0  0  0  0  0  0  0
    5.6069    0.4087   -2.6626 H   0  0  0  0  0  0  0  0  0  0  0  0
    5.4452   -2.0285   -2.3804 H   0  0  0  0  0  0  0  0  0  0  0  0
    3.9885   -2.9858   -0.6609 H   0  0  0  0  0  0  0  0  0  0  0  0
    2.3565   -2.8555    0.8436 H   0  0  0  0  0  0  0  0  0  0  0  0
    3.1649   -0.7992    2.9590 H   0  0  0  0  0  0  0  0  0  0  0  0
    2.4689   -2.3931    3.2348 H   0  0  0  0  0  0  0  0  0  0  0  0
    4.0761   -2.2414    2.5040 H   0  0  0  0  0  0  0  0  0  0  0  0
    0.8331   -0.4804    1.7110 H   0  0  0  0  0  0  0  0  0  0  0  0
   -2.8044    1.4079    1.5155 H   0  0  0  0  0  0  0  0  0  0  0  0
   -4.6448   -1.2197   -1.9351 H   0  0  0  0  0  0  0  0  0  0  0  0
   -6.9123   -0.6367   -2.6597 H   0  0  0  0  0  0  0  0  0  0  0  0
   -8.1301    1.2428   -1.5957 H   0  0  0  0  0  0  0  0  0  0  0  0
   -7.0657    2.5434    0.2046 H   0  0  0  0  0  0  0  0  0  0  0  0
   -5.2843    2.8137    1.4546 H   0  0  0  0  0  0  0  0  0  0  0  0
   -2.4422   -1.7677   -1.1997 H   0  0  0  0  0  0  0  0  0  0  0  0
    1.6388    1.4693    0.3964 H   0  0  0  0  0  0  0  0  0  0  0  0
    2.4891    0.9117    1.8605 H   0  0  0  0  0  0  0  0  0  0  0  0
    3.1308    2.2452    0.9669 H   0  0  0  0  0  0  0  0  0  0  0  0
  1  2  1  0
  2  3  1  0
  3  4  2  0
  4  5  1  0
  5  6  2  0
  6  7  1  0
  7  8  1  0
  7  9  1  0
  9 10  1  0
 10 11  2  0
 10 12  1  0
 12 13  2  0
 13 14  1  0
 14 15  1  0
 15 16  1  0
 16 17  2  0
 17 18  1  0
 18 19  2  0
 19 20  1  0
 20 21  2  0
 21 22  1  0
 15 23  2  0
  6 24  1  0
 24 25  1  0
 24  2  2  0
 23 12  1  0
 21 16  1  0
  1 26  1  0
  1 27  1  0
  1 28  1  0
  3 29  1  0
  4 30  1  0
  5 31  1  0
  7 32  1  0
  8 33  1  0
  8 34  1  0
  8 35  1  0
  9 36  1  0
 14 37  1  0
 17 38  1  0
 18 39  1  0
 19 40  1  0
 20 41  1  0
 22 42  1  0
 23 43  1  0
 25 44  1  0
 25 45  1  0
 25 46  1  0
M  END
$$$$
OCNT-2308775
     RDKit          3D

 48 50  0  0  0  0  0  0  0  0999 V2000
    5.4651    2.3060   -1.5785 C   0  0  0  0  0  0  0  0  0  0  0  0
    5.8329    1.1740   -2.4117 N   0  0  0  0  0  0  0  0  0  0  0  0
    6.1510   -0.3182   -1.7231 S   0  0  0  0  0  0  0  0  0  0  0  0
    7.1602   -0.1371   -0.7034 O   0  0  0  0  0  0  0  0  0  0  0  0
    6.3266   -1.2473   -2.8171 O   0  0  0  0  0  0  0  0  0  0  0  0
    4.6139   -0.7064   -0.9230 C   0  0  0  0  0  0  0  0  0  0  0  0
    3.5481   -1.1844   -1.6859 C   0  0  0  0  0  0  0  0  0  0  0  0
    2.3434   -1.5017   -1.0563 C   0  0  0  0  0  0  0  0  0  0  0  0
    2.1925   -1.3654    0.3380 C   0  0  0  0  0  0  0  0  0  0  0  0
    0.8452   -1.7186    0.9589 C   0  0  0  0  0  0  0  0  0  0  0  0
    0.8894   -2.0431    2.4547 C   0  0  0  0  0  0  0  0  0  0  0  0
   -0.0575   -0.5958    0.7284 N   0  0  0  0  0  0  0  0  0  0  0  0
   -1.3996   -0.7132    0.6172 C   0  0  0  0  0  0  0  0  0  0  0  0
   -2.2853    0.3442    0.5785 C   0  0  0  0  0  0  0  0  0  0  0  0
   -2.0081    1.7925    0.7576 C   0  0  0  0  0  0  0  0  0  0  0  0
   -3.5491   -0.2221    0.3870 N   0  0  0  0  0  0  0  0  0  0  0  0
   -4.8191    0.3861    0.1270 C   0  0  0  0  0  0  0  0  0  0  0  0
   -5.9845   -0.3846    0.2954 C   0  0  0  0  0  0  0  0  0  0  0  0
   -7.2465    0.1628    0.0511 C   0  0  0  0  0  0  0  0  0  0  0  0
   -7.3616    1.4815   -0.3777 C   0  0  0  0  0  0  0  0  0  0  0  0
   -6.2152    2.2483   -0.5704 C   0  0  0  0  0  0  0  0  0  0  0  0
   -4.9485    1.7042   -0.3257 C   0  0  0  0  0  0  0  0  0  0  0  0
   -3.4889   -1.5836    0.4725 N   0  0  0  0  0  0  0  0  0  0  0  0
   -2.1920   -1.8658    0.5476 C   0  0  0  0  0  0  0  0  0  0  0  0
    3.2803   -0.8811    1.0837 C   0  0  0  0  0  0  0  0  0  0  0  0
    4.4898   -0.5609    0.4600 C   0  0  0  0  0  0  0  0  0  0  0  0
    5.7762    3.2298   -2.0751 H   0  0  0  0  0  0  0  0  0  0  0  0
    5.9544    2.2722   -0.6016 H   0  0  0  0  0  0  0  0  0  0  0  0
    4.3807    2.3393   -1.4439 H   0  0  0  0  0  0  0  0  0  0  0  0
    5.5362    1.1434   -3.3846 H   0  0  0  0  0  0  0  0  0  0  0  0
    3.6465   -1.3141   -2.7614 H   0  0  0  0  0  0  0  0  0  0  0  0
    1.5086   -1.8594   -1.6590 H   0  0  0  0  0  0  0  0  0  0  0  0
    0.4870   -2.6183    0.4407 H   0  0  0  0  0  0  0  0  0  0  0  0
   -0.0869   -2.3981    2.8035 H   0  0  0  0  0  0  0  0  0  0  0  0
    1.6234   -2.8278    2.6674 H   0  0  0  0  0  0  0  0  0  0  0  0
    1.1405   -1.1632    3.0580 H   0  0  0  0  0  0  0  0  0  0  0  0
    0.3733    0.3130    0.8698 H   0  0  0  0  0  0  0  0  0  0  0  0
   -2.7873    2.2856    1.3462 H   0  0  0  0  0  0  0  0  0  0  0  0
   -1.9021    2.2901   -0.2113 H   0  0  0  0  0  0  0  0  0  0  0  0
   -1.0725    1.9481    1.3056 H   0  0  0  0  0  0  0  0  0  0  0  0
   -5.9261   -1.4192    0.6310 H   0  0  0  0  0  0  0  0  0  0  0  0
   -8.1362   -0.4452    0.1938 H   0  0  0  0  0  0  0  0  0  0  0  0
   -8.3425    1.9070   -0.5723 H   0  0  0  0  0  0  0  0  0  0  0  0
   -6.3047    3.2718   -0.9274 H   0  0  0  0  0  0  0  0  0  0  0  0
   -4.0941    2.3307   -0.5460 H   0  0  0  0  0  0  0  0  0  0  0  0
   -1.8914   -2.9039    0.5668 H   0  0  0  0  0  0  0  0  0  0  0  0
    3.2092   -0.7493    2.1611 H   0  0  0  0  0  0  0  0  0  0  0  0
    5.3253   -0.2030    1.0586 H   0  0  0  0  0  0  0  0  0  0  0  0
  1  2  1  0
  2  3  1  0
  3  4  2  0
  3  5  2  0
  3  6  1  0
  6  7  1  0
  7  8  2  0
  8  9  1  0
  9 10  1  0
 10 11  1  0
 10 12  1  0
 12 13  1  0
 13 14  2  0
 14 15  1  0
 14 16  1  0
 16 17  1  0
 17 18  2  0
 18 19  1  0
 19 20  2  0
 20 21  1  0
 21 22  2  0
 16 23  1  0
 23 24  2  0
  9 25  2  0
 25 26  1  0
 26  6  2  0
 24 13  1  0
 22 17  1  0
  1 27  1  0
  1 28  1  0
  1 29  1  0
  2 30  1  0
  7 31  1  0
  8 32  1  0
 10 33  1  0
 11 34  1  0
 11 35  1  0
 11 36  1  0
 12 37  1  0
 15 38  1  0
 15 39  1  0
 15 40  1  0
 18 41  1  0
 19 42  1  0
 20 43  1  0
 21 44  1  0
 22 45  1  0
 24 46  1  0
 25 47  1  0
 26 48  1  0
M  END
$$$$
OCNT-2308782
     RDKit          3D

 45 47  0  0  0  0  0  0  0  0999 V2000
   -4.2871   -0.0932   -1.8191 C   0  0  0  0  0  0  0  0  0  0  0  0
   -3.8487    0.4190   -0.5335 N   0  0  0  0  0  0  0  0  0  0  0  0
   -3.4345   -0.5015    0.4500 C   0  0  0  0  0  0  0  0  0  0  0  0
   -3.9619   -1.7992    0.5310 C   0  0  0  0  0  0  0  0  0  0  0  0
   -3.5769   -2.6798    1.5454 C   0  0  0  0  0  0  0  0  0  0  0  0
   -2.6768   -2.2682    2.5198 C   0  0  0  0  0  0  0  0  0  0  0  0
   -2.1753   -0.9694    2.4897 C   0  0  0  0  0  0  0  0  0  0  0  0
   -2.5528   -0.0719    1.4717 C   0  0  0  0  0  0  0  0  0  0  0  0
   -2.0212    1.3481    1.5318 C   0  0  0  0  0  0  0  0  0  0  0  0
   -1.3767    1.8171    0.2926 N   0  0  0  0  0  0  0  0  0  0  0  0
   -0.1302    1.1011   -0.0370 C   0  0  0  0  0  0  0  0  0  0  0  0
    0.3158    1.5074   -1.4434 C   0  0  0  0  0  0  0  0  0  0  0  0
    1.5419    0.7004   -1.8895 C   0  0  0  0  0  0  0  0  0  0  0  0
    2.3649    0.2885   -0.7386 N   0  0  0  0  0  0  0  0  0  0  0  0
    3.5989   -0.2786   -1.1038 C   0  0  0  0  0  0  0  0  0  0  0  0
    4.3926   -0.9148   -0.1520 C   0  0  0  0  0  0  0  0  0  0  0  0
    5.6033   -1.4974   -0.5202 C   0  0  0  0  0  0  0  0  0  0  0  0
    5.9804   -1.4329   -1.8423 C   0  0  0  0  0  0  0  0  0  0  0  0
    5.2142   -0.8372   -2.7684 N   0  0  0  0  0  0  0  0  0  0  0  0
    4.0162   -0.2718   -2.3908 N   0  0  0  0  0  0  0  0  0  0  0  0
    2.3991    1.2484    0.3618 C   0  0  0  0  0  0  0  0  0  0  0  0
    0.9993    1.3733    0.9745 C   0  0  0  0  0  0  0  0  0  0  0  0
   -5.2536   -0.6004   -1.7403 H   0  0  0  0  0  0  0  0  0  0  0  0
   -3.5462   -0.7715   -2.2554 H   0  0  0  0  0  0  0  0  0  0  0  0
   -4.4190    0.7452   -2.5107 H   0  0  0  0  0  0  0  0  0  0  0  0
   -3.1008    1.1166   -0.6421 H   0  0  0  0  0  0  0  0  0  0  0  0
   -4.6882   -2.1494   -0.1955 H   0  0  0  0  0  0  0  0  0  0  0  0
   -3.9912   -3.6838    1.5750 H   0  0  0  0  0  0  0  0  0  0  0  0
   -2.3794   -2.9506    3.3111 H   0  0  0  0  0  0  0  0  0  0  0  0
   -1.4909   -0.6535    3.2734 H   0  0  0  0  0  0  0  0  0  0  0  0
   -2.8762    2.0042    1.7393 H   0  0  0  0  0  0  0  0  0  0  0  0
   -1.3409    1.4784    2.3816 H   0  0  0  0  0  0  0  0  0  0  0  0
   -1.1785    2.8119    0.3952 H   0  0  0  0  0  0  0  0  0  0  0  0
   -0.3299    0.0220   -0.0656 H   0  0  0  0  0  0  0  0  0  0  0  0
    0.5641    2.5777   -1.4579 H   0  0  0  0  0  0  0  0  0  0  0  0
   -0.4911    1.3675   -2.1737 H   0  0  0  0  0  0  0  0  0  0  0  0
    1.2005   -0.1990   -2.4174 H   0  0  0  0  0  0  0  0  0  0  0  0
    2.1073    1.3157   -2.6014 H   0  0  0  0  0  0  0  0  0  0  0  0
    4.0618   -0.9940    0.8776 H   0  0  0  0  0  0  0  0  0  0  0  0
    6.2255   -1.9988    0.2116 H   0  0  0  0  0  0  0  0  0  0  0  0
    6.9063   -1.8644   -2.2021 H   0  0  0  0  0  0  0  0  0  0  0  0
    3.0949    0.9743    1.1623 H   0  0  0  0  0  0  0  0  0  0  0  0
    2.7295    2.2258   -0.0148 H   0  0  0  0  0  0  0  0  0  0  0  0
    0.9021    0.6641    1.8067 H   0  0  0  0  0  0  0  0  0  0  0  0
    0.9097    2.3743    1.4158 H   0  0  0  0  0  0  0  0  0  0  0  0
  1  2  1  0
  2  3  1  0
  3  4  2  0
  4  5  1  0
  5  6  2  0
  6  7  1  0
  7  8  2  0
  8  9  1  0
  9 10  1  0
 10 11  1  0
 11 12  1  0
 12 13  1  0
 13 14  1  0
 14 15  1  0
 15 16  2  0
 16 17  1  0
 17 18  2  0
 18 19  1  0
 19 20  2  0
 14 21  1  0
 21 22  1  0
  8  3  1  0
 22 11  1  0
 20 15  1  0
  1 23  1  0
  1 24  1  0
  1 25  1  0
  2 26  1  0
  4 27  1  0
  5 28  1  0
  6 29  1  0
  7 30  1  0
  9 31  1  0
  9 32  1  0
 10 33  1  0
 11 34  1  0
 12 35  1  0
 12 36  1  0
 13 37  1  0
 13 38  1  0
 16 39  1  0
 17 40  1  0
 18 41  1  0
 21 42  1  0
 21 43  1  0
 22 44  1  0
 22 45  1  0
M  END
$$$$
OCNT-2308794
     RDKit          3D

 43 45  0  0  0  0  0  0  0  0999 V2000
    1.9593    2.6966    0.5230 O   0  0  0  0  0  0  0  0  0  0  0  0
    1.5331    1.5564    0.6791 C   0  0  0  0  0  0  0  0  0  0  0  0
    0.1899    1.2752    0.7839 N   0  0  0  0  0  0  0  0  0  0  0  0
   -0.8602    2.2531    0.6129 C   0  0  0  0  0  0  0  0  0  0  0  0
   -1.7111    2.0183   -0.6529 C   0  0  0  0  0  0  0  0  0  0  0  0
   -2.4211    0.7318   -0.7957 N   0  0  0  0  0  0  0  0  0  0  0  0
   -3.3258    0.4454    0.3143 C   0  0  0  0  0  0  0  0  0  0  0  0
   -4.0652   -0.8970    0.2723 C   0  0  0  0  0  0  0  0  0  0  0  0
   -4.5426   -1.3230   -1.1136 C   0  0  0  0  0  0  0  0  0  0  0  0
   -3.4508   -2.0423   -1.9026 C   0  0  0  0  0  0  0  0  0  0  0  0
   -2.2759   -1.1693   -2.3409 C   0  0  0  0  0  0  0  0  0  0  0  0
   -1.5802   -0.3811   -1.2271 C   0  0  0  0  0  0  0  0  0  0  0  0
    2.3623    0.3665    0.7718 C   0  0  0  0  0  0  0  0  0  0  0  0
    1.8411   -0.8557    0.8409 N   0  0  0  0  0  0  0  0  0  0  0  0
    2.9076   -1.7150    0.8860 C   0  0  0  0  0  0  0  0  0  0  0  0
    4.0930   -1.0232    0.8626 C   0  0  0  0  0  0  0  0  0  0  0  0
    5.4742   -1.3620    0.8882 C   0  0  0  0  0  0  0  0  0  0  0  0
    6.3937   -0.3800    0.8534 C   0  0  0  0  0  0  0  0  0  0  0  0
    6.0105    1.0209    0.7827 C   0  0  0  0  0  0  0  0  0  0  0  0
    4.7044    1.3394    0.7579 C   0  0  0  0  0  0  0  0  0  0  0  0
    3.7468    0.3237    0.7940 N   0  0  0  0  0  0  0  0  0  0  0  0
   -0.0504    0.2951    0.8974 H   0  0  0  0  0  0  0  0  0  0  0  0
   -1.4789    2.2232    1.5150 H   0  0  0  0  0  0  0  0  0  0  0  0
   -0.4242    3.2580    0.5621 H   0  0  0  0  0  0  0  0  0  0  0  0
   -2.4633    2.8171   -0.6942 H   0  0  0  0  0  0  0  0  0  0  0  0
   -1.0849    2.1799   -1.5410 H   0  0  0  0  0  0  0  0  0  0  0  0
   -2.7954    0.4775    1.2759 H   0  0  0  0  0  0  0  0  0  0  0  0
   -4.0808    1.2414    0.3469 H   0  0  0  0  0  0  0  0  0  0  0  0
   -3.4333   -1.6824    0.7057 H   0  0  0  0  0  0  0  0  0  0  0  0
   -4.9363   -0.8139    0.9337 H   0  0  0  0  0  0  0  0  0  0  0  0
   -5.3745   -2.0262   -0.9808 H   0  0  0  0  0  0  0  0  0  0  0  0
   -4.9397   -0.4714   -1.6784 H   0  0  0  0  0  0  0  0  0  0  0  0
   -3.9043   -2.4844   -2.7996 H   0  0  0  0  0  0  0  0  0  0  0  0
   -3.0681   -2.8824   -1.3098 H   0  0  0  0  0  0  0  0  0  0  0  0
   -2.6133   -0.4773   -3.1236 H   0  0  0  0  0  0  0  0  0  0  0  0
   -1.5319   -1.8209   -2.8179 H   0  0  0  0  0  0  0  0  0  0  0  0
   -0.6418   -0.0094   -1.6567 H   0  0  0  0  0  0  0  0  0  0  0  0
   -1.2968   -1.0396   -0.3967 H   0  0  0  0  0  0  0  0  0  0  0  0
    2.7660   -2.7865    0.9337 H   0  0  0  0  0  0  0  0  0  0  0  0
    5.7701   -2.4066    0.9406 H   0  0  0  0  0  0  0  0  0  0  0  0
    7.4542   -0.6129    0.8733 H   0  0  0  0  0  0  0  0  0  0  0  0
    6.7851    1.7781    0.7477 H   0  0  0  0  0  0  0  0  0  0  0  0
    4.3597    2.3650    0.7041 H   0  0  0  0  0  0  0  0  0  0  0  0
  1  2  2  0
  2  3  1  0
  3  4  1  0
  4  5  1  0
  5  6  1  0
  6  7  1  0
  7  8  1  0
  8  9  1  0
  9 10  1  0
 10 11  1  0
 11 12  1  0
  2 13  1  0
 13 14  2  0
 14 15  1  0
 15 16  2  0
 16 17  1  0
 17 18  2  0
 18 19  1  0
 19 20  2  0
 20 21  1  0
 12  6  1  0
 21 13  1  0
 21 16  1  0
  3 22  1  0
  4 23  1  0
  4 24  1  0
  5 25  1  0
  5 26  1  0
  7 27  1  0
  7 28  1  0
  8 29  1  0
  8 30  1  0
  9 31  1  0
  9 32  1  0
 10 33  1  0
 10 34  1  0
 11 35  1  0
 11 36  1  0
 12 37  1  0
 12 38  1  0
 15 39  1  0
 17 40  1  0
 18 41  1  0
 19 42  1  0
 20 43  1  0
M  END
$$$$
OCNT-2308798
     RDKit          3D

 44 47  0  0  0  0  0  0  0  0999 V2000
   -7.6418   -1.0603    0.4145 C   0  0  0  0  0  0  0  0  0  0  0  0
   -6.1673   -0.8051    0.3130 C   0  0  0  0  0  0  0  0  0  0  0  0
   -5.6261    0.4133    0.7340 C   0  0  0  0  0  0  0  0  0  0  0  0
   -4.2542    0.6699    0.6133 C   0  0  0  0  0  0  0  0  0  0  0  0
   -3.4023   -0.2845    0.0483 C   0  0  0  0  0  0  0  0  0  0  0  0
   -1.9989   -0.0736   -0.0920 N   0  0  0  0  0  0  0  0  0  0  0  0
   -1.1868   -1.1353   -0.3530 N   0  0  0  0  0  0  0  0  0  0  0  0
    0.0718   -0.7434   -0.2909 N   0  0  0  0  0  0  0  0  0  0  0  0
    0.0878    0.6075   -0.0700 C   0  0  0  0  0  0  0  0  0  0  0  0
    1.3441    1.3534    0.0343 C   0  0  0  0  0  0  0  0  0  0  0  0
    1.3675    2.5549    0.2725 O   0  0  0  0  0  0  0  0  0  0  0  0
    2.4414    0.5372   -0.1581 N   0  0  0  0  0  0  0  0  0  0  0  0
    3.8142    0.8756   -0.1229 C   0  0  0  0  0  0  0  0  0  0  0  0
    4.2681    2.1736    0.1211 C   0  0  0  0  0  0  0  0  0  0  0  0
    5.6329    2.4435    0.1369 C   0  0  0  0  0  0  0  0  0  0  0  0
    6.5076    1.4027   -0.0954 C   0  0  0  0  0  0  0  0  0  0  0  0
    6.1130    0.1362   -0.3358 N   0  0  0  0  0  0  0  0  0  0  0  0
    4.7774   -0.1368   -0.3450 C   0  0  0  0  0  0  0  0  0  0  0  0
    4.3820   -1.5762   -0.6342 C   0  0  0  0  0  0  0  0  0  0  0  0
    3.7957   -2.4399    0.4614 C   0  0  0  0  0  0  0  0  0  0  0  0
    5.1801   -2.7157   -0.0396 C   0  0  0  0  0  0  0  0  0  0  0  0
   -1.2179    1.0764   -0.0044 C   0  0  0  0  0  0  0  0  0  0  0  0
   -1.7127    2.4710    0.0822 C   0  0  0  0  0  0  0  0  0  0  0  0
   -3.9484   -1.5111   -0.3682 C   0  0  0  0  0  0  0  0  0  0  0  0
   -5.3186   -1.7625   -0.2472 C   0  0  0  0  0  0  0  0  0  0  0  0
   -7.8454   -2.1277    0.5504 H   0  0  0  0  0  0  0  0  0  0  0  0
   -8.1442   -0.7173   -0.4951 H   0  0  0  0  0  0  0  0  0  0  0  0
   -8.0706   -0.5363    1.2752 H   0  0  0  0  0  0  0  0  0  0  0  0
   -6.2703    1.1727    1.1736 H   0  0  0  0  0  0  0  0  0  0  0  0
   -3.8972    1.6116    1.0106 H   0  0  0  0  0  0  0  0  0  0  0  0
    2.2162   -0.4376   -0.3366 H   0  0  0  0  0  0  0  0  0  0  0  0
    3.5874    2.9984    0.3016 H   0  0  0  0  0  0  0  0  0  0  0  0
    5.9999    3.4462    0.3250 H   0  0  0  0  0  0  0  0  0  0  0  0
    7.5820    1.5614   -0.0960 H   0  0  0  0  0  0  0  0  0  0  0  0
    4.0139   -1.7478   -1.6432 H   0  0  0  0  0  0  0  0  0  0  0  0
    3.0106   -3.1378    0.1928 H   0  0  0  0  0  0  0  0  0  0  0  0
    3.7000   -2.0285    1.4604 H   0  0  0  0  0  0  0  0  0  0  0  0
    6.0160   -2.4765    0.6092 H   0  0  0  0  0  0  0  0  0  0  0  0
    5.3395   -3.5930   -0.6555 H   0  0  0  0  0  0  0  0  0  0  0  0
   -0.9713    3.1818   -0.2947 H   0  0  0  0  0  0  0  0  0  0  0  0
   -2.6045    2.6207   -0.5339 H   0  0  0  0  0  0  0  0  0  0  0  0
   -1.9319    2.7414    1.1193 H   0  0  0  0  0  0  0  0  0  0  0  0
   -3.3237   -2.2875   -0.8078 H   0  0  0  0  0  0  0  0  0  0  0  0
   -5.7152   -2.7149   -0.5929 H   0  0  0  0  0  0  0  0  0  0  0  0
  1  2  1  0
  2  3  1  0
  3  4  2  0
  4  5  1  0
  5  6  1  0
  6  7  1  0
  7  8  2  0
  8  9  1  0
  9 10  1  0
 10 11  2  0
 10 12  1  0
 12 13  1  0
 13 14  1  0
 14 15  2  0
 15 16  1  0
 16 17  2  0
 17 18  1  0
 18 19  1  0
 19 20  1  0
 20 21  1  0
  9 22  2  0
 22 23  1  0
  5 24  2  0
 24 25  1  0
 25  2  2  0
 22  6  1  0
 18 13  2  0
 21 19  1  0
  1 26  1  0
  1 27  1  0
  1 28  1  0
  3 29  1  0
  4 30  1  0
 12 31  1  0
 14 32  1  0
 15 33  1  0
 16 34  1  0
 19 35  1  0
 20 36  1  0
 20 37  1  0
 21 38  1  0
 21 39  1  0
 23 40  1  0
 23 41  1  0
 23 42  1  0
 24 43  1  0
 25 44  1  0
M  END
$$$$
OCNT-2308800
     RDKit          3D

 42 43  0  0  0  0  0  0  0  0999 V2000
   -4.8996   -0.9439   -0.1426 C   0  0  0  0  0  0  0  0  0  0  0  0
   -4.1600    0.3097    0.3356 C   0  0  0  0  0  0  0  0  0  0  0  0
   -4.4903    1.3703   -0.5846 O   0  0  0  0  0  0  0  0  0  0  0  0
   -2.6183    0.1283    0.3105 C   0  0  0  0  0  0  0  0  0  0  0  0
   -2.1319   -0.0312   -1.0758 N   0  0  0  0  0  0  0  0  0  0  0  0
   -0.6733    0.0882   -1.2461 C   0  0  0  0  0  0  0  0  0  0  0  0
   -0.1273    1.4987   -0.9525 C   0  0  0  0  0  0  0  0  0  0  0  0
    0.8290    1.5184    0.2335 C   0  0  0  0  0  0  0  0  0  0  0  0
    1.9294    0.5695    0.0662 N   0  0  0  0  0  0  0  0  0  0  0  0
    3.0570    0.7551    0.8773 C   0  0  0  0  0  0  0  0  0  0  0  0
    3.0640    1.5931    1.7762 O   0  0  0  0  0  0  0  0  0  0  0  0
    4.2209   -0.0639    0.6032 C   0  0  0  0  0  0  0  0  0  0  0  0
    5.1375   -0.5753    1.5100 C   0  0  0  0  0  0  0  0  0  0  0  0
    6.1197   -1.2850    0.7856 C   0  0  0  0  0  0  0  0  0  0  0  0
    7.4356   -2.1090    1.4658 Cl  0  0  0  0  0  0  0  0  0  0  0  0
    5.8138   -1.1686   -0.5485 C   0  0  0  0  0  0  0  0  0  0  0  0
    4.6822   -0.4033   -0.6512 N   0  0  0  0  0  0  0  0  0  0  0  0
    1.6148   -0.7105   -0.5754 C   0  0  0  0  0  0  0  0  0  0  0  0
    0.1197   -1.0187   -0.5356 C   0  0  0  0  0  0  0  0  0  0  0  0
   -4.6014    0.6538    1.7718 C   0  0  0  0  0  0  0  0  0  0  0  0
   -5.9376    0.8804    1.8335 F   0  0  0  0  0  0  0  0  0  0  0  0
   -3.9890    1.7839    2.2084 F   0  0  0  0  0  0  0  0  0  0  0  0
   -5.9844   -0.7938   -0.0944 H   0  0  0  0  0  0  0  0  0  0  0  0
   -4.6454   -1.8174    0.4663 H   0  0  0  0  0  0  0  0  0  0  0  0
   -4.6755   -1.1704   -1.1905 H   0  0  0  0  0  0  0  0  0  0  0  0
   -3.8183    1.3128   -1.2946 H   0  0  0  0  0  0  0  0  0  0  0  0
   -2.1631    1.0218    0.7502 H   0  0  0  0  0  0  0  0  0  0  0  0
   -2.3360   -0.7349    0.9230 H   0  0  0  0  0  0  0  0  0  0  0  0
   -2.4313   -0.9408   -1.4335 H   0  0  0  0  0  0  0  0  0  0  0  0
   -0.5165   -0.0640   -2.3234 H   0  0  0  0  0  0  0  0  0  0  0  0
   -0.9339    2.2251   -0.7981 H   0  0  0  0  0  0  0  0  0  0  0  0
    0.4143    1.8495   -1.8419 H   0  0  0  0  0  0  0  0  0  0  0  0
    1.2399    2.5268    0.3596 H   0  0  0  0  0  0  0  0  0  0  0  0
    0.3052    1.2635    1.1627 H   0  0  0  0  0  0  0  0  0  0  0  0
    5.0858   -0.4470    2.5842 H   0  0  0  0  0  0  0  0  0  0  0  0
    6.3146   -1.5450   -1.4300 H   0  0  0  0  0  0  0  0  0  0  0  0
    4.2557   -0.1031   -1.5182 H   0  0  0  0  0  0  0  0  0  0  0  0
    2.1598   -1.5234   -0.0849 H   0  0  0  0  0  0  0  0  0  0  0  0
    1.9554   -0.6462   -1.6150 H   0  0  0  0  0  0  0  0  0  0  0  0
   -0.0754   -1.9856   -1.0144 H   0  0  0  0  0  0  0  0  0  0  0  0
   -0.1846   -1.1158    0.5130 H   0  0  0  0  0  0  0  0  0  0  0  0
   -4.3618   -0.1522    2.4725 H   0  0  0  0  0  0  0  0  0  0  0  0
  1  2  1  0
  2  3  1  0
  2  4  1  0
  4  5  1  0
  5  6  1  0
  6  7  1  0
  7  8  1  0
  8  9  1  0
  9 10  1  0
 10 11  2  0
 10 12  1  0
 12 13  2  0
 13 14  1  0
 14 15  1  0
 14 16  2  0
 16 17  1  0
  9 18  1  0
 18 19  1  0
  2 20  1  0
 20 21  1  0
 20 22  1  0
 19  6  1  0
 17 12  1  0
  1 23  1  0
  1 24  1  0
  1 25  1  0
  3 26  1  0
  4 27  1  0
  4 28  1  0
  5 29  1  0
  6 30  1  0
  7 31  1  0
  7 32  1  0
  8 33  1  0
  8 34  1  0
 13 35  1  0
 16 36  1  0
 17 37  1  0
 18 38  1  0
 18 39  1  0
 19 40  1  0
 19 41  1  0
 20 42  1  0
M  END
$$$$
OCNT-2308810
     RDKit          3D

 44 47  0  0  0  0  0  0  0  0999 V2000
   -2.1042    2.1435   -1.5570 O   0  0  0  0  0  0  0  0  0  0  0  0
   -2.4192    1.1861   -0.8575 C   0  0  0  0  0  0  0  0  0  0  0  0
   -1.5432    0.5759    0.0138 N   0  0  0  0  0  0  0  0  0  0  0  0
   -0.1645    1.0079    0.1355 C   0  0  0  0  0  0  0  0  0  0  0  0
    0.7108    0.5098   -1.0227 C   0  0  0  0  0  0  0  0  0  0  0  0
    0.9219   -1.0044   -1.0081 C   0  0  0  0  0  0  0  0  0  0  0  0
    2.0563   -1.2151   -0.0061 C   0  0  0  0  0  0  0  0  0  0  0  0
    2.8053    0.0400   -0.0400 N   0  0  0  0  0  0  0  0  0  0  0  0
    4.0846    0.1750    0.4525 C   0  0  0  0  0  0  0  0  0  0  0  0
    4.8746    1.3026    0.1703 C   0  0  0  0  0  0  0  0  0  0  0  0
    6.1738    1.4501    0.6737 C   0  0  0  0  0  0  0  0  0  0  0  0
    6.7209    0.4653    1.4862 C   0  0  0  0  0  0  0  0  0  0  0  0
    5.9601   -0.6564    1.7889 C   0  0  0  0  0  0  0  0  0  0  0  0
    6.6842   -2.0044    2.9018 Br  0  0  0  0  0  0  0  0  0  0  0  0
    4.6632   -0.7990    1.2828 C   0  0  0  0  0  0  0  0  0  0  0  0
    2.1447    1.0338   -0.8863 C   0  0  0  0  0  0  0  0  0  0  0  0
   -3.7357    0.5617   -0.9348 C   0  0  0  0  0  0  0  0  0  0  0  0
   -4.5352    0.6122   -2.0692 C   0  0  0  0  0  0  0  0  0  0  0  0
   -5.6849   -0.0874   -1.8267 N   0  0  0  0  0  0  0  0  0  0  0  0
   -5.6697   -0.5694   -0.5497 C   0  0  0  0  0  0  0  0  0  0  0  0
   -6.6681   -1.2896   -0.0071 N   0  0  0  0  0  0  0  0  0  0  0  0
   -6.4411   -1.6210    1.2824 C   0  0  0  0  0  0  0  0  0  0  0  0
   -5.3156   -1.2769    2.0173 C   0  0  0  0  0  0  0  0  0  0  0  0
   -4.3067   -0.5324    1.4030 C   0  0  0  0  0  0  0  0  0  0  0  0
   -4.4791   -0.1704    0.0524 C   0  0  0  0  0  0  0  0  0  0  0  0
   -1.7997   -0.3272    0.3861 H   0  0  0  0  0  0  0  0  0  0  0  0
    0.1968    0.6504    1.1054 H   0  0  0  0  0  0  0  0  0  0  0  0
   -0.1561    2.1039    0.1620 H   0  0  0  0  0  0  0  0  0  0  0  0
    0.2746    0.8304   -1.9754 H   0  0  0  0  0  0  0  0  0  0  0  0
    0.0283   -1.5797   -0.7501 H   0  0  0  0  0  0  0  0  0  0  0  0
    1.2512   -1.3330   -2.0021 H   0  0  0  0  0  0  0  0  0  0  0  0
    1.6565   -1.3880    0.9992 H   0  0  0  0  0  0  0  0  0  0  0  0
    2.6626   -2.0771   -0.3055 H   0  0  0  0  0  0  0  0  0  0  0  0
    4.4937    2.0989   -0.4637 H   0  0  0  0  0  0  0  0  0  0  0  0
    6.7516    2.3368    0.4264 H   0  0  0  0  0  0  0  0  0  0  0  0
    7.7278    0.5812    1.8758 H   0  0  0  0  0  0  0  0  0  0  0  0
    4.0994   -1.6854    1.5569 H   0  0  0  0  0  0  0  0  0  0  0  0
    2.1659    2.0380   -0.4490 H   0  0  0  0  0  0  0  0  0  0  0  0
    2.6296    1.0622   -1.8696 H   0  0  0  0  0  0  0  0  0  0  0  0
   -4.3640    1.0840   -3.0287 H   0  0  0  0  0  0  0  0  0  0  0  0
   -6.4522   -0.2278   -2.4677 H   0  0  0  0  0  0  0  0  0  0  0  0
   -7.2376   -2.2002    1.7446 H   0  0  0  0  0  0  0  0  0  0  0  0
   -5.2284   -1.5758    3.0565 H   0  0  0  0  0  0  0  0  0  0  0  0
   -3.4330   -0.2293    1.9701 H   0  0  0  0  0  0  0  0  0  0  0  0
  1  2  2  0
  2  3  1  0
  3  4  1  0
  4  5  1  0
  5  6  1  0
  6  7  1  0
  7  8  1  0
  8  9  1  0
  9 10  2  0
 10 11  1  0
 11 12  2  0
 12 13  1  0
 13 14  1  0
 13 15  2  0
  8 16  1  0
  2 17  1  0
 17 18  2  0
 18 19  1  0
 19 20  1  0
 20 21  1  0
 21 22  2  0
 22 23  1  0
 23 24  2  0
 24 25  1  0
 16  5  1  0
 25 17  1  0
 15  9  1  0
 25 20  2  0
  3 26  1  0
  4 27  1  0
  4 28  1  0
  5 29  1  0
  6 30  1  0
  6 31  1  0
  7 32  1  0
  7 33  1  0
 10 34  1  0
 11 35  1  0
 12 36  1  0
 15 37  1  0
 16 38  1  0
 16 39  1  0
 18 40  1  0
 19 41  1  0
 22 42  1  0
 23 43  1  0
 24 44  1  0
M  END
$$$$
OCNT-2308818
     RDKit          3D

 49 53  0  0  0  0  0  0  0  0999 V2000
    6.0048    3.2684   -1.3535 C   0  0  0  0  0  0  0  0  0  0  0  0
    6.5158    2.0980   -0.8119 C   0  0  0  0  0  0  0  0  0  0  0  0
    5.6413    1.0719   -0.4570 C   0  0  0  0  0  0  0  0  0  0  0  0
    4.2651    1.2327   -0.6505 C   0  0  0  0  0  0  0  0  0  0  0  0
    3.2950    0.1650   -0.2874 C   0  0  0  0  0  0  0  0  0  0  0  0
    1.9908    0.3784   -0.5351 N   0  0  0  0  0  0  0  0  0  0  0  0
    1.1190   -0.5890   -0.2033 C   0  0  0  0  0  0  0  0  0  0  0  0
   -0.2670   -0.3491   -0.4196 N   0  0  0  0  0  0  0  0  0  0  0  0
   -0.8709    0.1792    0.8222 C   0  0  0  0  0  0  0  0  0  0  0  0
   -2.1683    0.9364    0.5349 C   0  0  0  0  0  0  0  0  0  0  0  0
   -2.8794    0.3588   -0.6881 C   0  0  0  0  0  0  0  0  0  0  0  0
   -4.0895    1.0796   -0.9606 O   0  0  0  0  0  0  0  0  0  0  0  0
   -5.1935    0.6731   -0.2428 C   0  0  0  0  0  0  0  0  0  0  0  0
   -6.3910    1.3327   -0.4919 C   0  0  0  0  0  0  0  0  0  0  0  0
   -7.5440    1.0319    0.1560 N   0  0  0  0  0  0  0  0  0  0  0  0
   -7.4420    0.0372    1.0654 C   0  0  0  0  0  0  0  0  0  0  0  0
   -6.2480   -0.6219    1.3148 C   0  0  0  0  0  0  0  0  0  0  0  0
   -5.0968   -0.3188    0.6708 N   0  0  0  0  0  0  0  0  0  0  0  0
   -1.9848    0.4911   -1.9322 C   0  0  0  0  0  0  0  0  0  0  0  0
   -0.4947    0.5080   -1.5893 C   0  0  0  0  0  0  0  0  0  0  0  0
    1.5373   -1.8042    0.3681 C   0  0  0  0  0  0  0  0  0  0  0  0
    0.6828   -2.8863    0.7013 C   0  0  0  0  0  0  0  0  0  0  0  0
    1.1906   -4.0532    1.2670 C   0  0  0  0  0  0  0  0  0  0  0  0
    2.5545   -4.1555    1.5007 C   0  0  0  0  0  0  0  0  0  0  0  0
    3.3978   -3.0942    1.1587 C   0  0  0  0  0  0  0  0  0  0  0  0
    2.9135   -1.9216    0.5902 C   0  0  0  0  0  0  0  0  0  0  0  0
    3.7842   -0.9583    0.2764 N   0  0  0  0  0  0  0  0  0  0  0  0
    3.7665    2.3869   -1.1838 N   0  0  0  0  0  0  0  0  0  0  0  0
    4.6356    3.3647   -1.5184 C   0  0  0  0  0  0  0  0  0  0  0  0
    6.6566    4.0858   -1.6405 H   0  0  0  0  0  0  0  0  0  0  0  0
    7.5853    1.9792   -0.6653 H   0  0  0  0  0  0  0  0  0  0  0  0
    6.0351    0.1526   -0.0330 H   0  0  0  0  0  0  0  0  0  0  0  0
   -1.0955   -0.6590    1.4917 H   0  0  0  0  0  0  0  0  0  0  0  0
   -0.1895    0.8522    1.3588 H   0  0  0  0  0  0  0  0  0  0  0  0
   -2.8095    0.9250    1.4232 H   0  0  0  0  0  0  0  0  0  0  0  0
   -1.9499    1.9981    0.3563 H   0  0  0  0  0  0  0  0  0  0  0  0
   -3.0817   -0.7118   -0.5458 H   0  0  0  0  0  0  0  0  0  0  0  0
   -6.4524    2.1280   -1.2253 H   0  0  0  0  0  0  0  0  0  0  0  0
   -8.3533   -0.2202    1.5932 H   0  0  0  0  0  0  0  0  0  0  0  0
   -6.1859   -1.4187    2.0472 H   0  0  0  0  0  0  0  0  0  0  0  0
   -2.2333    1.3888   -2.5116 H   0  0  0  0  0  0  0  0  0  0  0  0
   -2.1999   -0.3546   -2.5986 H   0  0  0  0  0  0  0  0  0  0  0  0
    0.0665    0.1502   -2.4624 H   0  0  0  0  0  0  0  0  0  0  0  0
   -0.1769    1.5407   -1.3902 H   0  0  0  0  0  0  0  0  0  0  0  0
   -0.3847   -2.8143    0.5024 H   0  0  0  0  0  0  0  0  0  0  0  0
    0.5252   -4.8754    1.5169 H   0  0  0  0  0  0  0  0  0  0  0  0
    2.9691   -5.0588    1.9403 H   0  0  0  0  0  0  0  0  0  0  0  0
    4.4668   -3.1882    1.3375 H   0  0  0  0  0  0  0  0  0  0  0  0
    4.1832    4.2586   -1.9377 H   0  0  0  0  0  0  0  0  0  0  0  0
  1  2  2  0
  2  3  1  0
  3  4  2  0
  4  5  1  0
  5  6  2  0
  6  7  1  0
  7  8  1  0
  8  9  1  0
  9 10  1  0
 10 11  1  0
 11 12  1  0
 12 13  1  0
 13 14  2  0
 14 15  1  0
 15 16  2  0
 16 17  1  0
 17 18  2  0
 11 19  1  0
 19 20  1  0
  7 21  2  0
 21 22  1  0
 22 23  2  0
 23 24  1  0
 24 25  2  0
 25 26  1  0
 26 27  2  0
  4 28  1  0
 28 29  2  0
 29  1  1  0
 27  5  1  0
 20  8  1  0
 26 21  1  0
 18 13  1  0
  1 30  1  0
  2 31  1  0
  3 32  1  0
  9 33  1  0
  9 34  1  0
 10 35  1  0
 10 36  1  0
 11 37  1  0
 14 38  1  0
 16 39  1  0
 17 40  1  0
 19 41  1  0
 19 42  1  0
 20 43  1  0
 20 44  1  0
 22 45  1  0
 23 46  1  0
 24 47  1  0
 25 48  1  0
 29 49  1  0
M  END
$$$$
OCNT-2308832
     RDKit          3D

 41 42  0  0  0  0  0  0  0  0999 V2000
    5.2793    1.1734   -0.3497 C   0  0  0  0  0  0  0  0  0  0  0  0
    4.7598   -0.2663   -0.2110 C   0  0  0  0  0  0  0  0  0  0  0  0
    5.3096   -1.1239   -1.3646 C   0  0  0  0  0  0  0  0  0  0  0  0
    5.2629   -0.8560    1.1185 C   0  0  0  0  0  0  0  0  0  0  0  0
    3.2539   -0.2506   -0.2296 C   0  0  0  0  0  0  0  0  0  0  0  0
    2.4152   -0.2935    0.7907 N   0  0  0  0  0  0  0  0  0  0  0  0
    1.1784   -0.2163    0.2013 C   0  0  0  0  0  0  0  0  0  0  0  0
   -0.1107   -0.2103    0.7509 C   0  0  0  0  0  0  0  0  0  0  0  0
   -1.2286   -0.0914   -0.1004 C   0  0  0  0  0  0  0  0  0  0  0  0
   -2.5004   -0.1396    0.4813 N   0  0  0  0  0  0  0  0  0  0  0  0
   -3.6754    0.3134   -0.2731 C   0  0  0  0  0  0  0  0  0  0  0  0
   -4.8980    0.4468    0.6668 C   0  0  0  0  0  0  0  0  0  0  0  0
   -5.2971   -0.9014    1.2713 C   0  0  0  0  0  0  0  0  0  0  0  0
   -4.5575    1.3260    1.7670 O   0  0  0  0  0  0  0  0  0  0  0  0
   -6.0764    1.0295   -0.1238 C   0  0  0  0  0  0  0  0  0  0  0  0
   -6.4116    0.2202   -1.1578 F   0  0  0  0  0  0  0  0  0  0  0  0
   -5.7057    2.2209   -0.6695 F   0  0  0  0  0  0  0  0  0  0  0  0
   -1.0205   -0.0612   -1.4917 C   0  0  0  0  0  0  0  0  0  0  0  0
    0.2619   -0.0611   -2.0658 C   0  0  0  0  0  0  0  0  0  0  0  0
    1.3180   -0.1330   -1.1717 C   0  0  0  0  0  0  0  0  0  0  0  0
    2.6500   -0.1429   -1.4597 O   0  0  0  0  0  0  0  0  0  0  0  0
    4.9468    1.6297   -1.2895 H   0  0  0  0  0  0  0  0  0  0  0  0
    6.3747    1.2035   -0.3335 H   0  0  0  0  0  0  0  0  0  0  0  0
    4.9153    1.8082    0.4669 H   0  0  0  0  0  0  0  0  0  0  0  0
    5.0323   -0.7119   -2.3414 H   0  0  0  0  0  0  0  0  0  0  0  0
    6.4038   -1.1761   -1.3310 H   0  0  0  0  0  0  0  0  0  0  0  0
    4.9230   -2.1487   -1.3178 H   0  0  0  0  0  0  0  0  0  0  0  0
    6.3584   -0.8833    1.1513 H   0  0  0  0  0  0  0  0  0  0  0  0
    4.9220   -0.2636    1.9762 H   0  0  0  0  0  0  0  0  0  0  0  0
    4.8988   -1.8803    1.2627 H   0  0  0  0  0  0  0  0  0  0  0  0
   -0.2269   -0.2931    1.8259 H   0  0  0  0  0  0  0  0  0  0  0  0
   -2.5008    0.2209    1.4372 H   0  0  0  0  0  0  0  0  0  0  0  0
   -3.8963   -0.3894   -1.0845 H   0  0  0  0  0  0  0  0  0  0  0  0
   -3.4528    1.2960   -0.7085 H   0  0  0  0  0  0  0  0  0  0  0  0
   -5.5252   -1.6397    0.4951 H   0  0  0  0  0  0  0  0  0  0  0  0
   -4.5045   -1.3028    1.9122 H   0  0  0  0  0  0  0  0  0  0  0  0
   -6.1780   -0.7903    1.9128 H   0  0  0  0  0  0  0  0  0  0  0  0
   -4.2931    2.1809    1.3754 H   0  0  0  0  0  0  0  0  0  0  0  0
   -6.9563    1.2063    0.5023 H   0  0  0  0  0  0  0  0  0  0  0  0
   -1.8671   -0.0322   -2.1732 H   0  0  0  0  0  0  0  0  0  0  0  0
    0.4188   -0.0166   -3.1360 H   0  0  0  0  0  0  0  0  0  0  0  0
  1  2  1  0
  2  3  1  0
  2  4  1  0
  2  5  1  0
  5  6  2  0
  6  7  1  0
  7  8  2  0
  8  9  1  0
  9 10  1  0
 10 11  1  0
 11 12  1  0
 12 13  1  0
 12 14  1  0
 12 15  1  0
 15 16  1  0
 15 17  1  0
  9 18  2  0
 18 19  1  0
 19 20  2  0
 20 21  1  0
 21  5  1  0
 20  7  1  0
  1 22  1  0
  1 23  1  0
  1 24  1  0
  3 25  1  0
  3 26  1  0
  3 27  1  0
  4 28  1  0
  4 29  1  0
  4 30  1  0
  8 31  1  0
 10 32  1  0
 11 33  1  0
 11 34  1  0
 13 35  1  0
 13 36  1  0
 13 37  1  0
 14 38  1  0
 15 39  1  0
 18 40  1  0
 19 41  1  0
M  END
$$$$
OCNT-2308837
     RDKit          3D

 47 49  0  0  0  0  0  0  0  0999 V2000
   -0.3778   -1.7502   -1.9933 C   0  0  0  0  0  0  0  0  0  0  0  0
   -0.6174   -0.7065   -0.8958 C   0  0  0  0  0  0  0  0  0  0  0  0
    0.4334   -0.7468    0.1372 N   0  0  0  0  0  0  0  0  0  0  0  0
    1.6861   -0.0979   -0.3138 C   0  0  0  0  0  0  0  0  0  0  0  0
    2.8583   -0.3151    0.6949 C   0  0  0  0  0  0  0  0  0  0  0  0
    3.3115   -1.7846    0.7219 C   0  0  0  0  0  0  0  0  0  0  0  0
    2.3577   -0.0126    2.0114 O   0  0  0  0  0  0  0  0  0  0  0  0
    4.0299    0.6070    0.3548 C   0  0  0  0  0  0  0  0  0  0  0  0
    4.4474    1.6171    1.2376 C   0  0  0  0  0  0  0  0  0  0  0  0
    5.5130    2.4620    0.9165 C   0  0  0  0  0  0  0  0  0  0  0  0
    6.1819    2.3136   -0.2949 C   0  0  0  0  0  0  0  0  0  0  0  0
    5.7861    1.3203   -1.1858 C   0  0  0  0  0  0  0  0  0  0  0  0
    4.7203    0.4754   -0.8648 C   0  0  0  0  0  0  0  0  0  0  0  0
   -1.9809   -0.9341   -0.2505 C   0  0  0  0  0  0  0  0  0  0  0  0
   -2.2427   -2.0869    0.5035 C   0  0  0  0  0  0  0  0  0  0  0  0
   -3.4920   -2.2832    1.0871 C   0  0  0  0  0  0  0  0  0  0  0  0
   -4.5013   -1.3312    0.9284 C   0  0  0  0  0  0  0  0  0  0  0  0
   -4.2669   -0.1680    0.1816 C   0  0  0  0  0  0  0  0  0  0  0  0
   -5.2948    0.8077    0.0176 N   0  0  0  0  0  0  0  0  0  0  0  0
   -5.2217    1.9977   -0.6775 C   0  0  0  0  0  0  0  0  0  0  0  0
   -6.4539    2.5946   -0.5531 C   0  0  0  0  0  0  0  0  0  0  0  0
   -7.2925    1.8215    0.1930 N   0  0  0  0  0  0  0  0  0  0  0  0
   -6.5796    0.7656    0.5203 C   0  0  0  0  0  0  0  0  0  0  0  0
   -3.0030    0.0216   -0.4034 C   0  0  0  0  0  0  0  0  0  0  0  0
   -1.2131   -1.7658   -2.7033 H   0  0  0  0  0  0  0  0  0  0  0  0
   -0.2774   -2.7612   -1.5821 H   0  0  0  0  0  0  0  0  0  0  0  0
    0.5292   -1.5337   -2.5661 H   0  0  0  0  0  0  0  0  0  0  0  0
   -0.6242    0.2885   -1.3600 H   0  0  0  0  0  0  0  0  0  0  0  0
    0.0902   -0.1935    0.9271 H   0  0  0  0  0  0  0  0  0  0  0  0
    1.4890    0.9779   -0.4140 H   0  0  0  0  0  0  0  0  0  0  0  0
    1.9876   -0.4689   -1.2991 H   0  0  0  0  0  0  0  0  0  0  0  0
    3.6480   -2.1344   -0.2594 H   0  0  0  0  0  0  0  0  0  0  0  0
    2.5042   -2.4457    1.0569 H   0  0  0  0  0  0  0  0  0  0  0  0
    4.1354   -1.9220    1.4327 H   0  0  0  0  0  0  0  0  0  0  0  0
    1.6628   -0.6746    2.1777 H   0  0  0  0  0  0  0  0  0  0  0  0
    3.9434    1.7552    2.1925 H   0  0  0  0  0  0  0  0  0  0  0  0
    5.8190    3.2347    1.6170 H   0  0  0  0  0  0  0  0  0  0  0  0
    7.0114    2.9702   -0.5426 H   0  0  0  0  0  0  0  0  0  0  0  0
    6.3082    1.2008   -2.1315 H   0  0  0  0  0  0  0  0  0  0  0  0
    4.4371   -0.2916   -1.5822 H   0  0  0  0  0  0  0  0  0  0  0  0
   -1.4657   -2.8366    0.6424 H   0  0  0  0  0  0  0  0  0  0  0  0
   -3.6801   -3.1821    1.6698 H   0  0  0  0  0  0  0  0  0  0  0  0
   -5.4543   -1.5367    1.4058 H   0  0  0  0  0  0  0  0  0  0  0  0
   -4.3361    2.3317   -1.1939 H   0  0  0  0  0  0  0  0  0  0  0  0
   -6.7763    3.5426   -0.9643 H   0  0  0  0  0  0  0  0  0  0  0  0
   -6.9565   -0.0510    1.1187 H   0  0  0  0  0  0  0  0  0  0  0  0
   -2.7829    0.9091   -0.9894 H   0  0  0  0  0  0  0  0  0  0  0  0
  1  2  1  0
  2  3  1  0
  3  4  1  0
  4  5  1  0
  5  6  1  0
  5  7  1  0
  5  8  1  0
  8  9  2  0
  9 10  1  0
 10 11  2  0
 11 12  1  0
 12 13  2  0
  2 14  1  0
 14 15  2  0
 15 16  1  0
 16 17  2  0
 17 18  1  0
 18 19  1  0
 19 20  1  0
 20 21  2  0
 21 22  1  0
 22 23  2  0
 18 24  2  0
 13  8  1  0
 24 14  1  0
 23 19  1  0
  1 25  1  0
  1 26  1  0
  1 27  1  0
  2 28  1  0
  3 29  1  0
  4 30  1  0
  4 31  1  0
  6 32  1  0
  6 33  1  0
  6 34  1  0
  7 35  1  0
  9 36  1  0
 10 37  1  0
 11 38  1  0
 12 39  1  0
 13 40  1  0
 15 41  1  0
 16 42  1  0
 17 43  1  0
 20 44  1  0
 21 45  1  0
 23 46  1  0
 24 47  1  0
M  END
$$$$
OCNT-2308839
     RDKit          3D

 40 42  0  0  0  0  0  0  0  0999 V2000
   -5.2310   -0.0125   -0.7279 C   0  0  0  0  0  0  0  0  0  0  0  0
   -4.1455    0.8108    0.0007 C   0  0  0  0  0  0  0  0  0  0  0  0
   -3.7962    2.0207   -0.8864 C   0  0  0  0  0  0  0  0  0  0  0  0
   -4.7410    1.3175    1.3275 C   0  0  0  0  0  0  0  0  0  0  0  0
   -2.8901   -0.0863    0.2398 C   0  0  0  0  0  0  0  0  0  0  0  0
   -3.2999   -1.2614    0.9558 O   0  0  0  0  0  0  0  0  0  0  0  0
   -1.7464    0.5963    1.0197 C   0  0  0  0  0  0  0  0  0  0  0  0
   -0.4631   -0.1552    0.9071 C   0  0  0  0  0  0  0  0  0  0  0  0
    0.7851    0.2793    0.5211 C   0  0  0  0  0  0  0  0  0  0  0  0
    1.5914   -0.8342    0.6032 N   0  0  0  0  0  0  0  0  0  0  0  0
    2.9762   -0.9563    0.3196 C   0  0  0  0  0  0  0  0  0  0  0  0
    3.6068   -2.2152    0.4732 C   0  0  0  0  0  0  0  0  0  0  0  0
    4.9708   -2.3707    0.2018 C   0  0  0  0  0  0  0  0  0  0  0  0
    5.6711   -1.2618   -0.2170 C   0  0  0  0  0  0  0  0  0  0  0  0
    6.9946   -1.2258   -0.5243 O   0  0  0  0  0  0  0  0  0  0  0  0
    7.1533    0.1616   -0.8854 C   0  0  0  0  0  0  0  0  0  0  0  0
    5.9302    0.9225   -0.7888 O   0  0  0  0  0  0  0  0  0  0  0  0
    5.0633   -0.0378   -0.3674 C   0  0  0  0  0  0  0  0  0  0  0  0
    3.7206    0.1536   -0.1092 C   0  0  0  0  0  0  0  0  0  0  0  0
    0.8486   -1.8911    1.0167 N   0  0  0  0  0  0  0  0  0  0  0  0
   -0.3970   -1.4851    1.2111 N   0  0  0  0  0  0  0  0  0  0  0  0
   -4.8502   -0.4150   -1.6733 H   0  0  0  0  0  0  0  0  0  0  0  0
   -5.5790   -0.8545   -0.1197 H   0  0  0  0  0  0  0  0  0  0  0  0
   -6.1072    0.6042   -0.9593 H   0  0  0  0  0  0  0  0  0  0  0  0
   -3.1272    2.7233   -0.3802 H   0  0  0  0  0  0  0  0  0  0  0  0
   -4.6975    2.5820   -1.1594 H   0  0  0  0  0  0  0  0  0  0  0  0
   -3.3116    1.7010   -1.8156 H   0  0  0  0  0  0  0  0  0  0  0  0
   -4.0386    1.9649    1.8629 H   0  0  0  0  0  0  0  0  0  0  0  0
   -5.0070    0.4879    1.9914 H   0  0  0  0  0  0  0  0  0  0  0  0
   -5.6509    1.9028    1.1514 H   0  0  0  0  0  0  0  0  0  0  0  0
   -2.5174   -0.4266   -0.7357 H   0  0  0  0  0  0  0  0  0  0  0  0
   -2.5027   -1.8146    1.0807 H   0  0  0  0  0  0  0  0  0  0  0  0
   -2.0018    0.6620    2.0842 H   0  0  0  0  0  0  0  0  0  0  0  0
   -1.5756    1.6133    0.6544 H   0  0  0  0  0  0  0  0  0  0  0  0
    1.1434    1.2476    0.2114 H   0  0  0  0  0  0  0  0  0  0  0  0
    3.0437   -3.0869    0.8057 H   0  0  0  0  0  0  0  0  0  0  0  0
    5.4604   -3.3314    0.3173 H   0  0  0  0  0  0  0  0  0  0  0  0
    7.5192    0.2162   -1.9172 H   0  0  0  0  0  0  0  0  0  0  0  0
    7.9003    0.6136   -0.2227 H   0  0  0  0  0  0  0  0  0  0  0  0
    3.2978    1.1412   -0.2453 H   0  0  0  0  0  0  0  0  0  0  0  0
  1  2  1  0
  2  3  1  0
  2  4  1  0
  2  5  1  0
  5  6  1  0
  5  7  1  0
  7  8  1  0
  8  9  2  0
  9 10  1  0
 10 11  1  0
 11 12  1  0
 12 13  2  0
 13 14  1  0
 14 15  1  0
 15 16  1  0
 16 17  1  0
 17 18  1  0
 18 19  1  0
 10 20  1  0
 20 21  2  0
 21  8  1  0
 19 11  2  0
 18 14  2  0
  1 22  1  0
  1 23  1  0
  1 24  1  0
  3 25  1  0
  3 26  1  0
  3 27  1  0
  4 28  1  0
  4 29  1  0
  4 30  1  0
  5 31  1  0
  6 32  1  0
  7 33  1  0
  7 34  1  0
  9 35  1  0
 12 36  1  0
 13 37  1  0
 16 38  1  0
 16 39  1  0
 19 40  1  0
M  END
$$$$
OCNT-2308851
     RDKit          3D

 49 52  0  0  0  0  0  0  0  0999 V2000
   -5.3456    0.3318   -0.5434 C   0  0  0  0  0  0  0  0  0  0  0  0
   -3.8238    0.1842   -0.6117 C   0  0  0  0  0  0  0  0  0  0  0  0
   -3.4491   -0.9037   -1.6236 C   0  0  0  0  0  0  0  0  0  0  0  0
   -1.9276   -1.0777   -1.7328 C   0  0  0  0  0  0  0  0  0  0  0  0
   -1.1706    0.1752   -1.5964 N   0  0  0  0  0  0  0  0  0  0  0  0
    0.1257    0.1500   -2.2950 C   0  0  0  0  0  0  0  0  0  0  0  0
    1.0882   -0.7956   -1.5800 C   0  0  0  0  0  0  0  0  0  0  0  0
    1.7874   -0.3867   -0.5579 N   0  0  0  0  0  0  0  0  0  0  0  0
    2.5933   -1.3383   -0.0112 C   0  0  0  0  0  0  0  0  0  0  0  0
    2.7096   -2.6388   -0.4455 C   0  0  0  0  0  0  0  0  0  0  0  0
    3.6351   -3.2467    0.3955 C   0  0  0  0  0  0  0  0  0  0  0  0
    4.1030   -2.4038    1.3175 N   0  0  0  0  0  0  0  0  0  0  0  0
    3.4545   -1.2143    1.0807 N   0  0  0  0  0  0  0  0  0  0  0  0
    3.7234   -0.0852    1.9143 C   0  0  0  0  0  0  0  0  0  0  0  0
    3.0735    1.1425    1.7366 C   0  0  0  0  0  0  0  0  0  0  0  0
    3.3677    2.2251    2.5730 C   0  0  0  0  0  0  0  0  0  0  0  0
    4.3091    2.0932    3.5907 C   0  0  0  0  0  0  0  0  0  0  0  0
    4.9595    0.8770    3.7789 C   0  0  0  0  0  0  0  0  0  0  0  0
    4.6693   -0.2075    2.9474 C   0  0  0  0  0  0  0  0  0  0  0  0
    1.9365   -3.0808   -1.5659 C   0  0  0  0  0  0  0  0  0  0  0  0
    1.9557   -4.2186   -2.0194 O   0  0  0  0  0  0  0  0  0  0  0  0
    1.1489   -2.0820   -2.0964 N   0  0  0  0  0  0  0  0  0  0  0  0
   -1.9745    1.3370   -1.9762 C   0  0  0  0  0  0  0  0  0  0  0  0
   -3.1305    1.5313   -0.9711 C   0  0  0  0  0  0  0  0  0  0  0  0
   -2.6139    2.2463    0.2902 C   0  0  0  0  0  0  0  0  0  0  0  0
   -3.6864    2.5932    1.1585 O   0  0  0  0  0  0  0  0  0  0  0  0
   -5.6422    1.0860    0.1916 H   0  0  0  0  0  0  0  0  0  0  0  0
   -5.8128   -0.6149   -0.2540 H   0  0  0  0  0  0  0  0  0  0  0  0
   -5.7580    0.6269   -1.5143 H   0  0  0  0  0  0  0  0  0  0  0  0
   -3.4775   -0.1524    0.3748 H   0  0  0  0  0  0  0  0  0  0  0  0
   -3.8582   -0.6433   -2.6088 H   0  0  0  0  0  0  0  0  0  0  0  0
   -3.9024   -1.8618   -1.3422 H   0  0  0  0  0  0  0  0  0  0  0  0
   -1.7266   -1.5637   -2.6956 H   0  0  0  0  0  0  0  0  0  0  0  0
   -1.5933   -1.7669   -0.9486 H   0  0  0  0  0  0  0  0  0  0  0  0
    0.0117   -0.1357   -3.3469 H   0  0  0  0  0  0  0  0  0  0  0  0
    0.5933    1.1424   -2.2690 H   0  0  0  0  0  0  0  0  0  0  0  0
    3.9968   -4.2672    0.3803 H   0  0  0  0  0  0  0  0  0  0  0  0
    2.3284    1.2972    0.9635 H   0  0  0  0  0  0  0  0  0  0  0  0
    2.8564    3.1737    2.4274 H   0  0  0  0  0  0  0  0  0  0  0  0
    4.5340    2.9369    4.2368 H   0  0  0  0  0  0  0  0  0  0  0  0
    5.6935    0.7683    4.5728 H   0  0  0  0  0  0  0  0  0  0  0  0
    5.1944   -1.1459    3.1184 H   0  0  0  0  0  0  0  0  0  0  0  0
    0.5731   -2.3538   -2.8779 H   0  0  0  0  0  0  0  0  0  0  0  0
   -2.3678    1.2187   -2.9948 H   0  0  0  0  0  0  0  0  0  0  0  0
   -1.3635    2.2485   -1.9897 H   0  0  0  0  0  0  0  0  0  0  0  0
   -3.8695    2.1925   -1.4439 H   0  0  0  0  0  0  0  0  0  0  0  0
   -1.8946    1.6341    0.8459 H   0  0  0  0  0  0  0  0  0  0  0  0
   -2.1106    3.1804    0.0179 H   0  0  0  0  0  0  0  0  0  0  0  0
   -3.9230    1.7928    1.6574 H   0  0  0  0  0  0  0  0  0  0  0  0
  1  2  1  0
  2  3  1  0
  3  4  1  0
  4  5  1  0
  5  6  1  0
  6  7  1  0
  7  8  2  0
  8  9  1  0
  9 10  2  0
 10 11  1  0
 11 12  2  0
 12 13  1  0
 13 14  1  0
 14 15  2  0
 15 16  1  0
 16 17  2  0
 17 18  1  0
 18 19  2  0
 10 20  1  0
 20 21  2  0
 20 22  1  0
  5 23  1  0
 23 24  1  0
 24 25  1  0
 25 26  1  0
 24  2  1  0
 22  7  1  0
 13  9  1  0
 19 14  1  0
  1 27  1  0
  1 28  1  0
  1 29  1  0
  2 30  1  0
  3 31  1  0
  3 32  1  0
  4 33  1  0
  4 34  1  0
  6 35  1  0
  6 36  1  0
 11 37  1  0
 15 38  1  0
 16 39  1  0
 17 40  1  0
 18 41  1  0
 19 42  1  0
 22 43  1  0
 23 44  1  0
 23 45  1  0
 24 46  1  0
 25 47  1  0
 25 48  1  0
 26 49  1  0
M  END
$$$$
OCNT-2308854
     RDKit          3D

 42 45  0  0  0  0  0  0  0  0999 V2000
   -1.6899    1.9844    2.3407 O   0  0  0  0  0  0  0  0  0  0  0  0
   -1.7982    0.9245    1.7301 C   0  0  0  0  0  0  0  0  0  0  0  0
   -0.7402    0.0464    1.5826 N   0  0  0  0  0  0  0  0  0  0  0  0
    0.5894    0.3916    2.0266 C   0  0  0  0  0  0  0  0  0  0  0  0
    1.4186    0.9115    0.8799 C   0  0  0  0  0  0  0  0  0  0  0  0
    1.3135    2.2521    0.4880 C   0  0  0  0  0  0  0  0  0  0  0  0
    2.0650    2.7377   -0.5804 C   0  0  0  0  0  0  0  0  0  0  0  0
    2.9291    1.8887   -1.2713 C   0  0  0  0  0  0  0  0  0  0  0  0
    3.0521    0.5418   -0.9011 C   0  0  0  0  0  0  0  0  0  0  0  0
    3.9732   -0.3713   -1.6731 C   0  0  0  0  0  0  0  0  0  0  0  0
    4.9316   -1.0499   -0.8166 N   0  0  0  0  0  0  0  0  0  0  0  0
    5.0176   -2.3990   -0.6051 C   0  0  0  0  0  0  0  0  0  0  0  0
    6.0963   -2.5571    0.2334 C   0  0  0  0  0  0  0  0  0  0  0  0
    6.6667   -1.3458    0.5263 N   0  0  0  0  0  0  0  0  0  0  0  0
    5.9470   -0.4567   -0.1208 C   0  0  0  0  0  0  0  0  0  0  0  0
    2.2793    0.0605    0.1698 C   0  0  0  0  0  0  0  0  0  0  0  0
   -3.0540    0.5004    1.0908 C   0  0  0  0  0  0  0  0  0  0  0  0
   -3.3603   -0.7325    0.5346 C   0  0  0  0  0  0  0  0  0  0  0  0
   -4.6517   -0.6354    0.0795 N   0  0  0  0  0  0  0  0  0  0  0  0
   -5.4410   -1.5903   -0.5581 C   0  0  0  0  0  0  0  0  0  0  0  0
   -6.6949   -1.2668   -0.9184 C   0  0  0  0  0  0  0  0  0  0  0  0
   -7.1872    0.0725   -0.6295 C   0  0  0  0  0  0  0  0  0  0  0  0
   -6.4156    0.9885   -0.0113 C   0  0  0  0  0  0  0  0  0  0  0  0
   -5.0872    0.6495    0.3717 C   0  0  0  0  0  0  0  0  0  0  0  0
   -4.1501    1.3440    0.9766 N   0  0  0  0  0  0  0  0  0  0  0  0
   -0.8259   -0.7063    0.9190 H   0  0  0  0  0  0  0  0  0  0  0  0
    0.5554    1.1284    2.8369 H   0  0  0  0  0  0  0  0  0  0  0  0
    1.0394   -0.5186    2.4384 H   0  0  0  0  0  0  0  0  0  0  0  0
    0.6382    2.9247    1.0167 H   0  0  0  0  0  0  0  0  0  0  0  0
    1.9734    3.7808   -0.8736 H   0  0  0  0  0  0  0  0  0  0  0  0
    3.5041    2.2921   -2.1024 H   0  0  0  0  0  0  0  0  0  0  0  0
    4.5587    0.1806   -2.4179 H   0  0  0  0  0  0  0  0  0  0  0  0
    3.3839   -1.1276   -2.2040 H   0  0  0  0  0  0  0  0  0  0  0  0
    4.3361   -3.1098   -1.0501 H   0  0  0  0  0  0  0  0  0  0  0  0
    6.4956   -3.4780    0.6386 H   0  0  0  0  0  0  0  0  0  0  0  0
    6.1129    0.6132   -0.1166 H   0  0  0  0  0  0  0  0  0  0  0  0
    2.3576   -0.9851    0.4646 H   0  0  0  0  0  0  0  0  0  0  0  0
   -2.8006   -1.6499    0.4367 H   0  0  0  0  0  0  0  0  0  0  0  0
   -5.0054   -2.5646   -0.7375 H   0  0  0  0  0  0  0  0  0  0  0  0
   -7.3518   -1.9721   -1.4163 H   0  0  0  0  0  0  0  0  0  0  0  0
   -8.2030    0.3159   -0.9268 H   0  0  0  0  0  0  0  0  0  0  0  0
   -6.7776    1.9867    0.2076 H   0  0  0  0  0  0  0  0  0  0  0  0
  1  2  2  0
  2  3  1  0
  3  4  1  0
  4  5  1  0
  5  6  1  0
  6  7  2  0
  7  8  1  0
  8  9  2  0
  9 10  1  0
 10 11  1  0
 11 12  1  0
 12 13  2  0
 13 14  1  0
 14 15  2  0
  9 16  1  0
  2 17  1  0
 17 18  2  0
 18 19  1  0
 19 20  1  0
 20 21  2  0
 21 22  1  0
 22 23  2  0
 23 24  1  0
 24 25  2  0
 16  5  2  0
 25 17  1  0
 15 11  1  0
 24 19  1  0
  3 26  1  0
  4 27  1  0
  4 28  1  0
  6 29  1  0
  7 30  1  0
  8 31  1  0
 10 32  1  0
 10 33  1  0
 12 34  1  0
 13 35  1  0
 15 36  1  0
 16 37  1  0
 18 38  1  0
 20 39  1  0
 21 40  1  0
 22 41  1  0
 23 42  1  0
M  END
$$$$
OCNT-2308858
     RDKit          3D

 47 50  0  0  0  0  0  0  0  0999 V2000
   -7.8721   -0.3726   -0.2794 C   0  0  0  0  0  0  0  0  0  0  0  0
   -6.4655   -0.1759    0.0175 N   0  0  0  0  0  0  0  0  0  0  0  0
   -5.9902    1.1940    0.1431 C   0  0  0  0  0  0  0  0  0  0  0  0
   -4.7068    1.2733    0.9619 C   0  0  0  0  0  0  0  0  0  0  0  0
   -3.6893    0.3045    0.4283 C   0  0  0  0  0  0  0  0  0  0  0  0
   -2.3149    0.5466    0.5853 C   0  0  0  0  0  0  0  0  0  0  0  0
   -1.3617   -0.3714    0.1196 C   0  0  0  0  0  0  0  0  0  0  0  0
   -0.0046   -0.0403    0.3130 N   0  0  0  0  0  0  0  0  0  0  0  0
    1.1085   -0.7785   -0.0606 C   0  0  0  0  0  0  0  0  0  0  0  0
    1.1061   -1.8633   -0.6291 O   0  0  0  0  0  0  0  0  0  0  0  0
    2.3957   -0.0721    0.3345 C   0  0  0  0  0  0  0  0  0  0  0  0
    3.6469   -0.8237   -0.1265 C   0  0  0  0  0  0  0  0  0  0  0  0
    3.9077   -0.7001   -1.6465 C   0  0  0  0  0  0  0  0  0  0  0  0
    4.7828    0.5447   -1.8559 C   0  0  0  0  0  0  0  0  0  0  0  0
    5.5327    0.5929   -0.5630 C   0  0  0  0  0  0  0  0  0  0  0  0
    6.6830    1.3071   -0.2736 C   0  0  0  0  0  0  0  0  0  0  0  0
    7.2060    1.2263    1.0187 C   0  0  0  0  0  0  0  0  0  0  0  0
    6.5735    0.4457    1.9989 C   0  0  0  0  0  0  0  0  0  0  0  0
    5.4069   -0.2617    1.7016 C   0  0  0  0  0  0  0  0  0  0  0  0
    4.8951   -0.1773    0.4163 C   0  0  0  0  0  0  0  0  0  0  0  0
   -1.7996   -1.5447   -0.4961 C   0  0  0  0  0  0  0  0  0  0  0  0
   -3.1677   -1.8029   -0.6420 C   0  0  0  0  0  0  0  0  0  0  0  0
   -4.1146   -0.8841   -0.1810 C   0  0  0  0  0  0  0  0  0  0  0  0
   -5.5692   -1.1893   -0.3311 C   0  0  0  0  0  0  0  0  0  0  0  0
   -5.9209   -2.2908   -0.7422 O   0  0  0  0  0  0  0  0  0  0  0  0
   -8.4752    0.1889    0.4396 H   0  0  0  0  0  0  0  0  0  0  0  0
   -8.1431   -1.4302   -0.2169 H   0  0  0  0  0  0  0  0  0  0  0  0
   -8.0716   -0.0133   -1.2933 H   0  0  0  0  0  0  0  0  0  0  0  0
   -5.8287    1.5808   -0.8708 H   0  0  0  0  0  0  0  0  0  0  0  0
   -6.7654    1.8007    0.6240 H   0  0  0  0  0  0  0  0  0  0  0  0
   -4.3215    2.2987    0.9297 H   0  0  0  0  0  0  0  0  0  0  0  0
   -4.9100    1.0190    2.0093 H   0  0  0  0  0  0  0  0  0  0  0  0
   -1.9956    1.4622    1.0780 H   0  0  0  0  0  0  0  0  0  0  0  0
    0.1751    0.8393    0.7811 H   0  0  0  0  0  0  0  0  0  0  0  0
    2.3779    0.9457   -0.0755 H   0  0  0  0  0  0  0  0  0  0  0  0
    2.3949    0.0132    1.4290 H   0  0  0  0  0  0  0  0  0  0  0  0
    3.6056   -1.8812    0.1595 H   0  0  0  0  0  0  0  0  0  0  0  0
    4.4713   -1.5842   -1.9782 H   0  0  0  0  0  0  0  0  0  0  0  0
    2.9948   -0.6642   -2.2492 H   0  0  0  0  0  0  0  0  0  0  0  0
    5.4437    0.4259   -2.7191 H   0  0  0  0  0  0  0  0  0  0  0  0
    4.1715    1.4453   -1.9721 H   0  0  0  0  0  0  0  0  0  0  0  0
    7.1721    1.9125   -1.0299 H   0  0  0  0  0  0  0  0  0  0  0  0
    8.1127    1.7717    1.2688 H   0  0  0  0  0  0  0  0  0  0  0  0
    6.9974    0.3922    2.9988 H   0  0  0  0  0  0  0  0  0  0  0  0
    4.9193   -0.8640    2.4614 H   0  0  0  0  0  0  0  0  0  0  0  0
   -1.1049   -2.2902   -0.8707 H   0  0  0  0  0  0  0  0  0  0  0  0
   -3.4881   -2.7294   -1.1151 H   0  0  0  0  0  0  0  0  0  0  0  0
  1  2  1  0
  2  3  1  0
  3  4  1  0
  4  5  1  0
  5  6  1  0
  6  7  2  0
  7  8  1  0
  8  9  1  0
  9 10  2  0
  9 11  1  0
 11 12  1  0
 12 13  1  0
 13 14  1  0
 14 15  1  0
 15 16  2  0
 16 17  1  0
 17 18  2  0
 18 19  1  0
 19 20  2  0
  7 21  1  0
 21 22  2  0
 22 23  1  0
 23 24  1  0
 24 25  2  0
 24  2  1  0
 23  5  2  0
 20 12  1  0
 20 15  1  0
  1 26  1  0
  1 27  1  0
  1 28  1  0
  3 29  1  0
  3 30  1  0
  4 31  1  0
  4 32  1  0
  6 33  1  0
  8 34  1  0
 11 35  1  0
 11 36  1  0
 12 37  1  0
 13 38  1  0
 13 39  1  0
 14 40  1  0
 14 41  1  0
 16 42  1  0
 17 43  1  0
 18 44  1  0
 19 45  1  0
 21 46  1  0
 22 47  1  0
M  END
$$$$
OCNT-2308864
     RDKit          3D

 47 50  0  0  0  0  0  0  0  0999 V2000
   -6.0879   -1.3724    2.0744 C   0  0  0  0  0  0  0  0  0  0  0  0
   -4.7545   -0.9309    1.6353 C   0  0  0  0  0  0  0  0  0  0  0  0
   -3.5665   -1.2666    2.0865 N   0  0  0  0  0  0  0  0  0  0  0  0
   -2.6533   -0.5792    1.3136 N   0  0  0  0  0  0  0  0  0  0  0  0
   -3.3470    0.1305    0.4468 C   0  0  0  0  0  0  0  0  0  0  0  0
   -2.9172    1.0538   -0.5933 C   0  0  0  0  0  0  0  0  0  0  0  0
   -3.7132    2.1669   -0.9193 C   0  0  0  0  0  0  0  0  0  0  0  0
   -3.3163    3.0765   -1.9056 C   0  0  0  0  0  0  0  0  0  0  0  0
   -2.1205    2.8864   -2.5938 C   0  0  0  0  0  0  0  0  0  0  0  0
   -1.3190    1.7878   -2.2950 C   0  0  0  0  0  0  0  0  0  0  0  0
   -1.7104    0.8889   -1.2908 C   0  0  0  0  0  0  0  0  0  0  0  0
   -0.8432   -0.2814   -1.0728 C   0  0  0  0  0  0  0  0  0  0  0  0
   -1.0240   -1.2405   -1.8200 O   0  0  0  0  0  0  0  0  0  0  0  0
    0.1390   -0.2268   -0.0781 N   0  0  0  0  0  0  0  0  0  0  0  0
    0.4369    0.9795    0.6842 C   0  0  0  0  0  0  0  0  0  0  0  0
    0.9836   -1.4333    0.0891 C   0  0  0  0  0  0  0  0  0  0  0  0
    1.5109   -1.7159    1.5018 C   0  0  0  0  0  0  0  0  0  0  0  0
    2.7232   -0.8853    1.9201 C   0  0  0  0  0  0  0  0  0  0  0  0
    3.6970   -0.5757    0.8141 C   0  0  0  0  0  0  0  0  0  0  0  0
    4.9212    0.0286    1.1452 C   0  0  0  0  0  0  0  0  0  0  0  0
    5.8448    0.3614    0.1548 C   0  0  0  0  0  0  0  0  0  0  0  0
    5.5557    0.0968   -1.1793 C   0  0  0  0  0  0  0  0  0  0  0  0
    4.3411   -0.4963   -1.5215 C   0  0  0  0  0  0  0  0  0  0  0  0
    3.3978   -0.8241   -0.5340 C   0  0  0  0  0  0  0  0  0  0  0  0
    2.1191   -1.5078   -0.9486 C   0  0  0  0  0  0  0  0  0  0  0  0
   -4.7018   -0.0338    0.6040 O   0  0  0  0  0  0  0  0  0  0  0  0
   -6.7425   -0.5123    2.2461 H   0  0  0  0  0  0  0  0  0  0  0  0
   -6.0203   -1.9412    3.0065 H   0  0  0  0  0  0  0  0  0  0  0  0
   -6.5483   -2.0110    1.3147 H   0  0  0  0  0  0  0  0  0  0  0  0
   -4.6546    2.3397   -0.3999 H   0  0  0  0  0  0  0  0  0  0  0  0
   -3.9469    3.9313   -2.1399 H   0  0  0  0  0  0  0  0  0  0  0  0
   -1.8184    3.5864   -3.3690 H   0  0  0  0  0  0  0  0  0  0  0  0
   -0.3956    1.6211   -2.8455 H   0  0  0  0  0  0  0  0  0  0  0  0
    1.4584    1.2969    0.4666 H   0  0  0  0  0  0  0  0  0  0  0  0
    0.3157    0.7675    1.7485 H   0  0  0  0  0  0  0  0  0  0  0  0
   -0.2236    1.8120    0.4405 H   0  0  0  0  0  0  0  0  0  0  0  0
    0.3141   -2.2745   -0.1413 H   0  0  0  0  0  0  0  0  0  0  0  0
    1.8135   -2.7722    1.5313 H   0  0  0  0  0  0  0  0  0  0  0  0
    0.7126   -1.6120    2.2459 H   0  0  0  0  0  0  0  0  0  0  0  0
    2.3915    0.0629    2.3571 H   0  0  0  0  0  0  0  0  0  0  0  0
    3.2474   -1.4240    2.7199 H   0  0  0  0  0  0  0  0  0  0  0  0
    5.1604    0.2424    2.1846 H   0  0  0  0  0  0  0  0  0  0  0  0
    6.7884    0.8251    0.4252 H   0  0  0  0  0  0  0  0  0  0  0  0
    6.2755    0.3469   -1.9536 H   0  0  0  0  0  0  0  0  0  0  0  0
    4.1310   -0.7070   -2.5679 H   0  0  0  0  0  0  0  0  0  0  0  0
    1.7790   -1.1013   -1.9095 H   0  0  0  0  0  0  0  0  0  0  0  0
    2.3673   -2.5639   -1.1166 H   0  0  0  0  0  0  0  0  0  0  0  0
  1  2  1  0
  2  3  2  0
  3  4  1  0
  4  5  2  0
  5  6  1  0
  6  7  2  0
  7  8  1  0
  8  9  2  0
  9 10  1  0
 10 11  2  0
 11 12  1  0
 12 13  2  0
 12 14  1  0
 14 15  1  0
 14 16  1  0
 16 17  1  0
 17 18  1  0
 18 19  1  0
 19 20  2  0
 20 21  1  0
 21 22  2  0
 22 23  1  0
 23 24  2  0
 24 25  1  0
  5 26  1  0
 26  2  1  0
 11  6  1  0
 25 16  1  0
 24 19  1  0
  1 27  1  0
  1 28  1  0
  1 29  1  0
  7 30  1  0
  8 31  1  0
  9 32  1  0
 10 33  1  0
 15 34  1  0
 15 35  1  0
 15 36  1  0
 16 37  1  0
 17 38  1  0
 17 39  1  0
 18 40  1  0
 18 41  1  0
 20 42  1  0
 21 43  1  0
 22 44  1  0
 23 45  1  0
 25 46  1  0
 25 47  1  0
M  END
$$$$
OCNT-2308872
     RDKit          3D

  0  0  0  0  0  0  0  0  0  0999 V3000
M  V30 BEGIN CTAB
M  V30 COUNTS 38 40 0 0 0
M  V30 BEGIN ATOM
M  V30 1 C 7.005055 1.186453 -0.183699 0
M  V30 2 S 5.701972 2.356091 0.096841 0
M  V30 3 O 6.005639 3.569283 -0.635927 0
M  V30 4 O 5.359141 2.375905 1.504057 0
M  V30 5 C 4.293855 1.667842 -0.744420 0
M  V30 6 C 3.544073 2.130199 -1.808307 0
M  V30 7 C 2.479262 1.246839 -2.146312 0
M  V30 8 C 2.445838 0.133032 -1.330530 0
M  V30 9 C 1.471875 -0.999124 -1.351740 0
M  V30 10 N 0.393955 -0.680439 -0.449612 0
M  V30 11 C -0.809403 -1.327861 -0.542226 0
M  V30 12 O -1.110080 -2.127245 -1.416919 0
M  V30 13 C -1.761768 -1.021227 0.550892 0 CFG=1
M  V30 14 C -1.993893 0.376349 1.061737 0
M  V30 15 C -3.042119 -0.279735 0.198755 0 CFG=2
M  V30 16 C -4.348438 -0.756175 0.782771 0
M  V30 17 C -4.847325 -2.030580 0.483979 0
M  V30 18 C -6.060980 -2.433297 1.019309 0
M  V30 19 N -6.813974 -1.662045 1.829762 0
M  V30 20 C -6.332231 -0.433247 2.105282 0
M  V30 21 C -5.131413 0.055113 1.611756 0
M  V30 22 S 3.710309 0.167146 -0.172319 0
M  V30 23 H 6.763856 0.241655 0.305718 0
M  V30 24 H 7.920489 1.597078 0.249097 0
M  V30 25 H 7.134793 1.051546 -1.260355 0
M  V30 26 H 3.751787 3.071927 -2.305945 0
M  V30 27 H 1.764119 1.424618 -2.941824 0
M  V30 28 H 1.075070 -1.156834 -2.359805 0
M  V30 29 H 1.925694 -1.940675 -1.023032 0
M  V30 30 H 0.615569 -0.199183 0.411468 0
M  V30 31 H -1.846756 -1.826398 1.274568 0
M  V30 32 H -1.438998 1.199670 0.625880 0
M  V30 33 H -2.180866 0.493648 2.123614 0
M  V30 34 H -3.113417 0.095654 -0.822079 0
M  V30 35 H -4.292921 -2.703167 -0.164001 0
M  V30 36 H -6.469050 -3.416563 0.801816 0
M  V30 37 H -6.957776 0.175492 2.752240 0
M  V30 38 H -4.810945 1.058762 1.869509 0
M  V30 END ATOM
M  V30 BEGIN BOND
M  V30 1 1 1 2
M  V30 2 2 2 3
M  V30 3 2 2 4
M  V30 4 1 2 5
M  V30 5 2 5 6
M  V30 6 1 6 7
M  V30 7 2 7 8
M  V30 8 1 8 9
M  V30 9 1 9 10
M  V30 10 1 10 11
M  V30 11 2 11 12
M  V30 12 1 11 13
M  V30 13 1 13 14
M  V30 14 1 14 15
M  V30 15 1 15 16
M  V30 16 2 16 17
M  V30 17 1 17 18
M  V30 18 2 18 19
M  V30 19 1 19 20
M  V30 20 2 20 21
M  V30 21 1 8 22
M  V30 22 1 22 5
M  V30 23 1 15 13
M  V30 24 1 21 16
M  V30 25 1 1 23
M  V30 26 1 1 24
M  V30 27 1 1 25
M  V30 28 1 6 26
M  V30 29 1 7 27
M  V30 30 1 9 28
M  V30 31 1 9 29
M  V30 32 1 10 30
M  V30 33 1 13 31 CFG=1
M  V30 34 1 14 32
M  V30 35 1 14 33
M  V30 36 1 15 34 CFG=3
M  V30 37 1 17 35
M  V30 38 1 18 36
M  V30 39 1 20 37
M  V30 40 1 21 38
M  V30 END BOND
M  V30 BEGIN COLLECTION
M  V30 MDLV30/STERAC1 ATOMS=(2 13 15)
M  V30 END COLLECTION
M  V30 END CTAB
M  END
>  <_CXSMILES_Data>  (131) 
|&1:12,14|

$$$$
OCNT-2308879
     RDKit          3D

 53 55  0  0  0  0  0  0  0  0999 V2000
    5.4794   -2.6130    3.0860 C   0  0  0  0  0  0  0  0  0  0  0  0
    5.3713   -2.5854    1.6691 O   0  0  0  0  0  0  0  0  0  0  0  0
    4.5891   -1.6035    1.1222 C   0  0  0  0  0  0  0  0  0  0  0  0
    3.8593   -0.6535    1.8359 C   0  0  0  0  0  0  0  0  0  0  0  0
    3.0904    0.3018    1.1563 C   0  0  0  0  0  0  0  0  0  0  0  0
    3.0337    0.3334   -0.2483 C   0  0  0  0  0  0  0  0  0  0  0  0
    2.1495    1.3658   -0.9333 C   0  0  0  0  0  0  0  0  0  0  0  0
    2.7019    1.8671   -2.2701 C   0  0  0  0  0  0  0  0  0  0  0  0
    0.8157    0.8139   -1.1328 N   0  0  0  0  0  0  0  0  0  0  0  0
   -0.1662    0.9861   -0.1899 C   0  0  0  0  0  0  0  0  0  0  0  0
    0.0262    1.6425    0.8315 O   0  0  0  0  0  0  0  0  0  0  0  0
   -1.3741    0.3505   -0.4743 N   0  0  0  0  0  0  0  0  0  0  0  0
   -1.7553   -0.1039   -1.8160 C   0  0  0  0  0  0  0  0  0  0  0  0
   -2.3742   -1.5011   -1.8715 C   0  0  0  0  0  0  0  0  0  0  0  0
   -1.8140   -2.4807   -0.8399 C   0  0  0  0  0  0  0  0  0  0  0  0
   -2.1257   -2.1608    0.6310 C   0  0  0  0  0  0  0  0  0  0  0  0
   -3.0719   -0.9780    0.8541 C   0  0  0  0  0  0  0  0  0  0  0  0
   -2.4135    0.3954    0.5744 C   0  0  0  0  0  0  0  0  0  0  0  0
   -3.3888    1.5480    0.3580 C   0  0  0  0  0  0  0  0  0  0  0  0
   -3.0646    2.8192    0.8464 C   0  0  0  0  0  0  0  0  0  0  0  0
   -3.9380    3.8750    0.6339 C   0  0  0  0  0  0  0  0  0  0  0  0
   -5.1047    3.7600   -0.0289 N   0  0  0  0  0  0  0  0  0  0  0  0
   -5.4010    2.5363   -0.5110 C   0  0  0  0  0  0  0  0  0  0  0  0
   -4.5873    1.4215   -0.3529 C   0  0  0  0  0  0  0  0  0  0  0  0
    3.7561   -0.6355   -0.9564 C   0  0  0  0  0  0  0  0  0  0  0  0
    4.5241   -1.5801   -0.2741 C   0  0  0  0  0  0  0  0  0  0  0  0
    5.2084   -2.4821   -0.9941 F   0  0  0  0  0  0  0  0  0  0  0  0
    6.1520   -3.4334    3.3558 H   0  0  0  0  0  0  0  0  0  0  0  0
    5.9166   -1.6836    3.4659 H   0  0  0  0  0  0  0  0  0  0  0  0
    4.5072   -2.8127    3.5485 H   0  0  0  0  0  0  0  0  0  0  0  0
    3.8551   -0.6272    2.9204 H   0  0  0  0  0  0  0  0  0  0  0  0
    2.5168    1.0252    1.7384 H   0  0  0  0  0  0  0  0  0  0  0  0
    2.0795    2.2453   -0.2799 H   0  0  0  0  0  0  0  0  0  0  0  0
    2.0811    2.6853   -2.6549 H   0  0  0  0  0  0  0  0  0  0  0  0
    3.7252    2.2431   -2.1599 H   0  0  0  0  0  0  0  0  0  0  0  0
    2.7039    1.0842   -3.0369 H   0  0  0  0  0  0  0  0  0  0  0  0
    0.8089   -0.1002   -1.5568 H   0  0  0  0  0  0  0  0  0  0  0  0
   -2.4546    0.6297   -2.2337 H   0  0  0  0  0  0  0  0  0  0  0  0
   -0.8993   -0.0886   -2.4945 H   0  0  0  0  0  0  0  0  0  0  0  0
   -3.4620   -1.4331   -1.7750 H   0  0  0  0  0  0  0  0  0  0  0  0
   -2.2095   -1.9088   -2.8772 H   0  0  0  0  0  0  0  0  0  0  0  0
   -0.7273   -2.5662   -0.9656 H   0  0  0  0  0  0  0  0  0  0  0  0
   -2.2177   -3.4755   -1.0655 H   0  0  0  0  0  0  0  0  0  0  0  0
   -1.1872   -1.9898    1.1739 H   0  0  0  0  0  0  0  0  0  0  0  0
   -2.5701   -3.0538    1.0877 H   0  0  0  0  0  0  0  0  0  0  0  0
   -3.9878   -1.1417    0.2799 H   0  0  0  0  0  0  0  0  0  0  0  0
   -3.4030   -0.9847    1.9017 H   0  0  0  0  0  0  0  0  0  0  0  0
   -1.9024    0.6169    1.5225 H   0  0  0  0  0  0  0  0  0  0  0  0
   -2.1372    2.9922    1.3834 H   0  0  0  0  0  0  0  0  0  0  0  0
   -3.7098    4.8711    1.0064 H   0  0  0  0  0  0  0  0  0  0  0  0
   -6.3413    2.4688   -1.0511 H   0  0  0  0  0  0  0  0  0  0  0  0
   -4.9011    0.4847   -0.7943 H   0  0  0  0  0  0  0  0  0  0  0  0
    3.7381   -0.6857   -2.0407 H   0  0  0  0  0  0  0  0  0  0  0  0
  1  2  1  0
  2  3  1  0
  3  4  1  0
  4  5  2  0
  5  6  1  0
  6  7  1  0
  7  8  1  0
  7  9  1  0
  9 10  1  0
 10 11  2  0
 10 12  1  0
 12 13  1  0
 13 14  1  0
 14 15  1  0
 15 16  1  0
 16 17  1  0
 17 18  1  0
 18 19  1  0
 19 20  2  0
 20 21  1  0
 21 22  2  0
 22 23  1  0
 23 24  2  0
  6 25  2  0
 25 26  1  0
 26 27  1  0
 26  3  2  0
 18 12  1  0
 24 19  1  0
  1 28  1  0
  1 29  1  0
  1 30  1  0
  4 31  1  0
  5 32  1  0
  7 33  1  0
  8 34  1  0
  8 35  1  0
  8 36  1  0
  9 37  1  0
 13 38  1  0
 13 39  1  0
 14 40  1  0
 14 41  1  0
 15 42  1  0
 15 43  1  0
 16 44  1  0
 16 45  1  0
 17 46  1  0
 17 47  1  0
 18 48  1  0
 20 49  1  0
 21 50  1  0
 23 51  1  0
 24 52  1  0
 25 53  1  0
M  END
$$$$
OCNT-2308899
     RDKit          3D

 38 40  0  0  0  0  0  0  0  0999 V2000
   -6.4545    2.2548    1.2445 F   0  0  0  0  0  0  0  0  0  0  0  0
   -6.0122    1.0084    1.5694 C   0  0  0  0  0  0  0  0  0  0  0  0
   -7.0631    0.1699    1.3438 F   0  0  0  0  0  0  0  0  0  0  0  0
   -5.8311    1.0170    2.9201 F   0  0  0  0  0  0  0  0  0  0  0  0
   -4.7716    0.6210    0.8045 C   0  0  0  0  0  0  0  0  0  0  0  0
   -4.8720    0.0042   -0.4517 C   0  0  0  0  0  0  0  0  0  0  0  0
   -3.7240   -0.3359   -1.1713 C   0  0  0  0  0  0  0  0  0  0  0  0
   -2.4548   -0.0558   -0.6521 C   0  0  0  0  0  0  0  0  0  0  0  0
   -1.2073   -0.4343   -1.4135 C   0  0  0  0  0  0  0  0  0  0  0  0
   -0.6208   -1.7632   -0.9247 C   0  0  0  0  0  0  0  0  0  0  0  0
    0.5771   -2.1204   -1.6724 N   0  0  0  0  0  0  0  0  0  0  0  0
    1.7657   -1.5497   -1.3957 C   0  0  0  0  0  0  0  0  0  0  0  0
    2.0212   -0.7421   -0.3706 N   0  0  0  0  0  0  0  0  0  0  0  0
    3.3374   -0.4176   -0.4957 N   0  0  0  0  0  0  0  0  0  0  0  0
    4.0157    0.4512    0.4277 C   0  0  0  0  0  0  0  0  0  0  0  0
    3.3148    0.9699    1.4628 N   0  0  0  0  0  0  0  0  0  0  0  0
    3.9848    1.7770    2.3041 C   0  0  0  0  0  0  0  0  0  0  0  0
    5.3147    2.0892    2.1581 C   0  0  0  0  0  0  0  0  0  0  0  0
    5.9444    1.5188    1.0781 C   0  0  0  0  0  0  0  0  0  0  0  0
    5.3290    0.7030    0.2014 N   0  0  0  0  0  0  0  0  0  0  0  0
    3.8989   -1.0210   -1.6042 C   0  0  0  0  0  0  0  0  0  0  0  0
    2.9036   -1.7555   -2.1999 C   0  0  0  0  0  0  0  0  0  0  0  0
   -2.3508    0.5640    0.5997 C   0  0  0  0  0  0  0  0  0  0  0  0
   -3.4981    0.9036    1.3193 C   0  0  0  0  0  0  0  0  0  0  0  0
   -5.8506   -0.2166   -0.8759 H   0  0  0  0  0  0  0  0  0  0  0  0
   -3.8280   -0.8178   -2.1412 H   0  0  0  0  0  0  0  0  0  0  0  0
   -1.4323   -0.4985   -2.4862 H   0  0  0  0  0  0  0  0  0  0  0  0
   -0.4739    0.3764   -1.3178 H   0  0  0  0  0  0  0  0  0  0  0  0
   -0.4137   -1.7335    0.1527 H   0  0  0  0  0  0  0  0  0  0  0  0
   -1.3591   -2.5624   -1.0655 H   0  0  0  0  0  0  0  0  0  0  0  0
    0.4166   -2.5684   -2.5667 H   0  0  0  0  0  0  0  0  0  0  0  0
    3.3986    2.1776    3.1262 H   0  0  0  0  0  0  0  0  0  0  0  0
    5.8313    2.7410    2.8485 H   0  0  0  0  0  0  0  0  0  0  0  0
    6.9958    1.7062    0.8790 H   0  0  0  0  0  0  0  0  0  0  0  0
    4.9396   -0.8693   -1.8525 H   0  0  0  0  0  0  0  0  0  0  0  0
    2.9911   -2.3606   -3.0899 H   0  0  0  0  0  0  0  0  0  0  0  0
   -1.3699    0.7857    1.0194 H   0  0  0  0  0  0  0  0  0  0  0  0
   -3.3923    1.3892    2.2883 H   0  0  0  0  0  0  0  0  0  0  0  0
  1  2  1  0
  2  3  1  0
  2  4  1  0
  2  5  1  0
  5  6  1  0
  6  7  2  0
  7  8  1  0
  8  9  1  0
  9 10  1  0
 10 11  1  0
 11 12  1  0
 12 13  2  0
 13 14  1  0
 14 15  1  0
 15 16  2  0
 16 17  1  0
 17 18  2  0
 18 19  1  0
 19 20  2  0
 14 21  1  0
 21 22  2  0
  8 23  2  0
 23 24  1  0
 24  5  2  0
 22 12  1  0
 20 15  1  0
  6 25  1  0
  7 26  1  0
  9 27  1  0
  9 28  1  0
 10 29  1  0
 10 30  1  0
 11 31  1  0
 17 32  1  0
 18 33  1  0
 19 34  1  0
 21 35  1  0
 22 36  1  0
 23 37  1  0
 24 38  1  0
M  END
$$$$
OCNT-2308903
     RDKit          3D

 38 40  0  0  0  0  0  0  0  0999 V2000
    4.8855   -0.4814    1.6551 C   0  0  0  0  0  0  0  0  0  0  0  0
    5.1080   -0.0034    0.3158 N   0  0  0  0  0  0  0  0  0  0  0  0
    6.3374    0.1077   -0.2750 C   0  0  0  0  0  0  0  0  0  0  0  0
    6.2474    0.5663   -1.5022 N   0  0  0  0  0  0  0  0  0  0  0  0
    4.9048    0.7587   -1.7113 C   0  0  0  0  0  0  0  0  0  0  0  0
    4.1739    0.4125   -0.5949 C   0  0  0  0  0  0  0  0  0  0  0  0
    2.6375    0.5032   -0.4813 C   0  0  0  0  0  0  0  0  0  0  0  0
    1.8504    0.1799    0.5965 C   0  0  0  0  0  0  0  0  0  0  0  0
    0.5833    0.4336    0.1591 N   0  0  0  0  0  0  0  0  0  0  0  0
   -0.6631    0.2766    0.8832 C   0  0  0  0  0  0  0  0  0  0  0  0
   -1.2888   -1.0973    0.6240 C   0  0  0  0  0  0  0  0  0  0  0  0
   -0.5231   -2.0881    1.3307 O   0  0  0  0  0  0  0  0  0  0  0  0
   -2.7374   -1.1783    1.1332 C   0  0  0  0  0  0  0  0  0  0  0  0
   -3.7145   -0.3186    0.3729 C   0  0  0  0  0  0  0  0  0  0  0  0
   -4.3319    0.7783    0.9940 C   0  0  0  0  0  0  0  0  0  0  0  0
   -5.2359    1.5799    0.2908 C   0  0  0  0  0  0  0  0  0  0  0  0
   -5.5359    1.2901   -1.0384 C   0  0  0  0  0  0  0  0  0  0  0  0
   -4.9316    0.2007   -1.6523 C   0  0  0  0  0  0  0  0  0  0  0  0
   -5.2250   -0.0843   -2.9277 F   0  0  0  0  0  0  0  0  0  0  0  0
   -4.0282   -0.6031   -0.9630 C   0  0  0  0  0  0  0  0  0  0  0  0
    0.5788    0.8941   -1.1025 N   0  0  0  0  0  0  0  0  0  0  0  0
    1.8412    0.9406   -1.5074 N   0  0  0  0  0  0  0  0  0  0  0  0
    4.4056    0.3111    2.2344 H   0  0  0  0  0  0  0  0  0  0  0  0
    4.2558   -1.3731    1.6088 H   0  0  0  0  0  0  0  0  0  0  0  0
    5.8425   -0.7383    2.1175 H   0  0  0  0  0  0  0  0  0  0  0  0
    7.2592   -0.1568    0.2272 H   0  0  0  0  0  0  0  0  0  0  0  0
    4.5306    1.1371   -2.6544 H   0  0  0  0  0  0  0  0  0  0  0  0
    2.0465   -0.2029    1.5846 H   0  0  0  0  0  0  0  0  0  0  0  0
   -1.3135    1.0966    0.5617 H   0  0  0  0  0  0  0  0  0  0  0  0
   -0.4346    0.4135    1.9465 H   0  0  0  0  0  0  0  0  0  0  0  0
   -1.2385   -1.3464   -0.4429 H   0  0  0  0  0  0  0  0  0  0  0  0
   -0.7995   -2.9609    0.9959 H   0  0  0  0  0  0  0  0  0  0  0  0
   -3.0848   -2.2194    1.0833 H   0  0  0  0  0  0  0  0  0  0  0  0
   -2.7614   -0.9327    2.2035 H   0  0  0  0  0  0  0  0  0  0  0  0
   -4.1154    1.0200    2.0330 H   0  0  0  0  0  0  0  0  0  0  0  0
   -5.7067    2.4289    0.7805 H   0  0  0  0  0  0  0  0  0  0  0  0
   -6.2359    1.9025   -1.5976 H   0  0  0  0  0  0  0  0  0  0  0  0
   -3.5829   -1.4466   -1.4826 H   0  0  0  0  0  0  0  0  0  0  0  0
  1  2  1  0
  2  3  1  0
  3  4  2  0
  4  5  1  0
  5  6  2  0
  6  7  1  0
  7  8  2  0
  8  9  1  0
  9 10  1  0
 10 11  1  0
 11 12  1  0
 11 13  1  0
 13 14  1  0
 14 15  2  0
 15 16  1  0
 16 17  2  0
 17 18  1  0
 18 19  1  0
 18 20  2  0
  9 21  1  0
 21 22  2  0
  6  2  1  0
 22  7  1  0
 20 14  1  0
  1 23  1  0
  1 24  1  0
  1 25  1  0
  3 26  1  0
  5 27  1  0
  8 28  1  0
 10 29  1  0
 10 30  1  0
 11 31  1  0
 12 32  1  0
 13 33  1  0
 13 34  1  0
 15 35  1  0
 16 36  1  0
 17 37  1  0
 20 38  1  0
M  END
$$$$
OCNT-2308915
     RDKit          3D

 47 49  0  0  0  0  0  0  0  0999 V2000
    4.7973   -0.5520   -1.7610 C   0  0  0  0  0  0  0  0  0  0  0  0
    4.4075    0.3459   -0.5860 C   0  0  0  0  0  0  0  0  0  0  0  0
    3.0290    0.1403   -0.1844 N   0  0  0  0  0  0  0  0  0  0  0  0
    1.9942    0.6390   -0.9283 C   0  0  0  0  0  0  0  0  0  0  0  0
    2.1779    1.3073   -1.9417 O   0  0  0  0  0  0  0  0  0  0  0  0
    0.7330    0.3316   -0.4455 N   0  0  0  0  0  0  0  0  0  0  0  0
    0.4636   -0.1913    0.8949 C   0  0  0  0  0  0  0  0  0  0  0  0
   -0.8877    0.2746    1.4253 C   0  0  0  0  0  0  0  0  0  0  0  0
   -2.0504   -0.1515    0.5082 C   0  0  0  0  0  0  0  0  0  0  0  0
   -3.2676    0.7621    0.7680 C   0  0  0  0  0  0  0  0  0  0  0  0
   -4.5585    0.2539    0.1697 C   0  0  0  0  0  0  0  0  0  0  0  0
   -5.1746   -0.8985    0.6772 C   0  0  0  0  0  0  0  0  0  0  0  0
   -6.3681   -1.3665    0.1248 C   0  0  0  0  0  0  0  0  0  0  0  0
   -6.9596   -0.6861   -0.9374 C   0  0  0  0  0  0  0  0  0  0  0  0
   -6.3598    0.4640   -1.4462 C   0  0  0  0  0  0  0  0  0  0  0  0
   -5.1665    0.9335   -0.8946 C   0  0  0  0  0  0  0  0  0  0  0  0
   -1.6251   -0.1730   -0.9749 C   0  0  0  0  0  0  0  0  0  0  0  0
   -0.4210    0.7205   -1.2522 C   0  0  0  0  0  0  0  0  0  0  0  0
    5.2545    0.1042    0.6237 C   0  0  0  0  0  0  0  0  0  0  0  0
    5.5775   -1.0853    1.2496 C   0  0  0  0  0  0  0  0  0  0  0  0
    6.3800   -0.7623    2.3047 N   0  0  0  0  0  0  0  0  0  0  0  0
    6.5982    0.5553    2.4237 N   0  0  0  0  0  0  0  0  0  0  0  0
    5.9148    1.0820    1.4054 C   0  0  0  0  0  0  0  0  0  0  0  0
    4.2023   -0.3210   -2.6506 H   0  0  0  0  0  0  0  0  0  0  0  0
    5.8537   -0.4208   -2.0201 H   0  0  0  0  0  0  0  0  0  0  0  0
    4.6366   -1.6115   -1.5301 H   0  0  0  0  0  0  0  0  0  0  0  0
    4.5168    1.3912   -0.9024 H   0  0  0  0  0  0  0  0  0  0  0  0
    2.8366   -0.7079    0.3217 H   0  0  0  0  0  0  0  0  0  0  0  0
    1.2510    0.1272    1.5861 H   0  0  0  0  0  0  0  0  0  0  0  0
    0.4943   -1.2851    0.8299 H   0  0  0  0  0  0  0  0  0  0  0  0
   -1.0507   -0.1251    2.4333 H   0  0  0  0  0  0  0  0  0  0  0  0
   -0.8676    1.3684    1.5221 H   0  0  0  0  0  0  0  0  0  0  0  0
   -2.3237   -1.1806    0.7785 H   0  0  0  0  0  0  0  0  0  0  0  0
   -3.4272    0.8683    1.8496 H   0  0  0  0  0  0  0  0  0  0  0  0
   -3.0557    1.7737    0.3978 H   0  0  0  0  0  0  0  0  0  0  0  0
   -4.7296   -1.4381    1.5099 H   0  0  0  0  0  0  0  0  0  0  0  0
   -6.8374   -2.2613    0.5250 H   0  0  0  0  0  0  0  0  0  0  0  0
   -7.8890   -1.0502   -1.3669 H   0  0  0  0  0  0  0  0  0  0  0  0
   -6.8218    0.9971   -2.2730 H   0  0  0  0  0  0  0  0  0  0  0  0
   -4.7134    1.8333   -1.3046 H   0  0  0  0  0  0  0  0  0  0  0  0
   -2.4492    0.1025   -1.6400 H   0  0  0  0  0  0  0  0  0  0  0  0
   -1.3544   -1.2047   -1.2382 H   0  0  0  0  0  0  0  0  0  0  0  0
   -0.6519    1.7674   -1.0218 H   0  0  0  0  0  0  0  0  0  0  0  0
   -0.1612    0.6690   -2.3156 H   0  0  0  0  0  0  0  0  0  0  0  0
    5.3200   -2.1126    1.0357 H   0  0  0  0  0  0  0  0  0  0  0  0
    6.8119   -1.3836    2.9810 H   0  0  0  0  0  0  0  0  0  0  0  0
    5.9212    2.1567    1.2698 H   0  0  0  0  0  0  0  0  0  0  0  0
  1  2  1  0
  2  3  1  0
  3  4  1  0
  4  5  2  0
  4  6  1  0
  6  7  1  0
  7  8  1  0
  8  9  1  0
  9 10  1  0
 10 11  1  0
 11 12  2  0
 12 13  1  0
 13 14  2  0
 14 15  1  0
 15 16  2  0
  9 17  1  0
 17 18  1  0
  2 19  1  0
 19 20  2  0
 20 21  1  0
 21 22  1  0
 22 23  2  0
 18  6  1  0
 23 19  1  0
 16 11  1  0
  1 24  1  0
  1 25  1  0
  1 26  1  0
  2 27  1  0
  3 28  1  0
  7 29  1  0
  7 30  1  0
  8 31  1  0
  8 32  1  0
  9 33  1  0
 10 34  1  0
 10 35  1  0
 12 36  1  0
 13 37  1  0
 14 38  1  0
 15 39  1  0
 16 40  1  0
 17 41  1  0
 17 42  1  0
 18 43  1  0
 18 44  1  0
 20 45  1  0
 21 46  1  0
 23 47  1  0
M  END
$$$$
OCNT-2308924
     RDKit          3D

 37 39  0  0  0  0  0  0  0  0999 V2000
   -3.3698   -2.1144    0.5928 C   0  0  0  0  0  0  0  0  0  0  0  0
   -3.2833   -0.6119    0.3235 C   0  0  0  0  0  0  0  0  0  0  0  0
   -1.8469   -0.2221    0.3059 N   0  0  0  0  0  0  0  0  0  0  0  0
   -1.3683    1.0563    0.0762 C   0  0  0  0  0  0  0  0  0  0  0  0
   -2.0754    2.0339   -0.1298 O   0  0  0  0  0  0  0  0  0  0  0  0
    0.1087    1.2120    0.1289 C   0  0  0  0  0  0  0  0  0  0  0  0
    0.6343    2.3874    0.6663 C   0  0  0  0  0  0  0  0  0  0  0  0
    2.0138    2.5492    0.7435 C   0  0  0  0  0  0  0  0  0  0  0  0
    2.8669    1.5461    0.2693 C   0  0  0  0  0  0  0  0  0  0  0  0
    2.3659    0.3748   -0.3122 C   0  0  0  0  0  0  0  0  0  0  0  0
    3.1719   -0.6724   -0.7978 N   0  0  0  0  0  0  0  0  0  0  0  0
    4.5174   -0.8189   -0.7408 C   0  0  0  0  0  0  0  0  0  0  0  0
    5.3854   -0.0695   -0.0968 N   0  0  0  0  0  0  0  0  0  0  0  0
    6.6694   -0.5436   -0.2705 C   0  0  0  0  0  0  0  0  0  0  0  0
    6.7841   -1.6703   -1.0503 C   0  0  0  0  0  0  0  0  0  0  0  0
    5.2334   -2.1555   -1.5840 S   0  0  0  0  0  0  0  0  0  0  0  0
    0.9692    0.2197   -0.3664 C   0  0  0  0  0  0  0  0  0  0  0  0
   -4.2013    0.2465    1.2286 C   0  0  0  0  0  0  0  0  0  0  0  0
   -5.2543    0.2268    0.0974 C   0  0  0  0  0  0  0  0  0  0  0  0
   -6.2191   -0.7142    0.2348 F   0  0  0  0  0  0  0  0  0  0  0  0
   -5.8904    1.3947   -0.1399 F   0  0  0  0  0  0  0  0  0  0  0  0
   -4.1239   -0.1423   -0.8899 C   0  0  0  0  0  0  0  0  0  0  0  0
   -2.8448   -2.6815   -0.1841 H   0  0  0  0  0  0  0  0  0  0  0  0
   -4.4065   -2.4672    0.6132 H   0  0  0  0  0  0  0  0  0  0  0  0
   -2.9186   -2.3654    1.5593 H   0  0  0  0  0  0  0  0  0  0  0  0
   -1.1634   -0.8984    0.6292 H   0  0  0  0  0  0  0  0  0  0  0  0
   -0.0267    3.1709    1.0307 H   0  0  0  0  0  0  0  0  0  0  0  0
    2.4335    3.4567    1.1709 H   0  0  0  0  0  0  0  0  0  0  0  0
    3.9371    1.7178    0.3484 H   0  0  0  0  0  0  0  0  0  0  0  0
    2.6791   -1.3587   -1.3540 H   0  0  0  0  0  0  0  0  0  0  0  0
    7.4938   -0.0227    0.2010 H   0  0  0  0  0  0  0  0  0  0  0  0
    7.6770   -2.2144   -1.3213 H   0  0  0  0  0  0  0  0  0  0  0  0
    0.5501   -0.6732   -0.8222 H   0  0  0  0  0  0  0  0  0  0  0  0
   -3.8468    1.2534    1.4697 H   0  0  0  0  0  0  0  0  0  0  0  0
   -4.5238   -0.2273    2.1612 H   0  0  0  0  0  0  0  0  0  0  0  0
   -4.3862   -0.9203   -1.6140 H   0  0  0  0  0  0  0  0  0  0  0  0
   -3.7416    0.7180   -1.4478 H   0  0  0  0  0  0  0  0  0  0  0  0
  1  2  1  0
  2  3  1  0
  3  4  1  0
  4  5  2  0
  4  6  1  0
  6  7  1  0
  7  8  2  0
  8  9  1  0
  9 10  2  0
 10 11  1  0
 11 12  1  0
 12 13  2  0
 13 14  1  0
 14 15  2  0
 15 16  1  0
 10 17  1  0
  2 18  1  0
 18 19  1  0
 19 20  1  0
 19 21  1  0
 19 22  1  0
 22  2  1  0
 17  6  2  0
 16 12  1  0
  1 23  1  0
  1 24  1  0
  1 25  1  0
  3 26  1  0
  7 27  1  0
  8 28  1  0
  9 29  1  0
 11 30  1  0
 14 31  1  0
 15 32  1  0
 17 33  1  0
 18 34  1  0
 18 35  1  0
 22 36  1  0
 22 37  1  0
M  END
$$$$
OCNT-2308941
     RDKit          3D

 40 43  0  0  0  0  0  0  0  0999 V2000
   -2.2295   -1.3349    1.6618 C   0  0  0  0  0  0  0  0  0  0  0  0
   -2.5858   -0.9161    0.2826 C   0  0  0  0  0  0  0  0  0  0  0  0
   -1.9987   -1.3480   -0.8969 C   0  0  0  0  0  0  0  0  0  0  0  0
   -0.8973   -2.2961   -1.2029 C   0  0  0  0  0  0  0  0  0  0  0  0
    0.3326   -1.5418   -1.3074 N   0  0  0  0  0  0  0  0  0  0  0  0
    1.1752   -1.4001   -0.2283 C   0  0  0  0  0  0  0  0  0  0  0  0
    1.0110   -1.9729    0.8434 O   0  0  0  0  0  0  0  0  0  0  0  0
    2.3183   -0.4584   -0.3929 C   0  0  0  0  0  0  0  0  0  0  0  0
    2.8636   -0.1607   -1.6475 C   0  0  0  0  0  0  0  0  0  0  0  0
    3.9367    0.7257   -1.7487 C   0  0  0  0  0  0  0  0  0  0  0  0
    4.4758    1.3109   -0.6012 C   0  0  0  0  0  0  0  0  0  0  0  0
    3.9484    1.0055    0.6627 C   0  0  0  0  0  0  0  0  0  0  0  0
    4.5147    1.5970    1.8175 N   0  0  0  0  0  0  0  0  0  0  0  0
    4.1774    1.4398    3.1384 C   0  0  0  0  0  0  0  0  0  0  0  0
    4.9635    2.1856    3.8806 N   0  0  0  0  0  0  0  0  0  0  0  0
    5.8082    2.8175    3.0077 N   0  0  0  0  0  0  0  0  0  0  0  0
    5.5477    2.4691    1.7558 N   0  0  0  0  0  0  0  0  0  0  0  0
    2.8693    0.1171    0.7638 C   0  0  0  0  0  0  0  0  0  0  0  0
   -2.5690   -0.7292   -1.9709 O   0  0  0  0  0  0  0  0  0  0  0  0
   -3.5320    0.1009   -1.4917 C   0  0  0  0  0  0  0  0  0  0  0  0
   -4.3527    0.9163   -2.2704 C   0  0  0  0  0  0  0  0  0  0  0  0
   -5.2801    1.7037   -1.5818 C   0  0  0  0  0  0  0  0  0  0  0  0
   -5.3574    1.6568   -0.1918 C   0  0  0  0  0  0  0  0  0  0  0  0
   -6.2572    2.4264    0.4358 F   0  0  0  0  0  0  0  0  0  0  0  0
   -4.5247    0.8318    0.5694 C   0  0  0  0  0  0  0  0  0  0  0  0
   -3.5857    0.0289   -0.1039 C   0  0  0  0  0  0  0  0  0  0  0  0
   -1.9122   -2.3820    1.6882 H   0  0  0  0  0  0  0  0  0  0  0  0
   -3.0838   -1.2323    2.3384 H   0  0  0  0  0  0  0  0  0  0  0  0
   -1.4126   -0.7156    2.0454 H   0  0  0  0  0  0  0  0  0  0  0  0
   -1.0664   -2.7823   -2.1689 H   0  0  0  0  0  0  0  0  0  0  0  0
   -0.8129   -3.0726   -0.4369 H   0  0  0  0  0  0  0  0  0  0  0  0
    0.3663   -0.8606   -2.0528 H   0  0  0  0  0  0  0  0  0  0  0  0
    2.4858   -0.6274   -2.5530 H   0  0  0  0  0  0  0  0  0  0  0  0
    4.3628    0.9559   -2.7232 H   0  0  0  0  0  0  0  0  0  0  0  0
    5.3154    1.9966   -0.7134 H   0  0  0  0  0  0  0  0  0  0  0  0
    3.3882    0.7994    3.4983 H   0  0  0  0  0  0  0  0  0  0  0  0
    2.4311   -0.1481    1.7231 H   0  0  0  0  0  0  0  0  0  0  0  0
   -4.2706    0.9335   -3.3502 H   0  0  0  0  0  0  0  0  0  0  0  0
   -5.9503    2.3614   -2.1281 H   0  0  0  0  0  0  0  0  0  0  0  0
   -4.6131    0.8218    1.6500 H   0  0  0  0  0  0  0  0  0  0  0  0
  1  2  1  0
  2  3  2  0
  3  4  1  0
  4  5  1  0
  5  6  1  0
  6  7  2  0
  6  8  1  0
  8  9  1  0
  9 10  2  0
 10 11  1  0
 11 12  2  0
 12 13  1  0
 13 14  1  0
 14 15  2  0
 15 16  1  0
 16 17  2  0
 12 18  1  0
  3 19  1  0
 19 20  1  0
 20 21  2  0
 21 22  1  0
 22 23  2  0
 23 24  1  0
 23 25  1  0
 25 26  2  0
 26  2  1  0
 18  8  2  0
 26 20  1  0
 17 13  1  0
  1 27  1  0
  1 28  1  0
  1 29  1  0
  4 30  1  0
  4 31  1  0
  5 32  1  0
  9 33  1  0
 10 34  1  0
 11 35  1  0
 14 36  1  0
 18 37  1  0
 21 38  1  0
 22 39  1  0
 25 40  1  0
M  END
$$$$
OCNT-2308945
     RDKit          3D

 41 43  0  0  0  0  0  0  0  0999 V2000
    6.2601    1.0303   -1.3866 C   0  0  0  0  0  0  0  0  0  0  0  0
    5.7154   -0.3438   -1.0279 C   0  0  0  0  0  0  0  0  0  0  0  0
    4.2473   -0.2927   -0.6867 C   0  0  0  0  0  0  0  0  0  0  0  0
    3.2792   -0.4796   -1.6918 C   0  0  0  0  0  0  0  0  0  0  0  0
    1.9112   -0.4192   -1.4000 C   0  0  0  0  0  0  0  0  0  0  0  0
    1.5180   -0.1648   -0.0973 C   0  0  0  0  0  0  0  0  0  0  0  0
    2.4736    0.0270    0.9009 C   0  0  0  0  0  0  0  0  0  0  0  0
    3.8337   -0.0313    0.6260 C   0  0  0  0  0  0  0  0  0  0  0  0
    1.8388    0.2878    2.2257 C   0  0  0  0  0  0  0  0  0  0  0  0
    0.3470    0.2376    1.8810 C   0  0  0  0  0  0  0  0  0  0  0  0
    0.2173   -0.0529    0.4406 N   0  0  0  0  0  0  0  0  0  0  0  0
   -0.9666   -0.1899   -0.2827 C   0  0  0  0  0  0  0  0  0  0  0  0
   -1.0014   -0.4346   -1.4868 O   0  0  0  0  0  0  0  0  0  0  0  0
   -2.1094   -0.0236    0.4865 N   0  0  0  0  0  0  0  0  0  0  0  0
   -3.4188   -0.1041    0.0318 C   0  0  0  0  0  0  0  0  0  0  0  0
   -3.8616   -0.3627   -1.2427 C   0  0  0  0  0  0  0  0  0  0  0  0
   -5.2208   -0.3393   -1.1954 N   0  0  0  0  0  0  0  0  0  0  0  0
   -6.1294   -0.5580   -2.2951 C   0  0  0  0  0  0  0  0  0  0  0  0
   -5.7118   -0.0814    0.0293 N   0  0  0  0  0  0  0  0  0  0  0  0
   -4.6128    0.0657    0.7997 C   0  0  0  0  0  0  0  0  0  0  0  0
   -4.7026    0.3655    2.2669 C   0  0  0  0  0  0  0  0  0  0  0  0
   -3.4602    0.4843    2.8298 F   0  0  0  0  0  0  0  0  0  0  0  0
   -5.3380   -0.6103    2.9687 F   0  0  0  0  0  0  0  0  0  0  0  0
   -5.3459    1.5335    2.5318 F   0  0  0  0  0  0  0  0  0  0  0  0
    6.1495    1.7315   -0.5523 H   0  0  0  0  0  0  0  0  0  0  0  0
    7.3244    0.9631   -1.6338 H   0  0  0  0  0  0  0  0  0  0  0  0
    5.7365    1.4527   -2.2512 H   0  0  0  0  0  0  0  0  0  0  0  0
    5.8773   -1.0362   -1.8629 H   0  0  0  0  0  0  0  0  0  0  0  0
    6.2758   -0.7550   -0.1795 H   0  0  0  0  0  0  0  0  0  0  0  0
    3.5877   -0.6741   -2.7172 H   0  0  0  0  0  0  0  0  0  0  0  0
    1.1939   -0.5701   -2.1988 H   0  0  0  0  0  0  0  0  0  0  0  0
    4.5618    0.1250    1.4168 H   0  0  0  0  0  0  0  0  0  0  0  0
    2.1020   -0.4878    2.9518 H   0  0  0  0  0  0  0  0  0  0  0  0
    2.1207    1.2699    2.6177 H   0  0  0  0  0  0  0  0  0  0  0  0
   -0.1413    1.1955    2.0954 H   0  0  0  0  0  0  0  0  0  0  0  0
   -0.1664   -0.5447    2.4521 H   0  0  0  0  0  0  0  0  0  0  0  0
   -1.9958    0.1796    1.4677 H   0  0  0  0  0  0  0  0  0  0  0  0
   -3.3328   -0.5598   -2.1656 H   0  0  0  0  0  0  0  0  0  0  0  0
   -5.5585   -0.7395   -3.2090 H   0  0  0  0  0  0  0  0  0  0  0  0
   -6.7482   -1.4281   -2.0621 H   0  0  0  0  0  0  0  0  0  0  0  0
   -6.7486    0.3348   -2.4129 H   0  0  0  0  0  0  0  0  0  0  0  0
  1  2  1  0
  2  3  1  0
  3  4  1  0
  4  5  2  0
  5  6  1  0
  6  7  2  0
  7  8  1  0
  7  9  1  0
  9 10  1  0
 10 11  1  0
 11 12  1  0
 12 13  2  0
 12 14  1  0
 14 15  1  0
 15 16  2  0
 16 17  1  0
 17 18  1  0
 17 19  1  0
 19 20  2  0
 20 21  1  0
 21 22  1  0
 21 23  1  0
 21 24  1  0
  8  3  2  0
 20 15  1  0
 11  6  1  0
  1 25  1  0
  1 26  1  0
  1 27  1  0
  2 28  1  0
  2 29  1  0
  4 30  1  0
  5 31  1  0
  8 32  1  0
  9 33  1  0
  9 34  1  0
 10 35  1  0
 10 36  1  0
 14 37  1  0
 16 38  1  0
 18 39  1  0
 18 40  1  0
 18 41  1  0
M  END
$$$$
OCNT-2308952
     RDKit          3D

 38 41  0  0  0  0  0  0  0  0999 V2000
   -6.2695    0.3234   -0.1986 Br  0  0  0  0  0  0  0  0  0  0  0  0
   -4.4341    0.3587   -0.6439 C   0  0  0  0  0  0  0  0  0  0  0  0
   -4.0563    0.5022   -1.9811 C   0  0  0  0  0  0  0  0  0  0  0  0
   -2.6998    0.5283   -2.3382 C   0  0  0  0  0  0  0  0  0  0  0  0
   -1.7069    0.3996   -1.3649 C   0  0  0  0  0  0  0  0  0  0  0  0
   -2.0882    0.2467   -0.0388 C   0  0  0  0  0  0  0  0  0  0  0  0
   -3.4468    0.2489    0.3225 C   0  0  0  0  0  0  0  0  0  0  0  0
   -3.5878    0.0911    1.8063 C   0  0  0  0  0  0  0  0  0  0  0  0
   -2.1882    0.5137    2.2731 C   0  0  0  0  0  0  0  0  0  0  0  0
   -1.2020    0.0656    1.1695 C   0  0  0  0  0  0  0  0  0  0  0  0
   -0.8249   -1.3310    1.3981 N   0  0  0  0  0  0  0  0  0  0  0  0
    0.2659   -1.8103    0.5416 C   0  0  0  0  0  0  0  0  0  0  0  0
    1.5754   -1.1869    0.9126 C   0  0  0  0  0  0  0  0  0  0  0  0
    1.9956   -1.1857    2.1942 N   0  0  0  0  0  0  0  0  0  0  0  0
    3.2295   -0.5396    2.1946 O   0  0  0  0  0  0  0  0  0  0  0  0
    3.5103   -0.1714    0.9314 C   0  0  0  0  0  0  0  0  0  0  0  0
    2.5137   -0.5486    0.0759 C   0  0  0  0  0  0  0  0  0  0  0  0
    2.5951   -0.2409   -1.3658 C   0  0  0  0  0  0  0  0  0  0  0  0
    3.9374    0.1515   -1.7504 O   0  0  0  0  0  0  0  0  0  0  0  0
    4.5269    1.1151   -0.8464 C   0  0  0  0  0  0  0  0  0  0  0  0
    4.7540    0.5235    0.5634 C   0  0  0  0  0  0  0  0  0  0  0  0
   -4.8107    0.5953   -2.7586 H   0  0  0  0  0  0  0  0  0  0  0  0
   -2.4225    0.6445   -3.3833 H   0  0  0  0  0  0  0  0  0  0  0  0
   -0.6608    0.4186   -1.6485 H   0  0  0  0  0  0  0  0  0  0  0  0
   -4.3506    0.7465    2.2351 H   0  0  0  0  0  0  0  0  0  0  0  0
   -3.7993   -0.9525    2.0609 H   0  0  0  0  0  0  0  0  0  0  0  0
   -1.9465    0.1207    3.2670 H   0  0  0  0  0  0  0  0  0  0  0  0
   -2.1542    1.6103    2.3553 H   0  0  0  0  0  0  0  0  0  0  0  0
   -0.3439    0.7463    1.1578 H   0  0  0  0  0  0  0  0  0  0  0  0
   -0.4937   -1.4244    2.3616 H   0  0  0  0  0  0  0  0  0  0  0  0
    0.0403   -1.6631   -0.5186 H   0  0  0  0  0  0  0  0  0  0  0  0
    0.3533   -2.8946    0.6822 H   0  0  0  0  0  0  0  0  0  0  0  0
    2.3258   -1.1132   -1.9688 H   0  0  0  0  0  0  0  0  0  0  0  0
    1.9155    0.5781   -1.6247 H   0  0  0  0  0  0  0  0  0  0  0  0
    3.8770    1.9984   -0.8061 H   0  0  0  0  0  0  0  0  0  0  0  0
    5.4851    1.4288   -1.2729 H   0  0  0  0  0  0  0  0  0  0  0  0
    5.5712   -0.2053    0.5296 H   0  0  0  0  0  0  0  0  0  0  0  0
    5.0146    1.3116    1.2754 H   0  0  0  0  0  0  0  0  0  0  0  0
  1  2  1  0
  2  3  1  0
  3  4  2  0
  4  5  1  0
  5  6  2  0
  6  7  1  0
  7  8  1  0
  8  9  1  0
  9 10  1  0
 10 11  1  0
 11 12  1  0
 12 13  1  0
 13 14  2  0
 14 15  1  0
 15 16  1  0
 16 17  2  0
 17 18  1  0
 18 19  1  0
 19 20  1  0
 20 21  1  0
  7  2  2  0
 17 13  1  0
 10  6  1  0
 21 16  1  0
  3 22  1  0
  4 23  1  0
  5 24  1  0
  8 25  1  0
  8 26  1  0
  9 27  1  0
  9 28  1  0
 10 29  1  0
 11 30  1  0
 12 31  1  0
 12 32  1  0
 18 33  1  0
 18 34  1  0
 20 35  1  0
 20 36  1  0
 21 37  1  0
 21 38  1  0
M  END
$$$$
OCNT-2308954
     RDKit          3D

 41 44  0  0  0  0  0  0  0  0999 V2000
    2.8146   -1.6814    1.1923 C   0  0  0  0  0  0  0  0  0  0  0  0
    2.3098   -0.3627    0.6600 C   0  0  0  0  0  0  0  0  0  0  0  0
    0.9451   -0.0174    0.7677 C   0  0  0  0  0  0  0  0  0  0  0  0
   -0.0062   -0.8948    1.3668 N   0  0  0  0  0  0  0  0  0  0  0  0
   -0.8213   -1.9932    0.3718 S   0  0  0  0  0  0  0  0  0  0  0  0
   -1.4285   -2.9611    1.2615 O   0  0  0  0  0  0  0  0  0  0  0  0
    0.0469   -2.4128   -0.7062 O   0  0  0  0  0  0  0  0  0  0  0  0
   -2.1382   -1.0079   -0.3041 C   0  0  0  0  0  0  0  0  0  0  0  0
   -2.0643   -0.5773   -1.6465 C   0  0  0  0  0  0  0  0  0  0  0  0
   -3.0955    0.1877   -2.1982 C   0  0  0  0  0  0  0  0  0  0  0  0
   -4.1680    0.4842   -1.3833 C   0  0  0  0  0  0  0  0  0  0  0  0
   -5.2965    1.2187   -1.7063 N   0  0  0  0  0  0  0  0  0  0  0  0
   -6.1705    1.3037   -0.6288 C   0  0  0  0  0  0  0  0  0  0  0  0
   -7.2403    1.8890   -0.6236 O   0  0  0  0  0  0  0  0  0  0  0  0
   -5.5416    0.5338    0.5389 C   0  0  0  0  0  0  0  0  0  0  0  0
   -4.2531    0.0517   -0.0597 C   0  0  0  0  0  0  0  0  0  0  0  0
   -3.2435   -0.7057    0.5039 C   0  0  0  0  0  0  0  0  0  0  0  0
    0.4613    1.1877    0.2500 C   0  0  0  0  0  0  0  0  0  0  0  0
    1.3226    2.0754   -0.3799 C   0  0  0  0  0  0  0  0  0  0  0  0
    2.6751    1.7624   -0.4793 C   0  0  0  0  0  0  0  0  0  0  0  0
    3.1948    0.5627    0.0484 C   0  0  0  0  0  0  0  0  0  0  0  0
    4.6407    0.3599   -0.0900 C   0  0  0  0  0  0  0  0  0  0  0  0
    5.4604    0.8543   -1.0014 N   0  0  0  0  0  0  0  0  0  0  0  0
    6.6962    0.3950   -0.6244 C   0  0  0  0  0  0  0  0  0  0  0  0
    6.5863   -0.3458    0.5233 C   0  0  0  0  0  0  0  0  0  0  0  0
    5.2745   -0.3663    0.8856 O   0  0  0  0  0  0  0  0  0  0  0  0
    2.0144   -2.4035    1.3737 H   0  0  0  0  0  0  0  0  0  0  0  0
    3.4840   -2.1604    0.4702 H   0  0  0  0  0  0  0  0  0  0  0  0
    3.3377   -1.5275    2.1412 H   0  0  0  0  0  0  0  0  0  0  0  0
    0.2372   -1.3187    2.2612 H   0  0  0  0  0  0  0  0  0  0  0  0
   -1.2023   -0.8353   -2.2600 H   0  0  0  0  0  0  0  0  0  0  0  0
   -3.0479    0.5262   -3.2271 H   0  0  0  0  0  0  0  0  0  0  0  0
   -5.4913    1.6444   -2.6002 H   0  0  0  0  0  0  0  0  0  0  0  0
   -5.3619    1.2148    1.3743 H   0  0  0  0  0  0  0  0  0  0  0  0
   -6.1877   -0.3017    0.8190 H   0  0  0  0  0  0  0  0  0  0  0  0
   -3.3056   -1.0546    1.5305 H   0  0  0  0  0  0  0  0  0  0  0  0
   -0.5894    1.4485    0.3447 H   0  0  0  0  0  0  0  0  0  0  0  0
    0.9475    3.0112   -0.7855 H   0  0  0  0  0  0  0  0  0  0  0  0
    3.3432    2.4713   -0.9696 H   0  0  0  0  0  0  0  0  0  0  0  0
    7.5874    0.6250   -1.1912 H   0  0  0  0  0  0  0  0  0  0  0  0
    7.2741   -0.8793    1.1619 H   0  0  0  0  0  0  0  0  0  0  0  0
  1  2  1  0
  2  3  1  0
  3  4  1  0
  4  5  1  0
  5  6  2  0
  5  7  2  0
  5  8  1  0
  8  9  1  0
  9 10  2  0
 10 11  1  0
 11 12  1  0
 12 13  1  0
 13 14  2  0
 13 15  1  0
 15 16  1  0
 16 17  1  0
  3 18  2  0
 18 19  1  0
 19 20  2  0
 20 21  1  0
 21 22  1  0
 22 23  2  0
 23 24  1  0
 24 25  2  0
 25 26  1  0
 21  2  2  0
 26 22  1  0
 17  8  2  0
 16 11  2  0
  1 27  1  0
  1 28  1  0
  1 29  1  0
  4 30  1  0
  9 31  1  0
 10 32  1  0
 12 33  1  0
 15 34  1  0
 15 35  1  0
 17 36  1  0
 18 37  1  0
 19 38  1  0
 20 39  1  0
 24 40  1  0
 25 41  1  0
M  END
$$$$
OCNT-2308968
     RDKit          3D

 59 62  0  0  0  0  0  0  0  0999 V2000
   -6.2698    2.8285   -2.2913 C   0  0  0  0  0  0  0  0  0  0  0  0
   -5.6014    1.6721   -1.6094 C   0  0  0  0  0  0  0  0  0  0  0  0
   -6.3513    0.6794   -0.9718 C   0  0  0  0  0  0  0  0  0  0  0  0
   -5.7193   -0.4007   -0.3469 C   0  0  0  0  0  0  0  0  0  0  0  0
   -4.3219   -0.5142   -0.3487 C   0  0  0  0  0  0  0  0  0  0  0  0
   -3.5722   -1.6582    0.3266 C   0  0  0  0  0  0  0  0  0  0  0  0
   -4.4050   -2.9143    0.6202 C   0  0  0  0  0  0  0  0  0  0  0  0
   -2.8651   -1.2108    1.5438 N   0  0  0  0  0  0  0  0  0  0  0  0
   -3.6107   -0.4140    2.5154 C   0  0  0  0  0  0  0  0  0  0  0  0
   -1.5869   -1.7025    1.7624 C   0  0  0  0  0  0  0  0  0  0  0  0
   -1.0778   -2.5778    1.0669 O   0  0  0  0  0  0  0  0  0  0  0  0
   -0.9238   -1.1258    2.8143 N   0  0  0  0  0  0  0  0  0  0  0  0
    0.4428   -1.4888    3.1226 C   0  0  0  0  0  0  0  0  0  0  0  0
    1.4194   -0.5568    2.4482 C   0  0  0  0  0  0  0  0  0  0  0  0
    1.9444    0.5462    3.1328 C   0  0  0  0  0  0  0  0  0  0  0  0
    2.8257    1.4178    2.4946 C   0  0  0  0  0  0  0  0  0  0  0  0
    3.1855    1.2015    1.1645 C   0  0  0  0  0  0  0  0  0  0  0  0
    2.6706    0.1072    0.4558 C   0  0  0  0  0  0  0  0  0  0  0  0
    3.0407   -0.1294   -0.9873 C   0  0  0  0  0  0  0  0  0  0  0  0
    4.4531   -0.4276   -1.1448 N   0  0  0  0  0  0  0  0  0  0  0  0
    5.0340   -1.6332   -0.8575 C   0  0  0  0  0  0  0  0  0  0  0  0
    6.3166   -1.6348   -1.1385 N   0  0  0  0  0  0  0  0  0  0  0  0
    6.5788   -0.3778   -1.6258 C   0  0  0  0  0  0  0  0  0  0  0  0
    7.7905    0.1670   -2.0761 C   0  0  0  0  0  0  0  0  0  0  0  0
    7.8077    1.4892   -2.5360 C   0  0  0  0  0  0  0  0  0  0  0  0
    6.6410    2.2550   -2.5482 C   0  0  0  0  0  0  0  0  0  0  0  0
    5.4220    1.7297   -2.1040 C   0  0  0  0  0  0  0  0  0  0  0  0
    5.4258    0.4053   -1.6468 C   0  0  0  0  0  0  0  0  0  0  0  0
    1.7847   -0.7632    1.1086 C   0  0  0  0  0  0  0  0  0  0  0  0
   -3.5766    0.4915   -0.9874 C   0  0  0  0  0  0  0  0  0  0  0  0
   -4.2073    1.5694   -1.6128 C   0  0  0  0  0  0  0  0  0  0  0  0
   -6.0593    2.8041   -3.3652 H   0  0  0  0  0  0  0  0  0  0  0  0
   -5.9085    3.7740   -1.8741 H   0  0  0  0  0  0  0  0  0  0  0  0
   -7.3561    2.7990   -2.1597 H   0  0  0  0  0  0  0  0  0  0  0  0
   -7.4376    0.7372   -0.9564 H   0  0  0  0  0  0  0  0  0  0  0  0
   -6.3428   -1.1443    0.1426 H   0  0  0  0  0  0  0  0  0  0  0  0
   -2.8196   -1.9812   -0.4071 H   0  0  0  0  0  0  0  0  0  0  0  0
   -4.9025   -3.2784   -0.2856 H   0  0  0  0  0  0  0  0  0  0  0  0
   -5.1730   -2.7313    1.3791 H   0  0  0  0  0  0  0  0  0  0  0  0
   -3.7671   -3.7207    0.9984 H   0  0  0  0  0  0  0  0  0  0  0  0
   -4.6447   -0.7658    2.5737 H   0  0  0  0  0  0  0  0  0  0  0  0
   -3.5942    0.6327    2.1993 H   0  0  0  0  0  0  0  0  0  0  0  0
   -3.1816   -0.4904    3.5179 H   0  0  0  0  0  0  0  0  0  0  0  0
   -1.1532   -0.1581    2.9715 H   0  0  0  0  0  0  0  0  0  0  0  0
    0.6447   -2.5282    2.8393 H   0  0  0  0  0  0  0  0  0  0  0  0
    0.5518   -1.4247    4.2112 H   0  0  0  0  0  0  0  0  0  0  0  0
    1.6739    0.7314    4.1698 H   0  0  0  0  0  0  0  0  0  0  0  0
    3.2367    2.2667    3.0350 H   0  0  0  0  0  0  0  0  0  0  0  0
    3.8780    1.8926    0.6889 H   0  0  0  0  0  0  0  0  0  0  0  0
    2.4878   -0.9767   -1.4092 H   0  0  0  0  0  0  0  0  0  0  0  0
    2.7887    0.7488   -1.5902 H   0  0  0  0  0  0  0  0  0  0  0  0
    4.4791   -2.4676   -0.4474 H   0  0  0  0  0  0  0  0  0  0  0  0
    8.6914   -0.4357   -2.0641 H   0  0  0  0  0  0  0  0  0  0  0  0
    8.7416    1.9208   -2.8873 H   0  0  0  0  0  0  0  0  0  0  0  0
    6.6796    3.2801   -2.9110 H   0  0  0  0  0  0  0  0  0  0  0  0
    4.5215    2.3333   -2.1165 H   0  0  0  0  0  0  0  0  0  0  0  0
    1.3630   -1.6150    0.5738 H   0  0  0  0  0  0  0  0  0  0  0  0
   -2.4895    0.4373   -0.9963 H   0  0  0  0  0  0  0  0  0  0  0  0
   -3.6025    2.3303   -2.1003 H   0  0  0  0  0  0  0  0  0  0  0  0
  1  2  1  0
  2  3  1  0
  3  4  2  0
  4  5  1  0
  5  6  1  0
  6  7  1  0
  6  8  1  0
  8  9  1  0
  8 10  1  0
 10 11  2  0
 10 12  1  0
 12 13  1  0
 13 14  1  0
 14 15  1  0
 15 16  2  0
 16 17  1  0
 17 18  2  0
 18 19  1  0
 19 20  1  0
 20 21  1  0
 21 22  2  0
 22 23  1  0
 23 24  2  0
 24 25  1  0
 25 26  2  0
 26 27  1  0
 27 28  2  0
 18 29  1  0
  5 30  2  0
 30 31  1  0
 31  2  2  0
 29 14  2  0
 28 20  1  0
 28 23  1  0
  1 32  1  0
  1 33  1  0
  1 34  1  0
  3 35  1  0
  4 36  1  0
  6 37  1  0
  7 38  1  0
  7 39  1  0
  7 40  1  0
  9 41  1  0
  9 42  1  0
  9 43  1  0
 12 44  1  0
 13 45  1  0
 13 46  1  0
 15 47  1  0
 16 48  1  0
 17 49  1  0
 19 50  1  0
 19 51  1  0
 21 52  1  0
 24 53  1  0
 25 54  1  0
 26 55  1  0
 27 56  1  0
 29 57  1  0
 30 58  1  0
 31 59  1  0
M  END
$$$$
OCNT-2308971
     RDKit          3D

 50 52  0  0  0  0  0  0  0  0999 V2000
    6.3311   -2.7662    0.0538 C   0  0  0  0  0  0  0  0  0  0  0  0
    5.6430   -1.4450    0.2070 C   0  0  0  0  0  0  0  0  0  0  0  0
    6.0434   -0.5013    1.0719 C   0  0  0  0  0  0  0  0  0  0  0  0
    5.3669    0.6866    1.1679 N   0  0  0  0  0  0  0  0  0  0  0  0
    4.2547    1.0036    0.4257 C   0  0  0  0  0  0  0  0  0  0  0  0
    3.6549    2.0638    0.5759 O   0  0  0  0  0  0  0  0  0  0  0  0
    3.8044   -0.0261   -0.5587 C   0  0  0  0  0  0  0  0  0  0  0  0
    2.6374    0.3153   -1.4282 C   0  0  0  0  0  0  0  0  0  0  0  0
    1.4521    0.4727   -0.6149 N   0  0  0  0  0  0  0  0  0  0  0  0
    0.2196    0.4492   -1.2155 C   0  0  0  0  0  0  0  0  0  0  0  0
    0.0350    0.1808   -2.3942 O   0  0  0  0  0  0  0  0  0  0  0  0
   -0.7697    0.7471   -0.3203 N   0  0  0  0  0  0  0  0  0  0  0  0
   -2.1799    0.7352   -0.6756 C   0  0  0  0  0  0  0  0  0  0  0  0
   -2.9119    1.8896   -0.0004 C   0  0  0  0  0  0  0  0  0  0  0  0
   -3.7389    2.7248   -0.7708 C   0  0  0  0  0  0  0  0  0  0  0  0
   -4.4337    3.7846   -0.1843 C   0  0  0  0  0  0  0  0  0  0  0  0
   -4.3148    4.0254    1.1818 C   0  0  0  0  0  0  0  0  0  0  0  0
   -3.5016    3.2073    1.9617 C   0  0  0  0  0  0  0  0  0  0  0  0
   -2.8054    2.1470    1.3762 C   0  0  0  0  0  0  0  0  0  0  0  0
   -2.8855   -0.6168   -0.4146 C   0  0  0  0  0  0  0  0  0  0  0  0
   -2.3750   -1.7768   -1.2727 C   0  0  0  0  0  0  0  0  0  0  0  0
   -3.0406   -2.9906   -0.6405 C   0  0  0  0  0  0  0  0  0  0  0  0
   -3.0884   -2.6848    0.8545 C   0  0  0  0  0  0  0  0  0  0  0  0
   -2.7739   -1.1940    1.0011 C   0  0  0  0  0  0  0  0  0  0  0  0
    4.4895   -1.1825   -0.6346 C   0  0  0  0  0  0  0  0  0  0  0  0
    5.6412   -3.5874    0.2759 H   0  0  0  0  0  0  0  0  0  0  0  0
    6.7020   -2.8911   -0.9691 H   0  0  0  0  0  0  0  0  0  0  0  0
    7.1870   -2.8596    0.7309 H   0  0  0  0  0  0  0  0  0  0  0  0
    6.8986   -0.6247    1.7288 H   0  0  0  0  0  0  0  0  0  0  0  0
    5.6669    1.3897    1.8320 H   0  0  0  0  0  0  0  0  0  0  0  0
    2.8105    1.2535   -1.9678 H   0  0  0  0  0  0  0  0  0  0  0  0
    2.4587   -0.4639   -2.1785 H   0  0  0  0  0  0  0  0  0  0  0  0
    1.5390    1.1834    0.1020 H   0  0  0  0  0  0  0  0  0  0  0  0
   -0.5206    0.7020    0.6540 H   0  0  0  0  0  0  0  0  0  0  0  0
   -2.2281    0.9115   -1.7588 H   0  0  0  0  0  0  0  0  0  0  0  0
   -3.8449    2.5565   -1.8409 H   0  0  0  0  0  0  0  0  0  0  0  0
   -5.0661    4.4227   -0.7960 H   0  0  0  0  0  0  0  0  0  0  0  0
   -4.8545    4.8510    1.6378 H   0  0  0  0  0  0  0  0  0  0  0  0
   -3.4081    3.3946    3.0283 H   0  0  0  0  0  0  0  0  0  0  0  0
   -2.1819    1.5242    2.0115 H   0  0  0  0  0  0  0  0  0  0  0  0
   -3.9554   -0.4881   -0.6398 H   0  0  0  0  0  0  0  0  0  0  0  0
   -1.2878   -1.8858   -1.2019 H   0  0  0  0  0  0  0  0  0  0  0  0
   -2.6432   -1.6655   -2.3275 H   0  0  0  0  0  0  0  0  0  0  0  0
   -4.0605   -3.1024   -1.0275 H   0  0  0  0  0  0  0  0  0  0  0  0
   -2.5003   -3.9171   -0.8564 H   0  0  0  0  0  0  0  0  0  0  0  0
   -4.0765   -2.9237    1.2625 H   0  0  0  0  0  0  0  0  0  0  0  0
   -2.3543   -3.2840    1.4039 H   0  0  0  0  0  0  0  0  0  0  0  0
   -1.7616   -1.0799    1.4043 H   0  0  0  0  0  0  0  0  0  0  0  0
   -3.4667   -0.7141    1.6992 H   0  0  0  0  0  0  0  0  0  0  0  0
    4.1937   -1.9507   -1.3443 H   0  0  0  0  0  0  0  0  0  0  0  0
  1  2  1  0
  2  3  2  0
  3  4  1  0
  4  5  1  0
  5  6  2  0
  5  7  1  0
  7  8  1  0
  8  9  1  0
  9 10  1  0
 10 11  2  0
 10 12  1  0
 12 13  1  0
 13 14  1  0
 14 15  2  0
 15 16  1  0
 16 17  2  0
 17 18  1  0
 18 19  2  0
 13 20  1  0
 20 21  1  0
 21 22  1  0
 22 23  1  0
 23 24  1  0
  7 25  2  0
 25  2  1  0
 19 14  1  0
 24 20  1  0
  1 26  1  0
  1 27  1  0
  1 28  1  0
  3 29  1  0
  4 30  1  0
  8 31  1  0
  8 32  1  0
  9 33  1  0
 12 34  1  0
 13 35  1  0
 15 36  1  0
 16 37  1  0
 17 38  1  0
 18 39  1  0
 19 40  1  0
 20 41  1  0
 21 42  1  0
 21 43  1  0
 22 44  1  0
 22 45  1  0
 23 46  1  0
 23 47  1  0
 24 48  1  0
 24 49  1  0
 25 50  1  0
M  END
$$$$
OCNT-2308982
     RDKit          3D

  0  0  0  0  0  0  0  0  0  0999 V3000
M  V30 BEGIN CTAB
M  V30 COUNTS 41 43 0 0 0
M  V30 BEGIN ATOM
M  V30 1 C 5.990927 1.951612 0.154814 0
M  V30 2 C 4.808433 1.018153 0.359195 0
M  V30 3 C 4.509391 0.207541 -0.902495 0
M  V30 4 C 3.346972 -0.710172 -0.718653 0
M  V30 5 N 3.529516 -1.956290 -0.269479 0
M  V30 6 N 2.289991 -2.471821 -0.233486 0
M  V30 7 C 1.309749 -1.604892 -0.636851 0
M  V30 8 C -0.074866 -1.994272 -0.650225 0
M  V30 9 O -0.440899 -3.109243 -0.292518 0
M  V30 10 N -0.949745 -1.024029 -1.076901 0
M  V30 11 C -2.379005 -1.210251 -1.053143 0
M  V30 12 C -3.030159 -0.622042 0.179153 0 CFG=2
M  V30 13 C -4.410358 -1.162199 0.461685 0
M  V30 14 N -5.096936 -0.104626 1.225714 0
M  V30 15 C -4.497603 1.185249 0.836181 0
M  V30 16 C -3.094336 0.862586 0.423188 0 CFG=2
M  V30 17 C -2.483137 1.876155 -0.484364 0
M  V30 18 F -3.138205 1.920164 -1.666782 0
M  V30 19 F -2.535276 3.108760 0.068270 0
M  V30 20 F -1.181470 1.606274 -0.755577 0
M  V30 21 C -2.217498 -0.003757 1.315473 0
M  V30 22 C 1.978860 -0.441447 -0.963852 0
M  V30 23 H 6.896000 1.389104 -0.095655 0
M  V30 24 H 6.186880 2.520807 1.068889 0
M  V30 25 H 5.793581 2.663583 -0.652938 0
M  V30 26 H 5.022437 0.343959 1.197537 0
M  V30 27 H 3.928919 1.608330 0.644433 0
M  V30 28 H 5.394780 -0.374173 -1.188924 0
M  V30 29 H 4.300802 0.887976 -1.737674 0
M  V30 30 H 2.162867 -3.429684 0.079247 0
M  V30 31 H -0.595817 -0.097329 -1.275390 0
M  V30 32 H -2.603316 -2.280981 -1.114522 0
M  V30 33 H -2.784986 -0.735656 -1.952893 0
M  V30 34 H -4.959805 -1.343699 -0.468736 0
M  V30 35 H -4.371167 -2.094928 1.033024 0
M  V30 36 H -4.895714 -0.259083 2.214115 0
M  V30 37 H -5.072235 1.605891 0.003578 0
M  V30 38 H -4.525836 1.893259 1.670528 0
M  V30 39 H -2.527937 -0.193113 2.337818 0
M  V30 40 H -1.140956 0.089620 1.227458 0
M  V30 41 H 1.557157 0.484664 -1.327486 0
M  V30 END ATOM
M  V30 BEGIN BOND
M  V30 1 1 1 2
M  V30 2 1 2 3
M  V30 3 1 3 4
M  V30 4 2 4 5
M  V30 5 1 5 6
M  V30 6 1 6 7
M  V30 7 1 7 8
M  V30 8 2 8 9
M  V30 9 1 8 10
M  V30 10 1 10 11
M  V30 11 1 12 11 CFG=3
M  V30 12 1 12 13
M  V30 13 1 13 14
M  V30 14 1 14 15
M  V30 15 1 15 16
M  V30 16 1 16 17 CFG=3
M  V30 17 1 17 18
M  V30 18 1 17 19
M  V30 19 1 17 20
M  V30 20 1 16 21
M  V30 21 2 7 22
M  V30 22 1 22 4
M  V30 23 1 16 12
M  V30 24 1 21 12
M  V30 25 1 1 23
M  V30 26 1 1 24
M  V30 27 1 1 25
M  V30 28 1 2 26
M  V30 29 1 2 27
M  V30 30 1 3 28
M  V30 31 1 3 29
M  V30 32 1 6 30
M  V30 33 1 10 31
M  V30 34 1 11 32
M  V30 35 1 11 33
M  V30 36 1 13 34
M  V30 37 1 13 35
M  V30 38 1 14 36
M  V30 39 1 15 37
M  V30 40 1 15 38
M  V30 41 1 21 39
M  V30 42 1 21 40
M  V30 43 1 22 41
M  V30 END BOND
M  V30 BEGIN COLLECTION
M  V30 MDLV30/STERAC1 ATOMS=(2 12 16)
M  V30 END COLLECTION
M  V30 END CTAB
M  END
>  <_CXSMILES_Data>  (143) 
|&1:11,15|

$$$$
OCNT-2308998
     RDKit          3D

 42 44  0  0  0  0  0  0  0  0999 V2000
    7.1993    0.6793    0.4224 C   0  0  0  0  0  0  0  0  0  0  0  0
    5.9858    0.0789   -0.2239 C   0  0  0  0  0  0  0  0  0  0  0  0
    6.0696   -0.4890   -1.4982 C   0  0  0  0  0  0  0  0  0  0  0  0
    4.9321   -1.0113   -2.1101 C   0  0  0  0  0  0  0  0  0  0  0  0
    3.6991   -0.9615   -1.4565 C   0  0  0  0  0  0  0  0  0  0  0  0
    3.5785   -0.3868   -0.1809 C   0  0  0  0  0  0  0  0  0  0  0  0
    2.2792   -0.3307    0.5056 C   0  0  0  0  0  0  0  0  0  0  0  0
    2.1212   -0.7689    1.8217 C   0  0  0  0  0  0  0  0  0  0  0  0
    0.9572   -0.7350    2.5163 N   0  0  0  0  0  0  0  0  0  0  0  0
   -0.1247   -0.2439    1.8656 C   0  0  0  0  0  0  0  0  0  0  0  0
   -0.0974    0.2009    0.5509 C   0  0  0  0  0  0  0  0  0  0  0  0
   -1.2938    0.7471   -0.1421 C   0  0  0  0  0  0  0  0  0  0  0  0
   -1.1136    1.5598   -1.0424 O   0  0  0  0  0  0  0  0  0  0  0  0
   -2.5112    0.2487    0.2758 N   0  0  0  0  0  0  0  0  0  0  0  0
   -3.8125    0.6319   -0.1432 C   0  0  0  0  0  0  0  0  0  0  0  0
   -4.0299    1.7034   -1.0176 C   0  0  0  0  0  0  0  0  0  0  0  0
   -5.3249    2.0776   -1.3892 C   0  0  0  0  0  0  0  0  0  0  0  0
   -6.4254    1.3940   -0.8848 C   0  0  0  0  0  0  0  0  0  0  0  0
   -6.2346    0.3225   -0.0140 C   0  0  0  0  0  0  0  0  0  0  0  0
   -4.9361   -0.0766    0.3502 C   0  0  0  0  0  0  0  0  0  0  0  0
   -4.7511   -1.2387    1.2719 C   0  0  0  0  0  0  0  0  0  0  0  0
   -5.7562   -2.1633    1.3547 N   0  0  0  0  0  0  0  0  0  0  0  0
   -3.7116   -1.3978    1.9049 O   0  0  0  0  0  0  0  0  0  0  0  0
    1.1291    0.1655   -0.1246 C   0  0  0  0  0  0  0  0  0  0  0  0
    4.7390    0.1362    0.4180 C   0  0  0  0  0  0  0  0  0  0  0  0
    8.1104    0.1670    0.0959 H   0  0  0  0  0  0  0  0  0  0  0  0
    7.2766    1.7391    0.1611 H   0  0  0  0  0  0  0  0  0  0  0  0
    7.1474    0.5852    1.5122 H   0  0  0  0  0  0  0  0  0  0  0  0
    7.0217   -0.5267   -2.0228 H   0  0  0  0  0  0  0  0  0  0  0  0
    5.0036   -1.4568   -3.0990 H   0  0  0  0  0  0  0  0  0  0  0  0
    2.8282   -1.3846   -1.9534 H   0  0  0  0  0  0  0  0  0  0  0  0
    2.9595   -1.1826    2.3783 H   0  0  0  0  0  0  0  0  0  0  0  0
   -1.0252   -0.2093    2.4727 H   0  0  0  0  0  0  0  0  0  0  0  0
   -2.5094   -0.5144    0.9554 H   0  0  0  0  0  0  0  0  0  0  0  0
   -3.2066    2.2839   -1.4232 H   0  0  0  0  0  0  0  0  0  0  0  0
   -5.4668    2.9172   -2.0663 H   0  0  0  0  0  0  0  0  0  0  0  0
   -7.4304    1.7022   -1.1628 H   0  0  0  0  0  0  0  0  0  0  0  0
   -7.1117   -0.1732    0.3917 H   0  0  0  0  0  0  0  0  0  0  0  0
   -6.4770   -2.2408    0.6512 H   0  0  0  0  0  0  0  0  0  0  0  0
   -5.5461   -2.9994    1.8866 H   0  0  0  0  0  0  0  0  0  0  0  0
    1.1860    0.5395   -1.1458 H   0  0  0  0  0  0  0  0  0  0  0  0
    4.6728    0.6109    1.3963 H   0  0  0  0  0  0  0  0  0  0  0  0
  1  2  1  0
  2  3  2  0
  3  4  1  0
  4  5  2  0
  5  6  1  0
  6  7  1  0
  7  8  2  0
  8  9  1  0
  9 10  2  0
 10 11  1  0
 11 12  1  0
 12 13  2  0
 12 14  1  0
 14 15  1  0
 15 16  2  0
 16 17  1  0
 17 18  2  0
 18 19  1  0
 19 20  2  0
 20 21  1  0
 21 22  1  0
 21 23  2  0
 11 24  2  0
  6 25  2  0
 25  2  1  0
 24  7  1  0
 20 15  1  0
  1 26  1  0
  1 27  1  0
  1 28  1  0
  3 29  1  0
  4 30  1  0
  5 31  1  0
  8 32  1  0
 10 33  1  0
 14 34  1  0
 16 35  1  0
 17 36  1  0
 18 37  1  0
 19 38  1  0
 22 39  1  0
 22 40  1  0
 24 41  1  0
 25 42  1  0
M  END
$$$$
OCNT-2309000
     RDKit          3D

 57 59  0  0  0  0  0  0  0  0999 V2000
   -2.5879    0.1834   -1.4793 O   0  0  0  0  0  0  0  0  0  0  0  0
   -2.5620    0.0663   -0.2580 C   0  0  0  0  0  0  0  0  0  0  0  0
   -3.8067    0.1898    0.6415 C   0  0  0  0  0  0  0  0  0  0  0  0
   -4.9921    0.6586    0.0204 O   0  0  0  0  0  0  0  0  0  0  0  0
   -5.6434   -0.3201   -0.8011 C   0  0  0  0  0  0  0  0  0  0  0  0
   -6.3723    0.4282   -1.9173 C   0  0  0  0  0  0  0  0  0  0  0  0
   -7.4485    1.3798   -1.3857 C   0  0  0  0  0  0  0  0  0  0  0  0
   -8.1207    0.8871   -0.1038 C   0  0  0  0  0  0  0  0  0  0  0  0
   -8.0636   -0.6282    0.0205 C   0  0  0  0  0  0  0  0  0  0  0  0
   -6.6224   -1.1498    0.0481 C   0  0  0  0  0  0  0  0  0  0  0  0
   -1.4054   -0.2227    0.4503 N   0  0  0  0  0  0  0  0  0  0  0  0
   -0.1169   -0.2332   -0.2220 C   0  0  0  0  0  0  0  0  0  0  0  0
    0.9313   -1.0195    0.5683 C   0  0  0  0  0  0  0  0  0  0  0  0
    1.3115   -0.3298    1.8874 C   0  0  0  0  0  0  0  0  0  0  0  0
    2.8286   -0.2215    1.8551 C   0  0  0  0  0  0  0  0  0  0  0  0
    3.1045   -0.1113    0.4227 N   0  0  0  0  0  0  0  0  0  0  0  0
    4.5202   -0.3080    0.0810 C   0  0  0  0  0  0  0  0  0  0  0  0
    5.4149    0.8373    0.5814 C   0  0  0  0  0  0  0  0  0  0  0  0
    6.8488    0.6540    0.1432 C   0  0  0  0  0  0  0  0  0  0  0  0
    7.2916    1.1855   -1.0754 C   0  0  0  0  0  0  0  0  0  0  0  0
    8.6112    0.9996   -1.4897 C   0  0  0  0  0  0  0  0  0  0  0  0
    9.4982    0.2783   -0.6928 C   0  0  0  0  0  0  0  0  0  0  0  0
    9.0665   -0.2589    0.5186 C   0  0  0  0  0  0  0  0  0  0  0  0
    7.7471   -0.0743    0.9348 C   0  0  0  0  0  0  0  0  0  0  0  0
    2.2521   -1.1305   -0.1982 C   0  0  0  0  0  0  0  0  0  0  0  0
   -3.5638    0.9131    1.4281 H   0  0  0  0  0  0  0  0  0  0  0  0
   -3.9831   -0.7767    1.1273 H   0  0  0  0  0  0  0  0  0  0  0  0
   -4.8990   -0.9877   -1.2505 H   0  0  0  0  0  0  0  0  0  0  0  0
   -5.6572    1.0090   -2.5123 H   0  0  0  0  0  0  0  0  0  0  0  0
   -6.8345   -0.2994   -2.5962 H   0  0  0  0  0  0  0  0  0  0  0  0
   -7.0137    2.3693   -1.1984 H   0  0  0  0  0  0  0  0  0  0  0  0
   -8.2035    1.5242   -2.1681 H   0  0  0  0  0  0  0  0  0  0  0  0
   -7.6247    1.3380    0.7648 H   0  0  0  0  0  0  0  0  0  0  0  0
   -9.1609    1.2314   -0.0787 H   0  0  0  0  0  0  0  0  0  0  0  0
   -8.5879   -0.9543    0.9261 H   0  0  0  0  0  0  0  0  0  0  0  0
   -8.5970   -1.0791   -0.8260 H   0  0  0  0  0  0  0  0  0  0  0  0
   -6.6342   -2.1838   -0.3177 H   0  0  0  0  0  0  0  0  0  0  0  0
   -6.2833   -1.1882    1.0898 H   0  0  0  0  0  0  0  0  0  0  0  0
   -1.4109   -0.0094    1.4394 H   0  0  0  0  0  0  0  0  0  0  0  0
   -0.2490   -0.6805   -1.2142 H   0  0  0  0  0  0  0  0  0  0  0  0
    0.1870    0.8096   -0.3704 H   0  0  0  0  0  0  0  0  0  0  0  0
    0.5446   -2.0254    0.7766 H   0  0  0  0  0  0  0  0  0  0  0  0
    0.9730   -0.9076    2.7539 H   0  0  0  0  0  0  0  0  0  0  0  0
    0.8674    0.6704    1.9609 H   0  0  0  0  0  0  0  0  0  0  0  0
    3.2804   -1.1220    2.2903 H   0  0  0  0  0  0  0  0  0  0  0  0
    3.1696    0.6518    2.4192 H   0  0  0  0  0  0  0  0  0  0  0  0
    4.8861   -1.2684    0.4686 H   0  0  0  0  0  0  0  0  0  0  0  0
    4.6097   -0.3593   -1.0125 H   0  0  0  0  0  0  0  0  0  0  0  0
    5.0417    1.7998    0.2080 H   0  0  0  0  0  0  0  0  0  0  0  0
    5.3871    0.9055    1.6758 H   0  0  0  0  0  0  0  0  0  0  0  0
    6.6094    1.7482   -1.7092 H   0  0  0  0  0  0  0  0  0  0  0  0
    8.9468    1.4176   -2.4352 H   0  0  0  0  0  0  0  0  0  0  0  0
   10.5258    0.1346   -1.0161 H   0  0  0  0  0  0  0  0  0  0  0  0
    9.7579   -0.8223    1.1396 H   0  0  0  0  0  0  0  0  0  0  0  0
    7.4245   -0.5011    1.8816 H   0  0  0  0  0  0  0  0  0  0  0  0
    2.1373   -0.9612   -1.2739 H   0  0  0  0  0  0  0  0  0  0  0  0
    2.6698   -2.1360   -0.0541 H   0  0  0  0  0  0  0  0  0  0  0  0
  1  2  2  0
  2  3  1  0
  3  4  1  0
  4  5  1  0
  5  6  1  0
  6  7  1  0
  7  8  1  0
  8  9  1  0
  9 10  1  0
  2 11  1  0
 11 12  1  0
 12 13  1  0
 13 14  1  0
 14 15  1  0
 15 16  1  0
 16 17  1  0
 17 18  1  0
 18 19  1  0
 19 20  2  0
 20 21  1  0
 21 22  2  0
 22 23  1  0
 23 24  2  0
 16 25  1  0
 10  5  1  0
 25 13  1  0
 24 19  1  0
  3 26  1  0
  3 27  1  0
  5 28  1  0
  6 29  1  0
  6 30  1  0
  7 31  1  0
  7 32  1  0
  8 33  1  0
  8 34  1  0
  9 35  1  0
  9 36  1  0
 10 37  1  0
 10 38  1  0
 11 39  1  0
 12 40  1  0
 12 41  1  0
 13 42  1  0
 14 43  1  0
 14 44  1  0
 15 45  1  0
 15 46  1  0
 17 47  1  0
 17 48  1  0
 18 49  1  0
 18 50  1  0
 20 51  1  0
 21 52  1  0
 22 53  1  0
 23 54  1  0
 24 55  1  0
 25 56  1  0
 25 57  1  0
M  END
$$$$
OCNT-2309003
     RDKit          3D

 54 58  0  0  0  0  0  0  0  0999 V2000
   -0.5928   -0.6698    3.5762 O   0  0  0  0  0  0  0  0  0  0  0  0
    0.1180   -0.4807    2.5926 C   0  0  0  0  0  0  0  0  0  0  0  0
   -0.3588   -0.0262    1.3915 N   0  0  0  0  0  0  0  0  0  0  0  0
   -1.7621    0.2348    1.1360 C   0  0  0  0  0  0  0  0  0  0  0  0
   -2.1632    1.6819    1.4159 C   0  0  0  0  0  0  0  0  0  0  0  0
   -1.2312    2.7319    1.4781 C   0  0  0  0  0  0  0  0  0  0  0  0
   -1.6451    4.0429    1.7264 C   0  0  0  0  0  0  0  0  0  0  0  0
   -2.9970    4.3262    1.9098 C   0  0  0  0  0  0  0  0  0  0  0  0
   -3.9362    3.3003    1.8452 C   0  0  0  0  0  0  0  0  0  0  0  0
   -3.5233    1.9893    1.5997 C   0  0  0  0  0  0  0  0  0  0  0  0
   -2.0952   -0.2104   -0.2846 C   0  0  0  0  0  0  0  0  0  0  0  0
   -1.6531    0.5180   -1.4069 C   0  0  0  0  0  0  0  0  0  0  0  0
   -1.9353    0.1098   -2.7174 C   0  0  0  0  0  0  0  0  0  0  0  0
   -2.6737   -1.0647   -2.8599 C   0  0  0  0  0  0  0  0  0  0  0  0
   -3.1282   -1.7447   -3.9607 N   0  0  0  0  0  0  0  0  0  0  0  0
   -3.8083   -2.8467   -3.5244 C   0  0  0  0  0  0  0  0  0  0  0  0
   -3.8193   -2.9234   -2.2133 N   0  0  0  0  0  0  0  0  0  0  0  0
   -3.1219   -1.8209   -1.7828 C   0  0  0  0  0  0  0  0  0  0  0  0
   -2.8292   -1.3989   -0.4780 C   0  0  0  0  0  0  0  0  0  0  0  0
    1.6236   -0.7033    2.6529 C   0  0  0  0  0  0  0  0  0  0  0  0
    2.4103    0.6010    2.5665 C   0  0  0  0  0  0  0  0  0  0  0  0
    2.7505    0.7834    1.0831 C   0  0  0  0  0  0  0  0  0  0  0  0
    2.3029   -0.4575    0.4214 N   0  0  0  0  0  0  0  0  0  0  0  0
    3.0813   -0.8932   -0.6635 C   0  0  0  0  0  0  0  0  0  0  0  0
    2.4223   -1.1702   -1.8699 C   0  0  0  0  0  0  0  0  0  0  0  0
    3.1280   -1.6202   -2.9910 C   0  0  0  0  0  0  0  0  0  0  0  0
    4.5080   -1.8074   -2.9220 C   0  0  0  0  0  0  0  0  0  0  0  0
    5.1813   -1.5512   -1.7297 C   0  0  0  0  0  0  0  0  0  0  0  0
    4.4707   -1.1039   -0.6169 C   0  0  0  0  0  0  0  0  0  0  0  0
    5.1473   -0.8937    0.5250 F   0  0  0  0  0  0  0  0  0  0  0  0
    2.1335   -1.4973    1.4583 C   0  0  0  0  0  0  0  0  0  0  0  0
    0.2868    0.0071    0.6057 H   0  0  0  0  0  0  0  0  0  0  0  0
   -2.3348   -0.3828    1.8416 H   0  0  0  0  0  0  0  0  0  0  0  0
   -0.1720    2.5400    1.3365 H   0  0  0  0  0  0  0  0  0  0  0  0
   -0.9108    4.8430    1.7794 H   0  0  0  0  0  0  0  0  0  0  0  0
   -3.3181    5.3458    2.1057 H   0  0  0  0  0  0  0  0  0  0  0  0
   -4.9919    3.5178    1.9889 H   0  0  0  0  0  0  0  0  0  0  0  0
   -4.2720    1.2008    1.5539 H   0  0  0  0  0  0  0  0  0  0  0  0
   -1.0765    1.4294   -1.2656 H   0  0  0  0  0  0  0  0  0  0  0  0
   -1.5950    0.6857   -3.5710 H   0  0  0  0  0  0  0  0  0  0  0  0
   -2.9901   -1.4753   -4.9240 H   0  0  0  0  0  0  0  0  0  0  0  0
   -4.2716   -3.5477   -4.2026 H   0  0  0  0  0  0  0  0  0  0  0  0
   -3.1739   -1.9986    0.3600 H   0  0  0  0  0  0  0  0  0  0  0  0
    1.8339   -1.2358    3.5876 H   0  0  0  0  0  0  0  0  0  0  0  0
    3.3412    0.5088    3.1384 H   0  0  0  0  0  0  0  0  0  0  0  0
    1.8648    1.4636    2.9628 H   0  0  0  0  0  0  0  0  0  0  0  0
    2.1953    1.6297    0.6636 H   0  0  0  0  0  0  0  0  0  0  0  0
    3.8169    1.0003    0.9657 H   0  0  0  0  0  0  0  0  0  0  0  0
    1.3442   -1.0351   -1.9364 H   0  0  0  0  0  0  0  0  0  0  0  0
    2.5951   -1.8273   -3.9162 H   0  0  0  0  0  0  0  0  0  0  0  0
    5.0553   -2.1587   -3.7928 H   0  0  0  0  0  0  0  0  0  0  0  0
    6.2537   -1.7021   -1.6545 H   0  0  0  0  0  0  0  0  0  0  0  0
    3.0879   -1.9761    1.7132 H   0  0  0  0  0  0  0  0  0  0  0  0
    1.4277   -2.2675    1.1286 H   0  0  0  0  0  0  0  0  0  0  0  0
  1  2  2  0
  2  3  1  0
  3  4  1  0
  4  5  1  0
  5  6  2  0
  6  7  1  0
  7  8  2  0
  8  9  1  0
  9 10  2  0
  4 11  1  0
 11 12  2  0
 12 13  1  0
 13 14  2  0
 14 15  1  0
 15 16  1  0
 16 17  2  0
 17 18  1  0
 18 19  2  0
  2 20  1  0
 20 21  1  0
 21 22  1  0
 22 23  1  0
 23 24  1  0
 24 25  2  0
 25 26  1  0
 26 27  2  0
 27 28  1  0
 28 29  2  0
 29 30  1  0
 23 31  1  0
 10  5  1  0
 19 11  1  0
 31 20  1  0
 18 14  1  0
 29 24  1  0
  3 32  1  0
  4 33  1  0
  6 34  1  0
  7 35  1  0
  8 36  1  0
  9 37  1  0
 10 38  1  0
 12 39  1  0
 13 40  1  0
 15 41  1  0
 16 42  1  0
 19 43  1  0
 20 44  1  0
 21 45  1  0
 21 46  1  0
 22 47  1  0
 22 48  1  0
 25 49  1  0
 26 50  1  0
 27 51  1  0
 28 52  1  0
 31 53  1  0
 31 54  1  0
M  END
$$$$
OCNT-2309014
     RDKit          3D

  0  0  0  0  0  0  0  0  0  0999 V3000
M  V30 BEGIN CTAB
M  V30 COUNTS 43 46 0 0 0
M  V30 BEGIN ATOM
M  V30 1 C -5.369497 1.688053 0.956330 0
M  V30 2 N -4.105198 1.127535 0.574217 0
M  V30 3 C -2.864802 1.673217 0.816068 0
M  V30 4 O -2.629773 2.726498 1.390383 0
M  V30 5 O -1.852973 0.847552 0.304926 0
M  V30 6 C -2.557994 -0.214457 -0.251611 0
M  V30 7 C -2.028462 -1.321624 -0.892349 0
M  V30 8 C -0.573639 -1.561436 -1.098378 0
M  V30 9 O -0.194618 -2.591811 -1.646594 0
M  V30 10 N 0.297494 -0.594857 -0.651358 0
M  V30 11 C 1.733778 -0.843160 -0.602543 0 CFG=1
M  V30 12 C 2.519785 0.461776 -0.630671 0
M  V30 13 C 2.123975 1.497422 -1.498036 0
M  V30 14 C 2.837666 2.693753 -1.563165 0
M  V30 15 C 3.967825 2.870533 -0.773400 0
M  V30 16 C 4.391273 1.846666 0.071913 0
M  V30 17 C 3.688033 0.632650 0.139918 0
M  V30 18 C 4.192798 -0.433903 1.081798 0
M  V30 19 C 3.586063 -1.810096 0.823822 0
M  V30 20 C 2.076719 -1.721876 0.631902 0 CFG=1
M  V30 21 O 1.468633 -1.219872 1.835711 0
M  V30 22 C -2.943985 -2.276801 -1.372668 0
M  V30 23 C -4.333371 -2.108158 -1.207781 0
M  V30 24 C -4.839820 -0.981814 -0.558444 0
M  V30 25 C -3.924854 -0.060017 -0.095051 0
M  V30 26 H -5.975470 1.858725 0.061662 0
M  V30 27 H -5.224458 2.640092 1.474525 0
M  V30 28 H -5.885816 0.993910 1.625931 0
M  V30 29 H -0.058539 0.141381 -0.054302 0
M  V30 30 H 2.021170 -1.400025 -1.504841 0
M  V30 31 H 1.250660 1.373980 -2.136449 0
M  V30 32 H 2.511626 3.485128 -2.233032 0
M  V30 33 H 4.524273 3.802922 -0.820059 0
M  V30 34 H 5.281948 1.998054 0.678839 0
M  V30 35 H 5.283659 -0.513889 0.999207 0
M  V30 36 H 3.966748 -0.118096 2.107974 0
M  V30 37 H 4.042050 -2.255913 -0.069064 0
M  V30 38 H 3.823411 -2.461858 1.672836 0
M  V30 39 H 1.670883 -2.729477 0.487223 0
M  V30 40 H 1.602503 -0.255847 1.854693 0
M  V30 41 H -2.578863 -3.168320 -1.882808 0
M  V30 42 H -5.013121 -2.866937 -1.590992 0
M  V30 43 H -5.907724 -0.849601 -0.428737 0
M  V30 END ATOM
M  V30 BEGIN BOND
M  V30 1 1 1 2
M  V30 2 1 2 3
M  V30 3 2 3 4
M  V30 4 1 3 5
M  V30 5 1 5 6
M  V30 6 2 6 7
M  V30 7 1 7 8
M  V30 8 2 8 9
M  V30 9 1 8 10
M  V30 10 1 10 11
M  V30 11 1 11 12
M  V30 12 2 12 13
M  V30 13 1 13 14
M  V30 14 2 14 15
M  V30 15 1 15 16
M  V30 16 2 16 17
M  V30 17 1 17 18
M  V30 18 1 18 19
M  V30 19 1 19 20
M  V30 20 1 20 21
M  V30 21 1 7 22
M  V30 22 2 22 23
M  V30 23 1 23 24
M  V30 24 2 24 25
M  V30 25 1 25 2
M  V30 26 1 25 6
M  V30 27 1 20 11
M  V30 28 1 17 12
M  V30 29 1 1 26
M  V30 30 1 1 27
M  V30 31 1 1 28
M  V30 32 1 10 29
M  V30 33 1 11 30 CFG=3
M  V30 34 1 13 31
M  V30 35 1 14 32
M  V30 36 1 15 33
M  V30 37 1 16 34
M  V30 38 1 18 35
M  V30 39 1 18 36
M  V30 40 1 19 37
M  V30 41 1 19 38
M  V30 42 1 20 39 CFG=3
M  V30 43 1 21 40
M  V30 44 1 22 41
M  V30 45 1 23 42
M  V30 46 1 24 43
M  V30 END BOND
M  V30 BEGIN COLLECTION
M  V30 MDLV30/STERAC1 ATOMS=(2 11 20)
M  V30 END COLLECTION
M  V30 END CTAB
M  END
>  <_CXSMILES_Data>  (147) 
|&1:10,19|

$$$$
OCNT-2309041
     RDKit          3D

 51 53  0  0  0  0  0  0  0  0999 V2000
   -3.2710   -2.8866   -1.3055 C   0  0  0  0  0  0  0  0  0  0  0  0
   -3.4856   -1.5280   -0.7049 C   0  0  0  0  0  0  0  0  0  0  0  0
   -4.7207   -0.8853   -0.8158 C   0  0  0  0  0  0  0  0  0  0  0  0
   -4.9220    0.3715   -0.2376 C   0  0  0  0  0  0  0  0  0  0  0  0
   -3.9008    1.0144    0.4804 C   0  0  0  0  0  0  0  0  0  0  0  0
   -4.2245    2.3342    1.1273 C   0  0  0  0  0  0  0  0  0  0  0  0
   -2.6537    0.3693    0.5736 C   0  0  0  0  0  0  0  0  0  0  0  0
   -1.5542    0.9726    1.2268 N   0  0  0  0  0  0  0  0  0  0  0  0
   -0.8145    0.4506    2.2775 C   0  0  0  0  0  0  0  0  0  0  0  0
   -1.0914   -0.8377    2.9561 C   0  0  0  0  0  0  0  0  0  0  0  0
    0.1237    1.3115    2.6244 N   0  0  0  0  0  0  0  0  0  0  0  0
    0.0506    2.3894    1.7816 N   0  0  0  0  0  0  0  0  0  0  0  0
   -0.9238    2.1650    0.9307 C   0  0  0  0  0  0  0  0  0  0  0  0
   -1.1737    3.1305   -0.4896 S   0  0  0  0  0  0  0  0  0  0  0  0
   -0.6407    1.9991   -1.8110 C   0  0  0  0  0  0  0  0  0  0  0  0
    0.5613    1.1524   -1.4276 C   0  0  0  0  0  0  0  0  0  0  0  0
    0.5391   -0.0720   -1.5263 O   0  0  0  0  0  0  0  0  0  0  0  0
    1.6612    1.8613   -0.9853 N   0  0  0  0  0  0  0  0  0  0  0  0
    2.7748    1.1713   -0.3622 C   0  0  0  0  0  0  0  0  0  0  0  0
    3.7358    0.5811   -1.3915 C   0  0  0  0  0  0  0  0  0  0  0  0
    5.0099    0.0389   -0.7473 C   0  0  0  0  0  0  0  0  0  0  0  0
    4.7911   -1.1390    0.0700 N   0  0  0  0  0  0  0  0  0  0  0  0
    4.6442   -1.1801    1.4275 C   0  0  0  0  0  0  0  0  0  0  0  0
    4.4697   -2.5054    1.7495 C   0  0  0  0  0  0  0  0  0  0  0  0
    4.5456   -3.1842    0.5194 C   0  0  0  0  0  0  0  0  0  0  0  0
    4.7535   -2.3554   -0.5061 N   0  0  0  0  0  0  0  0  0  0  0  0
   -2.4563   -0.9013    0.0054 C   0  0  0  0  0  0  0  0  0  0  0  0
   -3.4095   -3.6585   -0.5418 H   0  0  0  0  0  0  0  0  0  0  0  0
   -2.2611   -2.9703   -1.7211 H   0  0  0  0  0  0  0  0  0  0  0  0
   -3.9754   -3.0717   -2.1235 H   0  0  0  0  0  0  0  0  0  0  0  0
   -5.5396   -1.3584   -1.3539 H   0  0  0  0  0  0  0  0  0  0  0  0
   -5.8988    0.8417   -0.3380 H   0  0  0  0  0  0  0  0  0  0  0  0
   -5.2570    2.3342    1.4942 H   0  0  0  0  0  0  0  0  0  0  0  0
   -4.1182    3.1493    0.4065 H   0  0  0  0  0  0  0  0  0  0  0  0
   -3.5921    2.5314    1.9977 H   0  0  0  0  0  0  0  0  0  0  0  0
   -0.5926   -0.8659    3.9302 H   0  0  0  0  0  0  0  0  0  0  0  0
   -0.7121   -1.6762    2.3648 H   0  0  0  0  0  0  0  0  0  0  0  0
   -2.1623   -0.9784    3.1300 H   0  0  0  0  0  0  0  0  0  0  0  0
   -1.4726    1.3366   -2.0686 H   0  0  0  0  0  0  0  0  0  0  0  0
   -0.3883    2.5820   -2.7023 H   0  0  0  0  0  0  0  0  0  0  0  0
    1.4584    2.7885   -0.6229 H   0  0  0  0  0  0  0  0  0  0  0  0
    2.3758    0.3950    0.2999 H   0  0  0  0  0  0  0  0  0  0  0  0
    3.2928    1.9124    0.2576 H   0  0  0  0  0  0  0  0  0  0  0  0
    4.0154    1.3636   -2.1083 H   0  0  0  0  0  0  0  0  0  0  0  0
    3.2359   -0.2063   -1.9682 H   0  0  0  0  0  0  0  0  0  0  0  0
    5.4870    0.7998   -0.1180 H   0  0  0  0  0  0  0  0  0  0  0  0
    5.7329   -0.2410   -1.5234 H   0  0  0  0  0  0  0  0  0  0  0  0
    4.6635   -0.2859    2.0353 H   0  0  0  0  0  0  0  0  0  0  0  0
    4.3121   -2.9233    2.7326 H   0  0  0  0  0  0  0  0  0  0  0  0
    4.4613   -4.2462    0.3274 H   0  0  0  0  0  0  0  0  0  0  0  0
   -1.4829   -1.3904    0.0594 H   0  0  0  0  0  0  0  0  0  0  0  0
  1  2  1  0
  2  3  1  0
  3  4  2  0
  4  5  1  0
  5  6  1  0
  5  7  2  0
  7  8  1  0
  8  9  1  0
  9 10  1  0
  9 11  2  0
 11 12  1  0
 12 13  2  0
 13 14  1  0
 14 15  1  0
 15 16  1  0
 16 17  2  0
 16 18  1  0
 18 19  1  0
 19 20  1  0
 20 21  1  0
 21 22  1  0
 22 23  1  0
 23 24  2  0
 24 25  1  0
 25 26  2  0
  7 27  1  0
 27  2  2  0
 13  8  1  0
 26 22  1  0
  1 28  1  0
  1 29  1  0
  1 30  1  0
  3 31  1  0
  4 32  1  0
  6 33  1  0
  6 34  1  0
  6 35  1  0
 10 36  1  0
 10 37  1  0
 10 38  1  0
 15 39  1  0
 15 40  1  0
 18 41  1  0
 19 42  1  0
 19 43  1  0
 20 44  1  0
 20 45  1  0
 21 46  1  0
 21 47  1  0
 23 48  1  0
 24 49  1  0
 25 50  1  0
 27 51  1  0
M  END
$$$$
OCNT-2309057
     RDKit          3D

 49 52  0  0  0  0  0  0  0  0999 V2000
   -6.7524   -0.5755   -0.7093 C   0  0  0  0  0  0  0  0  0  0  0  0
   -5.3922   -0.4069   -0.0872 C   0  0  0  0  0  0  0  0  0  0  0  0
   -4.4907   -1.4843   -0.1188 C   0  0  0  0  0  0  0  0  0  0  0  0
   -3.2501   -1.3234    0.4596 C   0  0  0  0  0  0  0  0  0  0  0  0
   -2.8665   -0.1330    1.0495 C   0  0  0  0  0  0  0  0  0  0  0  0
   -3.7297    0.9478    1.0934 C   0  0  0  0  0  0  0  0  0  0  0  0
   -5.0101    0.8169    0.5265 C   0  0  0  0  0  0  0  0  0  0  0  0
   -5.9524    1.9903    0.5722 C   0  0  0  0  0  0  0  0  0  0  0  0
   -1.4635   -0.2502    1.5242 C   0  0  0  0  0  0  0  0  0  0  0  0
   -0.4554    0.5105    0.6778 C   0  0  0  0  0  0  0  0  0  0  0  0
    0.3360    1.3048    1.1860 O   0  0  0  0  0  0  0  0  0  0  0  0
   -0.4696    0.2505   -0.6717 N   0  0  0  0  0  0  0  0  0  0  0  0
    0.5263    0.7890   -1.5684 C   0  0  0  0  0  0  0  0  0  0  0  0
    1.6696   -0.1574   -1.6272 C   0  0  0  0  0  0  0  0  0  0  0  0
    1.6669   -1.3479   -2.1977 N   0  0  0  0  0  0  0  0  0  0  0  0
    2.9113   -1.9100   -2.0360 N   0  0  0  0  0  0  0  0  0  0  0  0
    3.6530   -1.0562   -1.3694 C   0  0  0  0  0  0  0  0  0  0  0  0
    5.0626   -1.2159   -0.9274 C   0  0  0  0  0  0  0  0  0  0  0  0
    5.6999    0.1395   -0.5969 C   0  0  0  0  0  0  0  0  0  0  0  0
    7.0401   -0.0714    0.0780 C   0  0  0  0  0  0  0  0  0  0  0  0
    6.9088   -0.7308    1.2475 F   0  0  0  0  0  0  0  0  0  0  0  0
    7.6354    1.1134    0.3372 F   0  0  0  0  0  0  0  0  0  0  0  0
    7.8738   -0.7820   -0.7099 F   0  0  0  0  0  0  0  0  0  0  0  0
    4.7523    0.9697    0.2878 C   0  0  0  0  0  0  0  0  0  0  0  0
    3.4222    1.2338   -0.4232 C   0  0  0  0  0  0  0  0  0  0  0  0
    2.9081    0.0579   -1.0882 N   0  0  0  0  0  0  0  0  0  0  0  0
   -1.2833   -1.7665    1.3988 C   0  0  0  0  0  0  0  0  0  0  0  0
   -2.2757   -2.2867    0.4759 O   0  0  0  0  0  0  0  0  0  0  0  0
   -6.8731   -1.5722   -1.1472 H   0  0  0  0  0  0  0  0  0  0  0  0
   -7.5339   -0.4506    0.0468 H   0  0  0  0  0  0  0  0  0  0  0  0
   -6.8974    0.1555   -1.5109 H   0  0  0  0  0  0  0  0  0  0  0  0
   -4.7522   -2.4300   -0.5827 H   0  0  0  0  0  0  0  0  0  0  0  0
   -3.4153    1.8809    1.5534 H   0  0  0  0  0  0  0  0  0  0  0  0
   -5.5096    2.8407    1.1017 H   0  0  0  0  0  0  0  0  0  0  0  0
   -6.8727    1.7193    1.0991 H   0  0  0  0  0  0  0  0  0  0  0  0
   -6.1946    2.3220   -0.4423 H   0  0  0  0  0  0  0  0  0  0  0  0
   -1.3555    0.0625    2.5684 H   0  0  0  0  0  0  0  0  0  0  0  0
   -1.0043   -0.5432   -1.0117 H   0  0  0  0  0  0  0  0  0  0  0  0
    0.0632    0.8740   -2.5566 H   0  0  0  0  0  0  0  0  0  0  0  0
    0.8248    1.7901   -1.2444 H   0  0  0  0  0  0  0  0  0  0  0  0
    5.0732   -1.8721   -0.0482 H   0  0  0  0  0  0  0  0  0  0  0  0
    5.6390   -1.7190   -1.7125 H   0  0  0  0  0  0  0  0  0  0  0  0
    5.8687    0.6909   -1.5319 H   0  0  0  0  0  0  0  0  0  0  0  0
    5.2129    1.9267    0.5591 H   0  0  0  0  0  0  0  0  0  0  0  0
    4.5604    0.4312    1.2253 H   0  0  0  0  0  0  0  0  0  0  0  0
    2.6804    1.5848    0.2969 H   0  0  0  0  0  0  0  0  0  0  0  0
    3.5507    1.9987   -1.1975 H   0  0  0  0  0  0  0  0  0  0  0  0
   -0.2879   -2.0562    1.0447 H   0  0  0  0  0  0  0  0  0  0  0  0
   -1.4514   -2.2596    2.3651 H   0  0  0  0  0  0  0  0  0  0  0  0
  1  2  1  0
  2  3  1  0
  3  4  2  0
  4  5  1  0
  5  6  2  0
  6  7  1  0
  7  8  1  0
  5  9  1  0
  9 10  1  0
 10 11  2  0
 10 12  1  0
 12 13  1  0
 13 14  1  0
 14 15  2  0
 15 16  1  0
 16 17  2  0
 17 18  1  0
 18 19  1  0
 19 20  1  0
 20 21  1  0
 20 22  1  0
 20 23  1  0
 19 24  1  0
 24 25  1  0
 25 26  1  0
  9 27  1  0
 27 28  1  0
  7  2  2  0
 26 14  1  0
 28  4  1  0
 26 17  1  0
  1 29  1  0
  1 30  1  0
  1 31  1  0
  3 32  1  0
  6 33  1  0
  8 34  1  0
  8 35  1  0
  8 36  1  0
  9 37  1  0
 12 38  1  0
 13 39  1  0
 13 40  1  0
 18 41  1  0
 18 42  1  0
 19 43  1  0
 24 44  1  0
 24 45  1  0
 25 46  1  0
 25 47  1  0
 27 48  1  0
 27 49  1  0
M  END
$$$$
OCNT-2309065
     RDKit          3D

 51 54  0  0  0  0  0  0  0  0999 V2000
   -7.0708    0.6952    2.6193 C   0  0  0  0  0  0  0  0  0  0  0  0
   -5.9652   -0.2922    2.6301 C   0  0  0  0  0  0  0  0  0  0  0  0
   -5.9906   -1.3083    3.4981 N   0  0  0  0  0  0  0  0  0  0  0  0
   -4.8414   -2.0325    3.2649 O   0  0  0  0  0  0  0  0  0  0  0  0
   -4.1334   -1.4563    2.2591 C   0  0  0  0  0  0  0  0  0  0  0  0
   -2.8658   -2.1253    1.9038 C   0  0  0  0  0  0  0  0  0  0  0  0
   -4.8006   -0.3328    1.8081 C   0  0  0  0  0  0  0  0  0  0  0  0
   -4.4228    0.6272    0.7170 C   0  0  0  0  0  0  0  0  0  0  0  0
   -4.6244    0.0125   -0.6704 C   0  0  0  0  0  0  0  0  0  0  0  0
   -3.0330    1.1508    0.8774 C   0  0  0  0  0  0  0  0  0  0  0  0
   -1.8911    0.6868    0.4164 N   0  0  0  0  0  0  0  0  0  0  0  0
   -0.9922    1.5989    0.9060 C   0  0  0  0  0  0  0  0  0  0  0  0
    0.4651    1.4966    0.6495 C   0  0  0  0  0  0  0  0  0  0  0  0
    0.8793    2.2749   -0.6015 C   0  0  0  0  0  0  0  0  0  0  0  0
    2.3865    2.2154   -0.8338 C   0  0  0  0  0  0  0  0  0  0  0  0
    2.7591    0.8554   -1.0414 O   0  0  0  0  0  0  0  0  0  0  0  0
    4.0943    0.5682   -1.1965 C   0  0  0  0  0  0  0  0  0  0  0  0
    5.1000    1.5381   -1.2678 C   0  0  0  0  0  0  0  0  0  0  0  0
    6.4323    1.1604   -1.4256 C   0  0  0  0  0  0  0  0  0  0  0  0
    6.7716   -0.1874   -1.5160 C   0  0  0  0  0  0  0  0  0  0  0  0
    5.7843   -1.1803   -1.4524 C   0  0  0  0  0  0  0  0  0  0  0  0
    6.1308   -2.5389   -1.5465 C   0  0  0  0  0  0  0  0  0  0  0  0
    5.1553   -3.5337   -1.4855 C   0  0  0  0  0  0  0  0  0  0  0  0
    3.8200   -3.1834   -1.3299 C   0  0  0  0  0  0  0  0  0  0  0  0
    3.4609   -1.8374   -1.2346 C   0  0  0  0  0  0  0  0  0  0  0  0
    4.4269   -0.8082   -1.2925 C   0  0  0  0  0  0  0  0  0  0  0  0
   -1.5298    2.5935    1.6234 N   0  0  0  0  0  0  0  0  0  0  0  0
   -2.8931    2.2954    1.6107 O   0  0  0  0  0  0  0  0  0  0  0  0
   -6.6949    1.6880    2.8869 H   0  0  0  0  0  0  0  0  0  0  0  0
   -7.5223    0.7527    1.6236 H   0  0  0  0  0  0  0  0  0  0  0  0
   -7.8589    0.4293    3.3316 H   0  0  0  0  0  0  0  0  0  0  0  0
   -2.0174   -1.5910    2.3418 H   0  0  0  0  0  0  0  0  0  0  0  0
   -2.8448   -3.1550    2.2750 H   0  0  0  0  0  0  0  0  0  0  0  0
   -2.7316   -2.1611    0.8189 H   0  0  0  0  0  0  0  0  0  0  0  0
   -5.0978    1.4923    0.7739 H   0  0  0  0  0  0  0  0  0  0  0  0
   -3.9778   -0.8570   -0.8326 H   0  0  0  0  0  0  0  0  0  0  0  0
   -5.6607   -0.3178   -0.8044 H   0  0  0  0  0  0  0  0  0  0  0  0
   -4.3993    0.7410   -1.4574 H   0  0  0  0  0  0  0  0  0  0  0  0
    1.0169    1.8710    1.5206 H   0  0  0  0  0  0  0  0  0  0  0  0
    0.7305    0.4381    0.5418 H   0  0  0  0  0  0  0  0  0  0  0  0
    0.3598    1.8544   -1.4722 H   0  0  0  0  0  0  0  0  0  0  0  0
    0.5704    3.3236   -0.5139 H   0  0  0  0  0  0  0  0  0  0  0  0
    2.9062    2.6284    0.0393 H   0  0  0  0  0  0  0  0  0  0  0  0
    2.6280    2.8073   -1.7245 H   0  0  0  0  0  0  0  0  0  0  0  0
    4.8809    2.5985   -1.2078 H   0  0  0  0  0  0  0  0  0  0  0  0
    7.2093    1.9189   -1.4800 H   0  0  0  0  0  0  0  0  0  0  0  0
    7.8181   -0.4584   -1.6390 H   0  0  0  0  0  0  0  0  0  0  0  0
    7.1707   -2.8338   -1.6692 H   0  0  0  0  0  0  0  0  0  0  0  0
    5.4395   -4.5799   -1.5601 H   0  0  0  0  0  0  0  0  0  0  0  0
    3.0546   -3.9532   -1.2826 H   0  0  0  0  0  0  0  0  0  0  0  0
    2.4083   -1.5886   -1.1144 H   0  0  0  0  0  0  0  0  0  0  0  0
  1  2  1  0
  2  3  2  0
  3  4  1  0
  4  5  1  0
  5  6  1  0
  5  7  2  0
  7  8  1  0
  8  9  1  0
  8 10  1  0
 10 11  2  0
 11 12  1  0
 12 13  1  0
 13 14  1  0
 14 15  1  0
 15 16  1  0
 16 17  1  0
 17 18  2  0
 18 19  1  0
 19 20  2  0
 20 21  1  0
 21 22  2  0
 22 23  1  0
 23 24  2  0
 24 25  1  0
 25 26  2  0
 12 27  2  0
 27 28  1  0
  7  2  1  0
 28 10  1  0
 26 17  1  0
 26 21  1  0
  1 29  1  0
  1 30  1  0
  1 31  1  0
  6 32  1  0
  6 33  1  0
  6 34  1  0
  8 35  1  0
  9 36  1  0
  9 37  1  0
  9 38  1  0
 13 39  1  0
 13 40  1  0
 14 41  1  0
 14 42  1  0
 15 43  1  0
 15 44  1  0
 18 45  1  0
 19 46  1  0
 20 47  1  0
 22 48  1  0
 23 49  1  0
 24 50  1  0
 25 51  1  0
M  END
$$$$
OCNT-2309084
     RDKit          3D

 40 44  0  0  0  0  0  0  0  0999 V2000
   -1.1412    3.4839   -0.7160 N   0  0  0  0  0  0  0  0  0  0  0  0
   -1.5324    2.5720   -0.1148 C   0  0  0  0  0  0  0  0  0  0  0  0
   -1.9693    1.4612    0.6556 C   0  0  0  0  0  0  0  0  0  0  0  0
   -1.4223    0.9989    1.8292 C   0  0  0  0  0  0  0  0  0  0  0  0
   -0.2683    1.5366    2.5509 N   0  0  0  0  0  0  0  0  0  0  0  0
    0.8499    0.4105    3.1405 S   0  0  0  0  0  0  0  0  0  0  0  0
    1.9769    1.1460    3.6648 O   0  0  0  0  0  0  0  0  0  0  0  0
    0.1051   -0.5338    3.9505 O   0  0  0  0  0  0  0  0  0  0  0  0
    1.3753   -0.4286    1.6607 C   0  0  0  0  0  0  0  0  0  0  0  0
    1.0480   -1.8055    1.5135 C   0  0  0  0  0  0  0  0  0  0  0  0
    1.3770   -2.5091    0.3444 C   0  0  0  0  0  0  0  0  0  0  0  0
    2.0270   -1.8121   -0.6460 C   0  0  0  0  0  0  0  0  0  0  0  0
    2.4618   -2.2368   -1.8970 N   0  0  0  0  0  0  0  0  0  0  0  0
    3.0702   -1.1787   -2.5546 C   0  0  0  0  0  0  0  0  0  0  0  0
    3.5672   -1.1686   -3.6613 O   0  0  0  0  0  0  0  0  0  0  0  0
    2.9881   -0.0389   -1.6154 C   0  0  0  0  0  0  0  0  0  0  0  0
    2.3484   -0.4890   -0.4879 C   0  0  0  0  0  0  0  0  0  0  0  0
    2.0700    0.2820    0.6380 C   0  0  0  0  0  0  0  0  0  0  0  0
    2.5288    1.6285    0.5440 C   0  0  0  0  0  0  0  0  0  0  0  0
    3.1877    2.1037   -0.6166 C   0  0  0  0  0  0  0  0  0  0  0  0
    3.4208    1.2653   -1.7150 C   0  0  0  0  0  0  0  0  0  0  0  0
   -2.1868   -0.0761    2.2076 N   0  0  0  0  0  0  0  0  0  0  0  0
   -3.1579   -0.3734    1.3254 N   0  0  0  0  0  0  0  0  0  0  0  0
   -3.0237    0.5680    0.3859 C   0  0  0  0  0  0  0  0  0  0  0  0
   -3.9539    0.6436   -0.8565 C   0  0  0  0  0  0  0  0  0  0  0  0
   -4.2965   -0.6229   -1.5988 C   0  0  0  0  0  0  0  0  0  0  0  0
   -3.3770    0.3834   -2.2252 C   0  0  0  0  0  0  0  0  0  0  0  0
    0.1399    2.4322    2.2789 H   0  0  0  0  0  0  0  0  0  0  0  0
    0.5271   -2.3365    2.3097 H   0  0  0  0  0  0  0  0  0  0  0  0
    1.1212   -3.5571    0.2325 H   0  0  0  0  0  0  0  0  0  0  0  0
    2.3666   -3.1607   -2.2909 H   0  0  0  0  0  0  0  0  0  0  0  0
    2.4021    2.3218    1.3725 H   0  0  0  0  0  0  0  0  0  0  0  0
    3.5244    3.1389   -0.6532 H   0  0  0  0  0  0  0  0  0  0  0  0
    3.9261    1.6212   -2.6068 H   0  0  0  0  0  0  0  0  0  0  0  0
   -2.0802   -0.6460    3.0438 H   0  0  0  0  0  0  0  0  0  0  0  0
   -4.7406    1.3872   -0.7768 H   0  0  0  0  0  0  0  0  0  0  0  0
   -5.3004   -0.7176   -1.9959 H   0  0  0  0  0  0  0  0  0  0  0  0
   -3.8721   -1.5572   -1.2480 H   0  0  0  0  0  0  0  0  0  0  0  0
   -2.3309    0.1144   -2.3178 H   0  0  0  0  0  0  0  0  0  0  0  0
   -3.7558    0.9714   -3.0537 H   0  0  0  0  0  0  0  0  0  0  0  0
  1  2  3  0
  2  3  1  0
  3  4  2  0
  4  5  1  0
  5  6  1  0
  6  7  2  0
  6  8  2  0
  6  9  1  0
  9 10  2  0
 10 11  1  0
 11 12  2  0
 12 13  1  0
 13 14  1  0
 14 15  2  0
 14 16  1  0
 16 17  2  0
 17 18  1  0
 18 19  2  0
 19 20  1  0
 20 21  2  0
  4 22  1  0
 22 23  1  0
 23 24  2  0
 24 25  1  0
 25 26  1  0
 26 27  1  0
 24  3  1  0
 27 25  1  0
 18  9  1  0
 17 12  1  0
 21 16  1  0
  5 28  1  0
 10 29  1  0
 11 30  1  0
 13 31  1  0
 19 32  1  0
 20 33  1  0
 21 34  1  0
 22 35  1  0
 25 36  1  0
 26 37  1  0
 26 38  1  0
 27 39  1  0
 27 40  1  0
M  END
$$$$
OCNT-2309101
     RDKit          3D

 41 43  0  0  0  0  0  0  0  0999 V2000
    5.0268    2.7214   -1.1692 C   0  0  0  0  0  0  0  0  0  0  0  0
    4.6853    1.5501   -0.2992 C   0  0  0  0  0  0  0  0  0  0  0  0
    5.6641    0.9470    0.4789 C   0  0  0  0  0  0  0  0  0  0  0  0
    5.3034   -0.1309    1.2762 C   0  0  0  0  0  0  0  0  0  0  0  0
    3.9813   -0.5679    1.2723 C   0  0  0  0  0  0  0  0  0  0  0  0
    3.0538    0.0897    0.4687 C   0  0  0  0  0  0  0  0  0  0  0  0
    1.7335   -0.3792    0.4999 N   0  0  0  0  0  0  0  0  0  0  0  0
    0.6708    0.1495   -0.2141 C   0  0  0  0  0  0  0  0  0  0  0  0
    0.7021    1.1011   -0.9845 O   0  0  0  0  0  0  0  0  0  0  0  0
   -0.6253   -0.6227    0.0482 C   0  0  0  0  0  0  0  0  0  0  0  0
   -0.5680   -2.0291   -0.5825 C   0  0  0  0  0  0  0  0  0  0  0  0
   -1.4267   -2.1069   -1.8403 C   0  0  0  0  0  0  0  0  0  0  0  0
   -2.8786   -1.6883   -1.5693 C   0  0  0  0  0  0  0  0  0  0  0  0
   -3.0204   -0.7082   -0.4776 N   0  0  0  0  0  0  0  0  0  0  0  0
   -4.2818    0.0408   -0.6223 C   0  0  0  0  0  0  0  0  0  0  0  0
   -4.6598    0.6944    0.6704 C   0  0  0  0  0  0  0  0  0  0  0  0
   -4.7897    0.0812    1.9076 C   0  0  0  0  0  0  0  0  0  0  0  0
   -5.2485    1.2865    3.0339 S   0  0  0  0  0  0  0  0  0  0  0  0
   -5.2657    2.4943    1.8783 N   0  0  0  0  0  0  0  0  0  0  0  0
   -4.9394    2.0579    0.6731 N   0  0  0  0  0  0  0  0  0  0  0  0
   -1.8474    0.1825   -0.4319 C   0  0  0  0  0  0  0  0  0  0  0  0
    3.3989    1.1308   -0.3062 N   0  0  0  0  0  0  0  0  0  0  0  0
    5.8318    2.4552   -1.8618 H   0  0  0  0  0  0  0  0  0  0  0  0
    5.3477    3.5665   -0.5520 H   0  0  0  0  0  0  0  0  0  0  0  0
    4.1589    3.0352   -1.7590 H   0  0  0  0  0  0  0  0  0  0  0  0
    6.6870    1.3083    0.4676 H   0  0  0  0  0  0  0  0  0  0  0  0
    6.0440   -0.6249    1.8985 H   0  0  0  0  0  0  0  0  0  0  0  0
    3.6956   -1.4072    1.8961 H   0  0  0  0  0  0  0  0  0  0  0  0
    1.5491   -1.1650    1.1044 H   0  0  0  0  0  0  0  0  0  0  0  0
   -0.7068   -0.7429    1.1383 H   0  0  0  0  0  0  0  0  0  0  0  0
    0.4567   -2.3338   -0.8224 H   0  0  0  0  0  0  0  0  0  0  0  0
   -0.9459   -2.7592    0.1446 H   0  0  0  0  0  0  0  0  0  0  0  0
   -1.4061   -3.1241   -2.2481 H   0  0  0  0  0  0  0  0  0  0  0  0
   -0.9936   -1.4504   -2.6054 H   0  0  0  0  0  0  0  0  0  0  0  0
   -3.4600   -2.5779   -1.2985 H   0  0  0  0  0  0  0  0  0  0  0  0
   -3.2973   -1.3073   -2.5098 H   0  0  0  0  0  0  0  0  0  0  0  0
   -5.0980   -0.6477   -0.8781 H   0  0  0  0  0  0  0  0  0  0  0  0
   -4.2167    0.7792   -1.4309 H   0  0  0  0  0  0  0  0  0  0  0  0
   -4.6314   -0.9525    2.1759 H   0  0  0  0  0  0  0  0  0  0  0  0
   -1.9997    1.0052    0.2781 H   0  0  0  0  0  0  0  0  0  0  0  0
   -1.6841    0.6494   -1.4123 H   0  0  0  0  0  0  0  0  0  0  0  0
  1  2  1  0
  2  3  2  0
  3  4  1  0
  4  5  2  0
  5  6  1  0
  6  7  1  0
  7  8  1  0
  8  9  2  0
  8 10  1  0
 10 11  1  0
 11 12  1  0
 12 13  1  0
 13 14  1  0
 14 15  1  0
 15 16  1  0
 16 17  2  0
 17 18  1  0
 18 19  1  0
 19 20  2  0
 14 21  1  0
  6 22  2  0
 22  2  1  0
 21 10  1  0
 20 16  1  0
  1 23  1  0
  1 24  1  0
  1 25  1  0
  3 26  1  0
  4 27  1  0
  5 28  1  0
  7 29  1  0
 10 30  1  0
 11 31  1  0
 11 32  1  0
 12 33  1  0
 12 34  1  0
 13 35  1  0
 13 36  1  0
 15 37  1  0
 15 38  1  0
 17 39  1  0
 21 40  1  0
 21 41  1  0
M  END
$$$$
OCNT-2309109
     RDKit          3D

 42 44  0  0  0  0  0  0  0  0999 V2000
   -3.0970   -0.6433    2.1700 C   0  0  0  0  0  0  0  0  0  0  0  0
   -2.5125    0.2779    1.2575 O   0  0  0  0  0  0  0  0  0  0  0  0
   -3.0587    0.3547    0.0018 C   0  0  0  0  0  0  0  0  0  0  0  0
   -4.2035   -0.3398   -0.4070 C   0  0  0  0  0  0  0  0  0  0  0  0
   -4.6850   -0.2114   -1.7122 C   0  0  0  0  0  0  0  0  0  0  0  0
   -4.0262    0.6074   -2.6225 C   0  0  0  0  0  0  0  0  0  0  0  0
   -2.8881    1.3060   -2.2260 C   0  0  0  0  0  0  0  0  0  0  0  0
   -2.3969    1.2001   -0.9107 C   0  0  0  0  0  0  0  0  0  0  0  0
   -1.1493    1.9668   -0.5102 C   0  0  2  0  0  0  0  0  0  0  0  0
   -1.2163    3.3067   -1.0229 O   0  0  0  0  0  0  0  0  0  0  0  0
    0.1661    1.3120   -1.0025 C   0  0  0  0  0  0  0  0  0  0  0  0
    0.4000   -0.0323   -0.4648 N   0  0  0  0  0  0  0  0  0  0  0  0
    1.7648   -0.4959   -0.6474 C   0  0  0  0  0  0  0  0  0  0  0  0
    1.7824   -2.0394   -0.7164 C   0  0  0  0  0  0  0  0  0  0  0  0
    3.1844   -2.4694   -0.2696 C   0  0  0  0  0  0  0  0  0  0  0  0
    3.5010   -1.3971    0.7273 C   0  0  0  0  0  0  0  0  0  0  0  0
    4.4716   -1.4219    1.7157 C   0  0  0  0  0  0  0  0  0  0  0  0
    4.6123   -0.2952    2.5224 C   0  0  0  0  0  0  0  0  0  0  0  0
    5.5445   -0.3124    3.4874 F   0  0  0  0  0  0  0  0  0  0  0  0
    3.8059    0.8357    2.3333 C   0  0  0  0  0  0  0  0  0  0  0  0
    4.0003    2.2214    3.3392 Cl  0  0  0  0  0  0  0  0  0  0  0  0
    2.8388    0.8578    1.3239 C   0  0  0  0  0  0  0  0  0  0  0  0
    2.6876   -0.2692    0.5257 C   0  0  0  0  0  0  0  0  0  0  0  0
   -4.1241   -0.3551    2.4155 H   0  0  0  0  0  0  0  0  0  0  0  0
   -3.0516   -1.6668    1.7835 H   0  0  0  0  0  0  0  0  0  0  0  0
   -2.5135   -0.6119    3.0950 H   0  0  0  0  0  0  0  0  0  0  0  0
   -4.7465   -0.9947    0.2660 H   0  0  0  0  0  0  0  0  0  0  0  0
   -5.5728   -0.7587   -2.0189 H   0  0  0  0  0  0  0  0  0  0  0  0
   -4.3940    0.6994   -3.6411 H   0  0  0  0  0  0  0  0  0  0  0  0
   -2.3744    1.9366   -2.9497 H   0  0  0  0  0  0  0  0  0  0  0  0
   -1.1007    2.0826    0.5783 H   0  0  0  0  0  0  0  0  0  0  0  0
   -2.1275    3.6104   -0.8653 H   0  0  0  0  0  0  0  0  0  0  0  0
    0.1626    1.2647   -2.0991 H   0  0  0  0  0  0  0  0  0  0  0  0
    0.9877    1.9886   -0.7382 H   0  0  0  0  0  0  0  0  0  0  0  0
    0.1214   -0.0903    0.5142 H   0  0  0  0  0  0  0  0  0  0  0  0
    2.2242   -0.0936   -1.5597 H   0  0  0  0  0  0  0  0  0  0  0  0
    1.5335   -2.4141   -1.7150 H   0  0  0  0  0  0  0  0  0  0  0  0
    1.0452   -2.4671   -0.0200 H   0  0  0  0  0  0  0  0  0  0  0  0
    3.8969   -2.4360   -1.1000 H   0  0  0  0  0  0  0  0  0  0  0  0
    3.1729   -3.4672    0.1775 H   0  0  0  0  0  0  0  0  0  0  0  0
    5.1089   -2.2853    1.8701 H   0  0  0  0  0  0  0  0  0  0  0  0
    2.2256    1.7394    1.1730 H   0  0  0  0  0  0  0  0  0  0  0  0
  1  2  1  0
  2  3  1  0
  3  4  2  0
  4  5  1  0
  5  6  2  0
  6  7  1  0
  7  8  2  0
  8  9  1  0
  9 10  1  0
  9 11  1  0
 11 12  1  0
 12 13  1  0
 13 14  1  0
 14 15  1  0
 15 16  1  0
 16 17  1  0
 17 18  2  0
 18 19  1  0
 18 20  1  0
 20 21  1  0
 20 22  2  0
 22 23  1  0
  8  3  1  0
 23 13  1  0
 23 16  2  0
  1 24  1  0
  1 25  1  0
  1 26  1  0
  4 27  1  0
  5 28  1  0
  6 29  1  0
  7 30  1  0
  9 31  1  1
 10 32  1  0
 11 33  1  0
 11 34  1  0
 12 35  1  0
 13 36  1  0
 14 37  1  0
 14 38  1  0
 15 39  1  0
 15 40  1  0
 17 41  1  0
 22 42  1  0
M  END
$$$$
OCNT-2309135
     RDKit          3D

 45 47  0  0  0  0  0  0  0  0999 V2000
    3.8469   -0.7939    2.5531 O   0  0  0  0  0  0  0  0  0  0  0  0
    3.6729   -0.4173    1.3925 C   0  0  0  0  0  0  0  0  0  0  0  0
    4.8074   -0.1245    0.5285 C   0  0  0  0  0  0  0  0  0  0  0  0
    5.9480   -0.8898    0.3699 C   0  0  0  0  0  0  0  0  0  0  0  0
    6.8928   -0.2860   -0.5092 C   0  0  0  0  0  0  0  0  0  0  0  0
    6.4614    0.9408   -0.9614 C   0  0  0  0  0  0  0  0  0  0  0  0
    4.9362    1.3636   -0.3131 S   0  0  0  0  0  0  0  0  0  0  0  0
    2.3749   -0.2948    0.8766 N   0  0  0  0  0  0  0  0  0  0  0  0
    1.2582   -0.4583    1.8022 C   0  0  0  0  0  0  0  0  0  0  0  0
   -0.0242    0.1641    1.2593 C   0  0  0  0  0  0  0  0  0  0  0  0
   -0.4416   -0.4282   -0.1010 C   0  0  0  0  0  0  0  0  0  0  0  0
   -1.5595   -1.4836    0.0027 C   0  0  0  0  0  0  0  0  0  0  0  0
   -2.9082   -1.0506    0.6104 C   0  0  0  0  0  0  0  0  0  0  0  0
   -3.7117   -0.0171   -0.0415 N   0  0  0  0  0  0  0  0  0  0  0  0
   -3.8021   -0.1315   -1.5038 C   0  0  0  0  0  0  0  0  0  0  0  0
   -4.7739    0.9118   -2.0797 C   0  0  0  0  0  0  0  0  0  0  0  0
   -4.3882    2.2421   -1.7060 O   0  0  0  0  0  0  0  0  0  0  0  0
   -4.3676    2.3615   -0.2764 C   0  0  0  0  0  0  0  0  0  0  0  0
   -3.3840    1.3599    0.3531 C   0  0  0  0  0  0  0  0  0  0  0  0
    0.7662   -1.0370   -0.8453 C   0  0  0  0  0  0  0  0  0  0  0  0
    2.0578   -0.2787   -0.5531 C   0  0  0  0  0  0  0  0  0  0  0  0
    6.0893   -1.8440    0.8648 H   0  0  0  0  0  0  0  0  0  0  0  0
    7.8459   -0.7222   -0.7824 H   0  0  0  0  0  0  0  0  0  0  0  0
    6.9772    1.6207   -1.6259 H   0  0  0  0  0  0  0  0  0  0  0  0
    1.5146    0.0021    2.7633 H   0  0  0  0  0  0  0  0  0  0  0  0
    1.1232   -1.5323    1.9787 H   0  0  0  0  0  0  0  0  0  0  0  0
   -0.8177    0.0780    2.0062 H   0  0  0  0  0  0  0  0  0  0  0  0
    0.1484    1.2406    1.1245 H   0  0  0  0  0  0  0  0  0  0  0  0
   -0.8066    0.3963   -0.7227 H   0  0  0  0  0  0  0  0  0  0  0  0
   -1.7429   -1.9050   -0.9944 H   0  0  0  0  0  0  0  0  0  0  0  0
   -1.1884   -2.3224    0.6078 H   0  0  0  0  0  0  0  0  0  0  0  0
   -2.7813   -0.8061    1.6716 H   0  0  0  0  0  0  0  0  0  0  0  0
   -3.5345   -1.9536    0.6247 H   0  0  0  0  0  0  0  0  0  0  0  0
   -4.1520   -1.1311   -1.7849 H   0  0  0  0  0  0  0  0  0  0  0  0
   -2.8181    0.0273   -1.9601 H   0  0  0  0  0  0  0  0  0  0  0  0
   -5.8017    0.7257   -1.7453 H   0  0  0  0  0  0  0  0  0  0  0  0
   -4.7663    0.8606   -3.1731 H   0  0  0  0  0  0  0  0  0  0  0  0
   -4.0598    3.3840   -0.0349 H   0  0  0  0  0  0  0  0  0  0  0  0
   -5.3832    2.2195    0.1128 H   0  0  0  0  0  0  0  0  0  0  0  0
   -3.4309    1.4642    1.4430 H   0  0  0  0  0  0  0  0  0  0  0  0
   -2.3735    1.6271    0.0327 H   0  0  0  0  0  0  0  0  0  0  0  0
    0.5693   -1.0354   -1.9241 H   0  0  0  0  0  0  0  0  0  0  0  0
    0.9011   -2.0868   -0.5527 H   0  0  0  0  0  0  0  0  0  0  0  0
    1.9530    0.7687   -0.8575 H   0  0  0  0  0  0  0  0  0  0  0  0
    2.8733   -0.7281   -1.1277 H   0  0  0  0  0  0  0  0  0  0  0  0
  1  2  2  0
  2  3  1  0
  3  4  2  0
  4  5  1  0
  5  6  2  0
  6  7  1  0
  2  8  1  0
  8  9  1  0
  9 10  1  0
 10 11  1  0
 11 12  1  0
 12 13  1  0
 13 14  1  0
 14 15  1  0
 15 16  1  0
 16 17  1  0
 17 18  1  0
 18 19  1  0
 11 20  1  0
 20 21  1  0
  7  3  1  0
 21  8  1  0
 19 14  1  0
  4 22  1  0
  5 23  1  0
  6 24  1  0
  9 25  1  0
  9 26  1  0
 10 27  1  0
 10 28  1  0
 11 29  1  0
 12 30  1  0
 12 31  1  0
 13 32  1  0
 13 33  1  0
 15 34  1  0
 15 35  1  0
 16 36  1  0
 16 37  1  0
 18 38  1  0
 18 39  1  0
 19 40  1  0
 19 41  1  0
 20 42  1  0
 20 43  1  0
 21 44  1  0
 21 45  1  0
M  END
$$$$
OCNT-2309139
     RDKit          3D

 42 45  0  0  0  0  0  0  0  0999 V2000
   -3.3143    2.0112    2.0104 C   0  0  0  0  0  0  0  0  0  0  0  0
   -3.3638    0.9368    0.9833 C   0  0  0  0  0  0  0  0  0  0  0  0
   -2.5991    0.6965   -0.1574 C   0  0  0  0  0  0  0  0  0  0  0  0
   -1.4481    1.4587   -0.6422 C   0  0  0  0  0  0  0  0  0  0  0  0
   -1.1789    1.5701   -1.8343 O   0  0  0  0  0  0  0  0  0  0  0  0
   -0.6547    1.9958    0.3483 N   0  0  0  0  0  0  0  0  0  0  0  0
    0.5974    2.6404    0.0384 C   0  0  0  0  0  0  0  0  0  0  0  0
    1.7431    1.6738    0.1117 C   0  0  0  0  0  0  0  0  0  0  0  0
    2.4796    1.4928    1.2840 C   0  0  0  0  0  0  0  0  0  0  0  0
    3.5275    0.5711    1.3150 C   0  0  0  0  0  0  0  0  0  0  0  0
    3.8109   -0.1569    0.1627 C   0  0  0  0  0  0  0  0  0  0  0  0
    4.8707   -1.1045    0.1499 N   0  0  0  0  0  0  0  0  0  0  0  0
    5.7382   -1.4522    1.1631 C   0  0  0  0  0  0  0  0  0  0  0  0
    6.5697   -2.4112    0.6320 C   0  0  0  0  0  0  0  0  0  0  0  0
    6.2487   -2.6689   -0.6702 N   0  0  0  0  0  0  0  0  0  0  0  0
    5.2314   -1.8765   -0.9327 C   0  0  0  0  0  0  0  0  0  0  0  0
    3.1028   -0.0035   -0.9850 N   0  0  0  0  0  0  0  0  0  0  0  0
    2.0902    0.8943   -0.9847 C   0  0  0  0  0  0  0  0  0  0  0  0
   -3.1789   -0.4451   -0.8108 C   0  0  0  0  0  0  0  0  0  0  0  0
   -2.8817   -1.1556   -1.9940 C   0  0  0  0  0  0  0  0  0  0  0  0
   -3.6553   -2.2663   -2.3493 C   0  0  0  0  0  0  0  0  0  0  0  0
   -4.7144   -2.6778   -1.5452 C   0  0  0  0  0  0  0  0  0  0  0  0
   -5.0308   -1.9938   -0.3682 C   0  0  0  0  0  0  0  0  0  0  0  0
   -4.2453   -0.8849   -0.0297 C   0  0  0  0  0  0  0  0  0  0  0  0
   -4.3311   -0.0384    1.0470 N   0  0  0  0  0  0  0  0  0  0  0  0
   -2.5755    1.7687    2.7804 H   0  0  0  0  0  0  0  0  0  0  0  0
   -3.0483    2.9721    1.5589 H   0  0  0  0  0  0  0  0  0  0  0  0
   -4.2853    2.1375    2.5010 H   0  0  0  0  0  0  0  0  0  0  0  0
   -0.7972    1.6533    1.2868 H   0  0  0  0  0  0  0  0  0  0  0  0
    0.5550    3.1107   -0.9507 H   0  0  0  0  0  0  0  0  0  0  0  0
    0.7361    3.4453    0.7690 H   0  0  0  0  0  0  0  0  0  0  0  0
    2.2467    2.0669    2.1777 H   0  0  0  0  0  0  0  0  0  0  0  0
    4.0872    0.4504    2.2347 H   0  0  0  0  0  0  0  0  0  0  0  0
    5.7081   -1.0145    2.1482 H   0  0  0  0  0  0  0  0  0  0  0  0
    7.3841   -2.9291    1.1226 H   0  0  0  0  0  0  0  0  0  0  0  0
    4.7121   -1.8121   -1.8807 H   0  0  0  0  0  0  0  0  0  0  0  0
    1.5446    0.9679   -1.9241 H   0  0  0  0  0  0  0  0  0  0  0  0
   -2.0584   -0.8412   -2.6307 H   0  0  0  0  0  0  0  0  0  0  0  0
   -3.4242   -2.8090   -3.2626 H   0  0  0  0  0  0  0  0  0  0  0  0
   -5.3051   -3.5428   -1.8377 H   0  0  0  0  0  0  0  0  0  0  0  0
   -5.8585   -2.3163    0.2548 H   0  0  0  0  0  0  0  0  0  0  0  0
   -5.0352   -0.1137    1.7681 H   0  0  0  0  0  0  0  0  0  0  0  0
  1  2  1  0
  2  3  2  0
  3  4  1  0
  4  5  2  0
  4  6  1  0
  6  7  1  0
  7  8  1  0
  8  9  2  0
  9 10  1  0
 10 11  2  0
 11 12  1  0
 12 13  1  0
 13 14  2  0
 14 15  1  0
 15 16  2  0
 11 17  1  0
 17 18  2  0
  3 19  1  0
 19 20  2  0
 20 21  1  0
 21 22  2  0
 22 23  1  0
 23 24  2  0
 24 25  1  0
 25  2  1  0
 18  8  1  0
 24 19  1  0
 16 12  1  0
  1 26  1  0
  1 27  1  0
  1 28  1  0
  6 29  1  0
  7 30  1  0
  7 31  1  0
  9 32  1  0
 10 33  1  0
 13 34  1  0
 14 35  1  0
 16 36  1  0
 18 37  1  0
 20 38  1  0
 21 39  1  0
 22 40  1  0
 23 41  1  0
 25 42  1  0
M  END
$$$$
OCNT-2309149
     RDKit          3D

 36 38  0  0  0  0  0  0  0  0999 V2000
   -6.9428   -1.5969   -0.7529 F   0  0  0  0  0  0  0  0  0  0  0  0
   -5.6938   -1.2474   -0.4208 C   0  0  0  0  0  0  0  0  0  0  0  0
   -5.0456   -1.9182    0.6079 C   0  0  0  0  0  0  0  0  0  0  0  0
   -3.7429   -1.5516    0.9517 C   0  0  0  0  0  0  0  0  0  0  0  0
   -3.0858   -0.5164    0.2724 C   0  0  0  0  0  0  0  0  0  0  0  0
   -1.8194   -0.2849    0.7295 O   0  0  0  0  0  0  0  0  0  0  0  0
   -1.0328    0.7767    0.1691 C   0  0  0  0  0  0  0  0  0  0  0  0
   -0.0305    1.2065    1.2521 C   0  0  0  0  0  0  0  0  0  0  0  0
    1.2903    0.4535    1.1319 C   0  0  0  0  0  0  0  0  0  0  0  0
    1.8861    0.7036   -0.1739 N   0  0  0  0  0  0  0  0  0  0  0  0
    3.1973    0.4648   -0.3967 C   0  0  0  0  0  0  0  0  0  0  0  0
    3.9012    0.5545   -1.5074 N   0  0  0  0  0  0  0  0  0  0  0  0
    5.1978    0.2026   -1.1972 N   0  0  0  0  0  0  0  0  0  0  0  0
    5.2001   -0.0783    0.0900 C   0  0  0  0  0  0  0  0  0  0  0  0
    6.3155   -0.5099    0.9584 C   0  0  0  0  0  0  0  0  0  0  0  0
    6.5224    0.3610    1.9862 F   0  0  0  0  0  0  0  0  0  0  0  0
    6.0678   -1.7196    1.5356 F   0  0  0  0  0  0  0  0  0  0  0  0
    3.9647    0.0651    0.6648 O   0  0  0  0  0  0  0  0  0  0  0  0
    1.0132    0.9601   -1.3131 C   0  0  0  0  0  0  0  0  0  0  0  0
   -0.3324    0.2788   -1.1022 C   0  0  0  0  0  0  0  0  0  0  0  0
   -3.7641    0.1388   -0.7605 C   0  0  0  0  0  0  0  0  0  0  0  0
   -3.1978    1.1313   -1.4603 F   0  0  0  0  0  0  0  0  0  0  0  0
   -5.0642   -0.2214   -1.1094 C   0  0  0  0  0  0  0  0  0  0  0  0
   -5.5539   -2.7198    1.1347 H   0  0  0  0  0  0  0  0  0  0  0  0
   -3.2331   -2.0765    1.7570 H   0  0  0  0  0  0  0  0  0  0  0  0
   -1.6553    1.6565   -0.0266 H   0  0  0  0  0  0  0  0  0  0  0  0
   -0.4513    1.0563    2.2533 H   0  0  0  0  0  0  0  0  0  0  0  0
    0.1714    2.2804    1.1427 H   0  0  0  0  0  0  0  0  0  0  0  0
    1.9522    0.7999    1.9351 H   0  0  0  0  0  0  0  0  0  0  0  0
    1.1318   -0.6227    1.2730 H   0  0  0  0  0  0  0  0  0  0  0  0
    7.2479   -0.5911    0.3933 H   0  0  0  0  0  0  0  0  0  0  0  0
    0.8773    2.0420   -1.4307 H   0  0  0  0  0  0  0  0  0  0  0  0
    1.4452    0.5851   -2.2491 H   0  0  0  0  0  0  0  0  0  0  0  0
   -0.1886   -0.8090   -1.0501 H   0  0  0  0  0  0  0  0  0  0  0  0
   -0.9701    0.4519   -1.9756 H   0  0  0  0  0  0  0  0  0  0  0  0
   -5.5778    0.2945   -1.9125 H   0  0  0  0  0  0  0  0  0  0  0  0
  1  2  1  0
  2  3  1  0
  3  4  2  0
  4  5  1  0
  5  6  1  0
  6  7  1  0
  7  8  1  0
  8  9  1  0
  9 10  1  0
 10 11  1  0
 11 12  2  0
 12 13  1  0
 13 14  2  0
 14 15  1  0
 15 16  1  0
 15 17  1  0
 14 18  1  0
 10 19  1  0
 19 20  1  0
  5 21  2  0
 21 22  1  0
 21 23  1  0
 23  2  2  0
 20  7  1  0
 18 11  1  0
  3 24  1  0
  4 25  1  0
  7 26  1  0
  8 27  1  0
  8 28  1  0
  9 29  1  0
  9 30  1  0
 15 31  1  0
 19 32  1  0
 19 33  1  0
 20 34  1  0
 20 35  1  0
 23 36  1  0
M  END
$$$$
OCNT-2309157
     RDKit          3D

 48 51  0  0  0  0  0  0  0  0999 V2000
    3.5359    0.0144   -3.3056 C   0  0  0  0  0  0  0  0  0  0  0  0
    2.6682    0.0731   -2.1056 C   0  0  0  0  0  0  0  0  0  0  0  0
    1.3138   -0.1959   -2.0454 C   0  0  0  0  0  0  0  0  0  0  0  0
    0.9175    0.0879   -0.7283 C   0  0  0  0  0  0  0  0  0  0  0  0
   -0.3762   -0.0560   -0.2742 N   0  0  0  0  0  0  0  0  0  0  0  0
   -0.8588    0.4227    0.9221 C   0  0  0  0  0  0  0  0  0  0  0  0
   -0.2627    1.1889    1.6752 O   0  0  0  0  0  0  0  0  0  0  0  0
   -2.1560   -0.0215    1.2322 N   0  0  0  0  0  0  0  0  0  0  0  0
   -2.7533    0.5081    2.4575 C   0  0  0  0  0  0  0  0  0  0  0  0
   -4.2734    0.4083    2.4502 C   0  0  0  0  0  0  0  0  0  0  0  0
   -4.7722   -1.0152    2.2101 C   0  0  0  0  0  0  0  0  0  0  0  0
   -3.6867   -1.9467    1.6740 C   0  0  0  0  0  0  0  0  0  0  0  0
   -2.7343   -1.2598    0.6832 C   0  0  0  0  0  0  0  0  0  0  0  0
   -3.3899   -0.9844   -0.6420 C   0  0  0  0  0  0  0  0  0  0  0  0
   -3.8870    0.1958   -1.1614 C   0  0  0  0  0  0  0  0  0  0  0  0
   -4.3625   -0.0924   -2.4060 N   0  0  0  0  0  0  0  0  0  0  0  0
   -4.1878   -1.3766   -2.7537 N   0  0  0  0  0  0  0  0  0  0  0  0
   -3.6159   -1.9219   -1.6795 C   0  0  0  0  0  0  0  0  0  0  0  0
    1.9544    0.4716    0.0011 N   0  0  0  0  0  0  0  0  0  0  0  0
    3.0398    0.4521   -0.8160 N   0  0  0  0  0  0  0  0  0  0  0  0
    4.3137    0.7980   -0.2569 C   0  0  0  0  0  0  0  0  0  0  0  0
    5.5244    0.6206   -0.9353 C   0  0  0  0  0  0  0  0  0  0  0  0
    6.7368    0.9803   -0.3322 C   0  0  0  0  0  0  0  0  0  0  0  0
    6.7560    1.5144    0.9535 C   0  0  0  0  0  0  0  0  0  0  0  0
    5.5626    1.6854    1.6459 C   0  0  0  0  0  0  0  0  0  0  0  0
    4.3514    1.3271    1.0482 C   0  0  0  0  0  0  0  0  0  0  0  0
    2.9294   -0.1055   -4.2108 H   0  0  0  0  0  0  0  0  0  0  0  0
    4.1081    0.9380   -3.4325 H   0  0  0  0  0  0  0  0  0  0  0  0
    4.2109   -0.8452   -3.2600 H   0  0  0  0  0  0  0  0  0  0  0  0
    0.6921   -0.5239   -2.8667 H   0  0  0  0  0  0  0  0  0  0  0  0
   -1.0523   -0.3161   -0.9713 H   0  0  0  0  0  0  0  0  0  0  0  0
   -2.4629    1.5573    2.5848 H   0  0  0  0  0  0  0  0  0  0  0  0
   -2.3314   -0.0496    3.3026 H   0  0  0  0  0  0  0  0  0  0  0  0
   -4.6715    1.0609    1.6637 H   0  0  0  0  0  0  0  0  0  0  0  0
   -4.6788    0.7884    3.3949 H   0  0  0  0  0  0  0  0  0  0  0  0
   -5.1664   -1.4326    3.1445 H   0  0  0  0  0  0  0  0  0  0  0  0
   -5.6185   -0.9849    1.5129 H   0  0  0  0  0  0  0  0  0  0  0  0
   -4.1516   -2.8337    1.2268 H   0  0  0  0  0  0  0  0  0  0  0  0
   -3.0960   -2.3085    2.5267 H   0  0  0  0  0  0  0  0  0  0  0  0
   -1.9038   -1.9559    0.5021 H   0  0  0  0  0  0  0  0  0  0  0  0
   -3.9408    1.1979   -0.7585 H   0  0  0  0  0  0  0  0  0  0  0  0
   -4.8049    0.5334   -3.0720 H   0  0  0  0  0  0  0  0  0  0  0  0
   -3.3772   -2.9786   -1.6959 H   0  0  0  0  0  0  0  0  0  0  0  0
    5.5880    0.1814   -1.9201 H   0  0  0  0  0  0  0  0  0  0  0  0
    7.6715    0.8344   -0.8685 H   0  0  0  0  0  0  0  0  0  0  0  0
    7.6991    1.7907    1.4172 H   0  0  0  0  0  0  0  0  0  0  0  0
    5.5660    2.0969    2.6519 H   0  0  0  0  0  0  0  0  0  0  0  0
    3.4333    1.4770    1.6173 H   0  0  0  0  0  0  0  0  0  0  0  0
  1  2  1  0
  2  3  2  0
  3  4  1  0
  4  5  1  0
  5  6  1  0
  6  7  2  0
  6  8  1  0
  8  9  1  0
  9 10  1  0
 10 11  1  0
 11 12  1  0
 12 13  1  0
 13 14  1  0
 14 15  2  0
 15 16  1  0
 16 17  1  0
 17 18  2  0
  4 19  2  0
 19 20  1  0
 20 21  1  0
 21 22  2  0
 22 23  1  0
 23 24  2  0
 24 25  1  0
 25 26  2  0
 20  2  1  0
 26 21  1  0
 13  8  1  0
 18 14  1  0
  1 27  1  0
  1 28  1  0
  1 29  1  0
  3 30  1  0
  5 31  1  0
  9 32  1  0
  9 33  1  0
 10 34  1  0
 10 35  1  0
 11 36  1  0
 11 37  1  0
 12 38  1  0
 12 39  1  0
 13 40  1  0
 15 41  1  0
 16 42  1  0
 18 43  1  0
 22 44  1  0
 23 45  1  0
 24 46  1  0
 25 47  1  0
 26 48  1  0
M  END
$$$$
OCNT-2309162
     RDKit          3D

 43 44  0  0  0  0  0  0  0  0999 V2000
   -1.4058    2.0048   -2.6455 C   0  0  0  0  0  0  0  0  0  0  0  0
   -2.0153    0.8387   -1.8610 C   0  0  0  0  0  0  0  0  0  0  0  0
   -3.2793    1.3032   -1.0995 C   0  0  0  0  0  0  0  0  0  0  0  0
   -3.8083    2.4002   -1.2472 O   0  0  0  0  0  0  0  0  0  0  0  0
   -3.8049    0.3283   -0.2647 N   0  0  0  0  0  0  0  0  0  0  0  0
   -4.8431    0.6841    0.7001 C   0  0  0  0  0  0  0  0  0  0  0  0
   -4.3273    1.3408    1.9850 C   0  0  0  0  0  0  0  0  0  0  0  0
   -3.5761    0.4644    2.7001 F   0  0  0  0  0  0  0  0  0  0  0  0
   -3.5621    2.4271    1.7453 F   0  0  0  0  0  0  0  0  0  0  0  0
   -5.3589    1.7294    2.7725 F   0  0  0  0  0  0  0  0  0  0  0  0
   -1.1167    0.1216   -0.9252 N   0  0  0  0  0  0  0  0  0  0  0  0
   -0.5076    0.9415    0.1325 C   0  0  0  0  0  0  0  0  0  0  0  0
    0.9113    0.4054    0.3109 C   0  0  0  0  0  0  0  0  0  0  0  0
    0.9015   -0.9296   -0.4296 C   0  0  0  0  0  0  0  0  0  0  0  0
    2.2744   -1.4005   -0.9145 C   0  0  0  0  0  0  0  0  0  0  0  0
    3.2430   -1.6768    0.2121 C   0  0  0  0  0  0  0  0  0  0  0  0
    4.3244   -0.8151    0.4464 C   0  0  0  0  0  0  0  0  0  0  0  0
    5.2181   -1.0699    1.4872 C   0  0  0  0  0  0  0  0  0  0  0  0
    5.0414   -2.1858    2.3063 C   0  0  0  0  0  0  0  0  0  0  0  0
    3.9663   -3.0460    2.0839 C   0  0  0  0  0  0  0  0  0  0  0  0
    3.0721   -2.7950    1.0428 C   0  0  0  0  0  0  0  0  0  0  0  0
   -0.0465   -0.6296   -1.5861 C   0  0  0  0  0  0  0  0  0  0  0  0
   -2.1209    2.3468   -3.4063 H   0  0  0  0  0  0  0  0  0  0  0  0
   -1.1796    2.8734   -2.0143 H   0  0  0  0  0  0  0  0  0  0  0  0
   -0.4934    1.7113   -3.1748 H   0  0  0  0  0  0  0  0  0  0  0  0
   -2.3828    0.1034   -2.5939 H   0  0  0  0  0  0  0  0  0  0  0  0
   -3.1336   -0.3937   -0.0150 H   0  0  0  0  0  0  0  0  0  0  0  0
   -5.3780   -0.2396    0.9409 H   0  0  0  0  0  0  0  0  0  0  0  0
   -5.5559    1.3622    0.2139 H   0  0  0  0  0  0  0  0  0  0  0  0
   -1.0779    0.8029    1.0561 H   0  0  0  0  0  0  0  0  0  0  0  0
   -0.4796    2.0143   -0.0720 H   0  0  0  0  0  0  0  0  0  0  0  0
    1.6251    1.0975   -0.1552 H   0  0  0  0  0  0  0  0  0  0  0  0
    1.1803    0.2964    1.3644 H   0  0  0  0  0  0  0  0  0  0  0  0
    0.4471   -1.6955    0.2171 H   0  0  0  0  0  0  0  0  0  0  0  0
    2.7062   -0.6628   -1.6044 H   0  0  0  0  0  0  0  0  0  0  0  0
    2.1582   -2.3216   -1.5033 H   0  0  0  0  0  0  0  0  0  0  0  0
    4.4812    0.0594   -0.1815 H   0  0  0  0  0  0  0  0  0  0  0  0
    6.0575   -0.3992    1.6592 H   0  0  0  0  0  0  0  0  0  0  0  0
    5.7386   -2.3849    3.1165 H   0  0  0  0  0  0  0  0  0  0  0  0
    3.8244   -3.9157    2.7211 H   0  0  0  0  0  0  0  0  0  0  0  0
    2.2419   -3.4778    0.8832 H   0  0  0  0  0  0  0  0  0  0  0  0
   -0.4267   -1.5487   -2.0470 H   0  0  0  0  0  0  0  0  0  0  0  0
    0.4674   -0.0419   -2.3566 H   0  0  0  0  0  0  0  0  0  0  0  0
  1  2  1  0
  2  3  1  0
  3  4  2  0
  3  5  1  0
  5  6  1  0
  6  7  1  0
  7  8  1  0
  7  9  1  0
  7 10  1  0
  2 11  1  0
 11 12  1  0
 12 13  1  0
 13 14  1  0
 14 15  1  0
 15 16  1  0
 16 17  2  0
 17 18  1  0
 18 19  2  0
 19 20  1  0
 20 21  2  0
 14 22  1  0
 22 11  1  0
 21 16  1  0
  1 23  1  0
  1 24  1  0
  1 25  1  0
  2 26  1  0
  5 27  1  0
  6 28  1  0
  6 29  1  0
 12 30  1  0
 12 31  1  0
 13 32  1  0
 13 33  1  0
 14 34  1  0
 15 35  1  0
 15 36  1  0
 17 37  1  0
 18 38  1  0
 19 39  1  0
 20 40  1  0
 21 41  1  0
 22 42  1  0
 22 43  1  0
M  END
$$$$
OCNT-2309174
     RDKit          3D

 50 52  0  0  0  0  0  0  0  0999 V2000
   -3.1502    2.1347    0.7391 C   0  0  0  0  0  0  0  0  0  0  0  0
   -2.5233    1.3044   -0.4164 C   0  0  0  0  0  0  0  0  0  0  0  0
   -1.0671    1.8065   -0.5183 C   0  0  0  0  0  0  0  0  0  0  0  0
   -3.2864    1.6836   -1.7018 C   0  0  0  0  0  0  0  0  0  0  0  0
   -2.6430   -0.2245   -0.1925 C   0  0  0  0  0  0  0  0  0  0  0  0
   -3.6228   -0.7225    0.6997 C   0  0  0  0  0  0  0  0  0  0  0  0
   -3.8250   -2.0925    0.9121 C   0  0  0  0  0  0  0  0  0  0  0  0
   -3.0681   -3.0260    0.2227 C   0  0  0  0  0  0  0  0  0  0  0  0
   -2.1040   -2.5842   -0.6734 C   0  0  0  0  0  0  0  0  0  0  0  0
   -1.8755   -1.2060   -0.8679 C   0  0  0  0  0  0  0  0  0  0  0  0
   -0.8295   -0.9074   -1.8731 C   0  0  0  0  0  0  0  0  0  0  0  0
   -1.1887   -0.5865   -3.0016 O   0  0  0  0  0  0  0  0  0  0  0  0
    0.5078   -1.0452   -1.4910 N   0  0  0  0  0  0  0  0  0  0  0  0
    1.5512   -0.8178   -2.4849 C   0  0  0  0  0  0  0  0  0  0  0  0
    2.5822    0.1759   -1.9574 C   0  0  0  0  0  0  0  0  0  0  0  0
    3.1231   -0.1858   -0.5547 C   0  0  0  0  0  0  0  0  0  0  0  0
    2.9730    1.0269    0.3856 C   0  0  0  0  0  0  0  0  0  0  0  0
    3.5621    0.8423    1.6936 N   0  0  0  0  0  0  0  0  0  0  0  0
    2.9306    0.8017    2.9003 C   0  0  0  0  0  0  0  0  0  0  0  0
    3.9557    0.6183    3.7964 C   0  0  0  0  0  0  0  0  0  0  0  0
    5.1436    0.5585    3.1249 N   0  0  0  0  0  0  0  0  0  0  0  0
    4.8909    0.7047    1.8308 N   0  0  0  0  0  0  0  0  0  0  0  0
    2.4600   -1.4612   -0.0029 C   0  0  0  0  0  0  0  0  0  0  0  0
    0.9405   -1.4458   -0.1521 C   0  0  0  0  0  0  0  0  0  0  0  0
   -2.7198    1.8569    1.7085 H   0  0  0  0  0  0  0  0  0  0  0  0
   -4.2376    2.0123    0.7947 H   0  0  0  0  0  0  0  0  0  0  0  0
   -2.9767    3.2089    0.5985 H   0  0  0  0  0  0  0  0  0  0  0  0
   -1.0200    2.9019   -0.4873 H   0  0  0  0  0  0  0  0  0  0  0  0
   -0.4638    1.4316    0.3139 H   0  0  0  0  0  0  0  0  0  0  0  0
   -0.5846    1.5284   -1.4567 H   0  0  0  0  0  0  0  0  0  0  0  0
   -2.8699    1.2011   -2.5896 H   0  0  0  0  0  0  0  0  0  0  0  0
   -4.3411    1.3908   -1.6382 H   0  0  0  0  0  0  0  0  0  0  0  0
   -3.2528    2.7656   -1.8759 H   0  0  0  0  0  0  0  0  0  0  0  0
   -4.2797   -0.0545    1.2504 H   0  0  0  0  0  0  0  0  0  0  0  0
   -4.5944   -2.4231    1.6063 H   0  0  0  0  0  0  0  0  0  0  0  0
   -3.2377   -4.0893    0.3687 H   0  0  0  0  0  0  0  0  0  0  0  0
   -1.5268   -3.3148   -1.2374 H   0  0  0  0  0  0  0  0  0  0  0  0
    2.0167   -1.7850   -2.7081 H   0  0  0  0  0  0  0  0  0  0  0  0
    1.1309   -0.4432   -3.4237 H   0  0  0  0  0  0  0  0  0  0  0  0
    2.1255    1.1741   -1.9430 H   0  0  0  0  0  0  0  0  0  0  0  0
    3.4178    0.2365   -2.6651 H   0  0  0  0  0  0  0  0  0  0  0  0
    4.1964   -0.3994   -0.6546 H   0  0  0  0  0  0  0  0  0  0  0  0
    3.4617    1.9082   -0.0482 H   0  0  0  0  0  0  0  0  0  0  0  0
    1.9177    1.2804    0.5318 H   0  0  0  0  0  0  0  0  0  0  0  0
    1.8625    0.9023    3.0154 H   0  0  0  0  0  0  0  0  0  0  0  0
    3.9084    0.5287    4.8720 H   0  0  0  0  0  0  0  0  0  0  0  0
    2.8573   -2.3216   -0.5585 H   0  0  0  0  0  0  0  0  0  0  0  0
    2.7299   -1.6387    1.0435 H   0  0  0  0  0  0  0  0  0  0  0  0
    0.4906   -0.7619    0.5746 H   0  0  0  0  0  0  0  0  0  0  0  0
    0.5526   -2.4482    0.0547 H   0  0  0  0  0  0  0  0  0  0  0  0
  1  2  1  0
  2  3  1  0
  2  4  1  0
  2  5  1  0
  5  6  2  0
  6  7  1  0
  7  8  2  0
  8  9  1  0
  9 10  2  0
 10 11  1  0
 11 12  2  0
 11 13  1  0
 13 14  1  0
 14 15  1  0
 15 16  1  0
 16 17  1  0
 17 18  1  0
 18 19  1  0
 19 20  2  0
 20 21  1  0
 21 22  2  0
 16 23  1  0
 23 24  1  0
 10  5  1  0
 24 13  1  0
 22 18  1  0
  1 25  1  0
  1 26  1  0
  1 27  1  0
  3 28  1  0
  3 29  1  0
  3 30  1  0
  4 31  1  0
  4 32  1  0
  4 33  1  0
  6 34  1  0
  7 35  1  0
  8 36  1  0
  9 37  1  0
 14 38  1  0
 14 39  1  0
 15 40  1  0
 15 41  1  0
 16 42  1  0
 17 43  1  0
 17 44  1  0
 19 45  1  0
 20 46  1  0
 23 47  1  0
 23 48  1  0
 24 49  1  0
 24 50  1  0
M  END
$$$$
OCNT-2309179
     RDKit          3D

 43 45  0  0  0  0  0  0  0  0999 V2000
    7.7335    0.0794   -0.6234 C   0  0  0  0  0  0  0  0  0  0  0  0
    6.3159    0.1831   -0.3201 N   0  0  0  0  0  0  0  0  0  0  0  0
    5.9039    1.3934    0.3808 C   0  0  0  0  0  0  0  0  0  0  0  0
    5.5406   -0.9705   -0.4277 C   0  0  0  0  0  0  0  0  0  0  0  0
    6.0052   -2.0814   -0.6735 O   0  0  0  0  0  0  0  0  0  0  0  0
    4.0801   -0.8752   -0.2648 C   0  0  0  0  0  0  0  0  0  0  0  0
    3.4070   -1.7418    0.5874 C   0  0  0  0  0  0  0  0  0  0  0  0
    2.0200   -1.6396    0.6921 C   0  0  0  0  0  0  0  0  0  0  0  0
    1.3346   -0.6940   -0.0731 C   0  0  0  0  0  0  0  0  0  0  0  0
   -0.0560   -0.5987    0.0897 N   0  0  0  0  0  0  0  0  0  0  0  0
   -0.6973    0.3593   -0.8002 C   0  0  0  0  0  0  0  0  0  0  0  0
   -2.1878    0.3345   -0.5452 C   0  0  0  0  0  0  0  0  0  0  0  0
   -3.0736   -0.2055   -1.4831 C   0  0  0  0  0  0  0  0  0  0  0  0
   -4.4527   -0.2327   -1.2335 C   0  0  0  0  0  0  0  0  0  0  0  0
   -4.9770    0.2782   -0.0334 C   0  0  0  0  0  0  0  0  0  0  0  0
   -6.3825    0.2456    0.2084 N   0  0  0  0  0  0  0  0  0  0  0  0
   -7.0734    0.7015    1.3116 C   0  0  0  0  0  0  0  0  0  0  0  0
   -8.4034    0.4489    1.0743 C   0  0  0  0  0  0  0  0  0  0  0  0
   -8.5718   -0.1496   -0.1374 N   0  0  0  0  0  0  0  0  0  0  0  0
   -7.3581   -0.2593   -0.6313 C   0  0  0  0  0  0  0  0  0  0  0  0
   -4.0815    0.8108    0.9017 C   0  0  0  0  0  0  0  0  0  0  0  0
   -4.4871    1.3140    2.0747 F   0  0  0  0  0  0  0  0  0  0  0  0
   -2.7083    0.8382    0.6521 C   0  0  0  0  0  0  0  0  0  0  0  0
    1.9838    0.1417   -0.9116 N   0  0  0  0  0  0  0  0  0  0  0  0
    3.3322    0.0236   -1.0061 C   0  0  0  0  0  0  0  0  0  0  0  0
    8.2819   -0.0811    0.3095 H   0  0  0  0  0  0  0  0  0  0  0  0
    7.9363   -0.7526   -1.3036 H   0  0  0  0  0  0  0  0  0  0  0  0
    8.0688    1.0083   -1.0940 H   0  0  0  0  0  0  0  0  0  0  0  0
    4.8834    1.3371    0.7615 H   0  0  0  0  0  0  0  0  0  0  0  0
    5.9939    2.2403   -0.3051 H   0  0  0  0  0  0  0  0  0  0  0  0
    6.5709    1.5472    1.2351 H   0  0  0  0  0  0  0  0  0  0  0  0
    3.9515   -2.4841    1.1645 H   0  0  0  0  0  0  0  0  0  0  0  0
    1.4802   -2.2911    1.3721 H   0  0  0  0  0  0  0  0  0  0  0  0
   -0.4683   -1.5229    0.0027 H   0  0  0  0  0  0  0  0  0  0  0  0
   -0.3322    1.3787   -0.6195 H   0  0  0  0  0  0  0  0  0  0  0  0
   -0.5005    0.1119   -1.8514 H   0  0  0  0  0  0  0  0  0  0  0  0
   -2.6983   -0.6112   -2.4217 H   0  0  0  0  0  0  0  0  0  0  0  0
   -5.0808   -0.6631   -2.0078 H   0  0  0  0  0  0  0  0  0  0  0  0
   -6.6001    1.1612    2.1644 H   0  0  0  0  0  0  0  0  0  0  0  0
   -9.2447    0.6703    1.7185 H   0  0  0  0  0  0  0  0  0  0  0  0
   -7.1452   -0.6990   -1.5945 H   0  0  0  0  0  0  0  0  0  0  0  0
   -2.0441    1.2513    1.4082 H   0  0  0  0  0  0  0  0  0  0  0  0
    3.8009    0.6950   -1.7199 H   0  0  0  0  0  0  0  0  0  0  0  0
  1  2  1  0
  2  3  1  0
  2  4  1  0
  4  5  2  0
  4  6  1  0
  6  7  2  0
  7  8  1  0
  8  9  2  0
  9 10  1  0
 10 11  1  0
 11 12  1  0
 12 13  1  0
 13 14  2  0
 14 15  1  0
 15 16  1  0
 16 17  1  0
 17 18  2  0
 18 19  1  0
 19 20  2  0
 15 21  2  0
 21 22  1  0
 21 23  1  0
  9 24  1  0
 24 25  2  0
 25  6  1  0
 23 12  2  0
 20 16  1  0
  1 26  1  0
  1 27  1  0
  1 28  1  0
  3 29  1  0
  3 30  1  0
  3 31  1  0
  7 32  1  0
  8 33  1  0
 10 34  1  0
 11 35  1  0
 11 36  1  0
 13 37  1  0
 14 38  1  0
 17 39  1  0
 18 40  1  0
 20 41  1  0
 23 42  1  0
 25 43  1  0
M  END
$$$$
OCNT-2309181
     RDKit          3D

 53 55  0  0  0  0  0  0  0  0999 V2000
   -1.9273   -2.8565    2.2788 C   0  0  0  0  0  0  0  0  0  0  0  0
   -2.2439   -1.3754    2.4210 C   0  0  0  0  0  0  0  0  0  0  0  0
   -1.5706   -0.5734    1.3949 N   0  0  0  0  0  0  0  0  0  0  0  0
   -2.1677   -0.2017    0.1812 C   0  0  0  0  0  0  0  0  0  0  0  0
   -1.5529    0.4355   -0.6738 O   0  0  0  0  0  0  0  0  0  0  0  0
   -3.6301   -0.6048   -0.0203 C   0  0  0  0  0  0  0  0  0  0  0  0
   -4.1610   -0.3425   -1.3906 C   0  0  0  0  0  0  0  0  0  0  0  0
   -4.6743   -1.2516   -2.2953 C   0  0  0  0  0  0  0  0  0  0  0  0
   -5.0502   -0.5318   -3.3918 N   0  0  0  0  0  0  0  0  0  0  0  0
   -5.6258   -1.0416   -4.6118 C   0  0  0  0  0  0  0  0  0  0  0  0
   -4.8514    0.7898   -3.2575 N   0  0  0  0  0  0  0  0  0  0  0  0
   -4.2859    0.9024   -2.0532 C   0  0  0  0  0  0  0  0  0  0  0  0
   -0.1556   -0.2525    1.6425 C   0  0  0  0  0  0  0  0  0  0  0  0
    0.1670    1.2336    1.7449 C   0  0  0  0  0  0  0  0  0  0  0  0
    1.6637    1.2533    1.4786 C   0  0  0  0  0  0  0  0  0  0  0  0
    1.8159    0.3023    0.3732 N   0  0  0  0  0  0  0  0  0  0  0  0
    3.2032   -0.1231    0.1229 C   0  0  0  0  0  0  0  0  0  0  0  0
    3.2948   -1.1183   -1.0474 C   0  0  0  0  0  0  0  0  0  0  0  0
    4.1297    1.0534   -0.1753 C   0  0  0  0  0  0  0  0  0  0  0  0
    5.3195    1.2177    0.5515 C   0  0  0  0  0  0  0  0  0  0  0  0
    6.1784    2.2842    0.2769 C   0  0  0  0  0  0  0  0  0  0  0  0
    5.8602    3.1981   -0.7259 C   0  0  0  0  0  0  0  0  0  0  0  0
    4.6827    3.0486   -1.4554 C   0  0  0  0  0  0  0  0  0  0  0  0
    3.8237    1.9828   -1.1837 C   0  0  0  0  0  0  0  0  0  0  0  0
    0.8717   -0.7997    0.6296 C   0  0  0  0  0  0  0  0  0  0  0  0
   -2.4591   -3.4332    3.0418 H   0  0  0  0  0  0  0  0  0  0  0  0
   -2.2240   -3.2332    1.2948 H   0  0  0  0  0  0  0  0  0  0  0  0
   -0.8553   -3.0446    2.3962 H   0  0  0  0  0  0  0  0  0  0  0  0
   -3.3258   -1.2297    2.3732 H   0  0  0  0  0  0  0  0  0  0  0  0
   -1.9322   -1.0110    3.4067 H   0  0  0  0  0  0  0  0  0  0  0  0
   -3.7349   -1.6745    0.1899 H   0  0  0  0  0  0  0  0  0  0  0  0
   -4.2395   -0.0451    0.6989 H   0  0  0  0  0  0  0  0  0  0  0  0
   -4.7936   -2.3252   -2.2506 H   0  0  0  0  0  0  0  0  0  0  0  0
   -5.7158   -2.1296   -4.5455 H   0  0  0  0  0  0  0  0  0  0  0  0
   -6.6146   -0.5924   -4.7410 H   0  0  0  0  0  0  0  0  0  0  0  0
   -4.9679   -0.7715   -5.4426 H   0  0  0  0  0  0  0  0  0  0  0  0
   -3.9916    1.8833   -1.7005 H   0  0  0  0  0  0  0  0  0  0  0  0
    0.1084   -0.6903    2.6166 H   0  0  0  0  0  0  0  0  0  0  0  0
   -0.3623    1.8321    0.9957 H   0  0  0  0  0  0  0  0  0  0  0  0
   -0.0836    1.6392    2.7304 H   0  0  0  0  0  0  0  0  0  0  0  0
    1.9947    2.2628    1.2167 H   0  0  0  0  0  0  0  0  0  0  0  0
    2.2087    0.9222    2.3717 H   0  0  0  0  0  0  0  0  0  0  0  0
    3.5762   -0.6377    1.0194 H   0  0  0  0  0  0  0  0  0  0  0  0
    2.7737   -2.0550   -0.8232 H   0  0  0  0  0  0  0  0  0  0  0  0
    2.8622   -0.7066   -1.9668 H   0  0  0  0  0  0  0  0  0  0  0  0
    4.3392   -1.3753   -1.2609 H   0  0  0  0  0  0  0  0  0  0  0  0
    5.5858    0.5150    1.3375 H   0  0  0  0  0  0  0  0  0  0  0  0
    7.0966    2.4024    0.8463 H   0  0  0  0  0  0  0  0  0  0  0  0
    6.5281    4.0284   -0.9382 H   0  0  0  0  0  0  0  0  0  0  0  0
    4.4286    3.7615   -2.2351 H   0  0  0  0  0  0  0  0  0  0  0  0
    2.9000    1.8815   -1.7511 H   0  0  0  0  0  0  0  0  0  0  0  0
    1.3676   -1.6674    1.0837 H   0  0  0  0  0  0  0  0  0  0  0  0
    0.4166   -1.1349   -0.3072 H   0  0  0  0  0  0  0  0  0  0  0  0
  1  2  1  0
  2  3  1  0
  3  4  1  0
  4  5  2  0
  4  6  1  0
  6  7  1  0
  7  8  2  0
  8  9  1  0
  9 10  1  0
  9 11  1  0
 11 12  2  0
  3 13  1  0
 13 14  1  0
 14 15  1  0
 15 16  1  0
 16 17  1  0
 17 18  1  0
 17 19  1  0
 19 20  2  0
 20 21  1  0
 21 22  2  0
 22 23  1  0
 23 24  2  0
 16 25  1  0
 12  7  1  0
 25 13  1  0
 24 19  1  0
  1 26  1  0
  1 27  1  0
  1 28  1  0
  2 29  1  0
  2 30  1  0
  6 31  1  0
  6 32  1  0
  8 33  1  0
 10 34  1  0
 10 35  1  0
 10 36  1  0
 12 37  1  0
 13 38  1  0
 14 39  1  0
 14 40  1  0
 15 41  1  0
 15 42  1  0
 17 43  1  0
 18 44  1  0
 18 45  1  0
 18 46  1  0
 20 47  1  0
 21 48  1  0
 22 49  1  0
 23 50  1  0
 24 51  1  0
 25 52  1  0
 25 53  1  0
M  END
$$$$
OCNT-2309187
     RDKit          3D

 40 42  0  0  0  0  0  0  0  0999 V2000
    0.6447    1.2085   -2.9037 O   0  0  0  0  0  0  0  0  0  0  0  0
    0.5449    1.2310   -1.6799 C   0  0  0  0  0  0  0  0  0  0  0  0
    1.3583    2.1827   -0.8056 C   0  0  0  0  0  0  0  0  0  0  0  0
    2.6465    1.5806   -0.5179 N   0  0  0  0  0  0  0  0  0  0  0  0
    2.7591    0.6087    0.4601 C   0  0  0  0  0  0  0  0  0  0  0  0
    1.7772    0.2905    1.1322 O   0  0  0  0  0  0  0  0  0  0  0  0
    4.0753   -0.0046    0.5745 C   0  0  0  0  0  0  0  0  0  0  0  0
    5.2943    0.3880    0.0469 C   0  0  0  0  0  0  0  0  0  0  0  0
    6.3554   -0.5003    0.3941 C   0  0  0  0  0  0  0  0  0  0  0  0
    5.9189   -1.5405    1.1809 C   0  0  0  0  0  0  0  0  0  0  0  0
    4.2441   -1.4416    1.5014 S   0  0  0  0  0  0  0  0  0  0  0  0
   -0.2248    0.3408   -0.9614 N   0  0  0  0  0  0  0  0  0  0  0  0
   -0.9465   -0.7112   -1.6308 C   0  0  0  0  0  0  0  0  0  0  0  0
   -2.0100   -1.3211   -0.7475 C   0  0  0  0  0  0  0  0  0  0  0  0
   -1.9531   -2.7245   -0.5888 C   0  0  0  0  0  0  0  0  0  0  0  0
   -2.8164   -3.4025    0.2706 C   0  0  0  0  0  0  0  0  0  0  0  0
   -3.7599   -2.6934    0.9978 C   0  0  0  0  0  0  0  0  0  0  0  0
   -3.8504   -1.3090    0.8531 C   0  0  0  0  0  0  0  0  0  0  0  0
   -3.0000   -0.6085   -0.0289 C   0  0  0  0  0  0  0  0  0  0  0  0
   -3.1979    0.8021   -0.1364 N   0  0  0  0  0  0  0  0  0  0  0  0
   -3.7011    1.6321    0.8482 C   0  0  0  0  0  0  0  0  0  0  0  0
   -3.7173    2.8985    0.3161 C   0  0  0  0  0  0  0  0  0  0  0  0
   -3.2765    2.8849   -0.9736 N   0  0  0  0  0  0  0  0  0  0  0  0
   -3.0001    1.6227   -1.2253 C   0  0  0  0  0  0  0  0  0  0  0  0
    0.8230    2.4057    0.1231 H   0  0  0  0  0  0  0  0  0  0  0  0
    1.5240    3.1173   -1.3493 H   0  0  0  0  0  0  0  0  0  0  0  0
    3.3420    1.6132   -1.2501 H   0  0  0  0  0  0  0  0  0  0  0  0
    5.4378    1.2779   -0.5533 H   0  0  0  0  0  0  0  0  0  0  0  0
    7.3873   -0.3784    0.0867 H   0  0  0  0  0  0  0  0  0  0  0  0
    6.5033   -2.3537    1.5899 H   0  0  0  0  0  0  0  0  0  0  0  0
    0.0718    0.1748    0.0018 H   0  0  0  0  0  0  0  0  0  0  0  0
   -0.1927   -1.4586   -1.9085 H   0  0  0  0  0  0  0  0  0  0  0  0
   -1.3793   -0.3599   -2.5726 H   0  0  0  0  0  0  0  0  0  0  0  0
   -1.2070   -3.3079   -1.1278 H   0  0  0  0  0  0  0  0  0  0  0  0
   -2.7428   -4.4819    0.3771 H   0  0  0  0  0  0  0  0  0  0  0  0
   -4.4349   -3.2159    1.6712 H   0  0  0  0  0  0  0  0  0  0  0  0
   -4.6323   -0.8014    1.4138 H   0  0  0  0  0  0  0  0  0  0  0  0
   -3.9527    1.2791    1.8370 H   0  0  0  0  0  0  0  0  0  0  0  0
   -4.0229    3.8177    0.7990 H   0  0  0  0  0  0  0  0  0  0  0  0
   -2.6890    1.2582   -2.1922 H   0  0  0  0  0  0  0  0  0  0  0  0
  1  2  2  0
  2  3  1  0
  3  4  1  0
  4  5  1  0
  5  6  2  0
  5  7  1  0
  7  8  2  0
  8  9  1  0
  9 10  2  0
 10 11  1  0
  2 12  1  0
 12 13  1  0
 13 14  1  0
 14 15  2  0
 15 16  1  0
 16 17  2  0
 17 18  1  0
 18 19  2  0
 19 20  1  0
 20 21  1  0
 21 22  2  0
 22 23  1  0
 23 24  2  0
 11  7  1  0
 19 14  1  0
 24 20  1  0
  3 25  1  0
  3 26  1  0
  4 27  1  0
  8 28  1  0
  9 29  1  0
 10 30  1  0
 12 31  1  0
 13 32  1  0
 13 33  1  0
 15 34  1  0
 16 35  1  0
 17 36  1  0
 18 37  1  0
 21 38  1  0
 22 39  1  0
 24 40  1  0
M  END
$$$$
OCNT-2309193
     RDKit          3D

 53 54  0  0  0  0  0  0  0  0999 V2000
   -4.9449    0.8041   -0.8963 C   0  0  0  0  0  0  0  0  0  0  0  0
   -4.4276    0.0179    0.3044 C   0  0  0  0  0  0  0  0  0  0  0  0
   -5.1545    0.4950    1.5694 C   0  0  0  0  0  0  0  0  0  0  0  0
   -2.9028    0.1296    0.5252 C   0  0  0  0  0  0  0  0  0  0  0  0
   -1.9274   -0.3349   -0.6025 C   0  0  0  0  0  0  0  0  0  0  0  0
   -1.7777    0.6828   -1.7715 C   0  0  0  0  0  0  0  0  0  0  0  0
   -1.7776    2.0446   -1.3601 O   0  0  0  0  0  0  0  0  0  0  0  0
   -2.3032   -1.7138   -1.2016 C   0  0  0  0  0  0  0  0  0  0  0  0
   -1.7221   -2.7130   -0.2156 C   0  0  0  0  0  0  0  0  0  0  0  0
   -0.3868   -2.0824    0.1359 C   0  0  0  0  0  0  0  0  0  0  0  0
   -0.6001   -0.6430    0.0248 N   0  0  0  0  0  0  0  0  0  0  0  0
    0.2318    0.3260    0.5385 C   0  0  0  0  0  0  0  0  0  0  0  0
   -0.0570    1.5197    0.5337 O   0  0  0  0  0  0  0  0  0  0  0  0
    1.4126   -0.1353    1.0484 N   0  0  0  0  0  0  0  0  0  0  0  0
    2.4492    0.7574    1.5458 C   0  0  0  0  0  0  0  0  0  0  0  0
    3.5298    1.1330    0.4858 C   0  0  0  0  0  0  0  0  0  0  0  0
    4.6408    1.9472    1.1875 C   0  0  0  0  0  0  0  0  0  0  0  0
    2.9058    2.0576   -0.5845 C   0  0  0  0  0  0  0  0  0  0  0  0
    4.1399   -0.1257   -0.1607 C   0  0  0  0  0  0  0  0  0  0  0  0
    4.2022   -0.4783   -1.5000 C   0  0  0  0  0  0  0  0  0  0  0  0
    4.8397   -1.7334   -1.7195 C   0  0  0  0  0  0  0  0  0  0  0  0
    5.2531   -2.3125   -0.5440 C   0  0  0  0  0  0  0  0  0  0  0  0
    4.8733   -1.3498    0.8113 S   0  0  0  0  0  0  0  0  0  0  0  0
   -6.0405    0.8201   -0.9092 H   0  0  0  0  0  0  0  0  0  0  0  0
   -4.6303    0.3441   -1.8357 H   0  0  0  0  0  0  0  0  0  0  0  0
   -4.5962    1.8415   -0.8763 H   0  0  0  0  0  0  0  0  0  0  0  0
   -4.6947   -1.0364    0.1684 H   0  0  0  0  0  0  0  0  0  0  0  0
   -6.2378    0.3695    1.4674 H   0  0  0  0  0  0  0  0  0  0  0  0
   -4.9531    1.5532    1.7683 H   0  0  0  0  0  0  0  0  0  0  0  0
   -4.8360   -0.0824    2.4439 H   0  0  0  0  0  0  0  0  0  0  0  0
   -2.6650    1.1619    0.8123 H   0  0  0  0  0  0  0  0  0  0  0  0
   -2.6765   -0.4580    1.4275 H   0  0  0  0  0  0  0  0  0  0  0  0
   -0.8463    0.5023   -2.3214 H   0  0  0  0  0  0  0  0  0  0  0  0
   -2.5904    0.5717   -2.4940 H   0  0  0  0  0  0  0  0  0  0  0  0
   -1.1140    2.1137   -0.6364 H   0  0  0  0  0  0  0  0  0  0  0  0
   -1.8082   -1.8566   -2.1721 H   0  0  0  0  0  0  0  0  0  0  0  0
   -3.3725   -1.8592   -1.3682 H   0  0  0  0  0  0  0  0  0  0  0  0
   -1.6120   -3.7156   -0.6381 H   0  0  0  0  0  0  0  0  0  0  0  0
   -2.3595   -2.7847    0.6731 H   0  0  0  0  0  0  0  0  0  0  0  0
    0.3869   -2.3619   -0.5880 H   0  0  0  0  0  0  0  0  0  0  0  0
   -0.0549   -2.3569    1.1417 H   0  0  0  0  0  0  0  0  0  0  0  0
    1.7273   -1.0416    0.7396 H   0  0  0  0  0  0  0  0  0  0  0  0
    2.9062    0.2370    2.3956 H   0  0  0  0  0  0  0  0  0  0  0  0
    1.9812    1.6641    1.9482 H   0  0  0  0  0  0  0  0  0  0  0  0
    5.4462    2.2044    0.4893 H   0  0  0  0  0  0  0  0  0  0  0  0
    4.2434    2.8824    1.5990 H   0  0  0  0  0  0  0  0  0  0  0  0
    5.0920    1.3944    2.0190 H   0  0  0  0  0  0  0  0  0  0  0  0
    2.4371    2.9350   -0.1240 H   0  0  0  0  0  0  0  0  0  0  0  0
    3.6654    2.4256   -1.2848 H   0  0  0  0  0  0  0  0  0  0  0  0
    2.1406    1.5451   -1.1774 H   0  0  0  0  0  0  0  0  0  0  0  0
    3.8091    0.1347   -2.3025 H   0  0  0  0  0  0  0  0  0  0  0  0
    4.9908   -2.1841   -2.6928 H   0  0  0  0  0  0  0  0  0  0  0  0
    5.7655   -3.2562   -0.4154 H   0  0  0  0  0  0  0  0  0  0  0  0
  1  2  1  0
  2  3  1  0
  2  4  1  0
  4  5  1  0
  5  6  1  0
  6  7  1  0
  5  8  1  0
  8  9  1  0
  9 10  1  0
 10 11  1  0
 11 12  1  0
 12 13  2  0
 12 14  1  0
 14 15  1  0
 15 16  1  0
 16 17  1  0
 16 18  1  0
 16 19  1  0
 19 20  2  0
 20 21  1  0
 21 22  2  0
 22 23  1  0
 11  5  1  0
 23 19  1  0
  1 24  1  0
  1 25  1  0
  1 26  1  0
  2 27  1  0
  3 28  1  0
  3 29  1  0
  3 30  1  0
  4 31  1  0
  4 32  1  0
  6 33  1  0
  6 34  1  0
  7 35  1  0
  8 36  1  0
  8 37  1  0
  9 38  1  0
  9 39  1  0
 10 40  1  0
 10 41  1  0
 14 42  1  0
 15 43  1  0
 15 44  1  0
 17 45  1  0
 17 46  1  0
 17 47  1  0
 18 48  1  0
 18 49  1  0
 18 50  1  0
 20 51  1  0
 21 52  1  0
 22 53  1  0
M  END
$$$$
OCNT-2309194
     RDKit          3D

 54 57  0  0  0  0  0  0  0  0999 V2000
    6.7007    2.1895    0.7252 C   0  0  0  0  0  0  0  0  0  0  0  0
    7.0650    0.8384    0.4686 O   0  0  0  0  0  0  0  0  0  0  0  0
    6.0675   -0.0022    0.0499 C   0  0  0  0  0  0  0  0  0  0  0  0
    6.4926   -1.3057   -0.2329 C   0  0  0  0  0  0  0  0  0  0  0  0
    5.6030   -2.2907   -0.6757 C   0  0  0  0  0  0  0  0  0  0  0  0
    4.2750   -1.9027   -0.8168 C   0  0  0  0  0  0  0  0  0  0  0  0
    3.2635   -2.7030   -1.2393 O   0  0  0  0  0  0  0  0  0  0  0  0
    2.1267   -1.9511   -1.2542 C   0  0  0  0  0  0  0  0  0  0  0  0
    0.9276   -2.6493   -1.7639 C   0  0  0  0  0  0  0  0  0  0  0  0
    2.3870   -0.6649   -0.8011 C   0  0  0  0  0  0  0  0  0  0  0  0
    1.4565    0.4431   -0.6500 C   0  0  0  0  0  0  0  0  0  0  0  0
    1.8200    1.6127   -0.7298 O   0  0  0  0  0  0  0  0  0  0  0  0
    0.1543    0.0956   -0.3441 N   0  0  0  0  0  0  0  0  0  0  0  0
   -0.7917    1.1341    0.0338 C   0  0  0  0  0  0  0  0  0  0  0  0
   -2.2724    0.6601    0.1728 C   0  0  0  0  0  0  0  0  0  0  0  0
   -2.8729    0.0864   -1.0784 N   0  0  0  0  0  0  0  0  0  0  0  0
   -2.8419   -1.3606   -1.2244 C   0  0  0  0  0  0  0  0  0  0  0  0
   -2.4523    0.7408   -2.3168 C   0  0  0  0  0  0  0  0  0  0  0  0
   -3.1541    1.9080    0.5670 C   0  0  0  0  0  0  0  0  0  0  0  0
   -4.1596    1.3297    1.5171 C   0  0  0  0  0  0  0  0  0  0  0  0
   -5.3553    1.8887    1.9359 C   0  0  0  0  0  0  0  0  0  0  0  0
   -6.1289    1.1828    2.8595 C   0  0  0  0  0  0  0  0  0  0  0  0
   -5.6946   -0.0561    3.3570 C   0  0  0  0  0  0  0  0  0  0  0  0
   -4.4810   -0.6049    2.9375 C   0  0  0  0  0  0  0  0  0  0  0  0
   -3.7285    0.0978    2.0113 C   0  0  0  0  0  0  0  0  0  0  0  0
   -2.3862   -0.2534    1.4529 C   0  0  0  0  0  0  0  0  0  0  0  0
    3.7990   -0.6284   -0.5458 C   0  0  0  0  0  0  0  0  0  0  0  0
    4.7181    0.3479   -0.1009 C   0  0  0  0  0  0  0  0  0  0  0  0
    6.3078    2.6717   -0.1758 H   0  0  0  0  0  0  0  0  0  0  0  0
    7.6056    2.7281    1.0225 H   0  0  0  0  0  0  0  0  0  0  0  0
    5.9875    2.2545    1.5538 H   0  0  0  0  0  0  0  0  0  0  0  0
    7.5437   -1.5600   -0.1089 H   0  0  0  0  0  0  0  0  0  0  0  0
    5.9264   -3.2992   -0.9007 H   0  0  0  0  0  0  0  0  0  0  0  0
    0.3051   -2.9922   -0.9318 H   0  0  0  0  0  0  0  0  0  0  0  0
    1.2043   -3.5246   -2.3616 H   0  0  0  0  0  0  0  0  0  0  0  0
    0.3340   -1.9879   -2.4024 H   0  0  0  0  0  0  0  0  0  0  0  0
   -0.0050   -0.8403   -0.0009 H   0  0  0  0  0  0  0  0  0  0  0  0
   -0.7120    1.9524   -0.6926 H   0  0  0  0  0  0  0  0  0  0  0  0
   -0.4356    1.5494    0.9859 H   0  0  0  0  0  0  0  0  0  0  0  0
   -3.2885   -1.6683   -2.1782 H   0  0  0  0  0  0  0  0  0  0  0  0
   -1.8260   -1.7597   -1.1892 H   0  0  0  0  0  0  0  0  0  0  0  0
   -3.4478   -1.8526   -0.4571 H   0  0  0  0  0  0  0  0  0  0  0  0
   -1.4270    0.4798   -2.5995 H   0  0  0  0  0  0  0  0  0  0  0  0
   -2.5287    1.8305   -2.2463 H   0  0  0  0  0  0  0  0  0  0  0  0
   -3.1102    0.4466   -3.1430 H   0  0  0  0  0  0  0  0  0  0  0  0
   -2.5640    2.6700    1.0903 H   0  0  0  0  0  0  0  0  0  0  0  0
   -3.6435    2.3781   -0.2921 H   0  0  0  0  0  0  0  0  0  0  0  0
   -5.6883    2.8493    1.5560 H   0  0  0  0  0  0  0  0  0  0  0  0
   -7.0747    1.5970    3.1993 H   0  0  0  0  0  0  0  0  0  0  0  0
   -6.3080   -0.5898    4.0789 H   0  0  0  0  0  0  0  0  0  0  0  0
   -4.1414   -1.5573    3.3320 H   0  0  0  0  0  0  0  0  0  0  0  0
   -1.6279    0.0167    2.1989 H   0  0  0  0  0  0  0  0  0  0  0  0
   -2.2756   -1.3216    1.2539 H   0  0  0  0  0  0  0  0  0  0  0  0
    4.3528    1.3468    0.1093 H   0  0  0  0  0  0  0  0  0  0  0  0
  1  2  1  0
  2  3  1  0
  3  4  2  0
  4  5  1  0
  5  6  2  0
  6  7  1  0
  7  8  1  0
  8  9  1  0
  8 10  2  0
 10 11  1  0
 11 12  2  0
 11 13  1  0
 13 14  1  0
 14 15  1  0
 15 16  1  0
 16 17  1  0
 16 18  1  0
 15 19  1  0
 19 20  1  0
 20 21  2  0
 21 22  1  0
 22 23  2  0
 23 24  1  0
 24 25  2  0
 25 26  1  0
 10 27  1  0
 27 28  2  0
 28  3  1  0
 27  6  1  0
 26 15  1  0
 25 20  1  0
  1 29  1  0
  1 30  1  0
  1 31  1  0
  4 32  1  0
  5 33  1  0
  9 34  1  0
  9 35  1  0
  9 36  1  0
 13 37  1  0
 14 38  1  0
 14 39  1  0
 17 40  1  0
 17 41  1  0
 17 42  1  0
 18 43  1  0
 18 44  1  0
 18 45  1  0
 19 46  1  0
 19 47  1  0
 21 48  1  0
 22 49  1  0
 23 50  1  0
 24 51  1  0
 26 52  1  0
 26 53  1  0
 28 54  1  0
M  END
$$$$
OCNT-2309206
     RDKit          3D

 47 48  0  0  0  0  0  0  0  0999 V2000
   -1.8765   -5.4150    0.2333 C   0  0  0  0  0  0  0  0  0  0  0  0
   -2.0886   -3.9979    0.0698 N   0  0  0  0  0  0  0  0  0  0  0  0
   -1.0351   -3.1506   -0.2063 C   0  0  0  0  0  0  0  0  0  0  0  0
    0.1349   -3.5254   -0.2313 O   0  0  0  0  0  0  0  0  0  0  0  0
   -1.4480   -1.6985   -0.4239 C   0  0  0  0  0  0  0  0  0  0  0  0
   -0.3545   -0.9359   -1.1870 C   0  0  0  0  0  0  0  0  0  0  0  0
    0.9048   -0.8569   -0.4644 N   0  0  0  0  0  0  0  0  0  0  0  0
    1.8407    0.1030   -0.7973 C   0  0  0  0  0  0  0  0  0  0  0  0
    1.6108    0.9962   -1.6006 O   0  0  0  0  0  0  0  0  0  0  0  0
    3.0001   -0.0871   -0.0778 N   0  0  0  0  0  0  0  0  0  0  0  0
    4.1953    0.6525   -0.1540 C   0  0  0  0  0  0  0  0  0  0  0  0
    4.4225    1.6724   -1.0814 C   0  0  0  0  0  0  0  0  0  0  0  0
    5.6418    2.3597   -1.0969 C   0  0  0  0  0  0  0  0  0  0  0  0
    6.6396    2.0261   -0.1858 C   0  0  0  0  0  0  0  0  0  0  0  0
    8.1379    2.8703   -0.2058 Cl  0  0  0  0  0  0  0  0  0  0  0  0
    6.4296    1.0091    0.7410 C   0  0  0  0  0  0  0  0  0  0  0  0
    5.2106    0.3242    0.7550 C   0  0  0  0  0  0  0  0  0  0  0  0
   -1.7966   -1.0664    0.9356 C   0  0  0  0  0  0  0  0  0  0  0  0
   -2.5062    0.2612    0.8122 C   0  0  0  0  0  0  0  0  0  0  0  0
   -1.7842    1.4600    0.8649 C   0  0  0  0  0  0  0  0  0  0  0  0
   -2.4364    2.6877    0.7312 C   0  0  0  0  0  0  0  0  0  0  0  0
   -3.8255    2.7412    0.5517 C   0  0  0  0  0  0  0  0  0  0  0  0
   -4.5318    4.0637    0.3863 C   0  0  0  0  0  0  0  0  0  0  0  0
   -3.8692    5.1069    0.9597 F   0  0  0  0  0  0  0  0  0  0  0  0
   -4.7025    4.4009   -0.9218 F   0  0  0  0  0  0  0  0  0  0  0  0
   -5.7787    4.0707    0.9376 F   0  0  0  0  0  0  0  0  0  0  0  0
   -4.5456    1.5388    0.4910 C   0  0  0  0  0  0  0  0  0  0  0  0
   -3.8925    0.3107    0.6210 C   0  0  0  0  0  0  0  0  0  0  0  0
   -2.7548   -5.8438    0.7210 H   0  0  0  0  0  0  0  0  0  0  0  0
   -1.7437   -5.8648   -0.7541 H   0  0  0  0  0  0  0  0  0  0  0  0
   -0.9857   -5.5980    0.8400 H   0  0  0  0  0  0  0  0  0  0  0  0
   -3.0317   -3.6803   -0.1149 H   0  0  0  0  0  0  0  0  0  0  0  0
   -2.3408   -1.7097   -1.0643 H   0  0  0  0  0  0  0  0  0  0  0  0
   -0.1368   -1.4404   -2.1367 H   0  0  0  0  0  0  0  0  0  0  0  0
   -0.6937    0.0743   -1.4396 H   0  0  0  0  0  0  0  0  0  0  0  0
    1.2951   -1.7683   -0.2425 H   0  0  0  0  0  0  0  0  0  0  0  0
    2.9431   -0.7886    0.6451 H   0  0  0  0  0  0  0  0  0  0  0  0
    3.6706    1.9564   -1.8115 H   0  0  0  0  0  0  0  0  0  0  0  0
    5.8000    3.1509   -1.8249 H   0  0  0  0  0  0  0  0  0  0  0  0
    7.2065    0.7439    1.4529 H   0  0  0  0  0  0  0  0  0  0  0  0
    5.0679   -0.4673    1.4863 H   0  0  0  0  0  0  0  0  0  0  0  0
   -0.8964   -0.9502    1.5533 H   0  0  0  0  0  0  0  0  0  0  0  0
   -2.4423   -1.7388    1.5166 H   0  0  0  0  0  0  0  0  0  0  0  0
   -0.7029    1.4477    0.9963 H   0  0  0  0  0  0  0  0  0  0  0  0
   -1.8501    3.6053    0.7649 H   0  0  0  0  0  0  0  0  0  0  0  0
   -5.6245    1.5563    0.3426 H   0  0  0  0  0  0  0  0  0  0  0  0
   -4.4762   -0.6058    0.5746 H   0  0  0  0  0  0  0  0  0  0  0  0
  1  2  1  0
  2  3  1  0
  3  4  2  0
  3  5  1  0
  5  6  1  0
  6  7  1  0
  7  8  1  0
  8  9  2  0
  8 10  1  0
 10 11  1  0
 11 12  1  0
 12 13  2  0
 13 14  1  0
 14 15  1  0
 14 16  2  0
 16 17  1  0
  5 18  1  0
 18 19  1  0
 19 20  1  0
 20 21  2  0
 21 22  1  0
 22 23  1  0
 23 24  1  0
 23 25  1  0
 23 26  1  0
 22 27  2  0
 27 28  1  0
 17 11  2  0
 28 19  2  0
  1 29  1  0
  1 30  1  0
  1 31  1  0
  2 32  1  0
  5 33  1  0
  6 34  1  0
  6 35  1  0
  7 36  1  0
 10 37  1  0
 12 38  1  0
 13 39  1  0
 16 40  1  0
 17 41  1  0
 18 42  1  0
 18 43  1  0
 20 44  1  0
 21 45  1  0
 27 46  1  0
 28 47  1  0
M  END
$$$$
OCNT-2309207
     RDKit          3D

 48 50  0  0  0  0  0  0  0  0999 V2000
    6.8687    2.0567    0.4013 C   0  0  0  0  0  0  0  0  0  0  0  0
    6.2696    0.8728    1.1449 C   0  0  0  0  0  0  0  0  0  0  0  0
    4.9348    0.4698    0.5740 C   0  0  0  0  0  0  0  0  0  0  0  0
    3.7540    1.0568    1.0397 C   0  0  0  0  0  0  0  0  0  0  0  0
    2.5190    0.6894    0.4970 C   0  0  0  0  0  0  0  0  0  0  0  0
    2.4416   -0.2679   -0.5207 C   0  0  0  0  0  0  0  0  0  0  0  0
    1.1627   -0.5770   -1.0138 N   0  0  0  0  0  0  0  0  0  0  0  0
    0.8044   -1.5573   -1.9172 C   0  0  0  0  0  0  0  0  0  0  0  0
    1.5581   -2.3405   -2.4896 O   0  0  0  0  0  0  0  0  0  0  0  0
   -0.7013   -1.5716   -2.2278 C   0  0  0  0  0  0  0  0  0  0  0  0
   -1.5165   -0.9095   -1.1728 N   0  0  0  0  0  0  0  0  0  0  0  0
   -1.6567   -1.7687    0.0112 C   0  0  0  0  0  0  0  0  0  0  0  0
   -1.6291   -0.8525    1.2215 C   0  0  0  0  0  0  0  0  0  0  0  0
   -0.6838   -0.9420    2.0148 O   0  0  0  0  0  0  0  0  0  0  0  0
   -2.6615    0.0647    1.4025 N   0  0  0  0  0  0  0  0  0  0  0  0
   -2.5519    0.8973    2.6000 C   0  0  0  0  0  0  0  0  0  0  0  0
   -3.8438    0.1853    0.5930 C   0  0  0  0  0  0  0  0  0  0  0  0
   -5.0156    0.6760    1.2235 C   0  0  0  0  0  0  0  0  0  0  0  0
   -6.2320    0.8307    0.5543 C   0  0  0  0  0  0  0  0  0  0  0  0
   -6.3202    0.5000   -0.7823 C   0  0  0  0  0  0  0  0  0  0  0  0
   -5.1889    0.0215   -1.4334 C   0  0  0  0  0  0  0  0  0  0  0  0
   -3.9377   -0.1456   -0.7744 C   0  0  0  0  0  0  0  0  0  0  0  0
   -2.8448   -0.6218   -1.7130 C   0  0  0  0  0  0  0  0  0  0  0  0
    3.6187   -0.8499   -0.9897 C   0  0  0  0  0  0  0  0  0  0  0  0
    4.8561   -0.4819   -0.4489 C   0  0  0  0  0  0  0  0  0  0  0  0
    7.8367    2.3258    0.8359 H   0  0  0  0  0  0  0  0  0  0  0  0
    6.2155    2.9341    0.4582 H   0  0  0  0  0  0  0  0  0  0  0  0
    7.0250    1.8230   -0.6574 H   0  0  0  0  0  0  0  0  0  0  0  0
    6.1560    1.1209    2.2074 H   0  0  0  0  0  0  0  0  0  0  0  0
    6.9609    0.0220    1.1051 H   0  0  0  0  0  0  0  0  0  0  0  0
    3.7849    1.8011    1.8319 H   0  0  0  0  0  0  0  0  0  0  0  0
    1.6177    1.1528    0.8904 H   0  0  0  0  0  0  0  0  0  0  0  0
    0.3761   -0.0762   -0.6093 H   0  0  0  0  0  0  0  0  0  0  0  0
   -0.8059   -1.0308   -3.1771 H   0  0  0  0  0  0  0  0  0  0  0  0
   -1.0230   -2.6088   -2.3817 H   0  0  0  0  0  0  0  0  0  0  0  0
   -2.5505   -2.4039    0.0168 H   0  0  0  0  0  0  0  0  0  0  0  0
   -0.8019   -2.4490    0.1189 H   0  0  0  0  0  0  0  0  0  0  0  0
   -2.9528    1.8988    2.4119 H   0  0  0  0  0  0  0  0  0  0  0  0
   -1.5077    1.0307    2.9009 H   0  0  0  0  0  0  0  0  0  0  0  0
   -3.0841    0.4122    3.4245 H   0  0  0  0  0  0  0  0  0  0  0  0
   -5.0238    0.9222    2.2826 H   0  0  0  0  0  0  0  0  0  0  0  0
   -7.1035    1.2026    1.0866 H   0  0  0  0  0  0  0  0  0  0  0  0
   -7.2578    0.6150   -1.3192 H   0  0  0  0  0  0  0  0  0  0  0  0
   -5.2780   -0.2207   -2.4931 H   0  0  0  0  0  0  0  0  0  0  0  0
   -2.7277    0.1553   -2.4806 H   0  0  0  0  0  0  0  0  0  0  0  0
   -3.2286   -1.5224   -2.2157 H   0  0  0  0  0  0  0  0  0  0  0  0
    3.6097   -1.5909   -1.7826 H   0  0  0  0  0  0  0  0  0  0  0  0
    5.7589   -0.9489   -0.8365 H   0  0  0  0  0  0  0  0  0  0  0  0
  1  2  1  0
  2  3  1  0
  3  4  1  0
  4  5  2  0
  5  6  1  0
  6  7  1  0
  7  8  1  0
  8  9  2  0
  8 10  1  0
 10 11  1  0
 11 12  1  0
 12 13  1  0
 13 14  2  0
 13 15  1  0
 15 16  1  0
 15 17  1  0
 17 18  2  0
 18 19  1  0
 19 20  2  0
 20 21  1  0
 21 22  2  0
 22 23  1  0
  6 24  2  0
 24 25  1  0
 25  3  2  0
 23 11  1  0
 22 17  1  0
  1 26  1  0
  1 27  1  0
  1 28  1  0
  2 29  1  0
  2 30  1  0
  4 31  1  0
  5 32  1  0
  7 33  1  0
 10 34  1  0
 10 35  1  0
 12 36  1  0
 12 37  1  0
 16 38  1  0
 16 39  1  0
 16 40  1  0
 18 41  1  0
 19 42  1  0
 20 43  1  0
 21 44  1  0
 23 45  1  0
 23 46  1  0
 24 47  1  0
 25 48  1  0
M  END
$$$$
OCNT-2309214
     RDKit          3D

 46 48  0  0  0  0  0  0  0  0999 V2000
    5.8824   -1.1443    0.4878 C   0  0  0  0  0  0  0  0  0  0  0  0
    5.6674   -0.1798   -0.5356 O   0  0  0  0  0  0  0  0  0  0  0  0
    4.4683    0.4779   -0.5264 C   0  0  0  0  0  0  0  0  0  0  0  0
    4.3363    1.4634   -1.5117 C   0  0  0  0  0  0  0  0  0  0  0  0
    3.1663    2.2188   -1.6216 C   0  0  0  0  0  0  0  0  0  0  0  0
    2.1111    1.9893   -0.7441 C   0  0  0  0  0  0  0  0  0  0  0  0
    2.2405    0.9991    0.2341 C   0  0  0  0  0  0  0  0  0  0  0  0
    0.8805    0.7033    1.3359 S   0  0  0  0  0  0  0  0  0  0  0  0
    0.5666    1.9714    1.9586 O   0  0  0  0  0  0  0  0  0  0  0  0
    1.1879   -0.4627    2.1363 O   0  0  0  0  0  0  0  0  0  0  0  0
   -0.3793    0.2982    0.2787 N   0  0  0  0  0  0  0  0  0  0  0  0
   -0.2166   -0.9369   -0.5480 C   0  0  0  0  0  0  0  0  0  0  0  0
   -0.5995   -2.2218    0.2105 C   0  0  0  0  0  0  0  0  0  0  0  0
   -1.9659   -2.1701    0.7599 N   0  0  0  0  0  0  0  0  0  0  0  0
   -2.2599   -3.3747    1.5340 C   0  0  0  0  0  0  0  0  0  0  0  0
   -2.1275   -0.9578    1.5960 C   0  0  0  0  0  0  0  0  0  0  0  0
   -1.7546    0.3824    0.8840 C   0  0  0  0  0  0  0  0  0  0  0  0
   -2.7494    0.9280   -0.1388 C   0  0  0  0  0  0  0  0  0  0  0  0
   -2.6321    2.2771   -0.5251 C   0  0  0  0  0  0  0  0  0  0  0  0
   -3.5052    2.8384   -1.4585 C   0  0  0  0  0  0  0  0  0  0  0  0
   -4.5088    2.0593   -2.0263 C   0  0  0  0  0  0  0  0  0  0  0  0
   -4.6360    0.7209   -1.6626 C   0  0  0  0  0  0  0  0  0  0  0  0
   -3.7624    0.1583   -0.7274 C   0  0  0  0  0  0  0  0  0  0  0  0
    3.4130    0.2432    0.3532 C   0  0  0  0  0  0  0  0  0  0  0  0
    5.8336   -0.6852    1.4808 H   0  0  0  0  0  0  0  0  0  0  0  0
    6.8901   -1.5506    0.3577 H   0  0  0  0  0  0  0  0  0  0  0  0
    5.1744   -1.9751    0.4001 H   0  0  0  0  0  0  0  0  0  0  0  0
    5.1595    1.6470   -2.1990 H   0  0  0  0  0  0  0  0  0  0  0  0
    3.0835    2.9837   -2.3896 H   0  0  0  0  0  0  0  0  0  0  0  0
    1.1969    2.5736   -0.8231 H   0  0  0  0  0  0  0  0  0  0  0  0
    0.8109   -1.0200   -0.9157 H   0  0  0  0  0  0  0  0  0  0  0  0
   -0.8413   -0.8329   -1.4439 H   0  0  0  0  0  0  0  0  0  0  0  0
    0.1278   -2.4168    1.0066 H   0  0  0  0  0  0  0  0  0  0  0  0
   -0.5285   -3.0605   -0.4930 H   0  0  0  0  0  0  0  0  0  0  0  0
   -1.5867   -3.4942    2.3905 H   0  0  0  0  0  0  0  0  0  0  0  0
   -3.2900   -3.3486    1.9061 H   0  0  0  0  0  0  0  0  0  0  0  0
   -2.1756   -4.2659    0.9025 H   0  0  0  0  0  0  0  0  0  0  0  0
   -3.1653   -0.8956    1.9478 H   0  0  0  0  0  0  0  0  0  0  0  0
   -1.4985   -1.0539    2.4917 H   0  0  0  0  0  0  0  0  0  0  0  0
   -1.7518    1.1358    1.6838 H   0  0  0  0  0  0  0  0  0  0  0  0
   -1.8488    2.8983   -0.0929 H   0  0  0  0  0  0  0  0  0  0  0  0
   -3.3994    3.8822   -1.7415 H   0  0  0  0  0  0  0  0  0  0  0  0
   -5.1894    2.4930   -2.7538 H   0  0  0  0  0  0  0  0  0  0  0  0
   -5.4156    0.1091   -2.1093 H   0  0  0  0  0  0  0  0  0  0  0  0
   -3.8874   -0.8922   -0.4780 H   0  0  0  0  0  0  0  0  0  0  0  0
    3.4788   -0.5121    1.1294 H   0  0  0  0  0  0  0  0  0  0  0  0
  1  2  1  0
  2  3  1  0
  3  4  1  0
  4  5  2  0
  5  6  1  0
  6  7  2  0
  7  8  1  0
  8  9  2  0
  8 10  2  0
  8 11  1  0
 11 12  1  0
 12 13  1  0
 13 14  1  0
 14 15  1  0
 14 16  1  0
 16 17  1  0
 17 18  1  0
 18 19  2  0
 19 20  1  0
 20 21  2  0
 21 22  1  0
 22 23  2  0
  7 24  1  0
 24  3  2  0
 17 11  1  0
 23 18  1  0
  1 25  1  0
  1 26  1  0
  1 27  1  0
  4 28  1  0
  5 29  1  0
  6 30  1  0
 12 31  1  0
 12 32  1  0
 13 33  1  0
 13 34  1  0
 15 35  1  0
 15 36  1  0
 15 37  1  0
 16 38  1  0
 16 39  1  0
 17 40  1  0
 19 41  1  0
 20 42  1  0
 21 43  1  0
 22 44  1  0
 23 45  1  0
 24 46  1  0
M  END
$$$$
OCNT-2309246
     RDKit          3D

 42 46  0  0  0  0  0  0  0  0999 V2000
    1.5585    0.4041    2.0033 O   0  0  0  0  0  0  0  0  0  0  0  0
    1.3698   -0.1603    0.9271 C   0  0  0  0  0  0  0  0  0  0  0  0
    2.4976   -0.5732    0.1211 C   0  0  0  0  0  0  0  0  0  0  0  0
    2.6850   -1.7306   -0.6147 C   0  0  0  0  0  0  0  0  0  0  0  0
    3.9016   -1.7502   -1.2394 N   0  0  0  0  0  0  0  0  0  0  0  0
    4.4986   -0.6423   -0.8586 C   0  0  0  0  0  0  0  0  0  0  0  0
    5.7882   -0.1255   -1.1719 C   0  0  0  0  0  0  0  0  0  0  0  0
    6.1844    1.0510   -0.6502 C   0  0  0  0  0  0  0  0  0  0  0  0
    5.3217    1.8162    0.2341 C   0  0  0  0  0  0  0  0  0  0  0  0
    4.1030    1.3354    0.5331 C   0  0  0  0  0  0  0  0  0  0  0  0
    3.6921    0.1130   -0.0069 N   0  0  0  0  0  0  0  0  0  0  0  0
    0.0871   -0.4152    0.4152 N   0  0  0  0  0  0  0  0  0  0  0  0
   -0.1657   -0.5036   -1.0275 C   0  0  0  0  0  0  0  0  0  0  0  0
   -1.4195    0.2573   -1.4319 C   0  0  0  0  0  0  0  0  0  0  0  0
   -2.5850   -0.2560   -0.7220 N   0  0  0  0  0  0  0  0  0  0  0  0
   -3.9207   -0.0202   -1.2950 C   0  0  0  0  0  0  0  0  0  0  0  0
   -4.2103    1.0235   -2.3435 C   0  0  0  0  0  0  0  0  0  0  0  0
   -4.7141    1.2136   -0.9473 C   0  0  0  0  0  0  0  0  0  0  0  0
   -2.3872   -0.4998    0.6656 C   0  0  0  0  0  0  0  0  0  0  0  0
   -3.4974   -0.7291    1.5040 C   0  0  0  0  0  0  0  0  0  0  0  0
   -3.3531   -0.9476    2.8740 C   0  0  0  0  0  0  0  0  0  0  0  0
   -2.0876   -0.9581    3.4380 C   0  0  0  0  0  0  0  0  0  0  0  0
   -0.9656   -0.7625    2.6314 C   0  0  0  0  0  0  0  0  0  0  0  0
   -1.0858   -0.5349    1.2479 C   0  0  0  0  0  0  0  0  0  0  0  0
    1.9956   -2.5590   -0.7243 H   0  0  0  0  0  0  0  0  0  0  0  0
    6.4296   -0.7010   -1.8294 H   0  0  0  0  0  0  0  0  0  0  0  0
    7.1661    1.4557   -0.8777 H   0  0  0  0  0  0  0  0  0  0  0  0
    5.6801    2.7577    0.6367 H   0  0  0  0  0  0  0  0  0  0  0  0
    3.4160    1.8578    1.1876 H   0  0  0  0  0  0  0  0  0  0  0  0
    0.6753   -0.0880   -1.5914 H   0  0  0  0  0  0  0  0  0  0  0  0
   -0.2590   -1.5666   -1.2819 H   0  0  0  0  0  0  0  0  0  0  0  0
   -1.5558    0.1429   -2.5136 H   0  0  0  0  0  0  0  0  0  0  0  0
   -1.3008    1.3280   -1.2216 H   0  0  0  0  0  0  0  0  0  0  0  0
   -4.4759   -0.9514   -1.3927 H   0  0  0  0  0  0  0  0  0  0  0  0
   -3.4266    1.6903   -2.6787 H   0  0  0  0  0  0  0  0  0  0  0  0
   -4.9316    0.7739   -3.1134 H   0  0  0  0  0  0  0  0  0  0  0  0
   -5.7753    1.0951   -0.7650 H   0  0  0  0  0  0  0  0  0  0  0  0
   -4.2382    1.9689   -0.3327 H   0  0  0  0  0  0  0  0  0  0  0  0
   -4.5044   -0.7367    1.0978 H   0  0  0  0  0  0  0  0  0  0  0  0
   -4.2301   -1.1120    3.4940 H   0  0  0  0  0  0  0  0  0  0  0  0
   -1.9641   -1.1340    4.5034 H   0  0  0  0  0  0  0  0  0  0  0  0
    0.0037   -0.8264    3.1169 H   0  0  0  0  0  0  0  0  0  0  0  0
  1  2  2  0
  2  3  1  0
  3  4  2  0
  4  5  1  0
  5  6  2  0
  6  7  1  0
  7  8  2  0
  8  9  1  0
  9 10  2  0
 10 11  1  0
  2 12  1  0
 12 13  1  0
 13 14  1  0
 14 15  1  0
 15 16  1  0
 16 17  1  0
 17 18  1  0
 15 19  1  0
 19 20  2  0
 20 21  1  0
 21 22  2  0
 22 23  1  0
 23 24  2  0
 11  3  1  0
 24 12  1  0
 11  6  1  0
 18 16  1  0
 24 19  1  0
  4 25  1  0
  7 26  1  0
  8 27  1  0
  9 28  1  0
 10 29  1  0
 13 30  1  0
 13 31  1  0
 14 32  1  0
 14 33  1  0
 16 34  1  0
 17 35  1  0
 17 36  1  0
 18 37  1  0
 18 38  1  0
 20 39  1  0
 21 40  1  0
 22 41  1  0
 23 42  1  0
M  END
$$$$
OCNT-2309252
     RDKit          3D

 41 43  0  0  0  0  0  0  0  0999 V2000
   -0.4556   -2.9185   -0.1309 O   0  0  0  0  0  0  0  0  0  0  0  0
   -0.2334   -1.7058   -0.1750 C   0  0  0  0  0  0  0  0  0  0  0  0
   -1.3580   -0.7664   -0.0227 C   0  0  0  0  0  0  0  0  0  0  0  0
   -1.2322    0.5305    0.3033 N   0  0  0  0  0  0  0  0  0  0  0  0
   -2.5127    1.0383    0.3781 O   0  0  0  0  0  0  0  0  0  0  0  0
   -3.4221    0.0551    0.1256 C   0  0  0  0  0  0  0  0  0  0  0  0
   -4.8294    0.4333    0.1802 C   0  0  0  0  0  0  0  0  0  0  0  0
   -5.2225    1.7432    0.4728 C   0  0  0  0  0  0  0  0  0  0  0  0
   -6.5747    2.0444    0.5095 C   0  0  0  0  0  0  0  0  0  0  0  0
   -7.5499    1.1428    0.2775 N   0  0  0  0  0  0  0  0  0  0  0  0
   -7.1562   -0.1158   -0.0017 C   0  0  0  0  0  0  0  0  0  0  0  0
   -5.8295   -0.5136   -0.0612 C   0  0  0  0  0  0  0  0  0  0  0  0
   -2.7360   -1.1084   -0.1256 C   0  0  0  0  0  0  0  0  0  0  0  0
    1.0720   -1.2276   -0.3635 N   0  0  0  0  0  0  0  0  0  0  0  0
    2.1688   -2.1885   -0.2819 C   0  0  0  0  0  0  0  0  0  0  0  0
    3.4536   -1.5202    0.1941 C   0  0  0  0  0  0  0  0  0  0  0  0
    3.9119   -0.4303   -0.7883 C   0  0  0  0  0  0  0  0  0  0  0  0
    4.8909    0.5668   -0.1421 C   0  0  0  0  0  0  0  0  0  0  0  0
    4.2924    1.5109    0.8965 C   0  0  0  0  0  0  0  0  0  0  0  0
    5.3183    2.3423    1.4264 O   0  0  0  0  0  0  0  0  0  0  0  0
    2.7271    0.2460   -1.5014 C   0  0  0  0  0  0  0  0  0  0  0  0
    1.4123    0.1496   -0.7268 C   0  0  0  0  0  0  0  0  0  0  0  0
   -4.4987    2.5270    0.6719 H   0  0  0  0  0  0  0  0  0  0  0  0
   -6.9173    3.0508    0.7338 H   0  0  0  0  0  0  0  0  0  0  0  0
   -7.9610   -0.8229   -0.1829 H   0  0  0  0  0  0  0  0  0  0  0  0
   -5.5978   -1.5475   -0.2922 H   0  0  0  0  0  0  0  0  0  0  0  0
   -3.1432   -2.0830   -0.3505 H   0  0  0  0  0  0  0  0  0  0  0  0
    2.3018   -2.6274   -1.2779 H   0  0  0  0  0  0  0  0  0  0  0  0
    1.9027   -3.0007    0.4036 H   0  0  0  0  0  0  0  0  0  0  0  0
    4.2460   -2.2702    0.3028 H   0  0  0  0  0  0  0  0  0  0  0  0
    3.2800   -1.1019    1.1917 H   0  0  0  0  0  0  0  0  0  0  0  0
    4.4894   -0.9382   -1.5748 H   0  0  0  0  0  0  0  0  0  0  0  0
    5.3545    1.1714   -0.9333 H   0  0  0  0  0  0  0  0  0  0  0  0
    5.7227    0.0150    0.3154 H   0  0  0  0  0  0  0  0  0  0  0  0
    3.8506    0.9639    1.7328 H   0  0  0  0  0  0  0  0  0  0  0  0
    3.5238    2.1575    0.4638 H   0  0  0  0  0  0  0  0  0  0  0  0
    5.6843    2.8646    0.6923 H   0  0  0  0  0  0  0  0  0  0  0  0
    2.9504    1.2916   -1.7417 H   0  0  0  0  0  0  0  0  0  0  0  0
    2.5825   -0.2579   -2.4673 H   0  0  0  0  0  0  0  0  0  0  0  0
    0.6184    0.5723   -1.3498 H   0  0  0  0  0  0  0  0  0  0  0  0
    1.4760    0.7275    0.2013 H   0  0  0  0  0  0  0  0  0  0  0  0
  1  2  2  0
  2  3  1  0
  3  4  2  0
  4  5  1  0
  5  6  1  0
  6  7  1  0
  7  8  2  0
  8  9  1  0
  9 10  2  0
 10 11  1  0
 11 12  2  0
  6 13  2  0
  2 14  1  0
 14 15  1  0
 15 16  1  0
 16 17  1  0
 17 18  1  0
 18 19  1  0
 19 20  1  0
 17 21  1  0
 21 22  1  0
 13  3  1  0
 22 14  1  0
 12  7  1  0
  8 23  1  0
  9 24  1  0
 11 25  1  0
 12 26  1  0
 13 27  1  0
 15 28  1  0
 15 29  1  0
 16 30  1  0
 16 31  1  0
 17 32  1  0
 18 33  1  0
 18 34  1  0
 19 35  1  0
 19 36  1  0
 20 37  1  0
 21 38  1  0
 21 39  1  0
 22 40  1  0
 22 41  1  0
M  END
$$$$
OCNT-2309256
     RDKit          3D

 45 47  0  0  0  0  0  0  0  0999 V2000
    3.3840   -1.7458    2.0982 C   0  0  0  0  0  0  0  0  0  0  0  0
    2.6645   -1.3297    0.9460 O   0  0  0  0  0  0  0  0  0  0  0  0
    3.3178   -0.4435    0.1496 C   0  0  0  0  0  0  0  0  0  0  0  0
    2.7555   -0.0587   -1.0514 C   0  0  0  0  0  0  0  0  0  0  0  0
    1.5028   -0.4685   -1.6607 C   0  0  0  0  0  0  0  0  0  0  0  0
    1.4766   -1.0873   -2.7258 O   0  0  0  0  0  0  0  0  0  0  0  0
    0.3121   -0.1140   -1.0016 N   0  0  0  0  0  0  0  0  0  0  0  0
    0.2694    0.9031    0.0476 C   0  0  0  0  0  0  0  0  0  0  0  0
   -1.1493    1.3111    0.4394 C   0  0  0  0  0  0  0  0  0  0  0  0
   -2.0043    0.0594    0.6797 C   0  0  0  0  0  0  0  0  0  0  0  0
   -2.0166   -0.8796   -0.5629 C   0  0  0  0  0  0  0  0  0  0  0  0
   -3.3903   -0.9686   -1.2375 C   0  0  0  0  0  0  0  0  0  0  0  0
   -4.5147   -1.2712   -0.2481 C   0  0  0  0  0  0  0  0  0  0  0  0
   -4.1730   -0.8891    1.1923 C   0  0  0  0  0  0  0  0  0  0  0  0
   -3.3260    0.3018    1.2990 N   0  0  0  0  0  0  0  0  0  0  0  0
   -4.0170    1.5125    0.8668 C   0  0  0  0  0  0  0  0  0  0  0  0
   -0.9550   -0.4973   -1.6069 C   0  0  0  0  0  0  0  0  0  0  0  0
    3.7707    1.0137   -1.9165 S   0  0  0  0  0  0  0  0  0  0  0  0
    4.9432    1.0178   -0.6726 C   0  0  0  0  0  0  0  0  0  0  0  0
    6.1771    1.8399   -0.8194 C   0  0  0  0  0  0  0  0  0  0  0  0
    4.5769    0.1943    0.3731 C   0  0  0  0  0  0  0  0  0  0  0  0
    2.7716   -2.4820    2.6278 H   0  0  0  0  0  0  0  0  0  0  0  0
    3.5577   -0.9056    2.7789 H   0  0  0  0  0  0  0  0  0  0  0  0
    4.3270   -2.2310    1.8243 H   0  0  0  0  0  0  0  0  0  0  0  0
    0.8256    1.7847   -0.2903 H   0  0  0  0  0  0  0  0  0  0  0  0
    0.7828    0.5035    0.9276 H   0  0  0  0  0  0  0  0  0  0  0  0
   -1.1013    1.9316    1.3423 H   0  0  0  0  0  0  0  0  0  0  0  0
   -1.5861    1.9271   -0.3565 H   0  0  0  0  0  0  0  0  0  0  0  0
   -1.4577   -0.5038    1.4526 H   0  0  0  0  0  0  0  0  0  0  0  0
   -1.7722   -1.8884   -0.1977 H   0  0  0  0  0  0  0  0  0  0  0  0
   -3.3815   -1.7336   -2.0237 H   0  0  0  0  0  0  0  0  0  0  0  0
   -3.6098   -0.0220   -1.7472 H   0  0  0  0  0  0  0  0  0  0  0  0
   -4.7505   -2.3420   -0.2787 H   0  0  0  0  0  0  0  0  0  0  0  0
   -5.4219   -0.7472   -0.5732 H   0  0  0  0  0  0  0  0  0  0  0  0
   -3.6581   -1.7304    1.6757 H   0  0  0  0  0  0  0  0  0  0  0  0
   -5.0972   -0.7564    1.7685 H   0  0  0  0  0  0  0  0  0  0  0  0
   -4.1690    1.5623   -0.2150 H   0  0  0  0  0  0  0  0  0  0  0  0
   -4.9983    1.5888    1.3496 H   0  0  0  0  0  0  0  0  0  0  0  0
   -3.4665    2.4069    1.1766 H   0  0  0  0  0  0  0  0  0  0  0  0
   -1.2856    0.3546   -2.2148 H   0  0  0  0  0  0  0  0  0  0  0  0
   -0.8161   -1.3373   -2.2971 H   0  0  0  0  0  0  0  0  0  0  0  0
    6.7551    1.5204   -1.6928 H   0  0  0  0  0  0  0  0  0  0  0  0
    6.8198    1.7412    0.0617 H   0  0  0  0  0  0  0  0  0  0  0  0
    5.9268    2.8998   -0.9336 H   0  0  0  0  0  0  0  0  0  0  0  0
    5.2011    0.0587    1.2470 H   0  0  0  0  0  0  0  0  0  0  0  0
  1  2  1  0
  2  3  1  0
  3  4  2  0
  4  5  1  0
  5  6  2  0
  5  7  1  0
  7  8  1  0
  8  9  1  0
  9 10  1  0
 10 11  1  0
 11 12  1  0
 12 13  1  0
 13 14  1  0
 14 15  1  0
 15 16  1  0
 11 17  1  0
  4 18  1  0
 18 19  1  0
 19 20  1  0
 19 21  2  0
 21  3  1  0
 17  7  1  0
 15 10  1  0
  1 22  1  0
  1 23  1  0
  1 24  1  0
  8 25  1  0
  8 26  1  0
  9 27  1  0
  9 28  1  0
 10 29  1  0
 11 30  1  0
 12 31  1  0
 12 32  1  0
 13 33  1  0
 13 34  1  0
 14 35  1  0
 14 36  1  0
 16 37  1  0
 16 38  1  0
 16 39  1  0
 17 40  1  0
 17 41  1  0
 20 42  1  0
 20 43  1  0
 20 44  1  0
 21 45  1  0
M  END
$$$$
OCNT-2309262
     RDKit          3D

 34 36  0  0  0  0  0  0  0  0999 V2000
   -3.3466   -2.1221    2.6885 O   0  0  0  0  0  0  0  0  0  0  0  0
   -2.4704   -1.9798    1.5443 S   0  0  0  0  0  0  0  0  0  0  0  0
   -2.4423   -2.9726    0.4927 O   0  0  0  0  0  0  0  0  0  0  0  0
   -0.9168   -1.7680    2.1696 N   0  0  0  0  0  0  0  0  0  0  0  0
    0.1266   -1.3088    1.3211 C   0  0  0  0  0  0  0  0  0  0  0  0
    0.7093   -0.0674    1.5789 C   0  0  0  0  0  0  0  0  0  0  0  0
    1.7098    0.4314    0.7364 C   0  0  0  0  0  0  0  0  0  0  0  0
    2.1331   -0.3171   -0.3704 C   0  0  0  0  0  0  0  0  0  0  0  0
    3.1446    0.1663   -1.2489 N   0  0  0  0  0  0  0  0  0  0  0  0
    3.8397    1.3565   -1.1772 C   0  0  0  0  0  0  0  0  0  0  0  0
    4.7091    1.3847   -2.2419 C   0  0  0  0  0  0  0  0  0  0  0  0
    4.4804    0.1766   -2.9126 C   0  0  0  0  0  0  0  0  0  0  0  0
    3.5409   -0.5635   -2.3249 N   0  0  0  0  0  0  0  0  0  0  0  0
    1.5469   -1.5685   -0.6170 C   0  0  0  0  0  0  0  0  0  0  0  0
    0.5480   -2.0610    0.2276 C   0  0  0  0  0  0  0  0  0  0  0  0
   -2.8214   -0.3986    0.8020 C   0  0  0  0  0  0  0  0  0  0  0  0
   -3.3480    0.6302    1.5908 C   0  0  0  0  0  0  0  0  0  0  0  0
   -3.6282    1.8675    1.0072 C   0  0  0  0  0  0  0  0  0  0  0  0
   -3.3908    2.0637   -0.3545 C   0  0  0  0  0  0  0  0  0  0  0  0
   -3.7308    3.5924   -1.0664 Cl  0  0  0  0  0  0  0  0  0  0  0  0
   -2.8832    1.0306   -1.1435 C   0  0  0  0  0  0  0  0  0  0  0  0
   -2.6032   -0.2099   -0.5672 C   0  0  0  0  0  0  0  0  0  0  0  0
   -0.9311   -1.4463    3.1356 H   0  0  0  0  0  0  0  0  0  0  0  0
    0.3866    0.5310    2.4266 H   0  0  0  0  0  0  0  0  0  0  0  0
    2.1311    1.4040    0.9711 H   0  0  0  0  0  0  0  0  0  0  0  0
    3.6700    2.0775   -0.3933 H   0  0  0  0  0  0  0  0  0  0  0  0
    5.4083    2.1687   -2.4954 H   0  0  0  0  0  0  0  0  0  0  0  0
    4.9589   -0.1991   -3.8083 H   0  0  0  0  0  0  0  0  0  0  0  0
    1.8588   -2.1765   -1.4654 H   0  0  0  0  0  0  0  0  0  0  0  0
    0.1140   -3.0371    0.0226 H   0  0  0  0  0  0  0  0  0  0  0  0
   -3.5467    0.4761    2.6492 H   0  0  0  0  0  0  0  0  0  0  0  0
   -4.0366    2.6715    1.6148 H   0  0  0  0  0  0  0  0  0  0  0  0
   -2.7071    1.1834   -2.2055 H   0  0  0  0  0  0  0  0  0  0  0  0
   -2.2128   -1.0156   -1.1861 H   0  0  0  0  0  0  0  0  0  0  0  0
  1  2  2  0
  2  3  2  0
  2  4  1  0
  4  5  1  0
  5  6  1  0
  6  7  2  0
  7  8  1  0
  8  9  1  0
  9 10  1  0
 10 11  2  0
 11 12  1  0
 12 13  2  0
  8 14  2  0
 14 15  1  0
  2 16  1  0
 16 17  1  0
 17 18  2  0
 18 19  1  0
 19 20  1  0
 19 21  2  0
 21 22  1  0
 15  5  2  0
 22 16  2  0
 13  9  1  0
  4 23  1  0
  6 24  1  0
  7 25  1  0
 10 26  1  0
 11 27  1  0
 12 28  1  0
 14 29  1  0
 15 30  1  0
 17 31  1  0
 18 32  1  0
 21 33  1  0
 22 34  1  0
M  END
$$$$
OCNT-2309265
     RDKit          3D

 48 51  0  0  0  0  0  0  0  0999 V2000
    4.9064   -1.2907    0.7294 C   0  0  0  0  0  0  0  0  0  0  0  0
    5.1666    0.1842    0.6597 C   0  0  0  0  0  0  0  0  0  0  0  0
    6.4668    0.6627    0.8222 C   0  0  0  0  0  0  0  0  0  0  0  0
    6.8152    1.9678    0.7875 N   0  0  0  0  0  0  0  0  0  0  0  0
    5.8191    2.8505    0.5833 C   0  0  0  0  0  0  0  0  0  0  0  0
    4.4927    2.4877    0.4159 C   0  0  0  0  0  0  0  0  0  0  0  0
    4.1463    1.1303    0.4603 C   0  0  0  0  0  0  0  0  0  0  0  0
    2.6973    0.7389    0.2638 C   0  0  0  0  0  0  0  0  0  0  0  0
    2.3550    0.5533   -1.2270 C   0  0  0  0  0  0  0  0  0  0  0  0
    1.0019    0.0770   -1.5348 N   0  0  0  0  0  0  0  0  0  0  0  0
    0.7154   -1.2904   -1.0578 C   0  0  0  0  0  0  0  0  0  0  0  0
   -0.4510   -1.4018   -0.0482 C   0  0  0  0  0  0  0  0  0  0  0  0
   -1.6723   -0.7999   -0.6050 N   0  0  0  0  0  0  0  0  0  0  0  0
   -2.8133   -0.9026    0.1876 C   0  0  0  0  0  0  0  0  0  0  0  0
   -2.7039   -1.3768    1.4605 N   0  0  0  0  0  0  0  0  0  0  0  0
   -3.8053   -1.4761    2.2313 C   0  0  0  0  0  0  0  0  0  0  0  0
   -5.0709   -1.1683    1.9108 N   0  0  0  0  0  0  0  0  0  0  0  0
   -5.1562   -0.7363    0.6414 C   0  0  0  0  0  0  0  0  0  0  0  0
   -4.1116   -0.5855   -0.2552 C   0  0  0  0  0  0  0  0  0  0  0  0
   -4.7407   -0.1474   -1.4417 C   0  0  0  0  0  0  0  0  0  0  0  0
   -6.0626    0.0112   -1.3103 N   0  0  0  0  0  0  0  0  0  0  0  0
   -6.2891   -0.3631   -0.0302 N   0  0  0  0  0  0  0  0  0  0  0  0
   -7.6349   -0.3437    0.4851 C   0  0  0  0  0  0  0  0  0  0  0  0
   -1.4857    0.4485   -1.3675 C   0  0  0  0  0  0  0  0  0  0  0  0
   -0.0624    1.0303   -1.1852 C   0  0  0  0  0  0  0  0  0  0  0  0
    5.8405   -1.8622    0.7611 H   0  0  0  0  0  0  0  0  0  0  0  0
    4.3377   -1.5319    1.6325 H   0  0  0  0  0  0  0  0  0  0  0  0
    4.3527   -1.6283   -0.1517 H   0  0  0  0  0  0  0  0  0  0  0  0
    7.2996   -0.0159    0.9909 H   0  0  0  0  0  0  0  0  0  0  0  0
    6.1218    3.8932    0.5565 H   0  0  0  0  0  0  0  0  0  0  0  0
    3.7435    3.2562    0.2545 H   0  0  0  0  0  0  0  0  0  0  0  0
    2.0658    1.5183    0.7070 H   0  0  0  0  0  0  0  0  0  0  0  0
    2.4798   -0.1689    0.8365 H   0  0  0  0  0  0  0  0  0  0  0  0
    3.0716   -0.1409   -1.6849 H   0  0  0  0  0  0  0  0  0  0  0  0
    2.5154    1.5036   -1.7533 H   0  0  0  0  0  0  0  0  0  0  0  0
    1.6050   -1.7703   -0.6326 H   0  0  0  0  0  0  0  0  0  0  0  0
    0.4542   -1.8832   -1.9441 H   0  0  0  0  0  0  0  0  0  0  0  0
   -0.6192   -2.4648    0.1655 H   0  0  0  0  0  0  0  0  0  0  0  0
   -0.1654   -0.9064    0.8893 H   0  0  0  0  0  0  0  0  0  0  0  0
   -3.6454   -1.8515    3.2376 H   0  0  0  0  0  0  0  0  0  0  0  0
   -4.2856    0.0634   -2.4002 H   0  0  0  0  0  0  0  0  0  0  0  0
   -8.2601   -0.9683   -0.1586 H   0  0  0  0  0  0  0  0  0  0  0  0
   -7.9900    0.6900    0.4762 H   0  0  0  0  0  0  0  0  0  0  0  0
   -7.6518   -0.7337    1.5053 H   0  0  0  0  0  0  0  0  0  0  0  0
   -2.1984    1.2257   -1.0653 H   0  0  0  0  0  0  0  0  0  0  0  0
   -1.6592    0.2350   -2.4291 H   0  0  0  0  0  0  0  0  0  0  0  0
    0.0324    1.9233   -1.8142 H   0  0  0  0  0  0  0  0  0  0  0  0
    0.0321    1.3577   -0.1429 H   0  0  0  0  0  0  0  0  0  0  0  0
  1  2  1  0
  2  3  2  0
  3  4  1  0
  4  5  2  0
  5  6  1  0
  6  7  2  0
  7  8  1  0
  8  9  1  0
  9 10  1  0
 10 11  1  0
 11 12  1  0
 12 13  1  0
 13 14  1  0
 14 15  1  0
 15 16  2  0
 16 17  1  0
 17 18  2  0
 18 19  1  0
 19 20  1  0
 20 21  2  0
 21 22  1  0
 22 23  1  0
 13 24  1  0
 24 25  1  0
  7  2  1  0
 25 10  1  0
 19 14  2  0
 22 18  1  0
  1 26  1  0
  1 27  1  0
  1 28  1  0
  3 29  1  0
  5 30  1  0
  6 31  1  0
  8 32  1  0
  8 33  1  0
  9 34  1  0
  9 35  1  0
 11 36  1  0
 11 37  1  0
 12 38  1  0
 12 39  1  0
 16 40  1  0
 20 41  1  0
 23 42  1  0
 23 43  1  0
 23 44  1  0
 24 45  1  0
 24 46  1  0
 25 47  1  0
 25 48  1  0
M  END
$$$$
OCNT-2309277
     RDKit          3D

 33 35  0  0  0  0  0  0  0  0999 V2000
   -0.5554   -0.9057   -2.3288 O   0  0  0  0  0  0  0  0  0  0  0  0
   -0.0704   -1.0146   -1.2025 C   0  0  0  0  0  0  0  0  0  0  0  0
   -0.8108   -1.5651   -0.1775 N   0  0  0  0  0  0  0  0  0  0  0  0
   -2.2085   -1.8959   -0.3267 C   0  0  0  0  0  0  0  0  0  0  0  0
   -3.0760   -0.7685    0.1691 C   0  0  0  0  0  0  0  0  0  0  0  0
   -3.5724   -0.7685    1.4814 C   0  0  0  0  0  0  0  0  0  0  0  0
   -4.3537    0.2935    1.9420 C   0  0  0  0  0  0  0  0  0  0  0  0
   -4.6384    1.3669    1.0996 C   0  0  0  0  0  0  0  0  0  0  0  0
   -4.1390    1.3745   -0.1967 C   0  0  0  0  0  0  0  0  0  0  0  0
   -4.4321    2.4469   -0.9862 O   0  0  0  0  0  0  0  0  0  0  0  0
   -3.3616    0.3208   -0.6686 C   0  0  0  0  0  0  0  0  0  0  0  0
    1.2820   -0.5828   -0.8593 C   0  0  0  0  0  0  0  0  0  0  0  0
    1.9778   -0.5635    0.3368 C   0  0  0  0  0  0  0  0  0  0  0  0
    1.3778   -1.0834    1.8682 Cl  0  0  0  0  0  0  0  0  0  0  0  0
    3.3201   -0.0444    0.2150 C   0  0  0  0  0  0  0  0  0  0  0  0
    4.3469    0.1418    1.1798 C   0  0  0  0  0  0  0  0  0  0  0  0
    5.5877    0.6724    0.8139 C   0  0  0  0  0  0  0  0  0  0  0  0
    5.8337    1.0264   -0.5035 C   0  0  0  0  0  0  0  0  0  0  0  0
    4.8476    0.8576   -1.4766 C   0  0  0  0  0  0  0  0  0  0  0  0
    3.5988    0.3223   -1.1018 C   0  0  0  0  0  0  0  0  0  0  0  0
    2.2579    0.0357   -2.1301 S   0  0  0  0  0  0  0  0  0  0  0  0
   -0.4437   -1.5264    0.7633 H   0  0  0  0  0  0  0  0  0  0  0  0
   -2.4463   -2.1304   -1.3702 H   0  0  0  0  0  0  0  0  0  0  0  0
   -2.3923   -2.8042    0.2578 H   0  0  0  0  0  0  0  0  0  0  0  0
   -3.3551   -1.5955    2.1538 H   0  0  0  0  0  0  0  0  0  0  0  0
   -4.7394    0.2867    2.9581 H   0  0  0  0  0  0  0  0  0  0  0  0
   -5.2441    2.1964    1.4529 H   0  0  0  0  0  0  0  0  0  0  0  0
   -4.0023    2.3186   -1.8484 H   0  0  0  0  0  0  0  0  0  0  0  0
   -2.9664    0.3339   -1.6818 H   0  0  0  0  0  0  0  0  0  0  0  0
    4.1747   -0.1287    2.2195 H   0  0  0  0  0  0  0  0  0  0  0  0
    6.3604    0.8074    1.5671 H   0  0  0  0  0  0  0  0  0  0  0  0
    6.8002    1.4392   -0.7835 H   0  0  0  0  0  0  0  0  0  0  0  0
    5.0424    1.1366   -2.5088 H   0  0  0  0  0  0  0  0  0  0  0  0
  1  2  2  0
  2  3  1  0
  3  4  1  0
  4  5  1  0
  5  6  2  0
  6  7  1  0
  7  8  2  0
  8  9  1  0
  9 10  1  0
  9 11  2  0
  2 12  1  0
 12 13  2  0
 13 14  1  0
 13 15  1  0
 15 16  2  0
 16 17  1  0
 17 18  2  0
 18 19  1  0
 19 20  2  0
 20 21  1  0
 11  5  1  0
 21 12  1  0
 20 15  1  0
  3 22  1  0
  4 23  1  0
  4 24  1  0
  6 25  1  0
  7 26  1  0
  8 27  1  0
 10 28  1  0
 11 29  1  0
 16 30  1  0
 17 31  1  0
 18 32  1  0
 19 33  1  0
M  END
$$$$
OCNT-2309284
     RDKit          3D

 46 49  0  0  0  0  0  0  0  0999 V2000
    0.7072    1.4770   -2.0819 O   0  0  0  0  0  0  0  0  0  0  0  0
    1.2639    0.4493   -1.7140 C   0  0  0  0  0  0  0  0  0  0  0  0
    0.8113   -0.8148   -2.0321 N   0  0  0  0  0  0  0  0  0  0  0  0
   -0.3656   -1.0200   -2.8537 C   0  0  0  0  0  0  0  0  0  0  0  0
   -1.6637   -1.2172   -2.0769 C   0  0  0  0  0  0  0  0  0  0  0  0
   -1.6606   -2.3807   -1.0887 C   0  0  0  0  0  0  0  0  0  0  0  0
   -2.9084   -2.1114   -0.2467 C   0  0  0  0  0  0  0  0  0  0  0  0
   -3.0306   -0.6548   -0.2468 N   0  0  0  0  0  0  0  0  0  0  0  0
   -3.8271    0.0560    0.6196 C   0  0  0  0  0  0  0  0  0  0  0  0
   -4.7675   -0.5824    1.4513 C   0  0  0  0  0  0  0  0  0  0  0  0
   -5.5870    0.1316    2.3354 C   0  0  0  0  0  0  0  0  0  0  0  0
   -5.4791    1.5107    2.4009 C   0  0  0  0  0  0  0  0  0  0  0  0
   -6.2611    2.1964    3.2456 F   0  0  0  0  0  0  0  0  0  0  0  0
   -4.5673    2.1698    1.5941 C   0  0  0  0  0  0  0  0  0  0  0  0
   -4.4574    3.5047    1.6527 F   0  0  0  0  0  0  0  0  0  0  0  0
   -3.7533    1.4556    0.7143 C   0  0  0  0  0  0  0  0  0  0  0  0
   -2.0964   -0.0398   -1.1973 C   0  0  0  0  0  0  0  0  0  0  0  0
    2.4659    0.5222   -0.8402 C   0  0  0  0  0  0  0  0  0  0  0  0
    2.5982    1.6188    0.0182 C   0  0  0  0  0  0  0  0  0  0  0  0
    3.7131    1.7308    0.8543 C   0  0  0  0  0  0  0  0  0  0  0  0
    4.7151    0.7486    0.8294 C   0  0  0  0  0  0  0  0  0  0  0  0
    5.8392    0.8794    1.6814 N   0  0  0  0  0  0  0  0  0  0  0  0
    6.9304    0.0592    1.8218 C   0  0  0  0  0  0  0  0  0  0  0  0
    7.7354    0.5556    2.7327 N   0  0  0  0  0  0  0  0  0  0  0  0
    7.1365    1.7073    3.1682 N   0  0  0  0  0  0  0  0  0  0  0  0
    5.9881    1.9144    2.5395 N   0  0  0  0  0  0  0  0  0  0  0  0
    4.5917   -0.3430   -0.0430 C   0  0  0  0  0  0  0  0  0  0  0  0
    3.4707   -0.4523   -0.8764 C   0  0  0  0  0  0  0  0  0  0  0  0
    1.2195   -1.6203   -1.5781 H   0  0  0  0  0  0  0  0  0  0  0  0
   -0.1642   -1.9119   -3.4575 H   0  0  0  0  0  0  0  0  0  0  0  0
   -0.4737   -0.1755   -3.5437 H   0  0  0  0  0  0  0  0  0  0  0  0
   -2.4615   -1.4028   -2.8111 H   0  0  0  0  0  0  0  0  0  0  0  0
   -1.6991   -3.3569   -1.5810 H   0  0  0  0  0  0  0  0  0  0  0  0
   -0.7719   -2.3561   -0.4470 H   0  0  0  0  0  0  0  0  0  0  0  0
   -3.7919   -2.5618   -0.7131 H   0  0  0  0  0  0  0  0  0  0  0  0
   -2.7779   -2.5256    0.7589 H   0  0  0  0  0  0  0  0  0  0  0  0
   -4.8886   -1.6619    1.4174 H   0  0  0  0  0  0  0  0  0  0  0  0
   -6.3050   -0.3843    2.9644 H   0  0  0  0  0  0  0  0  0  0  0  0
   -3.0540    2.0256    0.1113 H   0  0  0  0  0  0  0  0  0  0  0  0
   -2.5743    0.7335   -1.8086 H   0  0  0  0  0  0  0  0  0  0  0  0
   -1.2614    0.3965   -0.6419 H   0  0  0  0  0  0  0  0  0  0  0  0
    1.8306    2.3914    0.0404 H   0  0  0  0  0  0  0  0  0  0  0  0
    3.7808    2.5960    1.5132 H   0  0  0  0  0  0  0  0  0  0  0  0
    7.0911   -0.8493    1.2649 H   0  0  0  0  0  0  0  0  0  0  0  0
    5.3479   -1.1204   -0.1108 H   0  0  0  0  0  0  0  0  0  0  0  0
    3.4123   -1.2870   -1.5703 H   0  0  0  0  0  0  0  0  0  0  0  0
  1  2  2  0
  2  3  1  0
  3  4  1  0
  4  5  1  0
  5  6  1  0
  6  7  1  0
  7  8  1  0
  8  9  1  0
  9 10  1  0
 10 11  2  0
 11 12  1  0
 12 13  1  0
 12 14  2  0
 14 15  1  0
 14 16  1  0
  8 17  1  0
  2 18  1  0
 18 19  1  0
 19 20  2  0
 20 21  1  0
 21 22  1  0
 22 23  1  0
 23 24  2  0
 24 25  1  0
 25 26  2  0
 21 27  2  0
 27 28  1  0
 17  5  1  0
 28 18  2  0
 16  9  2  0
 26 22  1  0
  3 29  1  0
  4 30  1  0
  4 31  1  0
  5 32  1  0
  6 33  1  0
  6 34  1  0
  7 35  1  0
  7 36  1  0
 10 37  1  0
 11 38  1  0
 16 39  1  0
 17 40  1  0
 17 41  1  0
 19 42  1  0
 20 43  1  0
 23 44  1  0
 27 45  1  0
 28 46  1  0
M  END
$$$$
OCNT-2309291
     RDKit          3D

 43 45  0  0  0  0  0  0  0  0999 V2000
    5.3901    1.6671    1.1289 C   0  0  0  0  0  0  0  0  0  0  0  0
    4.0590    1.3442    0.5190 C   0  0  0  0  0  0  0  0  0  0  0  0
    3.3375    2.3166   -0.1786 C   0  0  0  0  0  0  0  0  0  0  0  0
    2.1128    1.9962   -0.7634 C   0  0  0  0  0  0  0  0  0  0  0  0
    1.6019    0.6989   -0.6685 C   0  0  0  0  0  0  0  0  0  0  0  0
    2.3139   -0.2853    0.0173 C   0  0  0  0  0  0  0  0  0  0  0  0
    1.9358   -1.5888    0.1951 O   0  0  0  0  0  0  0  0  0  0  0  0
    0.6566   -1.9935   -0.2911 C   0  0  0  0  0  0  0  0  0  0  0  0
    0.6026   -3.5147   -0.1733 C   0  0  0  0  0  0  0  0  0  0  0  0
   -0.5167   -1.4056    0.5228 C   0  0  0  0  0  0  0  0  0  0  0  0
   -0.3936   -1.1022    1.7142 O   0  0  0  0  0  0  0  0  0  0  0  0
   -1.7146   -1.2021   -0.1324 N   0  0  0  0  0  0  0  0  0  0  0  0
   -2.0471   -1.5478   -1.5080 C   0  0  0  0  0  0  0  0  0  0  0  0
   -3.4449   -0.9893   -1.7364 C   0  0  0  0  0  0  0  0  0  0  0  0
   -4.0471   -0.9731   -0.3353 C   0  0  0  0  0  0  0  0  0  0  0  0
   -2.8596   -0.6043    0.5561 C   0  0  0  0  0  0  0  0  0  0  0  0
   -2.6441    0.8807    0.6729 C   0  0  0  0  0  0  0  0  0  0  0  0
   -3.2788    1.8539    0.0456 N   0  0  0  0  0  0  0  0  0  0  0  0
   -2.7039    3.0182    0.4867 C   0  0  0  0  0  0  0  0  0  0  0  0
   -1.7009    2.7572    1.3872 C   0  0  0  0  0  0  0  0  0  0  0  0
   -1.6758    1.3972    1.5055 N   0  0  0  0  0  0  0  0  0  0  0  0
    3.5424    0.0436    0.5999 C   0  0  0  0  0  0  0  0  0  0  0  0
    6.1950    1.3826    0.4441 H   0  0  0  0  0  0  0  0  0  0  0  0
    5.4749    2.7373    1.3450 H   0  0  0  0  0  0  0  0  0  0  0  0
    5.5215    1.1332    2.0762 H   0  0  0  0  0  0  0  0  0  0  0  0
    3.7222    3.3298   -0.2686 H   0  0  0  0  0  0  0  0  0  0  0  0
    1.5515    2.7596   -1.2968 H   0  0  0  0  0  0  0  0  0  0  0  0
    0.6466    0.5043   -1.1422 H   0  0  0  0  0  0  0  0  0  0  0  0
    0.5812   -1.7368   -1.3518 H   0  0  0  0  0  0  0  0  0  0  0  0
    0.7263   -3.8286    0.8697 H   0  0  0  0  0  0  0  0  0  0  0  0
   -0.3448   -3.9210   -0.5383 H   0  0  0  0  0  0  0  0  0  0  0  0
    1.4213   -3.9717   -0.7399 H   0  0  0  0  0  0  0  0  0  0  0  0
   -2.0360   -2.6383   -1.5981 H   0  0  0  0  0  0  0  0  0  0  0  0
   -1.3208   -1.1216   -2.2051 H   0  0  0  0  0  0  0  0  0  0  0  0
   -3.3825    0.0307   -2.1332 H   0  0  0  0  0  0  0  0  0  0  0  0
   -4.0251   -1.5901   -2.4423 H   0  0  0  0  0  0  0  0  0  0  0  0
   -4.9024   -0.2961   -0.2494 H   0  0  0  0  0  0  0  0  0  0  0  0
   -4.3914   -1.9853   -0.0866 H   0  0  0  0  0  0  0  0  0  0  0  0
   -2.9706   -1.0379    1.5568 H   0  0  0  0  0  0  0  0  0  0  0  0
   -3.0390    3.9821    0.1268 H   0  0  0  0  0  0  0  0  0  0  0  0
   -1.0209    3.3944    1.9330 H   0  0  0  0  0  0  0  0  0  0  0  0
   -1.0294    0.8342    2.0515 H   0  0  0  0  0  0  0  0  0  0  0  0
    4.0969   -0.7281    1.1301 H   0  0  0  0  0  0  0  0  0  0  0  0
  1  2  1  0
  2  3  2  0
  3  4  1  0
  4  5  2  0
  5  6  1  0
  6  7  1  0
  7  8  1  0
  8  9  1  0
  8 10  1  0
 10 11  2  0
 10 12  1  0
 12 13  1  0
 13 14  1  0
 14 15  1  0
 15 16  1  0
 16 17  1  0
 17 18  2  0
 18 19  1  0
 19 20  2  0
 20 21  1  0
  6 22  2  0
 22  2  1  0
 16 12  1  0
 21 17  1  0
  1 23  1  0
  1 24  1  0
  1 25  1  0
  3 26  1  0
  4 27  1  0
  5 28  1  0
  8 29  1  0
  9 30  1  0
  9 31  1  0
  9 32  1  0
 13 33  1  0
 13 34  1  0
 14 35  1  0
 14 36  1  0
 15 37  1  0
 15 38  1  0
 16 39  1  0
 19 40  1  0
 20 41  1  0
 21 42  1  0
 22 43  1  0
M  END
$$$$
OCNT-2309292
     RDKit          3D

 51 54  0  0  0  0  0  0  0  0999 V2000
   -4.5754    2.4795   -0.6074 C   0  0  0  0  0  0  0  0  0  0  0  0
   -3.4653    1.5510   -0.0418 C   0  0  0  0  0  0  0  0  0  0  0  0
   -3.2870    1.9552    1.4388 C   0  0  0  0  0  0  0  0  0  0  0  0
   -2.1391    1.8519   -0.8129 C   0  0  0  0  0  0  0  0  0  0  0  0
   -2.1508    2.6372   -1.7704 O   0  0  0  0  0  0  0  0  0  0  0  0
   -0.9432    1.2469   -0.4451 N   0  0  0  0  0  0  0  0  0  0  0  0
    0.2656    1.6155   -1.1957 C   0  0  0  0  0  0  0  0  0  0  0  0
    1.5716    1.3360   -0.4333 C   0  0  0  0  0  0  0  0  0  0  0  0
    1.6632   -0.0692    0.0069 N   0  0  0  0  0  0  0  0  0  0  0  0
    2.8644   -0.5721    0.4231 C   0  0  0  0  0  0  0  0  0  0  0  0
    4.1113    0.0051    0.5490 C   0  0  0  0  0  0  0  0  0  0  0  0
    4.9426   -1.0103    1.0479 C   0  0  0  0  0  0  0  0  0  0  0  0
    6.4409   -0.8023    1.3885 C   0  0  0  0  0  0  0  0  0  0  0  0
    7.4629   -0.9134    0.2849 C   0  0  0  0  0  0  0  0  0  0  0  0
    7.3940   -1.9689    1.3495 C   0  0  0  0  0  0  0  0  0  0  0  0
    4.2981   -2.1624    1.2213 N   0  0  0  0  0  0  0  0  0  0  0  0
    3.0515   -1.8790    0.8061 N   0  0  0  0  0  0  0  0  0  0  0  0
    0.3900   -0.7769    0.2224 C   0  0  0  0  0  0  0  0  0  0  0  0
   -0.7544    0.1984    0.5649 C   0  0  0  0  0  0  0  0  0  0  0  0
   -3.9599    0.1102   -0.2734 C   0  0  0  0  0  0  0  0  0  0  0  0
   -3.8562   -0.4716   -1.5543 C   0  0  0  0  0  0  0  0  0  0  0  0
   -4.3036   -1.7732   -1.7942 C   0  0  0  0  0  0  0  0  0  0  0  0
   -4.8734   -2.5019   -0.7612 C   0  0  0  0  0  0  0  0  0  0  0  0
   -5.3056   -3.7502   -0.9898 F   0  0  0  0  0  0  0  0  0  0  0  0
   -5.0184   -1.9482    0.5037 C   0  0  0  0  0  0  0  0  0  0  0  0
   -4.5699   -0.6467    0.7474 C   0  0  0  0  0  0  0  0  0  0  0  0
   -5.5354    2.3103   -0.1040 H   0  0  0  0  0  0  0  0  0  0  0  0
   -4.7390    2.3192   -1.6811 H   0  0  0  0  0  0  0  0  0  0  0  0
   -4.3122    3.5364   -0.4749 H   0  0  0  0  0  0  0  0  0  0  0  0
   -2.7734    2.9204    1.5231 H   0  0  0  0  0  0  0  0  0  0  0  0
   -2.7080    1.2269    2.0127 H   0  0  0  0  0  0  0  0  0  0  0  0
   -4.2534    2.0576    1.9483 H   0  0  0  0  0  0  0  0  0  0  0  0
    0.2250    2.6763   -1.4675 H   0  0  0  0  0  0  0  0  0  0  0  0
    0.2457    1.0347   -2.1263 H   0  0  0  0  0  0  0  0  0  0  0  0
    2.4109    1.5881   -1.0922 H   0  0  0  0  0  0  0  0  0  0  0  0
    1.6253    1.9868    0.4480 H   0  0  0  0  0  0  0  0  0  0  0  0
    4.3843    1.0246    0.3311 H   0  0  0  0  0  0  0  0  0  0  0  0
    6.6164   -0.0565    2.1589 H   0  0  0  0  0  0  0  0  0  0  0  0
    7.1247   -1.1802   -0.7107 H   0  0  0  0  0  0  0  0  0  0  0  0
    8.2979   -0.2254    0.3009 H   0  0  0  0  0  0  0  0  0  0  0  0
    7.0038   -2.9432    1.0763 H   0  0  0  0  0  0  0  0  0  0  0  0
    8.1816   -1.9958    2.0919 H   0  0  0  0  0  0  0  0  0  0  0  0
    2.3695   -2.6244    0.8072 H   0  0  0  0  0  0  0  0  0  0  0  0
    0.4656   -1.4998    1.0434 H   0  0  0  0  0  0  0  0  0  0  0  0
    0.1417   -1.3332   -0.6899 H   0  0  0  0  0  0  0  0  0  0  0  0
   -0.5187    0.7121    1.5043 H   0  0  0  0  0  0  0  0  0  0  0  0
   -1.6674   -0.3736    0.7155 H   0  0  0  0  0  0  0  0  0  0  0  0
   -3.4319    0.0894   -2.3854 H   0  0  0  0  0  0  0  0  0  0  0  0
   -4.2117   -2.2190   -2.7805 H   0  0  0  0  0  0  0  0  0  0  0  0
   -5.4909   -2.5290    1.2900 H   0  0  0  0  0  0  0  0  0  0  0  0
   -4.7044   -0.2432    1.7460 H   0  0  0  0  0  0  0  0  0  0  0  0
  1  2  1  0
  2  3  1  0
  2  4  1  0
  4  5  2  0
  4  6  1  0
  6  7  1  0
  7  8  1  0
  8  9  1  0
  9 10  1  0
 10 11  2  0
 11 12  1  0
 12 13  1  0
 13 14  1  0
 14 15  1  0
 12 16  2  0
 16 17  1  0
  9 18  1  0
 18 19  1  0
  2 20  1  0
 20 21  1  0
 21 22  2  0
 22 23  1  0
 23 24  1  0
 23 25  2  0
 25 26  1  0
 19  6  1  0
 26 20  2  0
 17 10  1  0
 15 13  1  0
  1 27  1  0
  1 28  1  0
  1 29  1  0
  3 30  1  0
  3 31  1  0
  3 32  1  0
  7 33  1  0
  7 34  1  0
  8 35  1  0
  8 36  1  0
 11 37  1  0
 13 38  1  0
 14 39  1  0
 14 40  1  0
 15 41  1  0
 15 42  1  0
 17 43  1  0
 18 44  1  0
 18 45  1  0
 19 46  1  0
 19 47  1  0
 21 48  1  0
 22 49  1  0
 25 50  1  0
 26 51  1  0
M  END
$$$$
OCNT-2309302
     RDKit          3D

 41 45  0  0  0  0  0  0  0  0999 V2000
    1.0729    2.0056   -1.9211 O   0  0  0  0  0  0  0  0  0  0  0  0
    1.1904    0.9984   -1.2298 C   0  0  0  0  0  0  0  0  0  0  0  0
    0.1219    0.2276   -0.8444 N   0  0  0  0  0  0  0  0  0  0  0  0
   -1.2413    0.5809   -1.1642 C   0  0  0  0  0  0  0  0  0  0  0  0
   -1.7983    1.4302   -0.0673 C   0  0  0  0  0  0  0  0  0  0  0  0
   -2.2652    0.8703    1.2620 C   0  0  0  0  0  0  0  0  0  0  0  0
   -2.5849   -0.5964    1.5145 C   0  0  0  0  0  0  0  0  0  0  0  0
   -3.8093   -0.8508    0.6686 C   0  0  0  0  0  0  0  0  0  0  0  0
   -4.5087   -2.0416    0.5458 C   0  0  0  0  0  0  0  0  0  0  0  0
   -5.6104   -2.0754   -0.3096 C   0  0  0  0  0  0  0  0  0  0  0  0
   -5.9936   -0.9314   -1.0250 C   0  0  0  0  0  0  0  0  0  0  0  0
   -5.2807    0.2636   -0.8932 C   0  0  0  0  0  0  0  0  0  0  0  0
   -4.1857    0.3047   -0.0422 C   0  0  0  0  0  0  0  0  0  0  0  0
   -3.2719    1.4485    0.2663 C   0  0  0  0  0  0  0  0  0  0  0  0
    2.4800    0.5493   -0.7518 C   0  0  0  0  0  0  0  0  0  0  0  0
    2.8738   -0.5418    0.0051 C   0  0  0  0  0  0  0  0  0  0  0  0
    4.2856   -0.4831    0.1783 C   0  0  0  0  0  0  0  0  0  0  0  0
    5.2325   -1.2874    0.8365 C   0  0  0  0  0  0  0  0  0  0  0  0
    4.8480   -2.3927    1.4914 F   0  0  0  0  0  0  0  0  0  0  0  0
    6.5841   -0.9418    0.8151 C   0  0  0  0  0  0  0  0  0  0  0  0
    7.0033    0.2032    0.1403 C   0  0  0  0  0  0  0  0  0  0  0  0
    6.0853    1.0250   -0.5254 C   0  0  0  0  0  0  0  0  0  0  0  0
    4.7343    0.6556   -0.4882 C   0  0  0  0  0  0  0  0  0  0  0  0
    3.6292    1.2559   -1.0408 N   0  0  0  0  0  0  0  0  0  0  0  0
    0.2676   -0.5242   -0.1899 H   0  0  0  0  0  0  0  0  0  0  0  0
   -1.2723    1.1307   -2.1109 H   0  0  0  0  0  0  0  0  0  0  0  0
   -1.7853   -0.3568   -1.3042 H   0  0  0  0  0  0  0  0  0  0  0  0
   -1.2932    2.3928   -0.0443 H   0  0  0  0  0  0  0  0  0  0  0  0
   -2.0440    1.4256    2.1636 H   0  0  0  0  0  0  0  0  0  0  0  0
   -2.8181   -0.7572    2.5717 H   0  0  0  0  0  0  0  0  0  0  0  0
   -1.7527   -1.2383    1.2118 H   0  0  0  0  0  0  0  0  0  0  0  0
   -4.2100   -2.9274    1.0968 H   0  0  0  0  0  0  0  0  0  0  0  0
   -6.1774   -2.9962   -0.4248 H   0  0  0  0  0  0  0  0  0  0  0  0
   -6.8542   -0.9749   -1.6883 H   0  0  0  0  0  0  0  0  0  0  0  0
   -5.5805    1.1465   -1.4489 H   0  0  0  0  0  0  0  0  0  0  0  0
   -3.7162    2.4087    0.5088 H   0  0  0  0  0  0  0  0  0  0  0  0
    2.2332   -1.3172    0.4030 H   0  0  0  0  0  0  0  0  0  0  0  0
    7.3018   -1.5740    1.3286 H   0  0  0  0  0  0  0  0  0  0  0  0
    8.0597    0.4636    0.1293 H   0  0  0  0  0  0  0  0  0  0  0  0
    6.4157    1.9161   -1.0508 H   0  0  0  0  0  0  0  0  0  0  0  0
    3.6346    2.1057   -1.5908 H   0  0  0  0  0  0  0  0  0  0  0  0
  1  2  2  0
  2  3  1  0
  3  4  1  0
  4  5  1  0
  5  6  1  0
  6  7  1  0
  7  8  1  0
  8  9  2  0
  9 10  1  0
 10 11  2  0
 11 12  1  0
 12 13  2  0
 13 14  1  0
  2 15  1  0
 15 16  2  0
 16 17  1  0
 17 18  2  0
 18 19  1  0
 18 20  1  0
 20 21  2  0
 21 22  1  0
 22 23  2  0
 23 24  1  0
 14  5  1  0
 24 15  1  0
 14  6  1  0
 23 17  1  0
 13  8  1  0
  3 25  1  0
  4 26  1  0
  4 27  1  0
  5 28  1  0
  6 29  1  0
  7 30  1  0
  7 31  1  0
  9 32  1  0
 10 33  1  0
 11 34  1  0
 12 35  1  0
 14 36  1  0
 16 37  1  0
 20 38  1  0
 21 39  1  0
 22 40  1  0
 24 41  1  0
M  END
$$$$
OCNT-2309338
     RDKit          3D

 50 51  0  0  0  0  0  0  0  0999 V2000
   -4.0608   -1.4779    1.2794 C   0  0  0  0  0  0  0  0  0  0  0  0
   -2.9190   -1.5881    0.2542 C   0  0  0  0  0  0  0  0  0  0  0  0
   -3.5389   -1.8271   -1.1326 C   0  0  0  0  0  0  0  0  0  0  0  0
   -1.8733   -0.3997    0.3152 C   0  0  0  0  0  0  0  0  0  0  0  0
   -1.1437   -0.4248    1.6868 C   0  0  0  0  0  0  0  0  0  0  0  0
   -0.8406   -0.5262   -0.7502 N   0  0  0  0  0  0  0  0  0  0  0  0
    0.0271   -1.7067   -0.7440 C   0  0  0  0  0  0  0  0  0  0  0  0
    1.3760   -1.3784   -0.1999 C   0  0  0  0  0  0  0  0  0  0  0  0
    2.3456   -0.5289   -0.6901 C   0  0  0  0  0  0  0  0  0  0  0  0
    3.3683   -0.6219    0.2137 N   0  0  0  0  0  0  0  0  0  0  0  0
    4.6584    0.0809    0.1913 C   0  0  0  0  0  0  0  0  0  0  0  0
    4.4170    1.6025    0.2115 C   0  0  0  0  0  0  0  0  0  0  0  0
    5.5384   -0.2791    1.4089 C   0  0  0  0  0  0  0  0  0  0  0  0
    5.4299   -0.3014   -1.0860 C   0  0  0  0  0  0  0  0  0  0  0  0
    3.0525   -1.4867    1.1963 N   0  0  0  0  0  0  0  0  0  0  0  0
    1.8383   -1.9577    0.9517 N   0  0  0  0  0  0  0  0  0  0  0  0
   -2.5902    0.9661    0.0903 C   0  0  0  0  0  0  0  0  0  0  0  0
   -2.8580    1.4226   -1.2194 C   0  0  0  0  0  0  0  0  0  0  0  0
   -3.5023    2.6403   -1.4590 C   0  0  0  0  0  0  0  0  0  0  0  0
   -3.8977    3.4305   -0.3876 C   0  0  0  0  0  0  0  0  0  0  0  0
   -4.7694    5.0772   -0.7018 Br  0  0  0  0  0  0  0  0  0  0  0  0
   -3.6561    3.0114    0.9157 C   0  0  0  0  0  0  0  0  0  0  0  0
   -3.0104    1.7910    1.1508 C   0  0  0  0  0  0  0  0  0  0  0  0
   -3.6852   -1.3998    2.3029 H   0  0  0  0  0  0  0  0  0  0  0  0
   -4.7080   -0.6185    1.0795 H   0  0  0  0  0  0  0  0  0  0  0  0
   -4.6918   -2.3735    1.2415 H   0  0  0  0  0  0  0  0  0  0  0  0
   -2.3879   -2.5137    0.5119 H   0  0  0  0  0  0  0  0  0  0  0  0
   -4.1254   -2.7533   -1.1286 H   0  0  0  0  0  0  0  0  0  0  0  0
   -4.2182   -1.0196   -1.4215 H   0  0  0  0  0  0  0  0  0  0  0  0
   -2.7765   -1.9363   -1.9094 H   0  0  0  0  0  0  0  0  0  0  0  0
   -1.8190   -0.2808    2.5349 H   0  0  0  0  0  0  0  0  0  0  0  0
   -0.3811    0.3615    1.7489 H   0  0  0  0  0  0  0  0  0  0  0  0
   -0.6554   -1.3875    1.8696 H   0  0  0  0  0  0  0  0  0  0  0  0
   -0.2636    0.3145   -0.7358 H   0  0  0  0  0  0  0  0  0  0  0  0
   -0.4003   -2.5639   -0.2171 H   0  0  0  0  0  0  0  0  0  0  0  0
    0.1554   -2.0271   -1.7850 H   0  0  0  0  0  0  0  0  0  0  0  0
    2.3855    0.1030   -1.5646 H   0  0  0  0  0  0  0  0  0  0  0  0
    3.8424    1.8993    1.0971 H   0  0  0  0  0  0  0  0  0  0  0  0
    5.3641    2.1539    0.2254 H   0  0  0  0  0  0  0  0  0  0  0  0
    3.8573    1.9371   -0.6695 H   0  0  0  0  0  0  0  0  0  0  0  0
    6.4948    0.2557    1.3772 H   0  0  0  0  0  0  0  0  0  0  0  0
    5.7632   -1.3520    1.4383 H   0  0  0  0  0  0  0  0  0  0  0  0
    5.0453   -0.0147    2.3520 H   0  0  0  0  0  0  0  0  0  0  0  0
    6.4093    0.1893   -1.1191 H   0  0  0  0  0  0  0  0  0  0  0  0
    4.8866   -0.0086   -1.9917 H   0  0  0  0  0  0  0  0  0  0  0  0
    5.5946   -1.3842   -1.1384 H   0  0  0  0  0  0  0  0  0  0  0  0
   -2.5635    0.8205   -2.0780 H   0  0  0  0  0  0  0  0  0  0  0  0
   -3.6890    2.9542   -2.4822 H   0  0  0  0  0  0  0  0  0  0  0  0
   -3.9671    3.6214    1.7599 H   0  0  0  0  0  0  0  0  0  0  0  0
   -2.8578    1.5053    2.1874 H   0  0  0  0  0  0  0  0  0  0  0  0
  1  2  1  0
  2  3  1  0
  2  4  1  0
  4  5  1  0
  4  6  1  0
  6  7  1  0
  7  8  1  0
  8  9  2  0
  9 10  1  0
 10 11  1  0
 11 12  1  0
 11 13  1  0
 11 14  1  0
 10 15  1  0
 15 16  2  0
  4 17  1  0
 17 18  1  0
 18 19  2  0
 19 20  1  0
 20 21  1  0
 20 22  2  0
 22 23  1  0
 16  8  1  0
 23 17  2  0
  1 24  1  0
  1 25  1  0
  1 26  1  0
  2 27  1  0
  3 28  1  0
  3 29  1  0
  3 30  1  0
  5 31  1  0
  5 32  1  0
  5 33  1  0
  6 34  1  0
  7 35  1  0
  7 36  1  0
  9 37  1  0
 12 38  1  0
 12 39  1  0
 12 40  1  0
 13 41  1  0
 13 42  1  0
 13 43  1  0
 14 44  1  0
 14 45  1  0
 14 46  1  0
 18 47  1  0
 19 48  1  0
 22 49  1  0
 23 50  1  0
M  END
$$$$
OCNT-2309342
     RDKit          3D

 53 56  0  0  0  0  0  0  0  0999 V2000
   -5.5102   -3.8984    1.7686 C   0  0  0  0  0  0  0  0  0  0  0  0
   -4.1488   -3.2583    1.9462 C   0  0  0  0  0  0  0  0  0  0  0  0
   -3.7916   -2.6059    0.7313 O   0  0  0  0  0  0  0  0  0  0  0  0
   -2.5066   -1.9510    0.7233 C   0  0  0  0  0  0  0  0  0  0  0  0
   -2.1821   -1.1459   -0.5571 C   0  0  0  0  0  0  0  0  0  0  0  0
   -1.4783   -0.0825    0.3480 C   0  0  0  0  0  0  0  0  0  0  0  0
    0.0335   -0.2685    0.6029 C   0  0  0  0  0  0  0  0  0  0  0  0
    0.8471   -0.0746   -0.5973 N   0  0  0  0  0  0  0  0  0  0  0  0
    2.1854    0.0364   -0.4308 C   0  0  0  0  0  0  0  0  0  0  0  0
    2.8378    0.1609    0.7023 N   0  0  0  0  0  0  0  0  0  0  0  0
    4.1661    0.2069    0.3693 C   0  0  0  0  0  0  0  0  0  0  0  0
    5.2941    0.3194    1.1990 C   0  0  0  0  0  0  0  0  0  0  0  0
    6.5687    0.3355    0.6157 C   0  0  0  0  0  0  0  0  0  0  0  0
    6.7161    0.2402   -0.7683 C   0  0  0  0  0  0  0  0  0  0  0  0
    5.5982    0.1308   -1.5953 C   0  0  0  0  0  0  0  0  0  0  0  0
    5.7543    0.0355   -2.9215 F   0  0  0  0  0  0  0  0  0  0  0  0
    4.3341    0.1191   -1.0074 C   0  0  0  0  0  0  0  0  0  0  0  0
    3.0541    0.0378   -1.5003 N   0  0  0  0  0  0  0  0  0  0  0  0
    2.7002   -0.0081   -2.8975 C   0  0  0  0  0  0  0  0  0  0  0  0
   -1.9816    1.2610   -0.0345 N   0  0  0  0  0  0  0  0  0  0  0  0
   -1.5509    1.7181   -1.3702 C   0  0  0  0  0  0  0  0  0  0  0  0
   -0.5876    2.9163   -1.3341 C   0  0  0  0  0  0  0  0  0  0  0  0
   -1.1484    4.0555   -0.6675 O   0  0  0  0  0  0  0  0  0  0  0  0
   -2.0041    3.6989    0.4275 C   0  0  0  0  0  0  0  0  0  0  0  0
   -1.7255    2.2943    0.9886 C   0  0  0  0  0  0  0  0  0  0  0  0
   -2.3971   -0.6152    1.4966 C   0  0  0  0  0  0  0  0  0  0  0  0
   -5.8222   -4.4121    2.6822 H   0  0  0  0  0  0  0  0  0  0  0  0
   -6.2610   -3.1431    1.5137 H   0  0  0  0  0  0  0  0  0  0  0  0
   -5.4925   -4.6202    0.9455 H   0  0  0  0  0  0  0  0  0  0  0  0
   -4.1804   -2.5259    2.7594 H   0  0  0  0  0  0  0  0  0  0  0  0
   -3.4004   -4.0220    2.1822 H   0  0  0  0  0  0  0  0  0  0  0  0
   -1.7090   -2.6623    0.9756 H   0  0  0  0  0  0  0  0  0  0  0  0
   -1.5405   -1.6685   -1.2730 H   0  0  0  0  0  0  0  0  0  0  0  0
   -3.0806   -0.8080   -1.0901 H   0  0  0  0  0  0  0  0  0  0  0  0
    0.2215   -1.2841    0.9745 H   0  0  0  0  0  0  0  0  0  0  0  0
    0.3565    0.4079    1.4029 H   0  0  0  0  0  0  0  0  0  0  0  0
    0.5083   -0.5935   -1.3999 H   0  0  0  0  0  0  0  0  0  0  0  0
    5.1689    0.3905    2.2743 H   0  0  0  0  0  0  0  0  0  0  0  0
    7.4476    0.4219    1.2502 H   0  0  0  0  0  0  0  0  0  0  0  0
    7.7061    0.2510   -1.2156 H   0  0  0  0  0  0  0  0  0  0  0  0
    3.4356    0.5501   -3.4814 H   0  0  0  0  0  0  0  0  0  0  0  0
    1.7212    0.4541   -3.0465 H   0  0  0  0  0  0  0  0  0  0  0  0
    2.6792   -1.0550   -3.2095 H   0  0  0  0  0  0  0  0  0  0  0  0
   -1.1316    0.9142   -1.9828 H   0  0  0  0  0  0  0  0  0  0  0  0
   -2.4625    2.0395   -1.8904 H   0  0  0  0  0  0  0  0  0  0  0  0
    0.3546    2.6606   -0.8382 H   0  0  0  0  0  0  0  0  0  0  0  0
   -0.3408    3.2264   -2.3547 H   0  0  0  0  0  0  0  0  0  0  0  0
   -3.0423    3.7794    0.0845 H   0  0  0  0  0  0  0  0  0  0  0  0
   -1.8629    4.4509    1.2105 H   0  0  0  0  0  0  0  0  0  0  0  0
   -0.6857    2.2701    1.3310 H   0  0  0  0  0  0  0  0  0  0  0  0
   -2.3691    2.1253    1.8584 H   0  0  0  0  0  0  0  0  0  0  0  0
   -1.9280   -0.6906    2.4828 H   0  0  0  0  0  0  0  0  0  0  0  0
   -3.3671   -0.1151    1.6170 H   0  0  0  0  0  0  0  0  0  0  0  0
  1  2  1  0
  2  3  1  0
  3  4  1  0
  4  5  1  0
  5  6  1  0
  6  7  1  0
  7  8  1  0
  8  9  1  0
  9 10  2  0
 10 11  1  0
 11 12  2  0
 12 13  1  0
 13 14  2  0
 14 15  1  0
 15 16  1  0
 15 17  2  0
 17 18  1  0
 18 19  1  0
  6 20  1  0
 20 21  1  0
 21 22  1  0
 22 23  1  0
 23 24  1  0
 24 25  1  0
  6 26  1  0
 26  4  1  0
 18  9  1  0
 25 20  1  0
 17 11  1  0
  1 27  1  0
  1 28  1  0
  1 29  1  0
  2 30  1  0
  2 31  1  0
  4 32  1  0
  5 33  1  0
  5 34  1  0
  7 35  1  0
  7 36  1  0
  8 37  1  0
 12 38  1  0
 13 39  1  0
 14 40  1  0
 19 41  1  0
 19 42  1  0
 19 43  1  0
 21 44  1  0
 21 45  1  0
 22 46  1  0
 22 47  1  0
 24 48  1  0
 24 49  1  0
 25 50  1  0
 25 51  1  0
 26 52  1  0
 26 53  1  0
M  END
$$$$
OCNT-2309351
     RDKit          3D

 56 59  0  0  0  0  0  0  0  0999 V2000
    5.1359    3.2437    0.5506 C   0  0  0  0  0  0  0  0  0  0  0  0
    4.4282    1.9941    0.1553 C   0  0  0  0  0  0  0  0  0  0  0  0
    3.5395    1.7997   -0.8796 C   0  0  0  0  0  0  0  0  0  0  0  0
    3.0685    0.4534   -0.9406 C   0  0  0  0  0  0  0  0  0  0  0  0
    3.6023   -0.3369    0.0543 C   0  0  0  0  0  0  0  0  0  0  0  0
    3.2941   -1.8672    0.2690 C   0  0  0  0  0  0  0  0  0  0  0  0
    4.0156   -2.6641    1.1367 C   0  0  0  0  0  0  0  0  0  0  0  0
    3.5750   -3.9532    1.0042 N   0  0  0  0  0  0  0  0  0  0  0  0
    2.5544   -3.9895    0.0961 C   0  0  0  0  0  0  0  0  0  0  0  0
    2.3107   -2.6999   -0.3518 C   0  0  0  0  0  0  0  0  0  0  0  0
    1.2165   -2.3727   -1.2524 C   0  0  0  0  0  0  0  0  0  0  0  0
    1.0107   -2.9798   -2.2971 O   0  0  0  0  0  0  0  0  0  0  0  0
    0.4011   -1.3767   -0.7801 N   0  0  0  0  0  0  0  0  0  0  0  0
   -0.7375   -0.8621   -1.5169 C   0  0  0  0  0  0  0  0  0  0  0  0
   -1.8275   -0.2577   -0.5533 C   0  0  0  0  0  0  0  0  0  0  0  0
   -1.1441    0.6500    0.4252 N   0  0  0  0  0  0  0  0  0  0  0  0
   -0.4683    1.8378   -0.1454 C   0  0  0  0  0  0  0  0  0  0  0  0
   -1.0869    3.1789    0.2859 C   0  0  0  0  0  0  0  0  0  0  0  0
   -1.1138    3.3633    1.7052 O   0  0  0  0  0  0  0  0  0  0  0  0
   -1.2076    2.1302    2.4281 C   0  0  0  0  0  0  0  0  0  0  0  0
   -1.9121    1.0191    1.6303 C   0  0  0  0  0  0  0  0  0  0  0  0
   -2.4933   -1.4880    0.1591 C   0  0  0  0  0  0  0  0  0  0  0  0
   -3.9937   -1.3255    0.3865 C   0  0  0  0  0  0  0  0  0  0  0  0
   -4.7475   -1.1396   -0.9305 C   0  0  0  0  0  0  0  0  0  0  0  0
   -3.9308   -0.4274   -2.0089 C   0  0  0  0  0  0  0  0  0  0  0  0
   -2.8851    0.5067   -1.4051 C   0  0  0  0  0  0  0  0  0  0  0  0
    4.7027    0.5472    1.0231 S   0  0  0  0  0  0  0  0  0  0  0  0
    4.9636    3.4737    1.6074 H   0  0  0  0  0  0  0  0  0  0  0  0
    4.7812    4.0971   -0.0376 H   0  0  0  0  0  0  0  0  0  0  0  0
    6.2138    3.1457    0.3854 H   0  0  0  0  0  0  0  0  0  0  0  0
    3.2442    2.5804   -1.5702 H   0  0  0  0  0  0  0  0  0  0  0  0
    2.3904    0.1004   -1.7052 H   0  0  0  0  0  0  0  0  0  0  0  0
    4.8374   -2.4367    1.8024 H   0  0  0  0  0  0  0  0  0  0  0  0
    3.9493   -4.7537    1.4979 H   0  0  0  0  0  0  0  0  0  0  0  0
    2.0560   -4.9203   -0.1427 H   0  0  0  0  0  0  0  0  0  0  0  0
    0.6308   -0.9058    0.0890 H   0  0  0  0  0  0  0  0  0  0  0  0
   -1.1540   -1.6593   -2.1437 H   0  0  0  0  0  0  0  0  0  0  0  0
   -0.3435   -0.1078   -2.2066 H   0  0  0  0  0  0  0  0  0  0  0  0
    0.5643    1.8115    0.2219 H   0  0  0  0  0  0  0  0  0  0  0  0
   -0.4078    1.8142   -1.2366 H   0  0  0  0  0  0  0  0  0  0  0  0
   -0.5127    4.0081   -0.1398 H   0  0  0  0  0  0  0  0  0  0  0  0
   -2.1124    3.2718   -0.0891 H   0  0  0  0  0  0  0  0  0  0  0  0
   -1.7576    2.3347    3.3524 H   0  0  0  0  0  0  0  0  0  0  0  0
   -0.1948    1.8225    2.7149 H   0  0  0  0  0  0  0  0  0  0  0  0
   -2.0245    0.1523    2.2885 H   0  0  0  0  0  0  0  0  0  0  0  0
   -2.9089    1.3819    1.3589 H   0  0  0  0  0  0  0  0  0  0  0  0
   -1.9898   -1.7147    1.1065 H   0  0  0  0  0  0  0  0  0  0  0  0
   -2.3581   -2.3963   -0.4445 H   0  0  0  0  0  0  0  0  0  0  0  0
   -4.3895   -2.2040    0.9094 H   0  0  0  0  0  0  0  0  0  0  0  0
   -4.1900   -0.4705    1.0411 H   0  0  0  0  0  0  0  0  0  0  0  0
   -5.0654   -2.1152   -1.3179 H   0  0  0  0  0  0  0  0  0  0  0  0
   -5.6683   -0.5781   -0.7308 H   0  0  0  0  0  0  0  0  0  0  0  0
   -4.6063    0.1373   -2.6620 H   0  0  0  0  0  0  0  0  0  0  0  0
   -3.4387   -1.1710   -2.6469 H   0  0  0  0  0  0  0  0  0  0  0  0
   -2.3992    1.0694   -2.2114 H   0  0  0  0  0  0  0  0  0  0  0  0
   -3.4163    1.2488   -0.7972 H   0  0  0  0  0  0  0  0  0  0  0  0
  1  2  1  0
  2  3  2  0
  3  4  1  0
  4  5  2  0
  5  6  1  0
  6  7  2  0
  7  8  1  0
  8  9  1  0
  9 10  2  0
 10 11  1  0
 11 12  2  0
 11 13  1  0
 13 14  1  0
 14 15  1  0
 15 16  1  0
 16 17  1  0
 17 18  1  0
 18 19  1  0
 19 20  1  0
 20 21  1  0
 15 22  1  0
 22 23  1  0
 23 24  1  0
 24 25  1  0
 25 26  1  0
  5 27  1  0
 27  2  1  0
 10  6  1  0
 26 15  1  0
 21 16  1  0
  1 28  1  0
  1 29  1  0
  1 30  1  0
  3 31  1  0
  4 32  1  0
  7 33  1  0
  8 34  1  0
  9 35  1  0
 13 36  1  0
 14 37  1  0
 14 38  1  0
 17 39  1  0
 17 40  1  0
 18 41  1  0
 18 42  1  0
 20 43  1  0
 20 44  1  0
 21 45  1  0
 21 46  1  0
 22 47  1  0
 22 48  1  0
 23 49  1  0
 23 50  1  0
 24 51  1  0
 24 52  1  0
 25 53  1  0
 25 54  1  0
 26 55  1  0
 26 56  1  0
M  END
$$$$
OCNT-2309368
     RDKit          3D

 55 58  0  0  0  0  0  0  0  0999 V2000
   -5.2136   -2.2524   -1.1195 C   0  0  0  0  0  0  0  0  0  0  0  0
   -4.4187   -1.2615   -0.3103 C   0  0  0  0  0  0  0  0  0  0  0  0
   -3.0845   -1.5668    0.0225 C   0  0  0  0  0  0  0  0  0  0  0  0
   -2.2990   -0.6853    0.7739 C   0  0  0  0  0  0  0  0  0  0  0  0
   -0.9735   -1.0743    1.0511 N   0  0  0  0  0  0  0  0  0  0  0  0
   -0.0673   -0.4447    1.8772 C   0  0  0  0  0  0  0  0  0  0  0  0
   -0.2861    0.5117    2.6088 O   0  0  0  0  0  0  0  0  0  0  0  0
    1.1664   -1.0607    1.7993 N   0  0  0  0  0  0  0  0  0  0  0  0
    2.3032   -0.5220    2.5153 C   0  0  0  0  0  0  0  0  0  0  0  0
    3.1011    0.4130    1.6396 C   0  0  0  0  0  0  0  0  0  0  0  0
    2.7311    1.7585    1.5302 C   0  0  0  0  0  0  0  0  0  0  0  0
    3.4452    2.6185    0.7020 C   0  0  0  0  0  0  0  0  0  0  0  0
    4.5305    2.1392   -0.0326 C   0  0  0  0  0  0  0  0  0  0  0  0
    4.9362    0.7927    0.0532 C   0  0  0  0  0  0  0  0  0  0  0  0
    6.1051    0.2944   -0.7948 C   0  0  0  0  0  0  0  0  0  0  0  0
    7.3483    1.1850   -0.7221 C   0  0  0  0  0  0  0  0  0  0  0  0
    5.6659    0.1295   -2.1691 N   0  0  0  0  0  0  0  0  0  0  0  0
    5.6964   -1.1802   -2.5735 C   0  0  0  0  0  0  0  0  0  0  0  0
    5.2134   -1.6054   -3.6066 O   0  0  0  0  0  0  0  0  0  0  0  0
    6.3103   -1.9151   -1.6226 N   0  0  0  0  0  0  0  0  0  0  0  0
    6.5486   -1.1621   -0.5152 C   0  0  0  0  0  0  0  0  0  0  0  0
    7.0126   -1.6028    0.5277 O   0  0  0  0  0  0  0  0  0  0  0  0
    4.1945   -0.0597    0.8933 C   0  0  0  0  0  0  0  0  0  0  0  0
   -2.8518    0.5259    1.1799 C   0  0  0  0  0  0  0  0  0  0  0  0
   -4.1725    0.8466    0.8491 C   0  0  0  0  0  0  0  0  0  0  0  0
   -4.9739   -0.0330    0.1040 C   0  0  0  0  0  0  0  0  0  0  0  0
   -6.3522    0.3579   -0.2177 C   0  0  0  0  0  0  0  0  0  0  0  0
   -7.3746    0.2177    0.7254 C   0  0  0  0  0  0  0  0  0  0  0  0
   -8.6601    0.5967    0.3756 C   0  0  0  0  0  0  0  0  0  0  0  0
   -8.9923    1.1019   -0.8321 N   0  0  0  0  0  0  0  0  0  0  0  0
   -7.9909    1.2408   -1.7256 C   0  0  0  0  0  0  0  0  0  0  0  0
   -6.6759    0.8867   -1.4716 C   0  0  0  0  0  0  0  0  0  0  0  0
   -6.1753   -2.4622   -0.6429 H   0  0  0  0  0  0  0  0  0  0  0  0
   -5.3791   -1.8654   -2.1287 H   0  0  0  0  0  0  0  0  0  0  0  0
   -4.6858   -3.2091   -1.2087 H   0  0  0  0  0  0  0  0  0  0  0  0
   -2.6640   -2.5134   -0.3098 H   0  0  0  0  0  0  0  0  0  0  0  0
   -0.6898   -1.9816    0.7141 H   0  0  0  0  0  0  0  0  0  0  0  0
    1.3787   -1.4970    0.9160 H   0  0  0  0  0  0  0  0  0  0  0  0
    1.9818   -0.0119    3.4309 H   0  0  0  0  0  0  0  0  0  0  0  0
    2.9227   -1.3705    2.8230 H   0  0  0  0  0  0  0  0  0  0  0  0
    1.8745    2.1372    2.0879 H   0  0  0  0  0  0  0  0  0  0  0  0
    3.1467    3.6627    0.6227 H   0  0  0  0  0  0  0  0  0  0  0  0
    5.0524    2.8399   -0.6824 H   0  0  0  0  0  0  0  0  0  0  0  0
    7.1742    2.1718   -1.1635 H   0  0  0  0  0  0  0  0  0  0  0  0
    7.6691    1.3297    0.3152 H   0  0  0  0  0  0  0  0  0  0  0  0
    8.1921    0.7413   -1.2663 H   0  0  0  0  0  0  0  0  0  0  0  0
    5.0887    0.7938   -2.6667 H   0  0  0  0  0  0  0  0  0  0  0  0
    6.4357   -2.9104   -1.6750 H   0  0  0  0  0  0  0  0  0  0  0  0
    4.4581   -1.1132    0.9857 H   0  0  0  0  0  0  0  0  0  0  0  0
   -2.2777    1.2534    1.7457 H   0  0  0  0  0  0  0  0  0  0  0  0
   -4.5738    1.8046    1.1759 H   0  0  0  0  0  0  0  0  0  0  0  0
   -7.1738   -0.1800    1.7145 H   0  0  0  0  0  0  0  0  0  0  0  0
   -9.4815    0.5012    1.0802 H   0  0  0  0  0  0  0  0  0  0  0  0
   -8.2792    1.6608   -2.6850 H   0  0  0  0  0  0  0  0  0  0  0  0
   -5.9169    1.0275   -2.2341 H   0  0  0  0  0  0  0  0  0  0  0  0
  1  2  1  0
  2  3  1  0
  3  4  2  0
  4  5  1  0
  5  6  1  0
  6  7  2  0
  6  8  1  0
  8  9  1  0
  9 10  1  0
 10 11  1  0
 11 12  2  0
 12 13  1  0
 13 14  2  0
 14 15  1  0
 15 16  1  0
 15 17  1  0
 17 18  1  0
 18 19  2  0
 18 20  1  0
 20 21  1  0
 21 22  2  0
 14 23  1  0
  4 24  1  0
 24 25  2  0
 25 26  1  0
 26 27  1  0
 27 28  2  0
 28 29  1  0
 29 30  2  0
 30 31  1  0
 31 32  2  0
 26  2  2  0
 32 27  1  0
 23 10  2  0
 21 15  1  0
  1 33  1  0
  1 34  1  0
  1 35  1  0
  3 36  1  0
  5 37  1  0
  8 38  1  0
  9 39  1  0
  9 40  1  0
 11 41  1  0
 12 42  1  0
 13 43  1  0
 16 44  1  0
 16 45  1  0
 16 46  1  0
 17 47  1  0
 20 48  1  0
 23 49  1  0
 24 50  1  0
 25 51  1  0
 28 52  1  0
 29 53  1  0
 31 54  1  0
 32 55  1  0
M  END
$$$$
OCNT-2309371
     RDKit          3D

 44 46  0  0  0  0  0  0  0  0999 V2000
   -2.8367    1.7330   -1.7361 C   0  0  0  0  0  0  0  0  0  0  0  0
   -3.2811    0.2851   -1.5844 C   0  0  0  0  0  0  0  0  0  0  0  0
   -3.4938   -0.0984   -0.1417 C   0  0  0  0  0  0  0  0  0  0  0  0
   -4.7959   -0.0862    0.3628 C   0  0  0  0  0  0  0  0  0  0  0  0
   -5.1316   -0.3945    1.6320 N   0  0  0  0  0  0  0  0  0  0  0  0
   -4.1191   -0.7291    2.4530 C   0  0  0  0  0  0  0  0  0  0  0  0
   -2.7903   -0.7688    2.0641 C   0  0  0  0  0  0  0  0  0  0  0  0
   -2.4600   -0.4462    0.7476 C   0  0  0  0  0  0  0  0  0  0  0  0
   -1.1257   -0.4618    0.2818 N   0  0  0  0  0  0  0  0  0  0  0  0
    0.0243   -0.7168    1.0020 C   0  0  0  0  0  0  0  0  0  0  0  0
    0.1209   -0.9622    2.1962 O   0  0  0  0  0  0  0  0  0  0  0  0
    1.2794   -0.6337    0.1485 C   0  0  0  0  0  0  0  0  0  0  0  0
    1.8459    0.7845    0.0207 C   0  0  0  0  0  0  0  0  0  0  0  0
    1.6740    1.5605   -1.1400 C   0  0  0  0  0  0  0  0  0  0  0  0
    2.1799    2.8604   -1.2294 C   0  0  0  0  0  0  0  0  0  0  0  0
    2.8642    3.4175   -0.1532 C   0  0  0  0  0  0  0  0  0  0  0  0
    3.0395    2.6773    1.0116 C   0  0  0  0  0  0  0  0  0  0  0  0
    2.5326    1.3785    1.0953 C   0  0  0  0  0  0  0  0  0  0  0  0
    1.3849   -1.5812   -1.0509 C   0  0  0  0  0  0  0  0  0  0  0  0
    2.2613   -1.8374    0.1442 C   0  0  0  0  0  0  0  0  0  0  0  0
    1.9515   -3.0529    0.9881 C   0  0  0  0  0  0  0  0  0  0  0  0
    3.7458   -1.6032   -0.0195 C   0  0  0  0  0  0  0  0  0  0  0  0
   -1.8860    1.9213   -1.2272 H   0  0  0  0  0  0  0  0  0  0  0  0
   -3.5809    2.4196   -1.3183 H   0  0  0  0  0  0  0  0  0  0  0  0
   -2.7062    1.9784   -2.7948 H   0  0  0  0  0  0  0  0  0  0  0  0
   -4.2112    0.1383   -2.1483 H   0  0  0  0  0  0  0  0  0  0  0  0
   -2.5552   -0.3897   -2.0525 H   0  0  0  0  0  0  0  0  0  0  0  0
   -5.6408    0.1849   -0.2660 H   0  0  0  0  0  0  0  0  0  0  0  0
   -4.4070   -0.9739    3.4715 H   0  0  0  0  0  0  0  0  0  0  0  0
   -2.0514   -1.0513    2.8034 H   0  0  0  0  0  0  0  0  0  0  0  0
   -0.9730   -0.2114   -0.6838 H   0  0  0  0  0  0  0  0  0  0  0  0
    1.1400    1.1513   -1.9938 H   0  0  0  0  0  0  0  0  0  0  0  0
    2.0378    3.4380   -2.1391 H   0  0  0  0  0  0  0  0  0  0  0  0
    3.2568    4.4287   -0.2198 H   0  0  0  0  0  0  0  0  0  0  0  0
    3.5659    3.1086    1.8590 H   0  0  0  0  0  0  0  0  0  0  0  0
    2.6676    0.8156    2.0184 H   0  0  0  0  0  0  0  0  0  0  0  0
    1.8609   -1.2365   -1.9627 H   0  0  0  0  0  0  0  0  0  0  0  0
    0.5695   -2.2723   -1.2419 H   0  0  0  0  0  0  0  0  0  0  0  0
    0.8872   -3.3097    0.9808 H   0  0  0  0  0  0  0  0  0  0  0  0
    2.2570   -2.8807    2.0253 H   0  0  0  0  0  0  0  0  0  0  0  0
    2.4959   -3.9259    0.6122 H   0  0  0  0  0  0  0  0  0  0  0  0
    4.1960   -1.3386    0.9428 H   0  0  0  0  0  0  0  0  0  0  0  0
    3.9721   -0.8066   -0.7355 H   0  0  0  0  0  0  0  0  0  0  0  0
    4.2350   -2.5124   -0.3853 H   0  0  0  0  0  0  0  0  0  0  0  0
  1  2  1  0
  2  3  1  0
  3  4  2  0
  4  5  1  0
  5  6  2  0
  6  7  1  0
  7  8  2  0
  8  9  1  0
  9 10  1  0
 10 11  2  0
 10 12  1  0
 12 13  1  0
 13 14  2  0
 14 15  1  0
 15 16  2  0
 16 17  1  0
 17 18  2  0
 12 19  1  0
 19 20  1  0
 20 21  1  0
 20 22  1  0
  8  3  1  0
 20 12  1  0
 18 13  1  0
  1 23  1  0
  1 24  1  0
  1 25  1  0
  2 26  1  0
  2 27  1  0
  4 28  1  0
  6 29  1  0
  7 30  1  0
  9 31  1  0
 14 32  1  0
 15 33  1  0
 16 34  1  0
 17 35  1  0
 18 36  1  0
 19 37  1  0
 19 38  1  0
 21 39  1  0
 21 40  1  0
 21 41  1  0
 22 42  1  0
 22 43  1  0
 22 44  1  0
M  END
$$$$
OCNT-2309372
     RDKit          3D

 53 55  0  0  0  0  0  0  0  0999 V2000
    3.7900    2.4772    2.0492 C   0  0  0  0  0  0  0  0  0  0  0  0
    2.9122    1.5214    1.4569 O   0  0  0  0  0  0  0  0  0  0  0  0
    3.5577    0.5211    0.7885 C   0  0  0  0  0  0  0  0  0  0  0  0
    4.5525   -0.2310    1.4243 C   0  0  0  0  0  0  0  0  0  0  0  0
    5.1582   -1.3079    0.7709 C   0  0  0  0  0  0  0  0  0  0  0  0
    4.7753   -1.6565   -0.5277 C   0  0  0  0  0  0  0  0  0  0  0  0
    5.4014   -2.8325   -1.2166 C   0  0  0  0  0  0  0  0  0  0  0  0
    3.7568   -0.9267   -1.1516 C   0  0  0  0  0  0  0  0  0  0  0  0
    3.1455    0.1563   -0.4952 C   0  0  0  0  0  0  0  0  0  0  0  0
    1.9076    1.0691   -1.3973 S   0  0  0  0  0  0  0  0  0  0  0  0
    2.2442    0.9148   -2.7995 O   0  0  0  0  0  0  0  0  0  0  0  0
    1.7498    2.3953   -0.8395 O   0  0  0  0  0  0  0  0  0  0  0  0
    0.4618    0.1902   -1.1008 N   0  0  0  0  0  0  0  0  0  0  0  0
    0.1789   -0.0075    0.3707 C   0  0  0  0  0  0  0  0  0  0  0  0
   -1.2898   -0.3804    0.6412 C   0  0  0  0  0  0  0  0  0  0  0  0
   -2.2146    0.6975    0.2588 N   0  0  0  0  0  0  0  0  0  0  0  0
   -3.6425    0.3349    0.2245 C   0  0  0  0  0  0  0  0  0  0  0  0
   -4.0588   -0.5920   -0.9354 C   0  0  0  0  0  0  0  0  0  0  0  0
   -5.3673   -1.3217   -0.6401 C   0  0  0  0  0  0  0  0  0  0  0  0
   -6.1955   -0.5335    0.2040 O   0  0  0  0  0  0  0  0  0  0  0  0
   -5.6642   -0.4052    1.5241 C   0  0  0  0  0  0  0  0  0  0  0  0
   -4.1435   -0.2461    1.5524 C   0  0  0  0  0  0  0  0  0  0  0  0
   -1.7476    1.4249   -0.9407 C   0  0  0  0  0  0  0  0  0  0  0  0
   -0.7954    0.6058   -1.8517 C   0  0  1  0  0  0  0  0  0  0  0  0
   -0.5719    1.3405   -3.1699 C   0  0  0  0  0  0  0  0  0  0  0  0
    4.1150    2.1327    3.0368 H   0  0  0  0  0  0  0  0  0  0  0  0
    4.6564    2.6952    1.4126 H   0  0  0  0  0  0  0  0  0  0  0  0
    3.2281    3.4063    2.1839 H   0  0  0  0  0  0  0  0  0  0  0  0
    4.8520   -0.0055    2.4438 H   0  0  0  0  0  0  0  0  0  0  0  0
    5.9262   -1.8789    1.2884 H   0  0  0  0  0  0  0  0  0  0  0  0
    5.4024   -2.6943   -2.3039 H   0  0  0  0  0  0  0  0  0  0  0  0
    4.8446   -3.7448   -0.9788 H   0  0  0  0  0  0  0  0  0  0  0  0
    6.4428   -2.9597   -0.9019 H   0  0  0  0  0  0  0  0  0  0  0  0
    3.4353   -1.2025   -2.1564 H   0  0  0  0  0  0  0  0  0  0  0  0
    0.8121   -0.8259    0.7336 H   0  0  0  0  0  0  0  0  0  0  0  0
    0.4163    0.9025    0.9323 H   0  0  0  0  0  0  0  0  0  0  0  0
   -1.5155   -1.3114    0.1082 H   0  0  0  0  0  0  0  0  0  0  0  0
   -1.3953   -0.5841    1.7129 H   0  0  0  0  0  0  0  0  0  0  0  0
   -4.1901    1.2801    0.0928 H   0  0  0  0  0  0  0  0  0  0  0  0
   -4.1855    0.0173   -1.8398 H   0  0  0  0  0  0  0  0  0  0  0  0
   -3.2979   -1.3411   -1.1782 H   0  0  0  0  0  0  0  0  0  0  0  0
   -5.9050   -1.5139   -1.5736 H   0  0  0  0  0  0  0  0  0  0  0  0
   -5.1836   -2.2934   -0.1672 H   0  0  0  0  0  0  0  0  0  0  0  0
   -6.1401    0.4734    1.9716 H   0  0  0  0  0  0  0  0  0  0  0  0
   -5.9692   -1.2729    2.1171 H   0  0  0  0  0  0  0  0  0  0  0  0
   -3.6949   -1.2337    1.7224 H   0  0  0  0  0  0  0  0  0  0  0  0
   -3.8551    0.3777    2.4072 H   0  0  0  0  0  0  0  0  0  0  0  0
   -2.5966    1.8040   -1.5222 H   0  0  0  0  0  0  0  0  0  0  0  0
   -1.2143    2.3182   -0.5902 H   0  0  0  0  0  0  0  0  0  0  0  0
   -1.2942   -0.3345   -2.1237 H   0  0  0  0  0  0  0  0  0  0  0  0
    0.0079    0.7320   -3.8698 H   0  0  0  0  0  0  0  0  0  0  0  0
   -0.0711    2.3032   -3.0319 H   0  0  0  0  0  0  0  0  0  0  0  0
   -1.5314    1.5457   -3.6554 H   0  0  0  0  0  0  0  0  0  0  0  0
  1  2  1  0
  2  3  1  0
  3  4  1  0
  4  5  2  0
  5  6  1  0
  6  7  1  0
  6  8  2  0
  8  9  1  0
  9 10  1  0
 10 11  2  0
 10 12  2  0
 10 13  1  0
 13 14  1  0
 14 15  1  0
 15 16  1  0
 16 17  1  0
 17 18  1  0
 18 19  1  0
 19 20  1  0
 20 21  1  0
 21 22  1  0
 16 23  1  0
 23 24  1  0
 24 25  1  0
  9  3  2  0
 24 13  1  0
 22 17  1  0
  1 26  1  0
  1 27  1  0
  1 28  1  0
  4 29  1  0
  5 30  1  0
  7 31  1  0
  7 32  1  0
  7 33  1  0
  8 34  1  0
 14 35  1  0
 14 36  1  0
 15 37  1  0
 15 38  1  0
 17 39  1  0
 18 40  1  0
 18 41  1  0
 19 42  1  0
 19 43  1  0
 21 44  1  0
 21 45  1  0
 22 46  1  0
 22 47  1  0
 23 48  1  0
 23 49  1  0
 24 50  1  6
 25 51  1  0
 25 52  1  0
 25 53  1  0
M  END
$$$$
OCNT-2309377
     RDKit          3D

 49 51  0  0  0  0  0  0  0  0999 V2000
    6.6270    1.7934   -1.4764 N   0  0  0  0  0  0  0  0  0  0  0  0
    5.8316    0.9531   -0.7023 C   0  0  0  0  0  0  0  0  0  0  0  0
    5.3610   -0.2449   -1.2159 C   0  0  0  0  0  0  0  0  0  0  0  0
    4.5772   -1.0642   -0.4056 C   0  0  0  0  0  0  0  0  0  0  0  0
    4.2818   -0.6693    0.8997 C   0  0  0  0  0  0  0  0  0  0  0  0
    3.4419   -1.5238    1.8109 C   0  0  0  0  0  0  0  0  0  0  0  0
    1.9203   -1.2538    1.8109 C   0  0  0  0  0  0  0  0  0  0  0  0
    1.2561   -1.5433    0.4533 C   0  0  0  0  0  0  0  0  0  0  0  0
   -0.1708   -1.0053    0.4087 C   0  0  0  0  0  0  0  0  0  0  0  0
   -0.2280    0.4351    0.6622 N   0  0  0  0  0  0  0  0  0  0  0  0
   -1.3305    1.2323    0.3665 C   0  0  0  0  0  0  0  0  0  0  0  0
   -1.3386    2.4458    0.5736 O   0  0  0  0  0  0  0  0  0  0  0  0
   -2.5299    0.5283   -0.2477 C   0  0  0  0  0  0  0  0  0  0  0  0
   -3.7374    1.4589   -0.3583 C   0  0  0  0  0  0  0  0  0  0  0  0
   -4.9101    0.7735   -1.0118 C   0  0  0  0  0  0  0  0  0  0  0  0
   -5.2134    1.0002   -2.3607 C   0  0  0  0  0  0  0  0  0  0  0  0
   -6.2954    0.3499   -2.9605 C   0  0  0  0  0  0  0  0  0  0  0  0
   -7.0816   -0.5345   -2.2214 C   0  0  0  0  0  0  0  0  0  0  0  0
   -6.7850   -0.7708   -0.8809 C   0  0  0  0  0  0  0  0  0  0  0  0
   -5.7062   -0.1200   -0.2893 C   0  0  0  0  0  0  0  0  0  0  0  0
   -5.4283   -0.3694    0.9986 F   0  0  0  0  0  0  0  0  0  0  0  0
    0.9392    1.0494    1.2962 C   0  0  0  0  0  0  0  0  0  0  0  0
    1.5339    0.1338    2.3625 C   0  0  0  0  0  0  0  0  0  0  0  0
    4.8220    0.5395    1.3241 C   0  0  0  0  0  0  0  0  0  0  0  0
    5.5811    1.3527    0.5533 N   0  0  0  0  0  0  0  0  0  0  0  0
    6.1694    2.0353   -2.3470 H   0  0  0  0  0  0  0  0  0  0  0  0
    6.8149    2.6165   -0.9087 H   0  0  0  0  0  0  0  0  0  0  0  0
    5.6085   -0.5459   -2.2277 H   0  0  0  0  0  0  0  0  0  0  0  0
    4.2099   -2.0082   -0.7984 H   0  0  0  0  0  0  0  0  0  0  0  0
    3.6120   -2.5782    1.5532 H   0  0  0  0  0  0  0  0  0  0  0  0
    3.8228   -1.4204    2.8360 H   0  0  0  0  0  0  0  0  0  0  0  0
    1.5028   -1.9827    2.5221 H   0  0  0  0  0  0  0  0  0  0  0  0
    1.2546   -2.6231    0.2643 H   0  0  0  0  0  0  0  0  0  0  0  0
    1.8178   -1.0793   -0.3643 H   0  0  0  0  0  0  0  0  0  0  0  0
   -0.7873   -1.4965    1.1704 H   0  0  0  0  0  0  0  0  0  0  0  0
   -0.6118   -1.2217   -0.5689 H   0  0  0  0  0  0  0  0  0  0  0  0
   -2.2466    0.1766   -1.2467 H   0  0  0  0  0  0  0  0  0  0  0  0
   -2.7881   -0.3404    0.3687 H   0  0  0  0  0  0  0  0  0  0  0  0
   -4.0360    1.8181    0.6350 H   0  0  0  0  0  0  0  0  0  0  0  0
   -3.4737    2.3584   -0.9299 H   0  0  0  0  0  0  0  0  0  0  0  0
   -4.6108    1.6864   -2.9523 H   0  0  0  0  0  0  0  0  0  0  0  0
   -6.5254    0.5350   -4.0073 H   0  0  0  0  0  0  0  0  0  0  0  0
   -7.9234   -1.0375   -2.6902 H   0  0  0  0  0  0  0  0  0  0  0  0
   -7.3854   -1.4568   -0.2923 H   0  0  0  0  0  0  0  0  0  0  0  0
    0.6710    2.0095    1.7491 H   0  0  0  0  0  0  0  0  0  0  0  0
    1.6712    1.2559    0.5069 H   0  0  0  0  0  0  0  0  0  0  0  0
    2.3763    0.6241    2.8594 H   0  0  0  0  0  0  0  0  0  0  0  0
    0.7752   -0.0112    3.1442 H   0  0  0  0  0  0  0  0  0  0  0  0
    4.6641    0.9061    2.3348 H   0  0  0  0  0  0  0  0  0  0  0  0
  1  2  1  0
  2  3  2  0
  3  4  1  0
  4  5  2  0
  5  6  1  0
  6  7  1  0
  7  8  1  0
  8  9  1  0
  9 10  1  0
 10 11  1  0
 11 12  2  0
 11 13  1  0
 13 14  1  0
 14 15  1  0
 15 16  2  0
 16 17  1  0
 17 18  2  0
 18 19  1  0
 19 20  2  0
 20 21  1  0
 10 22  1  0
 22 23  1  0
  5 24  1  0
 24 25  2  0
 25  2  1  0
 23  7  1  0
 20 15  1  0
  1 26  1  0
  1 27  1  0
  3 28  1  0
  4 29  1  0
  6 30  1  0
  6 31  1  0
  7 32  1  0
  8 33  1  0
  8 34  1  0
  9 35  1  0
  9 36  1  0
 13 37  1  0
 13 38  1  0
 14 39  1  0
 14 40  1  0
 16 41  1  0
 17 42  1  0
 18 43  1  0
 19 44  1  0
 22 45  1  0
 22 46  1  0
 23 47  1  0
 23 48  1  0
 24 49  1  0
M  END
$$$$
OCNT-2309379
     RDKit          3D

 50 53  0  0  0  0  0  0  0  0999 V2000
    5.9487    1.9164    0.4052 C   0  0  0  0  0  0  0  0  0  0  0  0
    5.1579    0.7126    0.4811 N   0  0  0  0  0  0  0  0  0  0  0  0
    4.7931   -0.0993   -0.5527 C   0  0  0  0  0  0  0  0  0  0  0  0
    4.0331   -1.1128   -0.0051 C   0  0  0  0  0  0  0  0  0  0  0  0
    3.3888   -2.2617   -0.6959 C   0  0  0  0  0  0  0  0  0  0  0  0
    1.9931   -1.9960   -1.2491 C   0  0  0  0  0  0  0  0  0  0  0  0
    0.9171   -1.3543   -0.3497 C   0  0  0  0  0  0  0  0  0  0  0  0
    0.5488   -0.5513   -1.5009 N   0  0  0  0  0  0  0  0  0  0  0  0
   -0.2878    0.5067   -1.7065 C   0  0  0  0  0  0  0  0  0  0  0  0
   -0.2134    1.1704   -2.7465 O   0  0  0  0  0  0  0  0  0  0  0  0
   -1.2932    0.9136   -0.6298 C   0  0  2  0  0  0  0  0  0  0  0  0
   -0.5805    1.6593    0.5054 C   0  0  0  0  0  0  0  0  0  0  0  0
   -1.3989    1.6249    1.7836 C   0  0  0  0  0  0  0  0  0  0  0  0
   -1.7539    0.1998    2.1908 C   0  0  0  0  0  0  0  0  0  0  0  0
   -1.6736   -0.7445    1.1237 O   0  0  0  0  0  0  0  0  0  0  0  0
   -2.1566   -0.2697   -0.1460 C   0  0  1  0  0  0  0  0  0  0  0  0
   -3.6748   -0.1142   -0.0787 C   0  0  0  0  0  0  0  0  0  0  0  0
   -4.4439   -1.2744    0.1385 C   0  0  0  0  0  0  0  0  0  0  0  0
   -5.8366   -1.2183    0.2162 C   0  0  0  0  0  0  0  0  0  0  0  0
   -6.4897    0.0020    0.0814 C   0  0  0  0  0  0  0  0  0  0  0  0
   -5.7491    1.1624   -0.1264 C   0  0  0  0  0  0  0  0  0  0  0  0
   -4.3535    1.1064   -0.2038 C   0  0  0  0  0  0  0  0  0  0  0  0
    1.7700   -0.8425   -2.2420 C   0  0  0  0  0  0  0  0  0  0  0  0
    4.0303   -0.8216    1.3797 C   0  0  0  0  0  0  0  0  0  0  0  0
    4.7023    0.2926    1.6739 N   0  0  0  0  0  0  0  0  0  0  0  0
    5.3489    2.7473    0.7847 H   0  0  0  0  0  0  0  0  0  0  0  0
    6.2289    2.1029   -0.6344 H   0  0  0  0  0  0  0  0  0  0  0  0
    6.8454    1.7788    1.0146 H   0  0  0  0  0  0  0  0  0  0  0  0
    5.0916    0.1083   -1.5710 H   0  0  0  0  0  0  0  0  0  0  0  0
    3.3358   -3.1058    0.0041 H   0  0  0  0  0  0  0  0  0  0  0  0
    4.0399   -2.5943   -1.5146 H   0  0  0  0  0  0  0  0  0  0  0  0
    1.6222   -2.9421   -1.6774 H   0  0  0  0  0  0  0  0  0  0  0  0
    1.2728   -0.7661    0.4966 H   0  0  0  0  0  0  0  0  0  0  0  0
    0.1526   -2.0629   -0.0253 H   0  0  0  0  0  0  0  0  0  0  0  0
   -1.9367    1.6307   -1.1528 H   0  0  0  0  0  0  0  0  0  0  0  0
   -0.4076    2.7002    0.2049 H   0  0  0  0  0  0  0  0  0  0  0  0
    0.4124    1.2439    0.7034 H   0  0  0  0  0  0  0  0  0  0  0  0
   -2.3213    2.1985    1.6349 H   0  0  0  0  0  0  0  0  0  0  0  0
   -0.8693    2.1277    2.6008 H   0  0  0  0  0  0  0  0  0  0  0  0
   -1.0544   -0.1445    2.9604 H   0  0  0  0  0  0  0  0  0  0  0  0
   -2.7527    0.1614    2.6397 H   0  0  0  0  0  0  0  0  0  0  0  0
   -2.0063   -1.0994   -0.8497 H   0  0  0  0  0  0  0  0  0  0  0  0
   -3.9479   -2.2368    0.2565 H   0  0  0  0  0  0  0  0  0  0  0  0
   -6.4079   -2.1273    0.3843 H   0  0  0  0  0  0  0  0  0  0  0  0
   -7.5736    0.0501    0.1411 H   0  0  0  0  0  0  0  0  0  0  0  0
   -6.2582    2.1178   -0.2278 H   0  0  0  0  0  0  0  0  0  0  0  0
   -3.8237    2.0420   -0.3554 H   0  0  0  0  0  0  0  0  0  0  0  0
    1.5932   -1.1510   -3.2758 H   0  0  0  0  0  0  0  0  0  0  0  0
    2.4787   -0.0115   -2.2155 H   0  0  0  0  0  0  0  0  0  0  0  0
    3.5595   -1.3743    2.1830 H   0  0  0  0  0  0  0  0  0  0  0  0
  1  2  1  0
  2  3  1  0
  3  4  2  0
  4  5  1  0
  5  6  1  0
  6  7  1  0
  7  8  1  0
  8  9  1  0
  9 10  2  0
  9 11  1  0
 11 12  1  0
 12 13  1  0
 13 14  1  0
 14 15  1  0
 15 16  1  0
 16 17  1  0
 17 18  2  0
 18 19  1  0
 19 20  2  0
 20 21  1  0
 21 22  2  0
  8 23  1  0
  4 24  1  0
 24 25  2  0
 25  2  1  0
 23  6  1  0
 16 11  1  0
 22 17  1  0
  1 26  1  0
  1 27  1  0
  1 28  1  0
  3 29  1  0
  5 30  1  0
  5 31  1  0
  6 32  1  0
  7 33  1  0
  7 34  1  0
 11 35  1  6
 12 36  1  0
 12 37  1  0
 13 38  1  0
 13 39  1  0
 14 40  1  0
 14 41  1  0
 16 42  1  6
 18 43  1  0
 19 44  1  0
 20 45  1  0
 21 46  1  0
 22 47  1  0
 23 48  1  0
 23 49  1  0
 24 50  1  0
M  END
$$$$
OCNT-2309390
     RDKit          3D

 35 37  0  0  0  0  0  0  0  0999 V2000
   -0.8975   -2.3204   -2.3003 F   0  0  0  0  0  0  0  0  0  0  0  0
   -0.1516   -1.5491   -1.4663 C   0  0  0  0  0  0  0  0  0  0  0  0
   -0.2437   -0.2833   -1.9235 F   0  0  0  0  0  0  0  0  0  0  0  0
    1.1247   -1.9592   -1.6076 F   0  0  0  0  0  0  0  0  0  0  0  0
   -0.6602   -1.7055   -0.0513 C   0  0  0  0  0  0  0  0  0  0  0  0
   -0.1253   -0.7382    0.8853 N   0  0  0  0  0  0  0  0  0  0  0  0
   -0.7765    0.3998    1.3318 C   0  0  0  0  0  0  0  0  0  0  0  0
   -2.0796    0.8659    0.8859 C   0  0  0  0  0  0  0  0  0  0  0  0
   -3.2139    0.6342    1.6717 C   0  0  0  0  0  0  0  0  0  0  0  0
   -4.4682    1.0710    1.2415 C   0  0  0  0  0  0  0  0  0  0  0  0
   -4.5935    1.7450    0.0274 C   0  0  0  0  0  0  0  0  0  0  0  0
   -3.4653    1.9875   -0.7551 C   0  0  0  0  0  0  0  0  0  0  0  0
   -2.2104    1.5519   -0.3259 C   0  0  0  0  0  0  0  0  0  0  0  0
    0.0790    0.9376    2.2740 C   0  0  0  0  0  0  0  0  0  0  0  0
    1.2047    0.1747    2.4199 N   0  0  0  0  0  0  0  0  0  0  0  0
    1.0610   -0.8132    1.5702 C   0  0  0  0  0  0  0  0  0  0  0  0
    2.2229   -2.0777    1.3584 S   0  0  0  0  0  0  0  0  0  0  0  0
    3.7079   -1.0614    1.0556 C   0  0  0  0  0  0  0  0  0  0  0  0
    3.7427   -0.5588   -0.3578 C   0  0  0  0  0  0  0  0  0  0  0  0
    3.0387    0.4605   -0.8125 N   0  0  0  0  0  0  0  0  0  0  0  0
    3.2930    0.6464   -2.1558 C   0  0  0  0  0  0  0  0  0  0  0  0
    4.1963   -0.2283   -2.7164 C   0  0  0  0  0  0  0  0  0  0  0  0
    4.7523   -1.3272   -1.5262 S   0  0  0  0  0  0  0  0  0  0  0  0
   -0.4407   -2.7090    0.3286 H   0  0  0  0  0  0  0  0  0  0  0  0
   -1.7516   -1.6170   -0.0437 H   0  0  0  0  0  0  0  0  0  0  0  0
   -3.1274    0.1132    2.6227 H   0  0  0  0  0  0  0  0  0  0  0  0
   -5.3466    0.8891    1.8555 H   0  0  0  0  0  0  0  0  0  0  0  0
   -5.5697    2.0880   -0.3060 H   0  0  0  0  0  0  0  0  0  0  0  0
   -3.5605    2.5211   -1.6974 H   0  0  0  0  0  0  0  0  0  0  0  0
   -1.3357    1.7590   -0.9394 H   0  0  0  0  0  0  0  0  0  0  0  0
   -0.0674    1.8381    2.8571 H   0  0  0  0  0  0  0  0  0  0  0  0
    3.7502   -0.2191    1.7542 H   0  0  0  0  0  0  0  0  0  0  0  0
    4.5827   -1.6858    1.2679 H   0  0  0  0  0  0  0  0  0  0  0  0
    2.7849    1.4436   -2.6845 H   0  0  0  0  0  0  0  0  0  0  0  0
    4.5443   -0.2736   -3.7379 H   0  0  0  0  0  0  0  0  0  0  0  0
  1  2  1  0
  2  3  1  0
  2  4  1  0
  2  5  1  0
  5  6  1  0
  6  7  1  0
  7  8  1  0
  8  9  2  0
  9 10  1  0
 10 11  2  0
 11 12  1  0
 12 13  2  0
  7 14  2  0
 14 15  1  0
 15 16  2  0
 16 17  1  0
 17 18  1  0
 18 19  1  0
 19 20  2  0
 20 21  1  0
 21 22  2  0
 22 23  1  0
 16  6  1  0
 23 19  1  0
 13  8  1  0
  5 24  1  0
  5 25  1  0
  9 26  1  0
 10 27  1  0
 11 28  1  0
 12 29  1  0
 13 30  1  0
 14 31  1  0
 18 32  1  0
 18 33  1  0
 21 34  1  0
 22 35  1  0
M  END
$$$$
OCNT-2309398
     RDKit          3D

 50 53  0  0  0  0  0  0  0  0999 V2000
   -3.1698   -4.7714   -2.2290 C   0  0  0  0  0  0  0  0  0  0  0  0
   -3.7685   -3.5000   -2.0146 O   0  0  0  0  0  0  0  0  0  0  0  0
   -3.0597   -2.6018   -1.2658 C   0  0  0  0  0  0  0  0  0  0  0  0
   -3.6818   -1.3671   -1.0891 C   0  0  0  0  0  0  0  0  0  0  0  0
   -3.0647   -0.3584   -0.3442 C   0  0  0  0  0  0  0  0  0  0  0  0
   -1.7990   -0.5557    0.2391 C   0  0  0  0  0  0  0  0  0  0  0  0
   -1.1708    0.5723    1.0540 C   0  0  0  0  0  0  0  0  0  0  0  0
    0.0240    0.2197    1.9736 C   0  0  0  0  0  0  0  0  0  0  0  0
    1.2824   -0.0113    1.2779 N   0  0  0  0  0  0  0  0  0  0  0  0
    2.2217   -0.8943    1.7333 C   0  0  0  0  0  0  0  0  0  0  0  0
    2.0865   -1.6533    2.6800 O   0  0  0  0  0  0  0  0  0  0  0  0
    3.4881   -0.8734    0.9660 C   0  0  2  0  0  0  0  0  0  0  0  0
    3.5018   -1.0313   -0.5400 C   0  0  0  0  0  0  0  0  0  0  0  0
    3.9704   -2.1663    0.3376 C   0  0  1  0  0  0  0  0  0  0  0  0
    5.3949   -2.5633    0.4189 C   0  0  0  0  0  0  0  0  0  0  0  0
    5.6449   -3.2387    1.5605 F   0  0  0  0  0  0  0  0  0  0  0  0
    5.7164   -3.3663   -0.6212 F   0  0  0  0  0  0  0  0  0  0  0  0
    6.2163   -1.4886    0.3807 F   0  0  0  0  0  0  0  0  0  0  0  0
   -0.8401    1.6942    0.0853 C   0  0  0  0  0  0  0  0  0  0  0  0
   -0.3288    1.6011   -1.2003 C   0  0  0  0  0  0  0  0  0  0  0  0
   -0.1879    2.8626   -1.7089 N   0  0  0  0  0  0  0  0  0  0  0  0
   -0.5577    3.7963   -0.7715 C   0  0  0  0  0  0  0  0  0  0  0  0
   -0.5587    5.1944   -0.8464 C   0  0  0  0  0  0  0  0  0  0  0  0
   -0.9959    5.9037    0.2753 C   0  0  0  0  0  0  0  0  0  0  0  0
   -1.4162    5.2388    1.4239 C   0  0  0  0  0  0  0  0  0  0  0  0
   -1.4112    3.8400    1.4807 C   0  0  0  0  0  0  0  0  0  0  0  0
   -0.9742    3.0984    0.3626 C   0  0  0  0  0  0  0  0  0  0  0  0
   -1.1899   -1.8065    0.0604 C   0  0  0  0  0  0  0  0  0  0  0  0
   -1.8121   -2.8184   -0.6852 C   0  0  0  0  0  0  0  0  0  0  0  0
   -3.8515   -5.3607   -2.8492 H   0  0  0  0  0  0  0  0  0  0  0  0
   -2.2238   -4.6768   -2.7725 H   0  0  0  0  0  0  0  0  0  0  0  0
   -3.0317   -5.3071   -1.2843 H   0  0  0  0  0  0  0  0  0  0  0  0
   -4.6567   -1.1861   -1.5349 H   0  0  0  0  0  0  0  0  0  0  0  0
   -3.5777    0.5950   -0.2289 H   0  0  0  0  0  0  0  0  0  0  0  0
   -1.9678    0.9186    1.7285 H   0  0  0  0  0  0  0  0  0  0  0  0
   -0.2172   -0.6459    2.6014 H   0  0  0  0  0  0  0  0  0  0  0  0
    0.2180    1.0609    2.6511 H   0  0  0  0  0  0  0  0  0  0  0  0
    1.5596    0.6689    0.5805 H   0  0  0  0  0  0  0  0  0  0  0  0
    4.2467   -0.2338    1.4074 H   0  0  0  0  0  0  0  0  0  0  0  0
    4.2422   -0.4691   -1.0986 H   0  0  0  0  0  0  0  0  0  0  0  0
    2.5595   -1.1603   -1.0619 H   0  0  0  0  0  0  0  0  0  0  0  0
    3.3347   -3.0398    0.4172 H   0  0  0  0  0  0  0  0  0  0  0  0
   -0.0802    0.7366   -1.8031 H   0  0  0  0  0  0  0  0  0  0  0  0
    0.1407    3.0840   -2.6388 H   0  0  0  0  0  0  0  0  0  0  0  0
   -0.2337    5.7159   -1.7409 H   0  0  0  0  0  0  0  0  0  0  0  0
   -1.0093    6.9911    0.2489 H   0  0  0  0  0  0  0  0  0  0  0  0
   -1.7539    5.8097    2.2855 H   0  0  0  0  0  0  0  0  0  0  0  0
   -1.7449    3.3380    2.3839 H   0  0  0  0  0  0  0  0  0  0  0  0
   -0.2218   -2.0290    0.5007 H   0  0  0  0  0  0  0  0  0  0  0  0
   -1.2918   -3.7653   -0.7856 H   0  0  0  0  0  0  0  0  0  0  0  0
  1  2  1  0
  2  3  1  0
  3  4  1  0
  4  5  2  0
  5  6  1  0
  6  7  1  0
  7  8  1  0
  8  9  1  0
  9 10  1  0
 10 11  2  0
 10 12  1  0
 12 13  1  0
 13 14  1  0
 14 15  1  0
 15 16  1  0
 15 17  1  0
 15 18  1  0
  7 19  1  0
 19 20  2  0
 20 21  1  0
 21 22  1  0
 22 23  2  0
 23 24  1  0
 24 25  2  0
 25 26  1  0
 26 27  2  0
  6 28  2  0
 28 29  1  0
 29  3  2  0
 14 12  1  0
 27 19  1  0
 27 22  1  0
  1 30  1  0
  1 31  1  0
  1 32  1  0
  4 33  1  0
  5 34  1  0
  7 35  1  0
  8 36  1  0
  8 37  1  0
  9 38  1  0
 12 39  1  6
 13 40  1  0
 13 41  1  0
 14 42  1  1
 20 43  1  0
 21 44  1  0
 23 45  1  0
 24 46  1  0
 25 47  1  0
 26 48  1  0
 28 49  1  0
 29 50  1  0
M  END
$$$$
OCNT-2309402
     RDKit          3D

 44 47  0  0  0  0  0  0  0  0999 V2000
    2.0424   -1.8809   -2.3864 O   0  0  0  0  0  0  0  0  0  0  0  0
    2.0225   -1.3289   -1.2885 C   0  0  0  0  0  0  0  0  0  0  0  0
    3.2031   -1.3308   -0.4442 C   0  0  0  0  0  0  0  0  0  0  0  0
    4.0303   -2.4247   -0.2811 C   0  0  0  0  0  0  0  0  0  0  0  0
    5.0561   -2.1416    0.5607 O   0  0  0  0  0  0  0  0  0  0  0  0
    4.9294   -0.8337    0.9123 C   0  0  0  0  0  0  0  0  0  0  0  0
    5.7976   -0.1377    1.7504 C   0  0  0  0  0  0  0  0  0  0  0  0
    5.5092    1.2132    1.9679 C   0  0  0  0  0  0  0  0  0  0  0  0
    4.4066    1.8218    1.3639 C   0  0  0  0  0  0  0  0  0  0  0  0
    3.5494    1.0936    0.5265 C   0  0  0  0  0  0  0  0  0  0  0  0
    3.8102   -0.2739    0.3053 C   0  0  0  0  0  0  0  0  0  0  0  0
    0.8891   -0.6602   -0.8116 N   0  0  0  0  0  0  0  0  0  0  0  0
   -0.2466   -0.5717   -1.7294 C   0  0  0  0  0  0  0  0  0  0  0  0
   -1.2533    0.5130   -1.3042 C   0  0  0  0  0  0  0  0  0  0  0  0
   -1.7028    0.3427    0.1024 N   0  0  0  0  0  0  0  0  0  0  0  0
   -2.6209    1.4281    0.4959 C   0  0  0  0  0  0  0  0  0  0  0  0
   -3.9386    1.3738   -0.2218 C   0  0  0  0  0  0  0  0  0  0  0  0
   -4.5193    2.3961   -0.8244 N   0  0  0  0  0  0  0  0  0  0  0  0
   -5.6893    1.9142   -1.3480 C   0  0  0  0  0  0  0  0  0  0  0  0
   -5.8341    0.5803   -1.0609 C   0  0  0  0  0  0  0  0  0  0  0  0
   -4.7173    0.2438   -0.3389 N   0  0  0  0  0  0  0  0  0  0  0  0
   -4.4123   -1.0777    0.1723 C   0  0  0  0  0  0  0  0  0  0  0  0
   -3.8091   -1.8398   -0.7773 F   0  0  0  0  0  0  0  0  0  0  0  0
   -5.5531   -1.7360    0.5224 F   0  0  0  0  0  0  0  0  0  0  0  0
   -0.5139    0.3464    0.9852 C   0  0  0  0  0  0  0  0  0  0  0  0
    0.4987   -0.7469    0.5997 C   0  0  0  0  0  0  0  0  0  0  0  0
    4.0111   -3.4325   -0.6736 H   0  0  0  0  0  0  0  0  0  0  0  0
    6.6565   -0.6225    2.1984 H   0  0  0  0  0  0  0  0  0  0  0  0
    6.1624    1.8007    2.6100 H   0  0  0  0  0  0  0  0  0  0  0  0
    4.2139    2.8783    1.5392 H   0  0  0  0  0  0  0  0  0  0  0  0
    2.7034    1.5830    0.0525 H   0  0  0  0  0  0  0  0  0  0  0  0
    0.1174   -0.3533   -2.7401 H   0  0  0  0  0  0  0  0  0  0  0  0
   -0.7325   -1.5554   -1.7573 H   0  0  0  0  0  0  0  0  0  0  0  0
   -2.1077    0.4596   -1.9882 H   0  0  0  0  0  0  0  0  0  0  0  0
   -0.7876    1.4993   -1.4334 H   0  0  0  0  0  0  0  0  0  0  0  0
   -2.1585    2.4110    0.3369 H   0  0  0  0  0  0  0  0  0  0  0  0
   -2.8405    1.3516    1.5689 H   0  0  0  0  0  0  0  0  0  0  0  0
   -6.3635    2.5527   -1.9045 H   0  0  0  0  0  0  0  0  0  0  0  0
   -6.6060   -0.1386   -1.3003 H   0  0  0  0  0  0  0  0  0  0  0  0
   -3.7791   -1.0125    1.0594 H   0  0  0  0  0  0  0  0  0  0  0  0
   -0.8262    0.1725    2.0218 H   0  0  0  0  0  0  0  0  0  0  0  0
   -0.0155    1.3244    0.9491 H   0  0  0  0  0  0  0  0  0  0  0  0
    0.0557   -1.7403    0.7495 H   0  0  0  0  0  0  0  0  0  0  0  0
    1.3629   -0.6915    1.2637 H   0  0  0  0  0  0  0  0  0  0  0  0
  1  2  2  0
  2  3  1  0
  3  4  2  0
  4  5  1  0
  5  6  1  0
  6  7  2  0
  7  8  1  0
  8  9  2  0
  9 10  1  0
 10 11  2  0
  2 12  1  0
 12 13  1  0
 13 14  1  0
 14 15  1  0
 15 16  1  0
 16 17  1  0
 17 18  2  0
 18 19  1  0
 19 20  2  0
 20 21  1  0
 21 22  1  0
 22 23  1  0
 22 24  1  0
 15 25  1  0
 25 26  1  0
 11  3  1  0
 26 12  1  0
 11  6  1  0
 21 17  1  0
  4 27  1  0
  7 28  1  0
  8 29  1  0
  9 30  1  0
 10 31  1  0
 13 32  1  0
 13 33  1  0
 14 34  1  0
 14 35  1  0
 16 36  1  0
 16 37  1  0
 19 38  1  0
 20 39  1  0
 22 40  1  0
 25 41  1  0
 25 42  1  0
 26 43  1  0
 26 44  1  0
M  END
$$$$
OCNT-2309424
     RDKit          3D

 43 45  0  0  0  0  0  0  0  0999 V2000
   -3.9038   -1.6833   -0.5282 C   0  0  0  0  0  0  0  0  0  0  0  0
   -4.4045   -0.2687   -0.4108 C   0  0  0  0  0  0  0  0  0  0  0  0
   -5.6231    0.0656   -1.0262 C   0  0  0  0  0  0  0  0  0  0  0  0
   -6.1404    1.3573   -0.9390 C   0  0  0  0  0  0  0  0  0  0  0  0
   -5.4502    2.3336   -0.2312 C   0  0  0  0  0  0  0  0  0  0  0  0
   -4.2429    2.0174    0.3904 C   0  0  0  0  0  0  0  0  0  0  0  0
   -3.7036    0.7183    0.3198 C   0  0  0  0  0  0  0  0  0  0  0  0
   -2.3640    0.4268    0.9790 C   0  0  0  0  0  0  0  0  0  0  0  0
   -2.2648    1.1750    2.1979 O   0  0  0  0  0  0  0  0  0  0  0  0
   -1.2171    0.7944    0.0288 C   0  0  0  0  0  0  0  0  0  0  0  0
    0.0233    0.1592    0.4263 N   0  0  0  0  0  0  0  0  0  0  0  0
    0.8020   -0.6930   -0.2939 C   0  0  0  0  0  0  0  0  0  0  0  0
    1.8401   -1.0007    0.5623 C   0  0  0  0  0  0  0  0  0  0  0  0
    3.0127   -1.9013    0.3617 C   0  0  0  0  0  0  0  0  0  0  0  0
    4.2165   -1.2421   -0.1465 N   0  0  0  0  0  0  0  0  0  0  0  0
    4.1069   -0.6255   -1.4613 C   0  0  0  0  0  0  0  0  0  0  0  0
    5.4278    0.1221   -1.5819 C   0  0  0  0  0  0  0  0  0  0  0  0
    5.8669    0.3959   -0.1453 C   0  0  0  0  0  0  0  0  0  0  0  0
    4.7858   -0.2239    0.7304 C   0  0  0  0  0  0  0  0  0  0  0  0
    1.6342   -0.3532    1.7567 N   0  0  0  0  0  0  0  0  0  0  0  0
    0.5241    0.3636    1.6567 N   0  0  0  0  0  0  0  0  0  0  0  0
   -4.5052   -2.2654   -1.2348 H   0  0  0  0  0  0  0  0  0  0  0  0
   -3.9545   -2.1830    0.4442 H   0  0  0  0  0  0  0  0  0  0  0  0
   -2.8731   -1.6985   -0.8960 H   0  0  0  0  0  0  0  0  0  0  0  0
   -6.1843   -0.6849   -1.5795 H   0  0  0  0  0  0  0  0  0  0  0  0
   -7.0852    1.5987   -1.4186 H   0  0  0  0  0  0  0  0  0  0  0  0
   -5.8527    3.3401   -0.1544 H   0  0  0  0  0  0  0  0  0  0  0  0
   -3.7221    2.7937    0.9496 H   0  0  0  0  0  0  0  0  0  0  0  0
   -2.3167   -0.6279    1.2712 H   0  0  0  0  0  0  0  0  0  0  0  0
   -1.3868    0.9709    2.5802 H   0  0  0  0  0  0  0  0  0  0  0  0
   -1.0257    1.8740    0.0238 H   0  0  0  0  0  0  0  0  0  0  0  0
   -1.4244    0.4733   -0.9985 H   0  0  0  0  0  0  0  0  0  0  0  0
    0.5757   -0.9949   -1.3056 H   0  0  0  0  0  0  0  0  0  0  0  0
    2.7333   -2.7092   -0.3263 H   0  0  0  0  0  0  0  0  0  0  0  0
    3.2504   -2.3956    1.3121 H   0  0  0  0  0  0  0  0  0  0  0  0
    3.9908   -1.3645   -2.2601 H   0  0  0  0  0  0  0  0  0  0  0  0
    3.2813    0.0922   -1.5241 H   0  0  0  0  0  0  0  0  0  0  0  0
    6.1795   -0.4957   -2.0872 H   0  0  0  0  0  0  0  0  0  0  0  0
    5.3150    1.0483   -2.1545 H   0  0  0  0  0  0  0  0  0  0  0  0
    5.9724    1.4684    0.0476 H   0  0  0  0  0  0  0  0  0  0  0  0
    6.8385   -0.0762    0.0417 H   0  0  0  0  0  0  0  0  0  0  0  0
    5.2081   -0.6511    1.6452 H   0  0  0  0  0  0  0  0  0  0  0  0
    4.0598    0.5496    1.0058 H   0  0  0  0  0  0  0  0  0  0  0  0
  1  2  1  0
  2  3  2  0
  3  4  1  0
  4  5  2  0
  5  6  1  0
  6  7  2  0
  7  8  1  0
  8  9  1  0
  8 10  1  0
 10 11  1  0
 11 12  1  0
 12 13  2  0
 13 14  1  0
 14 15  1  0
 15 16  1  0
 16 17  1  0
 17 18  1  0
 18 19  1  0
 13 20  1  0
 20 21  2  0
  7  2  1  0
 21 11  1  0
 19 15  1  0
  1 22  1  0
  1 23  1  0
  1 24  1  0
  3 25  1  0
  4 26  1  0
  5 27  1  0
  6 28  1  0
  8 29  1  0
  9 30  1  0
 10 31  1  0
 10 32  1  0
 12 33  1  0
 14 34  1  0
 14 35  1  0
 16 36  1  0
 16 37  1  0
 17 38  1  0
 17 39  1  0
 18 40  1  0
 18 41  1  0
 19 42  1  0
 19 43  1  0
M  END
$$$$
OCNT-2309429
     RDKit          3D

 45 48  0  0  0  0  0  0  0  0999 V2000
   -2.3157    5.2513    0.4121 C   0  0  0  0  0  0  0  0  0  0  0  0
   -2.0479    3.7813    0.3708 C   0  0  0  0  0  0  0  0  0  0  0  0
   -0.8296    3.1273    0.2396 C   0  0  0  0  0  0  0  0  0  0  0  0
    0.4974    3.8078    0.1092 C   0  0  0  0  0  0  0  0  0  0  0  0
   -0.9967    1.6835    0.2427 C   0  0  0  0  0  0  0  0  0  0  0  0
   -0.0968    0.6029    0.1404 C   0  0  0  0  0  0  0  0  0  0  0  0
    1.2920    0.8013    0.0232 N   0  0  0  0  0  0  0  0  0  0  0  0
    1.9834    0.3354    1.2453 C   0  0  0  0  0  0  0  0  0  0  0  0
    2.8200   -0.8621    0.8143 C   0  0  0  0  0  0  0  0  0  0  0  0
    3.1616   -0.5115   -0.6222 C   0  0  0  0  0  0  0  0  0  0  0  0
    3.7105   -1.9109   -1.5582 S   0  0  0  0  0  0  0  0  0  0  0  0
    3.8700   -1.2774   -3.1029 N   0  0  0  0  0  0  0  0  0  0  0  0
    2.6651   -2.9006   -1.6525 O   0  0  0  0  0  0  0  0  0  0  0  0
    5.0550   -2.2498   -1.1520 O   0  0  0  0  0  0  0  0  0  0  0  0
    1.8567    0.0654   -1.1362 C   0  0  0  0  0  0  0  0  0  0  0  0
   -0.5864   -0.6580    0.1886 N   0  0  0  0  0  0  0  0  0  0  0  0
   -1.9107   -0.8616    0.3196 C   0  0  0  0  0  0  0  0  0  0  0  0
   -2.3741   -2.2568    0.3592 C   0  0  0  0  0  0  0  0  0  0  0  0
   -3.7069   -2.6027    0.6348 C   0  0  0  0  0  0  0  0  0  0  0  0
   -4.1064   -3.9389    0.6699 C   0  0  0  0  0  0  0  0  0  0  0  0
   -3.1570   -4.9135    0.4246 C   0  0  0  0  0  0  0  0  0  0  0  0
   -1.8664   -4.6408    0.1513 N   0  0  0  0  0  0  0  0  0  0  0  0
   -1.5105   -3.3290    0.1251 C   0  0  0  0  0  0  0  0  0  0  0  0
   -2.8384    0.0961    0.4237 N   0  0  0  0  0  0  0  0  0  0  0  0
   -2.3283    1.3361    0.3787 C   0  0  0  0  0  0  0  0  0  0  0  0
   -3.3535    2.6855    0.4970 S   0  0  0  0  0  0  0  0  0  0  0  0
   -1.8090    5.7018    1.2722 H   0  0  0  0  0  0  0  0  0  0  0  0
   -1.9412    5.7292   -0.4996 H   0  0  0  0  0  0  0  0  0  0  0  0
   -3.3832    5.4827    0.4940 H   0  0  0  0  0  0  0  0  0  0  0  0
    0.9728    3.5396   -0.8404 H   0  0  0  0  0  0  0  0  0  0  0  0
    0.4026    4.8977    0.1346 H   0  0  0  0  0  0  0  0  0  0  0  0
    1.1582    3.5163    0.9323 H   0  0  0  0  0  0  0  0  0  0  0  0
    1.3183    0.0850    2.0809 H   0  0  0  0  0  0  0  0  0  0  0  0
    2.6399    1.1453    1.5862 H   0  0  0  0  0  0  0  0  0  0  0  0
    3.7052   -1.0008    1.4420 H   0  0  0  0  0  0  0  0  0  0  0  0
    2.2208   -1.7796    0.8683 H   0  0  0  0  0  0  0  0  0  0  0  0
    3.9598    0.2406   -0.6468 H   0  0  0  0  0  0  0  0  0  0  0  0
    4.8508   -1.3227   -3.3917 H   0  0  0  0  0  0  0  0  0  0  0  0
    3.2483   -1.7732   -3.7479 H   0  0  0  0  0  0  0  0  0  0  0  0
    2.0342    0.7657   -1.9606 H   0  0  0  0  0  0  0  0  0  0  0  0
    1.1909   -0.7185   -1.5168 H   0  0  0  0  0  0  0  0  0  0  0  0
   -4.4461   -1.8270    0.8279 H   0  0  0  0  0  0  0  0  0  0  0  0
   -5.1339   -4.2081    0.8853 H   0  0  0  0  0  0  0  0  0  0  0  0
   -3.4158   -5.9688    0.4413 H   0  0  0  0  0  0  0  0  0  0  0  0
   -0.4591   -3.1657   -0.1049 H   0  0  0  0  0  0  0  0  0  0  0  0
  1  2  1  0
  2  3  2  0
  3  4  1  0
  3  5  1  0
  5  6  2  0
  6  7  1  0
  7  8  1  0
  8  9  1  0
  9 10  1  0
 10 11  1  0
 11 12  1  0
 11 13  2  0
 11 14  2  0
 10 15  1  0
  6 16  1  0
 16 17  2  0
 17 18  1  0
 18 19  1  0
 19 20  2  0
 20 21  1  0
 21 22  2  0
 22 23  1  0
 17 24  1  0
 24 25  2  0
 25 26  1  0
 26  2  1  0
 25  5  1  0
 15  7  1  0
 23 18  2  0
  1 27  1  0
  1 28  1  0
  1 29  1  0
  4 30  1  0
  4 31  1  0
  4 32  1  0
  8 33  1  0
  8 34  1  0
  9 35  1  0
  9 36  1  0
 10 37  1  0
 12 38  1  0
 12 39  1  0
 15 40  1  0
 15 41  1  0
 19 42  1  0
 20 43  1  0
 21 44  1  0
 23 45  1  0
M  END
$$$$
OCNT-2309434
     RDKit          3D

 52 55  0  0  0  0  0  0  0  0999 V2000
   -3.8685    3.1567   -1.6951 C   0  0  0  0  0  0  0  0  0  0  0  0
   -3.3526    1.8657   -1.2420 N   0  0  0  0  0  0  0  0  0  0  0  0
   -1.9495    1.6880   -1.6582 C   0  0  0  0  0  0  0  0  0  0  0  0
   -1.3317    0.3797   -1.1269 C   0  0  0  0  0  0  0  0  0  0  0  0
   -1.4425    0.2456    0.3569 N   0  0  0  0  0  0  0  0  0  0  0  0
   -0.2874    1.0514    1.2888 S   0  0  0  0  0  0  0  0  0  0  0  0
   -0.4733    0.6777    2.6733 O   0  0  0  0  0  0  0  0  0  0  0  0
   -0.2346    2.4375    0.8802 O   0  0  0  0  0  0  0  0  0  0  0  0
    1.2543    0.4218    0.9024 C   0  0  0  0  0  0  0  0  0  0  0  0
    2.3732    1.0787    0.4414 C   0  0  0  0  0  0  0  0  0  0  0  0
    3.3307    0.1145    0.2962 N   0  0  0  0  0  0  0  0  0  0  0  0
    4.7009    0.3225   -0.1445 C   0  0  0  0  0  0  0  0  0  0  0  0
    5.7490   -0.2136    0.8477 C   0  0  0  0  0  0  0  0  0  0  0  0
    6.3878   -1.4057    0.1455 C   0  0  0  0  0  0  0  0  0  0  0  0
    6.3719   -0.9965   -1.3189 C   0  0  0  0  0  0  0  0  0  0  0  0
    5.0019   -0.3527   -1.4949 C   0  0  0  0  0  0  0  0  0  0  0  0
    2.8884   -1.1249    0.6072 N   0  0  0  0  0  0  0  0  0  0  0  0
    1.6230   -0.9268    0.9930 C   0  0  0  0  0  0  0  0  0  0  0  0
   -2.8604    0.4305    0.8248 C   0  0  0  0  0  0  0  0  0  0  0  0
   -3.6568   -0.8575    0.6217 C   0  0  0  0  0  0  0  0  0  0  0  0
   -3.3035   -1.9848    1.3887 C   0  0  0  0  0  0  0  0  0  0  0  0
   -3.9854   -3.1954    1.2487 C   0  0  0  0  0  0  0  0  0  0  0  0
   -5.0304   -3.3020    0.3360 C   0  0  0  0  0  0  0  0  0  0  0  0
   -5.3939   -2.1979   -0.4331 C   0  0  0  0  0  0  0  0  0  0  0  0
   -4.7128   -0.9848   -0.2930 C   0  0  0  0  0  0  0  0  0  0  0  0
   -3.4653    1.7443    0.2305 C   0  0  0  0  0  0  0  0  0  0  0  0
   -3.8133    3.2308   -2.7881 H   0  0  0  0  0  0  0  0  0  0  0  0
   -3.3159    4.0007   -1.2639 H   0  0  0  0  0  0  0  0  0  0  0  0
   -4.9251    3.2624   -1.4249 H   0  0  0  0  0  0  0  0  0  0  0  0
   -1.3430    2.5428   -1.3397 H   0  0  0  0  0  0  0  0  0  0  0  0
   -1.9028    1.6603   -2.7538 H   0  0  0  0  0  0  0  0  0  0  0  0
   -0.2831    0.3109   -1.4366 H   0  0  0  0  0  0  0  0  0  0  0  0
   -1.8327   -0.4810   -1.5884 H   0  0  0  0  0  0  0  0  0  0  0  0
    2.5570    2.1214    0.2232 H   0  0  0  0  0  0  0  0  0  0  0  0
    4.8339    1.4086   -0.2412 H   0  0  0  0  0  0  0  0  0  0  0  0
    6.5133    0.5558    1.0149 H   0  0  0  0  0  0  0  0  0  0  0  0
    5.3412   -0.4862    1.8269 H   0  0  0  0  0  0  0  0  0  0  0  0
    7.3985   -1.6085    0.5107 H   0  0  0  0  0  0  0  0  0  0  0  0
    5.7805   -2.3068    0.2955 H   0  0  0  0  0  0  0  0  0  0  0  0
    7.1616   -0.2609   -1.5162 H   0  0  0  0  0  0  0  0  0  0  0  0
    6.5206   -1.8485   -1.9912 H   0  0  0  0  0  0  0  0  0  0  0  0
    5.0049    0.3732   -2.3170 H   0  0  0  0  0  0  0  0  0  0  0  0
    4.2594   -1.1213   -1.7468 H   0  0  0  0  0  0  0  0  0  0  0  0
    1.0279   -1.7727    1.3172 H   0  0  0  0  0  0  0  0  0  0  0  0
   -2.8637    0.5799    1.9138 H   0  0  0  0  0  0  0  0  0  0  0  0
   -2.4851   -1.9180    2.1043 H   0  0  0  0  0  0  0  0  0  0  0  0
   -3.6968   -4.0535    1.8511 H   0  0  0  0  0  0  0  0  0  0  0  0
   -5.5617   -4.2434    0.2225 H   0  0  0  0  0  0  0  0  0  0  0  0
   -6.2088   -2.2802   -1.1488 H   0  0  0  0  0  0  0  0  0  0  0  0
   -5.0208   -0.1483   -0.9170 H   0  0  0  0  0  0  0  0  0  0  0  0
   -4.5218    1.8126    0.5206 H   0  0  0  0  0  0  0  0  0  0  0  0
   -2.9569    2.5977    0.7013 H   0  0  0  0  0  0  0  0  0  0  0  0
  1  2  1  0
  2  3  1  0
  3  4  1  0
  4  5  1  0
  5  6  1  0
  6  7  2  0
  6  8  2  0
  6  9  1  0
  9 10  2  0
 10 11  1  0
 11 12  1  0
 12 13  1  0
 13 14  1  0
 14 15  1  0
 15 16  1  0
 11 17  1  0
 17 18  2  0
  5 19  1  0
 19 20  1  0
 20 21  2  0
 21 22  1  0
 22 23  2  0
 23 24  1  0
 24 25  2  0
 19 26  1  0
 26  2  1  0
 18  9  1  0
 25 20  1  0
 16 12  1  0
  1 27  1  0
  1 28  1  0
  1 29  1  0
  3 30  1  0
  3 31  1  0
  4 32  1  0
  4 33  1  0
 10 34  1  0
 12 35  1  0
 13 36  1  0
 13 37  1  0
 14 38  1  0
 14 39  1  0
 15 40  1  0
 15 41  1  0
 16 42  1  0
 16 43  1  0
 18 44  1  0
 19 45  1  0
 21 46  1  0
 22 47  1  0
 23 48  1  0
 24 49  1  0
 25 50  1  0
 26 51  1  0
 26 52  1  0
M  END
$$$$
OCNT-2309435
     RDKit          3D

 47 49  0  0  0  0  0  0  0  0999 V2000
   -6.1599   -2.1375    0.8720 C   0  0  0  0  0  0  0  0  0  0  0  0
   -6.2893   -0.8014    0.1411 C   0  0  0  0  0  0  0  0  0  0  0  0
   -6.9006    0.2549    1.0613 C   0  0  0  0  0  0  0  0  0  0  0  0
   -4.9568   -0.3389   -0.4784 C   0  0  0  0  0  0  0  0  0  0  0  0
   -3.8251   -0.0798    0.5227 C   0  0  0  0  0  0  0  0  0  0  0  0
   -2.5698    0.3748   -0.1712 C   0  0  0  0  0  0  0  0  0  0  0  0
   -2.3175    1.7234   -0.4139 C   0  0  0  0  0  0  0  0  0  0  0  0
   -1.1513    2.0950   -1.0800 C   0  0  0  0  0  0  0  0  0  0  0  0
   -0.2581    1.1106   -1.4866 C   0  0  0  0  0  0  0  0  0  0  0  0
    0.9266    1.4185   -2.1557 N   0  0  0  0  0  0  0  0  0  0  0  0
    1.8783    2.2034   -1.3633 C   0  0  0  0  0  0  0  0  0  0  0  0
    2.5718    1.4917   -0.2308 C   0  0  0  0  0  0  0  0  0  0  0  0
    2.0924    1.3338    1.0565 C   0  0  0  0  0  0  0  0  0  0  0  0
    3.2057    0.4337    1.9949 S   0  0  0  0  0  0  0  0  0  0  0  0
    4.2398    0.3079    0.6313 C   0  0  0  0  0  0  0  0  0  0  0  0
    5.6005   -0.4470    0.6646 C   0  0  0  0  0  0  0  0  0  0  0  0
    6.4660   -0.5794   -0.3963 C   0  0  0  0  0  0  0  0  0  0  0  0
    7.5178   -1.3085    0.0725 N   0  0  0  0  0  0  0  0  0  0  0  0
    8.6879   -1.7174   -0.6655 C   0  0  0  0  0  0  0  0  0  0  0  0
    7.3967   -1.6557    1.3698 N   0  0  0  0  0  0  0  0  0  0  0  0
    6.2200   -1.1285    1.7263 C   0  0  0  0  0  0  0  0  0  0  0  0
    3.8083    0.9008   -0.4627 N   0  0  0  0  0  0  0  0  0  0  0  0
   -0.4915   -0.1970   -1.2811 N   0  0  0  0  0  0  0  0  0  0  0  0
   -1.6299   -0.5375   -0.6344 C   0  0  0  0  0  0  0  0  0  0  0  0
   -7.1463   -2.5058    1.1741 H   0  0  0  0  0  0  0  0  0  0  0  0
   -5.7061   -2.8945    0.2242 H   0  0  0  0  0  0  0  0  0  0  0  0
   -5.5497   -2.0502    1.7766 H   0  0  0  0  0  0  0  0  0  0  0  0
   -6.9892   -0.9521   -0.6916 H   0  0  0  0  0  0  0  0  0  0  0  0
   -6.3058    0.3990    1.9687 H   0  0  0  0  0  0  0  0  0  0  0  0
   -7.9079   -0.0440    1.3713 H   0  0  0  0  0  0  0  0  0  0  0  0
   -6.9824    1.2187    0.5483 H   0  0  0  0  0  0  0  0  0  0  0  0
   -5.1416    0.5743   -1.0603 H   0  0  0  0  0  0  0  0  0  0  0  0
   -4.6302   -1.0947   -1.2056 H   0  0  0  0  0  0  0  0  0  0  0  0
   -3.6026   -0.9852    1.0992 H   0  0  0  0  0  0  0  0  0  0  0  0
   -4.1207    0.6821    1.2533 H   0  0  0  0  0  0  0  0  0  0  0  0
   -3.0250    2.4867   -0.1012 H   0  0  0  0  0  0  0  0  0  0  0  0
   -0.9592    3.1397   -1.2969 H   0  0  0  0  0  0  0  0  0  0  0  0
    1.3400    0.5050   -2.3515 H   0  0  0  0  0  0  0  0  0  0  0  0
    2.6564    2.5457   -2.0579 H   0  0  0  0  0  0  0  0  0  0  0  0
    1.4142    3.1240   -0.9865 H   0  0  0  0  0  0  0  0  0  0  0  0
    1.1575    1.6821    1.4720 H   0  0  0  0  0  0  0  0  0  0  0  0
    6.4118   -0.2237   -1.4157 H   0  0  0  0  0  0  0  0  0  0  0  0
    8.6218   -1.3416   -1.6895 H   0  0  0  0  0  0  0  0  0  0  0  0
    9.5697   -1.3018   -0.1717 H   0  0  0  0  0  0  0  0  0  0  0  0
    8.7278   -2.8094   -0.6702 H   0  0  0  0  0  0  0  0  0  0  0  0
    5.8734   -1.2672    2.7418 H   0  0  0  0  0  0  0  0  0  0  0  0
   -1.7677   -1.6070   -0.4987 H   0  0  0  0  0  0  0  0  0  0  0  0
  1  2  1  0
  2  3  1  0
  2  4  1  0
  4  5  1  0
  5  6  1  0
  6  7  2  0
  7  8  1  0
  8  9  2  0
  9 10  1  0
 10 11  1  0
 11 12  1  0
 12 13  2  0
 13 14  1  0
 14 15  1  0
 15 16  1  0
 16 17  2  0
 17 18  1  0
 18 19  1  0
 18 20  1  0
 20 21  2  0
 15 22  2  0
  9 23  1  0
 23 24  2  0
 24  6  1  0
 22 12  1  0
 21 16  1  0
  1 25  1  0
  1 26  1  0
  1 27  1  0
  2 28  1  0
  3 29  1  0
  3 30  1  0
  3 31  1  0
  4 32  1  0
  4 33  1  0
  5 34  1  0
  5 35  1  0
  7 36  1  0
  8 37  1  0
 10 38  1  0
 11 39  1  0
 11 40  1  0
 13 41  1  0
 17 42  1  0
 19 43  1  0
 19 44  1  0
 19 45  1  0
 21 46  1  0
 24 47  1  0
M  END
$$$$
OCNT-2309439
     RDKit          3D

 54 56  0  0  0  0  0  0  0  0999 V2000
    7.4288   -2.9448    0.0387 C   0  0  0  0  0  0  0  0  0  0  0  0
    6.6992   -2.1403    0.9556 O   0  0  0  0  0  0  0  0  0  0  0  0
    5.9168   -1.1476    0.4318 C   0  0  0  0  0  0  0  0  0  0  0  0
    5.7458   -0.8773   -0.9270 C   0  0  0  0  0  0  0  0  0  0  0  0
    4.9078    0.1670   -1.3408 C   0  0  0  0  0  0  0  0  0  0  0  0
    4.2294    0.9583   -0.4041 C   0  0  0  0  0  0  0  0  0  0  0  0
    3.3064    2.0673   -0.8539 C   0  0  0  0  0  0  0  0  0  0  0  0
    1.9721    1.5552   -1.4025 C   0  0  0  0  0  0  0  0  0  0  0  0
    1.1869    0.8588   -0.3973 N   0  0  0  0  0  0  0  0  0  0  0  0
   -0.1354    0.5838   -0.6340 C   0  0  0  0  0  0  0  0  0  0  0  0
   -0.7148    0.9906   -1.6369 O   0  0  0  0  0  0  0  0  0  0  0  0
   -0.7657   -0.1394    0.3513 N   0  0  0  0  0  0  0  0  0  0  0  0
   -0.1507   -0.7868    1.5024 C   0  0  0  0  0  0  0  0  0  0  0  0
   -1.1407   -1.8674    1.9021 C   0  0  0  0  0  0  0  0  0  0  0  0
   -2.4797   -1.2313    1.5727 C   0  0  0  0  0  0  0  0  0  0  0  0
   -2.2015   -0.4536    0.2744 C   0  0  1  0  0  0  0  0  0  0  0  0
   -3.1260    0.7874    0.1529 C   0  0  0  0  0  0  0  0  0  0  0  0
   -4.5712    0.4806    0.2314 N   0  0  0  0  0  0  0  0  0  0  0  0
   -5.0034   -0.3679   -0.9044 C   0  0  0  0  0  0  0  0  0  0  0  0
   -6.5044   -0.2174   -1.1967 C   0  0  0  0  0  0  0  0  0  0  0  0
   -6.8597    1.1097   -1.6088 O   0  0  0  0  0  0  0  0  0  0  0  0
   -5.9898    2.1151   -1.0705 C   0  0  0  0  0  0  0  0  0  0  0  0
   -5.3815    1.7194    0.2842 C   0  0  0  0  0  0  0  0  0  0  0  0
    4.4047    0.6880    0.9572 C   0  0  0  0  0  0  0  0  0  0  0  0
    5.2378   -0.3538    1.3606 C   0  0  0  0  0  0  0  0  0  0  0  0
    5.3725   -0.5888    2.6751 F   0  0  0  0  0  0  0  0  0  0  0  0
    8.1354   -2.3416   -0.5411 H   0  0  0  0  0  0  0  0  0  0  0  0
    6.7544   -3.5044   -0.6179 H   0  0  0  0  0  0  0  0  0  0  0  0
    8.0078   -3.6708    0.6176 H   0  0  0  0  0  0  0  0  0  0  0  0
    6.2470   -1.4599   -1.6933 H   0  0  0  0  0  0  0  0  0  0  0  0
    4.7895    0.3569   -2.4066 H   0  0  0  0  0  0  0  0  0  0  0  0
    3.1223    2.7557   -0.0192 H   0  0  0  0  0  0  0  0  0  0  0  0
    3.8173    2.6550   -1.6268 H   0  0  0  0  0  0  0  0  0  0  0  0
    1.3855    2.4022   -1.7770 H   0  0  0  0  0  0  0  0  0  0  0  0
    2.1237    0.8635   -2.2394 H   0  0  0  0  0  0  0  0  0  0  0  0
    1.6826    0.1463    0.1121 H   0  0  0  0  0  0  0  0  0  0  0  0
    0.8268   -1.2134    1.2650 H   0  0  0  0  0  0  0  0  0  0  0  0
   -0.0370   -0.0324    2.2882 H   0  0  0  0  0  0  0  0  0  0  0  0
   -1.0495   -2.1554    2.9528 H   0  0  0  0  0  0  0  0  0  0  0  0
   -0.9935   -2.7618    1.2848 H   0  0  0  0  0  0  0  0  0  0  0  0
   -3.2759   -1.9723    1.4541 H   0  0  0  0  0  0  0  0  0  0  0  0
   -2.7655   -0.5521    2.3857 H   0  0  0  0  0  0  0  0  0  0  0  0
   -2.3283   -1.1111   -0.5948 H   0  0  0  0  0  0  0  0  0  0  0  0
   -2.8645    1.4685    0.9745 H   0  0  0  0  0  0  0  0  0  0  0  0
   -2.9196    1.3373   -0.7719 H   0  0  0  0  0  0  0  0  0  0  0  0
   -4.4530   -0.0988   -1.8156 H   0  0  0  0  0  0  0  0  0  0  0  0
   -4.7848   -1.4161   -0.6743 H   0  0  0  0  0  0  0  0  0  0  0  0
   -6.8012   -0.8993   -2.0002 H   0  0  0  0  0  0  0  0  0  0  0  0
   -7.1026   -0.4752   -0.3148 H   0  0  0  0  0  0  0  0  0  0  0  0
   -5.2035    2.3185   -1.8068 H   0  0  0  0  0  0  0  0  0  0  0  0
   -6.5791    3.0317   -0.9635 H   0  0  0  0  0  0  0  0  0  0  0  0
   -4.8137    2.5593    0.7017 H   0  0  0  0  0  0  0  0  0  0  0  0
   -6.2033    1.5286    0.9862 H   0  0  0  0  0  0  0  0  0  0  0  0
    3.8992    1.2764    1.7179 H   0  0  0  0  0  0  0  0  0  0  0  0
  1  2  1  0
  2  3  1  0
  3  4  1  0
  4  5  2  0
  5  6  1  0
  6  7  1  0
  7  8  1  0
  8  9  1  0
  9 10  1  0
 10 11  2  0
 10 12  1  0
 12 13  1  0
 13 14  1  0
 14 15  1  0
 15 16  1  0
 16 17  1  0
 17 18  1  0
 18 19  1  0
 19 20  1  0
 20 21  1  0
 21 22  1  0
 22 23  1  0
  6 24  2  0
 24 25  1  0
 25 26  1  0
 25  3  2  0
 16 12  1  0
 23 18  1  0
  1 27  1  0
  1 28  1  0
  1 29  1  0
  4 30  1  0
  5 31  1  0
  7 32  1  0
  7 33  1  0
  8 34  1  0
  8 35  1  0
  9 36  1  0
 13 37  1  0
 13 38  1  0
 14 39  1  0
 14 40  1  0
 15 41  1  0
 15 42  1  0
 16 43  1  6
 17 44  1  0
 17 45  1  0
 19 46  1  0
 19 47  1  0
 20 48  1  0
 20 49  1  0
 22 50  1  0
 22 51  1  0
 23 52  1  0
 23 53  1  0
 24 54  1  0
M  END
$$$$
OCNT-2309445
     RDKit          3D

 51 54  0  0  0  0  0  0  0  0999 V2000
   -7.8339    0.0527    0.1436 C   0  0  0  0  0  0  0  0  0  0  0  0
   -6.3867    0.5048    0.3317 C   0  0  0  0  0  0  0  0  0  0  0  0
   -6.2576    1.4126    1.5629 C   0  0  0  0  0  0  0  0  0  0  0  0
   -4.8675    1.8118    1.7786 N   0  0  0  0  0  0  0  0  0  0  0  0
   -3.9988    0.6530    1.9899 C   0  0  0  0  0  0  0  0  0  0  0  0
   -4.0046   -0.2893    0.7755 C   0  0  0  0  0  0  0  0  0  0  0  0
   -3.3244    0.3460   -0.4526 C   0  0  0  0  0  0  0  0  0  0  0  0
   -1.8772    0.3070   -0.3713 N   0  0  0  0  0  0  0  0  0  0  0  0
   -1.0499   -0.7031   -0.7687 C   0  0  0  0  0  0  0  0  0  0  0  0
    0.2124   -0.2330   -0.4788 C   0  0  0  0  0  0  0  0  0  0  0  0
    1.4799   -0.9102   -0.6967 C   0  0  0  0  0  0  0  0  0  0  0  0
    1.5468   -2.2297   -1.1557 C   0  0  0  0  0  0  0  0  0  0  0  0
    2.7837   -2.8377   -1.3692 C   0  0  0  0  0  0  0  0  0  0  0  0
    3.9662   -2.1390   -1.1122 C   0  0  0  0  0  0  0  0  0  0  0  0
    3.9383   -0.8345   -0.6112 C   0  0  0  0  0  0  0  0  0  0  0  0
    5.0848   -0.0605   -0.4019 N   0  0  0  0  0  0  0  0  0  0  0  0
    6.3686   -0.7161   -0.1615 C   0  0  0  0  0  0  0  0  0  0  0  0
    7.4650    0.2568    0.1810 C   0  0  0  0  0  0  0  0  0  0  0  0
    7.8554    1.3809   -0.5224 C   0  0  0  0  0  0  0  0  0  0  0  0
    8.9369    2.0650    0.1026 C   0  0  0  0  0  0  0  0  0  0  0  0
    9.3390    1.4403    1.2616 C   0  0  0  0  0  0  0  0  0  0  0  0
    8.4158    0.0389    1.5896 S   0  0  0  0  0  0  0  0  0  0  0  0
    2.6825   -0.2270   -0.4443 C   0  0  0  0  0  0  0  0  0  0  0  0
    0.1013    1.0224    0.0681 N   0  0  0  0  0  0  0  0  0  0  0  0
   -1.1842    1.3438    0.1233 N   0  0  0  0  0  0  0  0  0  0  0  0
   -5.4521   -0.7070    0.4574 C   0  0  0  0  0  0  0  0  0  0  0  0
   -8.4971    0.9156    0.0225 H   0  0  0  0  0  0  0  0  0  0  0  0
   -7.9315   -0.5734   -0.7495 H   0  0  0  0  0  0  0  0  0  0  0  0
   -8.1861   -0.5267    1.0038 H   0  0  0  0  0  0  0  0  0  0  0  0
   -6.1000    1.0790   -0.5593 H   0  0  0  0  0  0  0  0  0  0  0  0
   -6.6478    0.9132    2.4587 H   0  0  0  0  0  0  0  0  0  0  0  0
   -6.8605    2.3158    1.4140 H   0  0  0  0  0  0  0  0  0  0  0  0
   -4.8116    2.4249    2.5929 H   0  0  0  0  0  0  0  0  0  0  0  0
   -4.3245    0.1073    2.8848 H   0  0  0  0  0  0  0  0  0  0  0  0
   -2.9826    1.0026    2.1983 H   0  0  0  0  0  0  0  0  0  0  0  0
   -3.4535   -1.1994    1.0483 H   0  0  0  0  0  0  0  0  0  0  0  0
   -3.6213    1.3885   -0.6117 H   0  0  0  0  0  0  0  0  0  0  0  0
   -3.5886   -0.2057   -1.3633 H   0  0  0  0  0  0  0  0  0  0  0  0
   -1.4221   -1.6181   -1.2021 H   0  0  0  0  0  0  0  0  0  0  0  0
    0.6469   -2.8006   -1.3640 H   0  0  0  0  0  0  0  0  0  0  0  0
    2.8298   -3.8562   -1.7464 H   0  0  0  0  0  0  0  0  0  0  0  0
    4.9063   -2.6408   -1.3190 H   0  0  0  0  0  0  0  0  0  0  0  0
    4.9158    0.6860    0.2693 H   0  0  0  0  0  0  0  0  0  0  0  0
    6.6846   -1.2547   -1.0637 H   0  0  0  0  0  0  0  0  0  0  0  0
    6.2556   -1.4541    0.6430 H   0  0  0  0  0  0  0  0  0  0  0  0
    7.3770    1.6963   -1.4430 H   0  0  0  0  0  0  0  0  0  0  0  0
    9.3948    2.9697   -0.2780 H   0  0  0  0  0  0  0  0  0  0  0  0
   10.1312    1.7390    1.9343 H   0  0  0  0  0  0  0  0  0  0  0  0
    2.6399    0.8085   -0.1085 H   0  0  0  0  0  0  0  0  0  0  0  0
   -5.8117   -1.3591    1.2650 H   0  0  0  0  0  0  0  0  0  0  0  0
   -5.4826   -1.3067   -0.4604 H   0  0  0  0  0  0  0  0  0  0  0  0
  1  2  1  0
  2  3  1  0
  3  4  1  0
  4  5  1  0
  5  6  1  0
  6  7  1  0
  7  8  1  0
  8  9  1  0
  9 10  2  0
 10 11  1  0
 11 12  1  0
 12 13  2  0
 13 14  1  0
 14 15  2  0
 15 16  1  0
 16 17  1  0
 17 18  1  0
 18 19  2  0
 19 20  1  0
 20 21  2  0
 21 22  1  0
 15 23  1  0
 10 24  1  0
 24 25  2  0
  6 26  1  0
 26  2  1  0
 25  8  1  0
 23 11  2  0
 22 18  1  0
  1 27  1  0
  1 28  1  0
  1 29  1  0
  2 30  1  0
  3 31  1  0
  3 32  1  0
  4 33  1  0
  5 34  1  0
  5 35  1  0
  6 36  1  0
  7 37  1  0
  7 38  1  0
  9 39  1  0
 12 40  1  0
 13 41  1  0
 14 42  1  0
 16 43  1  0
 17 44  1  0
 17 45  1  0
 19 46  1  0
 20 47  1  0
 21 48  1  0
 23 49  1  0
 26 50  1  0
 26 51  1  0
M  END
$$$$
OCNT-2309447
     RDKit          3D

 44 46  0  0  0  0  0  0  0  0999 V2000
    0.6401    1.7884    2.7588 C   0  0  0  0  0  0  0  0  0  0  0  0
    0.2986    1.9007    1.2696 C   0  0  0  0  0  0  0  0  0  0  0  0
   -0.8147    1.0384    0.9155 N   0  0  0  0  0  0  0  0  0  0  0  0
   -2.1135    1.3513    1.2252 C   0  0  0  0  0  0  0  0  0  0  0  0
   -2.4289    2.3835    1.8090 O   0  0  0  0  0  0  0  0  0  0  0  0
   -3.1006    0.3749    0.8187 C   0  0  0  0  0  0  0  0  0  0  0  0
   -3.0069   -0.8332    0.1486 C   0  0  0  0  0  0  0  0  0  0  0  0
   -4.3166   -1.3850    0.0164 C   0  0  0  0  0  0  0  0  0  0  0  0
   -4.8707   -2.5519   -0.5468 C   0  0  0  0  0  0  0  0  0  0  0  0
   -3.7763   -3.6428   -1.2779 Cl  0  0  0  0  0  0  0  0  0  0  0  0
   -6.2407   -2.8001   -0.5074 C   0  0  0  0  0  0  0  0  0  0  0  0
   -7.0778   -1.8725    0.1021 C   0  0  0  0  0  0  0  0  0  0  0  0
   -8.7742   -2.1729    0.1536 Cl  0  0  0  0  0  0  0  0  0  0  0  0
   -6.5786   -0.6968    0.6769 C   0  0  0  0  0  0  0  0  0  0  0  0
   -5.1940   -0.4812    0.6183 C   0  0  0  0  0  0  0  0  0  0  0  0
   -4.4387    0.5654    1.0891 N   0  0  0  0  0  0  0  0  0  0  0  0
    1.4829    1.5862    0.3727 C   0  0  0  0  0  0  0  0  0  0  0  0
    1.8121    2.4577   -0.6743 C   0  0  0  0  0  0  0  0  0  0  0  0
    2.8885    2.1786   -1.5207 C   0  0  0  0  0  0  0  0  0  0  0  0
    3.6476    1.0194   -1.3532 C   0  0  0  0  0  0  0  0  0  0  0  0
    4.6715    0.8740   -2.2462 O   0  0  0  0  0  0  0  0  0  0  0  0
    5.2905   -0.3963   -2.3483 C   0  0  0  0  0  0  0  0  0  0  0  0
    6.4103   -0.6899   -1.3436 C   0  0  0  0  0  0  0  0  0  0  0  0
    7.0424   -1.8922   -1.5258 N   0  0  0  0  0  0  0  0  0  0  0  0
    6.7428    0.0423   -0.4190 O   0  0  0  0  0  0  0  0  0  0  0  0
    3.3276    0.1444   -0.3174 C   0  0  0  0  0  0  0  0  0  0  0  0
    2.2505    0.4222    0.5340 C   0  0  0  0  0  0  0  0  0  0  0  0
    1.5154    2.3980    3.0084 H   0  0  0  0  0  0  0  0  0  0  0  0
    0.8491    0.7548    3.0555 H   0  0  0  0  0  0  0  0  0  0  0  0
   -0.1953    2.1334    3.3777 H   0  0  0  0  0  0  0  0  0  0  0  0
   -0.0175    2.9369    1.0912 H   0  0  0  0  0  0  0  0  0  0  0  0
   -0.6088    0.1704    0.4458 H   0  0  0  0  0  0  0  0  0  0  0  0
   -2.0980   -1.2907   -0.2194 H   0  0  0  0  0  0  0  0  0  0  0  0
   -6.6454   -3.7061   -0.9478 H   0  0  0  0  0  0  0  0  0  0  0  0
   -7.2410    0.0216    1.1503 H   0  0  0  0  0  0  0  0  0  0  0  0
   -4.7959    1.3795    1.5742 H   0  0  0  0  0  0  0  0  0  0  0  0
    1.2359    3.3661   -0.8393 H   0  0  0  0  0  0  0  0  0  0  0  0
    3.1361    2.8728   -2.3204 H   0  0  0  0  0  0  0  0  0  0  0  0
    5.7527   -0.4285   -3.3425 H   0  0  0  0  0  0  0  0  0  0  0  0
    4.5519   -1.2077   -2.3289 H   0  0  0  0  0  0  0  0  0  0  0  0
    7.0077   -2.3833   -2.4087 H   0  0  0  0  0  0  0  0  0  0  0  0
    7.8459   -2.0594   -0.9317 H   0  0  0  0  0  0  0  0  0  0  0  0
    3.9071   -0.7520   -0.1246 H   0  0  0  0  0  0  0  0  0  0  0  0
    2.0269   -0.2817    1.3326 H   0  0  0  0  0  0  0  0  0  0  0  0
  1  2  1  0
  2  3  1  0
  3  4  1  0
  4  5  2  0
  4  6  1  0
  6  7  2  0
  7  8  1  0
  8  9  2  0
  9 10  1  0
  9 11  1  0
 11 12  2  0
 12 13  1  0
 12 14  1  0
 14 15  2  0
 15 16  1  0
  2 17  1  0
 17 18  1  0
 18 19  2  0
 19 20  1  0
 20 21  1  0
 21 22  1  0
 22 23  1  0
 23 24  1  0
 23 25  2  0
 20 26  2  0
 26 27  1  0
 16  6  1  0
 27 17  2  0
 15  8  1  0
  1 28  1  0
  1 29  1  0
  1 30  1  0
  2 31  1  0
  3 32  1  0
  7 33  1  0
 11 34  1  0
 14 35  1  0
 16 36  1  0
 18 37  1  0
 19 38  1  0
 22 39  1  0
 22 40  1  0
 24 41  1  0
 24 42  1  0
 26 43  1  0
 27 44  1  0
M  END
$$$$
OCNT-2309448
     RDKit          3D

 47 50  0  0  0  0  0  0  0  0999 V2000
   -4.7051   -1.3617   -0.5101 O   0  0  0  0  0  0  0  0  0  0  0  0
   -4.3400   -0.0223   -0.1185 C   0  0  0  0  0  0  0  0  0  0  0  0
   -2.8426    0.0414   -0.0937 C   0  0  0  0  0  0  0  0  0  0  0  0
   -1.9758   -0.9426   -0.2035 N   0  0  0  0  0  0  0  0  0  0  0  0
   -0.7658   -0.2870   -0.0810 C   0  0  0  0  0  0  0  0  0  0  0  0
    0.5103   -0.9919   -0.1485 C   0  0  0  0  0  0  0  0  0  0  0  0
    0.5422   -2.3759   -0.3655 C   0  0  0  0  0  0  0  0  0  0  0  0
    1.7597   -3.0557   -0.4293 C   0  0  0  0  0  0  0  0  0  0  0  0
    2.9618   -2.3614   -0.2759 C   0  0  0  0  0  0  0  0  0  0  0  0
    2.9497   -0.9838   -0.0591 C   0  0  0  0  0  0  0  0  0  0  0  0
    4.0476   -0.1851    0.1040 O   0  0  0  0  0  0  0  0  0  0  0  0
    5.3240   -0.8237    0.1101 C   0  0  0  0  0  0  0  0  0  0  0  0
    6.3820    0.2256    0.3036 C   0  0  0  0  0  0  0  0  0  0  0  0
    6.5294    1.2872   -0.5978 C   0  0  0  0  0  0  0  0  0  0  0  0
    7.5323    2.2305   -0.3959 C   0  0  0  0  0  0  0  0  0  0  0  0
    8.3631    2.0783    0.7055 C   0  0  0  0  0  0  0  0  0  0  0  0
    8.2562    1.0666    1.5966 N   0  0  0  0  0  0  0  0  0  0  0  0
    7.2679    0.1690    1.3782 C   0  0  0  0  0  0  0  0  0  0  0  0
    1.7258   -0.3074    0.0016 C   0  0  0  0  0  0  0  0  0  0  0  0
   -0.8855    1.0385    0.1087 N   0  0  0  0  0  0  0  0  0  0  0  0
   -2.2597    1.2569    0.1043 O   0  0  0  0  0  0  0  0  0  0  0  0
   -4.9302    0.9431   -1.1579 C   0  0  0  0  0  0  0  0  0  0  0  0
   -6.4598    0.9454   -1.1429 C   0  0  0  0  0  0  0  0  0  0  0  0
   -7.0066    1.2253    0.2537 C   0  0  0  0  0  0  0  0  0  0  0  0
   -6.4484    0.2476    1.2838 C   0  0  0  0  0  0  0  0  0  0  0  0
   -4.9190    0.2358    1.2816 C   0  0  0  0  0  0  0  0  0  0  0  0
   -3.9303   -1.9312   -0.3336 H   0  0  0  0  0  0  0  0  0  0  0  0
   -0.3830   -2.9363   -0.4875 H   0  0  0  0  0  0  0  0  0  0  0  0
    1.7702   -4.1299   -0.5994 H   0  0  0  0  0  0  0  0  0  0  0  0
    3.8853   -2.9277   -0.3344 H   0  0  0  0  0  0  0  0  0  0  0  0
    5.3700   -1.5594    0.9241 H   0  0  0  0  0  0  0  0  0  0  0  0
    5.5111   -1.3280   -0.8464 H   0  0  0  0  0  0  0  0  0  0  0  0
    5.8599    1.3834   -1.4521 H   0  0  0  0  0  0  0  0  0  0  0  0
    7.6610    3.0647   -1.0791 H   0  0  0  0  0  0  0  0  0  0  0  0
    9.1600    2.7879    0.9070 H   0  0  0  0  0  0  0  0  0  0  0  0
    7.2114   -0.6235    2.1226 H   0  0  0  0  0  0  0  0  0  0  0  0
    1.7328    0.7683    0.1717 H   0  0  0  0  0  0  0  0  0  0  0  0
   -4.5958    0.6649   -2.1656 H   0  0  0  0  0  0  0  0  0  0  0  0
   -4.5755    1.9662   -0.9747 H   0  0  0  0  0  0  0  0  0  0  0  0
   -6.8314    1.7035   -1.8423 H   0  0  0  0  0  0  0  0  0  0  0  0
   -6.8358   -0.0227   -1.4966 H   0  0  0  0  0  0  0  0  0  0  0  0
   -6.7500    2.2516    0.5466 H   0  0  0  0  0  0  0  0  0  0  0  0
   -8.1002    1.1611    0.2400 H   0  0  0  0  0  0  0  0  0  0  0  0
   -6.8265   -0.7613    1.0745 H   0  0  0  0  0  0  0  0  0  0  0  0
   -6.8102    0.5190    2.2825 H   0  0  0  0  0  0  0  0  0  0  0  0
   -4.5797   -0.5398    1.9811 H   0  0  0  0  0  0  0  0  0  0  0  0
   -4.5567    1.1967    1.6710 H   0  0  0  0  0  0  0  0  0  0  0  0
  1  2  1  0
  2  3  1  0
  3  4  2  0
  4  5  1  0
  5  6  1  0
  6  7  2  0
  7  8  1  0
  8  9  2  0
  9 10  1  0
 10 11  1  0
 11 12  1  0
 12 13  1  0
 13 14  1  0
 14 15  2  0
 15 16  1  0
 16 17  2  0
 17 18  1  0
 10 19  2  0
  5 20  2  0
 20 21  1  0
  2 22  1  0
 22 23  1  0
 23 24  1  0
 24 25  1  0
 25 26  1  0
 26  2  1  0
 21  3  1  0
 19  6  1  0
 18 13  2  0
  1 27  1  0
  7 28  1  0
  8 29  1  0
  9 30  1  0
 12 31  1  0
 12 32  1  0
 14 33  1  0
 15 34  1  0
 16 35  1  0
 18 36  1  0
 19 37  1  0
 22 38  1  0
 22 39  1  0
 23 40  1  0
 23 41  1  0
 24 42  1  0
 24 43  1  0
 25 44  1  0
 25 45  1  0
 26 46  1  0
 26 47  1  0
M  END
$$$$
OCNT-2309461
     RDKit          3D

 38 40  0  0  0  0  0  0  0  0999 V2000
    4.1033    2.2947   -1.5633 C   0  0  0  0  0  0  0  0  0  0  0  0
    3.2816    1.2046   -0.8993 C   0  0  0  0  0  0  0  0  0  0  0  0
    3.7054   -0.4133   -1.6059 S   0  0  0  0  0  0  0  0  0  0  0  0
    2.8537   -1.5225   -0.5257 C   0  0  0  0  0  0  0  0  0  0  0  0
    1.3508   -1.4699   -0.6206 C   0  0  0  0  0  0  0  0  0  0  0  0
    0.7390   -2.1497   -1.4352 O   0  0  0  0  0  0  0  0  0  0  0  0
    0.7470   -0.6231    0.2769 N   0  0  0  0  0  0  0  0  0  0  0  0
   -0.7017   -0.5740    0.4378 C   0  0  0  0  0  0  0  0  0  0  0  0
   -1.4157    0.0574   -0.7562 C   0  0  0  0  0  0  0  0  0  0  0  0
   -2.8693    0.3060   -0.4467 C   0  0  0  0  0  0  0  0  0  0  0  0
   -3.8281    0.3155   -1.4665 C   0  0  0  0  0  0  0  0  0  0  0  0
   -5.1565    0.6307   -1.1758 C   0  0  0  0  0  0  0  0  0  0  0  0
   -5.5219    0.9541    0.1305 C   0  0  0  0  0  0  0  0  0  0  0  0
   -7.3200    1.3940    0.5168 Br  0  0  0  0  0  0  0  0  0  0  0  0
   -4.5751    0.9615    1.1541 C   0  0  0  0  0  0  0  0  0  0  0  0
   -3.2538    0.6268    0.8618 C   0  0  0  0  0  0  0  0  0  0  0  0
   -2.2962    0.6449    1.8815 N   0  0  0  0  0  0  0  0  0  0  0  0
   -1.0071    0.2078    1.7231 C   0  0  0  0  0  0  0  0  0  0  0  0
   -0.1691    0.3706    2.6121 O   0  0  0  0  0  0  0  0  0  0  0  0
    3.4892   -2.8869   -0.3044 C   0  0  0  0  0  0  0  0  0  0  0  0
    3.5037   -1.8777    0.8023 C   0  0  0  0  0  0  0  0  0  0  0  0
    5.1768    2.1389   -1.4111 H   0  0  0  0  0  0  0  0  0  0  0  0
    3.9070    2.3471   -2.6397 H   0  0  0  0  0  0  0  0  0  0  0  0
    3.8463    3.2684   -1.1329 H   0  0  0  0  0  0  0  0  0  0  0  0
    2.2168    1.4015   -1.0542 H   0  0  0  0  0  0  0  0  0  0  0  0
    3.4789    1.1958    0.1771 H   0  0  0  0  0  0  0  0  0  0  0  0
    1.3028   -0.2364    1.0342 H   0  0  0  0  0  0  0  0  0  0  0  0
   -1.0557   -1.6019    0.5926 H   0  0  0  0  0  0  0  0  0  0  0  0
   -0.9511    1.0173   -1.0167 H   0  0  0  0  0  0  0  0  0  0  0  0
   -1.3272   -0.5940   -1.6330 H   0  0  0  0  0  0  0  0  0  0  0  0
   -3.5451    0.0850   -2.4919 H   0  0  0  0  0  0  0  0  0  0  0  0
   -5.8939    0.6313   -1.9747 H   0  0  0  0  0  0  0  0  0  0  0  0
   -4.8708    1.2178    2.1670 H   0  0  0  0  0  0  0  0  0  0  0  0
   -2.5254    1.0370    2.7865 H   0  0  0  0  0  0  0  0  0  0  0  0
    2.8296   -3.7433   -0.2118 H   0  0  0  0  0  0  0  0  0  0  0  0
    4.4253   -3.1156   -0.8013 H   0  0  0  0  0  0  0  0  0  0  0  0
    4.4560   -1.4272    1.0588 H   0  0  0  0  0  0  0  0  0  0  0  0
    2.8704   -2.0732    1.6606 H   0  0  0  0  0  0  0  0  0  0  0  0
  1  2  1  0
  2  3  1  0
  3  4  1  0
  4  5  1  0
  5  6  2  0
  5  7  1  0
  7  8  1  0
  8  9  1  0
  9 10  1  0
 10 11  1  0
 11 12  2  0
 12 13  1  0
 13 14  1  0
 13 15  2  0
 15 16  1  0
 16 17  1  0
 17 18  1  0
 18 19  2  0
  4 20  1  0
 20 21  1  0
 21  4  1  0
 18  8  1  0
 16 10  2  0
  1 22  1  0
  1 23  1  0
  1 24  1  0
  2 25  1  0
  2 26  1  0
  7 27  1  0
  8 28  1  0
  9 29  1  0
  9 30  1  0
 11 31  1  0
 12 32  1  0
 15 33  1  0
 17 34  1  0
 20 35  1  0
 20 36  1  0
 21 37  1  0
 21 38  1  0
M  END
$$$$
OCNT-2309465
     RDKit          3D

 52 56  0  0  0  0  0  0  0  0999 V2000
    7.4774    0.4298    2.3479 C   0  0  0  0  0  0  0  0  0  0  0  0
    6.3367    0.3144    1.4106 C   0  0  0  0  0  0  0  0  0  0  0  0
    5.0986   -0.0168    1.7107 N   0  0  0  0  0  0  0  0  0  0  0  0
    4.4084    0.0032    0.5226 C   0  0  0  0  0  0  0  0  0  0  0  0
    3.0547   -0.2714    0.2619 C   0  0  0  0  0  0  0  0  0  0  0  0
    2.5519   -0.1837   -1.0510 C   0  0  0  0  0  0  0  0  0  0  0  0
    1.1533   -0.4236   -1.3310 N   0  0  0  0  0  0  0  0  0  0  0  0
    0.6692   -0.2128   -2.6942 C   0  0  0  0  0  0  0  0  0  0  0  0
    0.3081   -1.0535   -0.3943 C   0  0  0  0  0  0  0  0  0  0  0  0
    0.7105   -1.9062    0.3939 O   0  0  0  0  0  0  0  0  0  0  0  0
   -1.0853   -0.6436   -0.3969 C   0  0  0  0  0  0  0  0  0  0  0  0
   -1.6555    0.5816   -0.7026 C   0  0  0  0  0  0  0  0  0  0  0  0
   -3.0564    0.4365   -0.5331 C   0  0  0  0  0  0  0  0  0  0  0  0
   -4.1118    1.4355   -0.7420 C   0  0  0  0  0  0  0  0  0  0  0  0
   -5.4643    1.0548   -0.7141 C   0  0  0  0  0  0  0  0  0  0  0  0
   -6.4813    1.9938   -0.9143 C   0  0  0  0  0  0  0  0  0  0  0  0
   -6.1539    3.3266   -1.1427 C   0  0  0  0  0  0  0  0  0  0  0  0
   -7.4006    4.4856   -1.3903 Cl  0  0  0  0  0  0  0  0  0  0  0  0
   -4.8204    3.7272   -1.1707 C   0  0  0  0  0  0  0  0  0  0  0  0
   -3.8038    2.7857   -0.9706 C   0  0  0  0  0  0  0  0  0  0  0  0
   -3.3414   -0.8135   -0.1428 N   0  0  0  0  0  0  0  0  0  0  0  0
   -2.1433   -1.4183    0.0129 N   0  0  0  0  0  0  0  0  0  0  0  0
   -2.1147   -2.8043    0.4750 C   0  0  0  0  0  0  0  0  0  0  0  0
   -1.9857   -3.0039    1.9603 C   0  0  0  0  0  0  0  0  0  0  0  0
   -1.5139   -1.9437    2.9290 C   0  0  0  0  0  0  0  0  0  0  0  0
   -2.9566   -2.3691    2.9276 C   0  0  0  0  0  0  0  0  0  0  0  0
    3.4417    0.2129   -2.0709 C   0  0  0  0  0  0  0  0  0  0  0  0
    4.8004    0.4872   -1.8372 C   0  0  0  0  0  0  0  0  0  0  0  0
    5.2417    0.3681   -0.5238 C   0  0  0  0  0  0  0  0  0  0  0  0
    6.4656    0.5549    0.0649 N   0  0  0  0  0  0  0  0  0  0  0  0
    8.2766   -0.2640    2.0694 H   0  0  0  0  0  0  0  0  0  0  0  0
    7.8799    1.4474    2.3412 H   0  0  0  0  0  0  0  0  0  0  0  0
    7.1623    0.1945    3.3692 H   0  0  0  0  0  0  0  0  0  0  0  0
    2.4363   -0.5310    1.1123 H   0  0  0  0  0  0  0  0  0  0  0  0
    1.2641   -0.8134   -3.3903 H   0  0  0  0  0  0  0  0  0  0  0  0
   -0.3639   -0.5443   -2.8258 H   0  0  0  0  0  0  0  0  0  0  0  0
    0.7385    0.8498   -2.9458 H   0  0  0  0  0  0  0  0  0  0  0  0
   -1.1169    1.4668   -1.0092 H   0  0  0  0  0  0  0  0  0  0  0  0
   -5.7352    0.0154   -0.5343 H   0  0  0  0  0  0  0  0  0  0  0  0
   -7.5196    1.6747   -0.8880 H   0  0  0  0  0  0  0  0  0  0  0  0
   -4.5634    4.7689   -1.3435 H   0  0  0  0  0  0  0  0  0  0  0  0
   -2.7740    3.1315   -0.9876 H   0  0  0  0  0  0  0  0  0  0  0  0
   -1.2982   -3.3109   -0.0498 H   0  0  0  0  0  0  0  0  0  0  0  0
   -3.0413   -3.2765    0.1254 H   0  0  0  0  0  0  0  0  0  0  0  0
   -1.6918   -4.0276    2.1727 H   0  0  0  0  0  0  0  0  0  0  0  0
   -1.2819   -0.9468    2.5746 H   0  0  0  0  0  0  0  0  0  0  0  0
   -0.8866   -2.2629    3.7546 H   0  0  0  0  0  0  0  0  0  0  0  0
   -3.3097   -2.9674    3.7599 H   0  0  0  0  0  0  0  0  0  0  0  0
   -3.6903   -1.6645    2.5509 H   0  0  0  0  0  0  0  0  0  0  0  0
    3.1083    0.3202   -3.0993 H   0  0  0  0  0  0  0  0  0  0  0  0
    5.4619    0.7809   -2.6447 H   0  0  0  0  0  0  0  0  0  0  0  0
    7.3157    0.8258   -0.4067 H   0  0  0  0  0  0  0  0  0  0  0  0
  1  2  1  0
  2  3  2  0
  3  4  1  0
  4  5  2  0
  5  6  1  0
  6  7  1  0
  7  8  1  0
  7  9  1  0
  9 10  2  0
  9 11  1  0
 11 12  2  0
 12 13  1  0
 13 14  1  0
 14 15  1  0
 15 16  2  0
 16 17  1  0
 17 18  1  0
 17 19  2  0
 19 20  1  0
 13 21  2  0
 21 22  1  0
 22 23  1  0
 23 24  1  0
 24 25  1  0
 25 26  1  0
  6 27  2  0
 27 28  1  0
 28 29  2  0
 29 30  1  0
 30  2  1  0
 29  4  1  0
 22 11  1  0
 26 24  1  0
 20 14  2  0
  1 31  1  0
  1 32  1  0
  1 33  1  0
  5 34  1  0
  8 35  1  0
  8 36  1  0
  8 37  1  0
 12 38  1  0
 15 39  1  0
 16 40  1  0
 19 41  1  0
 20 42  1  0
 23 43  1  0
 23 44  1  0
 24 45  1  0
 25 46  1  0
 25 47  1  0
 26 48  1  0
 26 49  1  0
 27 50  1  0
 28 51  1  0
 30 52  1  0
M  END
$$$$
OCNT-2309466
     RDKit          3D

 45 47  0  0  0  0  0  0  0  0999 V2000
    4.1657    2.8885   -0.8225 C   0  0  0  0  0  0  0  0  0  0  0  0
    4.3179    1.5043   -0.1956 C   0  0  0  0  0  0  0  0  0  0  0  0
    5.6344    0.8728   -0.6382 C   0  0  0  0  0  0  0  0  0  0  0  0
    3.2176    0.7172   -0.6650 O   0  0  0  0  0  0  0  0  0  0  0  0
    2.7502   -0.2987    0.1148 C   0  0  0  0  0  0  0  0  0  0  0  0
    3.3006   -0.7816    1.2968 C   0  0  0  0  0  0  0  0  0  0  0  0
    2.7870   -1.8137    2.0142 N   0  0  0  0  0  0  0  0  0  0  0  0
    1.6655   -2.3937    1.5230 C   0  0  0  0  0  0  0  0  0  0  0  0
    1.0256   -1.9667    0.3696 C   0  0  0  0  0  0  0  0  0  0  0  0
   -0.1835   -2.6799   -0.0810 C   0  0  0  0  0  0  0  0  0  0  0  0
   -0.1547   -3.9090   -0.0707 O   0  0  0  0  0  0  0  0  0  0  0  0
   -1.2980   -1.9533   -0.4971 N   0  0  0  0  0  0  0  0  0  0  0  0
   -2.4076   -2.6988   -1.0869 C   0  0  0  0  0  0  0  0  0  0  0  0
   -3.3427   -1.7936   -1.8779 C   0  0  0  0  0  0  0  0  0  0  0  0
   -3.9294   -0.6735   -1.0149 C   0  0  0  0  0  0  0  0  0  0  0  0
   -3.0151   -0.2720    0.1560 C   0  0  0  0  0  0  0  0  0  0  0  0
   -3.2350    1.1571    0.5400 C   0  0  0  0  0  0  0  0  0  0  0  0
   -2.6764    2.2162   -0.0089 N   0  0  0  0  0  0  0  0  0  0  0  0
   -3.1816    3.2966    0.6655 C   0  0  0  0  0  0  0  0  0  0  0  0
   -4.0612    2.8921    1.6393 C   0  0  0  0  0  0  0  0  0  0  0  0
   -4.0892    1.5286    1.5501 N   0  0  0  0  0  0  0  0  0  0  0  0
   -1.5384   -0.5354   -0.1766 C   0  0  0  0  0  0  0  0  0  0  0  0
    1.5940   -0.9194   -0.3564 C   0  0  0  0  0  0  0  0  0  0  0  0
    3.2125    3.3382   -0.5238 H   0  0  0  0  0  0  0  0  0  0  0  0
    4.9768    3.5560   -0.5157 H   0  0  0  0  0  0  0  0  0  0  0  0
    4.1549    2.8272   -1.9166 H   0  0  0  0  0  0  0  0  0  0  0  0
    4.2887    1.6351    0.8921 H   0  0  0  0  0  0  0  0  0  0  0  0
    5.7602   -0.1250   -0.2066 H   0  0  0  0  0  0  0  0  0  0  0  0
    5.6609    0.7465   -1.7264 H   0  0  0  0  0  0  0  0  0  0  0  0
    6.4884    1.4870   -0.3363 H   0  0  0  0  0  0  0  0  0  0  0  0
    4.2053   -0.3694    1.7295 H   0  0  0  0  0  0  0  0  0  0  0  0
    1.2855   -3.2320    2.1013 H   0  0  0  0  0  0  0  0  0  0  0  0
   -2.9483   -3.1907   -0.2693 H   0  0  0  0  0  0  0  0  0  0  0  0
   -2.0075   -3.4860   -1.7361 H   0  0  0  0  0  0  0  0  0  0  0  0
   -4.1532   -2.3796   -2.3254 H   0  0  0  0  0  0  0  0  0  0  0  0
   -2.7839   -1.3435   -2.7086 H   0  0  0  0  0  0  0  0  0  0  0  0
   -4.1526    0.1831   -1.6642 H   0  0  0  0  0  0  0  0  0  0  0  0
   -4.8964   -0.9961   -0.6072 H   0  0  0  0  0  0  0  0  0  0  0  0
   -3.2746   -0.9062    1.0162 H   0  0  0  0  0  0  0  0  0  0  0  0
   -2.8853    4.3066    0.4132 H   0  0  0  0  0  0  0  0  0  0  0  0
   -4.6504    3.4376    2.3622 H   0  0  0  0  0  0  0  0  0  0  0  0
   -4.6393    0.9017    2.1214 H   0  0  0  0  0  0  0  0  0  0  0  0
   -0.9109   -0.2331    0.6686 H   0  0  0  0  0  0  0  0  0  0  0  0
   -1.2270    0.0485   -1.0517 H   0  0  0  0  0  0  0  0  0  0  0  0
    1.1504   -0.5904   -1.2918 H   0  0  0  0  0  0  0  0  0  0  0  0
  1  2  1  0
  2  3  1  0
  2  4  1  0
  4  5  1  0
  5  6  1  0
  6  7  2  0
  7  8  1  0
  8  9  2  0
  9 10  1  0
 10 11  2  0
 10 12  1  0
 12 13  1  0
 13 14  1  0
 14 15  1  0
 15 16  1  0
 16 17  1  0
 17 18  2  0
 18 19  1  0
 19 20  2  0
 20 21  1  0
 16 22  1  0
  9 23  1  0
 23  5  2  0
 22 12  1  0
 21 17  1  0
  1 24  1  0
  1 25  1  0
  1 26  1  0
  2 27  1  0
  3 28  1  0
  3 29  1  0
  3 30  1  0
  6 31  1  0
  8 32  1  0
 13 33  1  0
 13 34  1  0
 14 35  1  0
 14 36  1  0
 15 37  1  0
 15 38  1  0
 16 39  1  0
 19 40  1  0
 20 41  1  0
 21 42  1  0
 22 43  1  0
 22 44  1  0
 23 45  1  0
M  END
$$$$
OCNT-2309476
     RDKit          3D

 54 57  0  0  0  0  0  0  0  0999 V2000
    5.9727   -1.4216   -0.9003 C   0  0  0  0  0  0  0  0  0  0  0  0
    5.9686    0.0633   -0.5403 C   0  0  0  0  0  0  0  0  0  0  0  0
    6.5626    0.3224    0.8434 C   0  0  0  0  0  0  0  0  0  0  0  0
    4.6499    0.6709   -0.7021 N   0  0  0  0  0  0  0  0  0  0  0  0
    4.5125    1.6426   -1.6324 N   0  0  0  0  0  0  0  0  0  0  0  0
    3.2335    2.0023   -1.5353 C   0  0  0  0  0  0  0  0  0  0  0  0
    2.5323    1.2634   -0.5617 C   0  0  0  0  0  0  0  0  0  0  0  0
    1.2115    1.2427   -0.0832 C   0  0  0  0  0  0  0  0  0  0  0  0
    0.8863    0.3261    0.9267 C   0  0  0  0  0  0  0  0  0  0  0  0
   -0.7946    0.2826    1.5183 S   0  0  0  0  0  0  0  0  0  0  0  0
   -0.9017   -0.8137    2.4575 O   0  0  0  0  0  0  0  0  0  0  0  0
   -1.1261    1.6451    1.8740 O   0  0  0  0  0  0  0  0  0  0  0  0
   -1.6353   -0.1451    0.1276 N   0  0  0  0  0  0  0  0  0  0  0  0
   -1.3946   -1.4766   -0.4699 C   0  0  0  0  0  0  0  0  0  0  0  0
   -1.6635   -1.4168   -1.9917 C   0  0  0  0  0  0  0  0  0  0  0  0
   -2.8620   -0.6541   -2.4150 N   0  0  0  0  0  0  0  0  0  0  0  0
   -2.4813    0.5781   -3.1062 C   0  0  0  0  0  0  0  0  0  0  0  0
   -3.7323   -0.3648   -1.2514 C   0  0  0  0  0  0  0  0  0  0  0  0
   -3.0399    0.3463   -0.0374 C   0  0  0  0  0  0  0  0  0  0  0  0
   -3.9358    0.2702    1.1902 C   0  0  0  0  0  0  0  0  0  0  0  0
   -4.1930   -0.9404    1.8521 C   0  0  0  0  0  0  0  0  0  0  0  0
   -5.0315   -0.9807    2.9682 C   0  0  0  0  0  0  0  0  0  0  0  0
   -5.6252    0.1872    3.4395 C   0  0  0  0  0  0  0  0  0  0  0  0
   -5.3774    1.3977    2.7984 C   0  0  0  0  0  0  0  0  0  0  0  0
   -4.5389    1.4396    1.6827 C   0  0  0  0  0  0  0  0  0  0  0  0
    1.8401   -0.5387    1.4646 C   0  0  0  0  0  0  0  0  0  0  0  0
    3.1575   -0.5203    0.9945 C   0  0  0  0  0  0  0  0  0  0  0  0
    3.4802    0.3909   -0.0250 C   0  0  0  0  0  0  0  0  0  0  0  0
    6.9962   -1.8115   -0.9071 H   0  0  0  0  0  0  0  0  0  0  0  0
    5.3962   -2.0206   -0.1893 H   0  0  0  0  0  0  0  0  0  0  0  0
    5.5445   -1.5835   -1.8956 H   0  0  0  0  0  0  0  0  0  0  0  0
    6.6201    0.5691   -1.2666 H   0  0  0  0  0  0  0  0  0  0  0  0
    6.5516    1.3923    1.0791 H   0  0  0  0  0  0  0  0  0  0  0  0
    6.0124   -0.1974    1.6331 H   0  0  0  0  0  0  0  0  0  0  0  0
    7.6021   -0.0202    0.8845 H   0  0  0  0  0  0  0  0  0  0  0  0
    2.8604    2.7876   -2.1796 H   0  0  0  0  0  0  0  0  0  0  0  0
    0.4616    1.9189   -0.4842 H   0  0  0  0  0  0  0  0  0  0  0  0
   -2.0439   -2.2218    0.0012 H   0  0  0  0  0  0  0  0  0  0  0  0
   -0.3621   -1.8037   -0.3155 H   0  0  0  0  0  0  0  0  0  0  0  0
   -0.7641   -1.0287   -2.4883 H   0  0  0  0  0  0  0  0  0  0  0  0
   -1.7760   -2.4456   -2.3547 H   0  0  0  0  0  0  0  0  0  0  0  0
   -3.3713    1.1362   -3.4174 H   0  0  0  0  0  0  0  0  0  0  0  0
   -1.9271    0.3425   -4.0218 H   0  0  0  0  0  0  0  0  0  0  0  0
   -1.8585    1.2364   -2.4908 H   0  0  0  0  0  0  0  0  0  0  0  0
   -4.1560   -1.3266   -0.9312 H   0  0  0  0  0  0  0  0  0  0  0  0
   -4.6026    0.2241   -1.5717 H   0  0  0  0  0  0  0  0  0  0  0  0
   -2.9325    1.4032   -0.3210 H   0  0  0  0  0  0  0  0  0  0  0  0
   -3.7320   -1.8657    1.5182 H   0  0  0  0  0  0  0  0  0  0  0  0
   -5.2119   -1.9244    3.4764 H   0  0  0  0  0  0  0  0  0  0  0  0
   -6.2709    0.1556    4.3128 H   0  0  0  0  0  0  0  0  0  0  0  0
   -5.8281    2.3131    3.1728 H   0  0  0  0  0  0  0  0  0  0  0  0
   -4.3471    2.4009    1.2099 H   0  0  0  0  0  0  0  0  0  0  0  0
    1.5697   -1.2347    2.2571 H   0  0  0  0  0  0  0  0  0  0  0  0
    3.8943   -1.1941    1.4190 H   0  0  0  0  0  0  0  0  0  0  0  0
  1  2  1  0
  2  3  1  0
  2  4  1  0
  4  5  1  0
  5  6  2  0
  6  7  1  0
  7  8  2  0
  8  9  1  0
  9 10  1  0
 10 11  2  0
 10 12  2  0
 10 13  1  0
 13 14  1  0
 14 15  1  0
 15 16  1  0
 16 17  1  0
 16 18  1  0
 18 19  1  0
 19 20  1  0
 20 21  2  0
 21 22  1  0
 22 23  2  0
 23 24  1  0
 24 25  2  0
  9 26  2  0
 26 27  1  0
 27 28  2  0
 28  4  1  0
 28  7  1  0
 19 13  1  0
 25 20  1  0
  1 29  1  0
  1 30  1  0
  1 31  1  0
  2 32  1  0
  3 33  1  0
  3 34  1  0
  3 35  1  0
  6 36  1  0
  8 37  1  0
 14 38  1  0
 14 39  1  0
 15 40  1  0
 15 41  1  0
 17 42  1  0
 17 43  1  0
 17 44  1  0
 18 45  1  0
 18 46  1  0
 19 47  1  0
 21 48  1  0
 22 49  1  0
 23 50  1  0
 24 51  1  0
 25 52  1  0
 26 53  1  0
 27 54  1  0
M  END
$$$$
OCNT-2309483
     RDKit          3D

 46 48  0  0  0  0  0  0  0  0999 V2000
    8.2037    1.0068   -0.1880 C   0  0  0  0  0  0  0  0  0  0  0  0
    7.3172    0.1399    0.5077 O   0  0  0  0  0  0  0  0  0  0  0  0
    5.9826    0.2504    0.2284 C   0  0  0  0  0  0  0  0  0  0  0  0
    5.4189    1.1201   -0.7017 C   0  0  0  0  0  0  0  0  0  0  0  0
    4.0358    1.1239   -0.8840 C   0  0  0  0  0  0  0  0  0  0  0  0
    3.5088    1.9662   -1.7881 F   0  0  0  0  0  0  0  0  0  0  0  0
    3.1844    0.2808   -0.1562 C   0  0  0  0  0  0  0  0  0  0  0  0
    1.8026    0.3693   -0.4339 N   0  0  0  0  0  0  0  0  0  0  0  0
    0.7687   -0.2261    0.2493 C   0  0  0  0  0  0  0  0  0  0  0  0
    0.9031   -0.8674    1.2875 O   0  0  0  0  0  0  0  0  0  0  0  0
   -0.4809   -0.0401   -0.3276 N   0  0  0  0  0  0  0  0  0  0  0  0
   -0.7214    0.4817   -1.6735 C   0  0  0  0  0  0  0  0  0  0  0  0
   -2.1437    0.1918   -2.1497 C   0  0  0  0  0  0  0  0  0  0  0  0
   -3.1012    0.7301   -1.2385 O   0  0  0  0  0  0  0  0  0  0  0  0
   -2.9489    0.2747    0.1320 C   0  0  0  0  0  0  0  0  0  0  0  0
   -2.8680    1.5657    0.9662 C   0  0  0  0  0  0  0  0  0  0  0  0
   -4.1946   -0.5224    0.5470 C   0  0  0  0  0  0  0  0  0  0  0  0
   -5.2623   -0.7340   -0.3426 C   0  0  0  0  0  0  0  0  0  0  0  0
   -6.3894   -1.4656    0.0418 C   0  0  0  0  0  0  0  0  0  0  0  0
   -6.4728   -1.9987    1.3244 C   0  0  0  0  0  0  0  0  0  0  0  0
   -5.4313   -1.7978    2.2249 C   0  0  0  0  0  0  0  0  0  0  0  0
   -4.3044   -1.0660    1.8414 C   0  0  0  0  0  0  0  0  0  0  0  0
   -1.6614   -0.5835    0.3531 C   0  0  0  0  0  0  0  0  0  0  0  0
    3.7508   -0.5929    0.7671 C   0  0  0  0  0  0  0  0  0  0  0  0
    5.1352   -0.5997    0.9514 C   0  0  0  0  0  0  0  0  0  0  0  0
    5.6542   -1.4532    1.8477 F   0  0  0  0  0  0  0  0  0  0  0  0
    7.9828    2.0566    0.0316 H   0  0  0  0  0  0  0  0  0  0  0  0
    9.2192    0.7995    0.1629 H   0  0  0  0  0  0  0  0  0  0  0  0
    8.1773    0.8142   -1.2656 H   0  0  0  0  0  0  0  0  0  0  0  0
    6.0113    1.8018   -1.2996 H   0  0  0  0  0  0  0  0  0  0  0  0
    1.5537    1.0761   -1.1108 H   0  0  0  0  0  0  0  0  0  0  0  0
    0.0080    0.0514   -2.3676 H   0  0  0  0  0  0  0  0  0  0  0  0
   -0.5610    1.5646   -1.6218 H   0  0  0  0  0  0  0  0  0  0  0  0
   -2.3118    0.6607   -3.1242 H   0  0  0  0  0  0  0  0  0  0  0  0
   -2.3225   -0.8832   -2.2680 H   0  0  0  0  0  0  0  0  0  0  0  0
   -3.7784    2.1659    0.8469 H   0  0  0  0  0  0  0  0  0  0  0  0
   -2.0374    2.1971    0.6306 H   0  0  0  0  0  0  0  0  0  0  0  0
   -2.7321    1.3657    2.0342 H   0  0  0  0  0  0  0  0  0  0  0  0
   -5.2330   -0.3241   -1.3500 H   0  0  0  0  0  0  0  0  0  0  0  0
   -7.2032   -1.6148   -0.6630 H   0  0  0  0  0  0  0  0  0  0  0  0
   -7.3500   -2.5664    1.6228 H   0  0  0  0  0  0  0  0  0  0  0  0
   -5.4950   -2.2090    3.2293 H   0  0  0  0  0  0  0  0  0  0  0  0
   -3.5125   -0.9237    2.5742 H   0  0  0  0  0  0  0  0  0  0  0  0
   -1.8029   -1.5928   -0.0571 H   0  0  0  0  0  0  0  0  0  0  0  0
   -1.4573   -0.7091    1.4227 H   0  0  0  0  0  0  0  0  0  0  0  0
    3.1589   -1.2849    1.3556 H   0  0  0  0  0  0  0  0  0  0  0  0
  1  2  1  0
  2  3  1  0
  3  4  1  0
  4  5  2  0
  5  6  1  0
  5  7  1  0
  7  8  1  0
  8  9  1  0
  9 10  2  0
  9 11  1  0
 11 12  1  0
 12 13  1  0
 13 14  1  0
 14 15  1  0
 15 16  1  0
 15 17  1  0
 17 18  2  0
 18 19  1  0
 19 20  2  0
 20 21  1  0
 21 22  2  0
 15 23  1  0
  7 24  2  0
 24 25  1  0
 25 26  1  0
 25  3  2  0
 23 11  1  0
 22 17  1  0
  1 27  1  0
  1 28  1  0
  1 29  1  0
  4 30  1  0
  8 31  1  0
 12 32  1  0
 12 33  1  0
 13 34  1  0
 13 35  1  0
 16 36  1  0
 16 37  1  0
 16 38  1  0
 18 39  1  0
 19 40  1  0
 20 41  1  0
 21 42  1  0
 22 43  1  0
 23 44  1  0
 23 45  1  0
 24 46  1  0
M  END
$$$$
OCNT-2309487
     RDKit          3D

 44 47  0  0  0  0  0  0  0  0999 V2000
   -5.8492    0.9501   -1.0777 C   0  0  0  0  0  0  0  0  0  0  0  0
   -6.0551    0.1731    0.5151 S   0  0  0  0  0  0  0  0  0  0  0  0
   -6.5863   -1.1548    0.2915 O   0  0  0  0  0  0  0  0  0  0  0  0
   -6.7596    1.1132    1.3645 O   0  0  0  0  0  0  0  0  0  0  0  0
   -4.4764    0.0665    1.0850 N   0  0  0  0  0  0  0  0  0  0  0  0
   -3.8280    1.3044    1.5913 C   0  0  0  0  0  0  0  0  0  0  0  0
   -2.3163    1.0306    1.5486 C   0  0  0  0  0  0  0  0  0  0  0  0
   -2.2121   -0.1749    0.6621 C   0  0  0  0  0  0  0  0  0  0  0  0
   -1.0616   -0.7824    0.1600 C   0  0  0  0  0  0  0  0  0  0  0  0
    0.1913   -0.1929    0.4241 N   0  0  0  0  0  0  0  0  0  0  0  0
    1.4386   -0.7081    0.1423 C   0  0  0  0  0  0  0  0  0  0  0  0
    1.6929   -1.8094   -0.3234 O   0  0  0  0  0  0  0  0  0  0  0  0
    2.4222    0.2059    0.4772 N   0  0  0  0  0  0  0  0  0  0  0  0
    3.8169   -0.1117    0.2200 C   0  0  0  0  0  0  0  0  0  0  0  0
    4.7842    0.8572    0.9317 C   0  0  0  0  0  0  0  0  0  0  0  0
    6.0059    0.9124    0.0589 C   0  0  0  0  0  0  0  0  0  0  0  0
    6.6815   -0.3339   -0.4539 C   0  0  0  0  0  0  0  0  0  0  0  0
    5.6482    0.3796   -1.2880 C   0  0  0  0  0  0  0  0  0  0  0  0
    4.1991   -0.0202   -1.2749 C   0  0  0  0  0  0  0  0  0  0  0  0
   -1.2246   -1.9503   -0.5913 C   0  0  0  0  0  0  0  0  0  0  0  0
   -2.4971   -2.5111   -0.7915 C   0  0  0  0  0  0  0  0  0  0  0  0
   -3.6357   -1.9023   -0.2650 C   0  0  0  0  0  0  0  0  0  0  0  0
   -3.4815   -0.7152    0.4252 C   0  0  0  0  0  0  0  0  0  0  0  0
   -6.8432    1.0788   -1.5130 H   0  0  0  0  0  0  0  0  0  0  0  0
   -5.2513    0.3051   -1.7230 H   0  0  0  0  0  0  0  0  0  0  0  0
   -5.3797    1.9261   -0.9507 H   0  0  0  0  0  0  0  0  0  0  0  0
   -4.0630    2.1589    0.9473 H   0  0  0  0  0  0  0  0  0  0  0  0
   -4.1580    1.5306    2.6098 H   0  0  0  0  0  0  0  0  0  0  0  0
   -1.9388    0.7922    2.5487 H   0  0  0  0  0  0  0  0  0  0  0  0
   -1.7749    1.8927    1.1479 H   0  0  0  0  0  0  0  0  0  0  0  0
    0.1990    0.6144    1.0269 H   0  0  0  0  0  0  0  0  0  0  0  0
    2.1603    1.1706    0.3411 H   0  0  0  0  0  0  0  0  0  0  0  0
    4.0097   -1.1334    0.5736 H   0  0  0  0  0  0  0  0  0  0  0  0
    4.3499    1.8608    1.0117 H   0  0  0  0  0  0  0  0  0  0  0  0
    5.0230    0.5110    1.9424 H   0  0  0  0  0  0  0  0  0  0  0  0
    6.5803    1.8235    0.1468 H   0  0  0  0  0  0  0  0  0  0  0  0
    7.7189   -0.2561   -0.7618 H   0  0  0  0  0  0  0  0  0  0  0  0
    6.4321   -1.2921   -0.0128 H   0  0  0  0  0  0  0  0  0  0  0  0
    5.9618    0.9009   -2.1809 H   0  0  0  0  0  0  0  0  0  0  0  0
    3.6048    0.7467   -1.7854 H   0  0  0  0  0  0  0  0  0  0  0  0
    4.0392   -0.9728   -1.7898 H   0  0  0  0  0  0  0  0  0  0  0  0
   -0.3743   -2.4703   -1.0243 H   0  0  0  0  0  0  0  0  0  0  0  0
   -2.5898   -3.4400   -1.3505 H   0  0  0  0  0  0  0  0  0  0  0  0
   -4.6032   -2.3734   -0.3988 H   0  0  0  0  0  0  0  0  0  0  0  0
  1  2  1  0
  2  3  2  0
  2  4  2  0
  2  5  1  0
  5  6  1  0
  6  7  1  0
  7  8  1  0
  8  9  2  0
  9 10  1  0
 10 11  1  0
 11 12  2  0
 11 13  1  0
 13 14  1  0
 14 15  1  0
 15 16  1  0
 16 17  1  0
 17 18  1  0
 18 19  1  0
  9 20  1  0
 20 21  2  0
 21 22  1  0
 22 23  2  0
 23  5  1  0
 23  8  1  0
 19 14  1  0
 18 16  1  0
  1 24  1  0
  1 25  1  0
  1 26  1  0
  6 27  1  0
  6 28  1  0
  7 29  1  0
  7 30  1  0
 10 31  1  0
 13 32  1  0
 14 33  1  0
 15 34  1  0
 15 35  1  0
 16 36  1  0
 17 37  1  0
 17 38  1  0
 18 39  1  0
 19 40  1  0
 19 41  1  0
 20 42  1  0
 21 43  1  0
 22 44  1  0
M  END
$$$$
OCNT-2309491
     RDKit          3D

 45 49  0  0  0  0  0  0  0  0999 V2000
   -2.8582   -2.2235   -2.5984 O   0  0  0  0  0  0  0  0  0  0  0  0
   -2.1220   -1.8943   -1.6691 C   0  0  0  0  0  0  0  0  0  0  0  0
   -1.1170   -2.8481   -1.0562 C   0  0  0  0  0  0  0  0  0  0  0  0
    0.2769   -2.4417   -1.3900 C   0  0  0  0  0  0  0  0  0  0  0  0
    0.9700   -2.7587   -2.5422 C   0  0  0  0  0  0  0  0  0  0  0  0
    2.5399   -2.0870   -2.4854 S   0  0  0  0  0  0  0  0  0  0  0  0
    2.2065   -1.4128   -0.9296 C   0  0  0  0  0  0  0  0  0  0  0  0
    3.2134   -0.6309   -0.1754 C   0  0  0  0  0  0  0  0  0  0  0  0
    2.8478   -0.0915    1.0880 C   0  0  0  0  0  0  0  0  0  0  0  0
    3.7494    0.6468    1.8669 C   0  0  0  0  0  0  0  0  0  0  0  0
    5.0180    0.8327    1.3674 C   0  0  0  0  0  0  0  0  0  0  0  0
    6.0274    1.5091    1.9789 O   0  0  0  0  0  0  0  0  0  0  0  0
    7.0947    1.3294    1.0209 C   0  0  0  0  0  0  0  0  0  0  0  0
    6.6880    0.6068   -0.1588 O   0  0  0  0  0  0  0  0  0  0  0  0
    5.3927    0.3201    0.1493 C   0  0  0  0  0  0  0  0  0  0  0  0
    4.5225   -0.4069   -0.6417 C   0  0  0  0  0  0  0  0  0  0  0  0
    0.9877   -1.6697   -0.4802 N   0  0  0  0  0  0  0  0  0  0  0  0
   -2.1405   -0.6423   -1.0931 N   0  0  0  0  0  0  0  0  0  0  0  0
   -3.1556    0.3566   -1.4271 C   0  0  0  0  0  0  0  0  0  0  0  0
   -2.6117    1.7901   -1.1850 C   0  0  0  0  0  0  0  0  0  0  0  0
   -2.3544    2.1206    0.3012 C   0  0  0  0  0  0  0  0  0  0  0  0
   -3.4445    1.5535    1.1309 C   0  0  0  0  0  0  0  0  0  0  0  0
   -4.3911    0.6350    0.7356 C   0  0  0  0  0  0  0  0  0  0  0  0
   -5.1619    0.4061    1.8885 C   0  0  0  0  0  0  0  0  0  0  0  0
   -4.7325    1.1237    2.9328 N   0  0  0  0  0  0  0  0  0  0  0  0
   -3.6883    1.8202    2.4442 N   0  0  0  0  0  0  0  0  0  0  0  0
   -4.4801    0.0972   -0.6502 C   0  0  0  0  0  0  0  0  0  0  0  0
   -1.3216   -3.8584   -1.4278 H   0  0  0  0  0  0  0  0  0  0  0  0
   -1.2659   -2.8748    0.0292 H   0  0  0  0  0  0  0  0  0  0  0  0
    0.6331   -3.3383   -3.3930 H   0  0  0  0  0  0  0  0  0  0  0  0
    1.8414   -0.2576    1.4740 H   0  0  0  0  0  0  0  0  0  0  0  0
    3.4603    1.0488    2.8326 H   0  0  0  0  0  0  0  0  0  0  0  0
    7.4657    2.3166    0.7200 H   0  0  0  0  0  0  0  0  0  0  0  0
    7.9117    0.7784    1.5021 H   0  0  0  0  0  0  0  0  0  0  0  0
    4.8786   -0.7898   -1.5922 H   0  0  0  0  0  0  0  0  0  0  0  0
   -1.5621   -0.4956   -0.2727 H   0  0  0  0  0  0  0  0  0  0  0  0
   -3.3718    0.2442   -2.4983 H   0  0  0  0  0  0  0  0  0  0  0  0
   -1.6838    1.9461   -1.7533 H   0  0  0  0  0  0  0  0  0  0  0  0
   -3.3493    2.5058   -1.5765 H   0  0  0  0  0  0  0  0  0  0  0  0
   -2.2836    3.2057    0.4330 H   0  0  0  0  0  0  0  0  0  0  0  0
   -1.3975    1.6873    0.6146 H   0  0  0  0  0  0  0  0  0  0  0  0
   -6.0155   -0.2469    2.0163 H   0  0  0  0  0  0  0  0  0  0  0  0
   -3.1955    2.4507    3.0684 H   0  0  0  0  0  0  0  0  0  0  0  0
   -4.7181   -0.9733   -0.6324 H   0  0  0  0  0  0  0  0  0  0  0  0
   -5.3032    0.6106   -1.1640 H   0  0  0  0  0  0  0  0  0  0  0  0
  1  2  2  0
  2  3  1  0
  3  4  1  0
  4  5  2  0
  5  6  1  0
  6  7  1  0
  7  8  1  0
  8  9  1  0
  9 10  2  0
 10 11  1  0
 11 12  1  0
 12 13  1  0
 13 14  1  0
 14 15  1  0
 15 16  1  0
  7 17  2  0
  2 18  1  0
 18 19  1  0
 19 20  1  0
 20 21  1  0
 21 22  1  0
 22 23  2  0
 23 24  1  0
 24 25  2  0
 25 26  1  0
 23 27  1  0
 17  4  1  0
 27 19  1  0
 16  8  2  0
 26 22  1  0
 15 11  2  0
  3 28  1  0
  3 29  1  0
  5 30  1  0
  9 31  1  0
 10 32  1  0
 13 33  1  0
 13 34  1  0
 16 35  1  0
 18 36  1  0
 19 37  1  0
 20 38  1  0
 20 39  1  0
 21 40  1  0
 21 41  1  0
 24 42  1  0
 26 43  1  0
 27 44  1  0
 27 45  1  0
M  END
$$$$
OCNT-2309502
     RDKit          3D

 38 41  0  0  0  0  0  0  0  0999 V2000
   -5.1670    0.5922   -0.3580 O   0  0  0  0  0  0  0  0  0  0  0  0
   -3.9408    0.6802   -0.4443 C   0  0  0  0  0  0  0  0  0  0  0  0
   -3.3132    1.8310   -1.1973 C   0  0  0  0  0  0  0  0  0  0  0  0
   -2.0181    1.4302   -1.8686 C   0  0  0  0  0  0  0  0  0  0  0  0
   -1.1067    0.7700   -0.8765 C   0  0  0  0  0  0  0  0  0  0  0  0
   -1.6554   -0.0552    0.1119 C   0  0  0  0  0  0  0  0  0  0  0  0
   -0.8041   -0.7739    0.9635 C   0  0  0  0  0  0  0  0  0  0  0  0
    0.5871   -0.6092    0.8567 C   0  0  0  0  0  0  0  0  0  0  0  0
    1.1555    0.2257   -0.1183 C   0  0  0  0  0  0  0  0  0  0  0  0
    2.6157    0.3859   -0.2296 C   0  0  0  0  0  0  0  0  0  0  0  0
    3.2011    1.6662   -0.2606 C   0  0  0  0  0  0  0  0  0  0  0  0
    4.5886    1.8299   -0.3665 C   0  0  0  0  0  0  0  0  0  0  0  0
    5.4220    0.7161   -0.4446 C   0  0  0  0  0  0  0  0  0  0  0  0
    4.8605   -0.5515   -0.4148 C   0  0  0  0  0  0  0  0  0  0  0  0
    5.6906   -1.6345   -0.4948 O   0  0  0  0  0  0  0  0  0  0  0  0
    3.4790   -0.7166   -0.3074 C   0  0  0  0  0  0  0  0  0  0  0  0
    2.9940   -1.9700   -0.2899 F   0  0  0  0  0  0  0  0  0  0  0  0
    0.2859    0.8992   -0.9907 C   0  0  0  0  0  0  0  0  0  0  0  0
   -1.3650   -1.6949    2.0125 C   0  0  0  0  0  0  0  0  0  0  0  0
   -2.6995   -2.2561    1.5492 C   0  0  0  0  0  0  0  0  0  0  0  0
   -3.6353   -1.1169    1.1787 C   0  0  0  0  0  0  0  0  0  0  0  0
   -3.0673   -0.1775    0.2179 N   0  0  0  0  0  0  0  0  0  0  0  0
   -4.0218    2.1866   -1.9535 H   0  0  0  0  0  0  0  0  0  0  0  0
   -3.1483    2.6442   -0.4800 H   0  0  0  0  0  0  0  0  0  0  0  0
   -2.2114    0.7252   -2.6864 H   0  0  0  0  0  0  0  0  0  0  0  0
   -1.5448    2.3203   -2.2988 H   0  0  0  0  0  0  0  0  0  0  0  0
    1.2373   -1.1500    1.5435 H   0  0  0  0  0  0  0  0  0  0  0  0
    2.5755    2.5546   -0.1885 H   0  0  0  0  0  0  0  0  0  0  0  0
    5.0170    2.8294   -0.3848 H   0  0  0  0  0  0  0  0  0  0  0  0
    6.4984    0.8358   -0.5273 H   0  0  0  0  0  0  0  0  0  0  0  0
    5.1221   -2.4275   -0.4743 H   0  0  0  0  0  0  0  0  0  0  0  0
    0.6971    1.5226   -1.7835 H   0  0  0  0  0  0  0  0  0  0  0  0
   -0.6757   -2.5263    2.2006 H   0  0  0  0  0  0  0  0  0  0  0  0
   -1.4846   -1.1378    2.9492 H   0  0  0  0  0  0  0  0  0  0  0  0
   -2.5480   -2.9048    0.6765 H   0  0  0  0  0  0  0  0  0  0  0  0
   -3.1464   -2.8713    2.3378 H   0  0  0  0  0  0  0  0  0  0  0  0
   -4.5645   -1.5312    0.7698 H   0  0  0  0  0  0  0  0  0  0  0  0
   -3.9095   -0.5400    2.0712 H   0  0  0  0  0  0  0  0  0  0  0  0
  1  2  2  0
  2  3  1  0
  3  4  1  0
  4  5  1  0
  5  6  2  0
  6  7  1  0
  7  8  2  0
  8  9  1  0
  9 10  1  0
 10 11  2  0
 11 12  1  0
 12 13  2  0
 13 14  1  0
 14 15  1  0
 14 16  2  0
 16 17  1  0
  9 18  2  0
  7 19  1  0
 19 20  1  0
 20 21  1  0
 21 22  1  0
 22  2  1  0
 18  5  1  0
 22  6  1  0
 16 10  1  0
  3 23  1  0
  3 24  1  0
  4 25  1  0
  4 26  1  0
  8 27  1  0
 11 28  1  0
 12 29  1  0
 13 30  1  0
 15 31  1  0
 18 32  1  0
 19 33  1  0
 19 34  1  0
 20 35  1  0
 20 36  1  0
 21 37  1  0
 21 38  1  0
M  END
$$$$
OCNT-2309505
     RDKit          3D

 48 51  0  0  0  0  0  0  0  0999 V2000
    1.3200   -2.5061    0.8729 O   0  0  0  0  0  0  0  0  0  0  0  0
    1.7359   -1.3713    1.0875 C   0  0  0  0  0  0  0  0  0  0  0  0
    3.1033   -1.1078    1.7263 C   0  0  0  0  0  0  0  0  0  0  0  0
    3.6915    0.1426    1.3846 O   0  0  0  0  0  0  0  0  0  0  0  0
    4.2005    0.2853    0.1255 C   0  0  0  0  0  0  0  0  0  0  0  0
    4.2603   -0.6892   -0.8667 C   0  0  0  0  0  0  0  0  0  0  0  0
    4.7945   -0.3680   -2.1154 C   0  0  0  0  0  0  0  0  0  0  0  0
    5.2522    0.9213   -2.3306 C   0  0  0  0  0  0  0  0  0  0  0  0
    5.2114    1.8917   -1.3956 N   0  0  0  0  0  0  0  0  0  0  0  0
    4.6925    1.5479   -0.1923 C   0  0  0  0  0  0  0  0  0  0  0  0
    1.0219   -0.2327    0.7982 N   0  0  0  0  0  0  0  0  0  0  0  0
   -0.3028   -0.2649    0.2020 C   0  0  0  0  0  0  0  0  0  0  0  0
   -1.3583   -0.4131    1.2970 C   0  0  0  0  0  0  0  0  0  0  0  0
   -2.7708   -0.1613    0.7395 C   0  0  0  0  0  0  0  0  0  0  0  0
   -3.8070   -0.2242    1.8880 C   0  0  0  0  0  0  0  0  0  0  0  0
   -4.4763   -1.5900    2.0111 C   0  0  0  0  0  0  0  0  0  0  0  0
   -3.5870   -2.6205    1.6029 O   0  0  0  0  0  0  0  0  0  0  0  0
   -3.3054   -2.5831    0.2033 C   0  0  0  0  0  0  0  0  0  0  0  0
   -3.2061   -1.1630   -0.3445 C   0  0  0  0  0  0  0  0  0  0  0  0
   -2.8554    1.1784    0.2104 O   0  0  0  0  0  0  0  0  0  0  0  0
   -1.8099    1.6097   -0.5587 C   0  0  0  0  0  0  0  0  0  0  0  0
   -2.0485    2.7681   -1.3008 C   0  0  0  0  0  0  0  0  0  0  0  0
   -1.0592    3.2860   -2.1353 C   0  0  0  0  0  0  0  0  0  0  0  0
    0.1713    2.6427   -2.2315 C   0  0  0  0  0  0  0  0  0  0  0  0
    0.4150    1.4907   -1.4826 C   0  0  0  0  0  0  0  0  0  0  0  0
   -0.5652    0.9749   -0.6157 C   0  0  0  0  0  0  0  0  0  0  0  0
    3.7873   -1.9376    1.5152 H   0  0  0  0  0  0  0  0  0  0  0  0
    2.9434   -1.0998    2.8106 H   0  0  0  0  0  0  0  0  0  0  0  0
    3.9030   -1.7021   -0.7129 H   0  0  0  0  0  0  0  0  0  0  0  0
    4.8514   -1.1110   -2.9039 H   0  0  0  0  0  0  0  0  0  0  0  0
    5.6757    1.2145   -3.2871 H   0  0  0  0  0  0  0  0  0  0  0  0
    4.6754    2.3493    0.5414 H   0  0  0  0  0  0  0  0  0  0  0  0
    1.4165    0.6646    1.0588 H   0  0  0  0  0  0  0  0  0  0  0  0
   -0.3511   -1.1308   -0.4701 H   0  0  0  0  0  0  0  0  0  0  0  0
   -1.2724   -1.3959    1.7745 H   0  0  0  0  0  0  0  0  0  0  0  0
   -1.1508    0.3284    2.0833 H   0  0  0  0  0  0  0  0  0  0  0  0
   -4.5861    0.5395    1.7665 H   0  0  0  0  0  0  0  0  0  0  0  0
   -3.3178    0.0211    2.8395 H   0  0  0  0  0  0  0  0  0  0  0  0
   -4.7648   -1.7733    3.0511 H   0  0  0  0  0  0  0  0  0  0  0  0
   -5.3922   -1.6389    1.4094 H   0  0  0  0  0  0  0  0  0  0  0  0
   -4.0783   -3.1470   -0.3304 H   0  0  0  0  0  0  0  0  0  0  0  0
   -2.3583   -3.1121    0.0539 H   0  0  0  0  0  0  0  0  0  0  0  0
   -4.1929   -0.8563   -0.7203 H   0  0  0  0  0  0  0  0  0  0  0  0
   -2.5658   -1.1420   -1.2331 H   0  0  0  0  0  0  0  0  0  0  0  0
   -3.0138    3.2633   -1.2342 H   0  0  0  0  0  0  0  0  0  0  0  0
   -1.2517    4.1854   -2.7140 H   0  0  0  0  0  0  0  0  0  0  0  0
    0.9436    3.0371   -2.8875 H   0  0  0  0  0  0  0  0  0  0  0  0
    1.3815    0.9991   -1.5776 H   0  0  0  0  0  0  0  0  0  0  0  0
  1  2  2  0
  2  3  1  0
  3  4  1  0
  4  5  1  0
  5  6  1  0
  6  7  2  0
  7  8  1  0
  8  9  2  0
  9 10  1  0
  2 11  1  0
 11 12  1  0
 12 13  1  0
 13 14  1  0
 14 15  1  0
 15 16  1  0
 16 17  1  0
 17 18  1  0
 18 19  1  0
 14 20  1  0
 20 21  1  0
 21 22  2  0
 22 23  1  0
 23 24  2  0
 24 25  1  0
 25 26  2  0
 10  5  2  0
 26 12  1  0
 19 14  1  0
 26 21  1  0
  3 27  1  0
  3 28  1  0
  6 29  1  0
  7 30  1  0
  8 31  1  0
 10 32  1  0
 11 33  1  0
 12 34  1  0
 13 35  1  0
 13 36  1  0
 15 37  1  0
 15 38  1  0
 16 39  1  0
 16 40  1  0
 18 41  1  0
 18 42  1  0
 19 43  1  0
 19 44  1  0
 22 45  1  0
 23 46  1  0
 24 47  1  0
 25 48  1  0
M  END
$$$$
OCNT-2309511
     RDKit          3D

 49 51  0  0  0  0  0  0  0  0999 V2000
    7.3775   -0.4917    0.0288 C   0  0  0  0  0  0  0  0  0  0  0  0
    5.9331   -0.4162   -0.2460 C   0  0  0  0  0  0  0  0  0  0  0  0
    4.8020   -0.6958    0.4790 C   0  0  0  0  0  0  0  0  0  0  0  0
    3.7355   -0.3943   -0.3954 C   0  0  0  0  0  0  0  0  0  0  0  0
    2.3831   -0.4882   -0.1815 N   0  0  0  0  0  0  0  0  0  0  0  0
    1.7718   -0.9828    0.9511 C   0  0  0  0  0  0  0  0  0  0  0  0
    2.3527   -1.4307    1.9390 O   0  0  0  0  0  0  0  0  0  0  0  0
    0.2161   -0.9005    0.8887 C   0  0  0  0  0  0  0  0  0  0  0  0
   -0.1933    0.4918    1.3729 C   0  0  0  0  0  0  0  0  0  0  0  0
   -0.5770    0.6710    2.7123 C   0  0  0  0  0  0  0  0  0  0  0  0
   -0.9445    1.9319    3.1851 C   0  0  0  0  0  0  0  0  0  0  0  0
   -0.9268    3.0311    2.3298 C   0  0  0  0  0  0  0  0  0  0  0  0
   -0.5356    2.8735    1.0026 C   0  0  0  0  0  0  0  0  0  0  0  0
   -0.1651    1.6147    0.5272 C   0  0  0  0  0  0  0  0  0  0  0  0
   -0.2902   -1.2602   -0.4908 N   0  0  0  0  0  0  0  0  0  0  0  0
    0.1030   -2.6493   -0.8132 C   0  0  0  0  0  0  0  0  0  0  0  0
   -1.7710   -1.1581   -0.5516 C   0  0  0  0  0  0  0  0  0  0  0  0
   -2.2708   -1.0652   -2.0021 C   0  0  0  0  0  0  0  0  0  0  0  0
   -3.7900   -0.9000   -2.0908 C   0  0  0  0  0  0  0  0  0  0  0  0
   -4.2809    0.3574   -1.5687 N   0  0  0  0  0  0  0  0  0  0  0  0
   -4.0994    1.5913   -2.1270 C   0  0  0  0  0  0  0  0  0  0  0  0
   -4.7619    2.4585   -1.2899 C   0  0  0  0  0  0  0  0  0  0  0  0
   -5.3506    1.7805   -0.2541 N   0  0  0  0  0  0  0  0  0  0  0  0
   -5.0456    0.5175   -0.4491 C   0  0  0  0  0  0  0  0  0  0  0  0
    4.1932    0.0397   -1.5753 N   0  0  0  0  0  0  0  0  0  0  0  0
    5.5725    0.0245   -1.4795 O   0  0  0  0  0  0  0  0  0  0  0  0
    7.8649   -1.1815   -0.6670 H   0  0  0  0  0  0  0  0  0  0  0  0
    7.8410    0.4936   -0.0798 H   0  0  0  0  0  0  0  0  0  0  0  0
    7.5659   -0.8458    1.0470 H   0  0  0  0  0  0  0  0  0  0  0  0
    4.7574   -1.0605    1.4942 H   0  0  0  0  0  0  0  0  0  0  0  0
    1.7931   -0.2301   -0.9634 H   0  0  0  0  0  0  0  0  0  0  0  0
   -0.1733   -1.6502    1.5923 H   0  0  0  0  0  0  0  0  0  0  0  0
   -0.5896   -0.1716    3.4008 H   0  0  0  0  0  0  0  0  0  0  0  0
   -1.2452    2.0571    4.2222 H   0  0  0  0  0  0  0  0  0  0  0  0
   -1.2190    4.0111    2.6976 H   0  0  0  0  0  0  0  0  0  0  0  0
   -0.5235    3.7314    0.3353 H   0  0  0  0  0  0  0  0  0  0  0  0
    0.1278    1.5157   -0.5153 H   0  0  0  0  0  0  0  0  0  0  0  0
   -0.3221   -3.3706   -0.1055 H   0  0  0  0  0  0  0  0  0  0  0  0
   -0.2194   -2.9272   -1.8212 H   0  0  0  0  0  0  0  0  0  0  0  0
    1.1893   -2.7792   -0.8153 H   0  0  0  0  0  0  0  0  0  0  0  0
   -2.1190   -0.2570   -0.0402 H   0  0  0  0  0  0  0  0  0  0  0  0
   -2.2452   -2.0021   -0.0337 H   0  0  0  0  0  0  0  0  0  0  0  0
   -2.0073   -1.9734   -2.5545 H   0  0  0  0  0  0  0  0  0  0  0  0
   -1.7738   -0.2279   -2.5082 H   0  0  0  0  0  0  0  0  0  0  0  0
   -4.1077   -0.9468   -3.1393 H   0  0  0  0  0  0  0  0  0  0  0  0
   -4.2977   -1.7132   -1.5593 H   0  0  0  0  0  0  0  0  0  0  0  0
   -3.5335    1.7500   -3.0339 H   0  0  0  0  0  0  0  0  0  0  0  0
   -4.8504    3.5333   -1.3801 H   0  0  0  0  0  0  0  0  0  0  0  0
   -5.3503   -0.3056    0.1839 H   0  0  0  0  0  0  0  0  0  0  0  0
  1  2  1  0
  2  3  2  0
  3  4  1  0
  4  5  1  0
  5  6  1  0
  6  7  2  0
  6  8  1  0
  8  9  1  0
  9 10  2  0
 10 11  1  0
 11 12  2  0
 12 13  1  0
 13 14  2  0
  8 15  1  0
 15 16  1  0
 15 17  1  0
 17 18  1  0
 18 19  1  0
 19 20  1  0
 20 21  1  0
 21 22  2  0
 22 23  1  0
 23 24  2  0
  4 25  2  0
 25 26  1  0
 26  2  1  0
 14  9  1  0
 24 20  1  0
  1 27  1  0
  1 28  1  0
  1 29  1  0
  3 30  1  0
  5 31  1  0
  8 32  1  0
 10 33  1  0
 11 34  1  0
 12 35  1  0
 13 36  1  0
 14 37  1  0
 16 38  1  0
 16 39  1  0
 16 40  1  0
 17 41  1  0
 17 42  1  0
 18 43  1  0
 18 44  1  0
 19 45  1  0
 19 46  1  0
 21 47  1  0
 22 48  1  0
 24 49  1  0
M  END
$$$$
OCNT-2309518
     RDKit          3D

 48 50  0  0  0  0  0  0  0  0999 V2000
   -6.3328    2.2605   -0.1722 C   0  0  0  0  0  0  0  0  0  0  0  0
   -4.8738    1.9146   -0.2894 C   0  0  0  0  0  0  0  0  0  0  0  0
   -3.9173    2.9370   -0.3095 C   0  0  0  0  0  0  0  0  0  0  0  0
   -2.5601    2.6335   -0.4248 C   0  0  0  0  0  0  0  0  0  0  0  0
   -2.1354    1.3055   -0.5241 C   0  0  0  0  0  0  0  0  0  0  0  0
   -0.7444    1.0801   -0.6274 N   0  0  0  0  0  0  0  0  0  0  0  0
   -0.1008   -0.1058   -0.9100 C   0  0  0  0  0  0  0  0  0  0  0  0
   -0.6698   -1.1475   -1.2285 O   0  0  0  0  0  0  0  0  0  0  0  0
    1.2864   -0.0478   -0.8091 N   0  0  0  0  0  0  0  0  0  0  0  0
    2.0592    1.1069   -0.3265 C   0  0  0  0  0  0  0  0  0  0  0  0
    3.5787    0.8589   -0.2692 C   0  0  0  0  0  0  0  0  0  0  0  0
    3.8627   -0.3753    0.4757 N   0  0  0  0  0  0  0  0  0  0  0  0
    5.1991   -0.5940    0.8061 C   0  0  0  0  0  0  0  0  0  0  0  0
    5.6012   -1.6668    1.6145 C   0  0  0  0  0  0  0  0  0  0  0  0
    6.8866   -1.9221    1.9763 N   0  0  0  0  0  0  0  0  0  0  0  0
    7.7893   -1.0398    1.5088 C   0  0  0  0  0  0  0  0  0  0  0  0
    7.4225    0.0354    0.7238 C   0  0  0  0  0  0  0  0  0  0  0  0
    6.1381    0.2767    0.3659 N   0  0  0  0  0  0  0  0  0  0  0  0
    3.0374   -1.5545    0.1410 C   0  0  0  0  0  0  0  0  0  0  0  0
    2.0605   -1.2755   -1.0186 C   0  0  0  0  0  0  0  0  0  0  0  0
   -3.0901    0.2846   -0.4904 C   0  0  0  0  0  0  0  0  0  0  0  0
   -4.4562    0.5759   -0.3914 C   0  0  0  0  0  0  0  0  0  0  0  0
   -5.4628   -0.3534   -0.3709 O   0  0  0  0  0  0  0  0  0  0  0  0
   -5.1562   -1.7281   -0.6292 C   0  0  0  0  0  0  0  0  0  0  0  0
   -4.9103   -2.5198    0.6491 C   0  0  0  0  0  0  0  0  0  0  0  0
   -5.9897   -2.4447    1.4691 F   0  0  0  0  0  0  0  0  0  0  0  0
   -3.8520   -2.0386    1.3425 F   0  0  0  0  0  0  0  0  0  0  0  0
   -6.8579    1.9974   -1.0957 H   0  0  0  0  0  0  0  0  0  0  0  0
   -6.7859    1.7271    0.6695 H   0  0  0  0  0  0  0  0  0  0  0  0
   -6.4784    3.3314    0.0043 H   0  0  0  0  0  0  0  0  0  0  0  0
   -4.2236    3.9774   -0.2323 H   0  0  0  0  0  0  0  0  0  0  0  0
   -1.8456    3.4517   -0.4358 H   0  0  0  0  0  0  0  0  0  0  0  0
   -0.1739    1.9071   -0.6099 H   0  0  0  0  0  0  0  0  0  0  0  0
    1.8533    1.9629   -0.9786 H   0  0  0  0  0  0  0  0  0  0  0  0
    1.6865    1.3467    0.6770 H   0  0  0  0  0  0  0  0  0  0  0  0
    4.0409    1.7279    0.2154 H   0  0  0  0  0  0  0  0  0  0  0  0
    3.9799    0.7839   -1.2882 H   0  0  0  0  0  0  0  0  0  0  0  0
    4.8757   -2.3629    2.0216 H   0  0  0  0  0  0  0  0  0  0  0  0
    8.8219   -1.2171    1.7854 H   0  0  0  0  0  0  0  0  0  0  0  0
    8.1562    0.7440    0.3566 H   0  0  0  0  0  0  0  0  0  0  0  0
    2.4667   -1.8326    1.0352 H   0  0  0  0  0  0  0  0  0  0  0  0
    3.6543   -2.4152   -0.1450 H   0  0  0  0  0  0  0  0  0  0  0  0
    1.4116   -2.1453   -1.1609 H   0  0  0  0  0  0  0  0  0  0  0  0
    2.6201   -1.1379   -1.9517 H   0  0  0  0  0  0  0  0  0  0  0  0
   -2.7568   -0.7439   -0.5089 H   0  0  0  0  0  0  0  0  0  0  0  0
   -6.0493   -2.1405   -1.1122 H   0  0  0  0  0  0  0  0  0  0  0  0
   -4.3414   -1.8436   -1.3509 H   0  0  0  0  0  0  0  0  0  0  0  0
   -4.7243   -3.5747    0.4278 H   0  0  0  0  0  0  0  0  0  0  0  0
  1  2  1  0
  2  3  1  0
  3  4  2  0
  4  5  1  0
  5  6  1  0
  6  7  1  0
  7  8  2  0
  7  9  1  0
  9 10  1  0
 10 11  1  0
 11 12  1  0
 12 13  1  0
 13 14  2  0
 14 15  1  0
 15 16  2  0
 16 17  1  0
 17 18  2  0
 12 19  1  0
 19 20  1  0
  5 21  2  0
 21 22  1  0
 22 23  1  0
 23 24  1  0
 24 25  1  0
 25 26  1  0
 25 27  1  0
 22  2  2  0
 20  9  1  0
 18 13  1  0
  1 28  1  0
  1 29  1  0
  1 30  1  0
  3 31  1  0
  4 32  1  0
  6 33  1  0
 10 34  1  0
 10 35  1  0
 11 36  1  0
 11 37  1  0
 14 38  1  0
 16 39  1  0
 17 40  1  0
 19 41  1  0
 19 42  1  0
 20 43  1  0
 20 44  1  0
 21 45  1  0
 24 46  1  0
 24 47  1  0
 25 48  1  0
M  END
$$$$
OCNT-2309520
     RDKit          3D

 47 49  0  0  0  0  0  0  0  0999 V2000
   -0.7071   -0.6730   -1.2921 O   0  0  0  0  0  0  0  0  0  0  0  0
   -0.7793    0.0450   -0.3003 C   0  0  0  0  0  0  0  0  0  0  0  0
    0.4305    0.5518    0.4521 C   0  0  0  0  0  0  0  0  0  0  0  0
    1.7297    0.0540   -0.1721 C   0  0  0  0  0  0  0  0  0  0  0  0
    2.9423    0.5728    0.5786 C   0  0  0  0  0  0  0  0  0  0  0  0
    2.8110    1.3330    1.5398 O   0  0  0  0  0  0  0  0  0  0  0  0
    4.1925    0.1330    0.1414 N   0  0  0  0  0  0  0  0  0  0  0  0
    4.4111   -0.4776   -1.1734 C   0  0  0  0  0  0  0  0  0  0  0  0
    5.6032   -1.4300   -1.1711 C   0  0  0  0  0  0  0  0  0  0  0  0
    6.8547   -0.7702   -0.6037 C   0  0  0  0  0  0  0  0  0  0  0  0
    7.2979    0.2421   -1.5041 O   0  0  0  0  0  0  0  0  0  0  0  0
    6.5736   -0.1697    0.7696 C   0  0  0  0  0  0  0  0  0  0  0  0
    5.3674    0.7638    0.7403 C   0  0  0  0  0  0  0  0  0  0  0  0
   -1.9676    0.4854    0.2513 N   0  0  0  0  0  0  0  0  0  0  0  0
   -3.2404    0.0751   -0.2547 C   0  0  2  0  0  0  0  0  0  0  0  0
   -3.8692    0.7790   -1.4172 C   0  0  0  0  0  0  0  0  0  0  0  0
   -4.4675    0.9449   -0.0403 C   0  0  1  0  0  0  0  0  0  0  0  0
   -5.8060    0.3146    0.2962 C   0  0  0  0  0  0  0  0  0  0  0  0
   -5.9092   -0.6623    1.3019 C   0  0  0  0  0  0  0  0  0  0  0  0
   -4.8077   -1.0398    1.9706 F   0  0  0  0  0  0  0  0  0  0  0  0
   -7.1191   -1.2633    1.6511 C   0  0  0  0  0  0  0  0  0  0  0  0
   -8.2883   -0.8885    1.0013 C   0  0  0  0  0  0  0  0  0  0  0  0
   -8.2359    0.0926    0.0145 C   0  0  0  0  0  0  0  0  0  0  0  0
   -7.0131    0.6887   -0.3264 C   0  0  0  0  0  0  0  0  0  0  0  0
   -7.0484    1.9333   -1.5296 Cl  0  0  0  0  0  0  0  0  0  0  0  0
    0.3583    0.2137    1.4928 H   0  0  0  0  0  0  0  0  0  0  0  0
    0.4037    1.6483    0.4488 H   0  0  0  0  0  0  0  0  0  0  0  0
    1.7465   -1.0419   -0.1544 H   0  0  0  0  0  0  0  0  0  0  0  0
    1.7868    0.3950   -1.2121 H   0  0  0  0  0  0  0  0  0  0  0  0
    4.5625    0.3384   -1.8903 H   0  0  0  0  0  0  0  0  0  0  0  0
    3.5278   -1.0317   -1.5002 H   0  0  0  0  0  0  0  0  0  0  0  0
    5.7860   -1.7707   -2.1968 H   0  0  0  0  0  0  0  0  0  0  0  0
    5.3567   -2.3115   -0.5662 H   0  0  0  0  0  0  0  0  0  0  0  0
    7.6558   -1.5142   -0.5296 H   0  0  0  0  0  0  0  0  0  0  0  0
    8.1483    0.5793   -1.1720 H   0  0  0  0  0  0  0  0  0  0  0  0
    7.4461    0.3892    1.1267 H   0  0  0  0  0  0  0  0  0  0  0  0
    6.3830   -0.9809    1.4833 H   0  0  0  0  0  0  0  0  0  0  0  0
    5.5877    1.6653    0.1551 H   0  0  0  0  0  0  0  0  0  0  0  0
    5.1479    1.0907    1.7627 H   0  0  0  0  0  0  0  0  0  0  0  0
   -1.9398    0.9719    1.1399 H   0  0  0  0  0  0  0  0  0  0  0  0
   -3.3676   -1.0056   -0.2270 H   0  0  0  0  0  0  0  0  0  0  0  0
   -4.3788    0.1636   -2.1501 H   0  0  0  0  0  0  0  0  0  0  0  0
   -3.3462    1.6238   -1.8504 H   0  0  0  0  0  0  0  0  0  0  0  0
   -4.2967    1.9121    0.4287 H   0  0  0  0  0  0  0  0  0  0  0  0
   -7.1344   -2.0185    2.4317 H   0  0  0  0  0  0  0  0  0  0  0  0
   -9.2363   -1.3495    1.2666 H   0  0  0  0  0  0  0  0  0  0  0  0
   -9.1524    0.3983   -0.4856 H   0  0  0  0  0  0  0  0  0  0  0  0
  1  2  2  0
  2  3  1  0
  3  4  1  0
  4  5  1  0
  5  6  2  0
  5  7  1  0
  7  8  1  0
  8  9  1  0
  9 10  1  0
 10 11  1  0
 10 12  1  0
 12 13  1  0
  2 14  1  0
 14 15  1  0
 15 16  1  0
 16 17  1  0
 17 18  1  0
 18 19  2  0
 19 20  1  0
 19 21  1  0
 21 22  2  0
 22 23  1  0
 23 24  2  0
 24 25  1  0
 13  7  1  0
 17 15  1  0
 24 18  1  0
  3 26  1  0
  3 27  1  0
  4 28  1  0
  4 29  1  0
  8 30  1  0
  8 31  1  0
  9 32  1  0
  9 33  1  0
 10 34  1  0
 11 35  1  0
 12 36  1  0
 12 37  1  0
 13 38  1  0
 13 39  1  0
 14 40  1  0
 15 41  1  6
 16 42  1  0
 16 43  1  0
 17 44  1  1
 21 45  1  0
 22 46  1  0
 23 47  1  0
M  END
$$$$
OCNT-2309527
     RDKit          3D

 39 40  0  0  0  0  0  0  0  0999 V2000
    4.7832    0.9110   -1.8672 C   0  0  0  0  0  0  0  0  0  0  0  0
    3.5299    0.7620   -1.0569 C   0  0  0  0  0  0  0  0  0  0  0  0
    3.5951    0.3811    0.2874 C   0  0  0  0  0  0  0  0  0  0  0  0
    2.4262    0.2075    1.0330 C   0  0  0  0  0  0  0  0  0  0  0  0
    1.1689    0.3991    0.4442 C   0  0  0  0  0  0  0  0  0  0  0  0
   -0.0934    0.2188    1.2570 C   0  0  0  0  0  0  0  0  0  0  0  0
   -0.9430   -0.8703    0.7602 N   0  0  0  0  0  0  0  0  0  0  0  0
   -2.1284   -0.6512    0.0316 C   0  0  0  0  0  0  0  0  0  0  0  0
   -2.7414   -1.5530   -0.5424 O   0  0  0  0  0  0  0  0  0  0  0  0
   -2.6993    0.7349   -0.0500 C   0  0  0  0  0  0  0  0  0  0  0  0
   -3.0106    1.3482    1.1185 N   0  0  0  0  0  0  0  0  0  0  0  0
   -3.5628    2.5753    1.0000 C   0  0  0  0  0  0  0  0  0  0  0  0
   -3.7960    3.1880   -0.2089 C   0  0  0  0  0  0  0  0  0  0  0  0
   -4.3422    4.4054   -0.2876 F   0  0  0  0  0  0  0  0  0  0  0  0
   -3.4336    2.4816   -1.3312 C   0  0  0  0  0  0  0  0  0  0  0  0
   -2.8786    1.2519   -1.2876 N   0  0  0  0  0  0  0  0  0  0  0  0
   -0.4340   -2.2444    0.9396 C   0  0  0  0  0  0  0  0  0  0  0  0
   -1.4069   -3.1175    1.7364 C   0  0  0  0  0  0  0  0  0  0  0  0
   -0.0302   -2.9157   -0.3748 C   0  0  0  0  0  0  0  0  0  0  0  0
    1.1073    0.7711   -0.9060 C   0  0  0  0  0  0  0  0  0  0  0  0
    2.2766    0.9432   -1.6506 C   0  0  0  0  0  0  0  0  0  0  0  0
    5.6163    1.2454   -1.2401 H   0  0  0  0  0  0  0  0  0  0  0  0
    4.6514    1.6584   -2.6567 H   0  0  0  0  0  0  0  0  0  0  0  0
    5.0478   -0.0463   -2.3265 H   0  0  0  0  0  0  0  0  0  0  0  0
    4.5589    0.2157    0.7639 H   0  0  0  0  0  0  0  0  0  0  0  0
    2.5073   -0.0854    2.0774 H   0  0  0  0  0  0  0  0  0  0  0  0
    0.1426   -0.0055    2.3046 H   0  0  0  0  0  0  0  0  0  0  0  0
   -0.6081    1.1805    1.2650 H   0  0  0  0  0  0  0  0  0  0  0  0
   -3.8228    3.0692    1.9306 H   0  0  0  0  0  0  0  0  0  0  0  0
   -3.5864    2.8960   -2.3224 H   0  0  0  0  0  0  0  0  0  0  0  0
    0.4747   -2.1727    1.5511 H   0  0  0  0  0  0  0  0  0  0  0  0
   -0.9459   -4.0805    1.9812 H   0  0  0  0  0  0  0  0  0  0  0  0
   -2.3283   -3.3246    1.1842 H   0  0  0  0  0  0  0  0  0  0  0  0
   -1.6844   -2.6277    2.6761 H   0  0  0  0  0  0  0  0  0  0  0  0
    0.4628   -3.8739   -0.1774 H   0  0  0  0  0  0  0  0  0  0  0  0
    0.6693   -2.2909   -0.9383 H   0  0  0  0  0  0  0  0  0  0  0  0
   -0.8892   -3.1176   -1.0209 H   0  0  0  0  0  0  0  0  0  0  0  0
    0.1470    0.9163   -1.3959 H   0  0  0  0  0  0  0  0  0  0  0  0
    2.2004    1.2166   -2.7008 H   0  0  0  0  0  0  0  0  0  0  0  0
  1  2  1  0
  2  3  1  0
  3  4  2  0
  4  5  1  0
  5  6  1  0
  6  7  1  0
  7  8  1  0
  8  9  2  0
  8 10  1  0
 10 11  2  0
 11 12  1  0
 12 13  2  0
 13 14  1  0
 13 15  1  0
 15 16  2  0
  7 17  1  0
 17 18  1  0
 17 19  1  0
  5 20  2  0
 20 21  1  0
 21  2  2  0
 16 10  1  0
  1 22  1  0
  1 23  1  0
  1 24  1  0
  3 25  1  0
  4 26  1  0
  6 27  1  0
  6 28  1  0
 12 29  1  0
 15 30  1  0
 17 31  1  0
 18 32  1  0
 18 33  1  0
 18 34  1  0
 19 35  1  0
 19 36  1  0
 19 37  1  0
 20 38  1  0
 21 39  1  0
M  END
$$$$
OCNT-2309539
     RDKit          3D

 48 51  0  0  0  0  0  0  0  0999 V2000
    7.0851   -0.4798    1.4267 C   0  0  0  0  0  0  0  0  0  0  0  0
    6.3065    0.0808    0.3775 O   0  0  0  0  0  0  0  0  0  0  0  0
    4.9507    0.1036    0.5577 C   0  0  0  0  0  0  0  0  0  0  0  0
    4.2637   -0.3627    1.6773 C   0  0  0  0  0  0  0  0  0  0  0  0
    2.8677   -0.2831    1.7302 C   0  0  0  0  0  0  0  0  0  0  0  0
    2.1375    0.2594    0.6628 C   0  0  0  0  0  0  0  0  0  0  0  0
    0.6260    0.3656    0.7665 C   0  0  0  0  0  0  0  0  0  0  0  0
    0.0115    0.5907   -0.5556 N   0  0  0  0  0  0  0  0  0  0  0  0
   -1.3815    0.7905   -0.3870 C   0  0  0  0  0  0  0  0  0  0  0  0
   -1.8158    2.0326   -0.1062 N   0  0  0  0  0  0  0  0  0  0  0  0
   -3.1277    2.1940    0.0993 C   0  0  0  0  0  0  0  0  0  0  0  0
   -3.6242    3.5785    0.3707 C   0  0  0  0  0  0  0  0  0  0  0  0
   -4.0318    1.2070    0.0478 N   0  0  0  0  0  0  0  0  0  0  0  0
   -3.5884   -0.0398   -0.2361 C   0  0  0  0  0  0  0  0  0  0  0  0
   -2.2474   -0.3058   -0.4965 C   0  0  0  0  0  0  0  0  0  0  0  0
   -1.6955   -1.6690   -0.8463 C   0  0  0  0  0  0  0  0  0  0  0  0
   -2.6530   -2.6370   -1.5481 C   0  0  0  0  0  0  0  0  0  0  0  0
   -3.6051   -3.3197   -0.6720 N   0  0  0  0  0  0  0  0  0  0  0  0
   -4.2752   -2.4439    0.2911 C   0  0  0  0  0  0  0  0  0  0  0  0
   -4.6824   -1.0780   -0.2614 C   0  0  0  0  0  0  0  0  0  0  0  0
    0.6449    1.7183   -1.2598 C   0  0  0  0  0  0  0  0  0  0  0  0
    2.0756    1.3175   -1.6350 C   0  0  0  0  0  0  0  0  0  0  0  0
    2.8318    0.7502   -0.4576 C   0  0  0  0  0  0  0  0  0  0  0  0
    4.2303    0.6550   -0.5048 C   0  0  0  0  0  0  0  0  0  0  0  0
    8.1364   -0.4276    1.1274 H   0  0  0  0  0  0  0  0  0  0  0  0
    6.8358   -1.5344    1.5837 H   0  0  0  0  0  0  0  0  0  0  0  0
    6.9736    0.0956    2.3517 H   0  0  0  0  0  0  0  0  0  0  0  0
    4.7817   -0.7941    2.5270 H   0  0  0  0  0  0  0  0  0  0  0  0
    2.3515   -0.6498    2.6150 H   0  0  0  0  0  0  0  0  0  0  0  0
    0.2428   -0.5680    1.1968 H   0  0  0  0  0  0  0  0  0  0  0  0
    0.3937    1.1879    1.4576 H   0  0  0  0  0  0  0  0  0  0  0  0
   -4.5154    3.5511    1.0052 H   0  0  0  0  0  0  0  0  0  0  0  0
   -2.8582    4.1695    0.8822 H   0  0  0  0  0  0  0  0  0  0  0  0
   -3.8776    4.0704   -0.5728 H   0  0  0  0  0  0  0  0  0  0  0  0
   -0.8520   -1.5399   -1.5367 H   0  0  0  0  0  0  0  0  0  0  0  0
   -1.2908   -2.1340    0.0615 H   0  0  0  0  0  0  0  0  0  0  0  0
   -3.1877   -2.1311   -2.3613 H   0  0  0  0  0  0  0  0  0  0  0  0
   -2.0567   -3.4194   -2.0339 H   0  0  0  0  0  0  0  0  0  0  0  0
   -3.1355   -4.0703   -0.1651 H   0  0  0  0  0  0  0  0  0  0  0  0
   -5.1810   -2.9710    0.6128 H   0  0  0  0  0  0  0  0  0  0  0  0
   -3.6532   -2.3274    1.1877 H   0  0  0  0  0  0  0  0  0  0  0  0
   -5.0820   -1.1613   -1.2794 H   0  0  0  0  0  0  0  0  0  0  0  0
   -5.5116   -0.7095    0.3579 H   0  0  0  0  0  0  0  0  0  0  0  0
    0.0991    1.9606   -2.1808 H   0  0  0  0  0  0  0  0  0  0  0  0
    0.6664    2.6198   -0.6314 H   0  0  0  0  0  0  0  0  0  0  0  0
    2.5992    2.1937   -2.0343 H   0  0  0  0  0  0  0  0  0  0  0  0
    2.0478    0.5517   -2.4204 H   0  0  0  0  0  0  0  0  0  0  0  0
    4.7702    1.0124   -1.3791 H   0  0  0  0  0  0  0  0  0  0  0  0
  1  2  1  0
  2  3  1  0
  3  4  1  0
  4  5  2  0
  5  6  1  0
  6  7  1  0
  7  8  1  0
  8  9  1  0
  9 10  1  0
 10 11  2  0
 11 12  1  0
 11 13  1  0
 13 14  2  0
 14 15  1  0
 15 16  1  0
 16 17  1  0
 17 18  1  0
 18 19  1  0
 19 20  1  0
  8 21  1  0
 21 22  1  0
 22 23  1  0
 23 24  1  0
 24  3  2  0
 23  6  2  0
 15  9  2  0
 20 14  1  0
  1 25  1  0
  1 26  1  0
  1 27  1  0
  4 28  1  0
  5 29  1  0
  7 30  1  0
  7 31  1  0
 12 32  1  0
 12 33  1  0
 12 34  1  0
 16 35  1  0
 16 36  1  0
 17 37  1  0
 17 38  1  0
 18 39  1  0
 19 40  1  0
 19 41  1  0
 20 42  1  0
 20 43  1  0
 21 44  1  0
 21 45  1  0
 22 46  1  0
 22 47  1  0
 24 48  1  0
M  END
$$$$
OCNT-2309546
     RDKit          3D

 55 59  0  0  0  0  0  0  0  0999 V2000
   -4.0101   -0.6245    1.3309 C   0  0  0  0  0  0  0  0  0  0  0  0
   -4.4314   -1.1756    0.0011 C   0  0  0  0  0  0  0  0  0  0  0  0
   -5.1519   -2.5886    0.0208 C   0  0  0  0  0  0  0  0  0  0  0  0
   -5.5361   -2.1098   -1.4148 C   0  0  0  0  0  0  0  0  0  0  0  0
   -4.2050   -1.9895   -2.1671 C   0  0  0  0  0  0  0  0  0  0  0  0
   -3.4481   -1.2960   -1.1163 N   0  0  0  0  0  0  0  0  0  0  0  0
   -2.3306   -0.5782   -1.4744 C   0  0  0  0  0  0  0  0  0  0  0  0
   -1.8465   -0.6383   -2.6034 O   0  0  0  0  0  0  0  0  0  0  0  0
   -1.8111    0.2310   -0.5078 N   0  0  0  0  0  0  0  0  0  0  0  0
   -0.6374    1.0327   -0.7929 C   0  0  0  0  0  0  0  0  0  0  0  0
   -0.4692    2.1674    0.1997 C   0  0  0  0  0  0  0  0  0  0  0  0
   -1.6071    2.9114    0.5779 C   0  0  0  0  0  0  0  0  0  0  0  0
   -1.5128    3.9742    1.4791 C   0  0  0  0  0  0  0  0  0  0  0  0
   -0.2782    4.3214    2.0092 C   0  0  0  0  0  0  0  0  0  0  0  0
    0.8632    3.6167    1.6257 C   0  0  0  0  0  0  0  0  0  0  0  0
    0.7965    2.5435    0.7121 C   0  0  0  0  0  0  0  0  0  0  0  0
    2.0482    1.8633    0.3361 C   0  0  0  0  0  0  0  0  0  0  0  0
    2.5398    1.9180   -0.9771 C   0  0  0  0  0  0  0  0  0  0  0  0
    3.7194    1.2558   -1.3342 C   0  0  0  0  0  0  0  0  0  0  0  0
    4.4418    0.5265   -0.3826 C   0  0  0  0  0  0  0  0  0  0  0  0
    5.7219   -0.1759   -0.7744 C   0  0  0  0  0  0  0  0  0  0  0  0
    5.7602   -1.5598   -0.3177 N   0  0  0  0  0  0  0  0  0  0  0  0
    5.0372   -2.6096   -0.8180 C   0  0  0  0  0  0  0  0  0  0  0  0
    5.3936   -3.7065   -0.0705 C   0  0  0  0  0  0  0  0  0  0  0  0
    6.3505   -3.2231    0.8410 C   0  0  0  0  0  0  0  0  0  0  0  0
    6.5852   -1.9175    0.6921 N   0  0  0  0  0  0  0  0  0  0  0  0
    3.9755    0.5035    0.9400 C   0  0  0  0  0  0  0  0  0  0  0  0
    2.7900    1.1549    1.2907 C   0  0  0  0  0  0  0  0  0  0  0  0
   -5.7686   -0.7239   -0.7065 C   0  0  0  0  0  0  0  0  0  0  0  0
   -4.8204   -0.7210    2.0642 H   0  0  0  0  0  0  0  0  0  0  0  0
   -3.1500   -1.1708    1.7390 H   0  0  0  0  0  0  0  0  0  0  0  0
   -3.7692    0.4441    1.2784 H   0  0  0  0  0  0  0  0  0  0  0  0
   -4.5026   -3.4672    0.0825 H   0  0  0  0  0  0  0  0  0  0  0  0
   -5.9797   -2.7086    0.7284 H   0  0  0  0  0  0  0  0  0  0  0  0
   -6.3825   -2.5839   -1.9154 H   0  0  0  0  0  0  0  0  0  0  0  0
   -4.2841   -1.3765   -3.0710 H   0  0  0  0  0  0  0  0  0  0  0  0
   -3.7413   -2.9571   -2.3842 H   0  0  0  0  0  0  0  0  0  0  0  0
   -1.8307   -0.1665    0.4151 H   0  0  0  0  0  0  0  0  0  0  0  0
    0.2065    0.3378   -0.7748 H   0  0  0  0  0  0  0  0  0  0  0  0
   -0.7127    1.4529   -1.8028 H   0  0  0  0  0  0  0  0  0  0  0  0
   -2.5841    2.6599    0.1630 H   0  0  0  0  0  0  0  0  0  0  0  0
   -2.4045    4.5278    1.7614 H   0  0  0  0  0  0  0  0  0  0  0  0
   -0.1975    5.1463    2.7140 H   0  0  0  0  0  0  0  0  0  0  0  0
    1.8267    3.9164    2.0424 H   0  0  0  0  0  0  0  0  0  0  0  0
    2.0005    2.4796   -1.7368 H   0  0  0  0  0  0  0  0  0  0  0  0
    4.0640    1.3175   -2.3649 H   0  0  0  0  0  0  0  0  0  0  0  0
    6.5840    0.3511   -0.3552 H   0  0  0  0  0  0  0  0  0  0  0  0
    5.8405   -0.2115   -1.8611 H   0  0  0  0  0  0  0  0  0  0  0  0
    4.3434   -2.4812   -1.6372 H   0  0  0  0  0  0  0  0  0  0  0  0
    5.0178   -4.7141   -0.1706 H   0  0  0  0  0  0  0  0  0  0  0  0
    6.8895   -3.7661    1.6042 H   0  0  0  0  0  0  0  0  0  0  0  0
    4.5279   -0.0318    1.7105 H   0  0  0  0  0  0  0  0  0  0  0  0
    2.4438    1.1014    2.3215 H   0  0  0  0  0  0  0  0  0  0  0  0
   -6.6570   -0.6446   -0.0706 H   0  0  0  0  0  0  0  0  0  0  0  0
   -5.7072    0.1625   -1.3462 H   0  0  0  0  0  0  0  0  0  0  0  0
  1  2  1  0
  2  3  1  0
  3  4  1  0
  4  5  1  0
  5  6  1  0
  6  7  1  0
  7  8  2  0
  7  9  1  0
  9 10  1  0
 10 11  1  0
 11 12  2  0
 12 13  1  0
 13 14  2  0
 14 15  1  0
 15 16  2  0
 16 17  1  0
 17 18  1  0
 18 19  2  0
 19 20  1  0
 20 21  1  0
 21 22  1  0
 22 23  1  0
 23 24  2  0
 24 25  1  0
 25 26  2  0
 20 27  2  0
 27 28  1  0
  4 29  1  0
  6  2  1  0
 16 11  1  0
 28 17  2  0
 29  2  1  0
 26 22  1  0
  1 30  1  0
  1 31  1  0
  1 32  1  0
  3 33  1  0
  3 34  1  0
  4 35  1  0
  5 36  1  0
  5 37  1  0
  9 38  1  0
 10 39  1  0
 10 40  1  0
 12 41  1  0
 13 42  1  0
 14 43  1  0
 15 44  1  0
 18 45  1  0
 19 46  1  0
 21 47  1  0
 21 48  1  0
 23 49  1  0
 24 50  1  0
 25 51  1  0
 27 52  1  0
 28 53  1  0
 29 54  1  0
 29 55  1  0
M  END
$$$$
OCNT-2309549
     RDKit          3D

 47 49  0  0  0  0  0  0  0  0999 V2000
    7.0512    2.5174    1.4943 C   0  0  0  0  0  0  0  0  0  0  0  0
    5.7299    1.8788    1.1800 C   0  0  0  0  0  0  0  0  0  0  0  0
    5.2079    1.9331   -0.1188 C   0  0  0  0  0  0  0  0  0  0  0  0
    3.9620    1.3688   -0.4070 C   0  0  0  0  0  0  0  0  0  0  0  0
    3.2257    0.7449    0.6075 C   0  0  0  0  0  0  0  0  0  0  0  0
    1.8930    0.1321    0.3441 C   0  0  0  0  0  0  0  0  0  0  0  0
    1.0334    0.2205    1.2127 O   0  0  0  0  0  0  0  0  0  0  0  0
    1.7866   -0.5148   -0.8745 N   0  0  0  0  0  0  0  0  0  0  0  0
    0.6468   -1.1513   -1.4131 C   0  0  0  0  0  0  0  0  0  0  0  0
    0.8013   -1.7897   -2.6481 C   0  0  0  0  0  0  0  0  0  0  0  0
   -0.2718   -2.4409   -3.2728 C   0  0  0  0  0  0  0  0  0  0  0  0
   -1.5309   -2.4528   -2.6467 C   0  0  0  0  0  0  0  0  0  0  0  0
   -2.7967   -3.0003   -2.9897 C   0  0  0  0  0  0  0  0  0  0  0  0
   -3.6758   -2.6921   -1.9769 C   0  0  0  0  0  0  0  0  0  0  0  0
   -2.9909   -1.9755   -1.0294 N   0  0  0  0  0  0  0  0  0  0  0  0
   -3.5741   -1.4745    0.2089 C   0  0  0  0  0  0  0  0  0  0  0  0
   -3.9591    0.0075    0.0970 C   0  0  0  0  0  0  0  0  0  0  0  0
   -4.6030    0.5430    1.3158 N   0  0  0  0  0  0  0  0  0  0  0  0
   -5.1786    1.8619    1.0332 C   0  0  0  0  0  0  0  0  0  0  0  0
   -3.6461    0.6573    2.4220 C   0  0  0  0  0  0  0  0  0  0  0  0
   -1.6743   -1.8146   -1.4139 C   0  0  0  0  0  0  0  0  0  0  0  0
   -0.6010   -1.1579   -0.7817 C   0  0  0  0  0  0  0  0  0  0  0  0
    3.7278    0.7186    1.9128 C   0  0  0  0  0  0  0  0  0  0  0  0
    4.9737    1.2823    2.1965 C   0  0  0  0  0  0  0  0  0  0  0  0
    7.5502    1.9966    2.3184 H   0  0  0  0  0  0  0  0  0  0  0  0
    6.9033    3.5647    1.7749 H   0  0  0  0  0  0  0  0  0  0  0  0
    7.7215    2.4733    0.6294 H   0  0  0  0  0  0  0  0  0  0  0  0
    5.7660    2.4263   -0.9123 H   0  0  0  0  0  0  0  0  0  0  0  0
    3.5673    1.4543   -1.4157 H   0  0  0  0  0  0  0  0  0  0  0  0
    2.6318   -0.5991   -1.4232 H   0  0  0  0  0  0  0  0  0  0  0  0
    1.7636   -1.7948   -3.1536 H   0  0  0  0  0  0  0  0  0  0  0  0
   -0.1312   -2.9309   -4.2316 H   0  0  0  0  0  0  0  0  0  0  0  0
   -3.0373   -3.5614   -3.8828 H   0  0  0  0  0  0  0  0  0  0  0  0
   -4.7258   -2.9248   -1.8556 H   0  0  0  0  0  0  0  0  0  0  0  0
   -2.8418   -1.6572    1.0019 H   0  0  0  0  0  0  0  0  0  0  0  0
   -4.4562   -2.0872    0.4301 H   0  0  0  0  0  0  0  0  0  0  0  0
   -4.6620    0.0978   -0.7426 H   0  0  0  0  0  0  0  0  0  0  0  0
   -3.0836    0.6133   -0.1722 H   0  0  0  0  0  0  0  0  0  0  0  0
   -5.9356    1.7907    0.2441 H   0  0  0  0  0  0  0  0  0  0  0  0
   -4.4186    2.5869    0.7194 H   0  0  0  0  0  0  0  0  0  0  0  0
   -5.6893    2.2572    1.9185 H   0  0  0  0  0  0  0  0  0  0  0  0
   -4.1318    1.0873    3.3056 H   0  0  0  0  0  0  0  0  0  0  0  0
   -2.7869    1.2867    2.1631 H   0  0  0  0  0  0  0  0  0  0  0  0
   -3.2772   -0.3258    2.7299 H   0  0  0  0  0  0  0  0  0  0  0  0
   -0.7596   -0.6711    0.1724 H   0  0  0  0  0  0  0  0  0  0  0  0
    3.1485    0.2594    2.7115 H   0  0  0  0  0  0  0  0  0  0  0  0
    5.3477    1.2558    3.2180 H   0  0  0  0  0  0  0  0  0  0  0  0
  1  2  1  0
  2  3  1  0
  3  4  2  0
  4  5  1  0
  5  6  1  0
  6  7  2  0
  6  8  1  0
  8  9  1  0
  9 10  2  0
 10 11  1  0
 11 12  2  0
 12 13  1  0
 13 14  2  0
 14 15  1  0
 15 16  1  0
 16 17  1  0
 17 18  1  0
 18 19  1  0
 18 20  1  0
 15 21  1  0
 21 22  2  0
  5 23  2  0
 23 24  1  0
 24  2  2  0
 22  9  1  0
 21 12  1  0
  1 25  1  0
  1 26  1  0
  1 27  1  0
  3 28  1  0
  4 29  1  0
  8 30  1  0
 10 31  1  0
 11 32  1  0
 13 33  1  0
 14 34  1  0
 16 35  1  0
 16 36  1  0
 17 37  1  0
 17 38  1  0
 19 39  1  0
 19 40  1  0
 19 41  1  0
 20 42  1  0
 20 43  1  0
 20 44  1  0
 22 45  1  0
 23 46  1  0
 24 47  1  0
M  END
$$$$
OCNT-2309554
     RDKit          3D

 45 47  0  0  0  0  0  0  0  0999 V2000
   -2.6921    0.1868   -2.5160 C   0  0  0  0  0  0  0  0  0  0  0  0
   -1.8198   -0.3089   -1.5082 O   0  0  0  0  0  0  0  0  0  0  0  0
   -2.3475   -0.5524   -0.2669 C   0  0  0  0  0  0  0  0  0  0  0  0
   -3.6464   -0.1861    0.1247 C   0  0  0  0  0  0  0  0  0  0  0  0
   -4.1074   -0.4608    1.4165 C   0  0  0  0  0  0  0  0  0  0  0  0
   -5.3478   -0.1496    1.9047 O   0  0  0  0  0  0  0  0  0  0  0  0
   -6.2655    0.4763    1.0187 C   0  0  0  0  0  0  0  0  0  0  0  0
   -3.2519   -1.1033    2.3121 C   0  0  0  0  0  0  0  0  0  0  0  0
   -3.6625   -1.3800    3.5590 F   0  0  0  0  0  0  0  0  0  0  0  0
   -1.9628   -1.4696    1.9423 C   0  0  0  0  0  0  0  0  0  0  0  0
   -1.4919   -1.1982    0.6475 C   0  0  0  0  0  0  0  0  0  0  0  0
   -0.0783   -1.6055    0.2871 C   0  0  0  0  0  0  0  0  0  0  0  0
    0.9492   -0.7504    0.8984 N   0  0  0  0  0  0  0  0  0  0  0  0
    1.0644    0.5715    0.2564 C   0  0  0  0  0  0  0  0  0  0  0  0
    1.5730    0.5469   -1.2096 C   0  0  1  0  0  0  0  0  0  0  0  0
    2.1261    1.8890   -1.6561 C   0  0  0  0  0  0  0  0  0  0  0  0
    3.5505    1.8489   -1.1463 C   0  0  0  0  0  0  0  0  0  0  0  0
    3.9116    0.3709   -1.2253 C   0  0  1  0  0  0  0  0  0  0  0  0
    4.6170   -0.1247   -0.0144 C   0  0  0  0  0  0  0  0  0  0  0  0
    5.8463    0.1329    0.3861 N   0  0  0  0  0  0  0  0  0  0  0  0
    5.9450   -0.5718    1.5527 C   0  0  0  0  0  0  0  0  0  0  0  0
    4.8496   -1.2439    1.9119 N   0  0  0  0  0  0  0  0  0  0  0  0
    4.0185   -0.9547    0.8949 N   0  0  0  0  0  0  0  0  0  0  0  0
    2.6790   -0.3649   -1.3502 O   0  0  0  0  0  0  0  0  0  0  0  0
   -3.0292    1.2007   -2.2775 H   0  0  0  0  0  0  0  0  0  0  0  0
   -2.1262    0.2368   -3.4513 H   0  0  0  0  0  0  0  0  0  0  0  0
   -3.5400   -0.4875   -2.6753 H   0  0  0  0  0  0  0  0  0  0  0  0
   -4.2969    0.3206   -0.5761 H   0  0  0  0  0  0  0  0  0  0  0  0
   -7.2016    0.6344    1.5628 H   0  0  0  0  0  0  0  0  0  0  0  0
   -5.8972    1.4564    0.6981 H   0  0  0  0  0  0  0  0  0  0  0  0
   -6.4844   -0.1650    0.1586 H   0  0  0  0  0  0  0  0  0  0  0  0
   -1.3342   -1.9716    2.6729 H   0  0  0  0  0  0  0  0  0  0  0  0
    0.0619   -1.6990   -0.7947 H   0  0  0  0  0  0  0  0  0  0  0  0
    0.0770   -2.6247    0.6650 H   0  0  0  0  0  0  0  0  0  0  0  0
    0.7080   -0.6146    1.8814 H   0  0  0  0  0  0  0  0  0  0  0  0
    1.7757    1.1334    0.8725 H   0  0  0  0  0  0  0  0  0  0  0  0
    0.1224    1.1290    0.3149 H   0  0  0  0  0  0  0  0  0  0  0  0
    0.7735    0.2158   -1.8782 H   0  0  0  0  0  0  0  0  0  0  0  0
    1.5560    2.7468   -1.2891 H   0  0  0  0  0  0  0  0  0  0  0  0
    2.1416    1.9331   -2.7520 H   0  0  0  0  0  0  0  0  0  0  0  0
    4.2259    2.4698   -1.7439 H   0  0  0  0  0  0  0  0  0  0  0  0
    3.5973    2.2287   -0.1184 H   0  0  0  0  0  0  0  0  0  0  0  0
    4.5100    0.1594   -2.1180 H   0  0  0  0  0  0  0  0  0  0  0  0
    6.8412   -0.5915    2.1592 H   0  0  0  0  0  0  0  0  0  0  0  0
    3.0627   -1.3094    0.8764 H   0  0  0  0  0  0  0  0  0  0  0  0
  1  2  1  0
  2  3  1  0
  3  4  1  0
  4  5  2  0
  5  6  1  0
  6  7  1  0
  5  8  1  0
  8  9  1  0
  8 10  2  0
 10 11  1  0
 11 12  1  0
 12 13  1  0
 13 14  1  0
 14 15  1  0
 15 16  1  0
 16 17  1  0
 17 18  1  0
 18 19  1  0
 19 20  2  0
 20 21  1  0
 21 22  2  0
 22 23  1  0
 18 24  1  0
 11  3  2  0
 24 15  1  0
 23 19  1  0
  1 25  1  0
  1 26  1  0
  1 27  1  0
  4 28  1  0
  7 29  1  0
  7 30  1  0
  7 31  1  0
 10 32  1  0
 12 33  1  0
 12 34  1  0
 13 35  1  0
 14 36  1  0
 14 37  1  0
 15 38  1  6
 16 39  1  0
 16 40  1  0
 17 41  1  0
 17 42  1  0
 18 43  1  6
 21 44  1  0
 23 45  1  0
M  END
$$$$
OCNT-2309565
     RDKit          3D

 45 47  0  0  0  0  0  0  0  0999 V2000
   -7.6083    0.5576    2.7132 C   0  0  0  0  0  0  0  0  0  0  0  0
   -6.3233    0.3831    2.0353 C   0  0  0  0  0  0  0  0  0  0  0  0
   -5.2681    0.2396    1.4796 C   0  0  0  0  0  0  0  0  0  0  0  0
   -3.9728    0.0678    0.7998 C   0  0  0  0  0  0  0  0  0  0  0  0
   -3.8753   -1.3190    0.1396 C   0  0  0  0  0  0  0  0  0  0  0  0
   -2.6171   -1.6282   -0.5547 N   0  0  0  0  0  0  0  0  0  0  0  0
   -1.4452   -1.7035    0.3199 C   0  0  0  0  0  0  0  0  0  0  0  0
   -0.4070   -0.6203    0.0329 C   0  0  0  0  0  0  0  0  0  0  0  0
    0.0873   -0.6776   -1.4264 C   0  0  0  0  0  0  0  0  0  0  0  0
    0.6829    0.6700   -1.8741 C   0  0  0  0  0  0  0  0  0  0  0  0
    1.8911    1.0384   -1.0965 C   0  0  0  0  0  0  0  0  0  0  0  0
    3.1175    0.5801   -1.1878 N   0  0  0  0  0  0  0  0  0  0  0  0
    3.7779    1.2934   -0.1997 C   0  0  0  0  0  0  0  0  0  0  0  0
    5.2070    1.1083    0.0752 C   0  0  0  0  0  0  0  0  0  0  0  0
    5.9527    0.1904   -0.6693 C   0  0  0  0  0  0  0  0  0  0  0  0
    7.3102    0.0315   -0.3888 C   0  0  0  0  0  0  0  0  0  0  0  0
    7.8781    0.7901    0.6216 C   0  0  0  0  0  0  0  0  0  0  0  0
    9.1774    0.6612    0.9151 F   0  0  0  0  0  0  0  0  0  0  0  0
    7.0807    1.6793    1.3180 C   0  0  0  0  0  0  0  0  0  0  0  0
    5.7609    1.8562    1.0696 N   0  0  0  0  0  0  0  0  0  0  0  0
    2.9826    2.1513    0.4645 N   0  0  0  0  0  0  0  0  0  0  0  0
    1.7361    1.9838   -0.1295 O   0  0  0  0  0  0  0  0  0  0  0  0
   -1.0391   -1.1251   -2.3799 C   0  0  0  0  0  0  0  0  0  0  0  0
   -2.4257   -0.8691   -1.7897 C   0  0  0  0  0  0  0  0  0  0  0  0
   -7.5303    1.3053    3.5082 H   0  0  0  0  0  0  0  0  0  0  0  0
   -8.3774    0.8892    2.0091 H   0  0  0  0  0  0  0  0  0  0  0  0
   -7.9417   -0.3826    3.1626 H   0  0  0  0  0  0  0  0  0  0  0  0
   -3.8611    0.8579    0.0497 H   0  0  0  0  0  0  0  0  0  0  0  0
   -3.1676    0.2014    1.5305 H   0  0  0  0  0  0  0  0  0  0  0  0
   -4.7054   -1.4408   -0.5698 H   0  0  0  0  0  0  0  0  0  0  0  0
   -4.0459   -2.0929    0.9008 H   0  0  0  0  0  0  0  0  0  0  0  0
   -0.9779   -2.6844    0.1659 H   0  0  0  0  0  0  0  0  0  0  0  0
   -1.7215   -1.6753    1.3808 H   0  0  0  0  0  0  0  0  0  0  0  0
    0.4434   -0.7419    0.7148 H   0  0  0  0  0  0  0  0  0  0  0  0
   -0.8437    0.3626    0.2530 H   0  0  0  0  0  0  0  0  0  0  0  0
    0.8811   -1.4357   -1.4881 H   0  0  0  0  0  0  0  0  0  0  0  0
   -0.0714    1.4627   -1.7990 H   0  0  0  0  0  0  0  0  0  0  0  0
    0.9704    0.6114   -2.9313 H   0  0  0  0  0  0  0  0  0  0  0  0
    5.4879   -0.3949   -1.4576 H   0  0  0  0  0  0  0  0  0  0  0  0
    7.9176   -0.6723   -0.9478 H   0  0  0  0  0  0  0  0  0  0  0  0
    7.4952    2.2881    2.1148 H   0  0  0  0  0  0  0  0  0  0  0  0
   -0.9314   -2.2007   -2.5762 H   0  0  0  0  0  0  0  0  0  0  0  0
   -0.9532   -0.6325   -3.3555 H   0  0  0  0  0  0  0  0  0  0  0  0
   -3.1833   -1.1728   -2.5216 H   0  0  0  0  0  0  0  0  0  0  0  0
   -2.5443    0.2087   -1.6292 H   0  0  0  0  0  0  0  0  0  0  0  0
  1  2  1  0
  2  3  3  0
  3  4  1  0
  4  5  1  0
  5  6  1  0
  6  7  1  0
  7  8  1  0
  8  9  1  0
  9 10  1  0
 10 11  1  0
 11 12  2  0
 12 13  1  0
 13 14  1  0
 14 15  2  0
 15 16  1  0
 16 17  2  0
 17 18  1  0
 17 19  1  0
 19 20  2  0
 13 21  2  0
 21 22  1  0
  9 23  1  0
 23 24  1  0
 24  6  1  0
 22 11  1  0
 20 14  1  0
  1 25  1  0
  1 26  1  0
  1 27  1  0
  4 28  1  0
  4 29  1  0
  5 30  1  0
  5 31  1  0
  7 32  1  0
  7 33  1  0
  8 34  1  0
  8 35  1  0
  9 36  1  0
 10 37  1  0
 10 38  1  0
 15 39  1  0
 16 40  1  0
 19 41  1  0
 23 42  1  0
 23 43  1  0
 24 44  1  0
 24 45  1  0
M  END
$$$$
OCNT-2309567
     RDKit          3D

 46 50  0  0  0  0  0  0  0  0999 V2000
    5.1375    3.0264   -0.4234 C   0  0  0  0  0  0  0  0  0  0  0  0
    3.9048    2.3371   -0.2611 O   0  0  0  0  0  0  0  0  0  0  0  0
    3.9616    0.9699   -0.1982 C   0  0  0  0  0  0  0  0  0  0  0  0
    5.1172    0.1960   -0.2806 C   0  0  0  0  0  0  0  0  0  0  0  0
    5.0587   -1.2014   -0.2028 C   0  0  0  0  0  0  0  0  0  0  0  0
    3.8025   -1.7958   -0.0402 C   0  0  0  0  0  0  0  0  0  0  0  0
    3.4599   -3.1221    0.0661 N   0  0  0  0  0  0  0  0  0  0  0  0
    2.1066   -3.2504    0.2145 C   0  0  0  0  0  0  0  0  0  0  0  0
    1.5408   -1.9885    0.2073 C   0  0  0  0  0  0  0  0  0  0  0  0
    0.0669   -1.6943    0.3434 C   0  0  0  0  0  0  0  0  0  0  0  0
   -0.5165   -1.0765   -0.9321 C   0  0  0  0  0  0  0  0  0  0  0  0
   -2.0078   -0.7879   -0.7694 C   0  0  0  0  0  0  0  0  0  0  0  0
   -2.3066   -0.1017    0.4951 N   0  0  0  0  0  0  0  0  0  0  0  0
   -3.3492    0.8338    0.4153 C   0  0  0  0  0  0  0  0  0  0  0  0
   -3.1615    2.0992    0.8881 N   0  0  0  0  0  0  0  0  0  0  0  0
   -4.1620    2.9999    0.8061 C   0  0  0  0  0  0  0  0  0  0  0  0
   -5.3953    2.8243    0.3052 N   0  0  0  0  0  0  0  0  0  0  0  0
   -5.5572    1.5650   -0.1252 C   0  0  0  0  0  0  0  0  0  0  0  0
   -4.6251    0.5439   -0.1048 C   0  0  0  0  0  0  0  0  0  0  0  0
   -5.3258   -0.5612   -0.6379 C   0  0  0  0  0  0  0  0  0  0  0  0
   -6.5810   -0.2661   -1.0000 N   0  0  0  0  0  0  0  0  0  0  0  0
   -6.6916    1.0374   -0.6692 N   0  0  0  0  0  0  0  0  0  0  0  0
   -1.1614    0.3329    1.2990 C   0  0  0  0  0  0  0  0  0  0  0  0
   -0.2626   -0.8661    1.5982 C   0  0  0  0  0  0  0  0  0  0  0  0
    2.6226   -1.0573    0.0449 C   0  0  0  0  0  0  0  0  0  0  0  0
    2.7154    0.3486   -0.0356 C   0  0  0  0  0  0  0  0  0  0  0  0
    4.9194    4.0983   -0.4538 H   0  0  0  0  0  0  0  0  0  0  0  0
    5.6185    2.7579   -1.3697 H   0  0  0  0  0  0  0  0  0  0  0  0
    5.8052    2.8469    0.4257 H   0  0  0  0  0  0  0  0  0  0  0  0
    6.0953    0.6490   -0.4064 H   0  0  0  0  0  0  0  0  0  0  0  0
    5.9634   -1.7974   -0.2665 H   0  0  0  0  0  0  0  0  0  0  0  0
    4.1183   -3.8881    0.0390 H   0  0  0  0  0  0  0  0  0  0  0  0
    1.6564   -4.2293    0.3141 H   0  0  0  0  0  0  0  0  0  0  0  0
   -0.4359   -2.6650    0.4742 H   0  0  0  0  0  0  0  0  0  0  0  0
    0.0048   -0.1453   -1.1860 H   0  0  0  0  0  0  0  0  0  0  0  0
   -0.3664   -1.7489   -1.7861 H   0  0  0  0  0  0  0  0  0  0  0  0
   -2.3333   -0.2033   -1.6399 H   0  0  0  0  0  0  0  0  0  0  0  0
   -2.5547   -1.7378   -0.7861 H   0  0  0  0  0  0  0  0  0  0  0  0
   -3.9394    3.9897    1.1936 H   0  0  0  0  0  0  0  0  0  0  0  0
   -4.9716   -1.5740   -0.7755 H   0  0  0  0  0  0  0  0  0  0  0  0
   -7.5684    1.5168   -0.8311 H   0  0  0  0  0  0  0  0  0  0  0  0
   -1.4906    0.7452    2.2616 H   0  0  0  0  0  0  0  0  0  0  0  0
   -0.5948    1.1160    0.7792 H   0  0  0  0  0  0  0  0  0  0  0  0
   -0.7778   -1.5212    2.3143 H   0  0  0  0  0  0  0  0  0  0  0  0
    0.6387   -0.5169    2.1157 H   0  0  0  0  0  0  0  0  0  0  0  0
    1.8224    0.9622    0.0289 H   0  0  0  0  0  0  0  0  0  0  0  0
  1  2  1  0
  2  3  1  0
  3  4  2  0
  4  5  1  0
  5  6  2  0
  6  7  1  0
  7  8  1  0
  8  9  2  0
  9 10  1  0
 10 11  1  0
 11 12  1  0
 12 13  1  0
 13 14  1  0
 14 15  1  0
 15 16  2  0
 16 17  1  0
 17 18  2  0
 18 19  1  0
 19 20  1  0
 20 21  2  0
 21 22  1  0
 13 23  1  0
 23 24  1  0
  9 25  1  0
 25 26  2  0
 26  3  1  0
 25  6  1  0
 24 10  1  0
 19 14  2  0
 22 18  1  0
  1 27  1  0
  1 28  1  0
  1 29  1  0
  4 30  1  0
  5 31  1  0
  7 32  1  0
  8 33  1  0
 10 34  1  0
 11 35  1  0
 11 36  1  0
 12 37  1  0
 12 38  1  0
 16 39  1  0
 20 40  1  0
 22 41  1  0
 23 42  1  0
 23 43  1  0
 24 44  1  0
 24 45  1  0
 26 46  1  0
M  END
$$$$
OCNT-2309576
     RDKit          3D

 45 48  0  0  0  0  0  0  0  0999 V2000
   -0.7238   -2.0294   -2.4571 O   0  0  0  0  0  0  0  0  0  0  0  0
   -0.8413   -1.8004   -1.2469 C   0  0  0  0  0  0  0  0  0  0  0  0
   -2.2516   -1.5375   -0.6928 C   0  0  0  0  0  0  0  0  0  0  0  0
   -2.6474   -2.6526    0.2865 C   0  0  0  0  0  0  0  0  0  0  0  0
   -3.9882   -2.3851    0.9405 C   0  0  0  0  0  0  0  0  0  0  0  0
   -3.8528   -0.9581    2.0479 S   0  0  0  0  0  0  0  0  0  0  0  0
   -3.1674    0.2433    0.9203 C   0  0  0  0  0  0  0  0  0  0  0  0
   -3.3328    1.5939    1.2622 C   0  0  0  0  0  0  0  0  0  0  0  0
   -2.8633    2.6077    0.4277 C   0  0  0  0  0  0  0  0  0  0  0  0
   -2.2291    2.2810   -0.7638 C   0  0  0  0  0  0  0  0  0  0  0  0
   -2.0473    0.9417   -1.1074 C   0  0  0  0  0  0  0  0  0  0  0  0
   -2.4841   -0.0978   -0.2589 C   0  0  0  0  0  0  0  0  0  0  0  0
    0.2676   -1.8064   -0.4078 N   0  0  0  0  0  0  0  0  0  0  0  0
    0.3354   -1.2319    0.9368 C   0  0  0  0  0  0  0  0  0  0  0  0
    1.1126    0.0837    0.9142 C   0  0  0  0  0  0  0  0  0  0  0  0
    2.4960   -0.1061    0.2658 C   0  0  0  0  0  0  0  0  0  0  0  0
    3.2682    1.1941    0.1925 C   0  0  0  0  0  0  0  0  0  0  0  0
    2.8253    2.2692   -0.5586 C   0  0  0  0  0  0  0  0  0  0  0  0
    3.6157    3.3970   -0.5428 C   0  0  0  0  0  0  0  0  0  0  0  0
    4.7626    3.4918    0.1511 N   0  0  0  0  0  0  0  0  0  0  0  0
    5.1057    2.3988    0.8463 C   0  0  0  0  0  0  0  0  0  0  0  0
    4.4150    1.2485    0.9043 N   0  0  0  0  0  0  0  0  0  0  0  0
    2.3825   -0.7897   -1.1092 C   0  0  0  0  0  0  0  0  0  0  0  0
    1.5789   -2.0821   -0.9934 C   0  0  0  0  0  0  0  0  0  0  0  0
   -2.9274   -1.6625   -1.5547 H   0  0  0  0  0  0  0  0  0  0  0  0
   -2.7067   -3.5970   -0.2712 H   0  0  0  0  0  0  0  0  0  0  0  0
   -1.8861   -2.8280    1.0547 H   0  0  0  0  0  0  0  0  0  0  0  0
   -4.7685   -2.2032    0.1937 H   0  0  0  0  0  0  0  0  0  0  0  0
   -4.2949   -3.2509    1.5357 H   0  0  0  0  0  0  0  0  0  0  0  0
   -3.8461    1.8687    2.1819 H   0  0  0  0  0  0  0  0  0  0  0  0
   -3.0092    3.6490    0.7029 H   0  0  0  0  0  0  0  0  0  0  0  0
   -1.8813    3.0664   -1.4299 H   0  0  0  0  0  0  0  0  0  0  0  0
   -1.5585    0.7112   -2.0540 H   0  0  0  0  0  0  0  0  0  0  0  0
   -0.6490   -1.0620    1.3647 H   0  0  0  0  0  0  0  0  0  0  0  0
    0.8425   -1.9611    1.5799 H   0  0  0  0  0  0  0  0  0  0  0  0
    0.5358    0.8330    0.3603 H   0  0  0  0  0  0  0  0  0  0  0  0
    1.2223    0.4639    1.9371 H   0  0  0  0  0  0  0  0  0  0  0  0
    3.0653   -0.7860    0.9169 H   0  0  0  0  0  0  0  0  0  0  0  0
    1.9087    2.2406   -1.1325 H   0  0  0  0  0  0  0  0  0  0  0  0
    3.3390    4.2834   -1.1060 H   0  0  0  0  0  0  0  0  0  0  0  0
    6.0273    2.4471    1.4156 H   0  0  0  0  0  0  0  0  0  0  0  0
    1.8895   -0.1246   -1.8296 H   0  0  0  0  0  0  0  0  0  0  0  0
    3.3805   -1.0087   -1.5075 H   0  0  0  0  0  0  0  0  0  0  0  0
    1.4882   -2.5556   -1.9760 H   0  0  0  0  0  0  0  0  0  0  0  0
    2.0923   -2.7970   -0.3392 H   0  0  0  0  0  0  0  0  0  0  0  0
  1  2  2  0
  2  3  1  0
  3  4  1  0
  4  5  1  0
  5  6  1  0
  6  7  1  0
  7  8  2  0
  8  9  1  0
  9 10  2  0
 10 11  1  0
 11 12  2  0
  2 13  1  0
 13 14  1  0
 14 15  1  0
 15 16  1  0
 16 17  1  0
 17 18  1  0
 18 19  2  0
 19 20  1  0
 20 21  2  0
 21 22  1  0
 16 23  1  0
 23 24  1  0
 12  3  1  0
 24 13  1  0
 12  7  1  0
 22 17  2  0
  3 25  1  0
  4 26  1  0
  4 27  1  0
  5 28  1  0
  5 29  1  0
  8 30  1  0
  9 31  1  0
 10 32  1  0
 11 33  1  0
 14 34  1  0
 14 35  1  0
 15 36  1  0
 15 37  1  0
 16 38  1  0
 18 39  1  0
 19 40  1  0
 21 41  1  0
 23 42  1  0
 23 43  1  0
 24 44  1  0
 24 45  1  0
M  END
$$$$
OCNT-2309577
     RDKit          3D

 48 50  0  0  0  0  0  0  0  0999 V2000
    0.2452    1.6526    0.7934 C   0  0  0  0  0  0  0  0  0  0  0  0
    0.2002    0.1149    0.7746 C   0  0  0  0  0  0  0  0  0  0  0  0
    1.5807   -0.4628    1.1706 C   0  0  0  0  0  0  0  0  0  0  0  0
    1.7253   -1.1374    2.1944 O   0  0  0  0  0  0  0  0  0  0  0  0
    2.6583   -0.2402    0.3541 N   0  0  0  0  0  0  0  0  0  0  0  0
    4.0522   -0.5260    0.6887 C   0  0  0  0  0  0  0  0  0  0  0  0
    4.3955    0.1406   -0.6518 C   0  0  0  0  0  0  0  0  0  0  0  0
    5.5776    1.0735   -0.6687 C   0  0  0  0  0  0  0  0  0  0  0  0
    6.8970    0.3426   -0.5736 C   0  0  0  0  0  0  0  0  0  0  0  0
    5.4794    1.9662    0.3476 F   0  0  0  0  0  0  0  0  0  0  0  0
    5.5432    1.7890   -1.8218 F   0  0  0  0  0  0  0  0  0  0  0  0
    3.0170    0.8205   -0.5733 C   0  0  0  0  0  0  0  0  0  0  0  0
   -0.8396   -0.3835    1.8220 C   0  0  0  0  0  0  0  0  0  0  0  0
   -2.2926   -0.1212    1.4264 C   0  0  0  0  0  0  0  0  0  0  0  0
   -2.5335   -0.6729    0.0868 N   0  0  0  0  0  0  0  0  0  0  0  0
   -3.8926   -0.7783   -0.2575 C   0  0  0  0  0  0  0  0  0  0  0  0
   -4.4071   -2.0870   -0.3235 C   0  0  0  0  0  0  0  0  0  0  0  0
   -5.7412   -2.3335   -0.6532 C   0  0  0  0  0  0  0  0  0  0  0  0
   -6.5883   -1.2664   -0.9224 C   0  0  0  0  0  0  0  0  0  0  0  0
   -8.2329   -1.5601   -1.3298 Cl  0  0  0  0  0  0  0  0  0  0  0  0
   -6.1129    0.0408   -0.8631 C   0  0  0  0  0  0  0  0  0  0  0  0
   -4.7703    0.2922   -0.5312 C   0  0  0  0  0  0  0  0  0  0  0  0
   -4.3502    1.6624   -0.4817 C   0  0  0  0  0  0  0  0  0  0  0  0
   -4.0206    2.7755   -0.4480 N   0  0  0  0  0  0  0  0  0  0  0  0
   -1.6675   -0.1294   -0.9642 C   0  0  0  0  0  0  0  0  0  0  0  0
   -0.2097   -0.4288   -0.6139 C   0  0  0  0  0  0  0  0  0  0  0  0
    0.7440    2.0575   -0.0912 H   0  0  0  0  0  0  0  0  0  0  0  0
    0.7832    2.0185    1.6753 H   0  0  0  0  0  0  0  0  0  0  0  0
   -0.7520    2.1015    0.8083 H   0  0  0  0  0  0  0  0  0  0  0  0
    4.3841   -0.0085    1.5942 H   0  0  0  0  0  0  0  0  0  0  0  0
    4.2834   -1.5923    0.7499 H   0  0  0  0  0  0  0  0  0  0  0  0
    4.4434   -0.5855   -1.4773 H   0  0  0  0  0  0  0  0  0  0  0  0
    7.7259    1.0566   -0.6128 H   0  0  0  0  0  0  0  0  0  0  0  0
    6.9784   -0.2104    0.3673 H   0  0  0  0  0  0  0  0  0  0  0  0
    7.0211   -0.3587   -1.4047 H   0  0  0  0  0  0  0  0  0  0  0  0
    3.0063    1.8137   -0.1149 H   0  0  0  0  0  0  0  0  0  0  0  0
    2.4657    0.8248   -1.5146 H   0  0  0  0  0  0  0  0  0  0  0  0
   -0.7257   -1.4683    1.9590 H   0  0  0  0  0  0  0  0  0  0  0  0
   -0.6421    0.0718    2.8011 H   0  0  0  0  0  0  0  0  0  0  0  0
   -2.5129    0.9502    1.4662 H   0  0  0  0  0  0  0  0  0  0  0  0
   -2.9436   -0.6117    2.1615 H   0  0  0  0  0  0  0  0  0  0  0  0
   -3.7477   -2.9278   -0.1126 H   0  0  0  0  0  0  0  0  0  0  0  0
   -6.1051   -3.3567   -0.6957 H   0  0  0  0  0  0  0  0  0  0  0  0
   -6.7881    0.8683   -1.0738 H   0  0  0  0  0  0  0  0  0  0  0  0
   -1.8048    0.9499   -1.0866 H   0  0  0  0  0  0  0  0  0  0  0  0
   -1.8964   -0.6020   -1.9278 H   0  0  0  0  0  0  0  0  0  0  0  0
    0.4257   -0.0175   -1.4042 H   0  0  0  0  0  0  0  0  0  0  0  0
   -0.0549   -1.5166   -0.6351 H   0  0  0  0  0  0  0  0  0  0  0  0
  1  2  1  0
  2  3  1  0
  3  4  2  0
  3  5  1  0
  5  6  1  0
  6  7  1  0
  7  8  1  0
  8  9  1  0
  8 10  1  0
  8 11  1  0
  7 12  1  0
  2 13  1  0
 13 14  1  0
 14 15  1  0
 15 16  1  0
 16 17  1  0
 17 18  2  0
 18 19  1  0
 19 20  1  0
 19 21  2  0
 21 22  1  0
 22 23  1  0
 23 24  3  0
 15 25  1  0
 25 26  1  0
 26  2  1  0
 12  5  1  0
 22 16  2  0
  1 27  1  0
  1 28  1  0
  1 29  1  0
  6 30  1  0
  6 31  1  0
  7 32  1  0
  9 33  1  0
  9 34  1  0
  9 35  1  0
 12 36  1  0
 12 37  1  0
 13 38  1  0
 13 39  1  0
 14 40  1  0
 14 41  1  0
 17 42  1  0
 18 43  1  0
 21 44  1  0
 25 45  1  0
 25 46  1  0
 26 47  1  0
 26 48  1  0
M  END
$$$$
OCNT-2309578
     RDKit          3D

 49 52  0  0  0  0  0  0  0  0999 V2000
   -3.9693    0.9047   -1.4020 C   0  0  0  0  0  0  0  0  0  0  0  0
   -3.1124    0.1945   -0.5169 O   0  0  0  0  0  0  0  0  0  0  0  0
   -2.5917    0.8814    0.5467 C   0  0  0  0  0  0  0  0  0  0  0  0
   -2.7632    2.2523    0.7653 C   0  0  0  0  0  0  0  0  0  0  0  0
   -2.2087    2.8689    1.8879 C   0  0  0  0  0  0  0  0  0  0  0  0
   -1.4873    2.1200    2.8075 C   0  0  0  0  0  0  0  0  0  0  0  0
   -1.3096    0.7548    2.5993 C   0  0  0  0  0  0  0  0  0  0  0  0
   -1.8375    0.1227    1.4591 C   0  0  0  0  0  0  0  0  0  0  0  0
   -1.5998   -1.3651    1.2646 C   0  0  0  0  0  0  0  0  0  0  0  0
   -0.8618   -1.7382   -0.0463 C   0  0  0  0  0  0  0  0  0  0  0  0
   -1.7502   -2.6402   -0.9337 C   0  0  0  0  0  0  0  0  0  0  0  0
   -0.7553   -3.5313   -1.6594 C   0  0  0  0  0  0  0  0  0  0  0  0
    0.2800   -3.8037   -0.5838 C   0  0  0  0  0  0  0  0  0  0  0  0
    0.3536   -2.5578    0.1611 N   0  0  0  0  0  0  0  0  0  0  0  0
    1.5569   -2.1977    0.7357 C   0  0  0  0  0  0  0  0  0  0  0  0
    2.4827   -3.0078    0.8365 O   0  0  0  0  0  0  0  0  0  0  0  0
    1.7335   -0.7715    1.2320 C   0  0  0  0  0  0  0  0  0  0  0  0
    2.7937   -0.0323    0.4909 C   0  0  0  0  0  0  0  0  0  0  0  0
    2.6898    1.1572   -0.2036 C   0  0  0  0  0  0  0  0  0  0  0  0
    1.6304    2.0680   -0.4936 C   0  0  0  0  0  0  0  0  0  0  0  0
    1.8851    3.1726   -1.2177 C   0  0  0  0  0  0  0  0  0  0  0  0
    3.2142    3.4706   -1.7131 C   0  0  0  0  0  0  0  0  0  0  0  0
    4.2103    2.6146   -1.4404 C   0  0  0  0  0  0  0  0  0  0  0  0
    3.9631    1.4627   -0.6924 N   0  0  0  0  0  0  0  0  0  0  0  0
    4.8635    0.5108   -0.3352 N   0  0  0  0  0  0  0  0  0  0  0  0
    4.1560   -0.3784    0.3614 C   0  0  0  0  0  0  0  0  0  0  0  0
   -4.3401    0.1952   -2.1494 H   0  0  0  0  0  0  0  0  0  0  0  0
   -3.4224    1.6912   -1.9313 H   0  0  0  0  0  0  0  0  0  0  0  0
   -4.8370    1.3106   -0.8709 H   0  0  0  0  0  0  0  0  0  0  0  0
   -3.3265    2.8739    0.0786 H   0  0  0  0  0  0  0  0  0  0  0  0
   -2.3487    3.9347    2.0469 H   0  0  0  0  0  0  0  0  0  0  0  0
   -1.0629    2.5985    3.6852 H   0  0  0  0  0  0  0  0  0  0  0  0
   -0.7445    0.1858    3.3326 H   0  0  0  0  0  0  0  0  0  0  0  0
   -1.0391   -1.7525    2.1208 H   0  0  0  0  0  0  0  0  0  0  0  0
   -2.5797   -1.8498    1.3226 H   0  0  0  0  0  0  0  0  0  0  0  0
   -0.5392   -0.8536   -0.6092 H   0  0  0  0  0  0  0  0  0  0  0  0
   -2.3784   -2.0692   -1.6252 H   0  0  0  0  0  0  0  0  0  0  0  0
   -2.4114   -3.2753   -0.3247 H   0  0  0  0  0  0  0  0  0  0  0  0
   -1.2058   -4.4505   -2.0482 H   0  0  0  0  0  0  0  0  0  0  0  0
   -0.3059   -2.9802   -2.4984 H   0  0  0  0  0  0  0  0  0  0  0  0
   -0.0561   -4.5855    0.1068 H   0  0  0  0  0  0  0  0  0  0  0  0
    1.2505   -4.0902   -1.0102 H   0  0  0  0  0  0  0  0  0  0  0  0
    0.8069   -0.2115    1.1616 H   0  0  0  0  0  0  0  0  0  0  0  0
    1.9892   -0.8209    2.2944 H   0  0  0  0  0  0  0  0  0  0  0  0
    0.6274    1.8666   -0.1286 H   0  0  0  0  0  0  0  0  0  0  0  0
    1.0922    3.8745   -1.4518 H   0  0  0  0  0  0  0  0  0  0  0  0
    3.3754    4.3721   -2.2911 H   0  0  0  0  0  0  0  0  0  0  0  0
    5.2296    2.7549   -1.7705 H   0  0  0  0  0  0  0  0  0  0  0  0
    4.6605   -1.2509    0.7577 H   0  0  0  0  0  0  0  0  0  0  0  0
  1  2  1  0
  2  3  1  0
  3  4  2  0
  4  5  1  0
  5  6  2  0
  6  7  1  0
  7  8  2  0
  8  9  1  0
  9 10  1  0
 10 11  1  0
 11 12  1  0
 12 13  1  0
 13 14  1  0
 14 15  1  0
 15 16  2  0
 15 17  1  0
 17 18  1  0
 18 19  2  0
 19 20  1  0
 20 21  2  0
 21 22  1  0
 22 23  2  0
 23 24  1  0
 24 25  1  0
 25 26  2  0
  8  3  1  0
 14 10  1  0
 26 18  1  0
 24 19  1  0
  1 27  1  0
  1 28  1  0
  1 29  1  0
  4 30  1  0
  5 31  1  0
  6 32  1  0
  7 33  1  0
  9 34  1  0
  9 35  1  0
 10 36  1  0
 11 37  1  0
 11 38  1  0
 12 39  1  0
 12 40  1  0
 13 41  1  0
 13 42  1  0
 17 43  1  0
 17 44  1  0
 20 45  1  0
 21 46  1  0
 22 47  1  0
 23 48  1  0
 26 49  1  0
M  END
$$$$
OCNT-2309581
     RDKit          3D

 38 40  0  0  0  0  0  0  0  0999 V2000
   -4.9880    0.1892    3.1033 N   0  0  0  0  0  0  0  0  0  0  0  0
   -4.3265   -0.2855    2.2750 C   0  0  0  0  0  0  0  0  0  0  0  0
   -3.5422   -0.9311    1.2102 C   0  0  0  0  0  0  0  0  0  0  0  0
   -3.1659    0.0215    0.0960 C   0  0  0  0  0  0  0  0  0  0  0  0
   -4.1323    0.3663   -0.8670 C   0  0  0  0  0  0  0  0  0  0  0  0
   -3.8343    1.2697   -1.8898 C   0  0  0  0  0  0  0  0  0  0  0  0
   -2.5729    1.8552   -1.9627 C   0  0  0  0  0  0  0  0  0  0  0  0
   -1.6020    1.5310   -1.0172 C   0  0  0  0  0  0  0  0  0  0  0  0
   -1.8879    0.6041   -0.0044 C   0  0  0  0  0  0  0  0  0  0  0  0
   -0.8317    0.3000    0.9893 C   0  0  0  0  0  0  0  0  0  0  0  0
   -1.0658    0.5528    2.1673 O   0  0  0  0  0  0  0  0  0  0  0  0
    0.3562   -0.2781    0.5498 N   0  0  0  0  0  0  0  0  0  0  0  0
    0.5244   -0.8825   -0.7915 C   0  0  0  0  0  0  0  0  0  0  0  0
    1.7661   -1.7812   -0.8997 C   0  0  0  0  0  0  0  0  0  0  0  0
    2.9164   -1.0825   -0.3551 N   0  0  0  0  0  0  0  0  0  0  0  0
    3.7510   -0.3167   -1.1640 C   0  0  0  0  0  0  0  0  0  0  0  0
    3.8975   -0.4268   -2.3692 O   0  0  0  0  0  0  0  0  0  0  0  0
    4.4244    0.7036   -0.2835 C   0  0  0  0  0  0  0  0  0  0  0  0
    3.3952    0.8723    0.8293 C   0  0  0  0  0  0  0  0  0  0  0  0
    2.8226   -0.5313    0.9859 C   0  0  0  0  0  0  0  0  0  0  0  0
    1.3925   -0.5642    1.5550 C   0  0  0  0  0  0  0  0  0  0  0  0
   -4.1318   -1.7494    0.7760 H   0  0  0  0  0  0  0  0  0  0  0  0
   -2.6588   -1.4218    1.6318 H   0  0  0  0  0  0  0  0  0  0  0  0
   -5.1349   -0.0571   -0.8194 H   0  0  0  0  0  0  0  0  0  0  0  0
   -4.5962    1.5309   -2.6213 H   0  0  0  0  0  0  0  0  0  0  0  0
   -2.3509    2.5742   -2.7478 H   0  0  0  0  0  0  0  0  0  0  0  0
   -0.6279    2.0128   -1.0626 H   0  0  0  0  0  0  0  0  0  0  0  0
   -0.3762   -1.4507   -1.0470 H   0  0  0  0  0  0  0  0  0  0  0  0
    0.6203   -0.0549   -1.5025 H   0  0  0  0  0  0  0  0  0  0  0  0
    1.6295   -2.6966   -0.3132 H   0  0  0  0  0  0  0  0  0  0  0  0
    1.9472   -2.0618   -1.9421 H   0  0  0  0  0  0  0  0  0  0  0  0
    4.5927    1.6399   -0.8206 H   0  0  0  0  0  0  0  0  0  0  0  0
    5.3711    0.2975    0.0848 H   0  0  0  0  0  0  0  0  0  0  0  0
    3.8359    1.2537    1.7549 H   0  0  0  0  0  0  0  0  0  0  0  0
    2.6197    1.5790    0.5071 H   0  0  0  0  0  0  0  0  0  0  0  0
    3.4845   -1.1248    1.6289 H   0  0  0  0  0  0  0  0  0  0  0  0
    1.1735   -1.5733    1.9271 H   0  0  0  0  0  0  0  0  0  0  0  0
    1.3055    0.1167    2.4090 H   0  0  0  0  0  0  0  0  0  0  0  0
  1  2  3  0
  2  3  1  0
  3  4  1  0
  4  5  2  0
  5  6  1  0
  6  7  2  0
  7  8  1  0
  8  9  2  0
  9 10  1  0
 10 11  2  0
 10 12  1  0
 12 13  1  0
 13 14  1  0
 14 15  1  0
 15 16  1  0
 16 17  2  0
 16 18  1  0
 18 19  1  0
 19 20  1  0
 20 21  1  0
  9  4  1  0
 21 12  1  0
 20 15  1  0
  3 22  1  0
  3 23  1  0
  5 24  1  0
  6 25  1  0
  7 26  1  0
  8 27  1  0
 13 28  1  0
 13 29  1  0
 14 30  1  0
 14 31  1  0
 18 32  1  0
 18 33  1  0
 19 34  1  0
 19 35  1  0
 20 36  1  0
 21 37  1  0
 21 38  1  0
M  END
$$$$
OCNT-2309582
     RDKit          3D

 50 51  0  0  0  0  0  0  0  0999 V2000
    6.2987    1.3889   -0.2851 C   0  0  0  0  0  0  0  0  0  0  0  0
    5.3718    1.1670    0.7705 O   0  0  0  0  0  0  0  0  0  0  0  0
    4.0308    0.9286    0.3070 C   0  0  0  0  0  0  0  0  0  0  0  0
    3.8658   -0.5718    0.0520 C   0  0  0  0  0  0  0  0  0  0  0  0
    2.6296   -0.9968   -0.7375 C   0  0  0  0  0  0  0  0  0  0  0  0
    1.4107   -0.0736   -0.7210 C   0  0  0  0  0  0  0  0  0  0  0  0
    0.9152    0.4223    0.5671 N   0  0  0  0  0  0  0  0  0  0  0  0
    0.7560   -0.6164    1.6122 C   0  0  0  0  0  0  0  0  0  0  0  0
   -0.4084   -1.5681    1.2900 C   0  0  0  0  0  0  0  0  0  0  0  0
   -0.3776   -2.7431    1.6416 O   0  0  0  0  0  0  0  0  0  0  0  0
   -1.4411   -0.9132    0.6406 N   0  0  0  0  0  0  0  0  0  0  0  0
   -2.6982   -1.4064    0.2338 C   0  0  0  0  0  0  0  0  0  0  0  0
   -3.1221   -2.6946    0.5889 C   0  0  0  0  0  0  0  0  0  0  0  0
   -4.3824   -3.1681    0.2224 C   0  0  0  0  0  0  0  0  0  0  0  0
   -5.2431   -2.3555   -0.4993 C   0  0  0  0  0  0  0  0  0  0  0  0
   -4.8393   -1.0723   -0.8655 C   0  0  0  0  0  0  0  0  0  0  0  0
   -3.5624   -0.5760   -0.5277 C   0  0  0  0  0  0  0  0  0  0  0  0
   -3.1612    0.8344   -0.9618 C   0  0  0  0  0  0  0  0  0  0  0  0
   -3.7975    1.3156   -2.2742 C   0  0  0  0  0  0  0  0  0  0  0  0
   -3.4568    1.8376    0.1566 C   0  0  0  0  0  0  0  0  0  0  0  0
    1.6510    1.5959    1.0407 C   0  0  0  0  0  0  0  0  0  0  0  0
    3.1138    1.4152    1.4343 C   0  0  0  0  0  0  0  0  0  0  0  0
    6.3434    0.5315   -0.9617 H   0  0  0  0  0  0  0  0  0  0  0  0
    7.2888    1.5357    0.1548 H   0  0  0  0  0  0  0  0  0  0  0  0
    6.0301    2.2922   -0.8413 H   0  0  0  0  0  0  0  0  0  0  0  0
    3.8521    1.5145   -0.6029 H   0  0  0  0  0  0  0  0  0  0  0  0
    4.7466   -0.9682   -0.4682 H   0  0  0  0  0  0  0  0  0  0  0  0
    3.8785   -1.0989    1.0155 H   0  0  0  0  0  0  0  0  0  0  0  0
    2.3363   -2.0024   -0.4096 H   0  0  0  0  0  0  0  0  0  0  0  0
    2.9266   -1.1153   -1.7884 H   0  0  0  0  0  0  0  0  0  0  0  0
    1.6005    0.7788   -1.3874 H   0  0  0  0  0  0  0  0  0  0  0  0
    0.5932   -0.6116   -1.2180 H   0  0  0  0  0  0  0  0  0  0  0  0
    0.4932   -0.1482    2.5694 H   0  0  0  0  0  0  0  0  0  0  0  0
    1.6658   -1.2018    1.7692 H   0  0  0  0  0  0  0  0  0  0  0  0
   -1.1922    0.0386    0.3932 H   0  0  0  0  0  0  0  0  0  0  0  0
   -2.4925   -3.3601    1.1710 H   0  0  0  0  0  0  0  0  0  0  0  0
   -4.6885   -4.1693    0.5136 H   0  0  0  0  0  0  0  0  0  0  0  0
   -6.2300   -2.7166   -0.7762 H   0  0  0  0  0  0  0  0  0  0  0  0
   -5.5484   -0.4637   -1.4203 H   0  0  0  0  0  0  0  0  0  0  0  0
   -2.0839    0.8404   -1.1657 H   0  0  0  0  0  0  0  0  0  0  0  0
   -3.3363    2.2562   -2.5962 H   0  0  0  0  0  0  0  0  0  0  0  0
   -3.6522    0.5828   -3.0755 H   0  0  0  0  0  0  0  0  0  0  0  0
   -4.8711    1.5042   -2.1698 H   0  0  0  0  0  0  0  0  0  0  0  0
   -2.9423    1.5687    1.0852 H   0  0  0  0  0  0  0  0  0  0  0  0
   -3.1258    2.8428   -0.1262 H   0  0  0  0  0  0  0  0  0  0  0  0
   -4.5297    1.8850    0.3756 H   0  0  0  0  0  0  0  0  0  0  0  0
    1.1147    2.0132    1.9033 H   0  0  0  0  0  0  0  0  0  0  0  0
    1.5867    2.3825    0.2769 H   0  0  0  0  0  0  0  0  0  0  0  0
    3.1984    0.7525    2.3052 H   0  0  0  0  0  0  0  0  0  0  0  0
    3.4844    2.3871    1.7888 H   0  0  0  0  0  0  0  0  0  0  0  0
  1  2  1  0
  2  3  1  0
  3  4  1  0
  4  5  1  0
  5  6  1  0
  6  7  1  0
  7  8  1  0
  8  9  1  0
  9 10  2  0
  9 11  1  0
 11 12  1  0
 12 13  2  0
 13 14  1  0
 14 15  2  0
 15 16  1  0
 16 17  2  0
 17 18  1  0
 18 19  1  0
 18 20  1  0
  7 21  1  0
 21 22  1  0
 22  3  1  0
 17 12  1  0
  1 23  1  0
  1 24  1  0
  1 25  1  0
  3 26  1  0
  4 27  1  0
  4 28  1  0
  5 29  1  0
  5 30  1  0
  6 31  1  0
  6 32  1  0
  8 33  1  0
  8 34  1  0
 11 35  1  0
 13 36  1  0
 14 37  1  0
 15 38  1  0
 16 39  1  0
 18 40  1  0
 19 41  1  0
 19 42  1  0
 19 43  1  0
 20 44  1  0
 20 45  1  0
 20 46  1  0
 21 47  1  0
 21 48  1  0
 22 49  1  0
 22 50  1  0
M  END
$$$$
OCNT-2309589
     RDKit          3D

 52 53  0  0  0  0  0  0  0  0999 V2000
    2.3729    1.0869   -1.3524 C   0  0  0  0  0  0  0  0  0  0  0  0
    3.2396    0.7545   -0.2192 N   0  0  0  0  0  0  0  0  0  0  0  0
    2.5782    0.4770    1.0602 C   0  0  0  0  0  0  0  0  0  0  0  0
    2.4729   -1.0214    1.3657 C   0  0  0  0  0  0  0  0  0  0  0  0
    1.5015   -1.7747    0.4611 C   0  0  0  0  0  0  0  0  0  0  0  0
    0.1174   -1.4117    0.7299 N   0  0  0  0  0  0  0  0  0  0  0  0
   -0.7265   -0.9204   -0.2572 C   0  0  0  0  0  0  0  0  0  0  0  0
   -0.3244   -0.7560   -1.4035 O   0  0  0  0  0  0  0  0  0  0  0  0
   -2.1577   -0.6139    0.2056 C   0  0  0  0  0  0  0  0  0  0  0  0
   -2.1159    0.3831    1.3749 C   0  0  0  0  0  0  0  0  0  0  0  0
   -2.8385   -1.9193    0.6406 C   0  0  0  0  0  0  0  0  0  0  0  0
   -3.0361    0.1198   -1.2127 S   0  0  0  0  0  0  0  0  0  0  0  0
   -3.2551   -0.8894   -2.2337 O   0  0  0  0  0  0  0  0  0  0  0  0
   -2.4436    1.4040   -1.5433 O   0  0  0  0  0  0  0  0  0  0  0  0
   -4.6772    0.5131   -0.5963 C   0  0  0  0  0  0  0  0  0  0  0  0
   -4.9392    1.7927   -0.0932 C   0  0  0  0  0  0  0  0  0  0  0  0
   -6.2248    2.1080    0.3516 C   0  0  0  0  0  0  0  0  0  0  0  0
   -7.2412    1.1549    0.2711 C   0  0  0  0  0  0  0  0  0  0  0  0
   -8.8228    1.5460    0.8227 Cl  0  0  0  0  0  0  0  0  0  0  0  0
   -6.9877   -0.1094   -0.2625 C   0  0  0  0  0  0  0  0  0  0  0  0
   -5.7043   -0.4313   -0.7093 C   0  0  0  0  0  0  0  0  0  0  0  0
    4.6011    0.5435   -0.4195 C   0  0  0  0  0  0  0  0  0  0  0  0
    5.1648    0.4784   -1.7068 C   0  0  0  0  0  0  0  0  0  0  0  0
    6.5350    0.2699   -1.9177 C   0  0  0  0  0  0  0  0  0  0  0  0
    7.3924    0.1247   -0.8363 C   0  0  0  0  0  0  0  0  0  0  0  0
    6.8756    0.1887    0.4505 C   0  0  0  0  0  0  0  0  0  0  0  0
    5.5032    0.3956    0.6493 C   0  0  0  0  0  0  0  0  0  0  0  0
    2.2712    0.2351   -2.0331 H   0  0  0  0  0  0  0  0  0  0  0  0
    1.3688    1.3733   -1.0221 H   0  0  0  0  0  0  0  0  0  0  0  0
    2.7679    1.9464   -1.9063 H   0  0  0  0  0  0  0  0  0  0  0  0
    1.5763    0.9238    1.0788 H   0  0  0  0  0  0  0  0  0  0  0  0
    3.1097    0.9822    1.8751 H   0  0  0  0  0  0  0  0  0  0  0  0
    3.4575   -1.4960    1.2886 H   0  0  0  0  0  0  0  0  0  0  0  0
    2.1512   -1.1377    2.4083 H   0  0  0  0  0  0  0  0  0  0  0  0
    1.7500   -1.6401   -0.5948 H   0  0  0  0  0  0  0  0  0  0  0  0
    1.5745   -2.8474    0.6741 H   0  0  0  0  0  0  0  0  0  0  0  0
   -0.2532   -1.6751    1.6327 H   0  0  0  0  0  0  0  0  0  0  0  0
   -1.6303    1.3204    1.0797 H   0  0  0  0  0  0  0  0  0  0  0  0
   -1.5596   -0.0111    2.2323 H   0  0  0  0  0  0  0  0  0  0  0  0
   -3.1183    0.6237    1.7402 H   0  0  0  0  0  0  0  0  0  0  0  0
   -2.8738   -2.6419   -0.1822 H   0  0  0  0  0  0  0  0  0  0  0  0
   -3.8636   -1.7493    0.9816 H   0  0  0  0  0  0  0  0  0  0  0  0
   -2.3075   -2.4016    1.4683 H   0  0  0  0  0  0  0  0  0  0  0  0
   -4.1582    2.5503   -0.0550 H   0  0  0  0  0  0  0  0  0  0  0  0
   -6.4313    3.0999    0.7462 H   0  0  0  0  0  0  0  0  0  0  0  0
   -7.7875   -0.8413   -0.3459 H   0  0  0  0  0  0  0  0  0  0  0  0
   -5.5204   -1.4082   -1.1523 H   0  0  0  0  0  0  0  0  0  0  0  0
    4.5426    0.5770   -2.5918 H   0  0  0  0  0  0  0  0  0  0  0  0
    6.9224    0.2230   -2.9317 H   0  0  0  0  0  0  0  0  0  0  0  0
    8.4551   -0.0337   -0.9952 H   0  0  0  0  0  0  0  0  0  0  0  0
    7.5350    0.0838    1.3072 H   0  0  0  0  0  0  0  0  0  0  0  0
    5.1623    0.4513    1.6777 H   0  0  0  0  0  0  0  0  0  0  0  0
  1  2  1  0
  2  3  1  0
  3  4  1  0
  4  5  1  0
  5  6  1  0
  6  7  1  0
  7  8  2  0
  7  9  1  0
  9 10  1  0
  9 11  1  0
  9 12  1  0
 12 13  2  0
 12 14  2  0
 12 15  1  0
 15 16  1  0
 16 17  2  0
 17 18  1  0
 18 19  1  0
 18 20  2  0
 20 21  1  0
  2 22  1  0
 22 23  2  0
 23 24  1  0
 24 25  2  0
 25 26  1  0
 26 27  2  0
 21 15  2  0
 27 22  1  0
  1 28  1  0
  1 29  1  0
  1 30  1  0
  3 31  1  0
  3 32  1  0
  4 33  1  0
  4 34  1  0
  5 35  1  0
  5 36  1  0
  6 37  1  0
 10 38  1  0
 10 39  1  0
 10 40  1  0
 11 41  1  0
 11 42  1  0
 11 43  1  0
 16 44  1  0
 17 45  1  0
 20 46  1  0
 21 47  1  0
 23 48  1  0
 24 49  1  0
 25 50  1  0
 26 51  1  0
 27 52  1  0
M  END
$$$$
OCNT-2309593
     RDKit          3D

 49 52  0  0  0  0  0  0  0  0999 V2000
    8.1856    0.1455   -0.0835 C   0  0  0  0  0  0  0  0  0  0  0  0
    6.8633   -0.2600   -0.4762 N   0  0  0  0  0  0  0  0  0  0  0  0
    6.4828   -1.4285   -1.0537 C   0  0  0  0  0  0  0  0  0  0  0  0
    5.1855   -1.4143   -1.2568 N   0  0  0  0  0  0  0  0  0  0  0  0
    4.8093   -0.1868   -0.7737 C   0  0  0  0  0  0  0  0  0  0  0  0
    3.3981    0.2744   -0.7950 C   0  0  0  0  0  0  0  0  0  0  0  0
    2.6107   -0.2661    0.4049 C   0  0  0  0  0  0  0  0  0  0  0  0
    1.2229    0.2108    0.4920 N   0  0  0  0  0  0  0  0  0  0  0  0
    0.3583   -0.3849   -0.5248 C   0  0  0  0  0  0  0  0  0  0  0  0
   -1.0369    0.0939   -0.2986 C   0  0  0  0  0  0  0  0  0  0  0  0
   -1.4896    1.4009   -0.3163 C   0  0  0  0  0  0  0  0  0  0  0  0
   -2.8332    1.3801   -0.0261 N   0  0  0  0  0  0  0  0  0  0  0  0
   -3.7227    2.4867    0.0907 C   0  0  0  0  0  0  0  0  0  0  0  0
   -3.2745    3.8045   -0.0773 C   0  0  0  0  0  0  0  0  0  0  0  0
   -4.1721    4.8701    0.0432 C   0  0  0  0  0  0  0  0  0  0  0  0
   -5.5148    4.6299    0.3302 C   0  0  0  0  0  0  0  0  0  0  0  0
   -5.9671    3.3233    0.4988 C   0  0  0  0  0  0  0  0  0  0  0  0
   -5.0767    2.2541    0.3804 C   0  0  0  0  0  0  0  0  0  0  0  0
   -3.2776    0.1143    0.1459 N   0  0  0  0  0  0  0  0  0  0  0  0
   -2.2078   -0.6735   -0.0283 C   0  0  0  0  0  0  0  0  0  0  0  0
   -2.3456   -2.1239    0.0725 C   0  0  0  0  0  0  0  0  0  0  0  0
   -1.9201   -2.9598   -0.9682 C   0  0  0  0  0  0  0  0  0  0  0  0
   -2.0568   -4.3459   -0.8598 C   0  0  0  0  0  0  0  0  0  0  0  0
   -2.6257   -4.9040    0.2845 C   0  0  0  0  0  0  0  0  0  0  0  0
   -3.0645   -4.0788    1.3190 C   0  0  0  0  0  0  0  0  0  0  0  0
   -2.9286   -2.6932    1.2120 C   0  0  0  0  0  0  0  0  0  0  0  0
    5.8120    0.5567   -0.2879 N   0  0  0  0  0  0  0  0  0  0  0  0
    8.4610    1.0323   -0.6598 H   0  0  0  0  0  0  0  0  0  0  0  0
    8.8903   -0.6647   -0.2863 H   0  0  0  0  0  0  0  0  0  0  0  0
    8.1764    0.3712    0.9858 H   0  0  0  0  0  0  0  0  0  0  0  0
    7.1641   -2.2312   -1.2979 H   0  0  0  0  0  0  0  0  0  0  0  0
    3.3671    1.3711   -0.7976 H   0  0  0  0  0  0  0  0  0  0  0  0
    2.9404   -0.0568   -1.7341 H   0  0  0  0  0  0  0  0  0  0  0  0
    3.1150    0.0479    1.3275 H   0  0  0  0  0  0  0  0  0  0  0  0
    2.6312   -1.3635    0.4180 H   0  0  0  0  0  0  0  0  0  0  0  0
    1.1995    1.2252    0.4128 H   0  0  0  0  0  0  0  0  0  0  0  0
    0.4106   -1.4756   -0.4584 H   0  0  0  0  0  0  0  0  0  0  0  0
    0.6692   -0.0926   -1.5338 H   0  0  0  0  0  0  0  0  0  0  0  0
   -0.9545    2.3202   -0.4921 H   0  0  0  0  0  0  0  0  0  0  0  0
   -2.2389    4.0396   -0.2991 H   0  0  0  0  0  0  0  0  0  0  0  0
   -3.8221    5.8913   -0.0869 H   0  0  0  0  0  0  0  0  0  0  0  0
   -6.2090    5.4610    0.4232 H   0  0  0  0  0  0  0  0  0  0  0  0
   -7.0135    3.1326    0.7228 H   0  0  0  0  0  0  0  0  0  0  0  0
   -5.4531    1.2414    0.5160 H   0  0  0  0  0  0  0  0  0  0  0  0
   -1.4934   -2.5385   -1.8746 H   0  0  0  0  0  0  0  0  0  0  0  0
   -1.7256   -4.9893   -1.6707 H   0  0  0  0  0  0  0  0  0  0  0  0
   -2.7341   -5.9823    0.3674 H   0  0  0  0  0  0  0  0  0  0  0  0
   -3.5159   -4.5110    2.2080 H   0  0  0  0  0  0  0  0  0  0  0  0
   -3.2788   -2.0538    2.0197 H   0  0  0  0  0  0  0  0  0  0  0  0
  1  2  1  0
  2  3  1  0
  3  4  2  0
  4  5  1  0
  5  6  1  0
  6  7  1  0
  7  8  1  0
  8  9  1  0
  9 10  1  0
 10 11  2  0
 11 12  1  0
 12 13  1  0
 13 14  2  0
 14 15  1  0
 15 16  2  0
 16 17  1  0
 17 18  2  0
 12 19  1  0
 19 20  2  0
 20 21  1  0
 21 22  2  0
 22 23  1  0
 23 24  2  0
 24 25  1  0
 25 26  2  0
  5 27  2  0
 27  2  1  0
 20 10  1  0
 26 21  1  0
 18 13  1  0
  1 28  1  0
  1 29  1  0
  1 30  1  0
  3 31  1  0
  6 32  1  0
  6 33  1  0
  7 34  1  0
  7 35  1  0
  8 36  1  0
  9 37  1  0
  9 38  1  0
 11 39  1  0
 14 40  1  0
 15 41  1  0
 16 42  1  0
 17 43  1  0
 18 44  1  0
 22 45  1  0
 23 46  1  0
 24 47  1  0
 25 48  1  0
 26 49  1  0
M  END
$$$$
OCNT-2309595
     RDKit          3D

 48 51  0  0  0  0  0  0  0  0999 V2000
    8.7959   -0.8105    2.4633 N   0  0  0  0  0  0  0  0  0  0  0  0
    7.8045   -0.5276    1.9306 C   0  0  0  0  0  0  0  0  0  0  0  0
    6.5845   -0.1756    1.2793 C   0  0  0  0  0  0  0  0  0  0  0  0
    6.0715    1.1132    1.3387 C   0  0  0  0  0  0  0  0  0  0  0  0
    4.8719    1.4017    0.6813 C   0  0  0  0  0  0  0  0  0  0  0  0
    4.1910    0.4037   -0.0203 C   0  0  0  0  0  0  0  0  0  0  0  0
    3.0062    0.6742   -0.6940 N   0  0  0  0  0  0  0  0  0  0  0  0
    2.5113   -0.3857   -1.5793 C   0  0  0  0  0  0  0  0  0  0  0  0
    1.3419    0.1539   -2.3988 C   0  0  0  0  0  0  0  0  0  0  0  0
    0.1641    0.5388   -1.4910 C   0  0  0  0  0  0  0  0  0  0  0  0
   -0.8197   -0.6233   -1.3314 C   0  0  0  0  0  0  0  0  0  0  0  0
   -0.5539   -1.7636   -1.6941 O   0  0  0  0  0  0  0  0  0  0  0  0
   -2.0063   -0.2367   -0.7313 N   0  0  0  0  0  0  0  0  0  0  0  0
   -3.1402   -1.0738   -0.4169 C   0  0  0  0  0  0  0  0  0  0  0  0
   -4.2473   -0.2837    0.2813 C   0  0  0  0  0  0  0  0  0  0  0  0
   -4.2762   -0.1508    1.6833 C   0  0  0  0  0  0  0  0  0  0  0  0
   -5.2741    0.5874    2.3248 C   0  0  0  0  0  0  0  0  0  0  0  0
   -6.2582    1.2130    1.5692 C   0  0  0  0  0  0  0  0  0  0  0  0
   -7.2049    1.9208    2.2022 F   0  0  0  0  0  0  0  0  0  0  0  0
   -6.2525    1.1094    0.1822 C   0  0  0  0  0  0  0  0  0  0  0  0
   -7.4602    1.8906   -0.7633 Cl  0  0  0  0  0  0  0  0  0  0  0  0
   -5.2536    0.3700   -0.4558 C   0  0  0  0  0  0  0  0  0  0  0  0
   -2.9631   -2.5253   -0.0107 C   0  0  0  0  0  0  0  0  0  0  0  0
   -3.5622   -2.1979   -1.3449 C   0  0  0  0  0  0  0  0  0  0  0  0
    0.6333    1.0035   -0.1022 C   0  0  0  0  0  0  0  0  0  0  0  0
    2.0365    1.6056   -0.1199 C   0  0  0  0  0  0  0  0  0  0  0  0
    4.7084   -0.8442   -0.0872 N   0  0  0  0  0  0  0  0  0  0  0  0
    5.8717   -1.1118    0.5557 C   0  0  0  0  0  0  0  0  0  0  0  0
    6.5928    1.8996    1.8788 H   0  0  0  0  0  0  0  0  0  0  0  0
    4.4952    2.4189    0.7018 H   0  0  0  0  0  0  0  0  0  0  0  0
    3.2998   -0.6961   -2.2765 H   0  0  0  0  0  0  0  0  0  0  0  0
    2.2006   -1.2652   -1.0014 H   0  0  0  0  0  0  0  0  0  0  0  0
    1.6736    1.0478   -2.9444 H   0  0  0  0  0  0  0  0  0  0  0  0
    1.0460   -0.5764   -3.1603 H   0  0  0  0  0  0  0  0  0  0  0  0
   -0.3806    1.3529   -1.9880 H   0  0  0  0  0  0  0  0  0  0  0  0
   -2.1145    0.7476   -0.5169 H   0  0  0  0  0  0  0  0  0  0  0  0
   -3.5069   -0.6360    2.2829 H   0  0  0  0  0  0  0  0  0  0  0  0
   -5.2889    0.6771    3.4068 H   0  0  0  0  0  0  0  0  0  0  0  0
   -5.2511    0.2939   -1.5417 H   0  0  0  0  0  0  0  0  0  0  0  0
   -1.9665   -2.9512    0.0058 H   0  0  0  0  0  0  0  0  0  0  0  0
   -3.6203   -2.9521    0.7384 H   0  0  0  0  0  0  0  0  0  0  0  0
   -4.6170   -2.4075   -1.4819 H   0  0  0  0  0  0  0  0  0  0  0  0
   -2.9679   -2.4026   -2.2281 H   0  0  0  0  0  0  0  0  0  0  0  0
    0.6228    0.1601    0.6021 H   0  0  0  0  0  0  0  0  0  0  0  0
   -0.0741    1.7405    0.2976 H   0  0  0  0  0  0  0  0  0  0  0  0
    2.2851    1.8854    0.9107 H   0  0  0  0  0  0  0  0  0  0  0  0
    2.0382    2.5272   -0.7141 H   0  0  0  0  0  0  0  0  0  0  0  0
    6.2135   -2.1394    0.4579 H   0  0  0  0  0  0  0  0  0  0  0  0
  1  2  3  0
  2  3  1  0
  3  4  2  0
  4  5  1  0
  5  6  2  0
  6  7  1  0
  7  8  1  0
  8  9  1  0
  9 10  1  0
 10 11  1  0
 11 12  2  0
 11 13  1  0
 13 14  1  0
 14 15  1  0
 15 16  1  0
 16 17  2  0
 17 18  1  0
 18 19  1  0
 18 20  2  0
 20 21  1  0
 20 22  1  0
 14 23  1  0
 23 24  1  0
 10 25  1  0
 25 26  1  0
  6 27  1  0
 27 28  2  0
 28  3  1  0
 26  7  1  0
 24 14  1  0
 22 15  2  0
  4 29  1  0
  5 30  1  0
  8 31  1  0
  8 32  1  0
  9 33  1  0
  9 34  1  0
 10 35  1  0
 13 36  1  0
 16 37  1  0
 17 38  1  0
 22 39  1  0
 23 40  1  0
 23 41  1  0
 24 42  1  0
 24 43  1  0
 25 44  1  0
 25 45  1  0
 26 46  1  0
 26 47  1  0
 28 48  1  0
M  END
$$$$
OCNT-2309599
     RDKit          3D

 49 53  0  0  0  0  0  0  0  0999 V2000
   -4.0958   -3.9643   -0.1640 C   0  0  0  0  0  0  0  0  0  0  0  0
   -2.6947   -3.4858   -0.0608 C   0  0  0  0  0  0  0  0  0  0  0  0
   -1.7015   -4.3600    0.1493 N   0  0  0  0  0  0  0  0  0  0  0  0
   -0.5972   -3.5932    0.1851 N   0  0  0  0  0  0  0  0  0  0  0  0
   -0.8472   -2.2546    0.0182 C   0  0  0  0  0  0  0  0  0  0  0  0
    0.1276   -1.2708    0.0522 N   0  0  0  0  0  0  0  0  0  0  0  0
    1.4730   -1.5660    0.2421 C   0  0  0  0  0  0  0  0  0  0  0  0
    1.8859   -2.7194    0.3723 O   0  0  0  0  0  0  0  0  0  0  0  0
    2.3649   -0.3839    0.2680 C   0  0  0  0  0  0  0  0  0  0  0  0
    3.6999   -0.5268    0.2980 N   0  0  0  0  0  0  0  0  0  0  0  0
    4.2306    0.7176    0.3099 N   0  0  0  0  0  0  0  0  0  0  0  0
    5.6369    0.9175    0.3289 C   0  0  0  0  0  0  0  0  0  0  0  0
    6.5150   -0.1728    0.3891 C   0  0  0  0  0  0  0  0  0  0  0  0
    6.0830   -1.4405    0.4425 F   0  0  0  0  0  0  0  0  0  0  0  0
    7.9011    0.0104    0.4048 C   0  0  0  0  0  0  0  0  0  0  0  0
    8.4407    1.2914    0.3601 C   0  0  0  0  0  0  0  0  0  0  0  0
    7.5849    2.3860    0.3010 C   0  0  0  0  0  0  0  0  0  0  0  0
    6.1994    2.1978    0.2849 C   0  0  0  0  0  0  0  0  0  0  0  0
    5.4493    3.3056    0.2132 F   0  0  0  0  0  0  0  0  0  0  0  0
    3.2255    1.6620    0.2973 C   0  0  0  0  0  0  0  0  0  0  0  0
    2.0270    0.9908    0.2699 C   0  0  0  0  0  0  0  0  0  0  0  0
   -2.2120   -2.1520   -0.1608 C   0  0  0  0  0  0  0  0  0  0  0  0
   -2.9239   -0.9096   -0.3719 C   0  0  0  0  0  0  0  0  0  0  0  0
   -2.6982   -0.1551   -1.5317 C   0  0  0  0  0  0  0  0  0  0  0  0
   -3.3850    1.0439   -1.7352 C   0  0  0  0  0  0  0  0  0  0  0  0
   -4.3018    1.4871   -0.7844 C   0  0  0  0  0  0  0  0  0  0  0  0
   -4.9547    2.6616   -1.0587 O   0  0  0  0  0  0  0  0  0  0  0  0
   -6.1012    2.8286   -0.2156 C   0  0  0  0  0  0  0  0  0  0  0  0
   -5.7512    2.5160    1.2299 C   0  0  0  0  0  0  0  0  0  0  0  0
   -5.3769    1.1410    1.3748 O   0  0  0  0  0  0  0  0  0  0  0  0
   -4.5140    0.7476    0.3836 C   0  0  0  0  0  0  0  0  0  0  0  0
   -3.8397   -0.4564    0.5836 C   0  0  0  0  0  0  0  0  0  0  0  0
   -4.1366   -5.0385   -0.3717 H   0  0  0  0  0  0  0  0  0  0  0  0
   -4.6288   -3.7794    0.7741 H   0  0  0  0  0  0  0  0  0  0  0  0
   -4.6252   -3.4483   -0.9709 H   0  0  0  0  0  0  0  0  0  0  0  0
    0.3120   -4.0253    0.3362 H   0  0  0  0  0  0  0  0  0  0  0  0
   -0.1779   -0.3153   -0.0676 H   0  0  0  0  0  0  0  0  0  0  0  0
    8.5479   -0.8617    0.4515 H   0  0  0  0  0  0  0  0  0  0  0  0
    9.5181    1.4339    0.3700 H   0  0  0  0  0  0  0  0  0  0  0  0
    7.9854    3.3958    0.2623 H   0  0  0  0  0  0  0  0  0  0  0  0
    3.4217    2.7218    0.3149 H   0  0  0  0  0  0  0  0  0  0  0  0
    1.0505    1.4517    0.2618 H   0  0  0  0  0  0  0  0  0  0  0  0
   -2.0012   -0.5057   -2.2907 H   0  0  0  0  0  0  0  0  0  0  0  0
   -3.2196    1.6209   -2.6409 H   0  0  0  0  0  0  0  0  0  0  0  0
   -6.4329    3.8675   -0.3089 H   0  0  0  0  0  0  0  0  0  0  0  0
   -6.9039    2.1785   -0.5850 H   0  0  0  0  0  0  0  0  0  0  0  0
   -4.9231    3.1410    1.5863 H   0  0  0  0  0  0  0  0  0  0  0  0
   -6.6163    2.6943    1.8769 H   0  0  0  0  0  0  0  0  0  0  0  0
   -4.0197   -1.0248    1.4926 H   0  0  0  0  0  0  0  0  0  0  0  0
  1  2  1  0
  2  3  2  0
  3  4  1  0
  4  5  1  0
  5  6  1  0
  6  7  1  0
  7  8  2  0
  7  9  1  0
  9 10  2  0
 10 11  1  0
 11 12  1  0
 12 13  2  0
 13 14  1  0
 13 15  1  0
 15 16  2  0
 16 17  1  0
 17 18  2  0
 18 19  1  0
 11 20  1  0
 20 21  2  0
  5 22  2  0
 22 23  1  0
 23 24  1  0
 24 25  2  0
 25 26  1  0
 26 27  1  0
 27 28  1  0
 28 29  1  0
 29 30  1  0
 30 31  1  0
 31 32  1  0
 22  2  1  0
 32 23  2  0
 21  9  1  0
 31 26  2  0
 18 12  1  0
  1 33  1  0
  1 34  1  0
  1 35  1  0
  4 36  1  0
  6 37  1  0
 15 38  1  0
 16 39  1  0
 17 40  1  0
 20 41  1  0
 21 42  1  0
 24 43  1  0
 25 44  1  0
 28 45  1  0
 28 46  1  0
 29 47  1  0
 29 48  1  0
 32 49  1  0
M  END
$$$$
OCNT-2309602
     RDKit          3D

 37 39  0  0  0  0  0  0  0  0999 V2000
    1.4119    2.1808   -3.7568 O   0  0  0  0  0  0  0  0  0  0  0  0
    0.4735    1.4514   -2.9226 S   0  0  0  0  0  0  0  0  0  0  0  0
   -0.6300    0.7410   -3.5316 O   0  0  0  0  0  0  0  0  0  0  0  0
   -0.0910    2.5736   -1.8267 N   0  0  0  0  0  0  0  0  0  0  0  0
   -0.9566    2.3101   -0.7868 C   0  0  0  0  0  0  0  0  0  0  0  0
   -1.3381    1.0928   -0.4314 N   0  0  0  0  0  0  0  0  0  0  0  0
   -2.1715    1.2583    0.6322 N   0  0  0  0  0  0  0  0  0  0  0  0
   -2.7635    0.1171    1.2637 C   0  0  0  0  0  0  0  0  0  0  0  0
   -2.4383   -1.1185    0.7721 N   0  0  0  0  0  0  0  0  0  0  0  0
   -2.9922   -2.2017    1.3578 C   0  0  0  0  0  0  0  0  0  0  0  0
   -3.8648   -2.1293    2.4283 C   0  0  0  0  0  0  0  0  0  0  0  0
   -4.1881   -0.8718    2.9250 C   0  0  0  0  0  0  0  0  0  0  0  0
   -3.6342    0.2641    2.3390 C   0  0  0  0  0  0  0  0  0  0  0  0
   -3.9775    1.4537    2.8487 F   0  0  0  0  0  0  0  0  0  0  0  0
   -2.2944    2.5991    0.9415 C   0  0  0  0  0  0  0  0  0  0  0  0
   -1.5156    3.2932    0.0453 C   0  0  0  0  0  0  0  0  0  0  0  0
    1.4348    0.3232   -1.9419 C   0  0  0  0  0  0  0  0  0  0  0  0
    2.7680    0.6235   -1.6493 C   0  0  0  0  0  0  0  0  0  0  0  0
    3.5395   -0.2788   -0.9074 C   0  0  0  0  0  0  0  0  0  0  0  0
    2.9845   -1.4829   -0.4655 C   0  0  0  0  0  0  0  0  0  0  0  0
    3.6160   -2.4477    0.2661 O   0  0  0  0  0  0  0  0  0  0  0  0
    4.9588   -2.2134    0.6508 C   0  0  0  0  0  0  0  0  0  0  0  0
    5.0616   -1.1066    1.4180 F   0  0  0  0  0  0  0  0  0  0  0  0
    5.3918   -3.2677    1.3776 F   0  0  0  0  0  0  0  0  0  0  0  0
    5.7618   -2.0902   -0.4275 F   0  0  0  0  0  0  0  0  0  0  0  0
    1.6533   -1.7787   -0.7817 C   0  0  0  0  0  0  0  0  0  0  0  0
    0.8791   -0.8864   -1.5257 C   0  0  0  0  0  0  0  0  0  0  0  0
    0.2337    3.5183   -2.0013 H   0  0  0  0  0  0  0  0  0  0  0  0
   -2.7060   -3.1578    0.9276 H   0  0  0  0  0  0  0  0  0  0  0  0
   -4.2836   -3.0300    2.8639 H   0  0  0  0  0  0  0  0  0  0  0  0
   -4.8696   -0.7659    3.7634 H   0  0  0  0  0  0  0  0  0  0  0  0
   -2.9057    2.9557    1.7554 H   0  0  0  0  0  0  0  0  0  0  0  0
   -1.3814    4.3642    0.0029 H   0  0  0  0  0  0  0  0  0  0  0  0
    3.2156    1.5519   -1.9972 H   0  0  0  0  0  0  0  0  0  0  0  0
    4.5702   -0.0049   -0.7004 H   0  0  0  0  0  0  0  0  0  0  0  0
    1.2061   -2.7111   -0.4436 H   0  0  0  0  0  0  0  0  0  0  0  0
   -0.1581   -1.1287   -1.7524 H   0  0  0  0  0  0  0  0  0  0  0  0
  1  2  2  0
  2  3  2  0
  2  4  1  0
  4  5  1  0
  5  6  2  0
  6  7  1  0
  7  8  1  0
  8  9  1  0
  9 10  2  0
 10 11  1  0
 11 12  2  0
 12 13  1  0
 13 14  1  0
  7 15  1  0
 15 16  2  0
  2 17  1  0
 17 18  1  0
 18 19  2  0
 19 20  1  0
 20 21  1  0
 21 22  1  0
 22 23  1  0
 22 24  1  0
 22 25  1  0
 20 26  2  0
 26 27  1  0
 16  5  1  0
 27 17  2  0
 13  8  2  0
  4 28  1  0
 10 29  1  0
 11 30  1  0
 12 31  1  0
 15 32  1  0
 16 33  1  0
 18 34  1  0
 19 35  1  0
 26 36  1  0
 27 37  1  0
M  END
$$$$
OCNT-2309614
     RDKit          3D

 43 45  0  0  0  0  0  0  0  0999 V2000
    6.3172    1.3212   -0.0199 C   0  0  0  0  0  0  0  0  0  0  0  0
    5.6916    0.1919   -0.8186 C   0  0  0  0  0  0  0  0  0  0  0  0
    4.2494    0.2211   -0.7668 N   0  0  0  0  0  0  0  0  0  0  0  0
    3.5430    0.9500   -1.6576 N   0  0  0  0  0  0  0  0  0  0  0  0
    2.2537    0.7863   -1.3709 N   0  0  0  0  0  0  0  0  0  0  0  0
    2.1627   -0.0548   -0.2893 C   0  0  0  0  0  0  0  0  0  0  0  0
    1.0785   -0.5748    0.4377 C   0  0  0  0  0  0  0  0  0  0  0  0
   -0.2452   -0.2527    0.1327 N   0  0  0  0  0  0  0  0  0  0  0  0
   -1.2446   -1.2541    0.4997 C   0  0  0  0  0  0  0  0  0  0  0  0
   -2.6928   -0.8625    0.0375 C   0  0  2  0  0  0  0  0  0  0  0  0
   -3.6638   -1.9518    0.5766 C   0  0  0  0  0  0  0  0  0  0  0  0
   -3.3460   -3.2462    0.0730 O   0  0  0  0  0  0  0  0  0  0  0  0
   -2.7678   -0.8743   -1.5139 C   0  0  0  0  0  0  0  0  0  0  0  0
   -2.1136    0.2668   -2.0911 O   0  0  0  0  0  0  0  0  0  0  0  0
   -2.7779    1.4615   -1.6593 C   0  0  0  0  0  0  0  0  0  0  0  0
   -2.6864    1.6200   -0.1310 C   0  0  1  0  0  0  0  0  0  0  0  0
   -3.4863    2.8384    0.3263 C   0  0  0  0  0  0  0  0  0  0  0  0
   -3.1713    0.4381    0.6105 N   0  0  0  0  0  0  0  0  0  0  0  0
    1.3667   -1.3999    1.4828 N   0  0  0  0  0  0  0  0  0  0  0  0
    2.6587   -1.6784    1.7639 C   0  0  0  0  0  0  0  0  0  0  0  0
    3.7640   -1.2400    1.1310 N   0  0  0  0  0  0  0  0  0  0  0  0
    3.4321   -0.4294    0.1116 C   0  0  0  0  0  0  0  0  0  0  0  0
    6.0301    1.2643    1.0354 H   0  0  0  0  0  0  0  0  0  0  0  0
    5.9986    2.2976   -0.4001 H   0  0  0  0  0  0  0  0  0  0  0  0
    7.4087    1.2705   -0.0805 H   0  0  0  0  0  0  0  0  0  0  0  0
    5.9896    0.2529   -1.8711 H   0  0  0  0  0  0  0  0  0  0  0  0
    6.0250   -0.7787   -0.4358 H   0  0  0  0  0  0  0  0  0  0  0  0
   -0.3330    0.0775   -0.8323 H   0  0  0  0  0  0  0  0  0  0  0  0
   -1.2491   -1.3762    1.5912 H   0  0  0  0  0  0  0  0  0  0  0  0
   -0.9682   -2.2217    0.0606 H   0  0  0  0  0  0  0  0  0  0  0  0
   -3.6258   -1.9984    1.6715 H   0  0  0  0  0  0  0  0  0  0  0  0
   -4.6966   -1.7257    0.2850 H   0  0  0  0  0  0  0  0  0  0  0  0
   -4.0066   -3.8617    0.4382 H   0  0  0  0  0  0  0  0  0  0  0  0
   -3.8080   -0.8930   -1.8644 H   0  0  0  0  0  0  0  0  0  0  0  0
   -2.2780   -1.7652   -1.9226 H   0  0  0  0  0  0  0  0  0  0  0  0
   -2.2838    2.3054   -2.1528 H   0  0  0  0  0  0  0  0  0  0  0  0
   -3.8189    1.4428   -2.0057 H   0  0  0  0  0  0  0  0  0  0  0  0
   -1.6397    1.7970    0.1363 H   0  0  0  0  0  0  0  0  0  0  0  0
   -4.5527    2.7264    0.1002 H   0  0  0  0  0  0  0  0  0  0  0  0
   -3.1294    3.7450   -0.1744 H   0  0  0  0  0  0  0  0  0  0  0  0
   -3.3836    2.9944    1.4060 H   0  0  0  0  0  0  0  0  0  0  0  0
   -2.8246    0.5121    1.5692 H   0  0  0  0  0  0  0  0  0  0  0  0
    2.8246   -2.3412    2.6087 H   0  0  0  0  0  0  0  0  0  0  0  0
  1  2  1  0
  2  3  1  0
  3  4  1  0
  4  5  2  0
  5  6  1  0
  6  7  2  0
  7  8  1  0
  8  9  1  0
 10  9  1  6
 10 11  1  0
 11 12  1  0
 10 13  1  0
 13 14  1  0
 14 15  1  0
 15 16  1  0
 16 17  1  0
 16 18  1  0
  7 19  1  0
 19 20  2  0
 20 21  1  0
 21 22  2  0
 22  3  1  0
 22  6  1  0
 18 10  1  0
  1 23  1  0
  1 24  1  0
  1 25  1  0
  2 26  1  0
  2 27  1  0
  8 28  1  0
  9 29  1  0
  9 30  1  0
 11 31  1  0
 11 32  1  0
 12 33  1  0
 13 34  1  0
 13 35  1  0
 15 36  1  0
 15 37  1  0
 16 38  1  6
 17 39  1  0
 17 40  1  0
 17 41  1  0
 18 42  1  0
 20 43  1  0
M  END
$$$$
OCNT-2309634
     RDKit          3D

 52 56  0  0  0  0  0  0  0  0999 V2000
   -7.0381   -0.0051    1.1067 C   0  0  0  0  0  0  0  0  0  0  0  0
   -6.0607    0.3820    0.0325 C   0  0  0  0  0  0  0  0  0  0  0  0
   -6.4376    0.8915   -1.2276 C   0  0  0  0  0  0  0  0  0  0  0  0
   -7.6535    1.1964   -1.8852 C   0  0  0  0  0  0  0  0  0  0  0  0
   -7.4734    1.6733   -3.1195 N   0  0  0  0  0  0  0  0  0  0  0  0
   -6.1367    1.6782   -3.2557 N   0  0  0  0  0  0  0  0  0  0  0  0
   -5.4576    1.2165   -2.1580 C   0  0  0  0  0  0  0  0  0  0  0  0
   -4.0882    1.0645   -1.9126 C   0  0  0  0  0  0  0  0  0  0  0  0
   -3.7036    0.5714   -0.6576 C   0  0  0  0  0  0  0  0  0  0  0  0
   -2.3200    0.4114   -0.4323 N   0  0  0  0  0  0  0  0  0  0  0  0
   -1.6871    0.2156    0.7775 C   0  0  0  0  0  0  0  0  0  0  0  0
   -2.2244    0.3285    1.8758 O   0  0  0  0  0  0  0  0  0  0  0  0
   -0.3247   -0.0941    0.6464 N   0  0  0  0  0  0  0  0  0  0  0  0
    0.1250   -0.9703   -0.4369 C   0  0  0  0  0  0  0  0  0  0  0  0
    1.6155   -1.0992   -0.4785 C   0  0  0  0  0  0  0  0  0  0  0  0
    2.4451   -0.6239    0.4648 C   0  0  0  0  0  0  0  0  0  0  0  0
    3.8651   -0.7303    0.3926 C   0  0  0  0  0  0  0  0  0  0  0  0
    4.6242   -1.6783    1.0524 C   0  0  0  0  0  0  0  0  0  0  0  0
    4.2460   -2.7860    1.9661 C   0  0  0  0  0  0  0  0  0  0  0  0
    5.9377   -1.4371    0.7244 N   0  0  0  0  0  0  0  0  0  0  0  0
    6.0386   -0.3678   -0.1361 C   0  0  0  0  0  0  0  0  0  0  0  0
    7.1689    0.2158   -0.7216 C   0  0  0  0  0  0  0  0  0  0  0  0
    6.9680    1.3105   -1.5684 C   0  0  0  0  0  0  0  0  0  0  0  0
    5.6880    1.8004   -1.8176 C   0  0  0  0  0  0  0  0  0  0  0  0
    4.5693    1.2043   -1.2245 C   0  0  0  0  0  0  0  0  0  0  0  0
    4.7445    0.0982   -0.3665 C   0  0  0  0  0  0  0  0  0  0  0  0
    1.9209    0.0787    1.6865 C   0  0  0  0  0  0  0  0  0  0  0  0
    0.4319   -0.2005    1.8945 C   0  0  0  0  0  0  0  0  0  0  0  0
   -4.6775    0.2308    0.2864 C   0  0  0  0  0  0  0  0  0  0  0  0
   -6.8678    0.5962    2.0059 H   0  0  0  0  0  0  0  0  0  0  0  0
   -8.0718    0.1532    0.7853 H   0  0  0  0  0  0  0  0  0  0  0  0
   -6.9212   -1.0642    1.3577 H   0  0  0  0  0  0  0  0  0  0  0  0
   -8.6628    1.0864   -1.5102 H   0  0  0  0  0  0  0  0  0  0  0  0
   -5.7464    2.0126   -4.1292 H   0  0  0  0  0  0  0  0  0  0  0  0
   -3.3584    1.3296   -2.6697 H   0  0  0  0  0  0  0  0  0  0  0  0
   -1.7109    0.7281   -1.1704 H   0  0  0  0  0  0  0  0  0  0  0  0
   -0.3314   -1.9555   -0.2884 H   0  0  0  0  0  0  0  0  0  0  0  0
   -0.2190   -0.5862   -1.4007 H   0  0  0  0  0  0  0  0  0  0  0  0
    2.0304   -1.6113   -1.3439 H   0  0  0  0  0  0  0  0  0  0  0  0
    3.2850   -3.2229    1.6773 H   0  0  0  0  0  0  0  0  0  0  0  0
    4.1620   -2.4164    2.9929 H   0  0  0  0  0  0  0  0  0  0  0  0
    4.9925   -3.5865    1.9493 H   0  0  0  0  0  0  0  0  0  0  0  0
    6.7274   -1.9683    1.0635 H   0  0  0  0  0  0  0  0  0  0  0  0
    8.1675   -0.1614   -0.5282 H   0  0  0  0  0  0  0  0  0  0  0  0
    7.8250    1.7888   -2.0364 H   0  0  0  0  0  0  0  0  0  0  0  0
    5.5545    2.6551   -2.4754 H   0  0  0  0  0  0  0  0  0  0  0  0
    3.5746    1.5932   -1.4193 H   0  0  0  0  0  0  0  0  0  0  0  0
    2.0745    1.1585    1.5616 H   0  0  0  0  0  0  0  0  0  0  0  0
    2.4606   -0.2252    2.5910 H   0  0  0  0  0  0  0  0  0  0  0  0
    0.2750   -1.2113    2.2933 H   0  0  0  0  0  0  0  0  0  0  0  0
    0.0407    0.5046    2.6370 H   0  0  0  0  0  0  0  0  0  0  0  0
   -4.3855   -0.1727    1.2538 H   0  0  0  0  0  0  0  0  0  0  0  0
  1  2  1  0
  2  3  2  0
  3  4  1  0
  4  5  2  0
  5  6  1  0
  6  7  1  0
  7  8  2  0
  8  9  1  0
  9 10  1  0
 10 11  1  0
 11 12  2  0
 11 13  1  0
 13 14  1  0
 14 15  1  0
 15 16  2  0
 16 17  1  0
 17 18  2  0
 18 19  1  0
 18 20  1  0
 20 21  1  0
 21 22  2  0
 22 23  1  0
 23 24  2  0
 24 25  1  0
 25 26  2  0
 16 27  1  0
 27 28  1  0
  9 29  2  0
 29  2  1  0
  7  3  1  0
 28 13  1  0
 26 17  1  0
 26 21  1  0
  1 30  1  0
  1 31  1  0
  1 32  1  0
  4 33  1  0
  6 34  1  0
  8 35  1  0
 10 36  1  0
 14 37  1  0
 14 38  1  0
 15 39  1  0
 19 40  1  0
 19 41  1  0
 19 42  1  0
 20 43  1  0
 22 44  1  0
 23 45  1  0
 24 46  1  0
 25 47  1  0
 27 48  1  0
 27 49  1  0
 28 50  1  0
 28 51  1  0
 29 52  1  0
M  END
$$$$
OCNT-2309641
     RDKit          3D

 50 53  0  0  0  0  0  0  0  0999 V2000
    1.1910   -2.8476    0.7787 C   0  0  0  0  0  0  0  0  0  0  0  0
    1.8914   -1.5705    0.4906 C   0  0  0  0  0  0  0  0  0  0  0  0
    3.2220   -1.5595    0.3865 N   0  0  0  0  0  0  0  0  0  0  0  0
    3.5331   -0.3038   -0.0240 N   0  0  0  0  0  0  0  0  0  0  0  0
    4.8733   -0.0233   -0.4015 C   0  0  0  0  0  0  0  0  0  0  0  0
    5.8957   -0.6696    0.3211 C   0  0  0  0  0  0  0  0  0  0  0  0
    7.2381   -0.4153    0.0355 C   0  0  0  0  0  0  0  0  0  0  0  0
    7.5671    0.4653   -0.9889 C   0  0  0  0  0  0  0  0  0  0  0  0
    9.2200    0.7831   -1.3439 Cl  0  0  0  0  0  0  0  0  0  0  0  0
    6.5677    1.0725   -1.7461 C   0  0  0  0  0  0  0  0  0  0  0  0
    5.2174    0.8194   -1.4677 C   0  0  0  0  0  0  0  0  0  0  0  0
    4.0828    1.4502   -2.6104 Cl  0  0  0  0  0  0  0  0  0  0  0  0
    2.4441    0.5460    0.1216 C   0  0  0  0  0  0  0  0  0  0  0  0
    2.5131    2.0327    0.1212 C   0  0  0  0  0  0  0  0  0  0  0  0
    1.3421   -0.2716    0.3408 C   0  0  0  0  0  0  0  0  0  0  0  0
   -0.0934    0.1363    0.4938 C   0  0  0  0  0  0  0  0  0  0  0  0
   -1.0232   -0.4590   -0.5509 C   0  0  0  0  0  0  0  0  0  0  0  0
   -0.5815   -1.0768   -1.5269 O   0  0  0  0  0  0  0  0  0  0  0  0
   -2.3918   -0.3183   -0.3893 N   0  0  0  0  0  0  0  0  0  0  0  0
   -3.2845   -0.9345   -1.3819 C   0  0  0  0  0  0  0  0  0  0  0  0
   -4.7197   -0.8271   -0.8539 C   0  0  0  0  0  0  0  0  0  0  0  0
   -5.6933   -0.3904   -1.9461 C   0  0  0  0  0  0  0  0  0  0  0  0
   -7.0461   -0.5583   -1.5286 O   0  0  0  0  0  0  0  0  0  0  0  0
   -4.5371    0.1592    0.2704 C   0  0  0  0  0  0  0  0  0  0  0  0
   -5.5408    0.7487    1.0311 C   0  0  0  0  0  0  0  0  0  0  0  0
   -5.1778    1.6062    2.0656 C   0  0  0  0  0  0  0  0  0  0  0  0
   -3.8273    1.8577    2.3277 C   0  0  0  0  0  0  0  0  0  0  0  0
   -2.8216    1.2548    1.5606 C   0  0  0  0  0  0  0  0  0  0  0  0
   -3.1804    0.3986    0.5314 C   0  0  0  0  0  0  0  0  0  0  0  0
    1.7609   -3.4550    1.4891 H   0  0  0  0  0  0  0  0  0  0  0  0
    0.2032   -2.6730    1.2147 H   0  0  0  0  0  0  0  0  0  0  0  0
    1.0614   -3.4234   -0.1423 H   0  0  0  0  0  0  0  0  0  0  0  0
    5.6516   -1.3581    1.1301 H   0  0  0  0  0  0  0  0  0  0  0  0
    8.0152   -0.9077    0.6147 H   0  0  0  0  0  0  0  0  0  0  0  0
    6.8413    1.7197   -2.5761 H   0  0  0  0  0  0  0  0  0  0  0  0
    3.5341    2.4113    0.2165 H   0  0  0  0  0  0  0  0  0  0  0  0
    2.0576    2.4433   -0.7845 H   0  0  0  0  0  0  0  0  0  0  0  0
    1.9553    2.4293    0.9770 H   0  0  0  0  0  0  0  0  0  0  0  0
   -0.4217   -0.1866    1.4874 H   0  0  0  0  0  0  0  0  0  0  0  0
   -0.1668    1.2257    0.4171 H   0  0  0  0  0  0  0  0  0  0  0  0
   -2.9983   -1.9799   -1.5462 H   0  0  0  0  0  0  0  0  0  0  0  0
   -3.1444   -0.3976   -2.3287 H   0  0  0  0  0  0  0  0  0  0  0  0
   -5.0324   -1.7830   -0.4155 H   0  0  0  0  0  0  0  0  0  0  0  0
   -5.5525    0.6616   -2.2154 H   0  0  0  0  0  0  0  0  0  0  0  0
   -5.5573   -0.9926   -2.8509 H   0  0  0  0  0  0  0  0  0  0  0  0
   -7.1959   -1.5079   -1.3799 H   0  0  0  0  0  0  0  0  0  0  0  0
   -6.5897    0.5492    0.8287 H   0  0  0  0  0  0  0  0  0  0  0  0
   -5.9461    2.0818    2.6705 H   0  0  0  0  0  0  0  0  0  0  0  0
   -3.5561    2.5335    3.1362 H   0  0  0  0  0  0  0  0  0  0  0  0
   -1.7998    1.5042    1.8049 H   0  0  0  0  0  0  0  0  0  0  0  0
  1  2  1  0
  2  3  2  0
  3  4  1  0
  4  5  1  0
  5  6  1  0
  6  7  2  0
  7  8  1  0
  8  9  1  0
  8 10  2  0
 10 11  1  0
 11 12  1  0
  4 13  1  0
 13 14  1  0
 13 15  2  0
 15 16  1  0
 16 17  1  0
 17 18  2  0
 17 19  1  0
 19 20  1  0
 20 21  1  0
 21 22  1  0
 22 23  1  0
 21 24  1  0
 24 25  2  0
 25 26  1  0
 26 27  2  0
 27 28  1  0
 28 29  2  0
 15  2  1  0
 29 19  1  0
 11  5  2  0
 29 24  1  0
  1 30  1  0
  1 31  1  0
  1 32  1  0
  6 33  1  0
  7 34  1  0
 10 35  1  0
 14 36  1  0
 14 37  1  0
 14 38  1  0
 16 39  1  0
 16 40  1  0
 20 41  1  0
 20 42  1  0
 21 43  1  0
 22 44  1  0
 22 45  1  0
 23 46  1  0
 25 47  1  0
 26 48  1  0
 27 49  1  0
 28 50  1  0
M  END
$$$$
OCNT-2309646
     RDKit          3D

 44 45  0  0  0  0  0  0  0  0999 V2000
   -6.4188    2.5297    0.3668 C   0  0  0  0  0  0  0  0  0  0  0  0
   -5.7922    1.3811    0.9233 O   0  0  0  0  0  0  0  0  0  0  0  0
   -4.5378    1.0810    0.4696 C   0  0  0  0  0  0  0  0  0  0  0  0
   -3.8165    1.7940   -0.4856 C   0  0  0  0  0  0  0  0  0  0  0  0
   -2.5342    1.3732   -0.8598 C   0  0  0  0  0  0  0  0  0  0  0  0
   -1.9511    0.2334   -0.2879 C   0  0  0  0  0  0  0  0  0  0  0  0
   -0.5624   -0.1911   -0.7070 C   0  0  0  0  0  0  0  0  0  0  0  0
   -0.4549   -1.6293   -1.2385 C   0  0  0  0  0  0  0  0  0  0  0  0
    0.7778   -2.2362   -0.5500 C   0  0  0  0  0  0  0  0  0  0  0  0
    0.3620   -3.2680    0.5058 C   0  0  0  0  0  0  0  0  0  0  0  0
    1.5098   -1.0557   -0.0559 N   0  0  0  0  0  0  0  0  0  0  0  0
    2.5220   -1.3513    0.9793 C   0  0  0  0  0  0  0  0  0  0  0  0
    3.5210   -0.1964    1.1394 C   0  0  0  0  0  0  0  0  0  0  0  0
    4.2125   -0.0541    2.1434 O   0  0  0  0  0  0  0  0  0  0  0  0
    3.6210    0.6294    0.0425 N   0  0  0  0  0  0  0  0  0  0  0  0
    4.6661    1.6394   -0.0698 C   0  0  0  0  0  0  0  0  0  0  0  0
    6.0078    1.1250   -0.5959 C   0  0  0  0  0  0  0  0  0  0  0  0
    6.5535    0.1786    0.1938 F   0  0  0  0  0  0  0  0  0  0  0  0
    5.8618    0.5941   -1.8344 F   0  0  0  0  0  0  0  0  0  0  0  0
    6.8981    2.1396   -0.6993 F   0  0  0  0  0  0  0  0  0  0  0  0
    0.4742   -0.1238    0.4180 C   0  0  0  0  0  0  0  0  0  0  0  0
   -2.6848   -0.4750    0.6724 C   0  0  0  0  0  0  0  0  0  0  0  0
   -3.9642   -0.0535    1.0445 C   0  0  0  0  0  0  0  0  0  0  0  0
   -6.5679    2.4145   -0.7119 H   0  0  0  0  0  0  0  0  0  0  0  0
   -7.4051    2.6299    0.8300 H   0  0  0  0  0  0  0  0  0  0  0  0
   -5.8509    3.4381    0.5934 H   0  0  0  0  0  0  0  0  0  0  0  0
   -4.2192    2.6820   -0.9609 H   0  0  0  0  0  0  0  0  0  0  0  0
   -1.9944    1.9502   -1.6083 H   0  0  0  0  0  0  0  0  0  0  0  0
   -0.2214    0.4731   -1.5152 H   0  0  0  0  0  0  0  0  0  0  0  0
   -0.2959   -1.5936   -2.3241 H   0  0  0  0  0  0  0  0  0  0  0  0
   -1.3592   -2.2249   -1.0729 H   0  0  0  0  0  0  0  0  0  0  0  0
    1.3929   -2.7517   -1.2974 H   0  0  0  0  0  0  0  0  0  0  0  0
   -0.2331   -2.8209    1.3081 H   0  0  0  0  0  0  0  0  0  0  0  0
    1.2347   -3.7498    0.9582 H   0  0  0  0  0  0  0  0  0  0  0  0
   -0.2413   -4.0592    0.0468 H   0  0  0  0  0  0  0  0  0  0  0  0
    2.0650   -1.5587    1.9534 H   0  0  0  0  0  0  0  0  0  0  0  0
    3.1220   -2.2179    0.6765 H   0  0  0  0  0  0  0  0  0  0  0  0
    3.0847    0.3385   -0.7725 H   0  0  0  0  0  0  0  0  0  0  0  0
    4.2827    2.4100   -0.7461 H   0  0  0  0  0  0  0  0  0  0  0  0
    4.8161    2.0993    0.9128 H   0  0  0  0  0  0  0  0  0  0  0  0
    0.8543    0.8967    0.5351 H   0  0  0  0  0  0  0  0  0  0  0  0
    0.0582   -0.4398    1.3825 H   0  0  0  0  0  0  0  0  0  0  0  0
   -2.2732   -1.3639    1.1438 H   0  0  0  0  0  0  0  0  0  0  0  0
   -4.5197   -0.6161    1.7911 H   0  0  0  0  0  0  0  0  0  0  0  0
  1  2  1  0
  2  3  1  0
  3  4  1  0
  4  5  2  0
  5  6  1  0
  6  7  1  0
  7  8  1  0
  8  9  1  0
  9 10  1  0
  9 11  1  0
 11 12  1  0
 12 13  1  0
 13 14  2  0
 13 15  1  0
 15 16  1  0
 16 17  1  0
 17 18  1  0
 17 19  1  0
 17 20  1  0
 11 21  1  0
  6 22  2  0
 22 23  1  0
 23  3  2  0
 21  7  1  0
  1 24  1  0
  1 25  1  0
  1 26  1  0
  4 27  1  0
  5 28  1  0
  7 29  1  0
  8 30  1  0
  8 31  1  0
  9 32  1  0
 10 33  1  0
 10 34  1  0
 10 35  1  0
 12 36  1  0
 12 37  1  0
 15 38  1  0
 16 39  1  0
 16 40  1  0
 21 41  1  0
 21 42  1  0
 22 43  1  0
 23 44  1  0
M  END
$$$$
OCNT-2309655
     RDKit          3D

 58 60  0  0  0  0  0  0  0  0999 V2000
    9.7096    0.4989    1.0191 C   0  0  0  0  0  0  0  0  0  0  0  0
    9.0890   -0.7498    1.2979 O   0  0  0  0  0  0  0  0  0  0  0  0
    7.8124   -0.9231    0.8407 C   0  0  0  0  0  0  0  0  0  0  0  0
    7.0559    0.0161    0.1403 C   0  0  0  0  0  0  0  0  0  0  0  0
    5.7515   -0.2888   -0.2740 C   0  0  0  0  0  0  0  0  0  0  0  0
    5.1946   -1.5422    0.0131 C   0  0  0  0  0  0  0  0  0  0  0  0
    3.8777   -1.8704   -0.4000 N   0  0  0  0  0  0  0  0  0  0  0  0
    2.9769   -1.1042   -1.0991 C   0  0  0  0  0  0  0  0  0  0  0  0
    1.8573   -1.8959   -1.2306 C   0  0  0  0  0  0  0  0  0  0  0  0
    0.5537   -1.5952   -1.8722 C   0  0  0  0  0  0  0  0  0  0  0  0
   -0.3144   -0.9481   -0.9111 N   0  0  0  0  0  0  0  0  0  0  0  0
   -0.2695    0.4095   -0.7352 C   0  0  0  0  0  0  0  0  0  0  0  0
    0.4593    1.1280   -1.4161 O   0  0  0  0  0  0  0  0  0  0  0  0
   -1.1168    0.9061    0.2457 N   0  0  0  0  0  0  0  0  0  0  0  0
   -1.0800    2.3382    0.4932 C   0  0  0  0  0  0  0  0  0  0  0  0
   -2.2168    0.1526    0.8674 C   0  0  0  0  0  0  0  0  0  0  0  0
   -3.3725   -0.1801   -0.0859 C   0  0  0  0  0  0  0  0  0  0  0  0
   -4.3619    0.9796   -0.3433 C   0  0  0  0  0  0  0  0  0  0  0  0
   -5.3148    0.6239   -1.5016 C   0  0  0  0  0  0  0  0  0  0  0  0
   -6.2866   -0.5002   -1.1507 C   0  0  0  0  0  0  0  0  0  0  0  0
   -6.7715   -0.4137    0.2940 C   0  0  0  0  0  0  0  0  0  0  0  0
   -6.5126    0.9631    0.8983 C   0  0  0  0  0  0  0  0  0  0  0  0
   -5.0804    1.3017    0.9106 N   0  0  0  0  0  0  0  0  0  0  0  0
   -4.9103    2.7048    1.2921 C   0  0  0  0  0  0  0  0  0  0  0  0
    2.0904   -3.0990   -0.6261 N   0  0  0  0  0  0  0  0  0  0  0  0
    3.3192   -3.0780   -0.1280 N   0  0  0  0  0  0  0  0  0  0  0  0
    5.9546   -2.4843    0.7187 C   0  0  0  0  0  0  0  0  0  0  0  0
    7.2542   -2.1708    1.1270 C   0  0  0  0  0  0  0  0  0  0  0  0
    9.8133    0.6549   -0.0599 H   0  0  0  0  0  0  0  0  0  0  0  0
   10.7151    0.4763    1.4506 H   0  0  0  0  0  0  0  0  0  0  0  0
    9.1648    1.3251    1.4881 H   0  0  0  0  0  0  0  0  0  0  0  0
    7.4486    0.9986   -0.1009 H   0  0  0  0  0  0  0  0  0  0  0  0
    5.2015    0.4762   -0.8148 H   0  0  0  0  0  0  0  0  0  0  0  0
    3.1715   -0.0942   -1.4242 H   0  0  0  0  0  0  0  0  0  0  0  0
    0.6846   -0.9618   -2.7557 H   0  0  0  0  0  0  0  0  0  0  0  0
    0.0599   -2.5214   -2.1827 H   0  0  0  0  0  0  0  0  0  0  0  0
   -0.4980   -1.4896   -0.0819 H   0  0  0  0  0  0  0  0  0  0  0  0
   -1.2619    2.5320    1.5543 H   0  0  0  0  0  0  0  0  0  0  0  0
   -0.1058    2.7624    0.2321 H   0  0  0  0  0  0  0  0  0  0  0  0
   -1.8451    2.8286   -0.1130 H   0  0  0  0  0  0  0  0  0  0  0  0
   -2.5652    0.6893    1.7563 H   0  0  0  0  0  0  0  0  0  0  0  0
   -1.7986   -0.7879    1.2424 H   0  0  0  0  0  0  0  0  0  0  0  0
   -3.9162   -1.0317    0.3425 H   0  0  0  0  0  0  0  0  0  0  0  0
   -2.9740   -0.5304   -1.0455 H   0  0  0  0  0  0  0  0  0  0  0  0
   -3.7784    1.8427   -0.6850 H   0  0  0  0  0  0  0  0  0  0  0  0
   -4.7460    0.3496   -2.3984 H   0  0  0  0  0  0  0  0  0  0  0  0
   -5.8896    1.5197   -1.7736 H   0  0  0  0  0  0  0  0  0  0  0  0
   -5.8141   -1.4758   -1.3150 H   0  0  0  0  0  0  0  0  0  0  0  0
   -7.1417   -0.4571   -1.8355 H   0  0  0  0  0  0  0  0  0  0  0  0
   -6.2673   -1.1785    0.8978 H   0  0  0  0  0  0  0  0  0  0  0  0
   -7.8414   -0.6482    0.3382 H   0  0  0  0  0  0  0  0  0  0  0  0
   -7.0914    1.7129    0.3425 H   0  0  0  0  0  0  0  0  0  0  0  0
   -6.8891    0.9682    1.9283 H   0  0  0  0  0  0  0  0  0  0  0  0
   -5.4059    2.9083    2.2481 H   0  0  0  0  0  0  0  0  0  0  0  0
   -5.3191    3.3871    0.5381 H   0  0  0  0  0  0  0  0  0  0  0  0
   -3.8521    2.9423    1.4367 H   0  0  0  0  0  0  0  0  0  0  0  0
    5.5560   -3.4679    0.9614 H   0  0  0  0  0  0  0  0  0  0  0  0
    7.8371   -2.9087    1.6735 H   0  0  0  0  0  0  0  0  0  0  0  0
  1  2  1  0
  2  3  1  0
  3  4  1  0
  4  5  2  0
  5  6  1  0
  6  7  1  0
  7  8  1  0
  8  9  2  0
  9 10  1  0
 10 11  1  0
 11 12  1  0
 12 13  2  0
 12 14  1  0
 14 15  1  0
 14 16  1  0
 16 17  1  0
 17 18  1  0
 18 19  1  0
 19 20  1  0
 20 21  1  0
 21 22  1  0
 22 23  1  0
 23 24  1  0
  9 25  1  0
 25 26  2  0
  6 27  2  0
 27 28  1  0
 28  3  2  0
 26  7  1  0
 23 18  1  0
  1 29  1  0
  1 30  1  0
  1 31  1  0
  4 32  1  0
  5 33  1  0
  8 34  1  0
 10 35  1  0
 10 36  1  0
 11 37  1  0
 15 38  1  0
 15 39  1  0
 15 40  1  0
 16 41  1  0
 16 42  1  0
 17 43  1  0
 17 44  1  0
 18 45  1  0
 19 46  1  0
 19 47  1  0
 20 48  1  0
 20 49  1  0
 21 50  1  0
 21 51  1  0
 22 52  1  0
 22 53  1  0
 24 54  1  0
 24 55  1  0
 24 56  1  0
 27 57  1  0
 28 58  1  0
M  END
$$$$
OCNT-2309661
     RDKit          3D

 40 42  0  0  0  0  0  0  0  0999 V2000
    5.7146    4.2861    0.7131 N   0  0  0  0  0  0  0  0  0  0  0  0
    5.4034    3.1653    0.7081 C   0  0  0  0  0  0  0  0  0  0  0  0
    5.0251    1.7813    0.6964 C   0  0  0  0  0  0  0  0  0  0  0  0
    6.0066    0.7867    0.6416 C   0  0  0  0  0  0  0  0  0  0  0  0
    5.6394   -0.5605    0.6209 C   0  0  0  0  0  0  0  0  0  0  0  0
    4.2912   -0.9183    0.6551 C   0  0  0  0  0  0  0  0  0  0  0  0
    3.2942    0.0686    0.7194 C   0  0  0  0  0  0  0  0  0  0  0  0
    1.8361   -0.3131    0.7220 C   0  0  0  0  0  0  0  0  0  0  0  0
    1.3114   -0.3107   -0.6217 N   0  0  0  0  0  0  0  0  0  0  0  0
    0.5591    0.7285   -1.1242 C   0  0  0  0  0  0  0  0  0  0  0  0
    0.2915    1.7353   -0.4669 O   0  0  0  0  0  0  0  0  0  0  0  0
    0.1387    0.6030   -2.5825 C   0  0  0  0  0  0  0  0  0  0  0  0
   -0.1743   -1.1068   -3.1139 S   0  0  0  0  0  0  0  0  0  0  0  0
   -1.4490   -1.5517   -2.0159 C   0  0  0  0  0  0  0  0  0  0  0  0
   -1.7953   -2.8051   -1.7993 N   0  0  0  0  0  0  0  0  0  0  0  0
   -2.7822   -2.7152   -0.8491 C   0  0  0  0  0  0  0  0  0  0  0  0
   -3.0012   -1.3982   -0.5105 C   0  0  0  0  0  0  0  0  0  0  0  0
   -3.8745   -0.6864    0.4112 C   0  0  0  0  0  0  0  0  0  0  0  0
   -4.8350   -1.3829    1.1623 C   0  0  0  0  0  0  0  0  0  0  0  0
   -5.6876   -0.7056    2.0408 C   0  0  0  0  0  0  0  0  0  0  0  0
   -5.5918    0.6778    2.1810 C   0  0  0  0  0  0  0  0  0  0  0  0
   -4.6383    1.3827    1.4505 C   0  0  0  0  0  0  0  0  0  0  0  0
   -3.7842    0.7063    0.5740 C   0  0  0  0  0  0  0  0  0  0  0  0
   -2.1543   -0.6419   -1.2788 O   0  0  0  0  0  0  0  0  0  0  0  0
    3.6727    1.4216    0.7327 C   0  0  0  0  0  0  0  0  0  0  0  0
    7.0616    1.0543    0.6113 H   0  0  0  0  0  0  0  0  0  0  0  0
    6.4050   -1.3329    0.5756 H   0  0  0  0  0  0  0  0  0  0  0  0
    4.0228   -1.9737    0.6305 H   0  0  0  0  0  0  0  0  0  0  0  0
    1.2629    0.3659    1.3641 H   0  0  0  0  0  0  0  0  0  0  0  0
    1.7053   -1.3248    1.1229 H   0  0  0  0  0  0  0  0  0  0  0  0
    1.5456   -1.0854   -1.2331 H   0  0  0  0  0  0  0  0  0  0  0  0
    0.9403    1.0205   -3.1976 H   0  0  0  0  0  0  0  0  0  0  0  0
   -0.7640    1.2001   -2.7473 H   0  0  0  0  0  0  0  0  0  0  0  0
   -3.2693   -3.5993   -0.4587 H   0  0  0  0  0  0  0  0  0  0  0  0
   -4.9432   -2.4617    1.0680 H   0  0  0  0  0  0  0  0  0  0  0  0
   -6.4298   -1.2580    2.6123 H   0  0  0  0  0  0  0  0  0  0  0  0
   -6.2582    1.2055    2.8607 H   0  0  0  0  0  0  0  0  0  0  0  0
   -4.5521    2.4627    1.5647 H   0  0  0  0  0  0  0  0  0  0  0  0
   -3.0448    1.2838    0.0201 H   0  0  0  0  0  0  0  0  0  0  0  0
    2.9017    2.1960    0.7629 H   0  0  0  0  0  0  0  0  0  0  0  0
  1  2  3  0
  2  3  1  0
  3  4  1  0
  4  5  2  0
  5  6  1  0
  6  7  2  0
  7  8  1  0
  8  9  1  0
  9 10  1  0
 10 11  2  0
 10 12  1  0
 12 13  1  0
 13 14  1  0
 14 15  2  0
 15 16  1  0
 16 17  2  0
 17 18  1  0
 18 19  2  0
 19 20  1  0
 20 21  2  0
 21 22  1  0
 22 23  2  0
 17 24  1  0
  7 25  1  0
 25  3  2  0
 24 14  1  0
 23 18  1  0
  4 26  1  0
  5 27  1  0
  6 28  1  0
  8 29  1  0
  8 30  1  0
  9 31  1  0
 12 32  1  0
 12 33  1  0
 16 34  1  0
 19 35  1  0
 20 36  1  0
 21 37  1  0
 22 38  1  0
 23 39  1  0
 25 40  1  0
M  END
$$$$
OCNT-2309665
     RDKit          3D

 41 44  0  0  0  0  0  0  0  0999 V2000
    7.6637    1.5293   -0.6063 C   0  0  0  0  0  0  0  0  0  0  0  0
    6.2046    1.2531   -0.3762 C   0  0  0  0  0  0  0  0  0  0  0  0
    5.5465    1.8309    0.7126 C   0  0  0  0  0  0  0  0  0  0  0  0
    4.1804    1.6131    0.9252 C   0  0  0  0  0  0  0  0  0  0  0  0
    3.4509    0.8078    0.0299 C   0  0  0  0  0  0  0  0  0  0  0  0
    2.1009    0.5127    0.1159 N   0  0  0  0  0  0  0  0  0  0  0  0
    1.7616   -0.2619   -0.8786 C   0  0  0  0  0  0  0  0  0  0  0  0
    0.5455   -0.8030   -1.1844 N   0  0  0  0  0  0  0  0  0  0  0  0
   -0.6009   -0.5093   -0.4835 C   0  0  0  0  0  0  0  0  0  0  0  0
   -0.6773    0.2830    0.4471 O   0  0  0  0  0  0  0  0  0  0  0  0
   -1.7725   -1.2234   -0.9875 C   0  0  0  0  0  0  0  0  0  0  0  0
   -1.8250   -2.4485   -1.6479 C   0  0  0  0  0  0  0  0  0  0  0  0
   -3.1716   -2.7445   -1.9527 C   0  0  0  0  0  0  0  0  0  0  0  0
   -3.9277   -1.7039   -1.4754 C   0  0  0  0  0  0  0  0  0  0  0  0
   -3.0883   -0.7991   -0.8614 N   0  0  0  0  0  0  0  0  0  0  0  0
   -3.5652    0.4589   -0.2851 C   0  0  0  0  0  0  0  0  0  0  0  0
   -4.2621    0.2475    1.0349 C   0  0  0  0  0  0  0  0  0  0  0  0
   -5.6562    0.3219    1.1293 C   0  0  0  0  0  0  0  0  0  0  0  0
   -6.2545    0.1176    2.3639 C   0  0  0  0  0  0  0  0  0  0  0  0
   -5.5715   -0.1546    3.4946 N   0  0  0  0  0  0  0  0  0  0  0  0
   -4.2275   -0.2236    3.3849 C   0  0  0  0  0  0  0  0  0  0  0  0
   -3.5380   -0.0319    2.1975 C   0  0  0  0  0  0  0  0  0  0  0  0
    2.9961   -0.6929   -1.9735 S   0  0  0  0  0  0  0  0  0  0  0  0
    4.1191    0.2415   -1.0582 C   0  0  0  0  0  0  0  0  0  0  0  0
    5.4894    0.4571   -1.2856 C   0  0  0  0  0  0  0  0  0  0  0  0
    8.1331    0.7166   -1.1712 H   0  0  0  0  0  0  0  0  0  0  0  0
    8.1982    1.6135    0.3457 H   0  0  0  0  0  0  0  0  0  0  0  0
    7.7833    2.4626   -1.1657 H   0  0  0  0  0  0  0  0  0  0  0  0
    6.0917    2.4626    1.4123 H   0  0  0  0  0  0  0  0  0  0  0  0
    3.6728    2.0636    1.7723 H   0  0  0  0  0  0  0  0  0  0  0  0
    0.5039   -1.3821   -2.0066 H   0  0  0  0  0  0  0  0  0  0  0  0
   -0.9799   -3.0858   -1.8761 H   0  0  0  0  0  0  0  0  0  0  0  0
   -3.5508   -3.6212   -2.4610 H   0  0  0  0  0  0  0  0  0  0  0  0
   -4.9973   -1.5391   -1.5032 H   0  0  0  0  0  0  0  0  0  0  0  0
   -4.2535    0.8933   -1.0222 H   0  0  0  0  0  0  0  0  0  0  0  0
   -2.7430    1.1720   -0.1913 H   0  0  0  0  0  0  0  0  0  0  0  0
   -6.2734    0.5335    0.2628 H   0  0  0  0  0  0  0  0  0  0  0  0
   -7.3336    0.1680    2.4780 H   0  0  0  0  0  0  0  0  0  0  0  0
   -3.6979   -0.4481    4.3060 H   0  0  0  0  0  0  0  0  0  0  0  0
   -2.4544   -0.0998    2.1882 H   0  0  0  0  0  0  0  0  0  0  0  0
    5.9804    0.0126   -2.1472 H   0  0  0  0  0  0  0  0  0  0  0  0
  1  2  1  0
  2  3  2  0
  3  4  1  0
  4  5  2  0
  5  6  1  0
  6  7  2  0
  7  8  1  0
  8  9  1  0
  9 10  2  0
  9 11  1  0
 11 12  2  0
 12 13  1  0
 13 14  2  0
 14 15  1  0
 15 16  1  0
 16 17  1  0
 17 18  2  0
 18 19  1  0
 19 20  2  0
 20 21  1  0
 21 22  2  0
  7 23  1  0
 23 24  1  0
 24 25  2  0
 25  2  1  0
 24  5  1  0
 15 11  1  0
 22 17  1  0
  1 26  1  0
  1 27  1  0
  1 28  1  0
  3 29  1  0
  4 30  1  0
  8 31  1  0
 12 32  1  0
 13 33  1  0
 14 34  1  0
 16 35  1  0
 16 36  1  0
 18 37  1  0
 19 38  1  0
 21 39  1  0
 22 40  1  0
 25 41  1  0
M  END
$$$$
OCNT-2309670
     RDKit          3D

 54 58  0  0  0  0  0  0  0  0999 V2000
    1.6148    0.2079   -2.6355 O   0  0  0  0  0  0  0  0  0  0  0  0
    1.0660   -0.4120   -1.7283 C   0  0  0  0  0  0  0  0  0  0  0  0
    1.8999   -1.2992   -0.8898 C   0  0  0  0  0  0  0  0  0  0  0  0
    1.6050   -2.6605   -0.7848 C   0  0  0  0  0  0  0  0  0  0  0  0
    2.4158   -3.4742    0.0007 C   0  0  0  0  0  0  0  0  0  0  0  0
    3.5197   -2.9266    0.6629 C   0  0  0  0  0  0  0  0  0  0  0  0
    3.8381   -1.5630    0.5509 C   0  0  0  0  0  0  0  0  0  0  0  0
    4.9853   -1.0772    1.2011 N   0  0  0  0  0  0  0  0  0  0  0  0
    5.8530   -0.0086    0.9091 C   0  0  0  0  0  0  0  0  0  0  0  0
    6.5954    0.5611    1.9549 C   0  0  0  0  0  0  0  0  0  0  0  0
    7.4417    1.6511    1.7313 C   0  0  0  0  0  0  0  0  0  0  0  0
    7.5537    2.1938    0.4547 C   0  0  0  0  0  0  0  0  0  0  0  0
    6.8200    1.6463   -0.5938 C   0  0  0  0  0  0  0  0  0  0  0  0
    5.9739    0.5564   -0.3651 C   0  0  0  0  0  0  0  0  0  0  0  0
    3.0170   -0.7576   -0.2437 C   0  0  0  0  0  0  0  0  0  0  0  0
   -0.2941   -0.3227   -1.4593 N   0  0  0  0  0  0  0  0  0  0  0  0
   -1.1269    0.4674   -2.3686 C   0  0  0  0  0  0  0  0  0  0  0  0
   -2.6204    0.1475   -2.2134 C   0  0  0  0  0  0  0  0  0  0  0  0
   -3.0844    0.3915   -0.8272 N   0  0  0  0  0  0  0  0  0  0  0  0
   -4.4145    0.1908   -0.5537 C   0  0  0  0  0  0  0  0  0  0  0  0
   -5.2263   -0.5345   -1.3436 N   0  0  0  0  0  0  0  0  0  0  0  0
   -6.5756   -0.5040   -0.5701 S   0  0  0  0  0  0  0  0  0  0  0  0
   -6.8894   -2.0130   -0.0810 O   0  0  0  0  0  0  0  0  0  0  0  0
   -7.8351   -0.2111   -1.5235 O   0  0  0  0  0  0  0  0  0  0  0  0
   -6.4552    0.4558    0.7167 C   0  0  0  0  0  0  0  0  0  0  0  0
   -7.3239    0.9137    1.7154 C   0  0  0  0  0  0  0  0  0  0  0  0
   -6.8131    1.7842    2.6804 C   0  0  0  0  0  0  0  0  0  0  0  0
   -5.4837    2.1915    2.6410 C   0  0  0  0  0  0  0  0  0  0  0  0
   -4.6224    1.7329    1.6362 C   0  0  0  0  0  0  0  0  0  0  0  0
   -5.0919    0.8323    0.6446 C   0  0  0  0  0  0  0  0  0  0  0  0
   -2.0811    0.1449    0.2317 C   0  0  0  0  0  0  0  0  0  0  0  0
   -0.9455   -0.7904   -0.2291 C   0  0  0  0  0  0  0  0  0  0  0  0
    0.7623   -3.0870   -1.3221 H   0  0  0  0  0  0  0  0  0  0  0  0
    2.2033   -4.5368    0.0874 H   0  0  0  0  0  0  0  0  0  0  0  0
    4.1509   -3.5857    1.2551 H   0  0  0  0  0  0  0  0  0  0  0  0
    5.3005   -1.6492    1.9763 H   0  0  0  0  0  0  0  0  0  0  0  0
    6.5109    0.1648    2.9635 H   0  0  0  0  0  0  0  0  0  0  0  0
    8.0074    2.0775    2.5553 H   0  0  0  0  0  0  0  0  0  0  0  0
    8.2100    3.0413    0.2764 H   0  0  0  0  0  0  0  0  0  0  0  0
    6.9047    2.0621   -1.5946 H   0  0  0  0  0  0  0  0  0  0  0  0
    5.4358    0.1363   -1.2107 H   0  0  0  0  0  0  0  0  0  0  0  0
    3.2189    0.3053   -0.3481 H   0  0  0  0  0  0  0  0  0  0  0  0
   -0.8065    0.2871   -3.4009 H   0  0  0  0  0  0  0  0  0  0  0  0
   -0.9392    1.5240   -2.1413 H   0  0  0  0  0  0  0  0  0  0  0  0
   -3.1916    0.7747   -2.9083 H   0  0  0  0  0  0  0  0  0  0  0  0
   -2.7904   -0.9032   -2.4826 H   0  0  0  0  0  0  0  0  0  0  0  0
   -8.3648    0.6012    1.7363 H   0  0  0  0  0  0  0  0  0  0  0  0
   -7.4677    2.1553    3.4673 H   0  0  0  0  0  0  0  0  0  0  0  0
   -5.1096    2.8829    3.3941 H   0  0  0  0  0  0  0  0  0  0  0  0
   -3.5968    2.0913    1.6121 H   0  0  0  0  0  0  0  0  0  0  0  0
   -2.5387   -0.2942    1.1263 H   0  0  0  0  0  0  0  0  0  0  0  0
   -1.6503    1.1114    0.5195 H   0  0  0  0  0  0  0  0  0  0  0  0
   -0.2129   -0.8880    0.5774 H   0  0  0  0  0  0  0  0  0  0  0  0
   -1.3519   -1.7856   -0.4448 H   0  0  0  0  0  0  0  0  0  0  0  0
  1  2  2  0
  2  3  1  0
  3  4  1  0
  4  5  2  0
  5  6  1  0
  6  7  2  0
  7  8  1  0
  8  9  1  0
  9 10  2  0
 10 11  1  0
 11 12  2  0
 12 13  1  0
 13 14  2  0
  7 15  1  0
  2 16  1  0
 16 17  1  0
 17 18  1  0
 18 19  1  0
 19 20  1  0
 20 21  2  0
 21 22  1  0
 22 23  2  0
 22 24  2  0
 22 25  1  0
 25 26  2  0
 26 27  1  0
 27 28  2  0
 28 29  1  0
 29 30  2  0
 19 31  1  0
 31 32  1  0
 15  3  2  0
 32 16  1  0
 14  9  1  0
 30 20  1  0
 30 25  1  0
  4 33  1  0
  5 34  1  0
  6 35  1  0
  8 36  1  0
 10 37  1  0
 11 38  1  0
 12 39  1  0
 13 40  1  0
 14 41  1  0
 15 42  1  0
 17 43  1  0
 17 44  1  0
 18 45  1  0
 18 46  1  0
 26 47  1  0
 27 48  1  0
 28 49  1  0
 29 50  1  0
 31 51  1  0
 31 52  1  0
 32 53  1  0
 32 54  1  0
M  END
$$$$
OCNT-2309676
     RDKit          3D

 45 47  0  0  0  0  0  0  0  0999 V2000
    5.3257   -2.5289    1.7344 C   0  0  0  0  0  0  0  0  0  0  0  0
    4.0373   -1.7857    1.4896 C   0  0  0  0  0  0  0  0  0  0  0  0
    2.9340   -2.1556    2.2812 C   0  0  0  0  0  0  0  0  0  0  0  0
    1.6932   -1.5329    2.1400 C   0  0  0  0  0  0  0  0  0  0  0  0
    1.5147   -0.5191    1.2017 C   0  0  0  0  0  0  0  0  0  0  0  0
    0.2307    0.0604    1.1169 N   0  0  0  0  0  0  0  0  0  0  0  0
   -0.1846    1.0875    0.2821 C   0  0  0  0  0  0  0  0  0  0  0  0
    0.5181    1.6797   -0.5308 O   0  0  0  0  0  0  0  0  0  0  0  0
   -1.6671    1.4172    0.4559 C   0  0  0  0  0  0  0  0  0  0  0  0
   -2.0217    2.7699   -0.1684 C   0  0  0  0  0  0  0  0  0  0  0  0
   -3.5217    3.0199   -0.0696 C   0  0  0  0  0  0  0  0  0  0  0  0
   -4.3149    1.8597   -0.6698 C   0  0  0  0  0  0  0  0  0  0  0  0
   -3.9611    0.5791   -0.0330 N   0  0  0  0  0  0  0  0  0  0  0  0
   -4.7965   -0.5161   -0.6096 C   0  0  0  0  0  0  0  0  0  0  0  0
   -4.6348   -1.9450   -0.0509 C   0  0  0  0  0  0  0  0  0  0  0  0
   -3.4525   -2.4918   -0.4168 F   0  0  0  0  0  0  0  0  0  0  0  0
   -4.7046   -1.9738    1.2980 F   0  0  0  0  0  0  0  0  0  0  0  0
   -5.6121   -2.7516   -0.5277 F   0  0  0  0  0  0  0  0  0  0  0  0
   -2.5204    0.3003   -0.1673 C   0  0  0  0  0  0  0  0  0  0  0  0
    2.5997   -0.1411    0.4062 C   0  0  0  0  0  0  0  0  0  0  0  0
    3.8658   -0.7576    0.5332 C   0  0  0  0  0  0  0  0  0  0  0  0
    4.9206   -0.3091   -0.3185 N   0  0  0  0  0  0  0  0  0  0  0  0
    4.9051    0.6778   -1.2806 C   0  0  0  0  0  0  0  0  0  0  0  0
    6.0898    0.7724   -1.8396 N   0  0  0  0  0  0  0  0  0  0  0  0
    6.8640   -0.1667   -1.2213 N   0  0  0  0  0  0  0  0  0  0  0  0
    6.1715   -0.8236   -0.3036 N   0  0  0  0  0  0  0  0  0  0  0  0
    5.2139   -3.2766    2.5281 H   0  0  0  0  0  0  0  0  0  0  0  0
    6.1113   -1.8420    2.0638 H   0  0  0  0  0  0  0  0  0  0  0  0
    5.6345   -3.0727    0.8365 H   0  0  0  0  0  0  0  0  0  0  0  0
    3.0341   -2.9445    3.0260 H   0  0  0  0  0  0  0  0  0  0  0  0
    0.8751   -1.8593    2.7775 H   0  0  0  0  0  0  0  0  0  0  0  0
   -0.4575   -0.3054    1.7654 H   0  0  0  0  0  0  0  0  0  0  0  0
   -1.8716    1.4747    1.5344 H   0  0  0  0  0  0  0  0  0  0  0  0
   -1.7197    2.7968   -1.2234 H   0  0  0  0  0  0  0  0  0  0  0  0
   -1.4744    3.5755    0.3354 H   0  0  0  0  0  0  0  0  0  0  0  0
   -3.8034    3.1553    0.9823 H   0  0  0  0  0  0  0  0  0  0  0  0
   -3.7759    3.9499   -0.5907 H   0  0  0  0  0  0  0  0  0  0  0  0
   -4.1383    1.8165   -1.7526 H   0  0  0  0  0  0  0  0  0  0  0  0
   -5.3819    2.0650   -0.5212 H   0  0  0  0  0  0  0  0  0  0  0  0
   -5.8477   -0.2439   -0.4507 H   0  0  0  0  0  0  0  0  0  0  0  0
   -4.6438   -0.5625   -1.6958 H   0  0  0  0  0  0  0  0  0  0  0  0
   -2.2836   -0.6350    0.3508 H   0  0  0  0  0  0  0  0  0  0  0  0
   -2.2480    0.1585   -1.2221 H   0  0  0  0  0  0  0  0  0  0  0  0
    2.4520    0.6446   -0.3231 H   0  0  0  0  0  0  0  0  0  0  0  0
    4.0468    1.2799   -1.5321 H   0  0  0  0  0  0  0  0  0  0  0  0
  1  2  1  0
  2  3  1  0
  3  4  2  0
  4  5  1  0
  5  6  1  0
  6  7  1  0
  7  8  2  0
  7  9  1  0
  9 10  1  0
 10 11  1  0
 11 12  1  0
 12 13  1  0
 13 14  1  0
 14 15  1  0
 15 16  1  0
 15 17  1  0
 15 18  1  0
 13 19  1  0
  5 20  2  0
 20 21  1  0
 21 22  1  0
 22 23  1  0
 23 24  2  0
 24 25  1  0
 25 26  2  0
 21  2  2  0
 26 22  1  0
 19  9  1  0
  1 27  1  0
  1 28  1  0
  1 29  1  0
  3 30  1  0
  4 31  1  0
  6 32  1  0
  9 33  1  0
 10 34  1  0
 10 35  1  0
 11 36  1  0
 11 37  1  0
 12 38  1  0
 12 39  1  0
 14 40  1  0
 14 41  1  0
 19 42  1  0
 19 43  1  0
 20 44  1  0
 23 45  1  0
M  END
$$$$
OCNT-2309692
     RDKit          3D

 57 60  0  0  0  0  0  0  0  0999 V2000
    7.5851   -3.6690   -0.3800 C   0  0  0  0  0  0  0  0  0  0  0  0
    6.9368   -2.4408   -0.7140 O   0  0  0  0  0  0  0  0  0  0  0  0
    5.9022   -2.1241    0.1037 C   0  0  0  0  0  0  0  0  0  0  0  0
    5.5091   -2.7914    1.0476 O   0  0  0  0  0  0  0  0  0  0  0  0
    5.2890   -0.8291   -0.2983 C   0  0  0  0  0  0  0  0  0  0  0  0
    5.7543   -0.0848   -1.3875 C   0  0  0  0  0  0  0  0  0  0  0  0
    5.1399    1.1228   -1.7156 C   0  0  0  0  0  0  0  0  0  0  0  0
    4.0608    1.5938   -0.9614 C   0  0  0  0  0  0  0  0  0  0  0  0
    3.5854    0.8639    0.1288 C   0  0  0  0  0  0  0  0  0  0  0  0
    2.5015    1.2649    0.9358 N   0  0  0  0  0  0  0  0  0  0  0  0
    1.7375    2.4175    0.8232 C   0  0  0  0  0  0  0  0  0  0  0  0
    1.9299    3.3364    0.0320 O   0  0  0  0  0  0  0  0  0  0  0  0
    0.6218    2.5088    1.8683 C   0  0  0  0  0  0  0  0  0  0  0  0
   -0.3160    1.4148    1.7167 N   0  0  0  0  0  0  0  0  0  0  0  0
   -0.1184    0.1666    2.1926 C   0  0  0  0  0  0  0  0  0  0  0  0
    0.8873   -0.2351    2.7559 O   0  0  0  0  0  0  0  0  0  0  0  0
   -1.2026   -0.6061    1.8898 N   0  0  0  0  0  0  0  0  0  0  0  0
   -2.1512    0.0651    0.9955 C   0  0  0  0  0  0  0  0  0  0  0  0
   -3.5413    0.1182    1.6751 C   0  0  0  0  0  0  0  0  0  0  0  0
   -4.6773    0.6999    0.8627 C   0  0  0  0  0  0  0  0  0  0  0  0
   -5.4694   -0.1247    0.0507 C   0  0  0  0  0  0  0  0  0  0  0  0
   -6.5167    0.4111   -0.7009 C   0  0  0  0  0  0  0  0  0  0  0  0
   -6.7880    1.7756   -0.6468 C   0  0  0  0  0  0  0  0  0  0  0  0
   -6.0118    2.6049    0.1590 C   0  0  0  0  0  0  0  0  0  0  0  0
   -4.9639    2.0705    0.9110 C   0  0  0  0  0  0  0  0  0  0  0  0
   -2.1396   -0.6495   -0.3576 C   0  0  0  0  0  0  0  0  0  0  0  0
   -1.9466    0.0353   -1.5685 C   0  0  0  0  0  0  0  0  0  0  0  0
   -1.9504   -0.6451   -2.7897 C   0  0  0  0  0  0  0  0  0  0  0  0
   -2.1545   -2.0208   -2.8269 C   0  0  0  0  0  0  0  0  0  0  0  0
   -2.3625   -2.7195   -1.6431 C   0  0  0  0  0  0  0  0  0  0  0  0
   -2.3592   -2.0416   -0.4220 C   0  0  0  0  0  0  0  0  0  0  0  0
   -1.4794    1.4712    1.0001 C   0  0  0  0  0  0  0  0  0  0  0  0
   -1.8981    2.4821    0.4503 O   0  0  0  0  0  0  0  0  0  0  0  0
    4.2049   -0.3499    0.4537 C   0  0  0  0  0  0  0  0  0  0  0  0
    7.9972   -3.6221    0.6334 H   0  0  0  0  0  0  0  0  0  0  0  0
    8.4099   -3.8190   -1.0829 H   0  0  0  0  0  0  0  0  0  0  0  0
    6.8885   -4.5081   -0.4777 H   0  0  0  0  0  0  0  0  0  0  0  0
    6.5912   -0.4305   -1.9888 H   0  0  0  0  0  0  0  0  0  0  0  0
    5.4978    1.7039   -2.5625 H   0  0  0  0  0  0  0  0  0  0  0  0
    3.6129    2.5378   -1.2563 H   0  0  0  0  0  0  0  0  0  0  0  0
    2.2529    0.6236    1.6909 H   0  0  0  0  0  0  0  0  0  0  0  0
    1.0727    2.4711    2.8659 H   0  0  0  0  0  0  0  0  0  0  0  0
    0.0995    3.4630    1.7466 H   0  0  0  0  0  0  0  0  0  0  0  0
   -1.1464   -1.6069    2.0205 H   0  0  0  0  0  0  0  0  0  0  0  0
   -3.4704    0.6835    2.6159 H   0  0  0  0  0  0  0  0  0  0  0  0
   -3.8352   -0.8941    1.9886 H   0  0  0  0  0  0  0  0  0  0  0  0
   -5.2759   -1.1930   -0.0106 H   0  0  0  0  0  0  0  0  0  0  0  0
   -7.1185   -0.2374   -1.3321 H   0  0  0  0  0  0  0  0  0  0  0  0
   -7.6005    2.1939   -1.2348 H   0  0  0  0  0  0  0  0  0  0  0  0
   -6.2170    3.6715    0.1983 H   0  0  0  0  0  0  0  0  0  0  0  0
   -4.3676    2.7411    1.5261 H   0  0  0  0  0  0  0  0  0  0  0  0
   -1.8048    1.1140   -1.5977 H   0  0  0  0  0  0  0  0  0  0  0  0
   -1.8001   -0.0927   -3.7144 H   0  0  0  0  0  0  0  0  0  0  0  0
   -2.1589   -2.5445   -3.7791 H   0  0  0  0  0  0  0  0  0  0  0  0
   -2.5315   -3.7930   -1.6705 H   0  0  0  0  0  0  0  0  0  0  0  0
   -2.5422   -2.6176    0.4820 H   0  0  0  0  0  0  0  0  0  0  0  0
    3.8479   -0.9366    1.2990 H   0  0  0  0  0  0  0  0  0  0  0  0
  1  2  1  0
  2  3  1  0
  3  4  2  0
  3  5  1  0
  5  6  1  0
  6  7  2  0
  7  8  1  0
  8  9  2  0
  9 10  1  0
 10 11  1  0
 11 12  2  0
 11 13  1  0
 13 14  1  0
 14 15  1  0
 15 16  2  0
 15 17  1  0
 17 18  1  0
 18 19  1  0
 19 20  1  0
 20 21  2  0
 21 22  1  0
 22 23  2  0
 23 24  1  0
 24 25  2  0
 18 26  1  0
 26 27  2  0
 27 28  1  0
 28 29  2  0
 29 30  1  0
 30 31  2  0
 18 32  1  0
 32 33  2  0
  9 34  1  0
 34  5  2  0
 32 14  1  0
 25 20  1  0
 31 26  1  0
  1 35  1  0
  1 36  1  0
  1 37  1  0
  6 38  1  0
  7 39  1  0
  8 40  1  0
 10 41  1  0
 13 42  1  0
 13 43  1  0
 17 44  1  0
 19 45  1  0
 19 46  1  0
 21 47  1  0
 22 48  1  0
 23 49  1  0
 24 50  1  0
 25 51  1  0
 27 52  1  0
 28 53  1  0
 29 54  1  0
 30 55  1  0
 31 56  1  0
 34 57  1  0
M  END
$$$$
OCNT-2309697
     RDKit          3D

 44 46  0  0  0  0  0  0  0  0999 V2000
   -1.6008   -2.1365   -1.7730 O   0  0  0  0  0  0  0  0  0  0  0  0
   -1.4433   -0.9965   -1.3498 C   0  0  0  0  0  0  0  0  0  0  0  0
   -2.4119   -0.3246   -0.6365 N   0  0  0  0  0  0  0  0  0  0  0  0
   -3.7188   -0.9087   -0.4437 C   0  0  0  0  0  0  0  0  0  0  0  0
   -4.5399   -0.0682    0.4957 C   0  0  0  0  0  0  0  0  0  0  0  0
   -5.4501    0.8758   -0.0000 C   0  0  0  0  0  0  0  0  0  0  0  0
   -6.1882    1.6738    0.8758 C   0  0  0  0  0  0  0  0  0  0  0  0
   -6.0185    1.5411    2.2528 C   0  0  0  0  0  0  0  0  0  0  0  0
   -5.1095    0.6126    2.7564 C   0  0  0  0  0  0  0  0  0  0  0  0
   -4.3707   -0.1863    1.8827 C   0  0  0  0  0  0  0  0  0  0  0  0
   -0.1675   -0.1942   -1.5371 C   0  0  0  0  0  0  0  0  0  0  0  0
    0.8546   -0.8513   -2.4678 C   0  0  0  0  0  0  0  0  0  0  0  0
    2.0359   -1.1882   -1.5713 C   0  0  0  0  0  0  0  0  0  0  0  0
    1.9832   -0.1232   -0.5635 N   0  0  0  0  0  0  0  0  0  0  0  0
    2.8271   -0.3853    0.6055 C   0  0  0  0  0  0  0  0  0  0  0  0
    4.3062   -0.2563    0.2561 C   0  0  0  0  0  0  0  0  0  0  0  0
    4.8155    1.1482   -0.1572 C   0  0  0  0  0  0  0  0  0  0  0  0
    6.1070    0.8442    0.6335 C   0  0  0  0  0  0  0  0  0  0  0  0
    7.1166    0.3045   -0.0877 F   0  0  0  0  0  0  0  0  0  0  0  0
    6.6302    1.8787    1.3276 F   0  0  0  0  0  0  0  0  0  0  0  0
    5.2753   -0.1641    1.4602 C   0  0  0  0  0  0  0  0  0  0  0  0
    0.5615   -0.0453   -0.2021 C   0  0  0  0  0  0  0  0  0  0  0  0
   -2.3253    0.6758   -0.5110 H   0  0  0  0  0  0  0  0  0  0  0  0
   -4.2052   -0.9921   -1.4229 H   0  0  0  0  0  0  0  0  0  0  0  0
   -3.6072   -1.9279   -0.0548 H   0  0  0  0  0  0  0  0  0  0  0  0
   -5.5921    0.9936   -1.0722 H   0  0  0  0  0  0  0  0  0  0  0  0
   -6.8965    2.3993    0.4839 H   0  0  0  0  0  0  0  0  0  0  0  0
   -6.5947    2.1621    2.9339 H   0  0  0  0  0  0  0  0  0  0  0  0
   -4.9757    0.5107    3.8304 H   0  0  0  0  0  0  0  0  0  0  0  0
   -3.6600   -0.9041    2.2877 H   0  0  0  0  0  0  0  0  0  0  0  0
   -0.4372    0.7870   -1.9490 H   0  0  0  0  0  0  0  0  0  0  0  0
    1.1671   -0.1230   -3.2275 H   0  0  0  0  0  0  0  0  0  0  0  0
    0.4877   -1.7349   -2.9979 H   0  0  0  0  0  0  0  0  0  0  0  0
    2.9715   -1.1828   -2.1387 H   0  0  0  0  0  0  0  0  0  0  0  0
    1.8982   -2.1805   -1.1232 H   0  0  0  0  0  0  0  0  0  0  0  0
    2.5822    0.3467    1.3861 H   0  0  0  0  0  0  0  0  0  0  0  0
    2.6270   -1.3779    1.0285 H   0  0  0  0  0  0  0  0  0  0  0  0
    4.6314   -1.0362   -0.4480 H   0  0  0  0  0  0  0  0  0  0  0  0
    4.9483    1.2980   -1.2320 H   0  0  0  0  0  0  0  0  0  0  0  0
    4.2421    1.9880    0.2517 H   0  0  0  0  0  0  0  0  0  0  0  0
    5.7882   -1.0945    1.7182 H   0  0  0  0  0  0  0  0  0  0  0  0
    4.8468    0.2696    2.3709 H   0  0  0  0  0  0  0  0  0  0  0  0
    0.2801   -0.8436    0.4979 H   0  0  0  0  0  0  0  0  0  0  0  0
    0.3293    0.9163    0.2686 H   0  0  0  0  0  0  0  0  0  0  0  0
  1  2  2  0
  2  3  1  0
  3  4  1  0
  4  5  1  0
  5  6  2  0
  6  7  1  0
  7  8  2  0
  8  9  1  0
  9 10  2  0
  2 11  1  0
 11 12  1  0
 12 13  1  0
 13 14  1  0
 14 15  1  0
 15 16  1  0
 16 17  1  0
 17 18  1  0
 18 19  1  0
 18 20  1  0
 18 21  1  0
 14 22  1  0
 10  5  1  0
 22 11  1  0
 21 16  1  0
  3 23  1  0
  4 24  1  0
  4 25  1  0
  6 26  1  0
  7 27  1  0
  8 28  1  0
  9 29  1  0
 10 30  1  0
 11 31  1  0
 12 32  1  0
 12 33  1  0
 13 34  1  0
 13 35  1  0
 15 36  1  0
 15 37  1  0
 16 38  1  0
 17 39  1  0
 17 40  1  0
 21 41  1  0
 21 42  1  0
 22 43  1  0
 22 44  1  0
M  END
$$$$
OCNT-2309699
     RDKit          3D

 44 47  0  0  0  0  0  0  0  0999 V2000
    0.1364    2.4764   -2.8957 O   0  0  0  0  0  0  0  0  0  0  0  0
    0.3284    1.3987   -2.3440 C   0  0  0  0  0  0  0  0  0  0  0  0
   -0.3302    0.1224   -2.8522 C   0  0  0  0  0  0  0  0  0  0  0  0
   -1.2237   -0.5317   -1.8224 C   0  0  0  0  0  0  0  0  0  0  0  0
   -0.8387   -1.7239   -1.1914 C   0  0  0  0  0  0  0  0  0  0  0  0
   -1.6509   -2.3032   -0.2115 C   0  0  0  0  0  0  0  0  0  0  0  0
   -1.1080   -3.7633    0.5407 Cl  0  0  0  0  0  0  0  0  0  0  0  0
   -2.8579   -1.7000    0.1518 C   0  0  0  0  0  0  0  0  0  0  0  0
   -3.6170   -2.2896    1.1328 O   0  0  0  0  0  0  0  0  0  0  0  0
   -4.6152   -1.4037    1.6428 C   0  0  0  0  0  0  0  0  0  0  0  0
   -5.3379   -0.7089    0.5062 C   0  0  0  0  0  0  0  0  0  0  0  0
   -4.4333    0.1190   -0.2330 O   0  0  0  0  0  0  0  0  0  0  0  0
   -3.2571   -0.5269   -0.4988 C   0  0  0  0  0  0  0  0  0  0  0  0
   -2.4420    0.0608   -1.4668 C   0  0  0  0  0  0  0  0  0  0  0  0
    1.1509    1.1760   -1.2573 N   0  0  0  0  0  0  0  0  0  0  0  0
    1.9188    2.1226   -0.5369 C   0  0  0  0  0  0  0  0  0  0  0  0
    1.9968    3.4747   -0.8631 C   0  0  0  0  0  0  0  0  0  0  0  0
    2.7350    4.3856   -0.1796 N   0  0  0  0  0  0  0  0  0  0  0  0
    3.4329    3.9336    0.8790 C   0  0  0  0  0  0  0  0  0  0  0  0
    3.4273    2.6128    1.2924 C   0  0  0  0  0  0  0  0  0  0  0  0
    2.6562    1.6828    0.5831 C   0  0  0  0  0  0  0  0  0  0  0  0
    2.6198    0.2876    1.0371 C   0  0  0  0  0  0  0  0  0  0  0  0
    3.5359   -0.6508    0.5446 C   0  0  0  0  0  0  0  0  0  0  0  0
    3.4528   -1.9906    0.9272 C   0  0  0  0  0  0  0  0  0  0  0  0
    2.4572   -2.4044    1.8085 C   0  0  0  0  0  0  0  0  0  0  0  0
    1.5464   -1.4810    2.3137 C   0  0  0  0  0  0  0  0  0  0  0  0
    1.6261   -0.1432    1.9295 C   0  0  0  0  0  0  0  0  0  0  0  0
    0.4630   -0.5672   -3.1672 H   0  0  0  0  0  0  0  0  0  0  0  0
   -0.9147    0.3509   -3.7533 H   0  0  0  0  0  0  0  0  0  0  0  0
    0.1001   -2.2045   -1.4536 H   0  0  0  0  0  0  0  0  0  0  0  0
   -5.3201   -2.0000    2.2298 H   0  0  0  0  0  0  0  0  0  0  0  0
   -4.1329   -0.6838    2.3147 H   0  0  0  0  0  0  0  0  0  0  0  0
   -5.7902   -1.4327   -0.1821 H   0  0  0  0  0  0  0  0  0  0  0  0
   -6.1311   -0.0631    0.8906 H   0  0  0  0  0  0  0  0  0  0  0  0
   -2.7665    0.9822   -1.9493 H   0  0  0  0  0  0  0  0  0  0  0  0
    1.1775    0.2277   -0.8955 H   0  0  0  0  0  0  0  0  0  0  0  0
    1.4625    3.9029   -1.7022 H   0  0  0  0  0  0  0  0  0  0  0  0
    4.0146    4.6846    1.4053 H   0  0  0  0  0  0  0  0  0  0  0  0
    4.0051    2.3136    2.1615 H   0  0  0  0  0  0  0  0  0  0  0  0
    4.3104   -0.3413   -0.1556 H   0  0  0  0  0  0  0  0  0  0  0  0
    4.1641   -2.7123    0.5360 H   0  0  0  0  0  0  0  0  0  0  0  0
    2.3857   -3.4492    2.1030 H   0  0  0  0  0  0  0  0  0  0  0  0
    0.7660   -1.8048    2.9975 H   0  0  0  0  0  0  0  0  0  0  0  0
    0.8976    0.5652    2.3205 H   0  0  0  0  0  0  0  0  0  0  0  0
  1  2  2  0
  2  3  1  0
  3  4  1  0
  4  5  1  0
  5  6  2  0
  6  7  1  0
  6  8  1  0
  8  9  1  0
  9 10  1  0
 10 11  1  0
 11 12  1  0
 12 13  1  0
 13 14  1  0
  2 15  1  0
 15 16  1  0
 16 17  2  0
 17 18  1  0
 18 19  2  0
 19 20  1  0
 20 21  2  0
 21 22  1  0
 22 23  2  0
 23 24  1  0
 24 25  2  0
 25 26  1  0
 26 27  2  0
 14  4  2  0
 21 16  1  0
 27 22  1  0
 13  8  2  0
  3 28  1  0
  3 29  1  0
  5 30  1  0
 10 31  1  0
 10 32  1  0
 11 33  1  0
 11 34  1  0
 14 35  1  0
 15 36  1  0
 17 37  1  0
 19 38  1  0
 20 39  1  0
 23 40  1  0
 24 41  1  0
 25 42  1  0
 26 43  1  0
 27 44  1  0
M  END
$$$$
OCNT-2309702
     RDKit          3D

 50 53  0  0  0  0  0  0  0  0999 V2000
   -1.4742   -2.2786    2.2015 O   0  0  0  0  0  0  0  0  0  0  0  0
   -0.9455   -1.5680    1.3473 C   0  0  0  0  0  0  0  0  0  0  0  0
   -1.5075   -0.3610    0.9899 N   0  0  0  0  0  0  0  0  0  0  0  0
   -2.8096    0.0459    1.4854 C   0  0  0  0  0  0  0  0  0  0  0  0
   -3.9579   -0.5132    0.6079 C   0  0  1  0  0  0  0  0  0  0  0  0
   -5.3316   -0.1237    1.1925 C   0  0  0  0  0  0  0  0  0  0  0  0
   -5.8253    1.2071    0.6375 C   0  0  0  0  0  0  0  0  0  0  0  0
   -5.8778    1.1861   -0.8921 C   0  0  0  0  0  0  0  0  0  0  0  0
   -5.0497    0.0531   -1.5004 C   0  0  0  0  0  0  0  0  0  0  0  0
   -3.7741   -0.0971   -0.8067 N   0  0  0  0  0  0  0  0  0  0  0  0
    0.2581   -1.9551    0.6188 C   0  0  0  0  0  0  0  0  0  0  0  0
    1.3000   -1.2117    0.0802 C   0  0  0  0  0  0  0  0  0  0  0  0
    1.4165    0.5189    0.2089 S   0  0  0  0  0  0  0  0  0  0  0  0
    0.2831    0.9672   -0.5799 O   0  0  0  0  0  0  0  0  0  0  0  0
    1.4723    0.7439    1.6362 O   0  0  0  0  0  0  0  0  0  0  0  0
    2.8090    1.1103   -0.5208 N   0  0  0  0  0  0  0  0  0  0  0  0
    2.8484    1.1847   -2.0076 C   0  0  0  0  0  0  0  0  0  0  0  0
    4.3392    1.2538   -2.3847 C   0  0  0  0  0  0  0  0  0  0  0  0
    5.0160    0.8304   -1.1195 C   0  0  0  0  0  0  0  0  0  0  0  0
    6.3651    0.5734   -0.9306 C   0  0  0  0  0  0  0  0  0  0  0  0
    6.8034    0.2585    0.3563 C   0  0  0  0  0  0  0  0  0  0  0  0
    5.8998    0.2278    1.4290 C   0  0  0  0  0  0  0  0  0  0  0  0
    4.5429    0.4986    1.2276 C   0  0  0  0  0  0  0  0  0  0  0  0
    4.1117    0.7662   -0.0586 C   0  0  0  0  0  0  0  0  0  0  0  0
    2.2800   -2.0346   -0.5618 C   0  0  0  0  0  0  0  0  0  0  0  0
    1.9698   -3.3721   -0.4831 C   0  0  0  0  0  0  0  0  0  0  0  0
    0.5162   -3.6405    0.3634 S   0  0  0  0  0  0  0  0  0  0  0  0
   -1.1978    0.0875    0.1320 H   0  0  0  0  0  0  0  0  0  0  0  0
   -2.9225   -0.2928    2.5214 H   0  0  0  0  0  0  0  0  0  0  0  0
   -2.8197    1.1416    1.4866 H   0  0  0  0  0  0  0  0  0  0  0  0
   -3.8893   -1.6086    0.6310 H   0  0  0  0  0  0  0  0  0  0  0  0
   -6.0644   -0.9014    0.9395 H   0  0  0  0  0  0  0  0  0  0  0  0
   -5.2932   -0.0813    2.2871 H   0  0  0  0  0  0  0  0  0  0  0  0
   -6.8153    1.4460    1.0420 H   0  0  0  0  0  0  0  0  0  0  0  0
   -5.1536    2.0098    0.9659 H   0  0  0  0  0  0  0  0  0  0  0  0
   -6.9175    1.0793   -1.2239 H   0  0  0  0  0  0  0  0  0  0  0  0
   -5.5291    2.1544   -1.2718 H   0  0  0  0  0  0  0  0  0  0  0  0
   -5.6056   -0.8923   -1.4758 H   0  0  0  0  0  0  0  0  0  0  0  0
   -4.8631    0.2689   -2.5583 H   0  0  0  0  0  0  0  0  0  0  0  0
   -3.2805    0.7957   -0.8345 H   0  0  0  0  0  0  0  0  0  0  0  0
    2.3119    2.0681   -2.3674 H   0  0  0  0  0  0  0  0  0  0  0  0
    2.3950    0.2928   -2.4543 H   0  0  0  0  0  0  0  0  0  0  0  0
    4.5684    0.5880   -3.2218 H   0  0  0  0  0  0  0  0  0  0  0  0
    4.6275    2.2789   -2.6400 H   0  0  0  0  0  0  0  0  0  0  0  0
    7.0699    0.6286   -1.7545 H   0  0  0  0  0  0  0  0  0  0  0  0
    7.8571    0.0552    0.5355 H   0  0  0  0  0  0  0  0  0  0  0  0
    6.2603    0.0050    2.4312 H   0  0  0  0  0  0  0  0  0  0  0  0
    3.8680    0.4998    2.0766 H   0  0  0  0  0  0  0  0  0  0  0  0
    3.1807   -1.6845   -1.0478 H   0  0  0  0  0  0  0  0  0  0  0  0
    2.5345   -4.2092   -0.8718 H   0  0  0  0  0  0  0  0  0  0  0  0
  1  2  2  0
  2  3  1  0
  3  4  1  0
  4  5  1  0
  5  6  1  0
  6  7  1  0
  7  8  1  0
  8  9  1  0
  9 10  1  0
  2 11  1  0
 11 12  2  0
 12 13  1  0
 13 14  2  0
 13 15  2  0
 13 16  1  0
 16 17  1  0
 17 18  1  0
 18 19  1  0
 19 20  2  0
 20 21  1  0
 21 22  2  0
 22 23  1  0
 23 24  2  0
 12 25  1  0
 25 26  2  0
 26 27  1  0
 10  5  1  0
 27 11  1  0
 24 16  1  0
 24 19  1  0
  3 28  1  0
  4 29  1  0
  4 30  1  0
  5 31  1  6
  6 32  1  0
  6 33  1  0
  7 34  1  0
  7 35  1  0
  8 36  1  0
  8 37  1  0
  9 38  1  0
  9 39  1  0
 10 40  1  0
 17 41  1  0
 17 42  1  0
 18 43  1  0
 18 44  1  0
 20 45  1  0
 21 46  1  0
 22 47  1  0
 23 48  1  0
 25 49  1  0
 26 50  1  0
M  END
$$$$
OCNT-2309728
     RDKit          3D

 42 45  0  0  0  0  0  0  0  0999 V2000
    7.4691   -1.8409    0.9034 O   0  0  0  0  0  0  0  0  0  0  0  0
    6.3637   -1.4340    0.5880 C   0  0  0  0  0  0  0  0  0  0  0  0
    6.0220   -0.0482    0.0268 C   0  0  0  0  0  0  0  0  0  0  0  0
    4.5381   -0.1453   -0.1678 C   0  0  0  0  0  0  0  0  0  0  0  0
    3.6438    0.7942   -0.6468 C   0  0  0  0  0  0  0  0  0  0  0  0
    2.2953    0.4309   -0.7146 C   0  0  0  0  0  0  0  0  0  0  0  0
    1.3338    1.3778   -1.1596 N   0  0  0  0  0  0  0  0  0  0  0  0
    0.6460    2.4061   -0.0046 S   0  0  0  0  0  0  0  0  0  0  0  0
   -0.0376    3.4430   -0.7492 O   0  0  0  0  0  0  0  0  0  0  0  0
    1.6402    2.7386    0.9928 O   0  0  0  0  0  0  0  0  0  0  0  0
   -0.5972    1.3815    0.7354 C   0  0  0  0  0  0  0  0  0  0  0  0
   -0.4159    0.8905    2.0291 C   0  0  0  0  0  0  0  0  0  0  0  0
   -1.4038    0.0909    2.5967 C   0  0  0  0  0  0  0  0  0  0  0  0
   -2.5644   -0.2067    1.8746 C   0  0  0  0  0  0  0  0  0  0  0  0
   -2.7658    0.2901    0.5739 C   0  0  0  0  0  0  0  0  0  0  0  0
   -3.9933   -0.0227   -0.1771 C   0  0  0  0  0  0  0  0  0  0  0  0
   -4.4268   -1.3497   -0.3379 C   0  0  0  0  0  0  0  0  0  0  0  0
   -5.5904   -1.6470   -1.0529 C   0  0  0  0  0  0  0  0  0  0  0  0
   -6.3421   -0.6210   -1.6193 C   0  0  0  0  0  0  0  0  0  0  0  0
   -5.9314    0.7011   -1.4717 C   0  0  0  0  0  0  0  0  0  0  0  0
   -4.7672    0.9968   -0.7572 C   0  0  0  0  0  0  0  0  0  0  0  0
   -1.7624    1.0959    0.0136 C   0  0  0  0  0  0  0  0  0  0  0  0
    1.8621   -0.8418   -0.2977 C   0  0  0  0  0  0  0  0  0  0  0  0
    2.7763   -1.7835    0.1829 C   0  0  0  0  0  0  0  0  0  0  0  0
    4.1003   -1.4056    0.2351 C   0  0  0  0  0  0  0  0  0  0  0  0
    5.1784   -2.1552    0.6742 N   0  0  0  0  0  0  0  0  0  0  0  0
    6.2782    0.7192    0.7612 H   0  0  0  0  0  0  0  0  0  0  0  0
    6.5393    0.1014   -0.9240 H   0  0  0  0  0  0  0  0  0  0  0  0
    3.9782    1.7840   -0.9388 H   0  0  0  0  0  0  0  0  0  0  0  0
    1.5376    1.8902   -2.0172 H   0  0  0  0  0  0  0  0  0  0  0  0
    0.4836    1.1233    2.5950 H   0  0  0  0  0  0  0  0  0  0  0  0
   -1.2785   -0.2966    3.6051 H   0  0  0  0  0  0  0  0  0  0  0  0
   -3.3300   -0.8212    2.3461 H   0  0  0  0  0  0  0  0  0  0  0  0
   -3.8502   -2.1690    0.0864 H   0  0  0  0  0  0  0  0  0  0  0  0
   -5.9072   -2.6803   -1.1682 H   0  0  0  0  0  0  0  0  0  0  0  0
   -7.2475   -0.8511   -2.1748 H   0  0  0  0  0  0  0  0  0  0  0  0
   -6.5172    1.5053   -1.9095 H   0  0  0  0  0  0  0  0  0  0  0  0
   -4.4729    2.0389   -0.6456 H   0  0  0  0  0  0  0  0  0  0  0  0
   -1.8825    1.4940   -0.9929 H   0  0  0  0  0  0  0  0  0  0  0  0
    0.8089   -1.1060   -0.3572 H   0  0  0  0  0  0  0  0  0  0  0  0
    2.4481   -2.7661    0.5011 H   0  0  0  0  0  0  0  0  0  0  0  0
    5.1412   -3.1017    1.0214 H   0  0  0  0  0  0  0  0  0  0  0  0
  1  2  2  0
  2  3  1  0
  3  4  1  0
  4  5  1  0
  5  6  2  0
  6  7  1  0
  7  8  1  0
  8  9  2  0
  8 10  2  0
  8 11  1  0
 11 12  2  0
 12 13  1  0
 13 14  2  0
 14 15  1  0
 15 16  1  0
 16 17  2  0
 17 18  1  0
 18 19  2  0
 19 20  1  0
 20 21  2  0
 15 22  2  0
  6 23  1  0
 23 24  2  0
 24 25  1  0
 25 26  1  0
 26  2  1  0
 25  4  2  0
 22 11  1  0
 21 16  1  0
  3 27  1  0
  3 28  1  0
  5 29  1  0
  7 30  1  0
 12 31  1  0
 13 32  1  0
 14 33  1  0
 17 34  1  0
 18 35  1  0
 19 36  1  0
 20 37  1  0
 21 38  1  0
 22 39  1  0
 23 40  1  0
 24 41  1  0
 26 42  1  0
M  END
$$$$
OCNT-2309730
     RDKit          3D

 59 64  0  0  0  0  0  0  0  0999 V2000
   -3.9595   -4.2674   -1.6933 C   0  0  0  0  0  0  0  0  0  0  0  0
   -3.2700   -2.9973   -1.2889 C   0  0  0  0  0  0  0  0  0  0  0  0
   -1.8977   -3.0032   -0.9848 C   0  0  0  0  0  0  0  0  0  0  0  0
   -1.2389   -1.8357   -0.5769 C   0  0  0  0  0  0  0  0  0  0  0  0
   -1.9684   -0.6662   -0.4408 C   0  0  0  0  0  0  0  0  0  0  0  0
   -3.3287   -0.6552   -0.7592 C   0  0  0  0  0  0  0  0  0  0  0  0
   -3.9928   -1.8062   -1.1697 C   0  0  0  0  0  0  0  0  0  0  0  0
   -3.9186    0.7195   -0.6220 C   0  0  0  0  0  0  0  0  0  0  0  0
   -4.9405    0.8103    0.5158 C   0  0  0  0  0  0  0  0  0  0  0  0
   -5.3504    2.1826    0.8414 N   0  0  0  0  0  0  0  0  0  0  0  0
   -6.5613    2.5873    0.1329 C   0  0  0  0  0  0  0  0  0  0  0  0
   -4.2835    3.1797    0.6822 C   0  0  0  0  0  0  0  0  0  0  0  0
   -2.8878    2.5733    0.8008 C   0  0  0  0  0  0  0  0  0  0  0  0
   -2.6595    1.5742   -0.3411 C   0  0  0  0  0  0  0  0  0  0  0  0
   -1.5488    0.6309   -0.0727 N   0  0  0  0  0  0  0  0  0  0  0  0
   -0.2687    1.0980    0.1827 C   0  0  0  0  0  0  0  0  0  0  0  0
    0.0749    2.2605   -0.0342 O   0  0  0  0  0  0  0  0  0  0  0  0
    0.7237    0.2251    0.8290 C   0  0  0  0  0  0  0  0  0  0  0  0
    0.3989   -0.5193    1.9531 C   0  0  0  0  0  0  0  0  0  0  0  0
    1.2841   -1.3099    2.6025 N   0  0  0  0  0  0  0  0  0  0  0  0
    2.5529   -1.3232    2.1200 C   0  0  0  0  0  0  0  0  0  0  0  0
    2.9990   -0.5921    1.0149 C   0  0  0  0  0  0  0  0  0  0  0  0
    4.3957   -0.6481    0.5572 C   0  0  0  0  0  0  0  0  0  0  0  0
    5.0396   -1.8918    0.3437 C   0  0  0  0  0  0  0  0  0  0  0  0
    6.3692   -1.9640   -0.0864 C   0  0  0  0  0  0  0  0  0  0  0  0
    7.0391   -0.7820   -0.3094 C   0  0  0  0  0  0  0  0  0  0  0  0
    8.3424   -0.6965   -0.7228 O   0  0  0  0  0  0  0  0  0  0  0  0
    8.4963    0.6992   -1.0749 C   0  0  0  0  0  0  0  0  0  0  0  0
    7.4249    1.5203   -0.3555 C   0  0  0  0  0  0  0  0  0  0  0  0
    6.4368    0.4473   -0.1082 C   0  0  0  0  0  0  0  0  0  0  0  0
    5.1246    0.5354    0.3275 C   0  0  0  0  0  0  0  0  0  0  0  0
    2.0434    0.2048    0.3706 C   0  0  0  0  0  0  0  0  0  0  0  0
   -3.2781   -4.9221   -2.2466 H   0  0  0  0  0  0  0  0  0  0  0  0
   -4.8118   -4.0584   -2.3483 H   0  0  0  0  0  0  0  0  0  0  0  0
   -4.3175   -4.7971   -0.8052 H   0  0  0  0  0  0  0  0  0  0  0  0
   -1.3255   -3.9252   -1.0744 H   0  0  0  0  0  0  0  0  0  0  0  0
   -0.1731   -1.8925   -0.3984 H   0  0  0  0  0  0  0  0  0  0  0  0
   -5.0535   -1.7764   -1.4034 H   0  0  0  0  0  0  0  0  0  0  0  0
   -4.3719    1.0321   -1.5710 H   0  0  0  0  0  0  0  0  0  0  0  0
   -5.8135    0.1807    0.2983 H   0  0  0  0  0  0  0  0  0  0  0  0
   -4.5104    0.3736    1.4283 H   0  0  0  0  0  0  0  0  0  0  0  0
   -6.8749    3.5894    0.4465 H   0  0  0  0  0  0  0  0  0  0  0  0
   -7.3910    1.9121    0.3694 H   0  0  0  0  0  0  0  0  0  0  0  0
   -6.4198    2.5928   -0.9536 H   0  0  0  0  0  0  0  0  0  0  0  0
   -4.4109    3.9539    1.4474 H   0  0  0  0  0  0  0  0  0  0  0  0
   -4.3546    3.6799   -0.2934 H   0  0  0  0  0  0  0  0  0  0  0  0
   -2.7661    2.0881    1.7781 H   0  0  0  0  0  0  0  0  0  0  0  0
   -2.1383    3.3718    0.7594 H   0  0  0  0  0  0  0  0  0  0  0  0
   -2.3885    2.1286   -1.2512 H   0  0  0  0  0  0  0  0  0  0  0  0
   -0.6016   -0.5052    2.3766 H   0  0  0  0  0  0  0  0  0  0  0  0
    3.2352   -1.9556    2.6846 H   0  0  0  0  0  0  0  0  0  0  0  0
    4.4983   -2.8227    0.5044 H   0  0  0  0  0  0  0  0  0  0  0  0
    6.8577   -2.9186   -0.2461 H   0  0  0  0  0  0  0  0  0  0  0  0
    9.5049    1.0308   -0.8073 H   0  0  0  0  0  0  0  0  0  0  0  0
    8.3915    0.7817   -2.1644 H   0  0  0  0  0  0  0  0  0  0  0  0
    7.8012    1.9155    0.5935 H   0  0  0  0  0  0  0  0  0  0  0  0
    7.0485    2.3349   -0.9793 H   0  0  0  0  0  0  0  0  0  0  0  0
    4.6770    1.5101    0.5049 H   0  0  0  0  0  0  0  0  0  0  0  0
    2.3159    0.8075   -0.4935 H   0  0  0  0  0  0  0  0  0  0  0  0
  1  2  1  0
  2  3  1  0
  3  4  2  0
  4  5  1  0
  5  6  2  0
  6  7  1  0
  6  8  1  0
  8  9  1  0
  9 10  1  0
 10 11  1  0
 10 12  1  0
 12 13  1  0
 13 14  1  0
 14 15  1  0
 15 16  1  0
 16 17  2  0
 16 18  1  0
 18 19  1  0
 19 20  2  0
 20 21  1  0
 21 22  2  0
 22 23  1  0
 23 24  1  0
 24 25  2  0
 25 26  1  0
 26 27  1  0
 27 28  1  0
 28 29  1  0
 29 30  1  0
 30 31  1  0
 22 32  1  0
  7  2  2  0
 14  8  1  0
 32 18  2  0
 15  5  1  0
 31 23  2  0
 30 26  2  0
  1 33  1  0
  1 34  1  0
  1 35  1  0
  3 36  1  0
  4 37  1  0
  7 38  1  0
  8 39  1  0
  9 40  1  0
  9 41  1  0
 11 42  1  0
 11 43  1  0
 11 44  1  0
 12 45  1  0
 12 46  1  0
 13 47  1  0
 13 48  1  0
 14 49  1  0
 19 50  1  0
 21 51  1  0
 24 52  1  0
 25 53  1  0
 28 54  1  0
 28 55  1  0
 29 56  1  0
 29 57  1  0
 31 58  1  0
 32 59  1  0
M  END
$$$$
OCNT-2309752
     RDKit          3D

 56 61  0  0  0  0  0  0  0  0999 V2000
    0.2246   -3.1660   -4.5288 N   0  0  0  0  0  0  0  0  0  0  0  0
   -0.5135   -2.4771   -3.6267 C   0  0  0  0  0  0  0  0  0  0  0  0
   -1.5795   -1.8420   -3.9820 N   0  0  0  0  0  0  0  0  0  0  0  0
   -2.2546   -1.1813   -3.0067 C   0  0  0  0  0  0  0  0  0  0  0  0
   -3.4152   -0.5619   -3.0872 N   0  0  0  0  0  0  0  0  0  0  0  0
   -3.6738   -0.0638   -1.8340 C   0  0  0  0  0  0  0  0  0  0  0  0
   -4.7733    0.6792   -1.3811 C   0  0  0  0  0  0  0  0  0  0  0  0
   -4.8215    1.0529   -0.0335 C   0  0  0  0  0  0  0  0  0  0  0  0
   -3.7820    0.7174    0.8414 C   0  0  0  0  0  0  0  0  0  0  0  0
   -2.6600    0.0071    0.3971 C   0  0  0  0  0  0  0  0  0  0  0  0
   -2.6482   -0.3791   -0.9477 C   0  0  0  0  0  0  0  0  0  0  0  0
   -1.7564   -1.0624   -1.7288 N   0  0  0  0  0  0  0  0  0  0  0  0
   -0.4858   -1.6667   -1.3622 C   0  0  0  0  0  0  0  0  0  0  0  0
    0.5657   -0.6162   -1.0405 C   0  0  0  0  0  0  0  0  0  0  0  0
    0.9099    0.3883   -1.9584 C   0  0  0  0  0  0  0  0  0  0  0  0
    1.8891    1.3291   -1.6419 C   0  0  0  0  0  0  0  0  0  0  0  0
    2.5436    1.2809   -0.4090 C   0  0  0  0  0  0  0  0  0  0  0  0
    2.2217    0.2892    0.5149 C   0  0  0  0  0  0  0  0  0  0  0  0
    2.7862    0.1144    1.7481 O   0  0  0  0  0  0  0  0  0  0  0  0
    3.6634    1.1302    2.2463 C   0  0  0  0  0  0  0  0  0  0  0  0
    5.0896    0.9322    1.7958 C   0  0  0  0  0  0  0  0  0  0  0  0
    5.6527   -0.3485    1.6805 C   0  0  0  0  0  0  0  0  0  0  0  0
    6.9846   -0.4989    1.2890 C   0  0  0  0  0  0  0  0  0  0  0  0
    7.7560    0.6281    1.0240 C   0  0  0  0  0  0  0  0  0  0  0  0
    9.0332    0.4782    0.6502 F   0  0  0  0  0  0  0  0  0  0  0  0
    7.2250    1.9037    1.1454 C   0  0  0  0  0  0  0  0  0  0  0  0
    5.8984    2.0440    1.5351 C   0  0  0  0  0  0  0  0  0  0  0  0
    5.3900    3.2785    1.6562 F   0  0  0  0  0  0  0  0  0  0  0  0
    1.2438   -0.6574    0.1903 C   0  0  0  0  0  0  0  0  0  0  0  0
    0.0249   -2.5716   -2.3834 N   0  0  0  0  0  0  0  0  0  0  0  0
   -3.7442    1.1400    2.1453 O   0  0  0  0  0  0  0  0  0  0  0  0
   -4.8250    0.6104    2.9137 C   0  0  0  0  0  0  0  0  0  0  0  0
   -6.1023    1.4157    2.7347 C   0  0  0  0  0  0  0  0  0  0  0  0
   -6.6830    1.2188    1.3432 C   0  0  0  0  0  0  0  0  0  0  0  0
   -5.8797    1.8396    0.3403 O   0  0  0  0  0  0  0  0  0  0  0  0
   -0.2640   -3.1982   -5.4208 H   0  0  0  0  0  0  0  0  0  0  0  0
    0.4448   -4.1056   -4.2210 H   0  0  0  0  0  0  0  0  0  0  0  0
   -5.5634    0.9563   -2.0694 H   0  0  0  0  0  0  0  0  0  0  0  0
   -1.8418   -0.2137    1.0729 H   0  0  0  0  0  0  0  0  0  0  0  0
   -0.6962   -2.2656   -0.4672 H   0  0  0  0  0  0  0  0  0  0  0  0
    0.4170    0.4485   -2.9288 H   0  0  0  0  0  0  0  0  0  0  0  0
    2.1446    2.1049   -2.3606 H   0  0  0  0  0  0  0  0  0  0  0  0
    3.3028    2.0306   -0.2127 H   0  0  0  0  0  0  0  0  0  0  0  0
    3.2769    2.1315    2.0211 H   0  0  0  0  0  0  0  0  0  0  0  0
    3.6509    1.0438    3.3397 H   0  0  0  0  0  0  0  0  0  0  0  0
    5.0539   -1.2327    1.8908 H   0  0  0  0  0  0  0  0  0  0  0  0
    7.4254   -1.4864    1.1908 H   0  0  0  0  0  0  0  0  0  0  0  0
    7.8352    2.7755    0.9418 H   0  0  0  0  0  0  0  0  0  0  0  0
    1.0103   -1.4308    0.9202 H   0  0  0  0  0  0  0  0  0  0  0  0
    1.0355   -2.6434   -2.3892 H   0  0  0  0  0  0  0  0  0  0  0  0
   -4.5159    0.6756    3.9632 H   0  0  0  0  0  0  0  0  0  0  0  0
   -4.9785   -0.4564    2.7016 H   0  0  0  0  0  0  0  0  0  0  0  0
   -6.8378    1.0964    3.4809 H   0  0  0  0  0  0  0  0  0  0  0  0
   -5.8857    2.4790    2.8907 H   0  0  0  0  0  0  0  0  0  0  0  0
   -6.8561    0.1582    1.1159 H   0  0  0  0  0  0  0  0  0  0  0  0
   -7.6623    1.7088    1.3006 H   0  0  0  0  0  0  0  0  0  0  0  0
  1  2  1  0
  2  3  2  0
  3  4  1  0
  4  5  2  0
  5  6  1  0
  6  7  2  0
  7  8  1  0
  8  9  2  0
  9 10  1  0
 10 11  2  0
 11 12  1  0
 12 13  1  0
 13 14  1  0
 14 15  2  0
 15 16  1  0
 16 17  2  0
 17 18  1  0
 18 19  1  0
 19 20  1  0
 20 21  1  0
 21 22  1  0
 22 23  2  0
 23 24  1  0
 24 25  1  0
 24 26  2  0
 26 27  1  0
 27 28  1  0
 18 29  2  0
 13 30  1  0
  9 31  1  0
 31 32  1  0
 32 33  1  0
 33 34  1  0
 34 35  1  0
 30  2  1  0
 12  4  1  0
 29 14  1  0
 11  6  1  0
 27 21  2  0
 35  8  1  0
  1 36  1  0
  1 37  1  0
  7 38  1  0
 10 39  1  0
 13 40  1  0
 15 41  1  0
 16 42  1  0
 17 43  1  0
 20 44  1  0
 20 45  1  0
 22 46  1  0
 23 47  1  0
 26 48  1  0
 29 49  1  0
 30 50  1  0
 32 51  1  0
 32 52  1  0
 33 53  1  0
 33 54  1  0
 34 55  1  0
 34 56  1  0
M  END
$$$$
OCNT-2309755
     RDKit          3D

 42 45  0  0  0  0  0  0  0  0999 V2000
   -5.6216    0.7889   -0.5894 C   0  0  0  0  0  0  0  0  0  0  0  0
   -4.2690    0.6179   -1.0588 N   0  0  0  0  0  0  0  0  0  0  0  0
   -3.9778    0.9003   -2.3433 N   0  0  0  0  0  0  0  0  0  0  0  0
   -2.6596    0.7030   -2.4149 C   0  0  0  0  0  0  0  0  0  0  0  0
   -2.0973    0.2644   -1.1914 C   0  0  0  0  0  0  0  0  0  0  0  0
   -0.6626   -0.0357   -0.9294 C   0  0  0  0  0  0  0  0  0  0  0  0
   -0.1098    1.0583   -0.1293 N   0  0  0  0  0  0  0  0  0  0  0  0
    1.3600    0.9874    0.0570 C   0  0  0  0  0  0  0  0  0  0  0  0
    1.8628   -0.3029    0.7114 C   0  0  0  0  0  0  0  0  0  0  0  0
    3.3678   -0.3226    0.7730 C   0  0  0  0  0  0  0  0  0  0  0  0
    4.0390   -1.0253    1.7800 C   0  0  0  0  0  0  0  0  0  0  0  0
    5.4318   -1.1124    1.7635 C   0  0  0  0  0  0  0  0  0  0  0  0
    6.1587   -0.5163    0.7330 C   0  0  0  0  0  0  0  0  0  0  0  0
    5.4960    0.1744   -0.2822 C   0  0  0  0  0  0  0  0  0  0  0  0
    4.1058    0.2782   -0.2535 C   0  0  0  0  0  0  0  0  0  0  0  0
    3.4463    0.9696   -1.2741 N   0  0  0  0  0  0  0  0  0  0  0  0
    2.1113    1.2826   -1.2556 C   0  0  0  0  0  0  0  0  0  0  0  0
    1.5919    1.8497   -2.2176 O   0  0  0  0  0  0  0  0  0  0  0  0
   -3.1862    0.1901   -0.3433 C   0  0  0  0  0  0  0  0  0  0  0  0
   -3.1519   -0.2224    1.1518 C   0  0  0  0  0  0  0  0  0  0  0  0
   -2.6807   -1.6058    1.5188 C   0  0  0  0  0  0  0  0  0  0  0  0
   -4.1279   -1.2477    1.6672 C   0  0  0  0  0  0  0  0  0  0  0  0
   -5.6058    1.0799    0.4635 H   0  0  0  0  0  0  0  0  0  0  0  0
   -6.1499   -0.1583   -0.7201 H   0  0  0  0  0  0  0  0  0  0  0  0
   -6.1065    1.5762   -1.1729 H   0  0  0  0  0  0  0  0  0  0  0  0
   -2.1537    0.8895   -3.3540 H   0  0  0  0  0  0  0  0  0  0  0  0
   -0.5895   -0.9876   -0.3947 H   0  0  0  0  0  0  0  0  0  0  0  0
   -0.1343   -0.1495   -1.8825 H   0  0  0  0  0  0  0  0  0  0  0  0
   -0.3021    1.9281   -0.6358 H   0  0  0  0  0  0  0  0  0  0  0  0
    1.6179    1.8249    0.7210 H   0  0  0  0  0  0  0  0  0  0  0  0
    1.4397   -0.3892    1.7196 H   0  0  0  0  0  0  0  0  0  0  0  0
    1.5582   -1.1887    0.1418 H   0  0  0  0  0  0  0  0  0  0  0  0
    3.4826   -1.5168    2.5750 H   0  0  0  0  0  0  0  0  0  0  0  0
    5.9506   -1.6563    2.5494 H   0  0  0  0  0  0  0  0  0  0  0  0
    7.2432   -0.5933    0.7196 H   0  0  0  0  0  0  0  0  0  0  0  0
    6.0749    0.6321   -1.0793 H   0  0  0  0  0  0  0  0  0  0  0  0
    3.9603    1.2871   -2.0859 H   0  0  0  0  0  0  0  0  0  0  0  0
   -2.8721    0.5827    1.8256 H   0  0  0  0  0  0  0  0  0  0  0  0
   -2.4153   -2.2974    0.7278 H   0  0  0  0  0  0  0  0  0  0  0  0
   -2.0836   -1.7095    2.4171 H   0  0  0  0  0  0  0  0  0  0  0  0
   -4.5171   -1.1145    2.6699 H   0  0  0  0  0  0  0  0  0  0  0  0
   -4.8245   -1.7131    0.9799 H   0  0  0  0  0  0  0  0  0  0  0  0
  1  2  1  0
  2  3  1  0
  3  4  2  0
  4  5  1  0
  5  6  1  0
  6  7  1  0
  7  8  1  0
  8  9  1  0
  9 10  1  0
 10 11  2  0
 11 12  1  0
 12 13  2  0
 13 14  1  0
 14 15  2  0
 15 16  1  0
 16 17  1  0
 17 18  2  0
  5 19  2  0
 19 20  1  0
 20 21  1  0
 21 22  1  0
 19  2  1  0
 22 20  1  0
 17  8  1  0
 15 10  1  0
  1 23  1  0
  1 24  1  0
  1 25  1  0
  4 26  1  0
  6 27  1  0
  6 28  1  0
  7 29  1  0
  8 30  1  0
  9 31  1  0
  9 32  1  0
 11 33  1  0
 12 34  1  0
 13 35  1  0
 14 36  1  0
 16 37  1  0
 20 38  1  0
 21 39  1  0
 21 40  1  0
 22 41  1  0
 22 42  1  0
M  END
$$$$
OCNT-2309757
     RDKit          3D

 39 41  0  0  0  0  0  0  0  0999 V2000
    4.3660    0.0390   -0.8883 C   0  0  0  0  0  0  0  0  0  0  0  0
    4.1496   -0.0189    0.5965 C   0  0  0  0  0  0  0  0  0  0  0  0
    5.2544   -0.0742    1.4566 C   0  0  0  0  0  0  0  0  0  0  0  0
    5.0589   -0.1406    2.8282 C   0  0  0  0  0  0  0  0  0  0  0  0
    3.7596   -0.1508    3.2927 C   0  0  0  0  0  0  0  0  0  0  0  0
    2.6728   -0.0924    2.4931 N   0  0  0  0  0  0  0  0  0  0  0  0
    2.8625   -0.0080    1.1572 C   0  0  0  0  0  0  0  0  0  0  0  0
    1.7472    0.0271    0.3091 N   0  0  0  0  0  0  0  0  0  0  0  0
    0.4617    0.1755    0.9904 C   0  0  0  0  0  0  0  0  0  0  0  0
   -0.6880    0.4261    0.0501 C   0  0  0  0  0  0  0  0  0  0  0  0
   -1.8930   -0.2369   -0.0713 C   0  0  0  0  0  0  0  0  0  0  0  0
   -2.4868   -1.3849    0.6690 C   0  0  0  0  0  0  0  0  0  0  0  0
   -3.6585   -2.0072   -0.0944 C   0  0  0  0  0  0  0  0  0  0  0  0
   -4.5969   -0.9245   -0.6286 C   0  0  0  0  0  0  0  0  0  0  0  0
   -3.8590    0.0092   -1.5891 C   0  0  0  0  0  0  0  0  0  0  0  0
   -2.5569    0.4102   -1.0849 N   0  0  0  0  0  0  0  0  0  0  0  0
   -1.7529    1.4186   -1.5628 C   0  0  0  0  0  0  0  0  0  0  0  0
   -2.1721    2.3019   -2.6933 C   0  0  0  0  0  0  0  0  0  0  0  0
   -2.5490    1.5774   -3.7828 F   0  0  0  0  0  0  0  0  0  0  0  0
   -1.1973    3.1505   -3.1074 F   0  0  0  0  0  0  0  0  0  0  0  0
   -3.2460    3.0679   -2.3595 F   0  0  0  0  0  0  0  0  0  0  0  0
   -0.6166    1.4479   -0.8799 N   0  0  0  0  0  0  0  0  0  0  0  0
    5.4217   -0.1006   -1.1448 H   0  0  0  0  0  0  0  0  0  0  0  0
    4.0537    1.0131   -1.2780 H   0  0  0  0  0  0  0  0  0  0  0  0
    3.8029   -0.7536   -1.3916 H   0  0  0  0  0  0  0  0  0  0  0  0
    6.2659   -0.0733    1.0590 H   0  0  0  0  0  0  0  0  0  0  0  0
    5.8962   -0.1893    3.5143 H   0  0  0  0  0  0  0  0  0  0  0  0
    3.5461   -0.2087    4.3558 H   0  0  0  0  0  0  0  0  0  0  0  0
    1.8422    0.7790   -0.3690 H   0  0  0  0  0  0  0  0  0  0  0  0
    0.4903    1.0298    1.6803 H   0  0  0  0  0  0  0  0  0  0  0  0
    0.2518   -0.7257    1.5796 H   0  0  0  0  0  0  0  0  0  0  0  0
   -2.8364   -1.0276    1.6454 H   0  0  0  0  0  0  0  0  0  0  0  0
   -1.7275   -2.1521    0.8571 H   0  0  0  0  0  0  0  0  0  0  0  0
   -4.2062   -2.6904    0.5643 H   0  0  0  0  0  0  0  0  0  0  0  0
   -3.2790   -2.6042   -0.9334 H   0  0  0  0  0  0  0  0  0  0  0  0
   -5.4508   -1.3811   -1.1410 H   0  0  0  0  0  0  0  0  0  0  0  0
   -4.9976   -0.3459    0.2135 H   0  0  0  0  0  0  0  0  0  0  0  0
   -4.4534    0.9108   -1.7659 H   0  0  0  0  0  0  0  0  0  0  0  0
   -3.6795   -0.4933   -2.5463 H   0  0  0  0  0  0  0  0  0  0  0  0
  1  2  1  0
  2  3  1  0
  3  4  2  0
  4  5  1  0
  5  6  2  0
  6  7  1  0
  7  8  1  0
  8  9  1  0
  9 10  1  0
 10 11  2  0
 11 12  1  0
 12 13  1  0
 13 14  1  0
 14 15  1  0
 15 16  1  0
 16 17  1  0
 17 18  1  0
 18 19  1  0
 18 20  1  0
 18 21  1  0
 17 22  2  0
  7  2  2  0
 22 10  1  0
 16 11  1  0
  1 23  1  0
  1 24  1  0
  1 25  1  0
  3 26  1  0
  4 27  1  0
  5 28  1  0
  8 29  1  0
  9 30  1  0
  9 31  1  0
 12 32  1  0
 12 33  1  0
 13 34  1  0
 13 35  1  0
 14 36  1  0
 14 37  1  0
 15 38  1  0
 15 39  1  0
M  END
$$$$
OCNT-2309758
     RDKit          3D

 39 42  0  0  0  0  0  0  0  0999 V2000
   -3.3712   -1.6202   -3.5185 C   0  0  0  0  0  0  0  0  0  0  0  0
   -3.0774   -0.6122   -2.4460 C   0  0  0  0  0  0  0  0  0  0  0  0
   -3.7713    0.6019   -2.4111 C   0  0  0  0  0  0  0  0  0  0  0  0
   -3.5391    1.5482   -1.4068 C   0  0  0  0  0  0  0  0  0  0  0  0
   -2.5923    1.2353   -0.4254 C   0  0  0  0  0  0  0  0  0  0  0  0
   -2.1697    1.9667    0.6641 N   0  0  0  0  0  0  0  0  0  0  0  0
   -1.2297    1.2590    1.3589 C   0  0  0  0  0  0  0  0  0  0  0  0
   -1.0292    0.0557    0.7156 C   0  0  0  0  0  0  0  0  0  0  0  0
   -0.0726   -0.9764    1.2174 C   0  0  0  0  0  0  0  0  0  0  0  0
    0.9199   -0.3833    2.2559 C   0  0  0  0  0  0  0  0  0  0  0  0
    2.0078    0.3494    1.5958 N   0  0  0  0  0  0  0  0  0  0  0  0
    3.0685   -0.2963    1.0484 C   0  0  0  0  0  0  0  0  0  0  0  0
    3.6718    0.1435   -0.0326 N   0  0  0  0  0  0  0  0  0  0  0  0
    4.7190   -0.7109   -0.3507 C   0  0  0  0  0  0  0  0  0  0  0  0
    5.5598   -0.4397   -1.5395 C   0  0  0  0  0  0  0  0  0  0  0  0
    4.9628   -1.7739    0.4178 N   0  0  0  0  0  0  0  0  0  0  0  0
    3.8335   -1.7297    1.6444 S   0  0  0  0  0  0  0  0  0  0  0  0
    0.2079    0.5675    3.2526 C   0  0  0  0  0  0  0  0  0  0  0  0
   -0.5286    1.7390    2.5778 C   0  0  0  0  0  0  0  0  0  0  0  0
   -1.8887    0.0288   -0.4178 C   0  0  0  0  0  0  0  0  0  0  0  0
   -2.1422   -0.9085   -1.4397 C   0  0  0  0  0  0  0  0  0  0  0  0
   -2.4907   -2.2370   -3.7277 H   0  0  0  0  0  0  0  0  0  0  0  0
   -3.6489   -1.1240   -4.4546 H   0  0  0  0  0  0  0  0  0  0  0  0
   -4.1928   -2.2714   -3.2044 H   0  0  0  0  0  0  0  0  0  0  0  0
   -4.5088    0.8269   -3.1792 H   0  0  0  0  0  0  0  0  0  0  0  0
   -4.0800    2.4885   -1.3950 H   0  0  0  0  0  0  0  0  0  0  0  0
   -2.5108    2.8880    0.9013 H   0  0  0  0  0  0  0  0  0  0  0  0
    0.4661   -1.4341    0.3799 H   0  0  0  0  0  0  0  0  0  0  0  0
   -0.6565   -1.7691    1.7024 H   0  0  0  0  0  0  0  0  0  0  0  0
    1.3324   -1.2093    2.8475 H   0  0  0  0  0  0  0  0  0  0  0  0
    1.6619    1.0847    0.9805 H   0  0  0  0  0  0  0  0  0  0  0  0
    5.2020    0.4434   -2.0787 H   0  0  0  0  0  0  0  0  0  0  0  0
    6.5975   -0.2588   -1.2419 H   0  0  0  0  0  0  0  0  0  0  0  0
    5.5377   -1.2899   -2.2289 H   0  0  0  0  0  0  0  0  0  0  0  0
    0.9272    0.9665    3.9783 H   0  0  0  0  0  0  0  0  0  0  0  0
   -0.5212   -0.0223    3.8246 H   0  0  0  0  0  0  0  0  0  0  0  0
    0.1911    2.5167    2.2967 H   0  0  0  0  0  0  0  0  0  0  0  0
   -1.2362    2.1864    3.2846 H   0  0  0  0  0  0  0  0  0  0  0  0
   -1.6088   -1.8547   -1.4460 H   0  0  0  0  0  0  0  0  0  0  0  0
  1  2  1  0
  2  3  2  0
  3  4  1  0
  4  5  2  0
  5  6  1  0
  6  7  1  0
  7  8  2  0
  8  9  1  0
  9 10  1  0
 10 11  1  0
 11 12  1  0
 12 13  2  0
 13 14  1  0
 14 15  1  0
 14 16  2  0
 16 17  1  0
 10 18  1  0
 18 19  1  0
  8 20  1  0
 20 21  2  0
 21  2  1  0
 20  5  1  0
 19  7  1  0
 17 12  1  0
  1 22  1  0
  1 23  1  0
  1 24  1  0
  3 25  1  0
  4 26  1  0
  6 27  1  0
  9 28  1  0
  9 29  1  0
 10 30  1  0
 11 31  1  0
 15 32  1  0
 15 33  1  0
 15 34  1  0
 18 35  1  0
 18 36  1  0
 19 37  1  0
 19 38  1  0
 21 39  1  0
M  END
$$$$
OCNT-2309776
     RDKit          3D

 50 53  0  0  0  0  0  0  0  0999 V2000
    2.9340    4.9404    1.4104 Br  0  0  0  0  0  0  0  0  0  0  0  0
    3.1419    3.0941    1.0599 C   0  0  0  0  0  0  0  0  0  0  0  0
    2.6985    2.1591    1.9941 C   0  0  0  0  0  0  0  0  0  0  0  0
    2.8513    0.7939    1.7347 C   0  0  0  0  0  0  0  0  0  0  0  0
    3.4385    0.3612    0.5382 C   0  0  0  0  0  0  0  0  0  0  0  0
    3.5903   -1.0626    0.2477 C   0  0  0  0  0  0  0  0  0  0  0  0
    4.7818   -1.5533   -0.1329 N   0  0  0  0  0  0  0  0  0  0  0  0
    4.5647   -2.8627   -0.3091 N   0  0  0  0  0  0  0  0  0  0  0  0
    3.2833   -3.2407   -0.0667 C   0  0  0  0  0  0  0  0  0  0  0  0
    2.5960   -2.0932    0.2806 C   0  0  0  0  0  0  0  0  0  0  0  0
    1.1385   -1.9752    0.6042 C   0  0  0  0  0  0  0  0  0  0  0  0
    0.3302   -2.4707   -0.5262 N   0  0  0  0  0  0  0  0  0  0  0  0
    0.2836   -1.4814   -1.6307 C   0  0  0  0  0  0  0  0  0  0  0  0
   -0.8853   -0.4562   -1.5926 C   0  0  0  0  0  0  0  0  0  0  0  0
   -1.4127   -0.2335   -0.2385 N   0  0  0  0  0  0  0  0  0  0  0  0
   -2.3464    0.9034   -0.1542 C   0  0  0  0  0  0  0  0  0  0  0  0
   -2.5607    1.3626    1.3013 C   0  0  0  0  0  0  0  0  0  0  0  0
   -3.7935    2.2531    1.4416 C   0  0  0  0  0  0  0  0  0  0  0  0
   -4.0733    2.9259    0.2202 O   0  0  0  0  0  0  0  0  0  0  0  0
   -4.4941    2.0334   -0.8124 C   0  0  0  0  0  0  0  0  0  0  0  0
   -3.7066    0.7212   -0.8379 C   0  0  0  0  0  0  0  0  0  0  0  0
   -1.8707   -1.5003    0.3572 C   0  0  0  0  0  0  0  0  0  0  0  0
   -1.0517   -2.7448   -0.0884 C   0  0  0  0  0  0  0  0  0  0  0  0
    3.8931    1.3140   -0.3847 C   0  0  0  0  0  0  0  0  0  0  0  0
    3.7423    2.6791   -0.1272 C   0  0  0  0  0  0  0  0  0  0  0  0
    2.2387    2.4795    2.9249 H   0  0  0  0  0  0  0  0  0  0  0  0
    2.5191    0.0733    2.4779 H   0  0  0  0  0  0  0  0  0  0  0  0
    5.3437   -3.4423   -0.6025 H   0  0  0  0  0  0  0  0  0  0  0  0
    2.9570   -4.2643   -0.1835 H   0  0  0  0  0  0  0  0  0  0  0  0
    0.8713   -0.9529    0.8853 H   0  0  0  0  0  0  0  0  0  0  0  0
    0.9628   -2.6008    1.4898 H   0  0  0  0  0  0  0  0  0  0  0  0
    1.2325   -0.9381   -1.7136 H   0  0  0  0  0  0  0  0  0  0  0  0
    0.1970   -2.0450   -2.5687 H   0  0  0  0  0  0  0  0  0  0  0  0
   -1.6860   -0.8177   -2.2504 H   0  0  0  0  0  0  0  0  0  0  0  0
   -0.5177    0.4850   -2.0195 H   0  0  0  0  0  0  0  0  0  0  0  0
   -1.8493    1.7477   -0.6554 H   0  0  0  0  0  0  0  0  0  0  0  0
   -2.6681    0.5281    2.0023 H   0  0  0  0  0  0  0  0  0  0  0  0
   -1.6698    1.9164    1.6256 H   0  0  0  0  0  0  0  0  0  0  0  0
   -4.6710    1.6673    1.7413 H   0  0  0  0  0  0  0  0  0  0  0  0
   -3.6257    3.0038    2.2204 H   0  0  0  0  0  0  0  0  0  0  0  0
   -5.5662    1.8365   -0.7012 H   0  0  0  0  0  0  0  0  0  0  0  0
   -4.3619    2.5638   -1.7614 H   0  0  0  0  0  0  0  0  0  0  0  0
   -4.2939   -0.0412   -0.3113 H   0  0  0  0  0  0  0  0  0  0  0  0
   -3.6140    0.3781   -1.8735 H   0  0  0  0  0  0  0  0  0  0  0  0
   -2.9213   -1.7038    0.1249 H   0  0  0  0  0  0  0  0  0  0  0  0
   -1.7847   -1.4193    1.4466 H   0  0  0  0  0  0  0  0  0  0  0  0
   -1.0555   -3.4938    0.7134 H   0  0  0  0  0  0  0  0  0  0  0  0
   -1.5759   -3.2204   -0.9289 H   0  0  0  0  0  0  0  0  0  0  0  0
    4.3676    0.9898   -1.3089 H   0  0  0  0  0  0  0  0  0  0  0  0
    4.0982    3.4035   -0.8544 H   0  0  0  0  0  0  0  0  0  0  0  0
  1  2  1  0
  2  3  1  0
  3  4  2  0
  4  5  1  0
  5  6  1  0
  6  7  2  0
  7  8  1  0
  8  9  1  0
  9 10  2  0
 10 11  1  0
 11 12  1  0
 12 13  1  0
 13 14  1  0
 14 15  1  0
 15 16  1  0
 16 17  1  0
 17 18  1  0
 18 19  1  0
 19 20  1  0
 20 21  1  0
 15 22  1  0
 22 23  1  0
  5 24  2  0
 24 25  1  0
 25  2  2  0
 10  6  1  0
 23 12  1  0
 21 16  1  0
  3 26  1  0
  4 27  1  0
  8 28  1  0
  9 29  1  0
 11 30  1  0
 11 31  1  0
 13 32  1  0
 13 33  1  0
 14 34  1  0
 14 35  1  0
 16 36  1  0
 17 37  1  0
 17 38  1  0
 18 39  1  0
 18 40  1  0
 20 41  1  0
 20 42  1  0
 21 43  1  0
 21 44  1  0
 22 45  1  0
 22 46  1  0
 23 47  1  0
 23 48  1  0
 24 49  1  0
 25 50  1  0
M  END
$$$$
OCNT-2309787
     RDKit          3D

 35 37  0  0  0  0  0  0  0  0999 V2000
    6.3994   -0.7104   -1.4310 F   0  0  0  0  0  0  0  0  0  0  0  0
    5.1231   -0.3945   -1.1743 C   0  0  0  0  0  0  0  0  0  0  0  0
    4.1094   -1.2451   -1.5993 C   0  0  0  0  0  0  0  0  0  0  0  0
    2.7785   -0.9194   -1.3322 C   0  0  0  0  0  0  0  0  0  0  0  0
    2.4626    0.2627   -0.6437 C   0  0  0  0  0  0  0  0  0  0  0  0
    1.0249    0.6180   -0.3404 C   0  0  0  0  0  0  0  0  0  0  0  0
    0.7328    0.4114    1.0779 N   0  0  0  0  0  0  0  0  0  0  0  0
   -0.6807    0.7389    1.4234 C   0  0  0  0  0  0  0  0  0  0  0  0
   -1.7566   -0.2216    0.8726 C   0  0  0  0  0  0  0  0  0  0  0  0
   -1.8455   -1.4579    1.4089 N   0  0  0  0  0  0  0  0  0  0  0  0
   -2.7724   -2.2900    0.9057 C   0  0  0  0  0  0  0  0  0  0  0  0
   -3.6125   -1.9520   -0.1249 C   0  0  0  0  0  0  0  0  0  0  0  0
   -3.4576   -0.6815   -0.6474 C   0  0  0  0  0  0  0  0  0  0  0  0
   -4.3670   -0.2349   -1.7806 C   0  0  0  0  0  0  0  0  0  0  0  0
   -5.6101    0.1162   -1.3424 F   0  0  0  0  0  0  0  0  0  0  0  0
   -4.5719   -1.2214   -2.7036 F   0  0  0  0  0  0  0  0  0  0  0  0
   -3.8989    0.8334   -2.4844 F   0  0  0  0  0  0  0  0  0  0  0  0
   -2.5353    0.1860   -0.1530 N   0  0  0  0  0  0  0  0  0  0  0  0
   -0.9060    1.2942    2.8204 C   0  0  0  0  0  0  0  0  0  0  0  0
   -1.0333    2.1993    1.6348 C   0  0  0  0  0  0  0  0  0  0  0  0
    3.5036    1.1041   -0.2167 C   0  0  0  0  0  0  0  0  0  0  0  0
    4.8331    0.7760   -0.4844 C   0  0  0  0  0  0  0  0  0  0  0  0
    4.3619   -2.1556   -2.1328 H   0  0  0  0  0  0  0  0  0  0  0  0
    1.9903   -1.5918   -1.6632 H   0  0  0  0  0  0  0  0  0  0  0  0
    0.3611    0.0133   -0.9700 H   0  0  0  0  0  0  0  0  0  0  0  0
    0.8586    1.6656   -0.6203 H   0  0  0  0  0  0  0  0  0  0  0  0
    0.9016   -0.5698    1.3051 H   0  0  0  0  0  0  0  0  0  0  0  0
   -2.8194   -3.2696    1.3737 H   0  0  0  0  0  0  0  0  0  0  0  0
   -4.3506   -2.6484   -0.5039 H   0  0  0  0  0  0  0  0  0  0  0  0
   -0.0438    1.4189    3.4652 H   0  0  0  0  0  0  0  0  0  0  0  0
   -1.8108    1.0126    3.3465 H   0  0  0  0  0  0  0  0  0  0  0  0
   -0.2593    2.9416    1.4799 H   0  0  0  0  0  0  0  0  0  0  0  0
   -2.0250    2.5355    1.3543 H   0  0  0  0  0  0  0  0  0  0  0  0
    3.2750    2.0142    0.3346 H   0  0  0  0  0  0  0  0  0  0  0  0
    5.6406    1.4220   -0.1559 H   0  0  0  0  0  0  0  0  0  0  0  0
  1  2  1  0
  2  3  1  0
  3  4  2  0
  4  5  1  0
  5  6  1  0
  6  7  1  0
  7  8  1  0
  8  9  1  0
  9 10  2  0
 10 11  1  0
 11 12  2  0
 12 13  1  0
 13 14  1  0
 14 15  1  0
 14 16  1  0
 14 17  1  0
 13 18  2  0
  8 19  1  0
 19 20  1  0
  5 21  2  0
 21 22  1  0
 22  2  2  0
 20  8  1  0
 18  9  1  0
  3 23  1  0
  4 24  1  0
  6 25  1  0
  6 26  1  0
  7 27  1  0
 11 28  1  0
 12 29  1  0
 19 30  1  0
 19 31  1  0
 20 32  1  0
 20 33  1  0
 21 34  1  0
 22 35  1  0
M  END
$$$$
OCNT-2309801
     RDKit          3D

 37 39  0  0  0  0  0  0  0  0999 V2000
    3.7684    0.3994   -3.5202 C   0  0  0  0  0  0  0  0  0  0  0  0
    3.1940    0.4475   -2.1138 C   0  0  0  0  0  0  0  0  0  0  0  0
    3.2169    1.8120   -1.6222 N   0  0  0  0  0  0  0  0  0  0  0  0
    2.6309    2.0864   -0.4351 C   0  0  0  0  0  0  0  0  0  0  0  0
    1.7548    1.3194    0.1693 N   0  0  0  0  0  0  0  0  0  0  0  0
    1.3246    1.8951    1.3659 C   0  0  0  0  0  0  0  0  0  0  0  0
    0.3531    1.2696    2.2848 C   0  0  0  0  0  0  0  0  0  0  0  0
    0.2988    1.6481    3.4568 O   0  0  0  0  0  0  0  0  0  0  0  0
   -0.4974    0.2627    1.8125 N   0  0  0  0  0  0  0  0  0  0  0  0
   -1.2140   -0.5553    2.7848 C   0  0  0  0  0  0  0  0  0  0  0  0
   -2.6740   -0.7435    2.3853 C   0  0  0  0  0  0  0  0  0  0  0  0
   -2.7822   -1.2690    0.9780 C   0  0  0  0  0  0  0  0  0  0  0  0
   -3.9169   -1.9889    0.5786 C   0  0  0  0  0  0  0  0  0  0  0  0
   -4.0276   -2.4465   -0.7331 C   0  0  0  0  0  0  0  0  0  0  0  0
   -5.4247   -3.3284   -1.2153 Cl  0  0  0  0  0  0  0  0  0  0  0  0
   -3.0203   -2.1879   -1.6585 C   0  0  0  0  0  0  0  0  0  0  0  0
   -1.8926   -1.4627   -1.2698 C   0  0  0  0  0  0  0  0  0  0  0  0
   -1.7640   -0.9924    0.0474 C   0  0  0  0  0  0  0  0  0  0  0  0
   -0.5337   -0.1902    0.4229 C   0  0  0  0  0  0  0  0  0  0  0  0
    1.9413    3.1021    1.6521 C   0  0  0  0  0  0  0  0  0  0  0  0
    3.0217    3.5372    0.4019 S   0  0  0  0  0  0  0  0  0  0  0  0
    3.7309   -0.6215   -3.9130 H   0  0  0  0  0  0  0  0  0  0  0  0
    3.2053    1.0504   -4.1969 H   0  0  0  0  0  0  0  0  0  0  0  0
    4.8121    0.7305   -3.5293 H   0  0  0  0  0  0  0  0  0  0  0  0
    3.7863   -0.1998   -1.4567 H   0  0  0  0  0  0  0  0  0  0  0  0
    2.1674    0.0612   -2.1381 H   0  0  0  0  0  0  0  0  0  0  0  0
    4.0536    2.3441   -1.8382 H   0  0  0  0  0  0  0  0  0  0  0  0
   -1.1671   -0.1201    3.7883 H   0  0  0  0  0  0  0  0  0  0  0  0
   -0.6972   -1.5228    2.8316 H   0  0  0  0  0  0  0  0  0  0  0  0
   -3.1499   -1.4373    3.0883 H   0  0  0  0  0  0  0  0  0  0  0  0
   -3.2057    0.2141    2.4382 H   0  0  0  0  0  0  0  0  0  0  0  0
   -4.7145   -2.1902    1.2903 H   0  0  0  0  0  0  0  0  0  0  0  0
   -3.1109   -2.5376   -2.6840 H   0  0  0  0  0  0  0  0  0  0  0  0
   -1.1145   -1.2567   -2.0024 H   0  0  0  0  0  0  0  0  0  0  0  0
    0.3516   -0.8155    0.2617 H   0  0  0  0  0  0  0  0  0  0  0  0
   -0.5017    0.6858   -0.2328 H   0  0  0  0  0  0  0  0  0  0  0  0
    1.7977    3.7305    2.5205 H   0  0  0  0  0  0  0  0  0  0  0  0
  1  2  1  0
  2  3  1  0
  3  4  1  0
  4  5  2  0
  5  6  1  0
  6  7  1  0
  7  8  2  0
  7  9  1  0
  9 10  1  0
 10 11  1  0
 11 12  1  0
 12 13  1  0
 13 14  2  0
 14 15  1  0
 14 16  1  0
 16 17  2  0
 17 18  1  0
 18 19  1  0
  6 20  2  0
 20 21  1  0
 21  4  1  0
 19  9  1  0
 18 12  2  0
  1 22  1  0
  1 23  1  0
  1 24  1  0
  2 25  1  0
  2 26  1  0
  3 27  1  0
 10 28  1  0
 10 29  1  0
 11 30  1  0
 11 31  1  0
 13 32  1  0
 16 33  1  0
 17 34  1  0
 19 35  1  0
 19 36  1  0
 20 37  1  0
M  END
$$$$
OCNT-2309804
     RDKit          3D

 44 46  0  0  0  0  0  0  0  0999 V2000
   -6.0201    2.7051   -0.6202 C   0  0  0  0  0  0  0  0  0  0  0  0
   -5.6691    1.3390   -0.4454 O   0  0  0  0  0  0  0  0  0  0  0  0
   -5.2310    1.0737    0.8869 C   0  0  0  0  0  0  0  0  0  0  0  0
   -4.8547   -0.4030    1.0180 C   0  0  0  0  0  0  0  0  0  0  0  0
   -3.6353   -0.8082    0.1895 C   0  0  0  0  0  0  0  0  0  0  0  0
   -2.3679   -0.0498    0.5511 C   0  0  0  0  0  0  0  0  0  0  0  0
   -1.1596   -0.6631    0.0440 N   0  0  0  0  0  0  0  0  0  0  0  0
    0.0646   -0.1692    0.4539 C   0  0  0  0  0  0  0  0  0  0  0  0
    0.1723    0.7272    1.2795 O   0  0  0  0  0  0  0  0  0  0  0  0
    1.0880   -0.8381   -0.1819 N   0  0  0  0  0  0  0  0  0  0  0  0
    2.4694   -0.5815   -0.0935 C   0  0  0  0  0  0  0  0  0  0  0  0
    3.3328   -1.4927   -0.7114 C   0  0  0  0  0  0  0  0  0  0  0  0
    4.7188   -1.3035   -0.6748 C   0  0  0  0  0  0  0  0  0  0  0  0
    5.2615   -0.1912   -0.0179 C   0  0  0  0  0  0  0  0  0  0  0  0
    6.6682   -0.0120    0.0130 N   0  0  0  0  0  0  0  0  0  0  0  0
    7.4009    0.9958    0.5987 C   0  0  0  0  0  0  0  0  0  0  0  0
    8.7092    0.6815    0.3264 C   0  0  0  0  0  0  0  0  0  0  0  0
    8.7597   -0.4703   -0.3953 N   0  0  0  0  0  0  0  0  0  0  0  0
    7.5155   -0.8888   -0.5834 N   0  0  0  0  0  0  0  0  0  0  0  0
    4.4012    0.7259    0.5962 C   0  0  0  0  0  0  0  0  0  0  0  0
    3.0139    0.5288    0.5537 C   0  0  0  0  0  0  0  0  0  0  0  0
   -3.5652   -2.2696   -0.2310 C   0  0  0  0  0  0  0  0  0  0  0  0
   -3.8761   -1.2151   -1.2545 C   0  0  0  0  0  0  0  0  0  0  0  0
   -5.1537    3.3489   -0.4403 H   0  0  0  0  0  0  0  0  0  0  0  0
   -6.3513    2.8461   -1.6525 H   0  0  0  0  0  0  0  0  0  0  0  0
   -6.8399    2.9792    0.0507 H   0  0  0  0  0  0  0  0  0  0  0  0
   -4.3854    1.7231    1.1369 H   0  0  0  0  0  0  0  0  0  0  0  0
   -6.0517    1.2943    1.5794 H   0  0  0  0  0  0  0  0  0  0  0  0
   -5.7188   -1.0125    0.7239 H   0  0  0  0  0  0  0  0  0  0  0  0
   -4.6471   -0.6286    2.0709 H   0  0  0  0  0  0  0  0  0  0  0  0
   -2.2781    0.0265    1.6412 H   0  0  0  0  0  0  0  0  0  0  0  0
   -2.4112    0.9670    0.1441 H   0  0  0  0  0  0  0  0  0  0  0  0
   -1.1884   -0.9346   -0.9257 H   0  0  0  0  0  0  0  0  0  0  0  0
    0.8135   -1.6915   -0.6448 H   0  0  0  0  0  0  0  0  0  0  0  0
    2.9439   -2.3662   -1.2288 H   0  0  0  0  0  0  0  0  0  0  0  0
    5.3577   -2.0368   -1.1647 H   0  0  0  0  0  0  0  0  0  0  0  0
    6.9573    1.8167    1.1377 H   0  0  0  0  0  0  0  0  0  0  0  0
    9.6054    1.2155    0.6078 H   0  0  0  0  0  0  0  0  0  0  0  0
    4.7661    1.6064    1.1166 H   0  0  0  0  0  0  0  0  0  0  0  0
    2.3813    1.2684    1.0364 H   0  0  0  0  0  0  0  0  0  0  0  0
   -2.6058   -2.7702   -0.2775 H   0  0  0  0  0  0  0  0  0  0  0  0
   -4.3697   -2.9349    0.0668 H   0  0  0  0  0  0  0  0  0  0  0  0
   -4.8903   -1.1599   -1.6392 H   0  0  0  0  0  0  0  0  0  0  0  0
   -3.1309   -0.9778   -2.0034 H   0  0  0  0  0  0  0  0  0  0  0  0
  1  2  1  0
  2  3  1  0
  3  4  1  0
  4  5  1  0
  5  6  1  0
  6  7  1  0
  7  8  1  0
  8  9  2  0
  8 10  1  0
 10 11  1  0
 11 12  1  0
 12 13  2  0
 13 14  1  0
 14 15  1  0
 15 16  1  0
 16 17  2  0
 17 18  1  0
 18 19  2  0
 14 20  2  0
 20 21  1  0
  5 22  1  0
 22 23  1  0
 23  5  1  0
 21 11  2  0
 19 15  1  0
  1 24  1  0
  1 25  1  0
  1 26  1  0
  3 27  1  0
  3 28  1  0
  4 29  1  0
  4 30  1  0
  6 31  1  0
  6 32  1  0
  7 33  1  0
 10 34  1  0
 12 35  1  0
 13 36  1  0
 16 37  1  0
 17 38  1  0
 20 39  1  0
 21 40  1  0
 22 41  1  0
 22 42  1  0
 23 43  1  0
 23 44  1  0
M  END
$$$$
OCNT-2309817
     RDKit          3D

 42 45  0  0  0  0  0  0  0  0999 V2000
    5.9875   -0.4874    1.3381 C   0  0  0  0  0  0  0  0  0  0  0  0
    4.6483   -0.1813    0.7680 C   0  0  0  0  0  0  0  0  0  0  0  0
    4.3726    0.9842    0.0956 C   0  0  0  0  0  0  0  0  0  0  0  0
    3.1781    1.2662   -0.4607 N   0  0  0  0  0  0  0  0  0  0  0  0
    2.2016    0.3477   -0.3636 C   0  0  0  0  0  0  0  0  0  0  0  0
    0.9652    0.6047   -0.9493 N   0  0  0  0  0  0  0  0  0  0  0  0
    0.7375    1.9737   -1.3990 C   0  0  0  0  0  0  0  0  0  0  0  0
   -0.4012    2.0084   -2.4149 C   0  0  0  0  0  0  0  0  0  0  0  0
   -1.6672    1.3704   -1.8612 C   0  0  0  0  0  0  0  0  0  0  0  0
   -1.4010   -0.0718   -1.4055 C   0  0  0  0  0  0  0  0  0  0  0  0
   -2.6105   -0.6451   -0.7431 C   0  0  0  0  0  0  0  0  0  0  0  0
   -2.7221   -0.8475    0.6143 C   0  0  0  0  0  0  0  0  0  0  0  0
   -1.6751   -0.5830    1.6293 C   0  0  0  0  0  0  0  0  0  0  0  0
   -0.5718    0.3027    1.0162 C   0  0  0  0  0  0  0  0  0  0  0  0
   -0.1838   -0.1577   -0.4219 C   0  0  0  0  0  0  0  0  0  0  0  0
   -3.9709   -1.3672    0.7957 N   0  0  0  0  0  0  0  0  0  0  0  0
   -4.5681   -1.7683    2.0429 C   0  0  0  0  0  0  0  0  0  0  0  0
   -4.5575   -1.4470   -0.4385 C   0  0  0  0  0  0  0  0  0  0  0  0
   -3.7570   -1.0142   -1.3903 N   0  0  0  0  0  0  0  0  0  0  0  0
    2.3897   -0.8246    0.2679 N   0  0  0  0  0  0  0  0  0  0  0  0
    3.5998   -1.0673    0.8087 C   0  0  0  0  0  0  0  0  0  0  0  0
    6.4912    0.4277    1.6669 H   0  0  0  0  0  0  0  0  0  0  0  0
    6.6128   -0.9830    0.5890 H   0  0  0  0  0  0  0  0  0  0  0  0
    5.9004   -1.1417    2.2119 H   0  0  0  0  0  0  0  0  0  0  0  0
    5.1234    1.7593   -0.0290 H   0  0  0  0  0  0  0  0  0  0  0  0
    1.6186    2.3918   -1.9014 H   0  0  0  0  0  0  0  0  0  0  0  0
    0.5053    2.6223   -0.5454 H   0  0  0  0  0  0  0  0  0  0  0  0
   -0.6055    3.0457   -2.7035 H   0  0  0  0  0  0  0  0  0  0  0  0
   -0.0968    1.4762   -3.3251 H   0  0  0  0  0  0  0  0  0  0  0  0
   -2.0490    1.9772   -1.0301 H   0  0  0  0  0  0  0  0  0  0  0  0
   -2.4478    1.3811   -2.6323 H   0  0  0  0  0  0  0  0  0  0  0  0
   -1.1646   -0.6747   -2.2928 H   0  0  0  0  0  0  0  0  0  0  0  0
   -2.0949   -0.0896    2.5123 H   0  0  0  0  0  0  0  0  0  0  0  0
   -1.2395   -1.5354    1.9537 H   0  0  0  0  0  0  0  0  0  0  0  0
    0.2961    0.2899    1.6854 H   0  0  0  0  0  0  0  0  0  0  0  0
   -0.9184    1.3437    0.9905 H   0  0  0  0  0  0  0  0  0  0  0  0
    0.0819   -1.2243   -0.3706 H   0  0  0  0  0  0  0  0  0  0  0  0
   -3.9086   -2.4919    2.5286 H   0  0  0  0  0  0  0  0  0  0  0  0
   -5.5420   -2.2265    1.8530 H   0  0  0  0  0  0  0  0  0  0  0  0
   -4.6905   -0.8805    2.6683 H   0  0  0  0  0  0  0  0  0  0  0  0
   -5.5601   -1.8253   -0.5893 H   0  0  0  0  0  0  0  0  0  0  0  0
    3.6938   -2.0369    1.2894 H   0  0  0  0  0  0  0  0  0  0  0  0
  1  2  1  0
  2  3  2  0
  3  4  1  0
  4  5  2  0
  5  6  1  0
  6  7  1  0
  7  8  1  0
  8  9  1  0
  9 10  1  0
 10 11  1  0
 11 12  2  0
 12 13  1  0
 13 14  1  0
 14 15  1  0
 12 16  1  0
 16 17  1  0
 16 18  1  0
 18 19  2  0
  5 20  1  0
 20 21  2  0
 21  2  1  0
 15  6  1  0
 15 10  1  0
 19 11  1  0
  1 22  1  0
  1 23  1  0
  1 24  1  0
  3 25  1  0
  7 26  1  0
  7 27  1  0
  8 28  1  0
  8 29  1  0
  9 30  1  0
  9 31  1  0
 10 32  1  0
 13 33  1  0
 13 34  1  0
 14 35  1  0
 14 36  1  0
 15 37  1  0
 17 38  1  0
 17 39  1  0
 17 40  1  0
 18 41  1  0
 21 42  1  0
M  END
$$$$
OCNT-2309819
     RDKit          3D

 41 43  0  0  0  0  0  0  0  0999 V2000
   -0.3337   -0.7018   -2.7317 C   0  0  0  0  0  0  0  0  0  0  0  0
   -0.4713   -0.4432   -1.2261 C   0  0  0  0  0  0  0  0  0  0  0  0
   -1.7865    0.3033   -0.8916 C   0  0  0  0  0  0  0  0  0  0  0  0
   -3.0482   -0.4687   -1.3237 C   0  0  0  0  0  0  0  0  0  0  0  0
   -3.9590   -0.0699   -0.2277 C   0  0  0  0  0  0  0  0  0  0  0  0
   -5.3288   -0.2250   -0.1148 C   0  0  0  0  0  0  0  0  0  0  0  0
   -5.9412    0.1832    1.0735 C   0  0  0  0  0  0  0  0  0  0  0  0
   -5.1791    0.7209    2.1247 C   0  0  0  0  0  0  0  0  0  0  0  0
   -3.7954    0.8600    1.9979 C   0  0  0  0  0  0  0  0  0  0  0  0
   -3.2147    0.4645    0.8113 C   0  0  0  0  0  0  0  0  0  0  0  0
   -1.8727    0.5339    0.5466 O   0  0  0  0  0  0  0  0  0  0  0  0
    0.7483    0.2318   -0.7128 N   0  0  0  0  0  0  0  0  0  0  0  0
    0.8502    1.6812   -0.8593 C   0  0  0  0  0  0  0  0  0  0  0  0
    1.8074   -0.5820   -0.2968 C   0  0  0  0  0  0  0  0  0  0  0  0
    1.8224   -1.7880   -0.5293 O   0  0  0  0  0  0  0  0  0  0  0  0
    2.7844    0.0893    0.4062 N   0  0  0  0  0  0  0  0  0  0  0  0
    4.0335   -0.4149    0.8258 C   0  0  0  0  0  0  0  0  0  0  0  0
    4.5810   -1.6066    0.3616 C   0  0  0  0  0  0  0  0  0  0  0  0
    5.8258   -1.9898    0.8356 C   0  0  0  0  0  0  0  0  0  0  0  0
    6.5512   -1.2717    1.7192 N   0  0  0  0  0  0  0  0  0  0  0  0
    6.0032   -0.1176    2.1486 C   0  0  0  0  0  0  0  0  0  0  0  0
    4.7657    0.3495    1.7347 C   0  0  0  0  0  0  0  0  0  0  0  0
   -0.3319    0.2362   -3.2969 H   0  0  0  0  0  0  0  0  0  0  0  0
    0.6023   -1.2233   -2.9588 H   0  0  0  0  0  0  0  0  0  0  0  0
   -1.1538   -1.3211   -3.1076 H   0  0  0  0  0  0  0  0  0  0  0  0
   -0.5216   -1.4187   -0.7242 H   0  0  0  0  0  0  0  0  0  0  0  0
   -1.7909    1.2948   -1.3663 H   0  0  0  0  0  0  0  0  0  0  0  0
   -2.9000   -1.5535   -1.3039 H   0  0  0  0  0  0  0  0  0  0  0  0
   -3.3954   -0.1550   -2.3120 H   0  0  0  0  0  0  0  0  0  0  0  0
   -5.9152   -0.6595   -0.9177 H   0  0  0  0  0  0  0  0  0  0  0  0
   -7.0169    0.0741    1.1919 H   0  0  0  0  0  0  0  0  0  0  0  0
   -5.6702    1.0248    3.0458 H   0  0  0  0  0  0  0  0  0  0  0  0
   -3.1949    1.2655    2.8038 H   0  0  0  0  0  0  0  0  0  0  0  0
    0.4397    1.9823   -1.8272 H   0  0  0  0  0  0  0  0  0  0  0  0
    0.2855    2.1577   -0.0538 H   0  0  0  0  0  0  0  0  0  0  0  0
    1.8870    2.0246   -0.8246 H   0  0  0  0  0  0  0  0  0  0  0  0
    2.4728    0.9376    0.8528 H   0  0  0  0  0  0  0  0  0  0  0  0
    4.0769   -2.2407   -0.3572 H   0  0  0  0  0  0  0  0  0  0  0  0
    6.2861   -2.9152    0.5010 H   0  0  0  0  0  0  0  0  0  0  0  0
    6.6044    0.4433    2.8583 H   0  0  0  0  0  0  0  0  0  0  0  0
    4.3933    1.2893    2.1248 H   0  0  0  0  0  0  0  0  0  0  0  0
  1  2  1  0
  2  3  1  0
  3  4  1  0
  4  5  1  0
  5  6  2  0
  6  7  1  0
  7  8  2  0
  8  9  1  0
  9 10  2  0
 10 11  1  0
  2 12  1  0
 12 13  1  0
 12 14  1  0
 14 15  2  0
 14 16  1  0
 16 17  1  0
 17 18  2  0
 18 19  1  0
 19 20  2  0
 20 21  1  0
 21 22  2  0
 11  3  1  0
 22 17  1  0
 10  5  1  0
  1 23  1  0
  1 24  1  0
  1 25  1  0
  2 26  1  0
  3 27  1  0
  4 28  1  0
  4 29  1  0
  6 30  1  0
  7 31  1  0
  8 32  1  0
  9 33  1  0
 13 34  1  0
 13 35  1  0
 13 36  1  0
 16 37  1  0
 18 38  1  0
 19 39  1  0
 21 40  1  0
 22 41  1  0
M  END
$$$$
OCNT-2309836
     RDKit          3D

 58 61  0  0  0  0  0  0  0  0999 V2000
   -2.5611   -3.0224   -0.9656 O   0  0  0  0  0  0  0  0  0  0  0  0
   -3.0823   -1.9688   -0.6216 C   0  0  0  0  0  0  0  0  0  0  0  0
   -2.4442   -0.7814   -0.3114 N   0  0  0  0  0  0  0  0  0  0  0  0
   -1.0645   -0.5033   -0.4030 C   0  0  0  0  0  0  0  0  0  0  0  0
   -0.6347    0.7554    0.0319 C   0  0  0  0  0  0  0  0  0  0  0  0
    0.7165    1.1078   -0.0403 C   0  0  0  0  0  0  0  0  0  0  0  0
    1.6592    0.2129   -0.5456 C   0  0  0  0  0  0  0  0  0  0  0  0
    2.9401    0.6869   -0.5674 O   0  0  0  0  0  0  0  0  0  0  0  0
    3.9555   -0.1926   -1.0560 C   0  0  0  0  0  0  0  0  0  0  0  0
    5.3155    0.5333   -1.0490 C   0  0  0  0  0  0  0  0  0  0  0  0
    5.7878    1.0398    0.2545 N   0  0  0  0  0  0  0  0  0  0  0  0
    7.0403    1.8044    0.1107 C   0  0  0  0  0  0  0  0  0  0  0  0
    8.2548    1.2048    0.8306 C   0  0  0  0  0  0  0  0  0  0  0  0
    8.3108   -0.3062    0.6545 C   0  0  0  0  0  0  0  0  0  0  0  0
    7.0085   -0.9722    1.1030 C   0  0  0  0  0  0  0  0  0  0  0  0
    5.8721    0.0318    1.3101 C   0  0  0  0  0  0  0  0  0  0  0  0
    1.2364   -1.0419   -0.9795 C   0  0  0  0  0  0  0  0  0  0  0  0
   -0.1192   -1.3961   -0.9097 C   0  0  0  0  0  0  0  0  0  0  0  0
   -4.5642   -1.9343   -0.4799 C   0  0  0  0  0  0  0  0  0  0  0  0
   -5.2175   -3.0694    0.0107 C   0  0  0  0  0  0  0  0  0  0  0  0
   -6.6047   -3.0685    0.1550 C   0  0  0  0  0  0  0  0  0  0  0  0
   -7.3453   -1.9384   -0.1991 C   0  0  0  0  0  0  0  0  0  0  0  0
   -6.7083   -0.7967   -0.7100 C   0  0  0  0  0  0  0  0  0  0  0  0
   -7.5130    0.4178   -1.1025 C   0  0  0  0  0  0  0  0  0  0  0  0
   -7.2130    1.5520   -0.2470 N   0  0  0  0  0  0  0  0  0  0  0  0
   -6.4748    2.6538   -0.5824 C   0  0  0  0  0  0  0  0  0  0  0  0
   -6.4860    3.4424    0.5464 C   0  0  0  0  0  0  0  0  0  0  0  0
   -7.2149    2.8515    1.5469 N   0  0  0  0  0  0  0  0  0  0  0  0
   -7.6445    1.7174    1.0415 C   0  0  0  0  0  0  0  0  0  0  0  0
   -5.3098   -0.8072   -0.8562 C   0  0  0  0  0  0  0  0  0  0  0  0
   -3.0128   -0.0429    0.0862 H   0  0  0  0  0  0  0  0  0  0  0  0
   -1.3368    1.4816    0.4327 H   0  0  0  0  0  0  0  0  0  0  0  0
    1.0381    2.0887    0.3024 H   0  0  0  0  0  0  0  0  0  0  0  0
    4.0021   -1.1078   -0.4539 H   0  0  0  0  0  0  0  0  0  0  0  0
    3.7313   -0.4649   -2.0964 H   0  0  0  0  0  0  0  0  0  0  0  0
    6.0653   -0.1297   -1.4990 H   0  0  0  0  0  0  0  0  0  0  0  0
    5.2083    1.4007   -1.7154 H   0  0  0  0  0  0  0  0  0  0  0  0
    7.3010    1.9504   -0.9464 H   0  0  0  0  0  0  0  0  0  0  0  0
    6.8691    2.8116    0.5112 H   0  0  0  0  0  0  0  0  0  0  0  0
    8.2098    1.4466    1.8997 H   0  0  0  0  0  0  0  0  0  0  0  0
    9.1739    1.6610    0.4455 H   0  0  0  0  0  0  0  0  0  0  0  0
    8.4902   -0.5407   -0.4016 H   0  0  0  0  0  0  0  0  0  0  0  0
    9.1568   -0.7213    1.2124 H   0  0  0  0  0  0  0  0  0  0  0  0
    7.1793   -1.5065    2.0456 H   0  0  0  0  0  0  0  0  0  0  0  0
    6.7184   -1.7320    0.3673 H   0  0  0  0  0  0  0  0  0  0  0  0
    6.0216    0.5510    2.2658 H   0  0  0  0  0  0  0  0  0  0  0  0
    4.9230   -0.4981    1.4411 H   0  0  0  0  0  0  0  0  0  0  0  0
    1.9287   -1.7749   -1.3785 H   0  0  0  0  0  0  0  0  0  0  0  0
   -0.4014   -2.3826   -1.2662 H   0  0  0  0  0  0  0  0  0  0  0  0
   -4.6452   -3.9555    0.2823 H   0  0  0  0  0  0  0  0  0  0  0  0
   -7.1083   -3.9520    0.5430 H   0  0  0  0  0  0  0  0  0  0  0  0
   -8.4273   -1.9638   -0.0759 H   0  0  0  0  0  0  0  0  0  0  0  0
   -8.5897    0.2327   -1.0277 H   0  0  0  0  0  0  0  0  0  0  0  0
   -7.2972    0.6970   -2.1396 H   0  0  0  0  0  0  0  0  0  0  0  0
   -6.0174    2.7868   -1.5528 H   0  0  0  0  0  0  0  0  0  0  0  0
   -6.0109    4.4039    0.6916 H   0  0  0  0  0  0  0  0  0  0  0  0
   -8.2573    0.9890    1.5615 H   0  0  0  0  0  0  0  0  0  0  0  0
   -4.8082    0.0596   -1.2836 H   0  0  0  0  0  0  0  0  0  0  0  0
  1  2  2  0
  2  3  1  0
  3  4  1  0
  4  5  1  0
  5  6  2  0
  6  7  1  0
  7  8  1  0
  8  9  1  0
  9 10  1  0
 10 11  1  0
 11 12  1  0
 12 13  1  0
 13 14  1  0
 14 15  1  0
 15 16  1  0
  7 17  2  0
 17 18  1  0
  2 19  1  0
 19 20  1  0
 20 21  2  0
 21 22  1  0
 22 23  2  0
 23 24  1  0
 24 25  1  0
 25 26  1  0
 26 27  2  0
 27 28  1  0
 28 29  2  0
 23 30  1  0
 18  4  2  0
 30 19  2  0
 16 11  1  0
 29 25  1  0
  3 31  1  0
  5 32  1  0
  6 33  1  0
  9 34  1  0
  9 35  1  0
 10 36  1  0
 10 37  1  0
 12 38  1  0
 12 39  1  0
 13 40  1  0
 13 41  1  0
 14 42  1  0
 14 43  1  0
 15 44  1  0
 15 45  1  0
 16 46  1  0
 16 47  1  0
 17 48  1  0
 18 49  1  0
 20 50  1  0
 21 51  1  0
 22 52  1  0
 24 53  1  0
 24 54  1  0
 26 55  1  0
 27 56  1  0
 29 57  1  0
 30 58  1  0
M  END
$$$$
OCNT-2309844
     RDKit          3D

 48 50  0  0  0  0  0  0  0  0999 V2000
    7.0631   -1.4795   -0.1308 C   0  0  0  0  0  0  0  0  0  0  0  0
    5.7050   -1.4838    0.2896 O   0  0  0  0  0  0  0  0  0  0  0  0
    4.8993   -0.4603   -0.1444 C   0  0  0  0  0  0  0  0  0  0  0  0
    5.3611    0.6397   -0.8719 C   0  0  0  0  0  0  0  0  0  0  0  0
    4.4771    1.6386   -1.2684 C   0  0  0  0  0  0  0  0  0  0  0  0
    3.1219    1.5435   -0.9541 C   0  0  0  0  0  0  0  0  0  0  0  0
    2.6255    0.4477   -0.2401 C   0  0  0  0  0  0  0  0  0  0  0  0
    1.2498    0.3222    0.0837 N   0  0  0  0  0  0  0  0  0  0  0  0
    0.1945    1.0949   -0.3521 C   0  0  0  0  0  0  0  0  0  0  0  0
    0.2717    1.9842   -1.1934 O   0  0  0  0  0  0  0  0  0  0  0  0
   -1.0324    0.7789    0.2500 N   0  0  0  0  0  0  0  0  0  0  0  0
   -1.1515   -0.0171    1.4735 C   0  0  0  0  0  0  0  0  0  0  0  0
   -2.5433    0.0310    2.0996 C   0  0  0  0  0  0  0  0  0  0  0  0
   -3.6166   -0.2401    1.0395 C   0  0  0  0  0  0  0  0  0  0  0  0
   -5.0103   -0.2380    1.6737 C   0  0  0  0  0  0  0  0  0  0  0  0
   -3.5263    0.7854   -0.1221 C   0  0  0  0  0  0  0  0  0  0  0  0
   -3.8097    0.1472   -1.4090 N   0  0  0  0  0  0  0  0  0  0  0  0
   -4.9623    0.2869   -2.1343 C   0  0  0  0  0  0  0  0  0  0  0  0
   -4.7822   -0.5034   -3.2460 C   0  0  0  0  0  0  0  0  0  0  0  0
   -3.5598   -1.1229   -3.2088 N   0  0  0  0  0  0  0  0  0  0  0  0
   -2.9922   -0.7060   -2.0998 C   0  0  0  0  0  0  0  0  0  0  0  0
   -2.1997    1.5732   -0.1463 C   0  0  0  0  0  0  0  0  0  0  0  0
    3.5280   -0.5588    0.1926 C   0  0  0  0  0  0  0  0  0  0  0  0
    3.0371   -1.7387    0.9999 C   0  0  0  0  0  0  0  0  0  0  0  0
    7.1402   -1.5061   -1.2236 H   0  0  0  0  0  0  0  0  0  0  0  0
    7.5349   -2.3885    0.2575 H   0  0  0  0  0  0  0  0  0  0  0  0
    7.6026   -0.6211    0.2859 H   0  0  0  0  0  0  0  0  0  0  0  0
    6.4055    0.7554   -1.1407 H   0  0  0  0  0  0  0  0  0  0  0  0
    4.8392    2.4971   -1.8276 H   0  0  0  0  0  0  0  0  0  0  0  0
    2.4768    2.3516   -1.2817 H   0  0  0  0  0  0  0  0  0  0  0  0
    0.9926   -0.5250    0.5539 H   0  0  0  0  0  0  0  0  0  0  0  0
   -0.9059   -1.0538    1.2125 H   0  0  0  0  0  0  0  0  0  0  0  0
   -0.4076    0.3350    2.1977 H   0  0  0  0  0  0  0  0  0  0  0  0
   -2.6032   -0.7103    2.9071 H   0  0  0  0  0  0  0  0  0  0  0  0
   -2.7104    1.0144    2.5612 H   0  0  0  0  0  0  0  0  0  0  0  0
   -3.4464   -1.2558    0.6523 H   0  0  0  0  0  0  0  0  0  0  0  0
   -5.7816   -0.4549    0.9283 H   0  0  0  0  0  0  0  0  0  0  0  0
   -5.2386    0.7324    2.1276 H   0  0  0  0  0  0  0  0  0  0  0  0
   -5.0798   -0.9996    2.4566 H   0  0  0  0  0  0  0  0  0  0  0  0
   -4.3184    1.5395   -0.0041 H   0  0  0  0  0  0  0  0  0  0  0  0
   -5.7862    0.9134   -1.8188 H   0  0  0  0  0  0  0  0  0  0  0  0
   -5.4674   -0.6625   -4.0691 H   0  0  0  0  0  0  0  0  0  0  0  0
   -2.0051   -0.9899   -1.7581 H   0  0  0  0  0  0  0  0  0  0  0  0
   -2.0486    2.0319   -1.1332 H   0  0  0  0  0  0  0  0  0  0  0  0
   -2.2556    2.4040    0.5736 H   0  0  0  0  0  0  0  0  0  0  0  0
    2.5088   -1.3879    1.8935 H   0  0  0  0  0  0  0  0  0  0  0  0
    2.3638   -2.3555    0.3937 H   0  0  0  0  0  0  0  0  0  0  0  0
    3.8426   -2.3884    1.3558 H   0  0  0  0  0  0  0  0  0  0  0  0
  1  2  1  0
  2  3  1  0
  3  4  1  0
  4  5  2  0
  5  6  1  0
  6  7  2  0
  7  8  1  0
  8  9  1  0
  9 10  2  0
  9 11  1  0
 11 12  1  0
 12 13  1  0
 13 14  1  0
 14 15  1  0
 14 16  1  0
 16 17  1  0
 17 18  1  0
 18 19  2  0
 19 20  1  0
 20 21  2  0
 16 22  1  0
  7 23  1  0
 23 24  1  0
 23  3  2  0
 22 11  1  0
 21 17  1  0
  1 25  1  0
  1 26  1  0
  1 27  1  0
  4 28  1  0
  5 29  1  0
  6 30  1  0
  8 31  1  0
 12 32  1  0
 12 33  1  0
 13 34  1  0
 13 35  1  0
 14 36  1  0
 15 37  1  0
 15 38  1  0
 15 39  1  0
 16 40  1  0
 18 41  1  0
 19 42  1  0
 21 43  1  0
 22 44  1  0
 22 45  1  0
 24 46  1  0
 24 47  1  0
 24 48  1  0
M  END
$$$$
OCNT-2309846
     RDKit          3D

 49 51  0  0  0  0  0  0  0  0999 V2000
   -7.1194    1.3611    0.3633 C   0  0  0  0  0  0  0  0  0  0  0  0
   -5.8907    0.5346    0.1184 C   0  0  0  0  0  0  0  0  0  0  0  0
   -5.8758   -0.8245    0.4610 C   0  0  0  0  0  0  0  0  0  0  0  0
   -4.7525   -1.6212    0.2027 C   0  0  0  0  0  0  0  0  0  0  0  0
   -4.7638   -3.0832    0.5398 C   0  0  0  0  0  0  0  0  0  0  0  0
   -3.6428   -1.0494   -0.4313 C   0  0  0  0  0  0  0  0  0  0  0  0
   -3.6424    0.3076   -0.7769 C   0  0  0  0  0  0  0  0  0  0  0  0
   -2.4363    0.8672   -1.4455 C   0  0  0  0  0  0  0  0  0  0  0  0
   -1.6578    0.1424   -2.0592 O   0  0  0  0  0  0  0  0  0  0  0  0
   -2.2032    2.2150   -1.2769 N   0  0  0  0  0  0  0  0  0  0  0  0
   -1.0249    2.8498   -1.8450 C   0  0  0  0  0  0  0  0  0  0  0  0
    0.2119    2.6353   -0.9646 C   0  0  0  0  0  0  0  0  0  0  0  0
    0.6959    3.5647   -0.3244 O   0  0  0  0  0  0  0  0  0  0  0  0
    0.6579    1.3254   -0.9943 N   0  0  0  0  0  0  0  0  0  0  0  0
    1.7662    0.7698   -0.3310 C   0  0  0  0  0  0  0  0  0  0  0  0
    1.9678   -0.6077   -0.4720 C   0  0  0  0  0  0  0  0  0  0  0  0
    3.0476   -1.2405    0.1514 C   0  0  0  0  0  0  0  0  0  0  0  0
    3.9479   -0.5041    0.9314 C   0  0  0  0  0  0  0  0  0  0  0  0
    5.1208   -1.1756    1.5976 C   0  0  0  0  0  0  0  0  0  0  0  0
    6.2352   -1.3377    0.6820 N   0  0  0  0  0  0  0  0  0  0  0  0
    7.2033   -0.4120    0.4046 C   0  0  0  0  0  0  0  0  0  0  0  0
    8.0570   -1.0440   -0.4693 C   0  0  0  0  0  0  0  0  0  0  0  0
    7.6416   -2.3275   -0.7136 N   0  0  0  0  0  0  0  0  0  0  0  0
    6.5433   -2.4759   -0.0076 C   0  0  0  0  0  0  0  0  0  0  0  0
    3.7471    0.8761    1.0641 C   0  0  0  0  0  0  0  0  0  0  0  0
    2.6646    1.5064    0.4394 C   0  0  0  0  0  0  0  0  0  0  0  0
   -4.7726    1.0930   -0.5150 C   0  0  0  0  0  0  0  0  0  0  0  0
   -7.6260    1.0427    1.2806 H   0  0  0  0  0  0  0  0  0  0  0  0
   -6.8622    2.4187    0.4852 H   0  0  0  0  0  0  0  0  0  0  0  0
   -7.8114    1.2611   -0.4786 H   0  0  0  0  0  0  0  0  0  0  0  0
   -6.7531   -1.2697    0.9289 H   0  0  0  0  0  0  0  0  0  0  0  0
   -3.7543   -3.4381    0.7732 H   0  0  0  0  0  0  0  0  0  0  0  0
   -5.1553   -3.6587   -0.3046 H   0  0  0  0  0  0  0  0  0  0  0  0
   -5.3868   -3.2762    1.4195 H   0  0  0  0  0  0  0  0  0  0  0  0
   -2.7723   -1.6629   -0.6580 H   0  0  0  0  0  0  0  0  0  0  0  0
   -2.6743    2.7038   -0.5261 H   0  0  0  0  0  0  0  0  0  0  0  0
   -1.2283    3.9222   -1.9223 H   0  0  0  0  0  0  0  0  0  0  0  0
   -0.8319    2.4575   -2.8494 H   0  0  0  0  0  0  0  0  0  0  0  0
    0.0712    0.6752   -1.5227 H   0  0  0  0  0  0  0  0  0  0  0  0
    1.2867   -1.2065   -1.0731 H   0  0  0  0  0  0  0  0  0  0  0  0
    3.1788   -2.3119    0.0155 H   0  0  0  0  0  0  0  0  0  0  0  0
    5.4767   -0.5946    2.4568 H   0  0  0  0  0  0  0  0  0  0  0  0
    4.8375   -2.1651    1.9755 H   0  0  0  0  0  0  0  0  0  0  0  0
    7.2026    0.5830    0.8262 H   0  0  0  0  0  0  0  0  0  0  0  0
    8.9497   -0.6444   -0.9326 H   0  0  0  0  0  0  0  0  0  0  0  0
    5.9435   -3.3754    0.0384 H   0  0  0  0  0  0  0  0  0  0  0  0
    4.4333    1.4819    1.6528 H   0  0  0  0  0  0  0  0  0  0  0  0
    2.5559    2.5786    0.5698 H   0  0  0  0  0  0  0  0  0  0  0  0
   -4.8058    2.1338   -0.8261 H   0  0  0  0  0  0  0  0  0  0  0  0
  1  2  1  0
  2  3  1  0
  3  4  2  0
  4  5  1  0
  4  6  1  0
  6  7  2  0
  7  8  1  0
  8  9  2  0
  8 10  1  0
 10 11  1  0
 11 12  1  0
 12 13  2  0
 12 14  1  0
 14 15  1  0
 15 16  1  0
 16 17  2  0
 17 18  1  0
 18 19  1  0
 19 20  1  0
 20 21  1  0
 21 22  2  0
 22 23  1  0
 23 24  2  0
 18 25  2  0
 25 26  1  0
  7 27  1  0
 27  2  2  0
 26 15  2  0
 24 20  1  0
  1 28  1  0
  1 29  1  0
  1 30  1  0
  3 31  1  0
  5 32  1  0
  5 33  1  0
  5 34  1  0
  6 35  1  0
 10 36  1  0
 11 37  1  0
 11 38  1  0
 14 39  1  0
 16 40  1  0
 17 41  1  0
 19 42  1  0
 19 43  1  0
 21 44  1  0
 22 45  1  0
 24 46  1  0
 25 47  1  0
 26 48  1  0
 27 49  1  0
M  END
$$$$
OCNT-2309864
     RDKit          3D

 55 58  0  0  0  0  0  0  0  0999 V2000
   -5.7875   -2.1315   -1.1192 C   0  0  0  0  0  0  0  0  0  0  0  0
   -5.3564   -1.9216    0.3259 C   0  0  0  0  0  0  0  0  0  0  0  0
   -6.1647   -2.8075    1.2675 C   0  0  0  0  0  0  0  0  0  0  0  0
   -5.5594   -0.5488    0.6782 O   0  0  0  0  0  0  0  0  0  0  0  0
   -4.3973   -0.1894    1.4255 C   0  0  0  0  0  0  0  0  0  0  0  0
   -3.3016   -1.0428    0.8287 C   0  0  0  0  0  0  0  0  0  0  0  0
   -2.6628   -0.3988   -0.4080 C   0  0  0  0  0  0  0  0  0  0  0  0
   -1.6618    0.5927   -0.0465 N   0  0  0  0  0  0  0  0  0  0  0  0
   -1.5486    1.7865   -0.7282 C   0  0  0  0  0  0  0  0  0  0  0  0
   -2.3158    2.1764   -1.5957 O   0  0  0  0  0  0  0  0  0  0  0  0
   -0.3815    2.6026   -0.3318 C   0  0  0  0  0  0  0  0  0  0  0  0
   -0.3698    3.0797    0.9897 C   0  0  0  0  0  0  0  0  0  0  0  0
    0.6699    3.8930    1.4324 C   0  0  0  0  0  0  0  0  0  0  0  0
    1.6938    4.2402    0.5562 C   0  0  0  0  0  0  0  0  0  0  0  0
    1.6849    3.7637   -0.7577 C   0  0  0  0  0  0  0  0  0  0  0  0
    0.6562    2.9247   -1.2203 C   0  0  0  0  0  0  0  0  0  0  0  0
    0.8264    2.3557   -2.9134 S   0  0  0  0  0  0  0  0  0  0  0  0
    0.6563    0.5475   -2.7339 C   0  0  0  0  0  0  0  0  0  0  0  0
    1.5276    0.0083   -1.6073 C   0  0  0  0  0  0  0  0  0  0  0  0
    1.0240   -0.4547   -0.5856 O   0  0  0  0  0  0  0  0  0  0  0  0
    2.8818    0.1078   -1.8856 N   0  0  0  0  0  0  0  0  0  0  0  0
    3.9605   -0.3194   -1.0857 C   0  0  0  0  0  0  0  0  0  0  0  0
    5.2589   -0.0235   -1.5598 C   0  0  0  0  0  0  0  0  0  0  0  0
    6.3983   -0.4090   -0.8438 C   0  0  0  0  0  0  0  0  0  0  0  0
    6.2094   -1.0895    0.3359 C   0  0  0  0  0  0  0  0  0  0  0  0
    7.1909   -1.5444    1.1599 O   0  0  0  0  0  0  0  0  0  0  0  0
    6.4068   -2.1830    2.1881 C   0  0  0  0  0  0  0  0  0  0  0  0
    4.9845   -2.0620    1.9825 O   0  0  0  0  0  0  0  0  0  0  0  0
    4.9514   -1.3849    0.8029 C   0  0  0  0  0  0  0  0  0  0  0  0
    3.8091   -1.0144    0.1176 C   0  0  0  0  0  0  0  0  0  0  0  0
   -3.9685   -2.2593    0.4641 O   0  0  0  0  0  0  0  0  0  0  0  0
   -5.2046   -1.4960   -1.7953 H   0  0  0  0  0  0  0  0  0  0  0  0
   -6.8398   -1.8677   -1.2597 H   0  0  0  0  0  0  0  0  0  0  0  0
   -5.6291   -3.1670   -1.4355 H   0  0  0  0  0  0  0  0  0  0  0  0
   -7.2310   -2.5630    1.2251 H   0  0  0  0  0  0  0  0  0  0  0  0
   -6.0282   -3.8686    1.0294 H   0  0  0  0  0  0  0  0  0  0  0  0
   -5.8417   -2.6678    2.3052 H   0  0  0  0  0  0  0  0  0  0  0  0
   -4.2179    0.8872    1.3624 H   0  0  0  0  0  0  0  0  0  0  0  0
   -4.5772   -0.4536    2.4734 H   0  0  0  0  0  0  0  0  0  0  0  0
   -2.5277   -1.2725    1.5697 H   0  0  0  0  0  0  0  0  0  0  0  0
   -3.4210    0.0421   -1.0633 H   0  0  0  0  0  0  0  0  0  0  0  0
   -2.1482   -1.1632   -1.0014 H   0  0  0  0  0  0  0  0  0  0  0  0
   -0.8060    0.2399    0.3798 H   0  0  0  0  0  0  0  0  0  0  0  0
   -1.1834    2.8328    1.6677 H   0  0  0  0  0  0  0  0  0  0  0  0
    0.6745    4.2672    2.4531 H   0  0  0  0  0  0  0  0  0  0  0  0
    2.5019    4.8861    0.8913 H   0  0  0  0  0  0  0  0  0  0  0  0
    2.4996    4.0551   -1.4192 H   0  0  0  0  0  0  0  0  0  0  0  0
   -0.3872    0.2644   -2.5727 H   0  0  0  0  0  0  0  0  0  0  0  0
    0.9659    0.0769   -3.6740 H   0  0  0  0  0  0  0  0  0  0  0  0
    3.1235    0.6076   -2.7335 H   0  0  0  0  0  0  0  0  0  0  0  0
    5.3953    0.5084   -2.4985 H   0  0  0  0  0  0  0  0  0  0  0  0
    7.3938   -0.1828   -1.2049 H   0  0  0  0  0  0  0  0  0  0  0  0
    6.6617   -1.7332    3.1554 H   0  0  0  0  0  0  0  0  0  0  0  0
    6.6676   -3.2468    2.2167 H   0  0  0  0  0  0  0  0  0  0  0  0
    2.8441   -1.2798    0.5290 H   0  0  0  0  0  0  0  0  0  0  0  0
  1  2  1  0
  2  3  1  0
  2  4  1  0
  4  5  1  0
  5  6  1  0
  6  7  1  0
  7  8  1  0
  8  9  1  0
  9 10  2  0
  9 11  1  0
 11 12  2  0
 12 13  1  0
 13 14  2  0
 14 15  1  0
 15 16  2  0
 16 17  1  0
 17 18  1  0
 18 19  1  0
 19 20  2  0
 19 21  1  0
 21 22  1  0
 22 23  1  0
 23 24  2  0
 24 25  1  0
 25 26  1  0
 26 27  1  0
 27 28  1  0
 28 29  1  0
 29 30  1  0
  6 31  1  0
 31  2  1  0
 16 11  1  0
 30 22  2  0
 29 25  2  0
  1 32  1  0
  1 33  1  0
  1 34  1  0
  3 35  1  0
  3 36  1  0
  3 37  1  0
  5 38  1  0
  5 39  1  0
  6 40  1  0
  7 41  1  0
  7 42  1  0
  8 43  1  0
 12 44  1  0
 13 45  1  0
 14 46  1  0
 15 47  1  0
 18 48  1  0
 18 49  1  0
 21 50  1  0
 23 51  1  0
 24 52  1  0
 27 53  1  0
 27 54  1  0
 30 55  1  0
M  END
$$$$
OCNT-2309866
     RDKit          3D

 55 58  0  0  0  0  0  0  0  0999 V2000
    2.0624    1.2192    1.3403 O   0  0  0  0  0  0  0  0  0  0  0  0
    2.0290    0.0395    1.0116 C   0  0  0  0  0  0  0  0  0  0  0  0
    0.9707   -0.8373    1.1707 N   0  0  0  0  0  0  0  0  0  0  0  0
   -0.3149   -0.5432    1.6717 C   0  0  0  0  0  0  0  0  0  0  0  0
   -0.7416    0.7368    2.0266 C   0  0  0  0  0  0  0  0  0  0  0  0
   -2.0392    0.9454    2.5108 C   0  0  0  0  0  0  0  0  0  0  0  0
   -2.9316   -0.1205    2.6324 C   0  0  0  0  0  0  0  0  0  0  0  0
   -4.5770    0.1777    3.2471 S   0  0  0  0  0  0  0  0  0  0  0  0
   -5.5653   -0.2961    1.7786 C   0  0  0  0  0  0  0  0  0  0  0  0
   -5.4184    0.7207    0.6362 C   0  0  0  0  0  0  0  0  0  0  0  0
   -6.2692    0.3932   -0.5183 N   0  0  0  0  0  0  0  0  0  0  0  0
   -6.2490    1.4603   -1.5234 C   0  0  0  0  0  0  0  0  0  0  0  0
   -6.8585    0.7927   -2.7456 C   0  0  0  0  0  0  0  0  0  0  0  0
   -6.5637   -0.6927   -2.5734 C   0  0  0  0  0  0  0  0  0  0  0  0
   -5.8350   -0.8045   -1.2417 C   0  0  0  0  0  0  0  0  0  0  0  0
   -2.5060   -1.4044    2.2892 C   0  0  0  0  0  0  0  0  0  0  0  0
   -1.2085   -1.6129    1.8083 C   0  0  0  0  0  0  0  0  0  0  0  0
    3.2584   -0.5566    0.4127 C   0  0  0  0  0  0  0  0  0  0  0  0
    3.1973   -1.5553   -0.5664 C   0  0  0  0  0  0  0  0  0  0  0  0
    4.3758   -2.0761   -1.1026 C   0  0  0  0  0  0  0  0  0  0  0  0
    5.6153   -1.5974   -0.6732 C   0  0  0  0  0  0  0  0  0  0  0  0
    5.6942   -0.5835    0.2931 C   0  0  0  0  0  0  0  0  0  0  0  0
    7.0294   -0.0372    0.7334 C   0  0  0  0  0  0  0  0  0  0  0  0
    7.5946    0.8561   -0.2616 N   0  0  0  0  0  0  0  0  0  0  0  0
    7.2366    2.1572   -0.4861 C   0  0  0  0  0  0  0  0  0  0  0  0
    8.0734    2.5860   -1.4900 C   0  0  0  0  0  0  0  0  0  0  0  0
    8.9343    1.5867   -1.8666 N   0  0  0  0  0  0  0  0  0  0  0  0
    8.6255    0.5596   -1.1075 C   0  0  0  0  0  0  0  0  0  0  0  0
    4.5045   -0.0652    0.8275 C   0  0  0  0  0  0  0  0  0  0  0  0
    1.1475   -1.8123    0.9698 H   0  0  0  0  0  0  0  0  0  0  0  0
   -0.0902    1.6010    1.9411 H   0  0  0  0  0  0  0  0  0  0  0  0
   -2.3417    1.9537    2.7857 H   0  0  0  0  0  0  0  0  0  0  0  0
   -6.6125   -0.3412    2.0977 H   0  0  0  0  0  0  0  0  0  0  0  0
   -5.2806   -1.3042    1.4628 H   0  0  0  0  0  0  0  0  0  0  0  0
   -5.7187    1.7064    1.0156 H   0  0  0  0  0  0  0  0  0  0  0  0
   -4.3706    0.8026    0.3213 H   0  0  0  0  0  0  0  0  0  0  0  0
   -6.8305    2.3332   -1.2102 H   0  0  0  0  0  0  0  0  0  0  0  0
   -5.2248    1.7843   -1.7495 H   0  0  0  0  0  0  0  0  0  0  0  0
   -7.9427    0.9540   -2.7763 H   0  0  0  0  0  0  0  0  0  0  0  0
   -6.4347    1.1873   -3.6744 H   0  0  0  0  0  0  0  0  0  0  0  0
   -5.9559   -1.0839   -3.3962 H   0  0  0  0  0  0  0  0  0  0  0  0
   -7.5036   -1.2572   -2.5522 H   0  0  0  0  0  0  0  0  0  0  0  0
   -6.1062   -1.7285   -0.7219 H   0  0  0  0  0  0  0  0  0  0  0  0
   -4.7508   -0.8041   -1.4123 H   0  0  0  0  0  0  0  0  0  0  0  0
   -3.1731   -2.2556    2.4010 H   0  0  0  0  0  0  0  0  0  0  0  0
   -0.9100   -2.6256    1.5504 H   0  0  0  0  0  0  0  0  0  0  0  0
    2.2454   -1.9124   -0.9496 H   0  0  0  0  0  0  0  0  0  0  0  0
    4.3306   -2.8443   -1.8717 H   0  0  0  0  0  0  0  0  0  0  0  0
    6.5208   -2.0087   -1.1165 H   0  0  0  0  0  0  0  0  0  0  0  0
    7.7373   -0.8557    0.9097 H   0  0  0  0  0  0  0  0  0  0  0  0
    6.9451    0.5258    1.6705 H   0  0  0  0  0  0  0  0  0  0  0  0
    6.4422    2.6507    0.0568 H   0  0  0  0  0  0  0  0  0  0  0  0
    8.1030    3.5609   -1.9595 H   0  0  0  0  0  0  0  0  0  0  0  0
    9.1120   -0.4068   -1.1318 H   0  0  0  0  0  0  0  0  0  0  0  0
    4.5392    0.7326    1.5691 H   0  0  0  0  0  0  0  0  0  0  0  0
  1  2  2  0
  2  3  1  0
  3  4  1  0
  4  5  1  0
  5  6  2  0
  6  7  1  0
  7  8  1  0
  8  9  1  0
  9 10  1  0
 10 11  1  0
 11 12  1  0
 12 13  1  0
 13 14  1  0
 14 15  1  0
  7 16  2  0
 16 17  1  0
  2 18  1  0
 18 19  1  0
 19 20  2  0
 20 21  1  0
 21 22  2  0
 22 23  1  0
 23 24  1  0
 24 25  1  0
 25 26  2  0
 26 27  1  0
 27 28  2  0
 22 29  1  0
 17  4  2  0
 29 18  2  0
 15 11  1  0
 28 24  1  0
  3 30  1  0
  5 31  1  0
  6 32  1  0
  9 33  1  0
  9 34  1  0
 10 35  1  0
 10 36  1  0
 12 37  1  0
 12 38  1  0
 13 39  1  0
 13 40  1  0
 14 41  1  0
 14 42  1  0
 15 43  1  0
 15 44  1  0
 16 45  1  0
 17 46  1  0
 19 47  1  0
 20 48  1  0
 21 49  1  0
 23 50  1  0
 23 51  1  0
 25 52  1  0
 26 53  1  0
 28 54  1  0
 29 55  1  0
M  END
$$$$
OCNT-2309867
     RDKit          3D

 49 52  0  0  0  0  0  0  0  0999 V2000
   -0.6010    1.8318   -3.4906 C   0  0  0  0  0  0  0  0  0  0  0  0
   -0.3923    0.5203   -2.7490 C   0  0  0  0  0  0  0  0  0  0  0  0
   -0.6418    0.6556   -1.3118 N   0  0  0  0  0  0  0  0  0  0  0  0
    0.4974    1.0464   -0.4786 C   0  0  0  0  0  0  0  0  0  0  0  0
    1.4309   -0.0922   -0.1319 C   0  0  0  0  0  0  0  0  0  0  0  0
    0.9854   -1.4105    0.0292 C   0  0  0  0  0  0  0  0  0  0  0  0
    1.8760   -2.4211    0.3894 C   0  0  0  0  0  0  0  0  0  0  0  0
    3.2227   -2.1275    0.6018 C   0  0  0  0  0  0  0  0  0  0  0  0
    3.7043   -0.8185    0.4609 C   0  0  0  0  0  0  0  0  0  0  0  0
    5.1239   -0.5061    0.6864 C   0  0  0  0  0  0  0  0  0  0  0  0
    5.8909    0.1266   -0.2988 C   0  0  0  0  0  0  0  0  0  0  0  0
    7.2259    0.3986   -0.0416 C   0  0  0  0  0  0  0  0  0  0  0  0
    7.8443    0.0928    1.1171 N   0  0  0  0  0  0  0  0  0  0  0  0
    7.0948   -0.5177    2.0578 C   0  0  0  0  0  0  0  0  0  0  0  0
    5.7550   -0.8336    1.8921 C   0  0  0  0  0  0  0  0  0  0  0  0
    2.7905    0.1877    0.0984 C   0  0  0  0  0  0  0  0  0  0  0  0
   -1.9490    0.4924   -0.8518 C   0  0  0  0  0  0  0  0  0  0  0  0
   -2.8823    0.3332   -1.6424 O   0  0  0  0  0  0  0  0  0  0  0  0
   -2.1924    0.5591    0.6434 C   0  0  0  0  0  0  0  0  0  0  0  0
   -3.3147   -0.2631    1.0459 N   0  0  0  0  0  0  0  0  0  0  0  0
   -3.0843   -1.4739    1.5966 N   0  0  0  0  0  0  0  0  0  0  0  0
   -4.2552   -1.9696    1.9745 N   0  0  0  0  0  0  0  0  0  0  0  0
   -5.2246   -1.0515    1.6698 C   0  0  0  0  0  0  0  0  0  0  0  0
   -6.6115   -1.0854    1.8715 C   0  0  0  0  0  0  0  0  0  0  0  0
   -7.3742    0.0150    1.4597 C   0  0  0  0  0  0  0  0  0  0  0  0
   -6.7684    1.1220    0.8595 C   0  0  0  0  0  0  0  0  0  0  0  0
   -5.3844    1.1728    0.6526 C   0  0  0  0  0  0  0  0  0  0  0  0
   -4.6449    0.0633    1.0750 C   0  0  0  0  0  0  0  0  0  0  0  0
    0.0773    2.6074   -3.1215 H   0  0  0  0  0  0  0  0  0  0  0  0
   -1.6251    2.1987   -3.3666 H   0  0  0  0  0  0  0  0  0  0  0  0
   -0.4142    1.6959   -4.5600 H   0  0  0  0  0  0  0  0  0  0  0  0
    0.6295    0.1556   -2.9025 H   0  0  0  0  0  0  0  0  0  0  0  0
   -1.0672   -0.2383   -3.1624 H   0  0  0  0  0  0  0  0  0  0  0  0
    1.0462    1.8208   -1.0287 H   0  0  0  0  0  0  0  0  0  0  0  0
    0.1534    1.5154    0.4480 H   0  0  0  0  0  0  0  0  0  0  0  0
   -0.0579   -1.6759   -0.1265 H   0  0  0  0  0  0  0  0  0  0  0  0
    1.5182   -3.4417    0.5044 H   0  0  0  0  0  0  0  0  0  0  0  0
    3.8996   -2.9363    0.8707 H   0  0  0  0  0  0  0  0  0  0  0  0
    5.4638    0.3921   -1.2605 H   0  0  0  0  0  0  0  0  0  0  0  0
    7.8515    0.8825   -0.7864 H   0  0  0  0  0  0  0  0  0  0  0  0
    7.6146   -0.7544    2.9819 H   0  0  0  0  0  0  0  0  0  0  0  0
    5.2130   -1.3195    2.6970 H   0  0  0  0  0  0  0  0  0  0  0  0
    3.1468    1.2133    0.0043 H   0  0  0  0  0  0  0  0  0  0  0  0
   -2.4044    1.5943    0.9276 H   0  0  0  0  0  0  0  0  0  0  0  0
   -1.3317    0.2049    1.2155 H   0  0  0  0  0  0  0  0  0  0  0  0
   -7.0757   -1.9484    2.3356 H   0  0  0  0  0  0  0  0  0  0  0  0
   -8.4522    0.0028    1.6051 H   0  0  0  0  0  0  0  0  0  0  0  0
   -7.3858    1.9590    0.5384 H   0  0  0  0  0  0  0  0  0  0  0  0
   -4.9207    2.0250    0.1681 H   0  0  0  0  0  0  0  0  0  0  0  0
  1  2  1  0
  2  3  1  0
  3  4  1  0
  4  5  1  0
  5  6  2  0
  6  7  1  0
  7  8  2  0
  8  9  1  0
  9 10  1  0
 10 11  2  0
 11 12  1  0
 12 13  2  0
 13 14  1  0
 14 15  2  0
  9 16  2  0
  3 17  1  0
 17 18  2  0
 17 19  1  0
 19 20  1  0
 20 21  1  0
 21 22  2  0
 22 23  1  0
 23 24  2  0
 24 25  1  0
 25 26  2  0
 26 27  1  0
 27 28  2  0
 16  5  1  0
 28 20  1  0
 15 10  1  0
 28 23  1  0
  1 29  1  0
  1 30  1  0
  1 31  1  0
  2 32  1  0
  2 33  1  0
  4 34  1  0
  4 35  1  0
  6 36  1  0
  7 37  1  0
  8 38  1  0
 11 39  1  0
 12 40  1  0
 14 41  1  0
 15 42  1  0
 16 43  1  0
 19 44  1  0
 19 45  1  0
 24 46  1  0
 25 47  1  0
 26 48  1  0
 27 49  1  0
M  END
$$$$
OCNT-2309871
     RDKit          3D

 43 45  0  0  0  0  0  0  0  0999 V2000
    3.7062    2.1478   -0.5412 C   0  0  0  0  0  0  0  0  0  0  0  0
    3.6863    0.7128   -0.8227 N   0  0  0  0  0  0  0  0  0  0  0  0
    4.3567    0.3261   -1.9835 C   0  0  0  0  0  0  0  0  0  0  0  0
    4.7278    1.1347   -2.8342 O   0  0  0  0  0  0  0  0  0  0  0  0
    4.5251   -1.1561   -2.2304 C   0  0  0  0  0  0  0  0  0  0  0  0
    4.7815   -1.9325   -0.9566 C   0  0  0  0  0  0  0  0  0  0  0  0
    3.6417   -1.6716    0.0052 C   0  0  0  0  0  0  0  0  0  0  0  0
    3.5663   -0.1828    0.3529 C   0  0  0  0  0  0  0  0  0  0  0  0
    2.2339    0.0307    1.1105 C   0  0  0  0  0  0  0  0  0  0  0  0
    2.1574   -0.1789    2.3172 O   0  0  0  0  0  0  0  0  0  0  0  0
    1.1768    0.3170    0.2591 N   0  0  0  0  0  0  0  0  0  0  0  0
   -0.1801    0.4935    0.5872 C   0  0  0  0  0  0  0  0  0  0  0  0
   -1.0476    0.8286   -0.4611 C   0  0  0  0  0  0  0  0  0  0  0  0
   -2.4117    1.0187   -0.2263 C   0  0  0  0  0  0  0  0  0  0  0  0
   -2.9241    0.8579    1.0631 C   0  0  0  0  0  0  0  0  0  0  0  0
   -4.2588    1.0774    1.3212 O   0  0  0  0  0  0  0  0  0  0  0  0
   -5.1654    0.3284    0.6055 C   0  0  0  0  0  0  0  0  0  0  0  0
   -6.2985    0.9885    0.1443 C   0  0  0  0  0  0  0  0  0  0  0  0
   -7.2355    0.2515   -0.5567 C   0  0  0  0  0  0  0  0  0  0  0  0
   -7.1155   -1.0706   -0.8070 N   0  0  0  0  0  0  0  0  0  0  0  0
   -6.0177   -1.6876   -0.3178 C   0  0  0  0  0  0  0  0  0  0  0  0
   -5.0228   -1.0401    0.3932 C   0  0  0  0  0  0  0  0  0  0  0  0
   -2.0617    0.5454    2.1168 C   0  0  0  0  0  0  0  0  0  0  0  0
   -2.6528    0.3641    3.7292 Cl  0  0  0  0  0  0  0  0  0  0  0  0
   -0.6959    0.3561    1.8782 C   0  0  0  0  0  0  0  0  0  0  0  0
    4.6812    2.4064   -0.1158 H   0  0  0  0  0  0  0  0  0  0  0  0
    3.5570    2.7238   -1.4598 H   0  0  0  0  0  0  0  0  0  0  0  0
    2.9171    2.4174    0.1646 H   0  0  0  0  0  0  0  0  0  0  0  0
    3.6223   -1.5178   -2.7360 H   0  0  0  0  0  0  0  0  0  0  0  0
    5.3713   -1.2978   -2.9123 H   0  0  0  0  0  0  0  0  0  0  0  0
    5.7332   -1.6266   -0.5056 H   0  0  0  0  0  0  0  0  0  0  0  0
    4.8506   -3.0030   -1.1782 H   0  0  0  0  0  0  0  0  0  0  0  0
    2.7002   -2.0150   -0.4440 H   0  0  0  0  0  0  0  0  0  0  0  0
    3.7791   -2.2606    0.9201 H   0  0  0  0  0  0  0  0  0  0  0  0
    4.3914    0.0819    1.0264 H   0  0  0  0  0  0  0  0  0  0  0  0
    1.4409    0.4670   -0.7107 H   0  0  0  0  0  0  0  0  0  0  0  0
   -0.6748    0.9533   -1.4754 H   0  0  0  0  0  0  0  0  0  0  0  0
   -3.0659    1.2959   -1.0491 H   0  0  0  0  0  0  0  0  0  0  0  0
   -6.4447    2.0468    0.3240 H   0  0  0  0  0  0  0  0  0  0  0  0
   -8.1362    0.7166   -0.9466 H   0  0  0  0  0  0  0  0  0  0  0  0
   -5.9602   -2.7542   -0.5156 H   0  0  0  0  0  0  0  0  0  0  0  0
   -4.1762   -1.5965    0.7765 H   0  0  0  0  0  0  0  0  0  0  0  0
   -0.0579    0.1035    2.7190 H   0  0  0  0  0  0  0  0  0  0  0  0
  1  2  1  0
  2  3  1  0
  3  4  2  0
  3  5  1  0
  5  6  1  0
  6  7  1  0
  7  8  1  0
  8  9  1  0
  9 10  2  0
  9 11  1  0
 11 12  1  0
 12 13  1  0
 13 14  2  0
 14 15  1  0
 15 16  1  0
 16 17  1  0
 17 18  2  0
 18 19  1  0
 19 20  2  0
 20 21  1  0
 21 22  2  0
 15 23  2  0
 23 24  1  0
 23 25  1  0
  8  2  1  0
 25 12  2  0
 22 17  1  0
  1 26  1  0
  1 27  1  0
  1 28  1  0
  5 29  1  0
  5 30  1  0
  6 31  1  0
  6 32  1  0
  7 33  1  0
  7 34  1  0
  8 35  1  0
 11 36  1  0
 13 37  1  0
 14 38  1  0
 18 39  1  0
 19 40  1  0
 21 41  1  0
 22 42  1  0
 25 43  1  0
M  END
$$$$
OCNT-2309879
     RDKit          3D

 40 43  0  0  0  0  0  0  0  0999 V2000
    4.2338   -2.8840   -0.1692 C   0  0  0  0  0  0  0  0  0  0  0  0
    3.3182   -1.6905   -0.4083 C   0  0  0  0  0  0  0  0  0  0  0  0
    2.0077   -1.8439    0.3604 C   0  0  0  0  0  0  0  0  0  0  0  0
    1.1522   -0.6877    0.0812 N   0  0  0  0  0  0  0  0  0  0  0  0
   -0.1853   -0.9257   -0.2242 C   0  0  0  0  0  0  0  0  0  0  0  0
   -0.7089   -2.0098    0.0623 O   0  0  0  0  0  0  0  0  0  0  0  0
   -0.9451    0.0754   -1.0956 C   0  0  0  0  0  0  0  0  0  0  0  0
   -2.1638    0.6820   -0.4631 C   0  0  0  0  0  0  0  0  0  0  0  0
   -2.4032    2.0410   -0.3084 C   0  0  0  0  0  0  0  0  0  0  0  0
   -3.6278    2.2058    0.2831 N   0  0  0  0  0  0  0  0  0  0  0  0
   -4.2130    0.9897    0.4811 C   0  0  0  0  0  0  0  0  0  0  0  0
   -5.4335    0.8208    1.0222 N   0  0  0  0  0  0  0  0  0  0  0  0
   -5.7982   -0.4789    1.0959 C   0  0  0  0  0  0  0  0  0  0  0  0
   -5.0379   -1.5579    0.6678 C   0  0  0  0  0  0  0  0  0  0  0  0
   -3.7799   -1.3207    0.1118 C   0  0  0  0  0  0  0  0  0  0  0  0
   -3.3379    0.0109    0.0190 C   0  0  0  0  0  0  0  0  0  0  0  0
    1.8240    0.5593    0.2358 C   0  0  0  0  0  0  0  0  0  0  0  0
    1.1534    1.7466    0.5406 C   0  0  0  0  0  0  0  0  0  0  0  0
    1.8523    2.9458    0.7181 C   0  0  0  0  0  0  0  0  0  0  0  0
    3.2399    2.9686    0.6227 C   0  0  0  0  0  0  0  0  0  0  0  0
    3.9310    1.7868    0.3725 C   0  0  0  0  0  0  0  0  0  0  0  0
    3.2327    0.5899    0.1885 C   0  0  0  0  0  0  0  0  0  0  0  0
    4.0296   -0.5144   -0.0001 O   0  0  0  0  0  0  0  0  0  0  0  0
    4.4964   -2.9702    0.8910 H   0  0  0  0  0  0  0  0  0  0  0  0
    3.7638   -3.8179   -0.4920 H   0  0  0  0  0  0  0  0  0  0  0  0
    5.1744   -2.7594   -0.7167 H   0  0  0  0  0  0  0  0  0  0  0  0
    3.1219   -1.6077   -1.4857 H   0  0  0  0  0  0  0  0  0  0  0  0
    1.5124   -2.7760    0.0678 H   0  0  0  0  0  0  0  0  0  0  0  0
    2.1747   -1.8727    1.4448 H   0  0  0  0  0  0  0  0  0  0  0  0
   -1.2656   -0.4823   -1.9867 H   0  0  0  0  0  0  0  0  0  0  0  0
   -0.2786    0.8491   -1.4873 H   0  0  0  0  0  0  0  0  0  0  0  0
   -1.8066    2.9046   -0.5720 H   0  0  0  0  0  0  0  0  0  0  0  0
   -4.0707    3.0803    0.5230 H   0  0  0  0  0  0  0  0  0  0  0  0
   -6.7798   -0.6459    1.5332 H   0  0  0  0  0  0  0  0  0  0  0  0
   -5.4141   -2.5702    0.7657 H   0  0  0  0  0  0  0  0  0  0  0  0
   -3.1658   -2.1471   -0.2307 H   0  0  0  0  0  0  0  0  0  0  0  0
    0.0859    1.7591    0.7179 H   0  0  0  0  0  0  0  0  0  0  0  0
    1.3102    3.8575    0.9579 H   0  0  0  0  0  0  0  0  0  0  0  0
    3.7843    3.8976    0.7698 H   0  0  0  0  0  0  0  0  0  0  0  0
    5.0170    1.7916    0.3280 H   0  0  0  0  0  0  0  0  0  0  0  0
  1  2  1  0
  2  3  1  0
  3  4  1  0
  4  5  1  0
  5  6  2  0
  5  7  1  0
  7  8  1  0
  8  9  2  0
  9 10  1  0
 10 11  1  0
 11 12  1  0
 12 13  2  0
 13 14  1  0
 14 15  2  0
 15 16  1  0
  4 17  1  0
 17 18  2  0
 18 19  1  0
 19 20  2  0
 20 21  1  0
 21 22  2  0
 22 23  1  0
 23  2  1  0
 16  8  1  0
 22 17  1  0
 16 11  2  0
  1 24  1  0
  1 25  1  0
  1 26  1  0
  2 27  1  0
  3 28  1  0
  3 29  1  0
  7 30  1  0
  7 31  1  0
  9 32  1  0
 10 33  1  0
 13 34  1  0
 14 35  1  0
 15 36  1  0
 18 37  1  0
 19 38  1  0
 20 39  1  0
 21 40  1  0
M  END
$$$$
OCNT-2309880
     RDKit          3D

 36 38  0  0  0  0  0  0  0  0999 V2000
   -5.4898   -0.0995   -1.9958 C   0  0  0  0  0  0  0  0  0  0  0  0
   -4.3230    0.1097   -1.0723 C   0  0  0  0  0  0  0  0  0  0  0  0
   -4.3815    1.1156   -0.0835 C   0  0  0  0  0  0  0  0  0  0  0  0
   -3.3222    1.3123    0.8018 C   0  0  0  0  0  0  0  0  0  0  0  0
   -2.2265    0.4819    0.6694 C   0  0  0  0  0  0  0  0  0  0  0  0
   -2.1488   -0.5477   -0.2696 C   0  0  0  0  0  0  0  0  0  0  0  0
   -3.1998   -0.7320   -1.1562 C   0  0  0  0  0  0  0  0  0  0  0  0
   -0.8633   -1.3299   -0.2418 C   0  0  0  0  0  0  0  0  0  0  0  0
   -0.2531   -1.1115    1.1499 C   0  0  0  0  0  0  0  0  0  0  0  0
    1.2481   -1.2356    1.1672 C   0  0  0  0  0  0  0  0  0  0  0  0
    1.7483   -2.2426    1.6644 O   0  0  0  0  0  0  0  0  0  0  0  0
    1.9381   -0.2134    0.5531 N   0  0  0  0  0  0  0  0  0  0  0  0
    3.3266   -0.1380    0.3824 C   0  0  0  0  0  0  0  0  0  0  0  0
    4.0938   -1.2321    0.5341 N   0  0  0  0  0  0  0  0  0  0  0  0
    5.4198   -1.1052    0.2779 C   0  0  0  0  0  0  0  0  0  0  0  0
    6.0192    0.0749   -0.1353 C   0  0  0  0  0  0  0  0  0  0  0  0
    7.7043    0.1458   -0.4495 Cl  0  0  0  0  0  0  0  0  0  0  0  0
    5.2233    1.2020   -0.2818 C   0  0  0  0  0  0  0  0  0  0  0  0
    3.8651    1.0975   -0.0041 C   0  0  0  0  0  0  0  0  0  0  0  0
    3.1141    2.2380   -0.1104 O   0  0  0  0  0  0  0  0  0  0  0  0
   -0.8010    0.5069    1.6851 S   0  0  0  0  0  0  0  0  0  0  0  0
    0.0778    1.5352    1.1516 O   0  0  0  0  0  0  0  0  0  0  0  0
   -1.2227    0.4715    3.0671 O   0  0  0  0  0  0  0  0  0  0  0  0
   -5.1581   -0.4997   -2.9596 H   0  0  0  0  0  0  0  0  0  0  0  0
   -6.2002   -0.8002   -1.5466 H   0  0  0  0  0  0  0  0  0  0  0  0
   -6.0028    0.8469   -2.1966 H   0  0  0  0  0  0  0  0  0  0  0  0
   -5.2631    1.7499   -0.0049 H   0  0  0  0  0  0  0  0  0  0  0  0
   -3.3616    2.0821    1.5659 H   0  0  0  0  0  0  0  0  0  0  0  0
   -3.1579   -1.5187   -1.9063 H   0  0  0  0  0  0  0  0  0  0  0  0
   -1.0453   -2.3967   -0.4108 H   0  0  0  0  0  0  0  0  0  0  0  0
   -0.2072   -0.9652   -1.0405 H   0  0  0  0  0  0  0  0  0  0  0  0
   -0.6855   -1.8223    1.8658 H   0  0  0  0  0  0  0  0  0  0  0  0
    1.4277    0.6246    0.2887 H   0  0  0  0  0  0  0  0  0  0  0  0
    5.9982   -2.0146    0.4163 H   0  0  0  0  0  0  0  0  0  0  0  0
    5.6473    2.1517   -0.5917 H   0  0  0  0  0  0  0  0  0  0  0  0
    2.4620    2.2586    0.6164 H   0  0  0  0  0  0  0  0  0  0  0  0
  1  2  1  0
  2  3  1  0
  3  4  2  0
  4  5  1  0
  5  6  2  0
  6  7  1  0
  6  8  1  0
  8  9  1  0
  9 10  1  0
 10 11  2  0
 10 12  1  0
 12 13  1  0
 13 14  1  0
 14 15  2  0
 15 16  1  0
 16 17  1  0
 16 18  2  0
 18 19  1  0
 19 20  1  0
  9 21  1  0
 21 22  2  0
 21 23  2  0
  7  2  2  0
 19 13  2  0
 21  5  1  0
  1 24  1  0
  1 25  1  0
  1 26  1  0
  3 27  1  0
  4 28  1  0
  7 29  1  0
  8 30  1  0
  8 31  1  0
  9 32  1  0
 12 33  1  0
 15 34  1  0
 18 35  1  0
 20 36  1  0
M  END
$$$$
OCNT-2309885
     RDKit          3D

 38 40  0  0  0  0  0  0  0  0999 V2000
   -3.8162   -2.8164    2.0398 N   0  0  0  0  0  0  0  0  0  0  0  0
   -4.0378   -1.9748    1.2715 C   0  0  0  0  0  0  0  0  0  0  0  0
   -4.3434   -0.9565    0.3049 C   0  0  0  0  0  0  0  0  0  0  0  0
   -5.6639   -0.8682   -0.1658 C   0  0  0  0  0  0  0  0  0  0  0  0
   -6.0206    0.1068   -1.0965 C   0  0  0  0  0  0  0  0  0  0  0  0
   -5.0622    1.0004   -1.5627 C   0  0  0  0  0  0  0  0  0  0  0  0
   -3.7470    0.9193   -1.0996 C   0  0  0  0  0  0  0  0  0  0  0  0
   -3.3608   -0.0580   -0.1615 C   0  0  0  0  0  0  0  0  0  0  0  0
   -1.9604   -0.0968    0.2932 C   0  0  0  0  0  0  0  0  0  0  0  0
   -1.1153   -1.1656   -0.0523 C   0  0  0  0  0  0  0  0  0  0  0  0
    0.2146   -1.1958    0.3775 C   0  0  0  0  0  0  0  0  0  0  0  0
    0.7205   -0.1411    1.1406 C   0  0  0  0  0  0  0  0  0  0  0  0
    2.1203   -0.1538    1.6228 C   0  0  0  0  0  0  0  0  0  0  0  0
    2.3053   -0.0608    2.8336 O   0  0  0  0  0  0  0  0  0  0  0  0
    3.1554   -0.2521    0.6874 N   0  0  0  0  0  0  0  0  0  0  0  0
    4.5304   -0.2529    1.1936 C   0  0  0  0  0  0  0  0  0  0  0  0
    5.2207    1.0906    0.9695 C   0  0  0  0  0  0  0  0  0  0  0  0
    5.3584    1.5456   -0.8015 S   0  0  0  0  0  0  0  0  0  0  0  0
    4.2568    0.2835   -1.5290 C   0  0  0  0  0  0  0  0  0  0  0  0
    2.9660    0.0950   -0.7290 C   0  0  0  0  0  0  0  0  0  0  0  0
   -0.1091    0.9187    1.5122 C   0  0  0  0  0  0  0  0  0  0  0  0
   -1.4387    0.9425    1.0831 C   0  0  0  0  0  0  0  0  0  0  0  0
   -6.4235   -1.5604    0.1950 H   0  0  0  0  0  0  0  0  0  0  0  0
   -7.0452    0.1694   -1.4555 H   0  0  0  0  0  0  0  0  0  0  0  0
   -5.3359    1.7629   -2.2885 H   0  0  0  0  0  0  0  0  0  0  0  0
   -3.0123    1.6269   -1.4821 H   0  0  0  0  0  0  0  0  0  0  0  0
   -1.4917   -1.9916   -0.6535 H   0  0  0  0  0  0  0  0  0  0  0  0
    0.8430   -2.0474    0.1300 H   0  0  0  0  0  0  0  0  0  0  0  0
    4.5426   -0.4887    2.2632 H   0  0  0  0  0  0  0  0  0  0  0  0
    5.0732   -1.0662    0.6973 H   0  0  0  0  0  0  0  0  0  0  0  0
    6.2311    1.0677    1.3894 H   0  0  0  0  0  0  0  0  0  0  0  0
    4.6685    1.8906    1.4739 H   0  0  0  0  0  0  0  0  0  0  0  0
    4.0167    0.5902   -2.5520 H   0  0  0  0  0  0  0  0  0  0  0  0
    4.8114   -0.6586   -1.5975 H   0  0  0  0  0  0  0  0  0  0  0  0
    2.3857   -0.7075   -1.1950 H   0  0  0  0  0  0  0  0  0  0  0  0
    2.3607    1.0085   -0.7800 H   0  0  0  0  0  0  0  0  0  0  0  0
    0.2761    1.7196    2.1394 H   0  0  0  0  0  0  0  0  0  0  0  0
   -2.0733    1.7749    1.3828 H   0  0  0  0  0  0  0  0  0  0  0  0
  1  2  3  0
  2  3  1  0
  3  4  2  0
  4  5  1  0
  5  6  2  0
  6  7  1  0
  7  8  2  0
  8  9  1  0
  9 10  1  0
 10 11  2  0
 11 12  1  0
 12 13  1  0
 13 14  2  0
 13 15  1  0
 15 16  1  0
 16 17  1  0
 17 18  1  0
 18 19  1  0
 19 20  1  0
 12 21  2  0
 21 22  1  0
  8  3  1  0
 22  9  2  0
 20 15  1  0
  4 23  1  0
  5 24  1  0
  6 25  1  0
  7 26  1  0
 10 27  1  0
 11 28  1  0
 16 29  1  0
 16 30  1  0
 17 31  1  0
 17 32  1  0
 19 33  1  0
 19 34  1  0
 20 35  1  0
 20 36  1  0
 21 37  1  0
 22 38  1  0
M  END
$$$$
OCNT-2309893
     RDKit          3D

 38 40  0  0  0  0  0  0  0  0999 V2000
   -3.7611   -1.8145   -1.6167 C   0  0  0  0  0  0  0  0  0  0  0  0
   -2.4745   -1.3224   -1.1761 N   0  0  0  0  0  0  0  0  0  0  0  0
   -1.3965   -2.0722   -1.4867 N   0  0  0  0  0  0  0  0  0  0  0  0
   -0.3967   -1.4815   -0.8383 C   0  0  0  0  0  0  0  0  0  0  0  0
   -0.8088   -0.3519   -0.0929 C   0  0  0  0  0  0  0  0  0  0  0  0
    0.0512    0.5449    0.6571 C   0  0  0  0  0  0  0  0  0  0  0  0
   -0.0829    1.7634    0.6555 O   0  0  0  0  0  0  0  0  0  0  0  0
    1.0584   -0.0847    1.3548 N   0  0  0  0  0  0  0  0  0  0  0  0
    2.1045    0.6702    2.0216 C   0  0  0  0  0  0  0  0  0  0  0  0
    3.1509    1.2346    1.0581 C   0  0  0  0  0  0  0  0  0  0  0  0
    3.8699    0.1848    0.3526 N   0  0  0  0  0  0  0  0  0  0  0  0
    3.6055   -0.2333   -0.9256 C   0  0  0  0  0  0  0  0  0  0  0  0
    4.4796   -1.2546   -1.2264 C   0  0  0  0  0  0  0  0  0  0  0  0
    5.3061   -1.4499   -0.0942 C   0  0  0  0  0  0  0  0  0  0  0  0
    4.9120   -0.5425    0.8651 C   0  0  0  0  0  0  0  0  0  0  0  0
   -2.1743   -0.2657   -0.3461 C   0  0  0  0  0  0  0  0  0  0  0  0
   -3.1062    0.6548    0.1511 N   0  0  0  0  0  0  0  0  0  0  0  0
   -4.3061    1.0297   -0.4295 C   0  0  0  0  0  0  0  0  0  0  0  0
   -4.9608    1.9253    0.3870 C   0  0  0  0  0  0  0  0  0  0  0  0
   -4.1424    2.1320    1.5114 C   0  0  0  0  0  0  0  0  0  0  0  0
   -3.0175    1.3562    1.3400 C   0  0  0  0  0  0  0  0  0  0  0  0
   -4.0613   -1.2472   -2.5002 H   0  0  0  0  0  0  0  0  0  0  0  0
   -4.4856   -1.7166   -0.8056 H   0  0  0  0  0  0  0  0  0  0  0  0
   -3.6723   -2.8735   -1.8773 H   0  0  0  0  0  0  0  0  0  0  0  0
    0.6022   -1.8848   -0.9528 H   0  0  0  0  0  0  0  0  0  0  0  0
    1.1787   -1.0855    1.2649 H   0  0  0  0  0  0  0  0  0  0  0  0
    2.5672   -0.0038    2.7506 H   0  0  0  0  0  0  0  0  0  0  0  0
    1.6376    1.4940    2.5729 H   0  0  0  0  0  0  0  0  0  0  0  0
    2.6947    1.8881    0.3063 H   0  0  0  0  0  0  0  0  0  0  0  0
    3.8955    1.8232    1.6059 H   0  0  0  0  0  0  0  0  0  0  0  0
    2.8241    0.2262   -1.5178 H   0  0  0  0  0  0  0  0  0  0  0  0
    4.5233   -1.7938   -2.1640 H   0  0  0  0  0  0  0  0  0  0  0  0
    6.1081   -2.1697    0.0076 H   0  0  0  0  0  0  0  0  0  0  0  0
    5.2905   -0.3615    1.8628 H   0  0  0  0  0  0  0  0  0  0  0  0
   -4.5909    0.6753   -1.4077 H   0  0  0  0  0  0  0  0  0  0  0  0
   -5.9143    2.3932    0.1781 H   0  0  0  0  0  0  0  0  0  0  0  0
   -4.3384    2.7802    2.3557 H   0  0  0  0  0  0  0  0  0  0  0  0
   -2.1693    1.2335    1.9973 H   0  0  0  0  0  0  0  0  0  0  0  0
  1  2  1  0
  2  3  1  0
  3  4  2  0
  4  5  1  0
  5  6  1  0
  6  7  2  0
  6  8  1  0
  8  9  1  0
  9 10  1  0
 10 11  1  0
 11 12  1  0
 12 13  2  0
 13 14  1  0
 14 15  2  0
  5 16  2  0
 16 17  1  0
 17 18  1  0
 18 19  2  0
 19 20  1  0
 20 21  2  0
 16  2  1  0
 21 17  1  0
 15 11  1  0
  1 22  1  0
  1 23  1  0
  1 24  1  0
  4 25  1  0
  8 26  1  0
  9 27  1  0
  9 28  1  0
 10 29  1  0
 10 30  1  0
 12 31  1  0
 13 32  1  0
 14 33  1  0
 15 34  1  0
 18 35  1  0
 19 36  1  0
 20 37  1  0
 21 38  1  0
M  END
$$$$
OCNT-2309900
     RDKit          3D

 51 54  0  0  0  0  0  0  0  0999 V2000
   -1.9777    2.5789    0.6143 C   0  0  0  0  0  0  0  0  0  0  0  0
   -2.6747    1.2705    0.2287 C   0  0  0  0  0  0  0  0  0  0  0  0
   -3.4700    0.7526    1.4315 C   0  0  0  0  0  0  0  0  0  0  0  0
   -1.6977    0.2119   -0.3897 C   0  0  0  0  0  0  0  0  0  0  0  0
   -2.4908   -0.8608   -1.1384 C   0  0  0  0  0  0  0  0  0  0  0  0
   -3.0356   -0.5776   -2.4018 C   0  0  0  0  0  0  0  0  0  0  0  0
   -3.8035   -1.5279   -3.0751 C   0  0  0  0  0  0  0  0  0  0  0  0
   -4.0419   -2.7701   -2.4929 C   0  0  0  0  0  0  0  0  0  0  0  0
   -3.5047   -3.0681   -1.2418 C   0  0  0  0  0  0  0  0  0  0  0  0
   -2.7186   -2.1240   -0.5700 C   0  0  0  0  0  0  0  0  0  0  0  0
   -2.1253   -2.4247    0.7732 C   0  0  0  0  0  0  0  0  0  0  0  0
   -0.7526   -1.7728    0.8818 C   0  0  0  0  0  0  0  0  0  0  0  0
   -0.7296   -0.3293    0.5995 N   0  0  0  0  0  0  0  0  0  0  0  0
    0.4675    0.3878    0.7644 C   0  0  0  0  0  0  0  0  0  0  0  0
    0.7370    1.3943    0.1159 O   0  0  0  0  0  0  0  0  0  0  0  0
    1.2936   -0.1302    1.7448 N   0  0  0  0  0  0  0  0  0  0  0  0
    2.5791    0.3506    1.9590 C   0  0  0  0  0  0  0  0  0  0  0  0
    3.2146    0.4691    3.1776 C   0  0  0  0  0  0  0  0  0  0  0  0
    4.4677    1.0294    2.8878 C   0  0  0  0  0  0  0  0  0  0  0  0
    4.6568    1.2091    1.5828 N   0  0  0  0  0  0  0  0  0  0  0  0
    3.5132    0.7522    1.0131 N   0  0  0  0  0  0  0  0  0  0  0  0
    3.4247    0.5071   -0.4481 C   0  0  0  0  0  0  0  0  0  0  0  0
    4.7570    0.0638   -1.1107 C   0  0  0  0  0  0  0  0  0  0  0  0
    4.3789    0.9811   -2.2935 C   0  0  0  0  0  0  0  0  0  0  0  0
    3.5330    1.7998   -1.2949 C   0  0  0  0  0  0  0  0  0  0  0  0
   -2.7177    3.3382    0.8915 H   0  0  0  0  0  0  0  0  0  0  0  0
   -1.4014    2.9791   -0.2258 H   0  0  0  0  0  0  0  0  0  0  0  0
   -1.3110    2.4486    1.4721 H   0  0  0  0  0  0  0  0  0  0  0  0
   -3.4088    1.5425   -0.5426 H   0  0  0  0  0  0  0  0  0  0  0  0
   -4.1332    1.5339    1.8198 H   0  0  0  0  0  0  0  0  0  0  0  0
   -4.1051   -0.0935    1.1544 H   0  0  0  0  0  0  0  0  0  0  0  0
   -2.8112    0.4428    2.2489 H   0  0  0  0  0  0  0  0  0  0  0  0
   -1.1065    0.7195   -1.1646 H   0  0  0  0  0  0  0  0  0  0  0  0
   -2.8684    0.3925   -2.8659 H   0  0  0  0  0  0  0  0  0  0  0  0
   -4.2209   -1.2958   -4.0515 H   0  0  0  0  0  0  0  0  0  0  0  0
   -4.6460   -3.5075   -3.0150 H   0  0  0  0  0  0  0  0  0  0  0  0
   -3.6975   -4.0421   -0.7985 H   0  0  0  0  0  0  0  0  0  0  0  0
   -2.0160   -3.5065    0.9126 H   0  0  0  0  0  0  0  0  0  0  0  0
   -2.7949   -2.0575    1.5578 H   0  0  0  0  0  0  0  0  0  0  0  0
   -0.0556   -2.2416    0.1740 H   0  0  0  0  0  0  0  0  0  0  0  0
   -0.3608   -1.9624    1.8858 H   0  0  0  0  0  0  0  0  0  0  0  0
    0.7951   -0.4265    2.5726 H   0  0  0  0  0  0  0  0  0  0  0  0
    2.8146    0.2266    4.1509 H   0  0  0  0  0  0  0  0  0  0  0  0
    5.2563    1.3105    3.5742 H   0  0  0  0  0  0  0  0  0  0  0  0
    2.6022   -0.1559   -0.7408 H   0  0  0  0  0  0  0  0  0  0  0  0
    4.8300   -1.0004   -1.3522 H   0  0  0  0  0  0  0  0  0  0  0  0
    5.6836    0.3720   -0.6139 H   0  0  0  0  0  0  0  0  0  0  0  0
    5.2068    1.5153   -2.7661 H   0  0  0  0  0  0  0  0  0  0  0  0
    3.7860    0.4810   -3.0681 H   0  0  0  0  0  0  0  0  0  0  0  0
    2.5942    2.1896   -1.6968 H   0  0  0  0  0  0  0  0  0  0  0  0
    4.0858    2.6248   -0.8301 H   0  0  0  0  0  0  0  0  0  0  0  0
  1  2  1  0
  2  3  1  0
  2  4  1  0
  4  5  1  0
  5  6  2  0
  6  7  1  0
  7  8  2  0
  8  9  1  0
  9 10  2  0
 10 11  1  0
 11 12  1  0
 12 13  1  0
 13 14  1  0
 14 15  2  0
 14 16  1  0
 16 17  1  0
 17 18  2  0
 18 19  1  0
 19 20  2  0
 20 21  1  0
 21 22  1  0
 22 23  1  0
 23 24  1  0
 24 25  1  0
 13  4  1  0
 21 17  1  0
 25 22  1  0
 10  5  1  0
  1 26  1  0
  1 27  1  0
  1 28  1  0
  2 29  1  0
  3 30  1  0
  3 31  1  0
  3 32  1  0
  4 33  1  0
  6 34  1  0
  7 35  1  0
  8 36  1  0
  9 37  1  0
 11 38  1  0
 11 39  1  0
 12 40  1  0
 12 41  1  0
 16 42  1  0
 18 43  1  0
 19 44  1  0
 22 45  1  0
 23 46  1  0
 23 47  1  0
 24 48  1  0
 24 49  1  0
 25 50  1  0
 25 51  1  0
M  END
$$$$
OCNT-2309901
     RDKit          3D

 49 52  0  0  0  0  0  0  0  0999 V2000
    6.5921    2.3787   -1.1978 C   0  0  0  0  0  0  0  0  0  0  0  0
    5.3010    2.0222   -1.9205 C   0  0  0  0  0  0  0  0  0  0  0  0
    4.6920    0.7183   -1.4113 C   0  0  0  0  0  0  0  0  0  0  0  0
    4.3138    0.8886   -0.0395 O   0  0  0  0  0  0  0  0  0  0  0  0
    3.7961   -0.2803    0.4533 C   0  0  0  0  0  0  0  0  0  0  0  0
    4.6370   -1.1629    1.1229 C   0  0  0  0  0  0  0  0  0  0  0  0
    4.1343   -2.3502    1.6613 C   0  0  0  0  0  0  0  0  0  0  0  0
    2.7636   -2.6007    1.5132 C   0  0  0  0  0  0  0  0  0  0  0  0
    2.0088   -3.6680    1.9405 N   0  0  0  0  0  0  0  0  0  0  0  0
    0.6984   -3.4934    1.5869 C   0  0  0  0  0  0  0  0  0  0  0  0
    0.5841   -2.2893    0.9200 C   0  0  0  0  0  0  0  0  0  0  0  0
   -0.6737   -1.6987    0.3692 C   0  0  0  0  0  0  0  0  0  0  0  0
   -1.3514   -0.7453    1.3531 C   0  0  0  0  0  0  0  0  0  0  0  0
   -2.5458   -0.1449    0.7806 N   0  0  0  0  0  0  0  0  0  0  0  0
   -3.5440    0.3544    1.5924 C   0  0  0  0  0  0  0  0  0  0  0  0
   -3.5489    0.2430    2.8128 O   0  0  0  0  0  0  0  0  0  0  0  0
   -4.6157    1.1132    0.9238 C   0  0  0  0  0  0  0  0  0  0  0  0
   -5.2080    2.1756    1.5986 C   0  0  0  0  0  0  0  0  0  0  0  0
   -6.1809    2.9707    1.0887 N   0  0  0  0  0  0  0  0  0  0  0  0
   -6.6403    2.7237   -0.1569 C   0  0  0  0  0  0  0  0  0  0  0  0
   -6.1133    1.6569   -0.8764 C   0  0  0  0  0  0  0  0  0  0  0  0
   -5.1075    0.8291   -0.3650 C   0  0  0  0  0  0  0  0  0  0  0  0
   -4.8650   -0.1679   -1.3584 C   0  0  0  0  0  0  0  0  0  0  0  0
   -5.6811    0.0922   -2.4350 C   0  0  0  0  0  0  0  0  0  0  0  0
   -6.4292    1.1980   -2.1355 N   0  0  0  0  0  0  0  0  0  0  0  0
    1.8967   -1.7186    0.8655 C   0  0  0  0  0  0  0  0  0  0  0  0
    2.4255   -0.5259    0.3316 C   0  0  0  0  0  0  0  0  0  0  0  0
    7.3388    1.5876   -1.3183 H   0  0  0  0  0  0  0  0  0  0  0  0
    7.0095    3.3042   -1.6063 H   0  0  0  0  0  0  0  0  0  0  0  0
    6.4213    2.5303   -0.1274 H   0  0  0  0  0  0  0  0  0  0  0  0
    4.5861    2.8412   -1.7792 H   0  0  0  0  0  0  0  0  0  0  0  0
    5.5008    1.9345   -2.9938 H   0  0  0  0  0  0  0  0  0  0  0  0
    3.8073    0.4804   -2.0150 H   0  0  0  0  0  0  0  0  0  0  0  0
    5.4208   -0.0962   -1.5121 H   0  0  0  0  0  0  0  0  0  0  0  0
    5.6921   -0.9263    1.2305 H   0  0  0  0  0  0  0  0  0  0  0  0
    4.7862   -3.0441    2.1816 H   0  0  0  0  0  0  0  0  0  0  0  0
    2.3744   -4.4609    2.4492 H   0  0  0  0  0  0  0  0  0  0  0  0
   -0.0444   -4.2364    1.8466 H   0  0  0  0  0  0  0  0  0  0  0  0
   -1.3710   -2.5027    0.1003 H   0  0  0  0  0  0  0  0  0  0  0  0
   -0.4514   -1.1705   -0.5667 H   0  0  0  0  0  0  0  0  0  0  0  0
   -1.6172   -1.2716    2.2775 H   0  0  0  0  0  0  0  0  0  0  0  0
   -0.6797    0.0769    1.6274 H   0  0  0  0  0  0  0  0  0  0  0  0
   -2.4704    0.2467   -0.1498 H   0  0  0  0  0  0  0  0  0  0  0  0
   -4.8952    2.4343    2.6085 H   0  0  0  0  0  0  0  0  0  0  0  0
   -7.4198    3.3757   -0.5324 H   0  0  0  0  0  0  0  0  0  0  0  0
   -4.1770   -1.0014   -1.2907 H   0  0  0  0  0  0  0  0  0  0  0  0
   -5.8037   -0.4226   -3.3791 H   0  0  0  0  0  0  0  0  0  0  0  0
   -7.1306    1.6076   -2.7390 H   0  0  0  0  0  0  0  0  0  0  0  0
    1.7846    0.1950   -0.1640 H   0  0  0  0  0  0  0  0  0  0  0  0
  1  2  1  0
  2  3  1  0
  3  4  1  0
  4  5  1  0
  5  6  2  0
  6  7  1  0
  7  8  2  0
  8  9  1  0
  9 10  1  0
 10 11  2  0
 11 12  1  0
 12 13  1  0
 13 14  1  0
 14 15  1  0
 15 16  2  0
 15 17  1  0
 17 18  1  0
 18 19  2  0
 19 20  1  0
 20 21  2  0
 21 22  1  0
 22 23  1  0
 23 24  2  0
 24 25  1  0
 11 26  1  0
 26 27  2  0
 27  5  1  0
 26  8  1  0
 22 17  2  0
 25 21  1  0
  1 28  1  0
  1 29  1  0
  1 30  1  0
  2 31  1  0
  2 32  1  0
  3 33  1  0
  3 34  1  0
  6 35  1  0
  7 36  1  0
  9 37  1  0
 10 38  1  0
 12 39  1  0
 12 40  1  0
 13 41  1  0
 13 42  1  0
 14 43  1  0
 18 44  1  0
 20 45  1  0
 23 46  1  0
 24 47  1  0
 25 48  1  0
 27 49  1  0
M  END
$$$$
OCNT-2309922
     RDKit          3D

 39 42  0  0  0  0  0  0  0  0999 V2000
    0.3036   -3.0861    0.7564 O   0  0  0  0  0  0  0  0  0  0  0  0
   -0.2175   -2.0251    0.4257 C   0  0  0  0  0  0  0  0  0  0  0  0
    0.4341   -0.9442   -0.1460 N   0  0  0  0  0  0  0  0  0  0  0  0
    1.8146   -0.8275   -0.4564 C   0  0  0  0  0  0  0  0  0  0  0  0
    2.7188   -1.8767   -0.2802 C   0  0  0  0  0  0  0  0  0  0  0  0
    4.0398   -1.8132   -0.5702 N   0  0  0  0  0  0  0  0  0  0  0  0
    4.4950   -0.6449   -1.0611 C   0  0  0  0  0  0  0  0  0  0  0  0
    3.7042    0.4797   -1.2854 C   0  0  0  0  0  0  0  0  0  0  0  0
    4.2685    1.6619   -1.8029 C   0  0  0  0  0  0  0  0  0  0  0  0
    3.4794    2.7858   -2.0252 C   0  0  0  0  0  0  0  0  0  0  0  0
    2.1290    2.7276   -1.7295 C   0  0  0  0  0  0  0  0  0  0  0  0
    1.3610    3.8047   -1.9388 F   0  0  0  0  0  0  0  0  0  0  0  0
    1.5506    1.5677   -1.2168 C   0  0  0  0  0  0  0  0  0  0  0  0
    2.3215    0.4006   -0.9784 C   0  0  0  0  0  0  0  0  0  0  0  0
   -1.7277   -1.8239    0.5974 C   0  0  0  0  0  0  0  0  0  0  0  0
   -2.4004   -1.9073   -0.7766 C   0  0  0  0  0  0  0  0  0  0  0  0
   -3.7991   -1.3298   -0.6916 C   0  0  0  0  0  0  0  0  0  0  0  0
   -3.7500    0.0600   -0.3585 O   0  0  0  0  0  0  0  0  0  0  0  0
   -3.0591    0.3228    0.7932 C   0  0  0  0  0  0  0  0  0  0  0  0
   -3.3543    1.5324    1.4227 C   0  0  0  0  0  0  0  0  0  0  0  0
   -2.7119    1.8775    2.6116 C   0  0  0  0  0  0  0  0  0  0  0  0
   -1.7751    1.0087    3.1648 C   0  0  0  0  0  0  0  0  0  0  0  0
   -0.9897    1.4247    4.6372 Cl  0  0  0  0  0  0  0  0  0  0  0  0
   -1.4627   -0.1938    2.5287 C   0  0  0  0  0  0  0  0  0  0  0  0
   -2.0860   -0.5373    1.3166 C   0  0  0  0  0  0  0  0  0  0  0  0
   -0.1391   -0.1301   -0.3184 H   0  0  0  0  0  0  0  0  0  0  0  0
    2.4226   -2.8459    0.1059 H   0  0  0  0  0  0  0  0  0  0  0  0
    5.5608   -0.6396   -1.2779 H   0  0  0  0  0  0  0  0  0  0  0  0
    5.3310    1.7117   -2.0350 H   0  0  0  0  0  0  0  0  0  0  0  0
    3.9078    3.7000   -2.4231 H   0  0  0  0  0  0  0  0  0  0  0  0
    0.4872    1.6139   -1.0108 H   0  0  0  0  0  0  0  0  0  0  0  0
   -2.1049   -2.6463    1.2209 H   0  0  0  0  0  0  0  0  0  0  0  0
   -2.4291   -2.9483   -1.1186 H   0  0  0  0  0  0  0  0  0  0  0  0
   -1.8305   -1.3412   -1.5245 H   0  0  0  0  0  0  0  0  0  0  0  0
   -4.2927   -1.4126   -1.6657 H   0  0  0  0  0  0  0  0  0  0  0  0
   -4.4231   -1.8638    0.0363 H   0  0  0  0  0  0  0  0  0  0  0  0
   -4.0975    2.2002    0.9936 H   0  0  0  0  0  0  0  0  0  0  0  0
   -2.9530    2.8165    3.1028 H   0  0  0  0  0  0  0  0  0  0  0  0
   -0.7261   -0.8587    2.9775 H   0  0  0  0  0  0  0  0  0  0  0  0
  1  2  2  0
  2  3  1  0
  3  4  1  0
  4  5  1  0
  5  6  2  0
  6  7  1  0
  7  8  2  0
  8  9  1  0
  9 10  2  0
 10 11  1  0
 11 12  1  0
 11 13  2  0
 13 14  1  0
  2 15  1  0
 15 16  1  0
 16 17  1  0
 17 18  1  0
 18 19  1  0
 19 20  1  0
 20 21  2  0
 21 22  1  0
 22 23  1  0
 22 24  2  0
 24 25  1  0
 14  4  2  0
 25 15  1  0
 14  8  1  0
 25 19  2  0
  3 26  1  0
  5 27  1  0
  7 28  1  0
  9 29  1  0
 10 30  1  0
 13 31  1  0
 15 32  1  0
 16 33  1  0
 16 34  1  0
 17 35  1  0
 17 36  1  0
 20 37  1  0
 21 38  1  0
 24 39  1  0
M  END
$$$$
OCNT-2309935
     RDKit          3D

 46 49  0  0  0  0  0  0  0  0999 V2000
   -0.6800    2.6389    1.5409 C   0  0  0  0  0  0  0  0  0  0  0  0
   -1.0200    1.5588    0.6727 O   0  0  0  0  0  0  0  0  0  0  0  0
   -2.1414    0.8761    1.0407 C   0  0  0  0  0  0  0  0  0  0  0  0
   -2.8530    1.1936    1.9877 O   0  0  0  0  0  0  0  0  0  0  0  0
   -2.4308   -0.2498    0.1646 C   0  0  0  0  0  0  0  0  0  0  0  0
   -3.6070   -0.9862    0.1428 C   0  0  0  0  0  0  0  0  0  0  0  0
   -4.8621   -0.9038    0.9464 C   0  0  0  0  0  0  0  0  0  0  0  0
   -6.0102   -1.6846    0.2981 C   0  0  0  0  0  0  0  0  0  0  0  0
   -5.5430   -3.0637   -0.1712 C   0  0  0  0  0  0  0  0  0  0  0  0
   -4.4246   -2.9328   -1.2041 C   0  0  0  0  0  0  0  0  0  0  0  0
   -3.4341   -1.9482   -0.8105 N   0  0  0  0  0  0  0  0  0  0  0  0
   -2.2567   -1.8811   -1.4449 N   0  0  0  0  0  0  0  0  0  0  0  0
   -1.6165   -0.8699   -0.8336 C   0  0  0  0  0  0  0  0  0  0  0  0
   -0.2111   -0.5288   -1.2346 C   0  0  0  0  0  0  0  0  0  0  0  0
    0.6871   -0.6863   -0.1301 O   0  0  0  0  0  0  0  0  0  0  0  0
    1.9321   -0.1324   -0.2626 C   0  0  0  0  0  0  0  0  0  0  0  0
    2.5518    0.1170   -1.4861 C   0  0  0  0  0  0  0  0  0  0  0  0
    3.8377    0.6742   -1.5272 C   0  0  0  0  0  0  0  0  0  0  0  0
    4.5544    0.9946   -0.3609 C   0  0  0  0  0  0  0  0  0  0  0  0
    5.9441    1.5954   -0.4693 C   0  0  0  0  0  0  0  0  0  0  0  0
    6.4457    2.6034    0.5363 C   0  0  0  0  0  0  0  0  0  0  0  0
    7.0334    1.2213    0.5067 C   0  0  0  0  0  0  0  0  0  0  0  0
    3.9164    0.7214    0.8607 C   0  0  0  0  0  0  0  0  0  0  0  0
    2.6318    0.1645    0.9125 C   0  0  0  0  0  0  0  0  0  0  0  0
    1.9354   -0.1218    2.4706 Cl  0  0  0  0  0  0  0  0  0  0  0  0
   -1.4460    3.4189    1.4960 H   0  0  0  0  0  0  0  0  0  0  0  0
    0.2676    3.0628    1.1973 H   0  0  0  0  0  0  0  0  0  0  0  0
   -0.5455    2.2847    2.5679 H   0  0  0  0  0  0  0  0  0  0  0  0
   -5.1680    0.1405    1.0731 H   0  0  0  0  0  0  0  0  0  0  0  0
   -4.6644   -1.3105    1.9457 H   0  0  0  0  0  0  0  0  0  0  0  0
   -6.3990   -1.1232   -0.5614 H   0  0  0  0  0  0  0  0  0  0  0  0
   -6.8344   -1.7884    1.0127 H   0  0  0  0  0  0  0  0  0  0  0  0
   -5.1818   -3.6352    0.6931 H   0  0  0  0  0  0  0  0  0  0  0  0
   -6.3803   -3.6237   -0.6013 H   0  0  0  0  0  0  0  0  0  0  0  0
   -4.8257   -2.6013   -2.1686 H   0  0  0  0  0  0  0  0  0  0  0  0
   -3.9145   -3.8916   -1.3435 H   0  0  0  0  0  0  0  0  0  0  0  0
   -0.1963    0.5037   -1.6068 H   0  0  0  0  0  0  0  0  0  0  0  0
    0.1044   -1.1981   -2.0448 H   0  0  0  0  0  0  0  0  0  0  0  0
    2.0736   -0.1246   -2.4301 H   0  0  0  0  0  0  0  0  0  0  0  0
    4.2928    0.8551   -2.5003 H   0  0  0  0  0  0  0  0  0  0  0  0
    6.2895    1.7657   -1.4898 H   0  0  0  0  0  0  0  0  0  0  0  0
    7.0551    3.4216    0.1680 H   0  0  0  0  0  0  0  0  0  0  0  0
    5.8202    2.8769    1.3775 H   0  0  0  0  0  0  0  0  0  0  0  0
    8.0393    1.1047    0.1178 H   0  0  0  0  0  0  0  0  0  0  0  0
    6.8072    0.5493    1.3260 H   0  0  0  0  0  0  0  0  0  0  0  0
    4.4272    0.9427    1.7947 H   0  0  0  0  0  0  0  0  0  0  0  0
  1  2  1  0
  2  3  1  0
  3  4  2  0
  3  5  1  0
  5  6  2  0
  6  7  1  0
  7  8  1  0
  8  9  1  0
  9 10  1  0
 10 11  1  0
 11 12  1  0
 12 13  2  0
 13 14  1  0
 14 15  1  0
 15 16  1  0
 16 17  1  0
 17 18  2  0
 18 19  1  0
 19 20  1  0
 20 21  1  0
 21 22  1  0
 19 23  2  0
 23 24  1  0
 24 25  1  0
 13  5  1  0
 24 16  2  0
 11  6  1  0
 22 20  1  0
  1 26  1  0
  1 27  1  0
  1 28  1  0
  7 29  1  0
  7 30  1  0
  8 31  1  0
  8 32  1  0
  9 33  1  0
  9 34  1  0
 10 35  1  0
 10 36  1  0
 14 37  1  0
 14 38  1  0
 17 39  1  0
 18 40  1  0
 20 41  1  0
 21 42  1  0
 21 43  1  0
 22 44  1  0
 22 45  1  0
 23 46  1  0
M  END
$$$$
OCNT-2309936
     RDKit          3D

 38 42  0  0  0  0  0  0  0  0999 V2000
    5.7941   -0.9802   -1.0826 C   0  0  0  0  0  0  0  0  0  0  0  0
    4.5221   -1.0252   -0.5506 C   0  0  0  0  0  0  0  0  0  0  0  0
    4.2674    0.2257    0.0857 C   0  0  0  0  0  0  0  0  0  0  0  0
    3.2051    0.8182    0.7983 C   0  0  0  0  0  0  0  0  0  0  0  0
    1.9817    0.1598    1.0405 N   0  0  0  0  0  0  0  0  0  0  0  0
    1.2068   -0.5139    0.0309 C   0  0  0  0  0  0  0  0  0  0  0  0
    0.0984    0.5275    0.2564 C   0  0  0  0  0  0  0  0  0  0  0  0
   -1.3685    0.0543    0.2753 C   0  0  0  0  0  0  0  0  0  0  0  0
   -1.7318   -0.8940   -0.6062 N   0  0  0  0  0  0  0  0  0  0  0  0
   -3.0289   -1.2713   -0.5766 C   0  0  0  0  0  0  0  0  0  0  0  0
   -3.9898   -0.7515    0.2733 C   0  0  0  0  0  0  0  0  0  0  0  0
   -5.4201   -1.2129    0.2913 C   0  0  0  0  0  0  0  0  0  0  0  0
   -6.5427   -0.2128    0.1362 C   0  0  0  0  0  0  0  0  0  0  0  0
   -6.2470   -1.1757   -0.9734 C   0  0  0  0  0  0  0  0  0  0  0  0
   -3.4862    0.2125    1.1295 C   0  0  0  0  0  0  0  0  0  0  0  0
   -2.2039    0.6362    1.1531 N   0  0  0  0  0  0  0  0  0  0  0  0
    0.8100    0.7917    1.5917 C   0  0  0  0  0  0  0  0  0  0  0  0
    3.4052    2.0689    1.2952 N   0  0  0  0  0  0  0  0  0  0  0  0
    4.5796    2.6860    1.0646 C   0  0  0  0  0  0  0  0  0  0  0  0
    5.6405    2.2236    0.3844 N   0  0  0  0  0  0  0  0  0  0  0  0
    5.4178    0.9839   -0.0721 C   0  0  0  0  0  0  0  0  0  0  0  0
    6.3246    0.2484   -0.7848 N   0  0  0  0  0  0  0  0  0  0  0  0
    6.3651   -1.7125   -1.6375 H   0  0  0  0  0  0  0  0  0  0  0  0
    3.8456   -1.8679   -0.6066 H   0  0  0  0  0  0  0  0  0  0  0  0
    1.6385   -0.5088   -0.9735 H   0  0  0  0  0  0  0  0  0  0  0  0
    0.9760   -1.5414    0.3326 H   0  0  0  0  0  0  0  0  0  0  0  0
    0.2175    1.3823   -0.4280 H   0  0  0  0  0  0  0  0  0  0  0  0
   -3.2890   -2.0453   -1.2945 H   0  0  0  0  0  0  0  0  0  0  0  0
   -5.6226   -2.0468    0.9622 H   0  0  0  0  0  0  0  0  0  0  0  0
   -7.4448   -0.3694    0.7176 H   0  0  0  0  0  0  0  0  0  0  0  0
   -6.3054    0.8321   -0.0316 H   0  0  0  0  0  0  0  0  0  0  0  0
   -5.8119   -0.7740   -1.8820 H   0  0  0  0  0  0  0  0  0  0  0  0
   -6.9488   -1.9847   -1.1441 H   0  0  0  0  0  0  0  0  0  0  0  0
   -4.1332    0.6956    1.8577 H   0  0  0  0  0  0  0  0  0  0  0  0
    0.4346    0.2315    2.4555 H   0  0  0  0  0  0  0  0  0  0  0  0
    0.9202    1.8454    1.8607 H   0  0  0  0  0  0  0  0  0  0  0  0
    4.6786    3.6837    1.4813 H   0  0  0  0  0  0  0  0  0  0  0  0
    7.2453    0.5811   -1.0315 H   0  0  0  0  0  0  0  0  0  0  0  0
  1  2  2  0
  2  3  1  0
  3  4  2  0
  4  5  1  0
  5  6  1  0
  6  7  1  0
  7  8  1  0
  8  9  2  0
  9 10  1  0
 10 11  2  0
 11 12  1  0
 12 13  1  0
 13 14  1  0
 11 15  1  0
 15 16  2  0
  7 17  1  0
  4 18  1  0
 18 19  2  0
 19 20  1  0
 20 21  2  0
 21 22  1  0
 22  1  1  0
 21  3  1  0
 17  5  1  0
 16  8  1  0
 14 12  1  0
  1 23  1  0
  2 24  1  0
  6 25  1  0
  6 26  1  0
  7 27  1  0
 10 28  1  0
 12 29  1  0
 13 30  1  0
 13 31  1  0
 14 32  1  0
 14 33  1  0
 15 34  1  0
 17 35  1  0
 17 36  1  0
 19 37  1  0
 22 38  1  0
M  END
$$$$
OCNT-2309940
     RDKit          3D

 38 40  0  0  0  0  0  0  0  0999 V2000
    6.3837   -1.3027    1.3113 N   0  0  0  0  0  0  0  0  0  0  0  0
    5.0341   -1.3293    0.7419 C   0  0  0  0  0  0  0  0  0  0  0  0
    4.5597    0.0630    0.3059 C   0  0  0  0  0  0  0  0  0  0  0  0
    3.1845    0.0376   -0.2833 C   0  0  0  0  0  0  0  0  0  0  0  0
    2.8706   -0.0064   -1.6286 C   0  0  0  0  0  0  0  0  0  0  0  0
    1.5080   -0.0244   -1.7513 N   0  0  0  0  0  0  0  0  0  0  0  0
    0.9172    0.0191   -0.5110 C   0  0  0  0  0  0  0  0  0  0  0  0
    1.9431    0.0497    0.4327 C   0  0  0  0  0  0  0  0  0  0  0  0
    1.5954    0.0791    1.7990 C   0  0  0  0  0  0  0  0  0  0  0  0
    0.2445    0.0623    2.1677 C   0  0  0  0  0  0  0  0  0  0  0  0
   -0.7578    0.0325    1.1995 C   0  0  0  0  0  0  0  0  0  0  0  0
   -0.4378    0.0346   -0.1618 C   0  0  0  0  0  0  0  0  0  0  0  0
   -1.3869   -0.0121   -1.1483 O   0  0  0  0  0  0  0  0  0  0  0  0
   -2.3252    1.0715   -1.0777 C   0  0  0  0  0  0  0  0  0  0  0  0
   -3.6700    0.6277   -0.5478 C   0  0  0  0  0  0  0  0  0  0  0  0
   -4.4402    1.5034    0.2317 C   0  0  0  0  0  0  0  0  0  0  0  0
   -5.6949    1.1151    0.7052 C   0  0  0  0  0  0  0  0  0  0  0  0
   -6.1972   -0.1476    0.3974 C   0  0  0  0  0  0  0  0  0  0  0  0
   -5.4476   -1.0218   -0.3869 C   0  0  0  0  0  0  0  0  0  0  0  0
   -4.1933   -0.6349   -0.8615 C   0  0  0  0  0  0  0  0  0  0  0  0
    7.0348   -0.9252    0.6238 H   0  0  0  0  0  0  0  0  0  0  0  0
    6.4064   -0.6628    2.1043 H   0  0  0  0  0  0  0  0  0  0  0  0
    5.0280   -2.0156   -0.1127 H   0  0  0  0  0  0  0  0  0  0  0  0
    4.3494   -1.7483    1.4880 H   0  0  0  0  0  0  0  0  0  0  0  0
    4.5726    0.7473    1.1638 H   0  0  0  0  0  0  0  0  0  0  0  0
    5.2609    0.4773   -0.4303 H   0  0  0  0  0  0  0  0  0  0  0  0
    3.5015   -0.0325   -2.5072 H   0  0  0  0  0  0  0  0  0  0  0  0
    0.9900   -0.0685   -2.6181 H   0  0  0  0  0  0  0  0  0  0  0  0
    2.3660    0.0982    2.5640 H   0  0  0  0  0  0  0  0  0  0  0  0
   -0.0241    0.0626    3.2213 H   0  0  0  0  0  0  0  0  0  0  0  0
   -1.7959   -0.0089    1.5183 H   0  0  0  0  0  0  0  0  0  0  0  0
   -2.4715    1.4324   -2.1028 H   0  0  0  0  0  0  0  0  0  0  0  0
   -1.9275    1.9188   -0.5022 H   0  0  0  0  0  0  0  0  0  0  0  0
   -4.0663    2.4946    0.4788 H   0  0  0  0  0  0  0  0  0  0  0  0
   -6.2816    1.7988    1.3132 H   0  0  0  0  0  0  0  0  0  0  0  0
   -7.1737   -0.4499    0.7663 H   0  0  0  0  0  0  0  0  0  0  0  0
   -5.8388   -2.0062   -0.6303 H   0  0  0  0  0  0  0  0  0  0  0  0
   -3.6199   -1.3283   -1.4739 H   0  0  0  0  0  0  0  0  0  0  0  0
  1  2  1  0
  2  3  1  0
  3  4  1  0
  4  5  2  0
  5  6  1  0
  6  7  1  0
  7  8  1  0
  8  9  2  0
  9 10  1  0
 10 11  2  0
 11 12  1  0
 12 13  1  0
 13 14  1  0
 14 15  1  0
 15 16  2  0
 16 17  1  0
 17 18  2  0
 18 19  1  0
 19 20  2  0
  8  4  1  0
 20 15  1  0
 12  7  2  0
  1 21  1  0
  1 22  1  0
  2 23  1  0
  2 24  1  0
  3 25  1  0
  3 26  1  0
  5 27  1  0
  6 28  1  0
  9 29  1  0
 10 30  1  0
 11 31  1  0
 14 32  1  0
 14 33  1  0
 16 34  1  0
 17 35  1  0
 18 36  1  0
 19 37  1  0
 20 38  1  0
M  END
$$$$
OCNT-2309942
     RDKit          3D

 47 50  0  0  0  0  0  0  0  0999 V2000
    5.1133    2.4655   -0.0700 C   0  0  0  0  0  0  0  0  0  0  0  0
    3.9302    1.6482   -0.5236 C   0  0  0  0  0  0  0  0  0  0  0  0
    3.1332    2.1533   -1.5572 C   0  0  0  0  0  0  0  0  0  0  0  0
    2.0409    1.4292   -2.0096 C   0  0  0  0  0  0  0  0  0  0  0  0
    1.7408    0.1934   -1.4236 C   0  0  0  0  0  0  0  0  0  0  0  0
    0.3504   -0.7086   -2.0465 S   0  0  0  0  0  0  0  0  0  0  0  0
    0.8497   -1.9203   -2.6561 O   0  0  0  0  0  0  0  0  0  0  0  0
   -0.4775    0.2176   -2.7928 O   0  0  0  0  0  0  0  0  0  0  0  0
   -0.5138   -1.1359   -0.6584 N   0  0  0  0  0  0  0  0  0  0  0  0
   -1.2285   -0.0557    0.0732 C   0  0  0  0  0  0  0  0  0  0  0  0
   -0.8629   -0.1064    1.5517 C   0  0  0  0  0  0  0  0  0  0  0  0
   -1.8322   -1.1147    2.1599 C   0  0  0  0  0  0  0  0  0  0  0  0
   -2.8732   -1.3953    1.1589 N   0  0  0  0  0  0  0  0  0  0  0  0
   -2.7381   -0.3430    0.1185 C   0  0  0  0  0  0  0  0  0  0  0  0
   -3.3878   -0.7607   -1.2044 C   0  0  0  0  0  0  0  0  0  0  0  0
   -4.8874   -0.5897   -0.9706 C   0  0  0  0  0  0  0  0  0  0  0  0
   -5.0216    0.4906    0.1032 C   0  0  0  0  0  0  0  0  0  0  0  0
   -3.5948    0.8799    0.4897 C   0  0  0  0  0  0  0  0  0  0  0  0
    2.4933   -0.3536   -0.3842 C   0  0  0  0  0  0  0  0  0  0  0  0
    2.1594   -1.5395    0.1857 N   0  0  0  0  0  0  0  0  0  0  0  0
    2.9336   -2.0420    1.1704 C   0  0  0  0  0  0  0  0  0  0  0  0
    4.0429   -1.3986    1.6646 C   0  0  0  0  0  0  0  0  0  0  0  0
    4.3776   -0.1706    1.1092 C   0  0  0  0  0  0  0  0  0  0  0  0
    3.6124    0.3909    0.0661 C   0  0  0  0  0  0  0  0  0  0  0  0
    5.1974    3.4009   -0.6337 H   0  0  0  0  0  0  0  0  0  0  0  0
    5.0101    2.7301    0.9872 H   0  0  0  0  0  0  0  0  0  0  0  0
    6.0424    1.9072   -0.2232 H   0  0  0  0  0  0  0  0  0  0  0  0
    3.3633    3.1107   -2.0216 H   0  0  0  0  0  0  0  0  0  0  0  0
    1.4342    1.8238   -2.8228 H   0  0  0  0  0  0  0  0  0  0  0  0
    0.0822   -1.7456   -0.0861 H   0  0  0  0  0  0  0  0  0  0  0  0
   -1.0015    0.9295   -0.3458 H   0  0  0  0  0  0  0  0  0  0  0  0
   -1.0344    0.8780    2.0048 H   0  0  0  0  0  0  0  0  0  0  0  0
    0.1792   -0.3766    1.7406 H   0  0  0  0  0  0  0  0  0  0  0  0
   -1.3142   -2.0431    2.4240 H   0  0  0  0  0  0  0  0  0  0  0  0
   -2.2821   -0.7168    3.0755 H   0  0  0  0  0  0  0  0  0  0  0  0
   -2.6393   -2.2838    0.7077 H   0  0  0  0  0  0  0  0  0  0  0  0
   -3.1437   -1.7830   -1.5122 H   0  0  0  0  0  0  0  0  0  0  0  0
   -3.0719   -0.0888   -2.0117 H   0  0  0  0  0  0  0  0  0  0  0  0
   -5.4060   -0.3132   -1.8940 H   0  0  0  0  0  0  0  0  0  0  0  0
   -5.3298   -1.5271   -0.6139 H   0  0  0  0  0  0  0  0  0  0  0  0
   -5.5820    1.3575   -0.2612 H   0  0  0  0  0  0  0  0  0  0  0  0
   -5.5614    0.0916    0.9696 H   0  0  0  0  0  0  0  0  0  0  0  0
   -3.2841    1.7514   -0.1009 H   0  0  0  0  0  0  0  0  0  0  0  0
   -3.5317    1.1662    1.5449 H   0  0  0  0  0  0  0  0  0  0  0  0
    2.6238   -3.0077    1.5605 H   0  0  0  0  0  0  0  0  0  0  0  0
    4.6363   -1.8374    2.4587 H   0  0  0  0  0  0  0  0  0  0  0  0
    5.2535    0.3419    1.4995 H   0  0  0  0  0  0  0  0  0  0  0  0
  1  2  1  0
  2  3  1  0
  3  4  2  0
  4  5  1  0
  5  6  1  0
  6  7  2  0
  6  8  2  0
  6  9  1  0
  9 10  1  0
 10 11  1  0
 11 12  1  0
 12 13  1  0
 13 14  1  0
 14 15  1  0
 15 16  1  0
 16 17  1  0
 17 18  1  0
  5 19  2  0
 19 20  1  0
 20 21  2  0
 21 22  1  0
 22 23  2  0
 23 24  1  0
 24  2  2  0
 14 10  1  0
 24 19  1  0
 18 14  1  0
  1 25  1  0
  1 26  1  0
  1 27  1  0
  3 28  1  0
  4 29  1  0
  9 30  1  0
 10 31  1  0
 11 32  1  0
 11 33  1  0
 12 34  1  0
 12 35  1  0
 13 36  1  0
 15 37  1  0
 15 38  1  0
 16 39  1  0
 16 40  1  0
 17 41  1  0
 17 42  1  0
 18 43  1  0
 18 44  1  0
 21 45  1  0
 22 46  1  0
 23 47  1  0
M  END
$$$$
OCNT-2309963
     RDKit          3D

 39 42  0  0  0  0  0  0  0  0999 V2000
    3.4483    2.1357    2.6851 O   0  0  0  0  0  0  0  0  0  0  0  0
    3.5459    1.0847    1.8220 C   0  0  0  0  0  0  0  0  0  0  0  0
    2.6403    0.9888    0.7777 C   0  0  0  0  0  0  0  0  0  0  0  0
    2.7157   -0.0970   -0.1324 C   0  0  0  0  0  0  0  0  0  0  0  0
    1.8435   -0.3002   -1.2199 C   0  0  0  0  0  0  0  0  0  0  0  0
    0.8080    0.6224   -1.4580 N   0  0  0  0  0  0  0  0  0  0  0  0
   -0.1147    0.3251   -2.5588 C   0  0  0  0  0  0  0  0  0  0  0  0
   -1.1218   -0.7889   -2.2291 C   0  0  0  0  0  0  0  0  0  0  0  0
   -1.9780   -0.4880   -1.0179 C   0  0  0  0  0  0  0  0  0  0  0  0
   -1.7146   -1.1211    0.2037 C   0  0  0  0  0  0  0  0  0  0  0  0
   -2.4676   -0.8430    1.3492 C   0  0  0  0  0  0  0  0  0  0  0  0
   -3.4990    0.0942    1.2335 C   0  0  0  0  0  0  0  0  0  0  0  0
   -4.3888    0.5584    2.1761 N   0  0  0  0  0  0  0  0  0  0  0  0
   -5.2338    1.4799    1.6164 C   0  0  0  0  0  0  0  0  0  0  0  0
   -4.8894    1.6154    0.2909 C   0  0  0  0  0  0  0  0  0  0  0  0
   -3.7943    0.7444    0.0360 C   0  0  0  0  0  0  0  0  0  0  0  0
   -3.0231    0.4488   -1.1053 C   0  0  0  0  0  0  0  0  0  0  0  0
    2.0015   -1.3291   -2.0699 N   0  0  0  0  0  0  0  0  0  0  0  0
    3.0044   -2.1758   -1.8175 C   0  0  0  0  0  0  0  0  0  0  0  0
    3.8693   -2.1000   -0.8007 N   0  0  0  0  0  0  0  0  0  0  0  0
    3.7260   -1.0633    0.0264 C   0  0  0  0  0  0  0  0  0  0  0  0
    4.6185   -0.9417    1.0818 C   0  0  0  0  0  0  0  0  0  0  0  0
    4.5290    0.1201    1.9718 C   0  0  0  0  0  0  0  0  0  0  0  0
    5.4015    0.2189    2.9850 F   0  0  0  0  0  0  0  0  0  0  0  0
    4.1719    2.0448    3.3337 H   0  0  0  0  0  0  0  0  0  0  0  0
    1.8853    1.7621    0.6626 H   0  0  0  0  0  0  0  0  0  0  0  0
    0.2955    0.7973   -0.5954 H   0  0  0  0  0  0  0  0  0  0  0  0
    0.4334    0.0841   -3.4780 H   0  0  0  0  0  0  0  0  0  0  0  0
   -0.6634    1.2499   -2.7756 H   0  0  0  0  0  0  0  0  0  0  0  0
   -1.7831   -0.9391   -3.0922 H   0  0  0  0  0  0  0  0  0  0  0  0
   -0.6078   -1.7463   -2.0848 H   0  0  0  0  0  0  0  0  0  0  0  0
   -0.9047   -1.8460    0.2754 H   0  0  0  0  0  0  0  0  0  0  0  0
   -2.2534   -1.3407    2.2893 H   0  0  0  0  0  0  0  0  0  0  0  0
   -4.4098    0.2576    3.1406 H   0  0  0  0  0  0  0  0  0  0  0  0
   -6.0042    1.9570    2.2069 H   0  0  0  0  0  0  0  0  0  0  0  0
   -5.3721    2.2705   -0.4222 H   0  0  0  0  0  0  0  0  0  0  0  0
   -3.2423    0.9494   -2.0442 H   0  0  0  0  0  0  0  0  0  0  0  0
    3.1268   -3.0069   -2.5035 H   0  0  0  0  0  0  0  0  0  0  0  0
    5.4012   -1.6823    1.2155 H   0  0  0  0  0  0  0  0  0  0  0  0
  1  2  1  0
  2  3  2  0
  3  4  1  0
  4  5  2  0
  5  6  1  0
  6  7  1  0
  7  8  1  0
  8  9  1  0
  9 10  2  0
 10 11  1  0
 11 12  2  0
 12 13  1  0
 13 14  1  0
 14 15  2  0
 15 16  1  0
 16 17  2  0
  5 18  1  0
 18 19  2  0
 19 20  1  0
 20 21  2  0
 21 22  1  0
 22 23  2  0
 23 24  1  0
 23  2  1  0
 21  4  1  0
 17  9  1  0
 16 12  1  0
  1 25  1  0
  3 26  1  0
  6 27  1  0
  7 28  1  0
  7 29  1  0
  8 30  1  0
  8 31  1  0
 10 32  1  0
 11 33  1  0
 13 34  1  0
 14 35  1  0
 15 36  1  0
 17 37  1  0
 19 38  1  0
 22 39  1  0
M  END
$$$$
OCNT-2309973
     RDKit          3D

 55 57  0  0  0  0  0  0  0  0999 V2000
    4.3274   -0.2063   -0.7955 C   0  0  0  0  0  0  0  0  0  0  0  0
    4.0898    0.7339    0.3976 C   0  0  0  0  0  0  0  0  0  0  0  0
    5.2540    1.7483    0.4345 C   0  0  0  0  0  0  0  0  0  0  0  0
    4.1247   -0.0724    1.7083 C   0  0  0  0  0  0  0  0  0  0  0  0
    2.7588    1.4330    0.2632 C   0  0  0  0  0  0  0  0  0  0  0  0
    1.4273    1.0447    0.1635 C   0  0  0  0  0  0  0  0  0  0  0  0
    0.8169   -0.3260    0.1471 C   0  0  0  0  0  0  0  0  0  0  0  0
    0.0434   -0.5088   -1.0884 N   0  0  0  0  0  0  0  0  0  0  0  0
    0.6391   -1.5323   -1.9622 C   0  0  0  0  0  0  0  0  0  0  0  0
    0.4183   -2.9597   -1.4514 C   0  0  0  0  0  0  0  0  0  0  0  0
   -1.0581   -3.2388   -1.1894 C   0  0  0  0  0  0  0  0  0  0  0  0
   -1.6963   -2.1370   -0.3414 C   0  0  0  0  0  0  0  0  0  0  0  0
   -1.4141   -0.7448   -0.9448 C   0  0  0  0  0  0  0  0  0  0  0  0
   -2.2667    0.4163   -0.3202 C   0  0  0  0  0  0  0  0  0  0  0  0
   -2.1854    0.5593    1.2157 C   0  0  0  0  0  0  0  0  0  0  0  0
   -3.2537    1.5037    1.7601 C   0  0  0  0  0  0  0  0  0  0  0  0
   -4.6693    1.0123    1.4762 C   0  0  0  0  0  0  0  0  0  0  0  0
   -4.7359   -0.0066    0.3417 C   0  0  0  0  0  0  0  0  0  0  0  0
   -3.7526    0.2996   -0.7877 C   0  0  0  0  0  0  0  0  0  0  0  0
   -4.1648    1.5148   -1.4235 O   0  0  0  0  0  0  0  0  0  0  0  0
    0.6270    2.1761    0.1224 N   0  0  0  0  0  0  0  0  0  0  0  0
    1.4782    3.1697    0.1519 C   0  0  0  0  0  0  0  0  0  0  0  0
    2.7802    2.8066    0.2472 O   0  0  0  0  0  0  0  0  0  0  0  0
    3.6178   -1.0381   -0.8079 H   0  0  0  0  0  0  0  0  0  0  0  0
    4.2309    0.3265   -1.7488 H   0  0  0  0  0  0  0  0  0  0  0  0
    5.3310   -0.6462   -0.7589 H   0  0  0  0  0  0  0  0  0  0  0  0
    5.1587    2.4392    1.2807 H   0  0  0  0  0  0  0  0  0  0  0  0
    5.2909    2.3488   -0.4824 H   0  0  0  0  0  0  0  0  0  0  0  0
    6.2203    1.2402    0.5343 H   0  0  0  0  0  0  0  0  0  0  0  0
    3.3573   -0.8531    1.7303 H   0  0  0  0  0  0  0  0  0  0  0  0
    3.9551    0.5753    2.5767 H   0  0  0  0  0  0  0  0  0  0  0  0
    5.0945   -0.5651    1.8439 H   0  0  0  0  0  0  0  0  0  0  0  0
    1.6135   -1.0712    0.2334 H   0  0  0  0  0  0  0  0  0  0  0  0
    0.2227   -0.4727    1.0511 H   0  0  0  0  0  0  0  0  0  0  0  0
    0.2020   -1.4393   -2.9652 H   0  0  0  0  0  0  0  0  0  0  0  0
    1.7093   -1.3444   -2.1026 H   0  0  0  0  0  0  0  0  0  0  0  0
    0.8013   -3.6759   -2.1874 H   0  0  0  0  0  0  0  0  0  0  0  0
    0.9871   -3.1253   -0.5288 H   0  0  0  0  0  0  0  0  0  0  0  0
   -1.1741   -4.2085   -0.6927 H   0  0  0  0  0  0  0  0  0  0  0  0
   -1.5876   -3.3071   -2.1479 H   0  0  0  0  0  0  0  0  0  0  0  0
   -2.7739   -2.3237   -0.2872 H   0  0  0  0  0  0  0  0  0  0  0  0
   -1.3100   -2.2058    0.6818 H   0  0  0  0  0  0  0  0  0  0  0  0
   -1.7712   -0.7862   -1.9855 H   0  0  0  0  0  0  0  0  0  0  0  0
   -1.8694    1.3472   -0.7497 H   0  0  0  0  0  0  0  0  0  0  0  0
   -1.2178    0.9666    1.5135 H   0  0  0  0  0  0  0  0  0  0  0  0
   -2.2877   -0.4133    1.7090 H   0  0  0  0  0  0  0  0  0  0  0  0
   -3.1224    1.6348    2.8406 H   0  0  0  0  0  0  0  0  0  0  0  0
   -3.1154    2.4966    1.3141 H   0  0  0  0  0  0  0  0  0  0  0  0
   -5.0934    0.5590    2.3804 H   0  0  0  0  0  0  0  0  0  0  0  0
   -5.3056    1.8751    1.2443 H   0  0  0  0  0  0  0  0  0  0  0  0
   -5.7615   -0.0279   -0.0462 H   0  0  0  0  0  0  0  0  0  0  0  0
   -4.5287   -1.0059    0.7429 H   0  0  0  0  0  0  0  0  0  0  0  0
   -3.8648   -0.4756   -1.5530 H   0  0  0  0  0  0  0  0  0  0  0  0
   -3.8672    2.2610   -0.8755 H   0  0  0  0  0  0  0  0  0  0  0  0
    1.2703    4.2292    0.1175 H   0  0  0  0  0  0  0  0  0  0  0  0
  1  2  1  0
  2  3  1  0
  2  4  1  0
  2  5  1  0
  5  6  2  0
  6  7  1  0
  7  8  1  0
  8  9  1  0
  9 10  1  0
 10 11  1  0
 11 12  1  0
 12 13  1  0
 13 14  1  0
 14 15  1  0
 15 16  1  0
 16 17  1  0
 17 18  1  0
 18 19  1  0
 19 20  1  0
  6 21  1  0
 21 22  2  0
 22 23  1  0
 23  5  1  0
 13  8  1  0
 19 14  1  0
  1 24  1  0
  1 25  1  0
  1 26  1  0
  3 27  1  0
  3 28  1  0
  3 29  1  0
  4 30  1  0
  4 31  1  0
  4 32  1  0
  7 33  1  0
  7 34  1  0
  9 35  1  0
  9 36  1  0
 10 37  1  0
 10 38  1  0
 11 39  1  0
 11 40  1  0
 12 41  1  0
 12 42  1  0
 13 43  1  0
 14 44  1  0
 15 45  1  0
 15 46  1  0
 16 47  1  0
 16 48  1  0
 17 49  1  0
 17 50  1  0
 18 51  1  0
 18 52  1  0
 19 53  1  0
 20 54  1  0
 22 55  1  0
M  END
$$$$
OCNT-2309977
     RDKit          3D

  0  0  0  0  0  0  0  0  0  0999 V3000
M  V30 BEGIN CTAB
M  V30 COUNTS 43 45 0 0 0
M  V30 BEGIN ATOM
M  V30 1 C 3.248748 2.337136 1.155986 0
M  V30 2 O 3.210144 1.281378 2.108412 0
M  V30 3 C 3.989097 0.152195 1.711410 0
M  V30 4 C 3.229109 -0.724464 0.746208 0
M  V30 5 C 3.838498 -1.195678 -0.425947 0
M  V30 6 C 3.130255 -2.011785 -1.312089 0
M  V30 7 Cl 3.895131 -2.566975 -2.749960 0
M  V30 8 C 1.813136 -2.373886 -1.049138 0
M  V30 9 C 1.207844 -1.913432 0.121047 0
M  V30 10 S -0.482986 -2.328692 0.451262 0
M  V30 11 O -0.475563 -3.200016 1.604241 0
M  V30 12 O -1.121308 -2.706768 -0.788738 0
M  V30 13 N -1.142658 -0.880333 0.968879 0
M  V30 14 C -1.690894 0.158025 0.073291 0 CFG=2
M  V30 15 C -1.928284 1.435039 0.922567 0
M  V30 16 C -3.281175 1.980563 0.494594 0
M  V30 17 C -4.076827 0.722409 0.206027 0
M  V30 18 C -3.085924 -0.230718 -0.470381 0 CFG=1
M  V30 19 C -2.975395 -0.020625 -1.985427 0
M  V30 20 N -1.857576 0.909592 -2.170751 0
M  V30 21 C -0.863122 0.464061 -1.188243 0
M  V30 22 C 1.906625 -1.101201 1.020563 0
M  V30 23 H 2.835890 2.014445 0.195648 0
M  V30 24 H 2.637751 3.160991 1.534756 0
M  V30 25 H 4.273624 2.697291 1.024634 0
M  V30 26 H 4.951767 0.479746 1.300976 0
M  V30 27 H 4.203217 -0.435053 2.611437 0
M  V30 28 H 4.867724 -0.925482 -0.653309 0
M  V30 29 H 1.266030 -3.004138 -1.746206 0
M  V30 30 H -1.576590 -0.977601 1.887431 0
M  V30 31 H -1.136309 2.181841 0.802387 0
M  V30 32 H -1.971362 1.195329 1.993212 0
M  V30 33 H -3.186363 2.599205 -0.404238 0
M  V30 34 H -3.743900 2.592134 1.274831 0
M  V30 35 H -4.964942 0.922580 -0.400737 0
M  V30 36 H -4.414116 0.281319 1.152445 0
M  V30 37 H -3.373759 -1.267215 -0.262513 0
M  V30 38 H -2.742809 -0.972859 -2.477730 0
M  V30 39 H -3.894532 0.370410 -2.431573 0
M  V30 40 H -1.486187 0.826416 -3.116802 0
M  V30 41 H -0.104417 1.234567 -1.018793 0
M  V30 42 H -0.352124 -0.409534 -1.596517 0
M  V30 43 H 1.424531 -0.750218 1.932327 0
M  V30 END ATOM
M  V30 BEGIN BOND
M  V30 1 1 1 2
M  V30 2 1 2 3
M  V30 3 1 3 4
M  V30 4 1 4 5
M  V30 5 2 5 6
M  V30 6 1 6 7
M  V30 7 1 6 8
M  V30 8 2 8 9
M  V30 9 1 9 10
M  V30 10 2 10 11
M  V30 11 2 10 12
M  V30 12 1 10 13
M  V30 13 1 14 13 CFG=1
M  V30 14 1 14 15
M  V30 15 1 15 16
M  V30 16 1 16 17
M  V30 17 1 17 18
M  V30 18 1 18 19
M  V30 19 1 19 20
M  V30 20 1 20 21
M  V30 21 1 9 22
M  V30 22 2 22 4
M  V30 23 1 18 14
M  V30 24 1 21 14
M  V30 25 1 1 23
M  V30 26 1 1 24
M  V30 27 1 1 25
M  V30 28 1 3 26
M  V30 29 1 3 27
M  V30 30 1 5 28
M  V30 31 1 8 29
M  V30 32 1 13 30
M  V30 33 1 15 31
M  V30 34 1 15 32
M  V30 35 1 16 33
M  V30 36 1 16 34
M  V30 37 1 17 35
M  V30 38 1 17 36
M  V30 39 1 18 37 CFG=3
M  V30 40 1 19 38
M  V30 41 1 19 39
M  V30 42 1 20 40
M  V30 43 1 21 41
M  V30 44 1 21 42
M  V30 45 1 22 43
M  V30 END BOND
M  V30 BEGIN COLLECTION
M  V30 MDLV30/STERAC1 ATOMS=(2 14 18)
M  V30 END COLLECTION
M  V30 END CTAB
M  END
>  <_CXSMILES_Data>  (271) 
|&1:13,17|

$$$$
OCNT-2309987
     RDKit          3D

 56 59  0  0  0  0  0  0  0  0999 V2000
    4.9747   -0.3029    2.4217 O   0  0  0  0  0  0  0  0  0  0  0  0
    5.0822   -0.9322    1.1186 S   0  0  0  0  0  0  0  0  0  0  0  0
    6.1155   -1.9187    0.8623 O   0  0  0  0  0  0  0  0  0  0  0  0
    3.5107   -1.6622    0.7105 C   0  0  0  0  0  0  0  0  0  0  0  0
    2.3570   -0.6909    0.9074 C   0  0  0  0  0  0  0  0  0  0  0  0
    1.0866   -1.3372    0.5537 N   0  0  0  0  0  0  0  0  0  0  0  0
   -0.0478   -0.4295    0.8084 C   0  0  0  0  0  0  0  0  0  0  0  0
   -1.3789   -1.0492    0.4508 C   0  0  0  0  0  0  0  0  0  0  0  0
   -1.6234   -2.4074    0.7021 C   0  0  0  0  0  0  0  0  0  0  0  0
   -2.8501   -2.9843    0.3644 C   0  0  0  0  0  0  0  0  0  0  0  0
   -3.1193   -4.3465    0.5891 C   0  0  0  0  0  0  0  0  0  0  0  0
   -4.3529   -4.8875    0.2338 C   0  0  0  0  0  0  0  0  0  0  0  0
   -5.3177   -4.0712   -0.3448 C   0  0  0  0  0  0  0  0  0  0  0  0
   -5.0430   -2.7176   -0.5634 C   0  0  0  0  0  0  0  0  0  0  0  0
   -3.8217   -2.1535   -0.2178 C   0  0  0  0  0  0  0  0  0  0  0  0
   -3.6113   -0.8455   -0.4394 N   0  0  0  0  0  0  0  0  0  0  0  0
   -2.4233   -0.2903   -0.0982 C   0  0  0  0  0  0  0  0  0  0  0  0
   -2.2596    1.1035   -0.2807 N   0  0  0  0  0  0  0  0  0  0  0  0
   -2.9990    1.5971   -1.4481 C   0  0  0  0  0  0  0  0  0  0  0  0
   -2.5326    3.0242   -1.7531 C   0  0  0  0  0  0  0  0  0  0  0  0
   -2.2830    3.8541   -0.4902 C   0  0  0  0  0  0  0  0  0  0  0  0
   -3.0017    3.2663    0.7176 C   0  0  0  0  0  0  0  0  0  0  0  0
   -2.5905    1.8105    0.9745 C   0  0  0  0  0  0  0  0  0  0  0  0
    5.2980    0.3548   -0.0891 C   0  0  0  0  0  0  0  0  0  0  0  0
    5.1352    1.6928    0.2796 C   0  0  0  0  0  0  0  0  0  0  0  0
    5.3065    2.6914   -0.6788 C   0  0  0  0  0  0  0  0  0  0  0  0
    5.6484    2.3521   -1.9893 C   0  0  0  0  0  0  0  0  0  0  0  0
    5.8287    1.0145   -2.3462 C   0  0  0  0  0  0  0  0  0  0  0  0
    5.6588    0.0093   -1.3948 C   0  0  0  0  0  0  0  0  0  0  0  0
    3.3973   -2.5346    1.3643 H   0  0  0  0  0  0  0  0  0  0  0  0
    3.5706   -2.0205   -0.3228 H   0  0  0  0  0  0  0  0  0  0  0  0
    2.4981    0.2011    0.2875 H   0  0  0  0  0  0  0  0  0  0  0  0
    2.3275   -0.3659    1.9541 H   0  0  0  0  0  0  0  0  0  0  0  0
    1.0768   -1.5655   -0.4419 H   0  0  0  0  0  0  0  0  0  0  0  0
    0.1149    0.4850    0.2268 H   0  0  0  0  0  0  0  0  0  0  0  0
   -0.0785   -0.1599    1.8710 H   0  0  0  0  0  0  0  0  0  0  0  0
   -0.8451   -3.0159    1.1583 H   0  0  0  0  0  0  0  0  0  0  0  0
   -2.3672   -4.9895    1.0405 H   0  0  0  0  0  0  0  0  0  0  0  0
   -4.5588   -5.9404    0.4077 H   0  0  0  0  0  0  0  0  0  0  0  0
   -6.2844   -4.4802   -0.6265 H   0  0  0  0  0  0  0  0  0  0  0  0
   -5.8031   -2.0836   -1.0136 H   0  0  0  0  0  0  0  0  0  0  0  0
   -4.0820    1.5931   -1.2642 H   0  0  0  0  0  0  0  0  0  0  0  0
   -2.8091    0.9756   -2.3329 H   0  0  0  0  0  0  0  0  0  0  0  0
   -1.6074    2.9965   -2.3421 H   0  0  0  0  0  0  0  0  0  0  0  0
   -3.2835    3.5152   -2.3834 H   0  0  0  0  0  0  0  0  0  0  0  0
   -2.5984    4.8903   -0.6566 H   0  0  0  0  0  0  0  0  0  0  0  0
   -1.2052    3.8846   -0.2855 H   0  0  0  0  0  0  0  0  0  0  0  0
   -4.0847    3.3121    0.5447 H   0  0  0  0  0  0  0  0  0  0  0  0
   -2.8060    3.8689    1.6117 H   0  0  0  0  0  0  0  0  0  0  0  0
   -3.4007    1.3168    1.5282 H   0  0  0  0  0  0  0  0  0  0  0  0
   -1.7052    1.8070    1.6213 H   0  0  0  0  0  0  0  0  0  0  0  0
    4.8829    1.9668    1.3016 H   0  0  0  0  0  0  0  0  0  0  0  0
    5.1830    3.7361   -0.4034 H   0  0  0  0  0  0  0  0  0  0  0  0
    5.7878    3.1343   -2.7322 H   0  0  0  0  0  0  0  0  0  0  0  0
    6.1126    0.7584   -3.3645 H   0  0  0  0  0  0  0  0  0  0  0  0
    5.8214   -1.0295   -1.6740 H   0  0  0  0  0  0  0  0  0  0  0  0
  1  2  2  0
  2  3  2  0
  2  4  1  0
  4  5  1  0
  5  6  1  0
  6  7  1  0
  7  8  1  0
  8  9  2  0
  9 10  1  0
 10 11  2  0
 11 12  1  0
 12 13  2  0
 13 14  1  0
 14 15  2  0
 15 16  1  0
 16 17  2  0
 17 18  1  0
 18 19  1  0
 19 20  1  0
 20 21  1  0
 21 22  1  0
 22 23  1  0
  2 24  1  0
 24 25  2  0
 25 26  1  0
 26 27  2  0
 27 28  1  0
 28 29  2  0
 17  8  1  0
 23 18  1  0
 29 24  1  0
 15 10  1  0
  4 30  1  0
  4 31  1  0
  5 32  1  0
  5 33  1  0
  6 34  1  0
  7 35  1  0
  7 36  1  0
  9 37  1  0
 11 38  1  0
 12 39  1  0
 13 40  1  0
 14 41  1  0
 19 42  1  0
 19 43  1  0
 20 44  1  0
 20 45  1  0
 21 46  1  0
 21 47  1  0
 22 48  1  0
 22 49  1  0
 23 50  1  0
 23 51  1  0
 25 52  1  0
 26 53  1  0
 27 54  1  0
 28 55  1  0
 29 56  1  0
M  END
$$$$
OCNT-2309990
     RDKit          3D

  0  0  0  0  0  0  0  0  0  0999 V3000
M  V30 BEGIN CTAB
M  V30 COUNTS 54 57 0 0 0
M  V30 BEGIN ATOM
M  V30 1 C 2.943558 3.079853 -0.639701 0
M  V30 2 C 2.804675 1.585572 -0.644894 0
M  V30 3 C 1.543778 0.989976 -0.499140 0
M  V30 4 C 1.393670 -0.407834 -0.505645 0
M  V30 5 C 0.022611 -1.024358 -0.334577 0
M  V30 6 N -0.821999 -0.730295 -1.489757 0
M  V30 7 C -2.211842 -1.173627 -1.371822 0 CFG=2
M  V30 8 C -3.077471 -0.363428 -0.394677 0
M  V30 9 C -4.161218 -1.340390 0.111115 0
M  V30 10 C -5.584763 -0.790246 0.019251 0
M  V30 11 N -5.819677 0.322616 0.921913 0
M  V30 12 C -6.000975 1.632379 0.581612 0
M  V30 13 C -6.186596 2.309525 1.763849 0
M  V30 14 C -6.106889 1.317814 2.758667 0
M  V30 15 N -5.887178 0.102732 2.249361 0
M  V30 16 C -3.977350 -2.617344 -0.715727 0
M  V30 17 C -2.480100 -2.641284 -0.994495 0 CFG=1
M  V30 18 O -2.160638 -3.518153 -2.060394 0
M  V30 19 C 2.527251 -1.213786 -0.677472 0
M  V30 20 C 3.788774 -0.634684 -0.816679 0
M  V30 21 C 3.925675 0.755928 -0.774391 0
M  V30 22 O 5.166103 1.330544 -0.930219 0
M  V30 23 C 6.090117 1.120498 0.064664 0
M  V30 24 C 5.787559 0.894864 1.406587 0
M  V30 25 C 6.824502 0.732200 2.323090 0
M  V30 26 C 8.130429 0.813435 1.864010 0
M  V30 27 N 8.459938 1.041811 0.574984 0
M  V30 28 C 7.430003 1.197720 -0.292027 0
M  V30 29 H 3.506154 3.404001 0.242072 0
M  V30 30 H 1.966374 3.573743 -0.615232 0
M  V30 31 H 3.459963 3.417702 -1.544118 0
M  V30 32 H 0.657148 1.613477 -0.390928 0
M  V30 33 H -0.404763 -0.629604 0.593974 0
M  V30 34 H 0.130963 -2.107037 -0.203279 0
M  V30 35 H -0.409487 -1.206363 -2.295463 0
M  V30 36 H -2.636621 -1.015976 -2.374165 0
M  V30 37 H -2.509734 0.012345 0.462292 0
M  V30 38 H -3.497352 0.511503 -0.903446 0
M  V30 39 H -3.930963 -1.581074 1.157987 0
M  V30 40 H -5.811548 -0.451086 -0.998410 0
M  V30 41 H -6.317241 -1.563688 0.279708 0
M  V30 42 H -5.977683 1.967070 -0.445852 0
M  V30 43 H -6.355642 3.369522 1.890480 0
M  V30 44 H -6.199835 1.429022 3.831421 0
M  V30 45 H -4.546077 -2.583047 -1.653690 0
M  V30 46 H -4.305320 -3.511818 -0.175753 0
M  V30 47 H -1.932433 -2.948247 -0.096675 0
M  V30 48 H -2.411541 -4.416889 -1.785256 0
M  V30 49 H 2.435071 -2.296963 -0.706445 0
M  V30 50 H 4.661208 -1.266246 -0.957058 0
M  V30 51 H 4.759490 0.858427 1.755796 0
M  V30 52 H 6.616601 0.559106 3.372981 0
M  V30 53 H 8.970960 0.698249 2.543083 0
M  V30 54 H 7.720364 1.391833 -1.320247 0
M  V30 END ATOM
M  V30 BEGIN BOND
M  V30 1 1 1 2
M  V30 2 1 2 3
M  V30 3 2 3 4
M  V30 4 1 4 5
M  V30 5 1 5 6
M  V30 6 1 6 7
M  V30 7 1 7 8
M  V30 8 1 8 9
M  V30 9 1 9 10
M  V30 10 1 10 11
M  V30 11 1 11 12
M  V30 12 2 12 13
M  V30 13 1 13 14
M  V30 14 2 14 15
M  V30 15 1 9 16
M  V30 16 1 16 17
M  V30 17 1 17 18
M  V30 18 1 4 19
M  V30 19 2 19 20
M  V30 20 1 20 21
M  V30 21 1 21 22
M  V30 22 1 22 23
M  V30 23 1 23 24
M  V30 24 2 24 25
M  V30 25 1 25 26
M  V30 26 2 26 27
M  V30 27 1 27 28
M  V30 28 2 21 2
M  V30 29 2 28 23
M  V30 30 1 17 7
M  V30 31 1 15 11
M  V30 32 1 1 29
M  V30 33 1 1 30
M  V30 34 1 1 31
M  V30 35 1 3 32
M  V30 36 1 5 33
M  V30 37 1 5 34
M  V30 38 1 6 35
M  V30 39 1 7 36 CFG=3
M  V30 40 1 8 37
M  V30 41 1 8 38
M  V30 42 1 9 39
M  V30 43 1 10 40
M  V30 44 1 10 41
M  V30 45 1 12 42
M  V30 46 1 13 43
M  V30 47 1 14 44
M  V30 48 1 16 45
M  V30 49 1 16 46
M  V30 50 1 17 47 CFG=1
M  V30 51 1 18 48
M  V30 52 1 19 49
M  V30 53 1 20 50
M  V30 54 1 24 51
M  V30 55 1 25 52
M  V30 56 1 26 53
M  V30 57 1 28 54
M  V30 END BOND
M  V30 BEGIN COLLECTION
M  V30 MDLV30/STERAC1 ATOMS=(2 7 17)
M  V30 END COLLECTION
M  V30 END CTAB
M  END
>  <_CXSMILES_Data>  (273) 
|&1:6,16|

$$$$
OCNT-2310006
     RDKit          3D

 53 57  0  0  0  0  0  0  0  0999 V2000
   -0.1352   -0.3317    2.1905 O   0  0  0  0  0  0  0  0  0  0  0  0
   -0.4009   -1.4425    1.7434 C   0  0  0  0  0  0  0  0  0  0  0  0
   -1.6489   -2.2049    2.1567 C   0  0  0  0  0  0  0  0  0  0  0  0
   -2.5101   -1.4180    3.1376 C   0  0  0  0  0  0  0  0  0  0  0  0
   -3.1463   -0.2702    2.5242 N   0  0  0  0  0  0  0  0  0  0  0  0
   -4.2790   -0.3913    1.7465 C   0  0  0  0  0  0  0  0  0  0  0  0
   -4.8508   -1.4689    1.6010 O   0  0  0  0  0  0  0  0  0  0  0  0
   -4.7276    0.8395    1.0915 C   0  0  0  0  0  0  0  0  0  0  0  0
   -4.1864    2.1105    1.2254 C   0  0  0  0  0  0  0  0  0  0  0  0
   -4.8998    2.9763    0.4393 N   0  0  0  0  0  0  0  0  0  0  0  0
   -5.9120    2.3105   -0.2071 C   0  0  0  0  0  0  0  0  0  0  0  0
   -6.8807    2.7922   -1.0964 C   0  0  0  0  0  0  0  0  0  0  0  0
   -7.8024    1.8766   -1.6107 C   0  0  0  0  0  0  0  0  0  0  0  0
   -7.7559    0.5338   -1.2472 C   0  0  0  0  0  0  0  0  0  0  0  0
   -6.7799    0.0709   -0.3572 C   0  0  0  0  0  0  0  0  0  0  0  0
   -5.8334    0.9714    0.1787 C   0  0  0  0  0  0  0  0  0  0  0  0
    0.3540   -2.1660    0.8323 N   0  0  0  0  0  0  0  0  0  0  0  0
    1.5848   -1.7995    0.2511 C   0  0  0  0  0  0  0  0  0  0  0  0
    2.2731   -0.6246    0.5498 C   0  0  0  0  0  0  0  0  0  0  0  0
    3.4969   -0.3326   -0.0696 C   0  0  0  0  0  0  0  0  0  0  0  0
    4.0490   -1.2133   -1.0045 C   0  0  0  0  0  0  0  0  0  0  0  0
    5.2991   -0.9334   -1.6300 N   0  0  0  0  0  0  0  0  0  0  0  0
    6.1766   -1.8874   -2.1064 C   0  0  0  0  0  0  0  0  0  0  0  0
    7.2967   -1.3773   -2.5608 N   0  0  0  0  0  0  0  0  0  0  0  0
    7.1445   -0.0261   -2.4260 C   0  0  0  0  0  0  0  0  0  0  0  0
    8.0417    0.9933   -2.7834 C   0  0  0  0  0  0  0  0  0  0  0  0
    7.6611    2.3266   -2.6107 C   0  0  0  0  0  0  0  0  0  0  0  0
    6.4025    2.6409   -2.1048 C   0  0  0  0  0  0  0  0  0  0  0  0
    5.4963    1.6376   -1.7376 C   0  0  0  0  0  0  0  0  0  0  0  0
    5.9017    0.2977   -1.8752 C   0  0  0  0  0  0  0  0  0  0  0  0
    3.3698   -2.4046   -1.2924 C   0  0  0  0  0  0  0  0  0  0  0  0
    2.1460   -2.6880   -0.6725 C   0  0  0  0  0  0  0  0  0  0  0  0
   -2.2196   -2.4601    1.2567 H   0  0  0  0  0  0  0  0  0  0  0  0
   -1.3253   -3.1365    2.6359 H   0  0  0  0  0  0  0  0  0  0  0  0
   -3.2925   -2.0718    3.5393 H   0  0  0  0  0  0  0  0  0  0  0  0
   -1.9171   -1.0480    3.9807 H   0  0  0  0  0  0  0  0  0  0  0  0
   -2.5992    0.5788    2.4668 H   0  0  0  0  0  0  0  0  0  0  0  0
   -3.3584    2.4851    1.8118 H   0  0  0  0  0  0  0  0  0  0  0  0
   -4.7171    3.9665    0.3469 H   0  0  0  0  0  0  0  0  0  0  0  0
   -6.9212    3.8385   -1.3807 H   0  0  0  0  0  0  0  0  0  0  0  0
   -8.5681    2.2191   -2.3026 H   0  0  0  0  0  0  0  0  0  0  0  0
   -8.4839   -0.1644   -1.6534 H   0  0  0  0  0  0  0  0  0  0  0  0
   -6.7555   -0.9799   -0.0787 H   0  0  0  0  0  0  0  0  0  0  0  0
   -0.0310   -3.0534    0.5312 H   0  0  0  0  0  0  0  0  0  0  0  0
    1.8957    0.0878    1.2776 H   0  0  0  0  0  0  0  0  0  0  0  0
    4.0157    0.5657    0.2515 H   0  0  0  0  0  0  0  0  0  0  0  0
    5.9725   -2.9483   -2.0535 H   0  0  0  0  0  0  0  0  0  0  0  0
    9.0096    0.7379   -3.2014 H   0  0  0  0  0  0  0  0  0  0  0  0
    8.3480    3.1216   -2.8909 H   0  0  0  0  0  0  0  0  0  0  0  0
    6.1126    3.6850   -2.0024 H   0  0  0  0  0  0  0  0  0  0  0  0
    4.5082    1.9123   -1.3861 H   0  0  0  0  0  0  0  0  0  0  0  0
    3.7432   -3.1185   -2.0229 H   0  0  0  0  0  0  0  0  0  0  0  0
    1.6391   -3.6150   -0.9309 H   0  0  0  0  0  0  0  0  0  0  0  0
  1  2  2  0
  2  3  1  0
  3  4  1  0
  4  5  1  0
  5  6  1  0
  6  7  2  0
  6  8  1  0
  8  9  2  0
  9 10  1  0
 10 11  1  0
 11 12  2  0
 12 13  1  0
 13 14  2  0
 14 15  1  0
 15 16  2  0
  2 17  1  0
 17 18  1  0
 18 19  1  0
 19 20  2  0
 20 21  1  0
 21 22  1  0
 22 23  1  0
 23 24  2  0
 24 25  1  0
 25 26  2  0
 26 27  1  0
 27 28  2  0
 28 29  1  0
 29 30  2  0
 21 31  2  0
 31 32  1  0
 16  8  1  0
 32 18  2  0
 16 11  1  0
 30 22  1  0
 30 25  1  0
  3 33  1  0
  3 34  1  0
  4 35  1  0
  4 36  1  0
  5 37  1  0
  9 38  1  0
 10 39  1  0
 12 40  1  0
 13 41  1  0
 14 42  1  0
 15 43  1  0
 17 44  1  0
 19 45  1  0
 20 46  1  0
 23 47  1  0
 26 48  1  0
 27 49  1  0
 28 50  1  0
 29 51  1  0
 31 52  1  0
 32 53  1  0
M  END
$$$$
OCNT-2310008
     RDKit          3D

 41 45  0  0  0  0  0  0  0  0999 V2000
   -2.6632   -3.6336   -0.2928 F   0  0  0  0  0  0  0  0  0  0  0  0
   -3.0041   -2.6623    0.5854 C   0  0  0  0  0  0  0  0  0  0  0  0
   -2.5887   -3.0429    1.8156 F   0  0  0  0  0  0  0  0  0  0  0  0
   -4.3574   -2.6029    0.6164 F   0  0  0  0  0  0  0  0  0  0  0  0
   -2.4036   -1.3361    0.1926 C   0  0  0  0  0  0  0  0  0  0  0  0
   -0.8391   -1.4010    0.1487 C   0  0  0  0  0  0  0  0  0  0  0  0
   -0.0814   -0.3773   -0.1788 N   0  0  0  0  0  0  0  0  0  0  0  0
    1.1888   -0.8954   -0.0761 C   0  0  0  0  0  0  0  0  0  0  0  0
    2.3778   -0.0742   -0.3603 C   0  0  0  0  0  0  0  0  0  0  0  0
    2.3388    1.2158   -0.7371 N   0  0  0  0  0  0  0  0  0  0  0  0
    3.6326    1.5478   -0.8839 N   0  0  0  0  0  0  0  0  0  0  0  0
    4.4873    0.5235   -0.6091 C   0  0  0  0  0  0  0  0  0  0  0  0
    6.0269    0.5665   -0.6951 C   0  0  0  0  0  0  0  0  0  0  0  0
    6.7701    1.6247    0.0755 C   0  0  0  0  0  0  0  0  0  0  0  0
    6.8364    0.1924    0.5173 C   0  0  0  0  0  0  0  0  0  0  0  0
    3.7080   -0.5542   -0.2707 C   0  0  0  0  0  0  0  0  0  0  0  0
    1.2309   -2.1828    0.2983 N   0  0  0  0  0  0  0  0  0  0  0  0
   -0.1123   -2.5206    0.4479 O   0  0  0  0  0  0  0  0  0  0  0  0
   -3.0218   -0.6996   -1.0967 C   0  0  0  0  0  0  0  0  0  0  0  0
   -3.7299    0.2916   -0.2132 C   0  0  0  0  0  0  0  0  0  0  0  0
   -3.7612    1.7505   -0.6061 C   0  0  0  0  0  0  0  0  0  0  0  0
   -5.1748    1.8013    0.0261 C   0  0  0  0  0  0  0  0  0  0  0  0
   -5.2411    0.2608   -0.1270 C   0  0  0  0  0  0  0  0  0  0  0  0
   -2.9363   -0.1113    1.0083 C   0  0  0  0  0  0  0  0  0  0  0  0
    3.8612    2.4927   -1.1730 H   0  0  0  0  0  0  0  0  0  0  0  0
    6.4326    0.2812   -1.6616 H   0  0  0  0  0  0  0  0  0  0  0  0
    6.2158    2.3134    0.7025 H   0  0  0  0  0  0  0  0  0  0  0  0
    7.6546    2.0560   -0.3791 H   0  0  0  0  0  0  0  0  0  0  0  0
    7.7632   -0.3475    0.3594 H   0  0  0  0  0  0  0  0  0  0  0  0
    6.3186   -0.0796    1.4304 H   0  0  0  0  0  0  0  0  0  0  0  0
    4.0403   -1.5454    0.0042 H   0  0  0  0  0  0  0  0  0  0  0  0
   -2.2983   -0.2478   -1.7854 H   0  0  0  0  0  0  0  0  0  0  0  0
   -3.6684   -1.3620   -1.6819 H   0  0  0  0  0  0  0  0  0  0  0  0
   -3.7651    1.9269   -1.6879 H   0  0  0  0  0  0  0  0  0  0  0  0
   -3.0183    2.4064   -0.1449 H   0  0  0  0  0  0  0  0  0  0  0  0
   -5.9246    2.3659   -0.5337 H   0  0  0  0  0  0  0  0  0  0  0  0
   -5.1771    2.1387    1.0690 H   0  0  0  0  0  0  0  0  0  0  0  0
   -5.7412   -0.0604   -1.0478 H   0  0  0  0  0  0  0  0  0  0  0  0
   -5.6833   -0.2722    0.7186 H   0  0  0  0  0  0  0  0  0  0  0  0
   -2.1708    0.6140    1.3082 H   0  0  0  0  0  0  0  0  0  0  0  0
   -3.5219   -0.3610    1.8995 H   0  0  0  0  0  0  0  0  0  0  0  0
  1  2  1  0
  2  3  1  0
  2  4  1  0
  2  5  1  0
  5  6  1  0
  6  7  2  0
  7  8  1  0
  8  9  1  0
  9 10  2  0
 10 11  1  0
 11 12  1  0
 12 13  1  0
 13 14  1  0
 14 15  1  0
 12 16  2  0
  8 17  2  0
 17 18  1  0
  5 19  1  0
 19 20  1  0
 20 21  1  0
 21 22  1  0
 22 23  1  0
 20 24  1  0
 24  5  1  0
 18  6  1  0
 23 20  1  0
 16  9  1  0
 15 13  1  0
 11 25  1  0
 13 26  1  0
 14 27  1  0
 14 28  1  0
 15 29  1  0
 15 30  1  0
 16 31  1  0
 19 32  1  0
 19 33  1  0
 21 34  1  0
 21 35  1  0
 22 36  1  0
 22 37  1  0
 23 38  1  0
 23 39  1  0
 24 40  1  0
 24 41  1  0
M  END
$$$$
OCNT-2310010
     RDKit          3D

 51 54  0  0  0  0  0  0  0  0999 V2000
   -1.2498    2.1602   -0.8397 O   0  0  0  0  0  0  0  0  0  0  0  0
   -1.0538    0.9620   -0.6514 C   0  0  0  0  0  0  0  0  0  0  0  0
    0.1580    0.2016   -1.2081 C   0  0  0  0  0  0  0  0  0  0  0  0
    1.4294    0.8617   -0.8500 N   0  0  0  0  0  0  0  0  0  0  0  0
    1.7297    0.8103    0.5880 C   0  0  0  0  0  0  0  0  0  0  0  0
    2.4172   -0.4672    1.0913 C   0  0  0  0  0  0  0  0  0  0  0  0
    3.9156   -0.5447    0.8787 C   0  0  0  0  0  0  0  0  0  0  0  0
    4.6585   -1.2829    1.8240 C   0  0  0  0  0  0  0  0  0  0  0  0
    6.0432   -1.4178    1.7204 C   0  0  0  0  0  0  0  0  0  0  0  0
    6.7018   -0.8093    0.6656 C   0  0  0  0  0  0  0  0  0  0  0  0
    8.0536   -0.9002    0.5212 O   0  0  0  0  0  0  0  0  0  0  0  0
    5.9939   -0.0877   -0.2881 C   0  0  0  0  0  0  0  0  0  0  0  0
    4.5924    0.0382   -0.2123 C   0  0  0  0  0  0  0  0  0  0  0  0
    3.9149    0.8418   -1.3032 C   0  0  0  0  0  0  0  0  0  0  0  0
    2.5157    0.3563   -1.7002 C   0  0  0  0  0  0  0  0  0  0  0  0
   -1.9135    0.1794    0.0819 N   0  0  0  0  0  0  0  0  0  0  0  0
   -3.1517    0.7017    0.6363 C   0  0  0  0  0  0  0  0  0  0  0  0
   -4.2573    0.6398   -0.4117 C   0  0  0  0  0  0  0  0  0  0  0  0
   -4.6173    1.8066   -1.1065 C   0  0  0  0  0  0  0  0  0  0  0  0
   -5.6140    1.7778   -2.0836 C   0  0  0  0  0  0  0  0  0  0  0  0
   -6.2604    0.5824   -2.3853 C   0  0  0  0  0  0  0  0  0  0  0  0
   -5.9049   -0.5883   -1.7185 C   0  0  0  0  0  0  0  0  0  0  0  0
   -4.9043   -0.5632   -0.7443 C   0  0  0  0  0  0  0  0  0  0  0  0
   -3.4714   -0.0962    1.8906 C   0  0  0  0  0  0  0  0  0  0  0  0
   -3.0054   -1.3085    2.1512 N   0  0  0  0  0  0  0  0  0  0  0  0
   -3.4968   -1.7431    3.3658 C   0  0  0  0  0  0  0  0  0  0  0  0
   -4.3307   -0.8644    4.0212 C   0  0  0  0  0  0  0  0  0  0  0  0
   -4.5164    0.5624    3.0932 S   0  0  0  0  0  0  0  0  0  0  0  0
    0.0222    0.1948   -2.2974 H   0  0  0  0  0  0  0  0  0  0  0  0
    0.1502   -0.8416   -0.8735 H   0  0  0  0  0  0  0  0  0  0  0  0
    2.3442    1.6833    0.8478 H   0  0  0  0  0  0  0  0  0  0  0  0
    0.8062    0.9522    1.1620 H   0  0  0  0  0  0  0  0  0  0  0  0
    2.2280   -0.5129    2.1728 H   0  0  0  0  0  0  0  0  0  0  0  0
    1.9498   -1.3615    0.6605 H   0  0  0  0  0  0  0  0  0  0  0  0
    4.1517   -1.7603    2.6604 H   0  0  0  0  0  0  0  0  0  0  0  0
    6.5798   -1.9938    2.4676 H   0  0  0  0  0  0  0  0  0  0  0  0
    8.4087   -1.4139    1.2640 H   0  0  0  0  0  0  0  0  0  0  0  0
    6.5437    0.3739   -1.1056 H   0  0  0  0  0  0  0  0  0  0  0  0
    3.8986    1.9003   -1.0156 H   0  0  0  0  0  0  0  0  0  0  0  0
    4.5343    0.7843   -2.2081 H   0  0  0  0  0  0  0  0  0  0  0  0
    2.5032   -0.7407   -1.7568 H   0  0  0  0  0  0  0  0  0  0  0  0
    2.3217    0.7200   -2.7177 H   0  0  0  0  0  0  0  0  0  0  0  0
   -1.7375   -0.8053    0.2324 H   0  0  0  0  0  0  0  0  0  0  0  0
   -2.9796    1.7463    0.9289 H   0  0  0  0  0  0  0  0  0  0  0  0
   -4.1062    2.7462   -0.9016 H   0  0  0  0  0  0  0  0  0  0  0  0
   -5.8777    2.6890   -2.6141 H   0  0  0  0  0  0  0  0  0  0  0  0
   -7.0353    0.5617   -3.1471 H   0  0  0  0  0  0  0  0  0  0  0  0
   -6.4048   -1.5231   -1.9588 H   0  0  0  0  0  0  0  0  0  0  0  0
   -4.6352   -1.4925   -0.2460 H   0  0  0  0  0  0  0  0  0  0  0  0
   -3.2162   -2.7246    3.7330 H   0  0  0  0  0  0  0  0  0  0  0  0
   -4.8260   -0.9908    4.9717 H   0  0  0  0  0  0  0  0  0  0  0  0
  1  2  2  0
  2  3  1  0
  3  4  1  0
  4  5  1  0
  5  6  1  0
  6  7  1  0
  7  8  1  0
  8  9  2  0
  9 10  1  0
 10 11  1  0
 10 12  2  0
 12 13  1  0
 13 14  1  0
 14 15  1  0
  2 16  1  0
 16 17  1  0
 17 18  1  0
 18 19  2  0
 19 20  1  0
 20 21  2  0
 21 22  1  0
 22 23  2  0
 17 24  1  0
 24 25  2  0
 25 26  1  0
 26 27  2  0
 27 28  1  0
 15  4  1  0
 23 18  1  0
 28 24  1  0
 13  7  2  0
  3 29  1  0
  3 30  1  0
  5 31  1  0
  5 32  1  0
  6 33  1  0
  6 34  1  0
  8 35  1  0
  9 36  1  0
 11 37  1  0
 12 38  1  0
 14 39  1  0
 14 40  1  0
 15 41  1  0
 15 42  1  0
 16 43  1  0
 17 44  1  0
 19 45  1  0
 20 46  1  0
 21 47  1  0
 22 48  1  0
 23 49  1  0
 26 50  1  0
 27 51  1  0
M  END
$$$$
OCNT-2310018
     RDKit          3D

 40 43  0  0  0  0  0  0  0  0999 V2000
   -6.5032   -0.3249   -1.0929 O   0  0  0  0  0  0  0  0  0  0  0  0
   -5.2443   -0.4211   -0.5796 C   0  0  0  0  0  0  0  0  0  0  0  0
   -5.0333   -1.3197    0.4507 C   0  0  0  0  0  0  0  0  0  0  0  0
   -3.7561   -1.4520    0.9920 C   0  0  0  0  0  0  0  0  0  0  0  0
   -2.6717   -0.6923    0.5069 C   0  0  0  0  0  0  0  0  0  0  0  0
   -1.3230   -0.9223    1.1583 C   0  0  0  0  0  0  0  0  0  0  0  0
   -0.1155   -0.7966    0.2251 C   0  0  0  0  0  0  0  0  0  0  0  0
    0.3244    0.5947    0.0409 N   0  0  0  0  0  0  0  0  0  0  0  0
    1.5282    1.0143    0.6095 C   0  0  0  0  0  0  0  0  0  0  0  0
    1.5293    2.0911    1.3665 N   0  0  0  0  0  0  0  0  0  0  0  0
    2.6997    2.5123    1.9575 C   0  0  0  0  0  0  0  0  0  0  0  0
    3.8750    1.8912    1.8038 C   0  0  0  0  0  0  0  0  0  0  0  0
    3.9301    0.7737    0.9962 N   0  0  0  0  0  0  0  0  0  0  0  0
    5.0063    0.0103    0.6885 N   0  0  0  0  0  0  0  0  0  0  0  0
    4.5495   -0.9059   -0.1882 C   0  0  0  0  0  0  0  0  0  0  0  0
    5.4404   -1.9456   -0.8146 C   0  0  0  0  0  0  0  0  0  0  0  0
    4.7383   -2.7803   -1.6321 F   0  0  0  0  0  0  0  0  0  0  0  0
    6.0462   -2.7384    0.1085 F   0  0  0  0  0  0  0  0  0  0  0  0
    6.4216   -1.3987   -1.5795 F   0  0  0  0  0  0  0  0  0  0  0  0
    3.1597   -0.7376   -0.4178 C   0  0  0  0  0  0  0  0  0  0  0  0
    2.7867    0.3208    0.3772 C   0  0  0  0  0  0  0  0  0  0  0  0
   -0.7385    1.5998   -0.1301 C   0  0  0  0  0  0  0  0  0  0  0  0
   -1.8301    1.1461   -1.1012 C   0  0  0  0  0  0  0  0  0  0  0  0
   -2.9035    0.2511   -0.5144 C   0  0  0  0  0  0  0  0  0  0  0  0
   -4.1985    0.3573   -1.0648 C   0  0  0  0  0  0  0  0  0  0  0  0
   -6.5020    0.3433   -1.7973 H   0  0  0  0  0  0  0  0  0  0  0  0
   -5.8560   -1.9181    0.8307 H   0  0  0  0  0  0  0  0  0  0  0  0
   -3.6094   -2.1658    1.8009 H   0  0  0  0  0  0  0  0  0  0  0  0
   -1.3091   -1.9480    1.5510 H   0  0  0  0  0  0  0  0  0  0  0  0
   -1.2254   -0.2542    2.0229 H   0  0  0  0  0  0  0  0  0  0  0  0
   -0.3190   -1.2489   -0.7530 H   0  0  0  0  0  0  0  0  0  0  0  0
    0.6925   -1.3872    0.6714 H   0  0  0  0  0  0  0  0  0  0  0  0
    2.6231    3.3992    2.5807 H   0  0  0  0  0  0  0  0  0  0  0  0
    4.7975    2.2125    2.2652 H   0  0  0  0  0  0  0  0  0  0  0  0
    2.5279   -1.3140   -1.0795 H   0  0  0  0  0  0  0  0  0  0  0  0
   -1.1643    1.8867    0.8396 H   0  0  0  0  0  0  0  0  0  0  0  0
   -0.2820    2.5015   -0.5593 H   0  0  0  0  0  0  0  0  0  0  0  0
   -2.3181    2.0580   -1.4710 H   0  0  0  0  0  0  0  0  0  0  0  0
   -1.3925    0.6458   -1.9740 H   0  0  0  0  0  0  0  0  0  0  0  0
   -4.3807    1.0619   -1.8723 H   0  0  0  0  0  0  0  0  0  0  0  0
  1  2  1  0
  2  3  1  0
  3  4  2  0
  4  5  1  0
  5  6  1  0
  6  7  1  0
  7  8  1  0
  8  9  1  0
  9 10  2  0
 10 11  1  0
 11 12  2  0
 12 13  1  0
 13 14  1  0
 14 15  2  0
 15 16  1  0
 16 17  1  0
 16 18  1  0
 16 19  1  0
 15 20  1  0
 20 21  2  0
  8 22  1  0
 22 23  1  0
 23 24  1  0
 24 25  1  0
 25  2  2  0
 24  5  2  0
 21  9  1  0
 21 13  1  0
  1 26  1  0
  3 27  1  0
  4 28  1  0
  6 29  1  0
  6 30  1  0
  7 31  1  0
  7 32  1  0
 11 33  1  0
 12 34  1  0
 20 35  1  0
 22 36  1  0
 22 37  1  0
 23 38  1  0
 23 39  1  0
 25 40  1  0
M  END
$$$$
OCNT-2310019
     RDKit          3D

 44 46  0  0  0  0  0  0  0  0999 V2000
   -2.1941   -1.9306   -0.8770 C   0  0  0  0  0  0  0  0  0  0  0  0
   -2.3473   -1.5784    0.6152 C   0  0  0  0  0  0  0  0  0  0  0  0
   -2.2109   -2.8826    1.4228 C   0  0  0  0  0  0  0  0  0  0  0  0
   -3.6758   -1.1069    0.9241 O   0  0  0  0  0  0  0  0  0  0  0  0
   -4.1004   -0.0193    0.2141 C   0  0  0  0  0  0  0  0  0  0  0  0
   -4.9276   -0.2198   -0.8923 C   0  0  0  0  0  0  0  0  0  0  0  0
   -5.4121    0.8759   -1.6091 C   0  0  0  0  0  0  0  0  0  0  0  0
   -5.0921    2.1680   -1.1942 C   0  0  0  0  0  0  0  0  0  0  0  0
   -5.6873    3.5200   -2.0751 Cl  0  0  0  0  0  0  0  0  0  0  0  0
   -4.3061    2.3714   -0.0607 C   0  0  0  0  0  0  0  0  0  0  0  0
   -3.8211    1.2734    0.6539 C   0  0  0  0  0  0  0  0  0  0  0  0
   -1.2070   -0.6622    1.1276 C   0  0  0  0  0  0  0  0  0  0  0  0
   -1.2857    0.0897    2.0924 O   0  0  0  0  0  0  0  0  0  0  0  0
   -0.0620   -0.8403    0.4060 O   0  0  0  0  0  0  0  0  0  0  0  0
    1.0365   -0.0286    0.8429 C   0  0  0  0  0  0  0  0  0  0  0  0
    2.2545   -0.2586   -0.0230 C   0  0  0  0  0  0  0  0  0  0  0  0
    2.2711   -1.1062   -1.0646 C   0  0  0  0  0  0  0  0  0  0  0  0
    3.4480   -1.3445   -1.9126 C   0  0  0  0  0  0  0  0  0  0  0  0
    3.3953   -2.1340   -2.8485 O   0  0  0  0  0  0  0  0  0  0  0  0
    4.5960   -0.6425   -1.5986 O   0  0  0  0  0  0  0  0  0  0  0  0
    4.6215    0.2627   -0.5197 C   0  0  0  0  0  0  0  0  0  0  0  0
    5.8348    0.9192   -0.3022 C   0  0  0  0  0  0  0  0  0  0  0  0
    5.9221    1.8223    0.7465 C   0  0  0  0  0  0  0  0  0  0  0  0
    7.0756    2.4951    1.0156 O   0  0  0  0  0  0  0  0  0  0  0  0
    4.8240    2.0672    1.5621 C   0  0  0  0  0  0  0  0  0  0  0  0
    3.6146    1.4011    1.3300 C   0  0  0  0  0  0  0  0  0  0  0  0
    3.4938    0.4809    0.2787 C   0  0  0  0  0  0  0  0  0  0  0  0
   -3.0393   -2.5318   -1.2304 H   0  0  0  0  0  0  0  0  0  0  0  0
   -1.2760   -2.4975   -1.0729 H   0  0  0  0  0  0  0  0  0  0  0  0
   -2.1497   -1.0269   -1.4959 H   0  0  0  0  0  0  0  0  0  0  0  0
   -2.3390   -2.6907    2.4954 H   0  0  0  0  0  0  0  0  0  0  0  0
   -1.2318   -3.3530    1.2817 H   0  0  0  0  0  0  0  0  0  0  0  0
   -2.9881   -3.6017    1.1403 H   0  0  0  0  0  0  0  0  0  0  0  0
   -5.1974   -1.2272   -1.1986 H   0  0  0  0  0  0  0  0  0  0  0  0
   -6.0437    0.7158   -2.4788 H   0  0  0  0  0  0  0  0  0  0  0  0
   -4.0796    3.3781    0.2812 H   0  0  0  0  0  0  0  0  0  0  0  0
   -3.2484    1.4407    1.5617 H   0  0  0  0  0  0  0  0  0  0  0  0
    0.7400    1.0261    0.7807 H   0  0  0  0  0  0  0  0  0  0  0  0
    1.2722   -0.2924    1.8812 H   0  0  0  0  0  0  0  0  0  0  0  0
    1.4009   -1.6841   -1.3543 H   0  0  0  0  0  0  0  0  0  0  0  0
    6.6810    0.7137   -0.9492 H   0  0  0  0  0  0  0  0  0  0  0  0
    7.7504    2.2372    0.3659 H   0  0  0  0  0  0  0  0  0  0  0  0
    4.9073    2.7766    2.3817 H   0  0  0  0  0  0  0  0  0  0  0  0
    2.7828    1.6248    1.9930 H   0  0  0  0  0  0  0  0  0  0  0  0
  1  2  1  0
  2  3  1  0
  2  4  1  0
  4  5  1  0
  5  6  1  0
  6  7  2  0
  7  8  1  0
  8  9  1  0
  8 10  2  0
 10 11  1  0
  2 12  1  0
 12 13  2  0
 12 14  1  0
 14 15  1  0
 15 16  1  0
 16 17  2  0
 17 18  1  0
 18 19  2  0
 18 20  1  0
 20 21  1  0
 21 22  1  0
 22 23  2  0
 23 24  1  0
 23 25  1  0
 25 26  2  0
 26 27  1  0
 11  5  2  0
 27 16  1  0
 27 21  2  0
  1 28  1  0
  1 29  1  0
  1 30  1  0
  3 31  1  0
  3 32  1  0
  3 33  1  0
  6 34  1  0
  7 35  1  0
 10 36  1  0
 11 37  1  0
 15 38  1  0
 15 39  1  0
 17 40  1  0
 22 41  1  0
 24 42  1  0
 25 43  1  0
 26 44  1  0
M  END
$$$$
OCNT-2310024
     RDKit          3D

 46 48  0  0  0  0  0  0  0  0999 V2000
   -2.7160    2.0929    1.0080 O   0  0  0  0  0  0  0  0  0  0  0  0
   -3.6855    1.1422    0.5840 C   0  0  0  0  0  0  0  0  0  0  0  0
   -3.2091   -0.2776    0.8845 C   0  0  0  0  0  0  0  0  0  0  0  0
   -2.1175   -0.8517   -0.0747 C   0  0  0  0  0  0  0  0  0  0  0  0
   -0.8887    0.0676   -0.2494 C   0  0  0  0  0  0  0  0  0  0  0  0
   -0.2881    0.4142    1.0408 N   0  0  0  0  0  0  0  0  0  0  0  0
    1.0252    1.0788    0.9581 C   0  0  0  0  0  0  0  0  0  0  0  0
    0.9444    2.4407    0.2418 C   0  0  0  0  0  0  0  0  0  0  0  0
    2.3341    3.0488    0.0966 C   0  0  0  0  0  0  0  0  0  0  0  0
    3.2009    2.1590   -0.7897 C   0  0  0  0  0  0  0  0  0  0  0  0
    3.1807    0.7099   -0.3686 C   0  0  0  0  0  0  0  0  0  0  0  0
    4.2052   -0.1384   -0.8227 C   0  0  0  0  0  0  0  0  0  0  0  0
    4.2321   -1.4847   -0.4588 C   0  0  0  0  0  0  0  0  0  0  0  0
    3.2327   -1.9861    0.3637 C   0  0  0  0  0  0  0  0  0  0  0  0
    3.2252   -3.2918    0.7571 O   0  0  0  0  0  0  0  0  0  0  0  0
    2.2045   -1.1664    0.8136 C   0  0  0  0  0  0  0  0  0  0  0  0
    2.1441    0.1867    0.4323 C   0  0  0  0  0  0  0  0  0  0  0  0
   -2.7170   -1.2251   -1.4325 C   0  0  0  0  0  0  0  0  0  0  0  0
   -3.3708   -2.5709   -1.1810 C   0  0  0  0  0  0  0  0  0  0  0  0
   -2.7162   -3.1583   -0.0509 O   0  0  0  0  0  0  0  0  0  0  0  0
   -1.7038   -2.2465    0.4119 C   0  0  0  0  0  0  0  0  0  0  0  0
   -3.1077    2.9734    0.8701 H   0  0  0  0  0  0  0  0  0  0  0  0
   -4.6061    1.3410    1.1427 H   0  0  0  0  0  0  0  0  0  0  0  0
   -3.8893    1.2914   -0.4796 H   0  0  0  0  0  0  0  0  0  0  0  0
   -2.8276   -0.3037    1.9138 H   0  0  0  0  0  0  0  0  0  0  0  0
   -4.0880   -0.9337    0.8716 H   0  0  0  0  0  0  0  0  0  0  0  0
   -0.1559   -0.4407   -0.8877 H   0  0  0  0  0  0  0  0  0  0  0  0
   -1.1925    0.9707   -0.7904 H   0  0  0  0  0  0  0  0  0  0  0  0
   -0.9395    1.0619    1.5012 H   0  0  0  0  0  0  0  0  0  0  0  0
    1.3123    1.2931    1.9977 H   0  0  0  0  0  0  0  0  0  0  0  0
    0.2985    3.1223    0.8083 H   0  0  0  0  0  0  0  0  0  0  0  0
    0.5092    2.3443   -0.7599 H   0  0  0  0  0  0  0  0  0  0  0  0
    2.2632    4.0493   -0.3445 H   0  0  0  0  0  0  0  0  0  0  0  0
    2.7953    3.1637    1.0856 H   0  0  0  0  0  0  0  0  0  0  0  0
    4.2292    2.5395   -0.7670 H   0  0  0  0  0  0  0  0  0  0  0  0
    2.8484    2.2186   -1.8270 H   0  0  0  0  0  0  0  0  0  0  0  0
    4.9948    0.2534   -1.4604 H   0  0  0  0  0  0  0  0  0  0  0  0
    5.0371   -2.1169   -0.8182 H   0  0  0  0  0  0  0  0  0  0  0  0
    3.9946   -3.7363    0.3669 H   0  0  0  0  0  0  0  0  0  0  0  0
    1.4389   -1.5845    1.4635 H   0  0  0  0  0  0  0  0  0  0  0  0
   -3.4201   -0.4936   -1.8398 H   0  0  0  0  0  0  0  0  0  0  0  0
   -1.9231   -1.3555   -2.1794 H   0  0  0  0  0  0  0  0  0  0  0  0
   -3.2816   -3.2391   -2.0426 H   0  0  0  0  0  0  0  0  0  0  0  0
   -4.4331   -2.4643   -0.9392 H   0  0  0  0  0  0  0  0  0  0  0  0
   -1.6200   -2.3259    1.5002 H   0  0  0  0  0  0  0  0  0  0  0  0
   -0.7535   -2.5719   -0.0275 H   0  0  0  0  0  0  0  0  0  0  0  0
  1  2  1  0
  2  3  1  0
  3  4  1  0
  4  5  1  0
  5  6  1  0
  6  7  1  0
  7  8  1  0
  8  9  1  0
  9 10  1  0
 10 11  1  0
 11 12  1  0
 12 13  2  0
 13 14  1  0
 14 15  1  0
 14 16  2  0
 16 17  1  0
  4 18  1  0
 18 19  1  0
 19 20  1  0
 20 21  1  0
 21  4  1  0
 17  7  1  0
 17 11  2  0
  1 22  1  0
  2 23  1  0
  2 24  1  0
  3 25  1  0
  3 26  1  0
  5 27  1  0
  5 28  1  0
  6 29  1  0
  7 30  1  0
  8 31  1  0
  8 32  1  0
  9 33  1  0
  9 34  1  0
 10 35  1  0
 10 36  1  0
 12 37  1  0
 13 38  1  0
 15 39  1  0
 16 40  1  0
 18 41  1  0
 18 42  1  0
 19 43  1  0
 19 44  1  0
 21 45  1  0
 21 46  1  0
M  END
$$$$
OCNT-2310035
     RDKit          3D

 34 36  0  0  0  0  0  0  0  0999 V2000
    0.7706   -0.6469    2.0053 O   0  0  0  0  0  0  0  0  0  0  0  0
    0.5218   -0.8410    0.8187 C   0  0  0  0  0  0  0  0  0  0  0  0
    1.4346   -0.6990   -0.2036 N   0  0  0  0  0  0  0  0  0  0  0  0
    2.7203   -0.1264   -0.1236 C   0  0  0  0  0  0  0  0  0  0  0  0
    3.1573    0.6479    0.9566 C   0  0  0  0  0  0  0  0  0  0  0  0
    4.4439    1.2020    0.9644 C   0  0  0  0  0  0  0  0  0  0  0  0
    5.2983    0.9901   -0.1142 C   0  0  0  0  0  0  0  0  0  0  0  0
    6.8761    1.6754   -0.0986 Cl  0  0  0  0  0  0  0  0  0  0  0  0
    4.8615    0.2300   -1.1948 C   0  0  0  0  0  0  0  0  0  0  0  0
    5.6616    0.0154   -2.2501 F   0  0  0  0  0  0  0  0  0  0  0  0
    3.5821   -0.3239   -1.2075 C   0  0  0  0  0  0  0  0  0  0  0  0
   -0.7320   -1.2822    0.3987 N   0  0  0  0  0  0  0  0  0  0  0  0
   -1.7205   -1.5923    1.4282 C   0  0  0  0  0  0  0  0  0  0  0  0
   -2.5822   -0.3646    1.7224 C   0  0  0  0  0  0  0  0  0  0  0  0
   -3.1181    0.2321    0.4470 C   0  0  0  0  0  0  0  0  0  0  0  0
   -4.2076    1.0953    0.4704 C   0  0  0  0  0  0  0  0  0  0  0  0
   -4.7299    1.6823   -0.6283 N   0  0  0  0  0  0  0  0  0  0  0  0
   -4.1317    1.4083   -1.8057 C   0  0  0  0  0  0  0  0  0  0  0  0
   -3.0327    0.5744   -1.9381 C   0  0  0  0  0  0  0  0  0  0  0  0
   -2.5013   -0.0216   -0.7904 C   0  0  0  0  0  0  0  0  0  0  0  0
   -1.3139   -0.9547   -0.9044 C   0  0  0  0  0  0  0  0  0  0  0  0
    1.2485   -1.2683   -1.0151 H   0  0  0  0  0  0  0  0  0  0  0  0
    2.5128    0.8465    1.8092 H   0  0  0  0  0  0  0  0  0  0  0  0
    4.7644    1.7975    1.8157 H   0  0  0  0  0  0  0  0  0  0  0  0
    3.2844   -0.9082   -2.0722 H   0  0  0  0  0  0  0  0  0  0  0  0
   -2.3374   -2.4194    1.0545 H   0  0  0  0  0  0  0  0  0  0  0  0
   -1.2323   -1.9414    2.3446 H   0  0  0  0  0  0  0  0  0  0  0  0
   -3.4066   -0.6539    2.3840 H   0  0  0  0  0  0  0  0  0  0  0  0
   -1.9853    0.3996    2.2347 H   0  0  0  0  0  0  0  0  0  0  0  0
   -4.7087    1.3473    1.4015 H   0  0  0  0  0  0  0  0  0  0  0  0
   -4.5734    1.8940   -2.6714 H   0  0  0  0  0  0  0  0  0  0  0  0
   -2.6033    0.4003   -2.9190 H   0  0  0  0  0  0  0  0  0  0  0  0
   -1.6477   -1.8979   -1.3522 H   0  0  0  0  0  0  0  0  0  0  0  0
   -0.5737   -0.4964   -1.5659 H   0  0  0  0  0  0  0  0  0  0  0  0
  1  2  2  0
  2  3  1  0
  3  4  1  0
  4  5  1  0
  5  6  2  0
  6  7  1  0
  7  8  1  0
  7  9  2  0
  9 10  1  0
  9 11  1  0
  2 12  1  0
 12 13  1  0
 13 14  1  0
 14 15  1  0
 15 16  2  0
 16 17  1  0
 17 18  2  0
 18 19  1  0
 19 20  2  0
 20 21  1  0
 11  4  2  0
 21 12  1  0
 20 15  1  0
  3 22  1  0
  5 23  1  0
  6 24  1  0
 11 25  1  0
 13 26  1  0
 13 27  1  0
 14 28  1  0
 14 29  1  0
 16 30  1  0
 18 31  1  0
 19 32  1  0
 21 33  1  0
 21 34  1  0
M  END
$$$$
OCNT-2310041
     RDKit          3D

 45 48  0  0  0  0  0  0  0  0999 V2000
    2.7114   -2.0132   -1.7502 O   0  0  0  0  0  0  0  0  0  0  0  0
    2.5489   -1.4767   -0.6583 C   0  0  0  0  0  0  0  0  0  0  0  0
    1.1902   -1.5333    0.0590 C   0  0  0  0  0  0  0  0  0  0  0  0
    0.9953   -0.3513    0.9371 N   0  0  0  0  0  0  0  0  0  0  0  0
   -0.1153   -0.5819    1.8908 C   0  0  0  0  0  0  0  0  0  0  0  0
   -1.5276   -0.6298    1.2690 C   0  0  0  0  0  0  0  0  0  0  0  0
   -1.7956    0.5633    0.4435 N   0  0  0  0  0  0  0  0  0  0  0  0
   -3.1066    0.7350    0.0712 C   0  0  0  0  0  0  0  0  0  0  0  0
   -4.0885    0.0002    0.5500 N   0  0  0  0  0  0  0  0  0  0  0  0
   -5.3105    0.3860    0.0305 C   0  0  0  0  0  0  0  0  0  0  0  0
   -6.5585   -0.1978    0.3297 C   0  0  0  0  0  0  0  0  0  0  0  0
   -7.7201    0.2961   -0.2731 C   0  0  0  0  0  0  0  0  0  0  0  0
   -7.6513    1.3607   -1.1660 C   0  0  0  0  0  0  0  0  0  0  0  0
   -6.4249    1.9563   -1.4775 C   0  0  0  0  0  0  0  0  0  0  0  0
   -5.2659    1.4502   -0.8653 C   0  0  0  0  0  0  0  0  0  0  0  0
   -3.6368    1.9588   -1.0361 S   0  0  0  0  0  0  0  0  0  0  0  0
   -0.7277    0.9061   -0.5103 C   0  0  0  0  0  0  0  0  0  0  0  0
    0.6700    0.8691    0.1555 C   0  0  0  0  0  0  0  0  0  0  0  0
    3.5107   -0.8219    0.0857 N   0  0  0  0  0  0  0  0  0  0  0  0
    4.8649   -0.6063   -0.2239 C   0  0  0  0  0  0  0  0  0  0  0  0
    5.4968   -1.1085   -1.3634 C   0  0  0  0  0  0  0  0  0  0  0  0
    6.8525   -0.8423   -1.5865 C   0  0  0  0  0  0  0  0  0  0  0  0
    7.5702   -0.0779   -0.6717 C   0  0  0  0  0  0  0  0  0  0  0  0
    8.8669    0.1710   -0.8947 F   0  0  0  0  0  0  0  0  0  0  0  0
    6.9634    0.4291    0.4668 C   0  0  0  0  0  0  0  0  0  0  0  0
    5.6169    0.1596    0.6800 C   0  0  0  0  0  0  0  0  0  0  0  0
    5.0265    0.6506    1.7816 F   0  0  0  0  0  0  0  0  0  0  0  0
    1.2140   -2.4494    0.6622 H   0  0  0  0  0  0  0  0  0  0  0  0
    0.3979   -1.6381   -0.6888 H   0  0  0  0  0  0  0  0  0  0  0  0
    0.0667   -1.5028    2.4584 H   0  0  0  0  0  0  0  0  0  0  0  0
   -0.0895    0.2278    2.6326 H   0  0  0  0  0  0  0  0  0  0  0  0
   -2.2451   -0.6956    2.0969 H   0  0  0  0  0  0  0  0  0  0  0  0
   -1.6386   -1.5354    0.6593 H   0  0  0  0  0  0  0  0  0  0  0  0
   -6.6063   -1.0276    1.0276 H   0  0  0  0  0  0  0  0  0  0  0  0
   -8.6809   -0.1566   -0.0397 H   0  0  0  0  0  0  0  0  0  0  0  0
   -8.5619    1.7366   -1.6280 H   0  0  0  0  0  0  0  0  0  0  0  0
   -6.3717    2.7881   -2.1732 H   0  0  0  0  0  0  0  0  0  0  0  0
   -0.7567    0.2145   -1.3611 H   0  0  0  0  0  0  0  0  0  0  0  0
   -0.8598    1.9205   -0.9036 H   0  0  0  0  0  0  0  0  0  0  0  0
    0.7421    1.7225    0.8435 H   0  0  0  0  0  0  0  0  0  0  0  0
    1.4358    1.0501   -0.6080 H   0  0  0  0  0  0  0  0  0  0  0  0
    3.1565   -0.3883    0.9397 H   0  0  0  0  0  0  0  0  0  0  0  0
    4.9649   -1.7109   -2.0936 H   0  0  0  0  0  0  0  0  0  0  0  0
    7.3502   -1.2299   -2.4706 H   0  0  0  0  0  0  0  0  0  0  0  0
    7.5271    1.0229    1.1757 H   0  0  0  0  0  0  0  0  0  0  0  0
  1  2  2  0
  2  3  1  0
  3  4  1  0
  4  5  1  0
  5  6  1  0
  6  7  1  0
  7  8  1  0
  8  9  2  0
  9 10  1  0
 10 11  2  0
 11 12  1  0
 12 13  2  0
 13 14  1  0
 14 15  2  0
 15 16  1  0
  7 17  1  0
 17 18  1  0
  2 19  1  0
 19 20  1  0
 20 21  1  0
 21 22  2  0
 22 23  1  0
 23 24  1  0
 23 25  2  0
 25 26  1  0
 26 27  1  0
 18  4  1  0
 26 20  2  0
 16  8  1  0
 15 10  1  0
  3 28  1  0
  3 29  1  0
  5 30  1  0
  5 31  1  0
  6 32  1  0
  6 33  1  0
 11 34  1  0
 12 35  1  0
 13 36  1  0
 14 37  1  0
 17 38  1  0
 17 39  1  0
 18 40  1  0
 18 41  1  0
 19 42  1  0
 21 43  1  0
 22 44  1  0
 25 45  1  0
M  END
$$$$
OCNT-2310050
     RDKit          3D

 42 43  0  0  0  0  0  0  0  0999 V2000
   -5.4588   -0.2889   -0.7337 C   0  0  0  0  0  0  0  0  0  0  0  0
   -4.3406    0.7248   -0.5305 C   0  0  0  0  0  0  0  0  0  0  0  0
   -2.9378    0.1476   -0.8150 C   0  0  1  0  0  0  0  0  0  0  0  0
   -1.8832    1.2750   -0.6949 C   0  0  0  0  0  0  0  0  0  0  0  0
   -1.9391    2.1633    0.1529 O   0  0  0  0  0  0  0  0  0  0  0  0
   -0.8577    1.1847   -1.6163 N   0  0  0  0  0  0  0  0  0  0  0  0
    0.3012    2.0441   -1.5464 C   0  0  0  0  0  0  0  0  0  0  0  0
    1.4295    1.3534   -0.8242 C   0  0  0  0  0  0  0  0  0  0  0  0
    1.4681    1.3400    0.5755 C   0  0  0  0  0  0  0  0  0  0  0  0
    2.4941    0.6745    1.2544 C   0  0  0  0  0  0  0  0  0  0  0  0
    3.5042    0.0030    0.5520 C   0  0  0  0  0  0  0  0  0  0  0  0
    4.5695   -0.6872    1.2668 C   0  0  0  0  0  0  0  0  0  0  0  0
    4.9001   -0.8952    2.5900 C   0  0  0  0  0  0  0  0  0  0  0  0
    6.0481   -1.6422    2.6873 N   0  0  0  0  0  0  0  0  0  0  0  0
    6.3729   -1.8587    1.4340 C   0  0  0  0  0  0  0  0  0  0  0  0
    5.5302   -1.3167    0.5142 O   0  0  0  0  0  0  0  0  0  0  0  0
    3.4559    0.0147   -0.8498 C   0  0  0  0  0  0  0  0  0  0  0  0
    2.4299    0.6782   -1.5318 C   0  0  0  0  0  0  0  0  0  0  0  0
   -2.6123   -1.0313    0.0339 N   0  0  0  0  0  0  0  0  0  0  0  0
   -1.4521   -1.7805   -0.4413 C   0  0  0  0  0  0  0  0  0  0  0  0
   -2.4620   -0.7153    1.4556 C   0  0  0  0  0  0  0  0  0  0  0  0
   -5.4300   -0.7074   -1.7447 H   0  0  0  0  0  0  0  0  0  0  0  0
   -6.4319    0.1930   -0.5954 H   0  0  0  0  0  0  0  0  0  0  0  0
   -5.3898   -1.1118   -0.0159 H   0  0  0  0  0  0  0  0  0  0  0  0
   -4.5154    1.5715   -1.2072 H   0  0  0  0  0  0  0  0  0  0  0  0
   -4.4060    1.1392    0.4822 H   0  0  0  0  0  0  0  0  0  0  0  0
   -2.9547   -0.1821   -1.8632 H   0  0  0  0  0  0  0  0  0  0  0  0
   -0.7757    0.3365   -2.1587 H   0  0  0  0  0  0  0  0  0  0  0  0
    0.5941    2.2795   -2.5756 H   0  0  0  0  0  0  0  0  0  0  0  0
    0.0562    2.9916   -1.0535 H   0  0  0  0  0  0  0  0  0  0  0  0
    0.6901    1.8466    1.1461 H   0  0  0  0  0  0  0  0  0  0  0  0
    2.4855    0.6916    2.3417 H   0  0  0  0  0  0  0  0  0  0  0  0
    4.3783   -0.5505    3.4716 H   0  0  0  0  0  0  0  0  0  0  0  0
    7.2194   -2.4096    1.0492 H   0  0  0  0  0  0  0  0  0  0  0  0
    4.2214   -0.4962   -1.4306 H   0  0  0  0  0  0  0  0  0  0  0  0
    2.4234    0.6632   -2.6195 H   0  0  0  0  0  0  0  0  0  0  0  0
   -0.5118   -1.2366   -0.3073 H   0  0  0  0  0  0  0  0  0  0  0  0
   -1.5593   -2.0370   -1.5009 H   0  0  0  0  0  0  0  0  0  0  0  0
   -1.3683   -2.7306    0.0986 H   0  0  0  0  0  0  0  0  0  0  0  0
   -2.3341   -1.6381    2.0336 H   0  0  0  0  0  0  0  0  0  0  0  0
   -1.5958   -0.0761    1.6566 H   0  0  0  0  0  0  0  0  0  0  0  0
   -3.3557   -0.2323    1.8605 H   0  0  0  0  0  0  0  0  0  0  0  0
  1  2  1  0
  2  3  1  0
  3  4  1  0
  4  5  2  0
  4  6  1  0
  6  7  1  0
  7  8  1  0
  8  9  1  0
  9 10  2  0
 10 11  1  0
 11 12  1  0
 12 13  2  0
 13 14  1  0
 14 15  2  0
 15 16  1  0
 11 17  2  0
 17 18  1  0
  3 19  1  0
 19 20  1  0
 19 21  1  0
 18  8  2  0
 16 12  1  0
  1 22  1  0
  1 23  1  0
  1 24  1  0
  2 25  1  0
  2 26  1  0
  3 27  1  6
  6 28  1  0
  7 29  1  0
  7 30  1  0
  9 31  1  0
 10 32  1  0
 13 33  1  0
 15 34  1  0
 17 35  1  0
 18 36  1  0
 20 37  1  0
 20 38  1  0
 20 39  1  0
 21 40  1  0
 21 41  1  0
 21 42  1  0
M  END
$$$$
OCNT-2310061
     RDKit          3D

 46 49  0  0  0  0  0  0  0  0999 V2000
   -0.1548    1.9391   -1.5563 O   0  0  0  0  0  0  0  0  0  0  0  0
   -0.1839    1.4627   -0.4304 C   0  0  0  0  0  0  0  0  0  0  0  0
    0.8387    1.5558    0.4767 N   0  0  0  0  0  0  0  0  0  0  0  0
    2.0980    2.1647    0.1130 C   0  0  0  0  0  0  0  0  0  0  0  0
    3.0654    1.1394   -0.4177 C   0  0  0  0  0  0  0  0  0  0  0  0
    3.0306    0.7584   -1.7618 C   0  0  0  0  0  0  0  0  0  0  0  0
    3.9179   -0.2072   -2.2056 C   0  0  0  0  0  0  0  0  0  0  0  0
    4.8253   -0.8157   -1.4113 N   0  0  0  0  0  0  0  0  0  0  0  0
    4.8463   -0.4467   -0.1023 C   0  0  0  0  0  0  0  0  0  0  0  0
    5.7852   -1.0816    0.7521 N   0  0  0  0  0  0  0  0  0  0  0  0
    6.6989   -2.0426    0.3991 C   0  0  0  0  0  0  0  0  0  0  0  0
    7.4064   -2.4084    1.4445 N   0  0  0  0  0  0  0  0  0  0  0  0
    6.8885   -1.6353    2.4399 C   0  0  0  0  0  0  0  0  0  0  0  0
    5.9010   -0.8120    2.0812 N   0  0  0  0  0  0  0  0  0  0  0  0
    3.9886    0.5161    0.4291 C   0  0  0  0  0  0  0  0  0  0  0  0
   -1.2399    0.7620    0.0852 N   0  0  0  0  0  0  0  0  0  0  0  0
   -2.4793    0.6027   -0.6645 C   0  0  2  0  0  0  0  0  0  0  0  0
   -3.2810    1.9155   -0.6258 C   0  0  0  0  0  0  0  0  0  0  0  0
   -4.7006    1.7056   -1.1316 C   0  0  0  0  0  0  0  0  0  0  0  0
   -5.4423    0.7371   -0.2169 C   0  0  0  0  0  0  0  0  0  0  0  0
   -4.6628   -0.5272    0.0471 C   0  0  0  0  0  0  0  0  0  0  0  0
   -5.3500   -1.6541    0.5269 C   0  0  0  0  0  0  0  0  0  0  0  0
   -4.6736   -2.8453    0.7842 C   0  0  0  0  0  0  0  0  0  0  0  0
   -3.3030   -2.9252    0.5647 C   0  0  0  0  0  0  0  0  0  0  0  0
   -2.6069   -1.8088    0.1013 C   0  0  0  0  0  0  0  0  0  0  0  0
   -3.2676   -0.5893   -0.1399 C   0  0  0  0  0  0  0  0  0  0  0  0
    0.8763    0.8156    1.1608 H   0  0  0  0  0  0  0  0  0  0  0  0
    2.5029    2.6347    1.0161 H   0  0  0  0  0  0  0  0  0  0  0  0
    1.9419    2.9612   -0.6237 H   0  0  0  0  0  0  0  0  0  0  0  0
    2.3162    1.2010   -2.4515 H   0  0  0  0  0  0  0  0  0  0  0  0
    3.9173   -0.5273   -3.2442 H   0  0  0  0  0  0  0  0  0  0  0  0
    6.7899   -2.4177   -0.6108 H   0  0  0  0  0  0  0  0  0  0  0  0
    7.2433   -1.6743    3.4624 H   0  0  0  0  0  0  0  0  0  0  0  0
    4.0330    0.7822    1.4821 H   0  0  0  0  0  0  0  0  0  0  0  0
   -1.3296    0.7695    1.0897 H   0  0  0  0  0  0  0  0  0  0  0  0
   -2.2223    0.3872   -1.7105 H   0  0  0  0  0  0  0  0  0  0  0  0
   -2.7811    2.6792   -1.2333 H   0  0  0  0  0  0  0  0  0  0  0  0
   -3.3163    2.3108    0.3987 H   0  0  0  0  0  0  0  0  0  0  0  0
   -5.2345    2.6620   -1.1644 H   0  0  0  0  0  0  0  0  0  0  0  0
   -4.6746    1.3146   -2.1566 H   0  0  0  0  0  0  0  0  0  0  0  0
   -5.6455    1.2221    0.7460 H   0  0  0  0  0  0  0  0  0  0  0  0
   -6.4079    0.4923   -0.6754 H   0  0  0  0  0  0  0  0  0  0  0  0
   -6.4241   -1.6092    0.6949 H   0  0  0  0  0  0  0  0  0  0  0  0
   -5.2186   -3.7126    1.1471 H   0  0  0  0  0  0  0  0  0  0  0  0
   -2.7748   -3.8568    0.7496 H   0  0  0  0  0  0  0  0  0  0  0  0
   -1.5366   -1.8943   -0.0782 H   0  0  0  0  0  0  0  0  0  0  0  0
  1  2  2  0
  2  3  1  0
  3  4  1  0
  4  5  1  0
  5  6  2  0
  6  7  1  0
  7  8  2  0
  8  9  1  0
  9 10  1  0
 10 11  1  0
 11 12  2  0
 12 13  1  0
 13 14  2  0
  9 15  2  0
  2 16  1  0
 16 17  1  0
 17 18  1  0
 18 19  1  0
 19 20  1  0
 20 21  1  0
 21 22  2  0
 22 23  1  0
 23 24  2  0
 24 25  1  0
 25 26  2  0
 15  5  1  0
 26 17  1  0
 14 10  1  0
 26 21  1  0
  3 27  1  0
  4 28  1  0
  4 29  1  0
  6 30  1  0
  7 31  1  0
 11 32  1  0
 13 33  1  0
 15 34  1  0
 16 35  1  0
 17 36  1  6
 18 37  1  0
 18 38  1  0
 19 39  1  0
 19 40  1  0
 20 41  1  0
 20 42  1  0
 22 43  1  0
 23 44  1  0
 24 45  1  0
 25 46  1  0
M  END
$$$$
OCNT-2310066
     RDKit          3D

 37 38  0  0  0  0  0  0  0  0999 V2000
   -6.3916   -1.3939   -1.3921 N   0  0  0  0  0  0  0  0  0  0  0  0
   -5.4453   -1.0428   -0.8217 C   0  0  0  0  0  0  0  0  0  0  0  0
   -4.2652   -0.6070   -0.1268 C   0  0  0  0  0  0  0  0  0  0  0  0
   -3.0544   -1.2631   -0.3897 C   0  0  0  0  0  0  0  0  0  0  0  0
   -1.8864   -0.8554    0.2613 C   0  0  0  0  0  0  0  0  0  0  0  0
   -0.3684   -1.7136   -0.0641 S   0  0  0  0  0  0  0  0  0  0  0  0
   -0.6971   -3.1040   -0.2796 O   0  0  0  0  0  0  0  0  0  0  0  0
    0.6191   -1.3126    0.9130 O   0  0  0  0  0  0  0  0  0  0  0  0
    0.0796   -1.1035   -1.5473 N   0  0  0  0  0  0  0  0  0  0  0  0
    0.5885    0.2653   -1.7205 C   0  0  0  0  0  0  0  0  0  0  0  0
    2.1127    0.3519   -1.5341 C   0  0  0  0  0  0  0  0  0  0  0  0
    2.4553    0.4112   -0.1143 N   0  0  0  0  0  0  0  0  0  0  0  0
    3.8357    0.4113    0.1495 C   0  0  0  0  0  0  0  0  0  0  0  0
    4.2850    0.3367    1.4735 C   0  0  0  0  0  0  0  0  0  0  0  0
    5.5933    0.3687    1.8361 N   0  0  0  0  0  0  0  0  0  0  0  0
    6.4586    0.4971    0.8110 C   0  0  0  0  0  0  0  0  0  0  0  0
    6.0348    0.5897   -0.5025 C   0  0  0  0  0  0  0  0  0  0  0  0
    4.7274    0.5542   -0.8561 N   0  0  0  0  0  0  0  0  0  0  0  0
   -1.9135    0.1869    1.1883 C   0  0  0  0  0  0  0  0  0  0  0  0
   -3.1186    0.8406    1.4511 C   0  0  0  0  0  0  0  0  0  0  0  0
   -4.3060    0.4552    0.7982 C   0  0  0  0  0  0  0  0  0  0  0  0
   -5.6019    1.1760    1.0938 C   0  0  0  0  0  0  0  0  0  0  0  0
   -5.4634    2.1730    2.0115 F   0  0  0  0  0  0  0  0  0  0  0  0
   -6.5572    0.3466    1.5893 F   0  0  0  0  0  0  0  0  0  0  0  0
   -6.1307    1.7633   -0.0120 F   0  0  0  0  0  0  0  0  0  0  0  0
   -3.0204   -2.0913   -1.0980 H   0  0  0  0  0  0  0  0  0  0  0  0
    0.2622   -1.8024   -2.2668 H   0  0  0  0  0  0  0  0  0  0  0  0
    0.0684    0.9598   -1.0529 H   0  0  0  0  0  0  0  0  0  0  0  0
    0.3410    0.5642   -2.7457 H   0  0  0  0  0  0  0  0  0  0  0  0
    2.5897   -0.5095   -2.0187 H   0  0  0  0  0  0  0  0  0  0  0  0
    2.4610    1.2681   -2.0267 H   0  0  0  0  0  0  0  0  0  0  0  0
    2.0135   -0.3475    0.4204 H   0  0  0  0  0  0  0  0  0  0  0  0
    3.5802    0.2497    2.2938 H   0  0  0  0  0  0  0  0  0  0  0  0
    7.5097    0.5269    1.0731 H   0  0  0  0  0  0  0  0  0  0  0  0
    6.7417    0.6981   -1.3169 H   0  0  0  0  0  0  0  0  0  0  0  0
   -1.0081    0.4962    1.7087 H   0  0  0  0  0  0  0  0  0  0  0  0
   -3.1290    1.6560    2.1757 H   0  0  0  0  0  0  0  0  0  0  0  0
  1  2  3  0
  2  3  1  0
  3  4  1  0
  4  5  2  0
  5  6  1  0
  6  7  2  0
  6  8  2  0
  6  9  1  0
  9 10  1  0
 10 11  1  0
 11 12  1  0
 12 13  1  0
 13 14  2  0
 14 15  1  0
 15 16  2  0
 16 17  1  0
 17 18  2  0
  5 19  1  0
 19 20  2  0
 20 21  1  0
 21 22  1  0
 22 23  1  0
 22 24  1  0
 22 25  1  0
 21  3  2  0
 18 13  1  0
  4 26  1  0
  9 27  1  0
 10 28  1  0
 10 29  1  0
 11 30  1  0
 11 31  1  0
 12 32  1  0
 14 33  1  0
 16 34  1  0
 17 35  1  0
 19 36  1  0
 20 37  1  0
M  END
$$$$
OCNT-2310067
     RDKit          3D

 49 52  0  0  0  0  0  0  0  0999 V2000
    6.9797   -1.3205    1.2221 C   0  0  0  0  0  0  0  0  0  0  0  0
    5.6827   -0.8811    0.6626 C   0  0  0  0  0  0  0  0  0  0  0  0
    4.5683   -1.5743    0.9220 N   0  0  0  0  0  0  0  0  0  0  0  0
    3.5515   -0.9133    0.2618 O   0  0  0  0  0  0  0  0  0  0  0  0
    4.0556    0.1700   -0.3861 C   0  0  0  0  0  0  0  0  0  0  0  0
    3.1060    1.0219   -1.1638 C   0  0  0  0  0  0  0  0  0  0  0  0
    2.0498    1.6887   -0.2710 C   0  0  0  0  0  0  0  0  0  0  0  0
    0.8756    0.7698    0.0583 C   0  0  0  0  0  0  0  0  0  0  0  0
    0.2908    0.2662   -1.2186 N   0  0  0  0  0  0  0  0  0  0  0  0
   -1.2494   -0.4953   -1.0345 S   0  0  0  0  0  0  0  0  0  0  0  0
   -1.1118   -1.3730    0.1070 O   0  0  0  0  0  0  0  0  0  0  0  0
   -1.6608   -0.9819   -2.3347 O   0  0  0  0  0  0  0  0  0  0  0  0
   -2.3432    0.8570   -0.6370 C   0  0  0  0  0  0  0  0  0  0  0  0
   -2.0410    2.1222   -1.1738 C   0  0  0  0  0  0  0  0  0  0  0  0
   -2.8316    3.2266   -0.8641 C   0  0  0  0  0  0  0  0  0  0  0  0
   -3.9307    3.0733   -0.0273 C   0  0  0  0  0  0  0  0  0  0  0  0
   -4.2485    1.8125    0.4843 C   0  0  0  0  0  0  0  0  0  0  0  0
   -3.4712    0.6747    0.1843 C   0  0  0  0  0  0  0  0  0  0  0  0
   -3.9223   -0.6254    0.6991 C   0  0  0  0  0  0  0  0  0  0  0  0
   -3.8469   -0.9227    2.0691 C   0  0  0  0  0  0  0  0  0  0  0  0
   -4.2950   -2.1513    2.5600 C   0  0  0  0  0  0  0  0  0  0  0  0
   -4.8292   -3.0977    1.6885 C   0  0  0  0  0  0  0  0  0  0  0  0
   -4.9165   -2.8172    0.3269 C   0  0  0  0  0  0  0  0  0  0  0  0
   -4.4690   -1.5887   -0.1643 C   0  0  0  0  0  0  0  0  0  0  0  0
    1.2748   -0.5911   -1.9365 C   0  0  0  0  0  0  0  0  0  0  0  0
    2.4722    0.2672   -2.3403 C   0  0  0  0  0  0  0  0  0  0  0  0
    5.4104    0.2331   -0.1614 C   0  0  0  0  0  0  0  0  0  0  0  0
    6.9433   -1.3311    2.3162 H   0  0  0  0  0  0  0  0  0  0  0  0
    7.7886   -0.6488    0.9175 H   0  0  0  0  0  0  0  0  0  0  0  0
    7.2279   -2.3281    0.8736 H   0  0  0  0  0  0  0  0  0  0  0  0
    3.7150    1.8301   -1.5944 H   0  0  0  0  0  0  0  0  0  0  0  0
    2.4999    2.0596    0.6578 H   0  0  0  0  0  0  0  0  0  0  0  0
    1.6576    2.5662   -0.8029 H   0  0  0  0  0  0  0  0  0  0  0  0
    0.1339    1.3485    0.6174 H   0  0  0  0  0  0  0  0  0  0  0  0
    1.1914   -0.0642    0.6933 H   0  0  0  0  0  0  0  0  0  0  0  0
   -1.1915    2.2517   -1.8409 H   0  0  0  0  0  0  0  0  0  0  0  0
   -2.5935    4.2026   -1.2794 H   0  0  0  0  0  0  0  0  0  0  0  0
   -4.5557    3.9293    0.2156 H   0  0  0  0  0  0  0  0  0  0  0  0
   -5.1337    1.7115    1.1120 H   0  0  0  0  0  0  0  0  0  0  0  0
   -3.4224   -0.2002    2.7625 H   0  0  0  0  0  0  0  0  0  0  0  0
   -4.2179   -2.3719    3.6211 H   0  0  0  0  0  0  0  0  0  0  0  0
   -5.1702   -4.0567    2.0689 H   0  0  0  0  0  0  0  0  0  0  0  0
   -5.3265   -3.5562   -0.3563 H   0  0  0  0  0  0  0  0  0  0  0  0
   -4.5457   -1.3895   -1.2318 H   0  0  0  0  0  0  0  0  0  0  0  0
    0.8281   -0.9935   -2.8517 H   0  0  0  0  0  0  0  0  0  0  0  0
    1.5779   -1.4365   -1.3103 H   0  0  0  0  0  0  0  0  0  0  0  0
    2.1259    1.0095   -3.0725 H   0  0  0  0  0  0  0  0  0  0  0  0
    3.2156   -0.3550   -2.8533 H   0  0  0  0  0  0  0  0  0  0  0  0
    6.1016    0.9728   -0.5366 H   0  0  0  0  0  0  0  0  0  0  0  0
  1  2  1  0
  2  3  2  0
  3  4  1  0
  4  5  1  0
  5  6  1  0
  6  7  1  0
  7  8  1  0
  8  9  1  0
  9 10  1  0
 10 11  2  0
 10 12  2  0
 10 13  1  0
 13 14  2  0
 14 15  1  0
 15 16  2  0
 16 17  1  0
 17 18  2  0
 18 19  1  0
 19 20  2  0
 20 21  1  0
 21 22  2  0
 22 23  1  0
 23 24  2  0
  9 25  1  0
 25 26  1  0
  5 27  2  0
 27  2  1  0
 26  6  1  0
 18 13  1  0
 24 19  1  0
  1 28  1  0
  1 29  1  0
  1 30  1  0
  6 31  1  0
  7 32  1  0
  7 33  1  0
  8 34  1  0
  8 35  1  0
 14 36  1  0
 15 37  1  0
 16 38  1  0
 17 39  1  0
 20 40  1  0
 21 41  1  0
 22 42  1  0
 23 43  1  0
 24 44  1  0
 25 45  1  0
 25 46  1  0
 26 47  1  0
 26 48  1  0
 27 49  1  0
M  END
$$$$
OCNT-2310076
     RDKit          3D

 46 48  0  0  0  0  0  0  0  0999 V2000
   -5.9458    0.2603   -1.6532 C   0  0  0  0  0  0  0  0  0  0  0  0
   -4.7240   -0.2148   -0.9970 N   0  0  0  0  0  0  0  0  0  0  0  0
   -5.0082   -0.6929    0.3601 C   0  0  0  0  0  0  0  0  0  0  0  0
   -4.9708    0.3385    1.4946 C   0  0  0  0  0  0  0  0  0  0  0  0
   -3.6121    0.9933    1.7839 C   0  0  0  0  0  0  0  0  0  0  0  0
   -2.4163    0.3072    1.1282 C   0  0  0  0  0  0  0  0  0  0  0  0
   -2.3350    0.4922   -0.4038 C   0  0  0  0  0  0  0  0  0  0  0  0
   -1.6384   -0.7033   -1.0779 C   0  0  0  0  0  0  0  0  0  0  0  0
   -0.2813   -0.8930   -0.6068 N   0  0  0  0  0  0  0  0  0  0  0  0
    0.7776   -0.1421   -1.0660 C   0  0  0  0  0  0  0  0  0  0  0  0
    0.6773    0.7171   -1.9355 O   0  0  0  0  0  0  0  0  0  0  0  0
    2.0385   -0.4560   -0.4114 C   0  0  0  0  0  0  0  0  0  0  0  0
    3.2727    0.1093   -0.6520 C   0  0  0  0  0  0  0  0  0  0  0  0
    4.1346   -0.5167    0.2145 N   0  0  0  0  0  0  0  0  0  0  0  0
    5.5274   -0.3392    0.4075 C   0  0  0  0  0  0  0  0  0  0  0  0
    6.1922   -1.1182    1.3733 C   0  0  0  0  0  0  0  0  0  0  0  0
    7.5651   -0.9664    1.5866 C   0  0  0  0  0  0  0  0  0  0  0  0
    8.2883   -0.0380    0.8408 C   0  0  0  0  0  0  0  0  0  0  0  0
    7.6354    0.7368   -0.1172 C   0  0  0  0  0  0  0  0  0  0  0  0
    8.5462    1.8805   -1.0299 Cl  0  0  0  0  0  0  0  0  0  0  0  0
    6.2622    0.5890   -0.3349 C   0  0  0  0  0  0  0  0  0  0  0  0
    5.6756    1.3554   -1.2658 F   0  0  0  0  0  0  0  0  0  0  0  0
    3.4390   -1.4245    0.9517 N   0  0  0  0  0  0  0  0  0  0  0  0
    2.1681   -1.3942    0.5783 N   0  0  0  0  0  0  0  0  0  0  0  0
   -3.6764    0.8071   -1.0977 C   0  0  0  0  0  0  0  0  0  0  0  0
   -6.3826    1.1234   -1.1386 H   0  0  0  0  0  0  0  0  0  0  0  0
   -6.6980   -0.5355   -1.6945 H   0  0  0  0  0  0  0  0  0  0  0  0
   -5.7423    0.5447   -2.6918 H   0  0  0  0  0  0  0  0  0  0  0  0
   -4.3088   -1.5061    0.5873 H   0  0  0  0  0  0  0  0  0  0  0  0
   -5.9885   -1.1885    0.3797 H   0  0  0  0  0  0  0  0  0  0  0  0
   -5.7180    1.1218    1.3173 H   0  0  0  0  0  0  0  0  0  0  0  0
   -5.2966   -0.1729    2.4102 H   0  0  0  0  0  0  0  0  0  0  0  0
   -3.4610    1.0008    2.8709 H   0  0  0  0  0  0  0  0  0  0  0  0
   -3.6396    2.0498    1.4901 H   0  0  0  0  0  0  0  0  0  0  0  0
   -2.4098   -0.7547    1.4023 H   0  0  0  0  0  0  0  0  0  0  0  0
   -1.4981    0.7202    1.5672 H   0  0  0  0  0  0  0  0  0  0  0  0
   -1.7062    1.3789   -0.5707 H   0  0  0  0  0  0  0  0  0  0  0  0
   -1.6003   -0.5551   -2.1634 H   0  0  0  0  0  0  0  0  0  0  0  0
   -2.1776   -1.6369   -0.8858 H   0  0  0  0  0  0  0  0  0  0  0  0
   -0.1021   -1.5444    0.1500 H   0  0  0  0  0  0  0  0  0  0  0  0
    3.5668    0.8759   -1.3512 H   0  0  0  0  0  0  0  0  0  0  0  0
    5.6561   -1.8536    1.9733 H   0  0  0  0  0  0  0  0  0  0  0  0
    8.0685   -1.5744    2.3358 H   0  0  0  0  0  0  0  0  0  0  0  0
    9.3563    0.0769    1.0099 H   0  0  0  0  0  0  0  0  0  0  0  0
   -4.0490    1.7746   -0.7357 H   0  0  0  0  0  0  0  0  0  0  0  0
   -3.4611    0.9675   -2.1634 H   0  0  0  0  0  0  0  0  0  0  0  0
  1  2  1  0
  2  3  1  0
  3  4  1  0
  4  5  1  0
  5  6  1  0
  6  7  1  0
  7  8  1  0
  8  9  1  0
  9 10  1  0
 10 11  2  0
 10 12  1  0
 12 13  2  0
 13 14  1  0
 14 15  1  0
 15 16  2  0
 16 17  1  0
 17 18  2  0
 18 19  1  0
 19 20  1  0
 19 21  2  0
 21 22  1  0
 14 23  1  0
 23 24  2  0
  7 25  1  0
 25  2  1  0
 24 12  1  0
 21 15  1  0
  1 26  1  0
  1 27  1  0
  1 28  1  0
  3 29  1  0
  3 30  1  0
  4 31  1  0
  4 32  1  0
  5 33  1  0
  5 34  1  0
  6 35  1  0
  6 36  1  0
  7 37  1  0
  8 38  1  0
  8 39  1  0
  9 40  1  0
 13 41  1  0
 16 42  1  0
 17 43  1  0
 18 44  1  0
 25 45  1  0
 25 46  1  0
M  END
$$$$
OCNT-2310088
     RDKit          3D

 42 44  0  0  0  0  0  0  0  0999 V2000
    7.5708    0.8674   -1.4066 C   0  0  0  0  0  0  0  0  0  0  0  0
    7.6805    0.5207    0.0140 N   0  0  0  0  0  0  0  0  0  0  0  0
    6.4324   -0.4101    0.6574 S   0  0  0  0  0  0  0  0  0  0  0  0
    6.0630   -1.4154   -0.3128 O   0  0  0  0  0  0  0  0  0  0  0  0
    6.7952   -0.7403    2.0150 O   0  0  0  0  0  0  0  0  0  0  0  0
    5.0283    0.5861    0.8239 C   0  0  0  0  0  0  0  0  0  0  0  0
    5.0695    1.8775    1.2963 C   0  0  0  0  0  0  0  0  0  0  0  0
    3.5185    2.5922    1.3122 S   0  0  0  0  0  0  0  0  0  0  0  0
    2.7636    1.1625    0.7200 C   0  0  0  0  0  0  0  0  0  0  0  0
    1.3114    1.1630    0.5186 C   0  0  0  0  0  0  0  0  0  0  0  0
    0.6637    2.2010    0.4222 O   0  0  0  0  0  0  0  0  0  0  0  0
    0.7564   -0.1088    0.4604 N   0  0  0  0  0  0  0  0  0  0  0  0
   -0.5937   -0.4576    0.2425 C   0  0  0  0  0  0  0  0  0  0  0  0
   -0.9115   -1.8212    0.2813 C   0  0  0  0  0  0  0  0  0  0  0  0
   -2.2242   -2.2546    0.0723 C   0  0  0  0  0  0  0  0  0  0  0  0
   -3.2410   -1.3320   -0.1716 C   0  0  0  0  0  0  0  0  0  0  0  0
   -4.4924   -1.8742   -0.3739 O   0  0  0  0  0  0  0  0  0  0  0  0
   -5.5781   -1.0417   -0.2499 C   0  0  0  0  0  0  0  0  0  0  0  0
   -6.1686   -0.5658   -1.4245 C   0  0  0  0  0  0  0  0  0  0  0  0
   -7.2927    0.2571   -1.3530 C   0  0  0  0  0  0  0  0  0  0  0  0
   -7.8366    0.5889   -0.1115 C   0  0  0  0  0  0  0  0  0  0  0  0
   -7.2632    0.0905    1.0611 C   0  0  0  0  0  0  0  0  0  0  0  0
   -6.1377   -0.7339    0.9947 C   0  0  0  0  0  0  0  0  0  0  0  0
   -5.4872   -1.3591    2.4653 Cl  0  0  0  0  0  0  0  0  0  0  0  0
   -2.9304    0.0272   -0.2230 C   0  0  0  0  0  0  0  0  0  0  0  0
   -1.6132    0.4600   -0.0153 C   0  0  0  0  0  0  0  0  0  0  0  0
    3.7023    0.1687    0.4942 C   0  0  0  0  0  0  0  0  0  0  0  0
    8.3523    1.5926   -1.6517 H   0  0  0  0  0  0  0  0  0  0  0  0
    7.7243   -0.0169   -2.0308 H   0  0  0  0  0  0  0  0  0  0  0  0
    6.6038    1.3246   -1.6312 H   0  0  0  0  0  0  0  0  0  0  0  0
    8.5798    0.1141    0.2755 H   0  0  0  0  0  0  0  0  0  0  0  0
    5.9352    2.4377    1.6253 H   0  0  0  0  0  0  0  0  0  0  0  0
    1.3751   -0.8843    0.6474 H   0  0  0  0  0  0  0  0  0  0  0  0
   -0.1474   -2.5693    0.4759 H   0  0  0  0  0  0  0  0  0  0  0  0
   -2.4551   -3.3164    0.1085 H   0  0  0  0  0  0  0  0  0  0  0  0
   -5.7477   -0.8319   -2.3905 H   0  0  0  0  0  0  0  0  0  0  0  0
   -7.7473    0.6364   -2.2652 H   0  0  0  0  0  0  0  0  0  0  0  0
   -8.7142    1.2290   -0.0563 H   0  0  0  0  0  0  0  0  0  0  0  0
   -7.7029    0.3428    2.0227 H   0  0  0  0  0  0  0  0  0  0  0  0
   -3.6892    0.7769   -0.4264 H   0  0  0  0  0  0  0  0  0  0  0  0
   -1.4251    1.5279   -0.0657 H   0  0  0  0  0  0  0  0  0  0  0  0
    3.4733   -0.8113    0.0916 H   0  0  0  0  0  0  0  0  0  0  0  0
  1  2  1  0
  2  3  1  0
  3  4  2  0
  3  5  2  0
  3  6  1  0
  6  7  2  0
  7  8  1  0
  8  9  1  0
  9 10  1  0
 10 11  2  0
 10 12  1  0
 12 13  1  0
 13 14  1  0
 14 15  2  0
 15 16  1  0
 16 17  1  0
 17 18  1  0
 18 19  2  0
 19 20  1  0
 20 21  2  0
 21 22  1  0
 22 23  2  0
 23 24  1  0
 16 25  2  0
 25 26  1  0
  9 27  2  0
 27  6  1  0
 26 13  2  0
 23 18  1  0
  1 28  1  0
  1 29  1  0
  1 30  1  0
  2 31  1  0
  7 32  1  0
 12 33  1  0
 14 34  1  0
 15 35  1  0
 19 36  1  0
 20 37  1  0
 21 38  1  0
 22 39  1  0
 25 40  1  0
 26 41  1  0
 27 42  1  0
M  END
$$$$
OCNT-2310095
     RDKit          3D

 38 40  0  0  0  0  0  0  0  0999 V2000
   -4.4508   -2.2911   -2.2525 N   0  0  0  0  0  0  0  0  0  0  0  0
   -4.5622   -1.4672   -1.4420 C   0  0  0  0  0  0  0  0  0  0  0  0
   -4.7433   -0.4587   -0.4344 C   0  0  0  0  0  0  0  0  0  0  0  0
   -6.0553   -0.1062   -0.0777 C   0  0  0  0  0  0  0  0  0  0  0  0
   -6.2879    0.8742    0.8864 C   0  0  0  0  0  0  0  0  0  0  0  0
   -5.2131    1.5096    1.4999 C   0  0  0  0  0  0  0  0  0  0  0  0
   -3.9056    1.1647    1.1506 C   0  0  0  0  0  0  0  0  0  0  0  0
   -3.6456    0.1765    0.1820 C   0  0  0  0  0  0  0  0  0  0  0  0
   -2.2500   -0.1497   -0.1490 C   0  0  0  0  0  0  0  0  0  0  0  0
   -1.6730   -1.3588    0.2669 C   0  0  0  0  0  0  0  0  0  0  0  0
   -0.3454   -1.6658   -0.0473 C   0  0  0  0  0  0  0  0  0  0  0  0
    0.4358   -0.7692   -0.7864 C   0  0  0  0  0  0  0  0  0  0  0  0
    1.8703   -1.0927   -1.1299 C   0  0  0  0  0  0  0  0  0  0  0  0
    2.7877   -0.2665   -0.3506 N   0  0  0  0  0  0  0  0  0  0  0  0
    4.1756   -0.6111   -0.6400 C   0  0  0  0  0  0  0  0  0  0  0  0
    5.0546    0.2252    0.2208 C   0  0  0  0  0  0  0  0  0  0  0  0
    5.1646    1.6010    0.2657 C   0  0  0  0  0  0  0  0  0  0  0  0
    6.1038    1.8848    1.2111 N   0  0  0  0  0  0  0  0  0  0  0  0
    6.6326    0.7907    1.7825 N   0  0  0  0  0  0  0  0  0  0  0  0
    5.9936   -0.2160    1.1824 C   0  0  0  0  0  0  0  0  0  0  0  0
   -0.1324    0.4454   -1.1922 C   0  0  0  0  0  0  0  0  0  0  0  0
   -1.4595    0.7506   -0.8780 C   0  0  0  0  0  0  0  0  0  0  0  0
   -6.9043   -0.5948   -0.5536 H   0  0  0  0  0  0  0  0  0  0  0  0
   -7.3064    1.1421    1.1574 H   0  0  0  0  0  0  0  0  0  0  0  0
   -5.3892    2.2745    2.2527 H   0  0  0  0  0  0  0  0  0  0  0  0
   -3.0772    1.6702    1.6458 H   0  0  0  0  0  0  0  0  0  0  0  0
   -2.2554   -2.0750    0.8434 H   0  0  0  0  0  0  0  0  0  0  0  0
    0.0708   -2.6128    0.2884 H   0  0  0  0  0  0  0  0  0  0  0  0
    2.0168   -0.9239   -2.2042 H   0  0  0  0  0  0  0  0  0  0  0  0
    2.0598   -2.1576   -0.9451 H   0  0  0  0  0  0  0  0  0  0  0  0
    2.6054   -0.4115    0.6414 H   0  0  0  0  0  0  0  0  0  0  0  0
    4.4102   -0.4142   -1.6927 H   0  0  0  0  0  0  0  0  0  0  0  0
    4.3625   -1.6736   -0.4425 H   0  0  0  0  0  0  0  0  0  0  0  0
    4.6523    2.3815   -0.2786 H   0  0  0  0  0  0  0  0  0  0  0  0
    6.4338    2.7947    1.5151 H   0  0  0  0  0  0  0  0  0  0  0  0
    6.2368   -1.2316    1.4682 H   0  0  0  0  0  0  0  0  0  0  0  0
    0.4642    1.1622   -1.7531 H   0  0  0  0  0  0  0  0  0  0  0  0
   -1.8742    1.6998   -1.2112 H   0  0  0  0  0  0  0  0  0  0  0  0
  1  2  3  0
  2  3  1  0
  3  4  2  0
  4  5  1  0
  5  6  2  0
  6  7  1  0
  7  8  2  0
  8  9  1  0
  9 10  1  0
 10 11  2  0
 11 12  1  0
 12 13  1  0
 13 14  1  0
 14 15  1  0
 15 16  1  0
 16 17  2  0
 17 18  1  0
 18 19  1  0
 19 20  2  0
 12 21  2  0
 21 22  1  0
  8  3  1  0
 22  9  2  0
 20 16  1  0
  4 23  1  0
  5 24  1  0
  6 25  1  0
  7 26  1  0
 10 27  1  0
 11 28  1  0
 13 29  1  0
 13 30  1  0
 14 31  1  0
 15 32  1  0
 15 33  1  0
 17 34  1  0
 18 35  1  0
 20 36  1  0
 21 37  1  0
 22 38  1  0
M  END
$$$$
OCNT-2310096
     RDKit          3D

 46 49  0  0  0  0  0  0  0  0999 V2000
   -4.3038    1.1777    1.9094 C   0  0  0  0  0  0  0  0  0  0  0  0
   -4.3809   -0.2719    2.2974 C   0  0  0  0  0  0  0  0  0  0  0  0
   -5.4023   -0.5830    3.1386 N   0  0  0  0  0  0  0  0  0  0  0  0
   -5.5194   -1.8695    3.5188 C   0  0  0  0  0  0  0  0  0  0  0  0
   -6.5252   -2.1827    4.3476 F   0  0  0  0  0  0  0  0  0  0  0  0
   -4.6663   -2.8722    3.1080 C   0  0  0  0  0  0  0  0  0  0  0  0
   -3.6222   -2.5413    2.2467 C   0  0  0  0  0  0  0  0  0  0  0  0
   -3.4605   -1.2228    1.8155 C   0  0  0  0  0  0  0  0  0  0  0  0
   -2.4165   -0.8246    0.9491 N   0  0  0  0  0  0  0  0  0  0  0  0
   -1.5205   -1.6294    0.2804 C   0  0  0  0  0  0  0  0  0  0  0  0
   -1.5106   -2.8514    0.2520 O   0  0  0  0  0  0  0  0  0  0  0  0
   -0.6058   -0.8581   -0.4067 N   0  0  0  0  0  0  0  0  0  0  0  0
    0.4909   -1.5016   -1.1195 C   0  0  0  0  0  0  0  0  0  0  0  0
    0.0310   -2.2249   -2.4102 C   0  0  0  0  0  0  0  0  0  0  0  0
   -0.2143   -1.2572   -3.5841 C   0  0  0  0  0  0  0  0  0  0  0  0
    1.0549   -0.4710   -3.9567 C   0  0  0  0  0  0  0  0  0  0  0  0
    1.7041    0.0519   -2.7223 C   0  0  0  0  0  0  0  0  0  0  0  0
    1.4771   -0.4130   -1.4457 C   0  0  0  0  0  0  0  0  0  0  0  0
    2.1555    0.2637   -0.4478 N   0  0  0  0  0  0  0  0  0  0  0  0
    2.9379    1.1936   -0.9734 C   0  0  0  0  0  0  0  0  0  0  0  0
    3.8244    2.0663   -0.1737 C   0  0  0  0  0  0  0  0  0  0  0  0
    4.5090    3.1748   -0.7049 C   0  0  0  0  0  0  0  0  0  0  0  0
    5.3325    3.9664    0.1040 C   0  0  0  0  0  0  0  0  0  0  0  0
    5.4777    3.6584    1.4498 C   0  0  0  0  0  0  0  0  0  0  0  0
    6.2659    4.4182    2.2206 F   0  0  0  0  0  0  0  0  0  0  0  0
    4.8146    2.5740    2.0050 C   0  0  0  0  0  0  0  0  0  0  0  0
    3.9923    1.7840    1.1965 C   0  0  0  0  0  0  0  0  0  0  0  0
    2.8463    1.3066   -2.6990 S   0  0  0  0  0  0  0  0  0  0  0  0
   -5.1027    1.7531    2.3892 H   0  0  0  0  0  0  0  0  0  0  0  0
   -4.4170    1.2890    0.8265 H   0  0  0  0  0  0  0  0  0  0  0  0
   -3.3481    1.6073    2.2252 H   0  0  0  0  0  0  0  0  0  0  0  0
   -4.8119   -3.8883    3.4532 H   0  0  0  0  0  0  0  0  0  0  0  0
   -2.9502   -3.3350    1.9361 H   0  0  0  0  0  0  0  0  0  0  0  0
   -2.3847    0.1454    0.6737 H   0  0  0  0  0  0  0  0  0  0  0  0
   -0.3070   -0.0405    0.1094 H   0  0  0  0  0  0  0  0  0  0  0  0
    0.9559   -2.2272   -0.4410 H   0  0  0  0  0  0  0  0  0  0  0  0
   -0.8748   -2.8145   -2.2335 H   0  0  0  0  0  0  0  0  0  0  0  0
    0.8135   -2.9338   -2.7127 H   0  0  0  0  0  0  0  0  0  0  0  0
   -0.5631   -1.8169   -4.4594 H   0  0  0  0  0  0  0  0  0  0  0  0
   -1.0154   -0.5578   -3.3126 H   0  0  0  0  0  0  0  0  0  0  0  0
    0.7926    0.3416   -4.6432 H   0  0  0  0  0  0  0  0  0  0  0  0
    1.7556   -1.1345   -4.4775 H   0  0  0  0  0  0  0  0  0  0  0  0
    4.4149    3.4498   -1.7524 H   0  0  0  0  0  0  0  0  0  0  0  0
    5.8591    4.8208   -0.3101 H   0  0  0  0  0  0  0  0  0  0  0  0
    4.9390    2.3467    3.0590 H   0  0  0  0  0  0  0  0  0  0  0  0
    3.4785    0.9337    1.6440 H   0  0  0  0  0  0  0  0  0  0  0  0
  1  2  1  0
  2  3  1  0
  3  4  2  0
  4  5  1  0
  4  6  1  0
  6  7  2  0
  7  8  1  0
  8  9  1  0
  9 10  1  0
 10 11  2  0
 10 12  1  0
 12 13  1  0
 13 14  1  0
 14 15  1  0
 15 16  1  0
 16 17  1  0
 17 18  2  0
 18 19  1  0
 19 20  2  0
 20 21  1  0
 21 22  1  0
 22 23  2  0
 23 24  1  0
 24 25  1  0
 24 26  2  0
 26 27  1  0
 20 28  1  0
  8  2  2  0
 18 13  1  0
 27 21  2  0
 28 17  1  0
  1 29  1  0
  1 30  1  0
  1 31  1  0
  6 32  1  0
  7 33  1  0
  9 34  1  0
 12 35  1  0
 13 36  1  0
 14 37  1  0
 14 38  1  0
 15 39  1  0
 15 40  1  0
 16 41  1  0
 16 42  1  0
 22 43  1  0
 23 44  1  0
 26 45  1  0
 27 46  1  0
M  END
$$$$
OCNT-2310114
     RDKit          3D

 47 50  0  0  0  0  0  0  0  0999 V2000
   -8.5077   -1.4235    0.0685 C   0  0  0  0  0  0  0  0  0  0  0  0
   -8.2922    0.3360   -0.0831 S   0  0  0  0  0  0  0  0  0  0  0  0
   -9.5048    0.8771   -0.6609 O   0  0  0  0  0  0  0  0  0  0  0  0
   -7.7524    0.8583    1.1515 O   0  0  0  0  0  0  0  0  0  0  0  0
   -7.1345    0.4242   -1.3171 N   0  0  0  0  0  0  0  0  0  0  0  0
   -5.7779    0.5984   -0.9183 C   0  0  0  0  0  0  0  0  0  0  0  0
   -5.2657    1.8798   -0.7249 C   0  0  0  0  0  0  0  0  0  0  0  0
   -3.9468    2.0462   -0.2871 C   0  0  0  0  0  0  0  0  0  0  0  0
   -3.1329    0.9329   -0.0292 C   0  0  0  0  0  0  0  0  0  0  0  0
   -1.7519    1.0670    0.4281 C   0  0  0  0  0  0  0  0  0  0  0  0
   -1.2375    2.1801    1.0591 C   0  0  0  0  0  0  0  0  0  0  0  0
    0.4081    1.9229    1.4500 S   0  0  0  0  0  0  0  0  0  0  0  0
    0.3447    0.3553    0.7275 C   0  0  0  0  0  0  0  0  0  0  0  0
    1.3646   -0.5343    0.7039 N   0  0  0  0  0  0  0  0  0  0  0  0
    2.7556   -0.3362    0.6314 C   0  0  0  0  0  0  0  0  0  0  0  0
    3.5915   -1.3859    1.0414 C   0  0  0  0  0  0  0  0  0  0  0  0
    4.9836   -1.2549    1.0343 C   0  0  0  0  0  0  0  0  0  0  0  0
    5.5816   -0.0611    0.6152 C   0  0  0  0  0  0  0  0  0  0  0  0
    7.0826    0.0838    0.6045 C   0  0  0  0  0  0  0  0  0  0  0  0
    7.6997   -0.7812   -0.3838 N   0  0  0  0  0  0  0  0  0  0  0  0
    7.6684   -0.6517   -1.7383 C   0  0  0  0  0  0  0  0  0  0  0  0
    8.3878   -1.6034   -2.2872 N   0  0  0  0  0  0  0  0  0  0  0  0
    8.8464   -2.3022   -1.2068 C   0  0  0  0  0  0  0  0  0  0  0  0
    8.4592   -1.8339   -0.0171 N   0  0  0  0  0  0  0  0  0  0  0  0
    4.7562    0.9941    0.2110 C   0  0  0  0  0  0  0  0  0  0  0  0
    3.3622    0.8556    0.2236 C   0  0  0  0  0  0  0  0  0  0  0  0
   -0.8463    0.0269    0.2740 N   0  0  0  0  0  0  0  0  0  0  0  0
   -3.6694   -0.3491   -0.2266 C   0  0  0  0  0  0  0  0  0  0  0  0
   -4.9882   -0.5175   -0.6593 C   0  0  0  0  0  0  0  0  0  0  0  0
   -7.5822   -1.8684    0.4362 H   0  0  0  0  0  0  0  0  0  0  0  0
   -9.3120   -1.6016    0.7858 H   0  0  0  0  0  0  0  0  0  0  0  0
   -8.7836   -1.8333   -0.9049 H   0  0  0  0  0  0  0  0  0  0  0  0
   -7.4641    1.0852   -2.0237 H   0  0  0  0  0  0  0  0  0  0  0  0
   -5.8850    2.7559   -0.8965 H   0  0  0  0  0  0  0  0  0  0  0  0
   -3.5740    3.0586   -0.1571 H   0  0  0  0  0  0  0  0  0  0  0  0
   -1.7259    3.1051    1.3272 H   0  0  0  0  0  0  0  0  0  0  0  0
    1.0886   -1.4651    0.4103 H   0  0  0  0  0  0  0  0  0  0  0  0
    3.1592   -2.3232    1.3862 H   0  0  0  0  0  0  0  0  0  0  0  0
    5.5966   -2.0950    1.3594 H   0  0  0  0  0  0  0  0  0  0  0  0
    7.3874    1.1093    0.3659 H   0  0  0  0  0  0  0  0  0  0  0  0
    7.4940   -0.1619    1.5904 H   0  0  0  0  0  0  0  0  0  0  0  0
    7.1230    0.1255   -2.2548 H   0  0  0  0  0  0  0  0  0  0  0  0
    9.4824   -3.1742   -1.2905 H   0  0  0  0  0  0  0  0  0  0  0  0
    5.1823    1.9384   -0.1222 H   0  0  0  0  0  0  0  0  0  0  0  0
    2.7668    1.6922   -0.1298 H   0  0  0  0  0  0  0  0  0  0  0  0
   -3.0592   -1.2306   -0.0368 H   0  0  0  0  0  0  0  0  0  0  0  0
   -5.3781   -1.5201   -0.8040 H   0  0  0  0  0  0  0  0  0  0  0  0
  1  2  1  0
  2  3  2  0
  2  4  2  0
  2  5  1  0
  5  6  1  0
  6  7  1  0
  7  8  2  0
  8  9  1  0
  9 10  1  0
 10 11  2  0
 11 12  1  0
 12 13  1  0
 13 14  1  0
 14 15  1  0
 15 16  1  0
 16 17  2  0
 17 18  1  0
 18 19  1  0
 19 20  1  0
 20 21  1  0
 21 22  2  0
 22 23  1  0
 23 24  2  0
 18 25  2  0
 25 26  1  0
 13 27  2  0
  9 28  2  0
 28 29  1  0
 29  6  2  0
 27 10  1  0
 26 15  2  0
 24 20  1  0
  1 30  1  0
  1 31  1  0
  1 32  1  0
  5 33  1  0
  7 34  1  0
  8 35  1  0
 11 36  1  0
 14 37  1  0
 16 38  1  0
 17 39  1  0
 19 40  1  0
 19 41  1  0
 21 42  1  0
 23 43  1  0
 25 44  1  0
 26 45  1  0
 28 46  1  0
 29 47  1  0
M  END
$$$$
OCNT-2310120
     RDKit          3D

 40 43  0  0  0  0  0  0  0  0999 V2000
    1.9377   -2.5924    1.8666 O   0  0  0  0  0  0  0  0  0  0  0  0
    1.6161   -1.4403    1.5791 C   0  0  0  0  0  0  0  0  0  0  0  0
    0.2698   -0.9571    1.9941 C   0  0  0  0  0  0  0  0  0  0  0  0
   -0.4717   -0.4077    0.9915 N   0  0  0  0  0  0  0  0  0  0  0  0
   -1.7020   -0.0031    1.3032 C   0  0  0  0  0  0  0  0  0  0  0  0
   -2.4241    0.5755    0.2764 N   0  0  0  0  0  0  0  0  0  0  0  0
   -3.8566    0.3409    0.3467 C   0  0  0  0  0  0  0  0  0  0  0  0
   -4.5760    0.8140   -0.8716 C   0  0  0  0  0  0  0  0  0  0  0  0
   -5.0142    2.0535   -1.2902 C   0  0  0  0  0  0  0  0  0  0  0  0
   -5.6220    1.8561   -2.5530 C   0  0  0  0  0  0  0  0  0  0  0  0
   -5.5113    0.5127   -2.8266 C   0  0  0  0  0  0  0  0  0  0  0  0
   -4.8741   -0.1283   -1.8134 O   0  0  0  0  0  0  0  0  0  0  0  0
   -2.2291   -0.1140    2.5294 N   0  0  0  0  0  0  0  0  0  0  0  0
   -1.4569   -0.6661    3.4927 C   0  0  0  0  0  0  0  0  0  0  0  0
   -0.1763   -1.1153    3.2872 C   0  0  0  0  0  0  0  0  0  0  0  0
    0.7349   -1.7395    4.5971 Cl  0  0  0  0  0  0  0  0  0  0  0  0
    2.4415   -0.5930    0.8364 N   0  0  0  0  0  0  0  0  0  0  0  0
    2.3035    0.8758    0.7917 C   0  0  0  0  0  0  0  0  0  0  0  0
    2.4111    1.4075   -0.6448 C   0  0  0  0  0  0  0  0  0  0  0  0
    3.5967    0.7742   -1.3001 C   0  0  0  0  0  0  0  0  0  0  0  0
    4.1859   -0.3969   -0.8596 C   0  0  0  0  0  0  0  0  0  0  0  0
    5.2882   -0.7557   -1.6972 C   0  0  0  0  0  0  0  0  0  0  0  0
    5.4827    0.1475   -2.7210 C   0  0  0  0  0  0  0  0  0  0  0  0
    4.3377    1.4196   -2.6838 S   0  0  0  0  0  0  0  0  0  0  0  0
    3.7092   -1.1498    0.3510 C   0  0  0  0  0  0  0  0  0  0  0  0
   -2.0065    0.2662   -0.5952 H   0  0  0  0  0  0  0  0  0  0  0  0
   -4.0628   -0.7301    0.4773 H   0  0  0  0  0  0  0  0  0  0  0  0
   -4.2818    0.8636    1.2134 H   0  0  0  0  0  0  0  0  0  0  0  0
   -4.9011    2.9826   -0.7481 H   0  0  0  0  0  0  0  0  0  0  0  0
   -6.0808    2.6004   -3.1888 H   0  0  0  0  0  0  0  0  0  0  0  0
   -5.8155   -0.1106   -3.6559 H   0  0  0  0  0  0  0  0  0  0  0  0
   -1.9275   -0.7269    4.4706 H   0  0  0  0  0  0  0  0  0  0  0  0
    1.3773    1.2220    1.2537 H   0  0  0  0  0  0  0  0  0  0  0  0
    3.1192    1.2806    1.4061 H   0  0  0  0  0  0  0  0  0  0  0  0
    2.4934    2.4997   -0.6301 H   0  0  0  0  0  0  0  0  0  0  0  0
    1.5072    1.1393   -1.2049 H   0  0  0  0  0  0  0  0  0  0  0  0
    5.9105   -1.6312   -1.5558 H   0  0  0  0  0  0  0  0  0  0  0  0
    6.2392    0.1211   -3.4935 H   0  0  0  0  0  0  0  0  0  0  0  0
    4.4425   -1.0618    1.1610 H   0  0  0  0  0  0  0  0  0  0  0  0
    3.5858   -2.2109    0.1085 H   0  0  0  0  0  0  0  0  0  0  0  0
  1  2  2  0
  2  3  1  0
  3  4  2  0
  4  5  1  0
  5  6  1  0
  6  7  1  0
  7  8  1  0
  8  9  2  0
  9 10  1  0
 10 11  2  0
 11 12  1  0
  5 13  2  0
 13 14  1  0
 14 15  2  0
 15 16  1  0
  2 17  1  0
 17 18  1  0
 18 19  1  0
 19 20  1  0
 20 21  2  0
 21 22  1  0
 22 23  2  0
 23 24  1  0
 21 25  1  0
 15  3  1  0
 25 17  1  0
 12  8  1  0
 24 20  1  0
  6 26  1  0
  7 27  1  0
  7 28  1  0
  9 29  1  0
 10 30  1  0
 11 31  1  0
 14 32  1  0
 18 33  1  0
 18 34  1  0
 19 35  1  0
 19 36  1  0
 22 37  1  0
 23 38  1  0
 25 39  1  0
 25 40  1  0
M  END
$$$$
OCNT-2310123
     RDKit          3D

 53 56  0  0  0  0  0  0  0  0999 V2000
    6.9408    1.8642   -1.5806 C   0  0  0  0  0  0  0  0  0  0  0  0
    5.9052    1.2979   -0.6991 C   0  0  0  0  0  0  0  0  0  0  0  0
    4.5692    1.0096   -0.8458 C   0  0  0  0  0  0  0  0  0  0  0  0
    4.1857    0.4771    0.4049 C   0  0  0  0  0  0  0  0  0  0  0  0
    2.8988   -0.0139    0.8404 N   0  0  0  0  0  0  0  0  0  0  0  0
    2.6352   -0.7228    2.0160 C   0  0  0  0  0  0  0  0  0  0  0  0
    3.6309   -0.9999    3.0923 C   0  0  0  0  0  0  0  0  0  0  0  0
    1.3252   -1.1481    1.9857 C   0  0  0  0  0  0  0  0  0  0  0  0
    0.7171   -0.6748    0.8003 C   0  0  0  0  0  0  0  0  0  0  0  0
   -0.6767   -0.9396    0.4301 C   0  0  0  0  0  0  0  0  0  0  0  0
   -1.5333   -1.1638    1.2759 O   0  0  0  0  0  0  0  0  0  0  0  0
   -0.9113   -0.9911   -0.9255 N   0  0  0  0  0  0  0  0  0  0  0  0
   -2.2346   -1.1594   -1.5440 C   0  0  0  0  0  0  0  0  0  0  0  0
   -2.9911    0.1981   -1.6855 C   0  0  0  0  0  0  0  0  0  0  0  0
   -3.4828    0.8692   -0.4232 C   0  0  0  0  0  0  0  0  0  0  0  0
   -4.7665    0.5980    0.0735 C   0  0  0  0  0  0  0  0  0  0  0  0
   -5.2258    1.2206    1.2366 C   0  0  0  0  0  0  0  0  0  0  0  0
   -4.4060    2.1235    1.9080 C   0  0  0  0  0  0  0  0  0  0  0  0
   -4.9726    2.8932    3.3390 Cl  0  0  0  0  0  0  0  0  0  0  0  0
   -3.1338    2.4135    1.4231 C   0  0  0  0  0  0  0  0  0  0  0  0
   -2.6765    1.7919    0.2587 C   0  0  0  0  0  0  0  0  0  0  0  0
   -3.0685   -2.2786   -0.9218 C   0  0  0  0  0  0  0  0  0  0  0  0
   -3.9725   -2.7241   -2.0517 C   0  0  0  0  0  0  0  0  0  0  0  0
   -3.2738   -2.4656   -3.2765 O   0  0  0  0  0  0  0  0  0  0  0  0
   -2.0702   -1.7531   -2.9603 C   0  0  0  0  0  0  0  0  0  0  0  0
    1.6712    0.1217    0.1631 C   0  0  0  0  0  0  0  0  0  0  0  0
    1.4715    1.0533   -0.9863 C   0  0  0  0  0  0  0  0  0  0  0  0
    5.2279    0.4280    1.2430 N   0  0  0  0  0  0  0  0  0  0  0  0
    6.3017    0.9529    0.5523 O   0  0  0  0  0  0  0  0  0  0  0  0
    7.4485    2.7012   -1.0916 H   0  0  0  0  0  0  0  0  0  0  0  0
    6.5032    2.2317   -2.5139 H   0  0  0  0  0  0  0  0  0  0  0  0
    7.6877    1.1044   -1.8297 H   0  0  0  0  0  0  0  0  0  0  0  0
    3.9978    1.1572   -1.7463 H   0  0  0  0  0  0  0  0  0  0  0  0
    4.4572   -1.6125    2.7190 H   0  0  0  0  0  0  0  0  0  0  0  0
    4.0184   -0.0707    3.5210 H   0  0  0  0  0  0  0  0  0  0  0  0
    3.1637   -1.5579    3.9116 H   0  0  0  0  0  0  0  0  0  0  0  0
    0.8418   -1.7487    2.7484 H   0  0  0  0  0  0  0  0  0  0  0  0
   -0.1122   -0.8852   -1.5328 H   0  0  0  0  0  0  0  0  0  0  0  0
   -3.8558    0.0810   -2.3536 H   0  0  0  0  0  0  0  0  0  0  0  0
   -2.3367    0.9101   -2.2095 H   0  0  0  0  0  0  0  0  0  0  0  0
   -5.4204   -0.1033   -0.4394 H   0  0  0  0  0  0  0  0  0  0  0  0
   -6.2193    0.9946    1.6133 H   0  0  0  0  0  0  0  0  0  0  0  0
   -2.4919    3.1150    1.9479 H   0  0  0  0  0  0  0  0  0  0  0  0
   -1.6804    2.0286   -0.1044 H   0  0  0  0  0  0  0  0  0  0  0  0
   -2.4180   -3.1181   -0.6405 H   0  0  0  0  0  0  0  0  0  0  0  0
   -3.6311   -2.0022   -0.0270 H   0  0  0  0  0  0  0  0  0  0  0  0
   -4.9064   -2.1531   -2.0701 H   0  0  0  0  0  0  0  0  0  0  0  0
   -4.2208   -3.7875   -1.9903 H   0  0  0  0  0  0  0  0  0  0  0  0
   -1.2464   -2.4768   -2.9991 H   0  0  0  0  0  0  0  0  0  0  0  0
   -1.8803   -0.9971   -3.7293 H   0  0  0  0  0  0  0  0  0  0  0  0
    2.0051    1.9965   -0.8361 H   0  0  0  0  0  0  0  0  0  0  0  0
    1.7934    0.5877   -1.9224 H   0  0  0  0  0  0  0  0  0  0  0  0
    0.4183    1.3275   -1.0971 H   0  0  0  0  0  0  0  0  0  0  0  0
  1  2  1  0
  2  3  2  0
  3  4  1  0
  4  5  1  0
  5  6  1  0
  6  7  1  0
  6  8  2  0
  8  9  1  0
  9 10  1  0
 10 11  2  0
 10 12  1  0
 12 13  1  0
 13 14  1  0
 14 15  1  0
 15 16  1  0
 16 17  2  0
 17 18  1  0
 18 19  1  0
 18 20  2  0
 20 21  1  0
 13 22  1  0
 22 23  1  0
 23 24  1  0
 24 25  1  0
  9 26  2  0
 26 27  1  0
  4 28  2  0
 28 29  1  0
 29  2  1  0
 26  5  1  0
 25 13  1  0
 21 15  2  0
  1 30  1  0
  1 31  1  0
  1 32  1  0
  3 33  1  0
  7 34  1  0
  7 35  1  0
  7 36  1  0
  8 37  1  0
 12 38  1  0
 14 39  1  0
 14 40  1  0
 16 41  1  0
 17 42  1  0
 20 43  1  0
 21 44  1  0
 22 45  1  0
 22 46  1  0
 23 47  1  0
 23 48  1  0
 25 49  1  0
 25 50  1  0
 27 51  1  0
 27 52  1  0
 27 53  1  0
M  END
$$$$
OCNT-2310136
     RDKit          3D

 40 42  0  0  0  0  0  0  0  0999 V2000
   -1.4094    2.3084    2.0840 C   0  0  0  0  0  0  0  0  0  0  0  0
   -1.3774    0.8836    1.5283 C   0  0  0  0  0  0  0  0  0  0  0  0
   -0.0254    0.5549    1.0972 N   0  0  0  0  0  0  0  0  0  0  0  0
    0.4703   -0.7258    1.2513 C   0  0  0  0  0  0  0  0  0  0  0  0
   -0.0925   -1.6177    1.8717 O   0  0  0  0  0  0  0  0  0  0  0  0
    1.7522   -0.9902    0.5621 C   0  0  0  0  0  0  0  0  0  0  0  0
    1.9377   -2.2081   -0.1047 C   0  0  0  0  0  0  0  0  0  0  0  0
    3.1227   -2.4732   -0.7860 C   0  0  0  0  0  0  0  0  0  0  0  0
    4.1584   -1.5310   -0.8084 C   0  0  0  0  0  0  0  0  0  0  0  0
    4.0092   -0.3083   -0.1179 C   0  0  0  0  0  0  0  0  0  0  0  0
    2.8101   -0.0637    0.5595 C   0  0  0  0  0  0  0  0  0  0  0  0
    2.9412    1.1589    1.1854 N   0  0  0  0  0  0  0  0  0  0  0  0
    4.1540    1.7188    0.8849 C   0  0  0  0  0  0  0  0  0  0  0  0
    4.8399    0.8318    0.0828 C   0  0  0  0  0  0  0  0  0  0  0  0
    6.1572    1.0406   -0.4325 C   0  0  0  0  0  0  0  0  0  0  0  0
    7.2248    1.2132   -0.8538 N   0  0  0  0  0  0  0  0  0  0  0  0
   -2.3475    0.6427    0.3813 C   0  0  0  0  0  0  0  0  0  0  0  0
   -2.6120    1.6069   -0.6023 C   0  0  0  0  0  0  0  0  0  0  0  0
   -3.4832    1.3296   -1.6577 C   0  0  0  0  0  0  0  0  0  0  0  0
   -4.0960    0.0812   -1.7530 C   0  0  0  0  0  0  0  0  0  0  0  0
   -3.8459   -0.9063   -0.7914 C   0  0  0  0  0  0  0  0  0  0  0  0
   -4.4756   -2.2731   -0.9041 C   0  0  0  0  0  0  0  0  0  0  0  0
   -5.6191   -2.2766   -1.6466 F   0  0  0  0  0  0  0  0  0  0  0  0
   -4.8188   -2.8042    0.3023 F   0  0  0  0  0  0  0  0  0  0  0  0
   -3.6476   -3.1793   -1.4932 F   0  0  0  0  0  0  0  0  0  0  0  0
   -2.9635   -0.6169    0.2628 C   0  0  0  0  0  0  0  0  0  0  0  0
   -1.0317    3.0427    1.3641 H   0  0  0  0  0  0  0  0  0  0  0  0
   -2.4258    2.5990    2.3704 H   0  0  0  0  0  0  0  0  0  0  0  0
   -0.7728    2.3824    2.9732 H   0  0  0  0  0  0  0  0  0  0  0  0
   -1.6540    0.2200    2.3579 H   0  0  0  0  0  0  0  0  0  0  0  0
    0.3214    1.0708    0.2982 H   0  0  0  0  0  0  0  0  0  0  0  0
    1.1429   -2.9526   -0.0969 H   0  0  0  0  0  0  0  0  0  0  0  0
    3.2465   -3.4214   -1.3051 H   0  0  0  0  0  0  0  0  0  0  0  0
    5.0782   -1.7549   -1.3447 H   0  0  0  0  0  0  0  0  0  0  0  0
    2.2369    1.5674    1.7887 H   0  0  0  0  0  0  0  0  0  0  0  0
    4.4301    2.6887    1.2791 H   0  0  0  0  0  0  0  0  0  0  0  0
   -2.1422    2.5864   -0.5680 H   0  0  0  0  0  0  0  0  0  0  0  0
   -3.6806    2.0884   -2.4117 H   0  0  0  0  0  0  0  0  0  0  0  0
   -4.7684   -0.1211   -2.5856 H   0  0  0  0  0  0  0  0  0  0  0  0
   -2.7443   -1.3917    1.0008 H   0  0  0  0  0  0  0  0  0  0  0  0
  1  2  1  0
  2  3  1  0
  3  4  1  0
  4  5  2  0
  4  6  1  0
  6  7  1  0
  7  8  2  0
  8  9  1  0
  9 10  2  0
 10 11  1  0
 11 12  1  0
 12 13  1  0
 13 14  2  0
 14 15  1  0
 15 16  3  0
  2 17  1  0
 17 18  2  0
 18 19  1  0
 19 20  2  0
 20 21  1  0
 21 22  1  0
 22 23  1  0
 22 24  1  0
 22 25  1  0
 21 26  2  0
 11  6  2  0
 26 17  1  0
 14 10  1  0
  1 27  1  0
  1 28  1  0
  1 29  1  0
  2 30  1  0
  3 31  1  0
  7 32  1  0
  8 33  1  0
  9 34  1  0
 12 35  1  0
 13 36  1  0
 18 37  1  0
 19 38  1  0
 20 39  1  0
 26 40  1  0
M  END
$$$$
OCNT-2310153
     RDKit          3D

 41 43  0  0  0  0  0  0  0  0999 V2000
    6.1351    0.7794   -1.6860 C   0  0  0  0  0  0  0  0  0  0  0  0
    5.1594    1.5373   -0.9440 N   0  0  0  0  0  0  0  0  0  0  0  0
    5.3851    2.8375   -0.6819 N   0  0  0  0  0  0  0  0  0  0  0  0
    4.3534    3.2905    0.0115 N   0  0  0  0  0  0  0  0  0  0  0  0
    3.4752    2.2594    0.1765 C   0  0  0  0  0  0  0  0  0  0  0  0
    3.9561    1.1161   -0.4325 C   0  0  0  0  0  0  0  0  0  0  0  0
    3.4274   -0.2147   -0.5475 C   0  0  0  0  0  0  0  0  0  0  0  0
    4.0423   -1.1368   -1.0746 O   0  0  0  0  0  0  0  0  0  0  0  0
    2.1629   -0.3925   -0.0364 N   0  0  0  0  0  0  0  0  0  0  0  0
    1.4364   -1.6520   -0.1921 C   0  0  0  0  0  0  0  0  0  0  0  0
    0.7518   -1.7250   -1.5539 C   0  0  0  0  0  0  0  0  0  0  0  0
   -0.5162   -0.8870   -1.3677 C   0  0  0  0  0  0  0  0  0  0  0  0
   -0.7922   -0.9424    0.0726 N   0  0  0  0  0  0  0  0  0  0  0  0
   -2.0215   -0.6357    0.6134 C   0  0  0  0  0  0  0  0  0  0  0  0
   -2.3714   -0.9990    1.9207 C   0  0  0  0  0  0  0  0  0  0  0  0
   -3.6161   -0.6729    2.4706 C   0  0  0  0  0  0  0  0  0  0  0  0
   -4.5519    0.0391    1.7250 C   0  0  0  0  0  0  0  0  0  0  0  0
   -4.2395    0.4295    0.4279 C   0  0  0  0  0  0  0  0  0  0  0  0
   -5.0420    1.1362   -0.4227 O   0  0  0  0  0  0  0  0  0  0  0  0
   -6.3193    1.5298    0.0470 C   0  0  0  0  0  0  0  0  0  0  0  0
   -6.2166    2.3390    1.1233 F   0  0  0  0  0  0  0  0  0  0  0  0
   -6.9484    2.2161   -0.9332 F   0  0  0  0  0  0  0  0  0  0  0  0
   -7.0781    0.4568    0.3591 F   0  0  0  0  0  0  0  0  0  0  0  0
   -2.9852    0.0911   -0.1067 C   0  0  0  0  0  0  0  0  0  0  0  0
    0.2345   -1.7277    0.7649 C   0  0  0  0  0  0  0  0  0  0  0  0
    5.6579    0.3793   -2.5837 H   0  0  0  0  0  0  0  0  0  0  0  0
    6.5097   -0.0244   -1.0481 H   0  0  0  0  0  0  0  0  0  0  0  0
    6.9628    1.4331   -1.9744 H   0  0  0  0  0  0  0  0  0  0  0  0
    2.5568    2.4035    0.7263 H   0  0  0  0  0  0  0  0  0  0  0  0
    1.6075    0.4115    0.2267 H   0  0  0  0  0  0  0  0  0  0  0  0
    2.1338   -2.4815   -0.0371 H   0  0  0  0  0  0  0  0  0  0  0  0
    0.4722   -2.7637   -1.7693 H   0  0  0  0  0  0  0  0  0  0  0  0
    1.3648   -1.3606   -2.3837 H   0  0  0  0  0  0  0  0  0  0  0  0
   -1.3304   -1.3057   -1.9698 H   0  0  0  0  0  0  0  0  0  0  0  0
   -0.3388    0.1506   -1.6726 H   0  0  0  0  0  0  0  0  0  0  0  0
   -1.6802   -1.5557    2.5468 H   0  0  0  0  0  0  0  0  0  0  0  0
   -3.8516   -0.9774    3.4876 H   0  0  0  0  0  0  0  0  0  0  0  0
   -5.5036    0.2698    2.1935 H   0  0  0  0  0  0  0  0  0  0  0  0
   -2.7665    0.4255   -1.1178 H   0  0  0  0  0  0  0  0  0  0  0  0
    0.4851   -1.3110    1.7465 H   0  0  0  0  0  0  0  0  0  0  0  0
   -0.1008   -2.7655    0.8777 H   0  0  0  0  0  0  0  0  0  0  0  0
  1  2  1  0
  2  3  1  0
  3  4  2  0
  4  5  1  0
  5  6  2  0
  6  7  1  0
  7  8  2  0
  7  9  1  0
  9 10  1  0
 10 11  1  0
 11 12  1  0
 12 13  1  0
 13 14  1  0
 14 15  2  0
 15 16  1  0
 16 17  2  0
 17 18  1  0
 18 19  1  0
 19 20  1  0
 20 21  1  0
 20 22  1  0
 20 23  1  0
 18 24  2  0
 13 25  1  0
  6  2  1  0
 25 10  1  0
 24 14  1  0
  1 26  1  0
  1 27  1  0
  1 28  1  0
  5 29  1  0
  9 30  1  0
 10 31  1  0
 11 32  1  0
 11 33  1  0
 12 34  1  0
 12 35  1  0
 15 36  1  0
 16 37  1  0
 17 38  1  0
 24 39  1  0
 25 40  1  0
 25 41  1  0
M  END
$$$$
OCNT-2310161
     RDKit          3D

 44 47  0  0  0  0  0  0  0  0999 V2000
   -4.6774    3.1391    1.5950 C   0  0  0  0  0  0  0  0  0  0  0  0
   -4.2955    2.6298    2.8329 C   0  0  0  0  0  0  0  0  0  0  0  0
   -3.3051    1.6487    2.9089 C   0  0  0  0  0  0  0  0  0  0  0  0
   -2.6773    1.1647    1.7469 C   0  0  0  0  0  0  0  0  0  0  0  0
   -1.6174    0.0682    1.8771 C   0  0  0  0  0  0  0  0  0  0  0  0
   -0.6700    0.0818    0.7419 N   0  0  0  0  0  0  0  0  0  0  0  0
    0.4577   -0.8271    0.9786 C   0  0  0  0  0  0  0  0  0  0  0  0
    1.5260   -0.6238   -0.0719 C   0  0  0  0  0  0  0  0  0  0  0  0
    1.3091   -1.0329   -1.3933 C   0  0  0  0  0  0  0  0  0  0  0  0
    2.2926   -0.8485   -2.3727 C   0  0  0  0  0  0  0  0  0  0  0  0
    3.5137   -0.2413   -2.0466 C   0  0  0  0  0  0  0  0  0  0  0  0
    4.5228   -0.0561   -3.0371 N   0  0  0  0  0  0  0  0  0  0  0  0
    5.7539    0.5478   -2.8793 C   0  0  0  0  0  0  0  0  0  0  0  0
    6.3785    0.4790   -4.1021 C   0  0  0  0  0  0  0  0  0  0  0  0
    5.5794   -0.1373   -5.0197 N   0  0  0  0  0  0  0  0  0  0  0  0
    4.4813   -0.4435   -4.3615 C   0  0  0  0  0  0  0  0  0  0  0  0
    3.7288    0.1770   -0.7246 C   0  0  0  0  0  0  0  0  0  0  0  0
    2.7426   -0.0132    0.2505 C   0  0  0  0  0  0  0  0  0  0  0  0
   -2.2548   -1.2854    2.0651 C   0  0  0  0  0  0  0  0  0  0  0  0
   -2.0178   -2.1440    3.0416 N   0  0  0  0  0  0  0  0  0  0  0  0
   -2.8243   -3.2232    2.7887 C   0  0  0  0  0  0  0  0  0  0  0  0
   -3.5548   -3.0293    1.6408 C   0  0  0  0  0  0  0  0  0  0  0  0
   -3.1727   -1.8013    1.1799 N   0  0  0  0  0  0  0  0  0  0  0  0
   -3.0857    1.6813    0.5048 C   0  0  0  0  0  0  0  0  0  0  0  0
   -4.0751    2.6649    0.4320 C   0  0  0  0  0  0  0  0  0  0  0  0
   -5.4462    3.9032    1.5356 H   0  0  0  0  0  0  0  0  0  0  0  0
   -4.7701    2.9927    3.7404 H   0  0  0  0  0  0  0  0  0  0  0  0
   -3.0278    1.2525    3.8860 H   0  0  0  0  0  0  0  0  0  0  0  0
   -1.0448    0.3040    2.7862 H   0  0  0  0  0  0  0  0  0  0  0  0
   -0.2907    1.0269    0.6862 H   0  0  0  0  0  0  0  0  0  0  0  0
    0.1396   -1.8761    0.9388 H   0  0  0  0  0  0  0  0  0  0  0  0
    0.8929   -0.6583    1.9718 H   0  0  0  0  0  0  0  0  0  0  0  0
    0.3630   -1.4973   -1.6652 H   0  0  0  0  0  0  0  0  0  0  0  0
    2.0615   -1.1908   -3.3771 H   0  0  0  0  0  0  0  0  0  0  0  0
    6.0915    0.9743   -1.9462 H   0  0  0  0  0  0  0  0  0  0  0  0
    7.3614    0.8476   -4.3666 H   0  0  0  0  0  0  0  0  0  0  0  0
    3.6340   -0.9468   -4.8067 H   0  0  0  0  0  0  0  0  0  0  0  0
    4.6529    0.6518   -0.4098 H   0  0  0  0  0  0  0  0  0  0  0  0
    2.9369    0.3180    1.2680 H   0  0  0  0  0  0  0  0  0  0  0  0
   -2.8336   -4.0850    3.4443 H   0  0  0  0  0  0  0  0  0  0  0  0
   -4.2811   -3.6412    1.1250 H   0  0  0  0  0  0  0  0  0  0  0  0
   -3.4888   -1.3398    0.3370 H   0  0  0  0  0  0  0  0  0  0  0  0
   -2.6334    1.3253   -0.4198 H   0  0  0  0  0  0  0  0  0  0  0  0
   -4.3759    3.0636   -0.5343 H   0  0  0  0  0  0  0  0  0  0  0  0
  1  2  2  0
  2  3  1  0
  3  4  2  0
  4  5  1  0
  5  6  1  0
  6  7  1  0
  7  8  1  0
  8  9  1  0
  9 10  2  0
 10 11  1  0
 11 12  1  0
 12 13  1  0
 13 14  2  0
 14 15  1  0
 15 16  2  0
 11 17  2  0
 17 18  1  0
  5 19  1  0
 19 20  2  0
 20 21  1  0
 21 22  2  0
 22 23  1  0
  4 24  1  0
 24 25  2  0
 25  1  1  0
 18  8  2  0
 23 19  1  0
 16 12  1  0
  1 26  1  0
  2 27  1  0
  3 28  1  0
  5 29  1  0
  6 30  1  0
  7 31  1  0
  7 32  1  0
  9 33  1  0
 10 34  1  0
 13 35  1  0
 14 36  1  0
 16 37  1  0
 17 38  1  0
 18 39  1  0
 21 40  1  0
 22 41  1  0
 23 42  1  0
 24 43  1  0
 25 44  1  0
M  END
$$$$
OCNT-2310167
     RDKit          3D

 51 52  0  0  0  0  0  0  0  0999 V2000
   -7.1088    1.8416    1.9047 C   0  0  0  0  0  0  0  0  0  0  0  0
   -6.8054    0.3875    1.5627 C   0  0  0  0  0  0  0  0  0  0  0  0
   -5.3239    0.1372    1.3901 C   0  0  0  0  0  0  0  0  0  0  0  0
   -4.5428    0.1164    2.5606 C   0  0  0  0  0  0  0  0  0  0  0  0
   -3.1604   -0.0798    2.5119 C   0  0  0  0  0  0  0  0  0  0  0  0
   -2.5101   -0.2489    1.2896 C   0  0  0  0  0  0  0  0  0  0  0  0
   -1.1156   -0.4414    1.3209 N   0  0  0  0  0  0  0  0  0  0  0  0
   -0.2427   -0.3743    0.2569 C   0  0  0  0  0  0  0  0  0  0  0  0
   -0.5059   -0.0159   -0.8818 O   0  0  0  0  0  0  0  0  0  0  0  0
    1.0286   -0.7492    0.6534 N   0  0  0  0  0  0  0  0  0  0  0  0
    2.1060   -0.7990   -0.3203 C   0  0  0  0  0  0  0  0  0  0  0  0
    2.6628    0.5915   -0.6282 C   0  0  0  0  0  0  0  0  0  0  0  0
    3.7233    0.5722   -1.7324 C   0  0  0  0  0  0  0  0  0  0  0  0
    4.9741   -0.1873   -1.3608 C   0  0  0  0  0  0  0  0  0  0  0  0
    5.2744   -1.4067   -1.9800 C   0  0  0  0  0  0  0  0  0  0  0  0
    6.4275   -2.1113   -1.6348 C   0  0  0  0  0  0  0  0  0  0  0  0
    7.2931   -1.6053   -0.6655 C   0  0  0  0  0  0  0  0  0  0  0  0
    7.0115   -0.3892   -0.0268 C   0  0  0  0  0  0  0  0  0  0  0  0
    7.9542    0.1763    1.0061 C   0  0  0  0  0  0  0  0  0  0  0  0
    8.7224   -0.7728    1.6117 F   0  0  0  0  0  0  0  0  0  0  0  0
    7.3077    0.8256    2.0155 F   0  0  0  0  0  0  0  0  0  0  0  0
    8.8242    1.0802    0.4773 F   0  0  0  0  0  0  0  0  0  0  0  0
    5.8518    0.3161   -0.3894 C   0  0  0  0  0  0  0  0  0  0  0  0
   -3.2672   -0.2507    0.1181 C   0  0  0  0  0  0  0  0  0  0  0  0
   -4.6630   -0.0632    0.1603 C   0  0  0  0  0  0  0  0  0  0  0  0
   -5.5306   -0.1311   -1.4000 S   0  0  0  0  0  0  0  0  0  0  0  0
   -6.1104    1.4405   -1.5536 N   0  0  0  0  0  0  0  0  0  0  0  0
   -4.5769   -0.3235   -2.4666 O   0  0  0  0  0  0  0  0  0  0  0  0
   -6.6822   -0.9903   -1.2517 O   0  0  0  0  0  0  0  0  0  0  0  0
   -8.1892    1.9865    2.0057 H   0  0  0  0  0  0  0  0  0  0  0  0
   -6.6423    2.1393    2.8498 H   0  0  0  0  0  0  0  0  0  0  0  0
   -6.7468    2.5197    1.1256 H   0  0  0  0  0  0  0  0  0  0  0  0
   -7.3858    0.1096    0.6842 H   0  0  0  0  0  0  0  0  0  0  0  0
   -7.1790   -0.2595    2.3671 H   0  0  0  0  0  0  0  0  0  0  0  0
   -5.0134    0.2534    3.5338 H   0  0  0  0  0  0  0  0  0  0  0  0
   -2.6037   -0.0876    3.4457 H   0  0  0  0  0  0  0  0  0  0  0  0
   -0.6714   -0.4302    2.2269 H   0  0  0  0  0  0  0  0  0  0  0  0
    1.0399   -1.4787    1.3513 H   0  0  0  0  0  0  0  0  0  0  0  0
    2.8846   -1.4368    0.1109 H   0  0  0  0  0  0  0  0  0  0  0  0
    1.7353   -1.2833   -1.2310 H   0  0  0  0  0  0  0  0  0  0  0  0
    1.8496    1.2536   -0.9496 H   0  0  0  0  0  0  0  0  0  0  0  0
    3.0687    1.0337    0.2902 H   0  0  0  0  0  0  0  0  0  0  0  0
    4.0089    1.6034   -1.9765 H   0  0  0  0  0  0  0  0  0  0  0  0
    3.2887    0.1582   -2.6509 H   0  0  0  0  0  0  0  0  0  0  0  0
    4.6122   -1.8162   -2.7406 H   0  0  0  0  0  0  0  0  0  0  0  0
    6.6532   -3.0549   -2.1262 H   0  0  0  0  0  0  0  0  0  0  0  0
    8.1923   -2.1644   -0.4103 H   0  0  0  0  0  0  0  0  0  0  0  0
    5.6330    1.2698    0.0914 H   0  0  0  0  0  0  0  0  0  0  0  0
   -2.7844   -0.4164   -0.8427 H   0  0  0  0  0  0  0  0  0  0  0  0
   -7.1262    1.4476   -1.4724 H   0  0  0  0  0  0  0  0  0  0  0  0
   -5.6400    2.1082   -0.9456 H   0  0  0  0  0  0  0  0  0  0  0  0
  1  2  1  0
  2  3  1  0
  3  4  1  0
  4  5  2  0
  5  6  1  0
  6  7  1  0
  7  8  1  0
  8  9  2  0
  8 10  1  0
 10 11  1  0
 11 12  1  0
 12 13  1  0
 13 14  1  0
 14 15  2  0
 15 16  1  0
 16 17  2  0
 17 18  1  0
 18 19  1  0
 19 20  1  0
 19 21  1  0
 19 22  1  0
 18 23  2  0
  6 24  2  0
 24 25  1  0
 25 26  1  0
 26 27  1  0
 26 28  2  0
 26 29  2  0
 25  3  2  0
 23 14  1  0
  1 30  1  0
  1 31  1  0
  1 32  1  0
  2 33  1  0
  2 34  1  0
  4 35  1  0
  5 36  1  0
  7 37  1  0
 10 38  1  0
 11 39  1  0
 11 40  1  0
 12 41  1  0
 12 42  1  0
 13 43  1  0
 13 44  1  0
 15 45  1  0
 16 46  1  0
 17 47  1  0
 23 48  1  0
 24 49  1  0
 27 50  1  0
 27 51  1  0
M  END
$$$$
OCNT-2310174
     RDKit          3D

 43 47  0  0  0  0  0  0  0  0999 V2000
   -6.7431    1.5185    2.0411 Cl  0  0  0  0  0  0  0  0  0  0  0  0
   -6.0341    0.3427    1.0211 C   0  0  0  0  0  0  0  0  0  0  0  0
   -6.7120   -0.8210    0.6617 C   0  0  0  0  0  0  0  0  0  0  0  0
   -6.0909   -1.7481   -0.1690 C   0  0  0  0  0  0  0  0  0  0  0  0
   -4.7945   -1.5295   -0.6510 C   0  0  0  0  0  0  0  0  0  0  0  0
   -4.1342   -0.3450   -0.2793 C   0  0  0  0  0  0  0  0  0  0  0  0
   -4.7299    0.6064    0.5601 C   0  0  0  0  0  0  0  0  0  0  0  0
   -3.7808    1.6570    0.7354 C   0  0  0  0  0  0  0  0  0  0  0  0
   -2.6468    1.3369    0.0179 C   0  0  0  0  0  0  0  0  0  0  0  0
   -1.3618    2.0740   -0.1678 C   0  0  0  0  0  0  0  0  0  0  0  0
   -0.2817    1.1858   -0.6343 N   0  0  0  0  0  0  0  0  0  0  0  0
    0.9152    1.9914   -0.9559 C   0  0  0  0  0  0  0  0  0  0  0  0
    2.1398    1.1690   -1.1790 C   0  0  0  0  0  0  0  0  0  0  0  0
    2.6885    0.7760   -2.3100 N   0  0  0  0  0  0  0  0  0  0  0  0
    3.7931    0.0259   -1.9609 N   0  0  0  0  0  0  0  0  0  0  0  0
    3.8447    0.0174   -0.6427 C   0  0  0  0  0  0  0  0  0  0  0  0
    4.7992   -0.6200    0.2553 C   0  0  0  0  0  0  0  0  0  0  0  0
    5.8578   -1.3722   -0.2772 C   0  0  0  0  0  0  0  0  0  0  0  0
    6.7878   -1.9935    0.5611 C   0  0  0  0  0  0  0  0  0  0  0  0
    6.6715   -1.8696    1.9438 C   0  0  0  0  0  0  0  0  0  0  0  0
    5.6263   -1.1270    2.4893 C   0  0  0  0  0  0  0  0  0  0  0  0
    4.6956   -0.5067    1.6508 C   0  0  0  0  0  0  0  0  0  0  0  0
    2.8231    0.7345   -0.0741 O   0  0  0  0  0  0  0  0  0  0  0  0
   -0.7423    0.4022   -1.7986 C   0  0  0  0  0  0  0  0  0  0  0  0
   -1.8849   -0.5428   -1.4061 C   0  0  0  0  0  0  0  0  0  0  0  0
   -2.8831    0.1313   -0.5946 N   0  0  0  0  0  0  0  0  0  0  0  0
   -7.7171   -1.0061    1.0293 H   0  0  0  0  0  0  0  0  0  0  0  0
   -6.6177   -2.6579   -0.4481 H   0  0  0  0  0  0  0  0  0  0  0  0
   -4.3191   -2.2627   -1.2956 H   0  0  0  0  0  0  0  0  0  0  0  0
   -3.9186    2.5510    1.3299 H   0  0  0  0  0  0  0  0  0  0  0  0
   -1.0722    2.5203    0.7921 H   0  0  0  0  0  0  0  0  0  0  0  0
   -1.5317    2.8940   -0.8787 H   0  0  0  0  0  0  0  0  0  0  0  0
    1.1315    2.6693   -0.1200 H   0  0  0  0  0  0  0  0  0  0  0  0
    0.7371    2.6230   -1.8354 H   0  0  0  0  0  0  0  0  0  0  0  0
    5.9639   -1.4796   -1.3563 H   0  0  0  0  0  0  0  0  0  0  0  0
    7.6015   -2.5734    0.1328 H   0  0  0  0  0  0  0  0  0  0  0  0
    7.3945   -2.3531    2.5969 H   0  0  0  0  0  0  0  0  0  0  0  0
    5.5337   -1.0305    3.5687 H   0  0  0  0  0  0  0  0  0  0  0  0
    3.8874    0.0656    2.1014 H   0  0  0  0  0  0  0  0  0  0  0  0
    0.0652   -0.2146   -2.2076 H   0  0  0  0  0  0  0  0  0  0  0  0
   -1.0732    1.0728   -2.6028 H   0  0  0  0  0  0  0  0  0  0  0  0
   -2.3792   -0.9316   -2.3019 H   0  0  0  0  0  0  0  0  0  0  0  0
   -1.5084   -1.3802   -0.8073 H   0  0  0  0  0  0  0  0  0  0  0  0
  1  2  1  0
  2  3  1  0
  3  4  2  0
  4  5  1  0
  5  6  2  0
  6  7  1  0
  7  8  1  0
  8  9  2  0
  9 10  1  0
 10 11  1  0
 11 12  1  0
 12 13  1  0
 13 14  2  0
 14 15  1  0
 15 16  2  0
 16 17  1  0
 17 18  2  0
 18 19  1  0
 19 20  2  0
 20 21  1  0
 21 22  2  0
 16 23  1  0
 11 24  1  0
 24 25  1  0
 25 26  1  0
  7  2  2  0
 26  9  1  0
 26  6  1  0
 23 13  1  0
 22 17  1  0
  3 27  1  0
  4 28  1  0
  5 29  1  0
  8 30  1  0
 10 31  1  0
 10 32  1  0
 12 33  1  0
 12 34  1  0
 18 35  1  0
 19 36  1  0
 20 37  1  0
 21 38  1  0
 22 39  1  0
 24 40  1  0
 24 41  1  0
 25 42  1  0
 25 43  1  0
M  END
$$$$
OCNT-2310178
     RDKit          3D

 39 41  0  0  0  0  0  0  0  0999 V2000
   -1.2134    0.9996   -0.4340 O   0  0  0  0  0  0  0  0  0  0  0  0
   -0.9760   -0.1684   -0.7209 C   0  0  0  0  0  0  0  0  0  0  0  0
    0.2681   -0.7290   -0.5282 N   0  0  0  0  0  0  0  0  0  0  0  0
    1.3135   -0.0211    0.1942 C   0  0  0  0  0  0  0  0  0  0  0  0
    2.6960   -0.6269   -0.0982 C   0  0  0  0  0  0  0  0  0  0  0  0
    2.6744   -2.0261    0.2228 O   0  0  0  0  0  0  0  0  0  0  0  0
    3.8040    0.0622    0.6668 C   0  0  0  0  0  0  0  0  0  0  0  0
    4.6965    0.9168    0.0019 C   0  0  0  0  0  0  0  0  0  0  0  0
    5.7169    1.5645    0.7024 C   0  0  0  0  0  0  0  0  0  0  0  0
    5.8566    1.3678    2.0757 C   0  0  0  0  0  0  0  0  0  0  0  0
    4.9735    0.5247    2.7451 C   0  0  0  0  0  0  0  0  0  0  0  0
    5.1432    0.2805    4.4396 Cl  0  0  0  0  0  0  0  0  0  0  0  0
    3.9520   -0.1245    2.0515 C   0  0  0  0  0  0  0  0  0  0  0  0
   -1.9761   -1.0715   -1.2784 C   0  0  0  0  0  0  0  0  0  0  0  0
   -1.7371   -2.2818   -1.9097 C   0  0  0  0  0  0  0  0  0  0  0  0
   -2.9453   -2.7537   -2.3151 N   0  0  0  0  0  0  0  0  0  0  0  0
   -3.9639   -1.9506   -2.0014 N   0  0  0  0  0  0  0  0  0  0  0  0
   -3.4021   -0.9145   -1.3515 C   0  0  0  0  0  0  0  0  0  0  0  0
   -4.2576    0.1531   -0.8391 C   0  0  0  0  0  0  0  0  0  0  0  0
   -5.3271    0.6265   -1.5965 C   0  0  0  0  0  0  0  0  0  0  0  0
   -6.1806    1.6061   -1.1998 N   0  0  0  0  0  0  0  0  0  0  0  0
   -5.9604    2.1334    0.0223 C   0  0  0  0  0  0  0  0  0  0  0  0
   -4.9386    1.7246    0.8637 C   0  0  0  0  0  0  0  0  0  0  0  0
   -4.0806    0.7158    0.4262 C   0  0  0  0  0  0  0  0  0  0  0  0
    0.3490   -1.7379   -0.5323 H   0  0  0  0  0  0  0  0  0  0  0  0
    1.2878    1.0422   -0.0699 H   0  0  0  0  0  0  0  0  0  0  0  0
    1.0619   -0.1108    1.2576 H   0  0  0  0  0  0  0  0  0  0  0  0
    2.8951   -0.5698   -1.1753 H   0  0  0  0  0  0  0  0  0  0  0  0
    3.6013   -2.3048    0.3317 H   0  0  0  0  0  0  0  0  0  0  0  0
    4.6033    1.0896   -1.0692 H   0  0  0  0  0  0  0  0  0  0  0  0
    6.4022    2.2259    0.1770 H   0  0  0  0  0  0  0  0  0  0  0  0
    6.6513    1.8751    2.6162 H   0  0  0  0  0  0  0  0  0  0  0  0
    3.2680   -0.7782    2.5898 H   0  0  0  0  0  0  0  0  0  0  0  0
   -0.8295   -2.8255   -2.1281 H   0  0  0  0  0  0  0  0  0  0  0  0
   -3.1497   -3.6112   -2.8188 H   0  0  0  0  0  0  0  0  0  0  0  0
   -5.5369    0.2176   -2.5821 H   0  0  0  0  0  0  0  0  0  0  0  0
   -6.6505    2.9174    0.3199 H   0  0  0  0  0  0  0  0  0  0  0  0
   -4.8089    2.1809    1.8384 H   0  0  0  0  0  0  0  0  0  0  0  0
   -3.2805    0.3821    1.0802 H   0  0  0  0  0  0  0  0  0  0  0  0
  1  2  2  0
  2  3  1  0
  3  4  1  0
  4  5  1  0
  5  6  1  0
  5  7  1  0
  7  8  2  0
  8  9  1  0
  9 10  2  0
 10 11  1  0
 11 12  1  0
 11 13  2  0
  2 14  1  0
 14 15  2  0
 15 16  1  0
 16 17  1  0
 17 18  2  0
 18 19  1  0
 19 20  2  0
 20 21  1  0
 21 22  2  0
 22 23  1  0
 23 24  2  0
 13  7  1  0
 18 14  1  0
 24 19  1  0
  3 25  1  0
  4 26  1  0
  4 27  1  0
  5 28  1  0
  6 29  1  0
  8 30  1  0
  9 31  1  0
 10 32  1  0
 13 33  1  0
 15 34  1  0
 16 35  1  0
 20 36  1  0
 22 37  1  0
 23 38  1  0
 24 39  1  0
M  END
$$$$
OCNT-2310180
     RDKit          3D

 42 44  0  0  0  0  0  0  0  0999 V2000
    4.4133    1.9849    0.6972 C   0  0  0  0  0  0  0  0  0  0  0  0
    5.0682    1.0247   -0.2500 C   0  0  0  0  0  0  0  0  0  0  0  0
    6.3538    1.2829   -0.7192 C   0  0  0  0  0  0  0  0  0  0  0  0
    7.0338    0.4844   -1.5715 N   0  0  0  0  0  0  0  0  0  0  0  0
    6.4060   -0.6335   -1.9849 C   0  0  0  0  0  0  0  0  0  0  0  0
    5.1340   -0.9936   -1.5781 C   0  0  0  0  0  0  0  0  0  0  0  0
    4.4480   -0.1555   -0.6919 C   0  0  0  0  0  0  0  0  0  0  0  0
    3.1121   -0.5448   -0.2354 C   0  0  0  0  0  0  0  0  0  0  0  0
    2.7221   -0.9964    1.0073 C   0  0  0  0  0  0  0  0  0  0  0  0
    1.3228   -1.2714    1.0701 C   0  0  0  0  0  0  0  0  0  0  0  0
    0.6753   -1.0210   -0.1280 C   0  0  0  0  0  0  0  0  0  0  0  0
   -0.7288   -1.1589   -0.5003 C   0  0  0  0  0  0  0  0  0  0  0  0
   -1.1657   -0.9757   -1.6349 O   0  0  0  0  0  0  0  0  0  0  0  0
   -1.5857   -1.5062    0.5300 N   0  0  0  0  0  0  0  0  0  0  0  0
   -3.0245   -1.6269    0.3406 C   0  0  0  0  0  0  0  0  0  0  0  0
   -3.8112   -0.3416    0.6638 C   0  0  0  0  0  0  0  0  0  0  0  0
   -3.5862    0.0146    2.0830 C   0  0  0  0  0  0  0  0  0  0  0  0
   -3.3877    0.2656    3.1986 N   0  0  0  0  0  0  0  0  0  0  0  0
   -3.4790    0.8376   -0.2596 C   0  0  0  0  0  0  0  0  0  0  0  0
   -4.6855    1.7702   -0.1587 C   0  0  0  0  0  0  0  0  0  0  0  0
   -5.8706    0.8870    0.2285 C   0  0  0  0  0  0  0  0  0  0  0  0
   -5.3130   -0.5274    0.3931 C   0  0  0  0  0  0  0  0  0  0  0  0
    1.7883   -0.4611   -1.3132 S   0  0  0  0  0  0  0  0  0  0  0  0
    4.3453    1.5460    1.6974 H   0  0  0  0  0  0  0  0  0  0  0  0
    3.4117    2.2543    0.3468 H   0  0  0  0  0  0  0  0  0  0  0  0
    4.9843    2.9162    0.7793 H   0  0  0  0  0  0  0  0  0  0  0  0
    6.8966    2.1745   -0.4144 H   0  0  0  0  0  0  0  0  0  0  0  0
    6.9710   -1.2563   -2.6722 H   0  0  0  0  0  0  0  0  0  0  0  0
    4.6893   -1.9133   -1.9440 H   0  0  0  0  0  0  0  0  0  0  0  0
    3.4092   -1.1278    1.8353 H   0  0  0  0  0  0  0  0  0  0  0  0
    0.8385   -1.6399    1.9650 H   0  0  0  0  0  0  0  0  0  0  0  0
   -1.2243   -1.5837    1.4708 H   0  0  0  0  0  0  0  0  0  0  0  0
   -3.3492   -2.4449    0.9957 H   0  0  0  0  0  0  0  0  0  0  0  0
   -3.2198   -1.9452   -0.6903 H   0  0  0  0  0  0  0  0  0  0  0  0
   -2.5515    1.3557    0.0070 H   0  0  0  0  0  0  0  0  0  0  0  0
   -3.3874    0.4978   -1.2988 H   0  0  0  0  0  0  0  0  0  0  0  0
   -4.8615    2.2976   -1.1018 H   0  0  0  0  0  0  0  0  0  0  0  0
   -4.5190    2.5301    0.6137 H   0  0  0  0  0  0  0  0  0  0  0  0
   -6.3096    1.2406    1.1685 H   0  0  0  0  0  0  0  0  0  0  0  0
   -6.6599    0.9131   -0.5299 H   0  0  0  0  0  0  0  0  0  0  0  0
   -5.8344   -1.0740    1.1868 H   0  0  0  0  0  0  0  0  0  0  0  0
   -5.4691   -1.0786   -0.5432 H   0  0  0  0  0  0  0  0  0  0  0  0
  1  2  1  0
  2  3  2  0
  3  4  1  0
  4  5  2  0
  5  6  1  0
  6  7  2  0
  7  8  1  0
  8  9  2  0
  9 10  1  0
 10 11  2  0
 11 12  1  0
 12 13  2  0
 12 14  1  0
 14 15  1  0
 15 16  1  0
 16 17  1  0
 17 18  3  0
 16 19  1  0
 19 20  1  0
 20 21  1  0
 21 22  1  0
 11 23  1  0
  7  2  1  0
 23  8  1  0
 22 16  1  0
  1 24  1  0
  1 25  1  0
  1 26  1  0
  3 27  1  0
  5 28  1  0
  6 29  1  0
  9 30  1  0
 10 31  1  0
 14 32  1  0
 15 33  1  0
 15 34  1  0
 19 35  1  0
 19 36  1  0
 20 37  1  0
 20 38  1  0
 21 39  1  0
 21 40  1  0
 22 41  1  0
 22 42  1  0
M  END
$$$$
OCNT-2310188
     RDKit          3D

 41 43  0  0  0  0  0  0  0  0999 V2000
   -6.1468    1.6409    0.3366 C   0  0  0  0  0  0  0  0  0  0  0  0
   -5.3539    0.3839   -0.0727 C   0  0  0  0  0  0  0  0  0  0  0  0
   -5.6293    0.1163   -1.5673 C   0  0  0  0  0  0  0  0  0  0  0  0
   -5.8463   -0.8219    0.7457 C   0  0  0  0  0  0  0  0  0  0  0  0
   -3.9222    0.5812    0.1829 N   0  0  0  0  0  0  0  0  0  0  0  0
   -3.4706    1.1042    1.3417 N   0  0  0  0  0  0  0  0  0  0  0  0
   -2.1496    1.0589    1.2520 N   0  0  0  0  0  0  0  0  0  0  0  0
   -1.8634    0.4890    0.0393 C   0  0  0  0  0  0  0  0  0  0  0  0
   -0.4559    0.2647   -0.4254 C   0  0  0  0  0  0  0  0  0  0  0  0
    0.4887   -0.2380    0.5841 N   0  0  0  0  0  0  0  0  0  0  0  0
    1.8568   -0.2546    0.3080 C   0  0  0  0  0  0  0  0  0  0  0  0
    2.3864   -0.3176   -0.9840 C   0  0  0  0  0  0  0  0  0  0  0  0
    3.7695   -0.4061   -1.2005 C   0  0  0  0  0  0  0  0  0  0  0  0
    4.6621   -0.4619   -0.1252 C   0  0  0  0  0  0  0  0  0  0  0  0
    6.0927   -0.5584   -0.3623 C   0  0  0  0  0  0  0  0  0  0  0  0
    7.0776   -0.1176    0.4973 C   0  0  0  0  0  0  0  0  0  0  0  0
    8.2702   -0.3840   -0.1112 N   0  0  0  0  0  0  0  0  0  0  0  0
    8.1396   -0.9659   -1.3133 N   0  0  0  0  0  0  0  0  0  0  0  0
    6.8165   -1.0715   -1.4653 C   0  0  0  0  0  0  0  0  0  0  0  0
    4.1369   -0.4448    1.1701 C   0  0  0  0  0  0  0  0  0  0  0  0
    2.7541   -0.3569    1.3784 C   0  0  0  0  0  0  0  0  0  0  0  0
   -2.9576    0.1753   -0.6730 N   0  0  0  0  0  0  0  0  0  0  0  0
   -6.0566    1.8477    1.4094 H   0  0  0  0  0  0  0  0  0  0  0  0
   -5.7875    2.5265   -0.2009 H   0  0  0  0  0  0  0  0  0  0  0  0
   -7.2143    1.5248    0.1167 H   0  0  0  0  0  0  0  0  0  0  0  0
   -6.7028    0.0014   -1.7570 H   0  0  0  0  0  0  0  0  0  0  0  0
   -5.1379   -0.8016   -1.9110 H   0  0  0  0  0  0  0  0  0  0  0  0
   -5.2673    0.9414   -2.1920 H   0  0  0  0  0  0  0  0  0  0  0  0
   -5.2968   -1.7327    0.4792 H   0  0  0  0  0  0  0  0  0  0  0  0
   -6.9119   -1.0101    0.5729 H   0  0  0  0  0  0  0  0  0  0  0  0
   -5.7076   -0.6606    1.8212 H   0  0  0  0  0  0  0  0  0  0  0  0
   -0.0943    1.2260   -0.8131 H   0  0  0  0  0  0  0  0  0  0  0  0
   -0.4839   -0.4416   -1.2644 H   0  0  0  0  0  0  0  0  0  0  0  0
    0.2818    0.1460    1.5049 H   0  0  0  0  0  0  0  0  0  0  0  0
    1.7401   -0.3048   -1.8564 H   0  0  0  0  0  0  0  0  0  0  0  0
    4.1306   -0.4296   -2.2258 H   0  0  0  0  0  0  0  0  0  0  0  0
    7.0445    0.3629    1.4643 H   0  0  0  0  0  0  0  0  0  0  0  0
    9.2060   -0.1931    0.2314 H   0  0  0  0  0  0  0  0  0  0  0  0
    6.4335   -1.5224   -2.3716 H   0  0  0  0  0  0  0  0  0  0  0  0
    4.7870   -0.5224    2.0375 H   0  0  0  0  0  0  0  0  0  0  0  0
    2.3816   -0.3730    2.4002 H   0  0  0  0  0  0  0  0  0  0  0  0
  1  2  1  0
  2  3  1  0
  2  4  1  0
  2  5  1  0
  5  6  1  0
  6  7  2  0
  7  8  1  0
  8  9  1  0
  9 10  1  0
 10 11  1  0
 11 12  1  0
 12 13  2  0
 13 14  1  0
 14 15  1  0
 15 16  2  0
 16 17  1  0
 17 18  1  0
 18 19  2  0
 14 20  2  0
 20 21  1  0
  8 22  2  0
 22  5  1  0
 21 11  2  0
 19 15  1  0
  1 23  1  0
  1 24  1  0
  1 25  1  0
  3 26  1  0
  3 27  1  0
  3 28  1  0
  4 29  1  0
  4 30  1  0
  4 31  1  0
  9 32  1  0
  9 33  1  0
 10 34  1  0
 12 35  1  0
 13 36  1  0
 16 37  1  0
 17 38  1  0
 19 39  1  0
 20 40  1  0
 21 41  1  0
M  END
$$$$
OCNT-2310193
     RDKit          3D

 45 48  0  0  0  0  0  0  0  0999 V2000
   -1.5177   -1.9174    1.0001 O   0  0  0  0  0  0  0  0  0  0  0  0
   -1.2454   -1.1556    0.0784 C   0  0  0  0  0  0  0  0  0  0  0  0
   -2.1666   -0.6490   -0.8158 N   0  0  0  0  0  0  0  0  0  0  0  0
   -3.5854   -0.8321   -0.6655 C   0  0  0  0  0  0  0  0  0  0  0  0
   -4.2365    0.2362    0.2107 C   0  0  0  0  0  0  0  0  0  0  0  0
   -4.4809   -0.0266    1.5745 C   0  0  0  0  0  0  0  0  0  0  0  0
   -5.0662    0.9215    2.4180 C   0  0  0  0  0  0  0  0  0  0  0  0
   -5.4164    2.1717    1.9202 C   0  0  0  0  0  0  0  0  0  0  0  0
   -5.1685    2.4749    0.5841 C   0  0  0  0  0  0  0  0  0  0  0  0
   -4.5785    1.5224   -0.2562 C   0  0  0  0  0  0  0  0  0  0  0  0
   -4.2474    2.0005   -1.8882 Cl  0  0  0  0  0  0  0  0  0  0  0  0
   -4.1629   -2.2390   -0.6662 C   0  0  0  0  0  0  0  0  0  0  0  0
   -4.3664   -1.3648   -1.8586 C   0  0  0  0  0  0  0  0  0  0  0  0
    0.1609   -0.7575   -0.1466 C   0  0  0  0  0  0  0  0  0  0  0  0
    0.5348    0.4681   -0.6864 C   0  0  0  0  0  0  0  0  0  0  0  0
    1.8937    0.7489   -0.8530 C   0  0  0  0  0  0  0  0  0  0  0  0
    2.8620   -0.1853   -0.4744 C   0  0  0  0  0  0  0  0  0  0  0  0
    4.2140    0.0799   -0.6684 N   0  0  0  0  0  0  0  0  0  0  0  0
    5.1280   -1.0510   -0.4283 C   0  0  0  0  0  0  0  0  0  0  0  0
    6.5709   -0.6035   -0.7129 C   0  0  0  0  0  0  0  0  0  0  0  0
    7.0204    0.4910    0.1056 O   0  0  0  0  0  0  0  0  0  0  0  0
    5.9443    1.2394    0.6877 C   0  0  0  0  0  0  0  0  0  0  0  0
    4.7301    1.3954   -0.2454 C   0  0  0  0  0  0  0  0  0  0  0  0
    2.4932   -1.3774    0.0426 N   0  0  0  0  0  0  0  0  0  0  0  0
    1.1705   -1.6335    0.2132 C   0  0  0  0  0  0  0  0  0  0  0  0
   -1.8634   -0.0909   -1.6030 H   0  0  0  0  0  0  0  0  0  0  0  0
   -4.1931   -0.9931    1.9894 H   0  0  0  0  0  0  0  0  0  0  0  0
   -5.2396    0.6800    3.4638 H   0  0  0  0  0  0  0  0  0  0  0  0
   -5.8699    2.9119    2.5761 H   0  0  0  0  0  0  0  0  0  0  0  0
   -5.4288    3.4583    0.2006 H   0  0  0  0  0  0  0  0  0  0  0  0
   -3.4731   -3.0718   -0.7491 H   0  0  0  0  0  0  0  0  0  0  0  0
   -5.0242   -2.4536   -0.0444 H   0  0  0  0  0  0  0  0  0  0  0  0
   -5.3688   -0.9926   -2.0394 H   0  0  0  0  0  0  0  0  0  0  0  0
   -3.8242   -1.6134   -2.7633 H   0  0  0  0  0  0  0  0  0  0  0  0
   -0.1984    1.2189   -0.9632 H   0  0  0  0  0  0  0  0  0  0  0  0
    2.1893    1.6930   -1.2985 H   0  0  0  0  0  0  0  0  0  0  0  0
    4.8792   -1.8886   -1.0918 H   0  0  0  0  0  0  0  0  0  0  0  0
    5.0540   -1.3909    0.6133 H   0  0  0  0  0  0  0  0  0  0  0  0
    7.2621   -1.4361   -0.5545 H   0  0  0  0  0  0  0  0  0  0  0  0
    6.6707   -0.2888   -1.7582 H   0  0  0  0  0  0  0  0  0  0  0  0
    5.6512    0.7426    1.6208 H   0  0  0  0  0  0  0  0  0  0  0  0
    6.3385    2.2249    0.9564 H   0  0  0  0  0  0  0  0  0  0  0  0
    3.9747    1.9963    0.2752 H   0  0  0  0  0  0  0  0  0  0  0  0
    5.0325    1.9401   -1.1480 H   0  0  0  0  0  0  0  0  0  0  0  0
    0.9472   -2.6035    0.6511 H   0  0  0  0  0  0  0  0  0  0  0  0
  1  2  2  0
  2  3  1  0
  3  4  1  0
  4  5  1  0
  5  6  2  0
  6  7  1  0
  7  8  2  0
  8  9  1  0
  9 10  2  0
 10 11  1  0
  4 12  1  0
 12 13  1  0
  2 14  1  0
 14 15  2  0
 15 16  1  0
 16 17  2  0
 17 18  1  0
 18 19  1  0
 19 20  1  0
 20 21  1  0
 21 22  1  0
 22 23  1  0
 17 24  1  0
 24 25  2  0
 13  4  1  0
 25 14  1  0
 10  5  1  0
 23 18  1  0
  3 26  1  0
  6 27  1  0
  7 28  1  0
  8 29  1  0
  9 30  1  0
 12 31  1  0
 12 32  1  0
 13 33  1  0
 13 34  1  0
 15 35  1  0
 16 36  1  0
 19 37  1  0
 19 38  1  0
 20 39  1  0
 20 40  1  0
 22 41  1  0
 22 42  1  0
 23 43  1  0
 23 44  1  0
 25 45  1  0
M  END
$$$$
OCNT-2310197
     RDKit          3D

 38 41  0  0  0  0  0  0  0  0999 V2000
    5.9820   -0.8881   -0.4007 C   0  0  0  0  0  0  0  0  0  0  0  0
    4.4923   -1.0040   -0.1187 C   0  0  0  0  0  0  0  0  0  0  0  0
    3.8825    0.2891    0.2898 C   0  0  0  0  0  0  0  0  0  0  0  0
    4.4673    1.4672    0.4055 N   0  0  0  0  0  0  0  0  0  0  0  0
    3.5191    2.3798    0.8119 N   0  0  0  0  0  0  0  0  0  0  0  0
    2.3772    1.7405    0.9339 C   0  0  0  0  0  0  0  0  0  0  0  0
    1.0888    2.1510    1.3223 C   0  0  0  0  0  0  0  0  0  0  0  0
    0.1021    1.2475    1.3375 C   0  0  0  0  0  0  0  0  0  0  0  0
    0.4079   -0.1582    0.9255 C   0  0  0  0  0  0  0  0  0  0  0  0
   -0.5847   -1.1104    0.9361 N   0  0  0  0  0  0  0  0  0  0  0  0
   -1.4833   -1.2530   -0.2132 C   0  0  0  0  0  0  0  0  0  0  0  0
   -2.5384   -2.3347    0.1106 C   0  0  0  0  0  0  0  0  0  0  0  0
   -3.6931   -1.6127    0.8249 C   0  0  0  0  0  0  0  0  0  0  0  0
   -3.6337   -0.2696    0.1680 C   0  0  0  0  0  0  0  0  0  0  0  0
   -4.6186    0.7036    0.1230 C   0  0  0  0  0  0  0  0  0  0  0  0
   -4.3410    1.8865   -0.5636 C   0  0  0  0  0  0  0  0  0  0  0  0
   -5.5406    3.1188   -0.6487 Cl  0  0  0  0  0  0  0  0  0  0  0  0
   -3.1015    2.0867   -1.1899 C   0  0  0  0  0  0  0  0  0  0  0  0
   -2.1110    1.1025   -1.1281 C   0  0  0  0  0  0  0  0  0  0  0  0
   -2.3826   -0.0665   -0.4303 C   0  0  0  0  0  0  0  0  0  0  0  0
    1.6016   -0.5754    0.5951 N   0  0  0  0  0  0  0  0  0  0  0  0
    2.5498    0.4120    0.6098 N   0  0  0  0  0  0  0  0  0  0  0  0
    6.1782   -0.1785   -1.2118 H   0  0  0  0  0  0  0  0  0  0  0  0
    6.5281   -0.5474    0.4856 H   0  0  0  0  0  0  0  0  0  0  0  0
    6.3884   -1.8607   -0.6960 H   0  0  0  0  0  0  0  0  0  0  0  0
    3.9876   -1.3754   -1.0183 H   0  0  0  0  0  0  0  0  0  0  0  0
    4.3373   -1.7457    0.6736 H   0  0  0  0  0  0  0  0  0  0  0  0
    0.9266    3.1817    1.6137 H   0  0  0  0  0  0  0  0  0  0  0  0
   -0.9062    1.4865    1.6499 H   0  0  0  0  0  0  0  0  0  0  0  0
   -0.1085   -2.0072    1.0295 H   0  0  0  0  0  0  0  0  0  0  0  0
   -0.9246   -1.5184   -1.1177 H   0  0  0  0  0  0  0  0  0  0  0  0
   -2.9159   -2.7578   -0.8316 H   0  0  0  0  0  0  0  0  0  0  0  0
   -2.1474   -3.1673    0.7052 H   0  0  0  0  0  0  0  0  0  0  0  0
   -4.6458   -2.1214    0.6535 H   0  0  0  0  0  0  0  0  0  0  0  0
   -3.5035   -1.5187    1.8990 H   0  0  0  0  0  0  0  0  0  0  0  0
   -5.5803    0.5474    0.6010 H   0  0  0  0  0  0  0  0  0  0  0  0
   -2.9054    3.0122   -1.7262 H   0  0  0  0  0  0  0  0  0  0  0  0
   -1.1508    1.2585   -1.6115 H   0  0  0  0  0  0  0  0  0  0  0  0
  1  2  1  0
  2  3  1  0
  3  4  2  0
  4  5  1  0
  5  6  2  0
  6  7  1  0
  7  8  2  0
  8  9  1  0
  9 10  1  0
 10 11  1  0
 11 12  1  0
 12 13  1  0
 13 14  1  0
 14 15  1  0
 15 16  2  0
 16 17  1  0
 16 18  1  0
 18 19  2  0
 19 20  1  0
  9 21  2  0
 21 22  1  0
 22  3  1  0
 22  6  1  0
 20 11  1  0
 20 14  2  0
  1 23  1  0
  1 24  1  0
  1 25  1  0
  2 26  1  0
  2 27  1  0
  7 28  1  0
  8 29  1  0
 10 30  1  0
 11 31  1  0
 12 32  1  0
 12 33  1  0
 13 34  1  0
 13 35  1  0
 15 36  1  0
 18 37  1  0
 19 38  1  0
M  END
$$$$
OCNT-2310201
     RDKit          3D

 50 52  0  0  0  0  0  0  0  0999 V2000
    8.8042   -0.9290   -0.3586 C   0  0  0  0  0  0  0  0  0  0  0  0
    7.3712   -0.5558   -0.1331 C   0  0  0  0  0  0  0  0  0  0  0  0
    6.6575   -0.9808    0.9215 C   0  0  0  0  0  0  0  0  0  0  0  0
    5.3268   -0.6217    1.1091 N   0  0  0  0  0  0  0  0  0  0  0  0
    4.6486   -1.0922    2.2220 C   0  0  0  0  0  0  0  0  0  0  0  0
    5.1209   -1.8133    3.1001 O   0  0  0  0  0  0  0  0  0  0  0  0
    3.2439   -0.6708    2.3388 C   0  0  0  0  0  0  0  0  0  0  0  0
    2.7219    0.1265    1.3997 C   0  0  0  0  0  0  0  0  0  0  0  0
    1.2706    0.5734    1.4754 C   0  0  0  0  0  0  0  0  0  0  0  0
    0.5847    0.0614    0.2934 N   0  0  0  0  0  0  0  0  0  0  0  0
   -0.7136    0.5008    0.0133 C   0  0  0  0  0  0  0  0  0  0  0  0
   -1.6078    0.9509    0.9895 C   0  0  0  0  0  0  0  0  0  0  0  0
   -2.9219    1.3091    0.6615 C   0  0  0  0  0  0  0  0  0  0  0  0
   -3.3865    1.1942   -0.6518 C   0  0  0  0  0  0  0  0  0  0  0  0
   -4.8034    1.5712   -1.0051 C   0  0  0  0  0  0  0  0  0  0  0  0
   -5.6999    0.3741   -1.3512 C   0  0  0  0  0  0  0  0  0  0  0  0
   -5.9431   -0.6239   -0.2010 C   0  0  0  0  0  0  0  0  0  0  0  0
   -6.7507   -1.8183   -0.7175 C   0  0  0  0  0  0  0  0  0  0  0  0
   -6.6729    0.0161    0.9808 C   0  0  0  0  0  0  0  0  0  0  0  0
   -2.5131    0.7052   -1.6269 C   0  0  0  0  0  0  0  0  0  0  0  0
   -1.2020    0.3504   -1.2913 C   0  0  0  0  0  0  0  0  0  0  0  0
    3.4346    0.5797    0.3124 N   0  0  0  0  0  0  0  0  0  0  0  0
    4.6719    0.2019    0.2034 C   0  0  0  0  0  0  0  0  0  0  0  0
    5.4608    0.6760   -0.9665 C   0  0  0  0  0  0  0  0  0  0  0  0
    6.7389    0.3052   -1.1073 C   0  0  0  0  0  0  0  0  0  0  0  0
    9.4356   -0.0344   -0.3840 H   0  0  0  0  0  0  0  0  0  0  0  0
    9.1848   -1.5815    0.4346 H   0  0  0  0  0  0  0  0  0  0  0  0
    8.9181   -1.4617   -1.3088 H   0  0  0  0  0  0  0  0  0  0  0  0
    7.0936   -1.6295    1.6778 H   0  0  0  0  0  0  0  0  0  0  0  0
    2.6874   -1.0411    3.1889 H   0  0  0  0  0  0  0  0  0  0  0  0
    1.2404    1.6699    1.5018 H   0  0  0  0  0  0  0  0  0  0  0  0
    0.7967    0.1913    2.3870 H   0  0  0  0  0  0  0  0  0  0  0  0
    1.1923    0.1459   -0.5222 H   0  0  0  0  0  0  0  0  0  0  0  0
   -1.3073    1.0302    2.0292 H   0  0  0  0  0  0  0  0  0  0  0  0
   -3.5816    1.6659    1.4489 H   0  0  0  0  0  0  0  0  0  0  0  0
   -4.7661    2.2445   -1.8718 H   0  0  0  0  0  0  0  0  0  0  0  0
   -5.2523    2.1648   -0.2003 H   0  0  0  0  0  0  0  0  0  0  0  0
   -5.2659   -0.1642   -2.2038 H   0  0  0  0  0  0  0  0  0  0  0  0
   -6.6667    0.7626   -1.6973 H   0  0  0  0  0  0  0  0  0  0  0  0
   -4.9801   -1.0088    0.1553 H   0  0  0  0  0  0  0  0  0  0  0  0
   -6.9029   -2.5576    0.0760 H   0  0  0  0  0  0  0  0  0  0  0  0
   -6.2261   -2.3164   -1.5397 H   0  0  0  0  0  0  0  0  0  0  0  0
   -7.7349   -1.5054   -1.0827 H   0  0  0  0  0  0  0  0  0  0  0  0
   -6.0695    0.7993    1.4482 H   0  0  0  0  0  0  0  0  0  0  0  0
   -7.6237    0.4600    0.6670 H   0  0  0  0  0  0  0  0  0  0  0  0
   -6.8883   -0.7302    1.7533 H   0  0  0  0  0  0  0  0  0  0  0  0
   -2.8459    0.5868   -2.6552 H   0  0  0  0  0  0  0  0  0  0  0  0
   -0.5557   -0.0500   -2.0686 H   0  0  0  0  0  0  0  0  0  0  0  0
    4.9579    1.3199   -1.6769 H   0  0  0  0  0  0  0  0  0  0  0  0
    7.3184    0.6490   -1.9590 H   0  0  0  0  0  0  0  0  0  0  0  0
  1  2  1  0
  2  3  2  0
  3  4  1  0
  4  5  1  0
  5  6  2  0
  5  7  1  0
  7  8  2  0
  8  9  1  0
  9 10  1  0
 10 11  1  0
 11 12  1  0
 12 13  2  0
 13 14  1  0
 14 15  1  0
 15 16  1  0
 16 17  1  0
 17 18  1  0
 17 19  1  0
 14 20  2  0
 20 21  1  0
  8 22  1  0
 22 23  2  0
 23 24  1  0
 24 25  2  0
 25  2  1  0
 23  4  1  0
 21 11  2  0
  1 26  1  0
  1 27  1  0
  1 28  1  0
  3 29  1  0
  7 30  1  0
  9 31  1  0
  9 32  1  0
 10 33  1  0
 12 34  1  0
 13 35  1  0
 15 36  1  0
 15 37  1  0
 16 38  1  0
 16 39  1  0
 17 40  1  0
 18 41  1  0
 18 42  1  0
 18 43  1  0
 19 44  1  0
 19 45  1  0
 19 46  1  0
 20 47  1  0
 21 48  1  0
 24 49  1  0
 25 50  1  0
M  END
$$$$
OCNT-2310214
     RDKit          3D

 42 44  0  0  0  0  0  0  0  0999 V2000
    2.5915    3.9894   -1.6370 N   0  0  0  0  0  0  0  0  0  0  0  0
    2.7638    2.6361   -1.6638 C   0  0  0  0  0  0  0  0  0  0  0  0
    3.5450    2.1140   -2.4489 O   0  0  0  0  0  0  0  0  0  0  0  0
    1.9178    1.8871   -0.6687 C   0  0  0  0  0  0  0  0  0  0  0  0
    2.1593    0.3881   -0.7494 C   0  0  0  0  0  0  0  0  0  0  0  0
    1.3628   -0.2297    0.2625 O   0  0  0  0  0  0  0  0  0  0  0  0
    1.3611   -1.6039    0.3101 C   0  0  0  0  0  0  0  0  0  0  0  0
    2.1416   -2.4403   -0.4914 C   0  0  0  0  0  0  0  0  0  0  0  0
    2.0438   -3.8277   -0.3584 C   0  0  0  0  0  0  0  0  0  0  0  0
    1.1730   -4.3841    0.5762 C   0  0  0  0  0  0  0  0  0  0  0  0
    0.3925   -3.5553    1.3824 C   0  0  0  0  0  0  0  0  0  0  0  0
    0.4714   -2.1637    1.2554 C   0  0  0  0  0  0  0  0  0  0  0  0
   -0.3094   -1.3082    2.0733 N   0  0  0  0  0  0  0  0  0  0  0  0
   -1.7591   -1.4611    1.9200 C   0  0  0  0  0  0  0  0  0  0  0  0
   -2.3424   -1.1806    0.5718 C   0  0  0  0  0  0  0  0  0  0  0  0
   -2.8333   -2.1264   -0.3101 C   0  0  0  0  0  0  0  0  0  0  0  0
   -3.2481   -1.4506   -1.4129 N   0  0  0  0  0  0  0  0  0  0  0  0
   -3.0916   -0.1258   -1.3163 N   0  0  0  0  0  0  0  0  0  0  0  0
   -2.5166    0.0551   -0.1164 C   0  0  0  0  0  0  0  0  0  0  0  0
   -2.1287    1.5183    0.3400 C   0  0  0  0  0  0  0  0  0  0  0  0
   -2.3620    2.6294   -0.4513 C   0  0  0  0  0  0  0  0  0  0  0  0
   -1.9096    3.8386    0.1569 C   0  0  0  0  0  0  0  0  0  0  0  0
   -1.3533    3.5885    1.3844 C   0  0  0  0  0  0  0  0  0  0  0  0
   -0.6131    4.9482    2.5034 Br  0  0  0  0  0  0  0  0  0  0  0  0
   -1.3823    1.9514    1.8119 S   0  0  0  0  0  0  0  0  0  0  0  0
    3.1664    4.5480   -2.2542 H   0  0  0  0  0  0  0  0  0  0  0  0
    2.0429    4.4568   -0.9284 H   0  0  0  0  0  0  0  0  0  0  0  0
    2.1422    2.2505    0.3411 H   0  0  0  0  0  0  0  0  0  0  0  0
    0.8622    2.1042   -0.8648 H   0  0  0  0  0  0  0  0  0  0  0  0
    1.8668    0.0233   -1.7420 H   0  0  0  0  0  0  0  0  0  0  0  0
    3.2197    0.1707   -0.5727 H   0  0  0  0  0  0  0  0  0  0  0  0
    2.8365   -2.0460   -1.2249 H   0  0  0  0  0  0  0  0  0  0  0  0
    2.6557   -4.4749   -0.9817 H   0  0  0  0  0  0  0  0  0  0  0  0
    1.1093   -5.4634    0.6863 H   0  0  0  0  0  0  0  0  0  0  0  0
   -0.2612   -4.0001    2.1266 H   0  0  0  0  0  0  0  0  0  0  0  0
   -0.0394   -0.3510    1.8311 H   0  0  0  0  0  0  0  0  0  0  0  0
   -2.0561   -2.4681    2.2419 H   0  0  0  0  0  0  0  0  0  0  0  0
   -2.2414   -0.7980    2.6485 H   0  0  0  0  0  0  0  0  0  0  0  0
   -2.9006   -3.2034   -0.2478 H   0  0  0  0  0  0  0  0  0  0  0  0
   -3.6508   -1.8270   -2.2652 H   0  0  0  0  0  0  0  0  0  0  0  0
   -2.8329    2.5713   -1.4263 H   0  0  0  0  0  0  0  0  0  0  0  0
   -1.9933    4.8205   -0.2913 H   0  0  0  0  0  0  0  0  0  0  0  0
  1  2  1  0
  2  3  2  0
  2  4  1  0
  4  5  1  0
  5  6  1  0
  6  7  1  0
  7  8  2  0
  8  9  1  0
  9 10  2  0
 10 11  1  0
 11 12  2  0
 12 13  1  0
 13 14  1  0
 14 15  1  0
 15 16  2  0
 16 17  1  0
 17 18  1  0
 18 19  2  0
 19 20  1  0
 20 21  2  0
 21 22  1  0
 22 23  2  0
 23 24  1  0
 23 25  1  0
 12  7  1  0
 19 15  1  0
 25 20  1  0
  1 26  1  0
  1 27  1  0
  4 28  1  0
  4 29  1  0
  5 30  1  0
  5 31  1  0
  8 32  1  0
  9 33  1  0
 10 34  1  0
 11 35  1  0
 13 36  1  0
 14 37  1  0
 14 38  1  0
 16 39  1  0
 17 40  1  0
 21 41  1  0
 22 42  1  0
M  END
$$$$
OCNT-2310222
     RDKit          3D

 38 40  0  0  0  0  0  0  0  0999 V2000
    1.4851    2.0921    0.8733 O   0  0  0  0  0  0  0  0  0  0  0  0
    1.0975    1.2557    0.0683 C   0  0  0  0  0  0  0  0  0  0  0  0
   -0.1586    0.6980    0.0792 N   0  0  0  0  0  0  0  0  0  0  0  0
   -1.1086    1.1809    1.0538 C   0  0  0  0  0  0  0  0  0  0  0  0
   -2.4480    0.6720    0.6828 C   0  0  0  0  0  0  0  0  0  0  0  0
   -3.5014    1.3097    0.0559 C   0  0  0  0  0  0  0  0  0  0  0  0
   -4.5695    0.3849   -0.0626 C   0  0  0  0  0  0  0  0  0  0  0  0
   -5.8707    0.4606   -0.5934 C   0  0  0  0  0  0  0  0  0  0  0  0
   -6.6951   -0.6686   -0.5433 C   0  0  0  0  0  0  0  0  0  0  0  0
   -6.2366   -1.8588    0.0213 C   0  0  0  0  0  0  0  0  0  0  0  0
   -4.9482   -1.9548    0.5574 C   0  0  0  0  0  0  0  0  0  0  0  0
   -4.1372   -0.8158    0.5025 C   0  0  0  0  0  0  0  0  0  0  0  0
   -2.8479   -0.6171    0.9441 N   0  0  0  0  0  0  0  0  0  0  0  0
    1.8279    0.8047   -0.9972 N   0  0  0  0  0  0  0  0  0  0  0  0
    3.1339    1.3409   -1.3029 C   0  0  0  0  0  0  0  0  0  0  0  0
    4.2479    0.6059   -0.6114 C   0  0  0  0  0  0  0  0  0  0  0  0
    4.6271    0.9457    0.6962 C   0  0  0  0  0  0  0  0  0  0  0  0
    5.7003    0.3009    1.3167 C   0  0  0  0  0  0  0  0  0  0  0  0
    6.4009   -0.7018    0.6409 C   0  0  0  0  0  0  0  0  0  0  0  0
    6.0172   -1.0522   -0.6498 C   0  0  0  0  0  0  0  0  0  0  0  0
    6.6975   -2.0073   -1.2967 F   0  0  0  0  0  0  0  0  0  0  0  0
    4.9492   -0.4105   -1.2659 C   0  0  0  0  0  0  0  0  0  0  0  0
    4.6118   -0.7474   -2.5216 F   0  0  0  0  0  0  0  0  0  0  0  0
   -0.5337    0.5851   -0.8493 H   0  0  0  0  0  0  0  0  0  0  0  0
   -1.1004    2.2750    1.0618 H   0  0  0  0  0  0  0  0  0  0  0  0
   -0.7974    0.8346    2.0439 H   0  0  0  0  0  0  0  0  0  0  0  0
   -3.5080    2.3368   -0.2776 H   0  0  0  0  0  0  0  0  0  0  0  0
   -6.2291    1.3879   -1.0304 H   0  0  0  0  0  0  0  0  0  0  0  0
   -7.7047   -0.6144   -0.9467 H   0  0  0  0  0  0  0  0  0  0  0  0
   -6.8945   -2.7243    0.0483 H   0  0  0  0  0  0  0  0  0  0  0  0
   -4.6016   -2.8855    0.9968 H   0  0  0  0  0  0  0  0  0  0  0  0
   -2.2809   -1.3227    1.3944 H   0  0  0  0  0  0  0  0  0  0  0  0
    1.6083   -0.1251   -1.3315 H   0  0  0  0  0  0  0  0  0  0  0  0
    3.1705    2.4060   -1.0341 H   0  0  0  0  0  0  0  0  0  0  0  0
    3.2555    1.2892   -2.3886 H   0  0  0  0  0  0  0  0  0  0  0  0
    4.0965    1.7303    1.2336 H   0  0  0  0  0  0  0  0  0  0  0  0
    5.9940    0.5997    2.3246 H   0  0  0  0  0  0  0  0  0  0  0  0
    7.2511   -1.1917    1.1072 H   0  0  0  0  0  0  0  0  0  0  0  0
  1  2  2  0
  2  3  1  0
  3  4  1  0
  4  5  1  0
  5  6  2  0
  6  7  1  0
  7  8  2  0
  8  9  1  0
  9 10  2  0
 10 11  1  0
 11 12  2  0
 12 13  1  0
  2 14  1  0
 14 15  1  0
 15 16  1  0
 16 17  2  0
 17 18  1  0
 18 19  2  0
 19 20  1  0
 20 21  1  0
 20 22  2  0
 22 23  1  0
 13  5  1  0
 22 16  1  0
 12  7  1  0
  3 24  1  0
  4 25  1  0
  4 26  1  0
  6 27  1  0
  8 28  1  0
  9 29  1  0
 10 30  1  0
 11 31  1  0
 13 32  1  0
 14 33  1  0
 15 34  1  0
 15 35  1  0
 17 36  1  0
 18 37  1  0
 19 38  1  0
M  END
$$$$
OCNT-2310250
     RDKit          3D

 45 48  0  0  0  0  0  0  0  0999 V2000
    5.1856    1.7121   -0.6757 C   0  0  0  0  0  0  0  0  0  0  0  0
    5.1523    1.3865    0.7668 C   0  0  0  0  0  0  0  0  0  0  0  0
    6.1739    1.6356    1.6566 C   0  0  0  0  0  0  0  0  0  0  0  0
    5.8238    1.2258    2.8927 O   0  0  0  0  0  0  0  0  0  0  0  0
    4.5562    0.6949    2.8504 N   0  0  0  0  0  0  0  0  0  0  0  0
    4.1465    0.7843    1.5770 C   0  0  0  0  0  0  0  0  0  0  0  0
    2.8838    0.3032    1.3054 N   0  0  0  0  0  0  0  0  0  0  0  0
    2.2260    0.2426    0.1004 C   0  0  0  0  0  0  0  0  0  0  0  0
    2.6594    0.5955   -0.9883 O   0  0  0  0  0  0  0  0  0  0  0  0
    0.8374   -0.3484    0.2617 C   0  0  0  0  0  0  0  0  0  0  0  0
    0.0718   -0.3737   -1.0581 C   0  0  0  0  0  0  0  0  0  0  0  0
   -1.3030   -0.9514   -0.8916 C   0  0  0  0  0  0  0  0  0  0  0  0
   -2.4386   -0.2909   -0.4363 C   0  0  0  0  0  0  0  0  0  0  0  0
   -2.6464    1.0920   -0.0204 C   0  0  0  0  0  0  0  0  0  0  0  0
   -3.0655    1.3802    1.2865 C   0  0  0  0  0  0  0  0  0  0  0  0
   -3.2628    2.7032    1.6863 C   0  0  0  0  0  0  0  0  0  0  0  0
   -3.0437    3.7332    0.7792 C   0  0  0  0  0  0  0  0  0  0  0  0
   -3.2345    5.0017    1.1638 F   0  0  0  0  0  0  0  0  0  0  0  0
   -2.6307    3.4663   -0.5202 C   0  0  0  0  0  0  0  0  0  0  0  0
   -2.4316    2.1437   -0.9209 C   0  0  0  0  0  0  0  0  0  0  0  0
   -3.4639   -1.2077   -0.4224 N   0  0  0  0  0  0  0  0  0  0  0  0
   -3.0288   -2.4410   -0.8405 C   0  0  0  0  0  0  0  0  0  0  0  0
   -3.7280   -3.6467   -0.9720 C   0  0  0  0  0  0  0  0  0  0  0  0
   -3.0169   -4.7614   -1.4248 C   0  0  0  0  0  0  0  0  0  0  0  0
   -1.6625   -4.6697   -1.7339 C   0  0  0  0  0  0  0  0  0  0  0  0
   -0.9809   -3.4545   -1.5976 C   0  0  0  0  0  0  0  0  0  0  0  0
   -1.6755   -2.3137   -1.1437 C   0  0  0  0  0  0  0  0  0  0  0  0
    6.1224    2.2150   -0.9420 H   0  0  0  0  0  0  0  0  0  0  0  0
    4.3716    2.3932   -0.9414 H   0  0  0  0  0  0  0  0  0  0  0  0
    5.1249    0.8041   -1.2828 H   0  0  0  0  0  0  0  0  0  0  0  0
    7.1567    2.0751    1.5706 H   0  0  0  0  0  0  0  0  0  0  0  0
    2.4250   -0.0492    2.1354 H   0  0  0  0  0  0  0  0  0  0  0  0
    0.9400   -1.3668    0.6564 H   0  0  0  0  0  0  0  0  0  0  0  0
    0.2933    0.2479    1.0046 H   0  0  0  0  0  0  0  0  0  0  0  0
    0.6296   -0.9577   -1.8010 H   0  0  0  0  0  0  0  0  0  0  0  0
    0.0036    0.6388   -1.4730 H   0  0  0  0  0  0  0  0  0  0  0  0
   -3.2266    0.5782    2.0032 H   0  0  0  0  0  0  0  0  0  0  0  0
   -3.5826    2.9368    2.6967 H   0  0  0  0  0  0  0  0  0  0  0  0
   -2.4673    4.2855   -1.2126 H   0  0  0  0  0  0  0  0  0  0  0  0
   -2.1139    1.9370   -1.9407 H   0  0  0  0  0  0  0  0  0  0  0  0
   -4.4139   -0.9998   -0.1501 H   0  0  0  0  0  0  0  0  0  0  0  0
   -4.7837   -3.7209   -0.7324 H   0  0  0  0  0  0  0  0  0  0  0  0
   -3.5302   -5.7136   -1.5383 H   0  0  0  0  0  0  0  0  0  0  0  0
   -1.1274   -5.5485   -2.0859 H   0  0  0  0  0  0  0  0  0  0  0  0
    0.0750   -3.3968   -1.8446 H   0  0  0  0  0  0  0  0  0  0  0  0
  1  2  1  0
  2  3  2  0
  3  4  1  0
  4  5  1  0
  5  6  2  0
  6  7  1  0
  7  8  1  0
  8  9  2  0
  8 10  1  0
 10 11  1  0
 11 12  1  0
 12 13  2  0
 13 14  1  0
 14 15  1  0
 15 16  2  0
 16 17  1  0
 17 18  1  0
 17 19  2  0
 19 20  1  0
 13 21  1  0
 21 22  1  0
 22 23  2  0
 23 24  1  0
 24 25  2  0
 25 26  1  0
 26 27  2  0
  6  2  1  0
 27 12  1  0
 20 14  2  0
 27 22  1  0
  1 28  1  0
  1 29  1  0
  1 30  1  0
  3 31  1  0
  7 32  1  0
 10 33  1  0
 10 34  1  0
 11 35  1  0
 11 36  1  0
 15 37  1  0
 16 38  1  0
 19 39  1  0
 20 40  1  0
 21 41  1  0
 23 42  1  0
 24 43  1  0
 25 44  1  0
 26 45  1  0
M  END
$$$$
OCNT-2310252
     RDKit          3D

 49 52  0  0  0  0  0  0  0  0999 V2000
    4.4258   -2.7349    0.2000 O   0  0  0  0  0  0  0  0  0  0  0  0
    3.4252   -2.0649    0.4379 C   0  0  0  0  0  0  0  0  0  0  0  0
    2.0354   -2.7103    0.4832 C   0  0  0  0  0  0  0  0  0  0  0  0
    0.9922   -1.7547    0.1247 N   0  0  0  0  0  0  0  0  0  0  0  0
   -0.2082   -1.7049    0.8042 C   0  0  0  0  0  0  0  0  0  0  0  0
   -0.4059   -2.3431    1.8300 O   0  0  0  0  0  0  0  0  0  0  0  0
   -1.2055   -0.8328    0.2003 C   0  0  0  0  0  0  0  0  0  0  0  0
   -0.9576    0.2531   -0.6233 C   0  0  0  0  0  0  0  0  0  0  0  0
   -2.1707    0.7865   -0.9900 N   0  0  0  0  0  0  0  0  0  0  0  0
   -2.4197    1.9210   -1.8151 C   0  0  0  0  0  0  0  0  0  0  0  0
   -1.3682    2.6710   -2.3661 C   0  0  0  0  0  0  0  0  0  0  0  0
   -1.6482    3.7771   -3.1729 C   0  0  0  0  0  0  0  0  0  0  0  0
   -2.9688    4.1423   -3.4337 C   0  0  0  0  0  0  0  0  0  0  0  0
   -4.0171    3.4050   -2.8890 C   0  0  0  0  0  0  0  0  0  0  0  0
   -3.7464    2.2979   -2.0825 C   0  0  0  0  0  0  0  0  0  0  0  0
   -3.1916    0.0740   -0.4629 N   0  0  0  0  0  0  0  0  0  0  0  0
   -2.6286   -0.8766    0.2962 C   0  0  0  0  0  0  0  0  0  0  0  0
   -3.4886   -1.8026    1.0233 C   0  0  0  0  0  0  0  0  0  0  0  0
   -3.3298   -2.0604    2.3851 C   0  0  0  0  0  0  0  0  0  0  0  0
   -4.1859   -2.9569    3.0235 C   0  0  0  0  0  0  0  0  0  0  0  0
   -5.1830   -3.5629    2.2763 C   0  0  0  0  0  0  0  0  0  0  0  0
   -5.3840   -3.3261    0.9628 N   0  0  0  0  0  0  0  0  0  0  0  0
   -4.5365   -2.4467    0.3712 C   0  0  0  0  0  0  0  0  0  0  0  0
    3.3989   -0.7251    0.7961 N   0  0  0  0  0  0  0  0  0  0  0  0
    4.4789    0.1734    0.8620 C   0  0  0  0  0  0  0  0  0  0  0  0
    5.7737   -0.1295    0.4323 C   0  0  0  0  0  0  0  0  0  0  0  0
    6.7930    0.8240    0.5299 C   0  0  0  0  0  0  0  0  0  0  0  0
    6.5161    2.0776    1.0597 C   0  0  0  0  0  0  0  0  0  0  0  0
    7.4932    2.9870    1.1544 F   0  0  0  0  0  0  0  0  0  0  0  0
    5.2357    2.4001    1.4883 C   0  0  0  0  0  0  0  0  0  0  0  0
    4.2163    1.4489    1.3862 C   0  0  0  0  0  0  0  0  0  0  0  0
    1.9938   -3.5212   -0.2530 H   0  0  0  0  0  0  0  0  0  0  0  0
    1.8718   -3.1184    1.4871 H   0  0  0  0  0  0  0  0  0  0  0  0
    1.0251   -1.3813   -0.8155 H   0  0  0  0  0  0  0  0  0  0  0  0
   -0.0279    0.6877   -0.9572 H   0  0  0  0  0  0  0  0  0  0  0  0
   -0.3241    2.4281   -2.1928 H   0  0  0  0  0  0  0  0  0  0  0  0
   -0.8317    4.3594   -3.5983 H   0  0  0  0  0  0  0  0  0  0  0  0
   -3.1817    5.0054   -4.0614 H   0  0  0  0  0  0  0  0  0  0  0  0
   -5.0474    3.6900   -3.0893 H   0  0  0  0  0  0  0  0  0  0  0  0
   -4.5839    1.7394   -1.6674 H   0  0  0  0  0  0  0  0  0  0  0  0
   -2.5471   -1.5729    2.9606 H   0  0  0  0  0  0  0  0  0  0  0  0
   -4.0706   -3.1817    4.0783 H   0  0  0  0  0  0  0  0  0  0  0  0
   -5.8666   -4.2795    2.7257 H   0  0  0  0  0  0  0  0  0  0  0  0
   -4.7306   -2.2725   -0.6835 H   0  0  0  0  0  0  0  0  0  0  0  0
    2.4942   -0.3832    1.1021 H   0  0  0  0  0  0  0  0  0  0  0  0
    6.0231   -1.0946    0.0012 H   0  0  0  0  0  0  0  0  0  0  0  0
    7.8008    0.5893    0.1999 H   0  0  0  0  0  0  0  0  0  0  0  0
    5.0417    3.3820    1.9060 H   0  0  0  0  0  0  0  0  0  0  0  0
    3.2206    1.7176    1.7320 H   0  0  0  0  0  0  0  0  0  0  0  0
  1  2  2  0
  2  3  1  0
  3  4  1  0
  4  5  1  0
  5  6  2  0
  5  7  1  0
  7  8  2  0
  8  9  1  0
  9 10  1  0
 10 11  2  0
 11 12  1  0
 12 13  2  0
 13 14  1  0
 14 15  2  0
  9 16  1  0
 16 17  2  0
 17 18  1  0
 18 19  1  0
 19 20  2  0
 20 21  1  0
 21 22  2  0
 22 23  1  0
  2 24  1  0
 24 25  1  0
 25 26  1  0
 26 27  2  0
 27 28  1  0
 28 29  1  0
 28 30  2  0
 30 31  1  0
 17  7  1  0
 23 18  2  0
 31 25  2  0
 15 10  1  0
  3 32  1  0
  3 33  1  0
  4 34  1  0
  8 35  1  0
 11 36  1  0
 12 37  1  0
 13 38  1  0
 14 39  1  0
 15 40  1  0
 19 41  1  0
 20 42  1  0
 21 43  1  0
 23 44  1  0
 24 45  1  0
 26 46  1  0
 27 47  1  0
 30 48  1  0
 31 49  1  0
M  END
$$$$
OCNT-2310258
     RDKit          3D

 45 48  0  0  0  0  0  0  0  0999 V2000
   -2.2171    2.0650    0.4372 O   0  0  0  0  0  0  0  0  0  0  0  0
   -2.0395    1.2630   -0.4742 C   0  0  0  0  0  0  0  0  0  0  0  0
   -0.8980    1.4332   -1.4683 C   0  0  0  0  0  0  0  0  0  0  0  0
    0.3033    0.6569   -1.0508 C   0  0  0  0  0  0  0  0  0  0  0  0
    0.6246   -0.6499   -1.3635 C   0  0  0  0  0  0  0  0  0  0  0  0
    1.8236   -0.9396   -0.7451 N   0  0  0  0  0  0  0  0  0  0  0  0
    2.5387   -2.1716   -0.7467 C   0  0  0  0  0  0  0  0  0  0  0  0
    3.7469   -2.2630   -0.0364 C   0  0  0  0  0  0  0  0  0  0  0  0
    4.4633   -3.4620   -0.0143 C   0  0  0  0  0  0  0  0  0  0  0  0
    3.9818   -4.5769   -0.6996 C   0  0  0  0  0  0  0  0  0  0  0  0
    2.7838   -4.4949   -1.4090 C   0  0  0  0  0  0  0  0  0  0  0  0
    2.0603   -3.2975   -1.4352 C   0  0  0  0  0  0  0  0  0  0  0  0
    2.3016    0.1402   -0.0818 N   0  0  0  0  0  0  0  0  0  0  0  0
    1.3870    1.1002   -0.2459 C   0  0  0  0  0  0  0  0  0  0  0  0
    1.5783    2.4151    0.3450 C   0  0  0  0  0  0  0  0  0  0  0  0
    2.3501    3.3758   -0.3267 C   0  0  0  0  0  0  0  0  0  0  0  0
    2.5161    4.6470    0.2265 C   0  0  0  0  0  0  0  0  0  0  0  0
    1.9179    4.9465    1.4480 C   0  0  0  0  0  0  0  0  0  0  0  0
    2.0783    6.1675    1.9766 F   0  0  0  0  0  0  0  0  0  0  0  0
    1.1547    4.0004    2.1273 C   0  0  0  0  0  0  0  0  0  0  0  0
    0.9811    2.7298    1.5740 C   0  0  0  0  0  0  0  0  0  0  0  0
   -2.8046    0.1335   -0.7237 N   0  0  0  0  0  0  0  0  0  0  0  0
   -3.8970   -0.3337    0.0344 C   0  0  0  0  0  0  0  0  0  0  0  0
   -4.5030   -1.5250   -0.3754 C   0  0  0  0  0  0  0  0  0  0  0  0
   -5.5750   -2.0465    0.3440 C   0  0  0  0  0  0  0  0  0  0  0  0
   -6.0147   -1.3532    1.4580 C   0  0  0  0  0  0  0  0  0  0  0  0
   -5.4639   -0.1980    1.8840 N   0  0  0  0  0  0  0  0  0  0  0  0
   -4.4188    0.2877    1.1655 C   0  0  0  0  0  0  0  0  0  0  0  0
   -0.6701    2.5026   -1.5475 H   0  0  0  0  0  0  0  0  0  0  0  0
   -1.2280    1.1192   -2.4659 H   0  0  0  0  0  0  0  0  0  0  0  0
    0.1019   -1.3831   -1.9578 H   0  0  0  0  0  0  0  0  0  0  0  0
    4.1421   -1.4060    0.5099 H   0  0  0  0  0  0  0  0  0  0  0  0
    5.3963   -3.5227    0.5414 H   0  0  0  0  0  0  0  0  0  0  0  0
    4.5401   -5.5098   -0.6804 H   0  0  0  0  0  0  0  0  0  0  0  0
    2.4126   -5.3689   -1.9421 H   0  0  0  0  0  0  0  0  0  0  0  0
    1.1337   -3.2828   -2.0001 H   0  0  0  0  0  0  0  0  0  0  0  0
    2.8225    3.1341   -1.2771 H   0  0  0  0  0  0  0  0  0  0  0  0
    3.1059    5.4026   -0.2853 H   0  0  0  0  0  0  0  0  0  0  0  0
    0.6966    4.2567    3.0785 H   0  0  0  0  0  0  0  0  0  0  0  0
    0.3781    1.9916    2.1013 H   0  0  0  0  0  0  0  0  0  0  0  0
   -2.5245   -0.4473   -1.5039 H   0  0  0  0  0  0  0  0  0  0  0  0
   -4.1505   -2.0620   -1.2507 H   0  0  0  0  0  0  0  0  0  0  0  0
   -6.0537   -2.9715    0.0433 H   0  0  0  0  0  0  0  0  0  0  0  0
   -6.8435   -1.7197    2.0548 H   0  0  0  0  0  0  0  0  0  0  0  0
   -4.0194    1.2173    1.5597 H   0  0  0  0  0  0  0  0  0  0  0  0
  1  2  2  0
  2  3  1  0
  3  4  1  0
  4  5  2  0
  5  6  1  0
  6  7  1  0
  7  8  2  0
  8  9  1  0
  9 10  2  0
 10 11  1  0
 11 12  2  0
  6 13  1  0
 13 14  2  0
 14 15  1  0
 15 16  1  0
 16 17  2  0
 17 18  1  0
 18 19  1  0
 18 20  2  0
 20 21  1  0
  2 22  1  0
 22 23  1  0
 23 24  1  0
 24 25  2  0
 25 26  1  0
 26 27  2  0
 27 28  1  0
 14  4  1  0
 21 15  2  0
 28 23  2  0
 12  7  1  0
  3 29  1  0
  3 30  1  0
  5 31  1  0
  8 32  1  0
  9 33  1  0
 10 34  1  0
 11 35  1  0
 12 36  1  0
 16 37  1  0
 17 38  1  0
 20 39  1  0
 21 40  1  0
 22 41  1  0
 24 42  1  0
 25 43  1  0
 26 44  1  0
 28 45  1  0
M  END
$$$$
OCNT-2310262
     RDKit          3D

 37 39  0  0  0  0  0  0  0  0999 V2000
   -2.1778    1.8361   -1.5051 O   0  0  0  0  0  0  0  0  0  0  0  0
   -1.9401    0.8143   -0.8654 C   0  0  0  0  0  0  0  0  0  0  0  0
   -3.0329    0.2539   -0.0417 C   0  0  0  0  0  0  0  0  0  0  0  0
   -3.6865    1.0866    0.8726 C   0  0  0  0  0  0  0  0  0  0  0  0
   -4.7387    0.5832    1.6380 C   0  0  0  0  0  0  0  0  0  0  0  0
   -5.1444   -0.7434    1.4775 C   0  0  0  0  0  0  0  0  0  0  0  0
   -4.5028   -1.5594    0.5440 C   0  0  0  0  0  0  0  0  0  0  0  0
   -5.0673   -3.3496    0.3202 Br  0  0  0  0  0  0  0  0  0  0  0  0
   -3.4519   -1.0676   -0.2264 C   0  0  0  0  0  0  0  0  0  0  0  0
   -0.7126    0.1491   -0.9000 N   0  0  0  0  0  0  0  0  0  0  0  0
   -0.2063   -0.6215    0.2531 C   0  0  0  0  0  0  0  0  0  0  0  0
    0.9349   -1.5845   -0.1318 C   0  0  0  0  0  0  0  0  0  0  0  0
    1.9965   -0.9185   -0.9182 N   0  0  0  0  0  0  0  0  0  0  0  0
    2.9221   -0.1881   -0.1610 C   0  0  0  0  0  0  0  0  0  0  0  0
    4.0777    0.3165   -0.7657 C   0  0  0  0  0  0  0  0  0  0  0  0
    5.0135    1.0319   -0.0149 C   0  0  0  0  0  0  0  0  0  0  0  0
    4.7839    1.2228    1.3364 C   0  0  0  0  0  0  0  0  0  0  0  0
    5.8995    2.0918    2.3056 Cl  0  0  0  0  0  0  0  0  0  0  0  0
    3.6330    0.6830    1.8780 C   0  0  0  0  0  0  0  0  0  0  0  0
    2.7137   -0.0148    1.1636 N   0  0  0  0  0  0  0  0  0  0  0  0
    1.4515   -0.2191   -2.1029 C   0  0  0  0  0  0  0  0  0  0  0  0
    0.3375    0.7706   -1.7167 C   0  0  0  0  0  0  0  0  0  0  0  0
   -3.3783    2.1242    0.9824 H   0  0  0  0  0  0  0  0  0  0  0  0
   -5.2472    1.2260    2.3527 H   0  0  0  0  0  0  0  0  0  0  0  0
   -5.9672   -1.1273    2.0759 H   0  0  0  0  0  0  0  0  0  0  0  0
   -2.9652   -1.6944   -0.9683 H   0  0  0  0  0  0  0  0  0  0  0  0
   -1.0075   -1.1956    0.7230 H   0  0  0  0  0  0  0  0  0  0  0  0
    0.1261    0.1124    0.9959 H   0  0  0  0  0  0  0  0  0  0  0  0
    0.5148   -2.3817   -0.7594 H   0  0  0  0  0  0  0  0  0  0  0  0
    1.3386   -2.0882    0.7553 H   0  0  0  0  0  0  0  0  0  0  0  0
    4.2749    0.1311   -1.8165 H   0  0  0  0  0  0  0  0  0  0  0  0
    5.9099    1.4188   -0.4896 H   0  0  0  0  0  0  0  0  0  0  0  0
    3.4022    0.7924    2.9335 H   0  0  0  0  0  0  0  0  0  0  0  0
    1.0291   -0.9801   -2.7718 H   0  0  0  0  0  0  0  0  0  0  0  0
    2.2248    0.2947   -2.6836 H   0  0  0  0  0  0  0  0  0  0  0  0
    0.7474    1.6085   -1.1392 H   0  0  0  0  0  0  0  0  0  0  0  0
   -0.1049    1.1858   -2.6294 H   0  0  0  0  0  0  0  0  0  0  0  0
  1  2  2  0
  2  3  1  0
  3  4  2  0
  4  5  1  0
  5  6  2  0
  6  7  1  0
  7  8  1  0
  7  9  2  0
  2 10  1  0
 10 11  1  0
 11 12  1  0
 12 13  1  0
 13 14  1  0
 14 15  2  0
 15 16  1  0
 16 17  2  0
 17 18  1  0
 17 19  1  0
 19 20  2  0
 13 21  1  0
 21 22  1  0
  9  3  1  0
 22 10  1  0
 20 14  1  0
  4 23  1  0
  5 24  1  0
  6 25  1  0
  9 26  1  0
 11 27  1  0
 11 28  1  0
 12 29  1  0
 12 30  1  0
 15 31  1  0
 16 32  1  0
 19 33  1  0
 21 34  1  0
 21 35  1  0
 22 36  1  0
 22 37  1  0
M  END
$$$$
OCNT-2310292
     RDKit          3D

 39 41  0  0  0  0  0  0  0  0999 V2000
    0.2064   -1.1825    0.9580 O   0  0  0  0  0  0  0  0  0  0  0  0
    0.2212   -0.1677    0.2676 C   0  0  0  0  0  0  0  0  0  0  0  0
    1.3458    0.5840    0.0067 N   0  0  0  0  0  0  0  0  0  0  0  0
    2.6829    0.2422    0.2967 C   0  0  0  0  0  0  0  0  0  0  0  0
    3.0964   -1.0483    0.6375 C   0  0  0  0  0  0  0  0  0  0  0  0
    4.4458   -1.3207    0.8979 C   0  0  0  0  0  0  0  0  0  0  0  0
    5.4057   -0.3046    0.8133 C   0  0  0  0  0  0  0  0  0  0  0  0
    6.8588   -0.5514    1.0828 C   0  0  0  0  0  0  0  0  0  0  0  0
    7.1275   -1.8452    1.4227 F   0  0  0  0  0  0  0  0  0  0  0  0
    7.6492   -0.2871    0.0061 F   0  0  0  0  0  0  0  0  0  0  0  0
    7.3446    0.2023    2.1072 F   0  0  0  0  0  0  0  0  0  0  0  0
    4.9838    0.9732    0.4613 C   0  0  0  0  0  0  0  0  0  0  0  0
    5.8759    1.9682    0.3641 F   0  0  0  0  0  0  0  0  0  0  0  0
    3.6429    1.2530    0.2007 C   0  0  0  0  0  0  0  0  0  0  0  0
   -0.9478    0.3493   -0.2993 N   0  0  0  0  0  0  0  0  0  0  0  0
   -0.9540    1.0518   -1.5896 C   0  0  0  0  0  0  0  0  0  0  0  0
   -2.2559    1.8299   -1.7960 C   0  0  0  0  0  0  0  0  0  0  0  0
   -3.3982    0.9796   -1.6507 O   0  0  0  0  0  0  0  0  0  0  0  0
   -3.4511    0.4157   -0.3221 C   0  0  0  0  0  0  0  0  0  0  0  0
   -4.6994   -0.4131   -0.1456 C   0  0  0  0  0  0  0  0  0  0  0  0
   -5.3287   -1.1312   -1.1479 C   0  0  0  0  0  0  0  0  0  0  0  0
   -6.7127   -1.9709   -0.6004 S   0  0  0  0  0  0  0  0  0  0  0  0
   -6.5016   -1.3883    0.9909 C   0  0  0  0  0  0  0  0  0  0  0  0
   -5.3981   -0.5714    1.0995 C   0  0  0  0  0  0  0  0  0  0  0  0
   -2.1789   -0.4150   -0.0466 C   0  0  0  0  0  0  0  0  0  0  0  0
    1.1681    1.5578   -0.1825 H   0  0  0  0  0  0  0  0  0  0  0  0
    2.3890   -1.8715    0.7021 H   0  0  0  0  0  0  0  0  0  0  0  0
    4.7374   -2.3358    1.1656 H   0  0  0  0  0  0  0  0  0  0  0  0
    3.3734    2.2687   -0.0711 H   0  0  0  0  0  0  0  0  0  0  0  0
   -0.1031    1.7298   -1.6854 H   0  0  0  0  0  0  0  0  0  0  0  0
   -0.8511    0.2802   -2.3624 H   0  0  0  0  0  0  0  0  0  0  0  0
   -2.2805    2.2513   -2.8058 H   0  0  0  0  0  0  0  0  0  0  0  0
   -2.3344    2.6615   -1.0856 H   0  0  0  0  0  0  0  0  0  0  0  0
   -3.4963    1.2549    0.3861 H   0  0  0  0  0  0  0  0  0  0  0  0
   -5.0379   -1.1974   -2.1882 H   0  0  0  0  0  0  0  0  0  0  0  0
   -7.1958   -1.6720    1.7701 H   0  0  0  0  0  0  0  0  0  0  0  0
   -5.1021   -0.1078    2.0334 H   0  0  0  0  0  0  0  0  0  0  0  0
   -2.1839   -0.7782    0.9882 H   0  0  0  0  0  0  0  0  0  0  0  0
   -2.1431   -1.2936   -0.7046 H   0  0  0  0  0  0  0  0  0  0  0  0
  1  2  2  0
  2  3  1  0
  3  4  1  0
  4  5  1  0
  5  6  2  0
  6  7  1  0
  7  8  1  0
  8  9  1  0
  8 10  1  0
  8 11  1  0
  7 12  2  0
 12 13  1  0
 12 14  1  0
  2 15  1  0
 15 16  1  0
 16 17  1  0
 17 18  1  0
 18 19  1  0
 19 20  1  0
 20 21  2  0
 21 22  1  0
 22 23  1  0
 23 24  2  0
 19 25  1  0
 14  4  2  0
 25 15  1  0
 24 20  1  0
  3 26  1  0
  5 27  1  0
  6 28  1  0
 14 29  1  0
 16 30  1  0
 16 31  1  0
 17 32  1  0
 17 33  1  0
 19 34  1  0
 21 35  1  0
 23 36  1  0
 24 37  1  0
 25 38  1  0
 25 39  1  0
M  END
$$$$
OCNT-2310303
     RDKit          3D

 42 44  0  0  0  0  0  0  0  0999 V2000
    4.9261   -1.2114    1.1281 C   0  0  0  0  0  0  0  0  0  0  0  0
    3.6801   -0.4242    0.6623 C   0  0  0  0  0  0  0  0  0  0  0  0
    3.6906    0.9149    1.4254 C   0  0  0  0  0  0  0  0  0  0  0  0
    3.7859   -0.2490   -0.7947 N   0  0  0  0  0  0  0  0  0  0  0  0
    2.9626    0.5602   -1.5195 C   0  0  0  0  0  0  0  0  0  0  0  0
    3.1035    0.3776   -2.8587 N   0  0  0  0  0  0  0  0  0  0  0  0
    2.1988    1.4079   -1.0844 O   0  0  0  0  0  0  0  0  0  0  0  0
    2.4382   -1.2444    0.9178 C   0  0  0  0  0  0  0  0  0  0  0  0
    1.2448   -0.9181    1.5283 C   0  0  0  0  0  0  0  0  0  0  0  0
    0.4750   -2.0375    1.3952 N   0  0  0  0  0  0  0  0  0  0  0  0
   -0.8545   -2.3091    1.9155 C   0  0  0  0  0  0  0  0  0  0  0  0
   -1.7801   -1.1530    1.7242 C   0  0  0  0  0  0  0  0  0  0  0  0
   -2.3303   -0.8170    0.5763 N   0  0  0  0  0  0  0  0  0  0  0  0
   -3.1212    0.3105    0.7261 C   0  0  0  0  0  0  0  0  0  0  0  0
   -3.8135    0.9019   -0.4083 C   0  0  0  0  0  0  0  0  0  0  0  0
   -4.3778    0.0933   -1.4008 C   0  0  0  0  0  0  0  0  0  0  0  0
   -4.3401   -1.2450   -1.3057 F   0  0  0  0  0  0  0  0  0  0  0  0
   -5.0268    0.6443   -2.5078 C   0  0  0  0  0  0  0  0  0  0  0  0
   -5.1240    2.0273   -2.6420 C   0  0  0  0  0  0  0  0  0  0  0  0
   -4.5716    2.8511   -1.6635 C   0  0  0  0  0  0  0  0  0  0  0  0
   -3.9258    2.2878   -0.5620 C   0  0  0  0  0  0  0  0  0  0  0  0
   -3.4070    3.1248    0.3512 F   0  0  0  0  0  0  0  0  0  0  0  0
   -3.1855    0.7982    2.0170 C   0  0  0  0  0  0  0  0  0  0  0  0
   -2.2299   -0.1666    3.0624 S   0  0  0  0  0  0  0  0  0  0  0  0
    1.1703   -3.0294    0.8023 N   0  0  0  0  0  0  0  0  0  0  0  0
    2.3601   -2.5468    0.4768 N   0  0  0  0  0  0  0  0  0  0  0  0
    5.8450   -0.6460    0.9320 H   0  0  0  0  0  0  0  0  0  0  0  0
    5.0225   -2.1692    0.6010 H   0  0  0  0  0  0  0  0  0  0  0  0
    4.8843   -1.4307    2.2021 H   0  0  0  0  0  0  0  0  0  0  0  0
    2.8023    1.5239    1.2310 H   0  0  0  0  0  0  0  0  0  0  0  0
    3.7240    0.7505    2.5099 H   0  0  0  0  0  0  0  0  0  0  0  0
    4.5652    1.5162    1.1497 H   0  0  0  0  0  0  0  0  0  0  0  0
    4.0576   -1.0887   -1.2834 H   0  0  0  0  0  0  0  0  0  0  0  0
    2.4193    0.8979   -3.3935 H   0  0  0  0  0  0  0  0  0  0  0  0
    3.2688   -0.5583   -3.1939 H   0  0  0  0  0  0  0  0  0  0  0  0
    0.8903   -0.0063    1.9857 H   0  0  0  0  0  0  0  0  0  0  0  0
   -0.7298   -2.5821    2.9694 H   0  0  0  0  0  0  0  0  0  0  0  0
   -1.2493   -3.1811    1.3821 H   0  0  0  0  0  0  0  0  0  0  0  0
   -5.4545   -0.0172   -3.2561 H   0  0  0  0  0  0  0  0  0  0  0  0
   -5.6286    2.4592   -3.5020 H   0  0  0  0  0  0  0  0  0  0  0  0
   -4.6339    3.9314   -1.7511 H   0  0  0  0  0  0  0  0  0  0  0  0
   -3.7310    1.6522    2.3941 H   0  0  0  0  0  0  0  0  0  0  0  0
  1  2  1  0
  2  3  1  0
  2  4  1  0
  4  5  1  0
  5  6  1  0
  5  7  2  0
  2  8  1  0
  8  9  2  0
  9 10  1  0
 10 11  1  0
 11 12  1  0
 12 13  2  0
 13 14  1  0
 14 15  1  0
 15 16  2  0
 16 17  1  0
 16 18  1  0
 18 19  2  0
 19 20  1  0
 20 21  2  0
 21 22  1  0
 14 23  2  0
 23 24  1  0
 10 25  1  0
 25 26  2  0
 26  8  1  0
 24 12  1  0
 21 15  1  0
  1 27  1  0
  1 28  1  0
  1 29  1  0
  3 30  1  0
  3 31  1  0
  3 32  1  0
  4 33  1  0
  6 34  1  0
  6 35  1  0
  9 36  1  0
 11 37  1  0
 11 38  1  0
 18 39  1  0
 19 40  1  0
 20 41  1  0
 23 42  1  0
M  END
$$$$
OCNT-2310304
     RDKit          3D

 43 46  0  0  0  0  0  0  0  0999 V2000
    4.1200    2.7155    2.4128 C   0  0  0  0  0  0  0  0  0  0  0  0
    3.4916    1.9186    1.3117 C   0  0  0  0  0  0  0  0  0  0  0  0
    2.2822    2.3012    0.7772 C   0  0  0  0  0  0  0  0  0  0  0  0
    1.7943    1.4931   -0.2224 C   0  0  0  0  0  0  0  0  0  0  0  0
    0.6130    1.8491   -0.8374 O   0  0  0  0  0  0  0  0  0  0  0  0
   -0.5396    1.3040   -0.3258 C   0  0  0  0  0  0  0  0  0  0  0  0
   -1.7208    1.9805   -0.6207 C   0  0  0  0  0  0  0  0  0  0  0  0
   -2.9327    1.4941   -0.1348 C   0  0  0  0  0  0  0  0  0  0  0  0
   -2.9207    0.3274    0.6208 C   0  0  0  0  0  0  0  0  0  0  0  0
   -4.0834   -0.1689    1.1719 O   0  0  0  0  0  0  0  0  0  0  0  0
   -5.0803   -0.5009    0.2825 C   0  0  0  0  0  0  0  0  0  0  0  0
   -4.8462   -1.2852   -0.8496 C   0  0  0  0  0  0  0  0  0  0  0  0
   -5.9071   -1.6136   -1.6947 C   0  0  0  0  0  0  0  0  0  0  0  0
   -7.1979   -1.1712   -1.4013 C   0  0  0  0  0  0  0  0  0  0  0  0
   -7.4323   -0.4046   -0.2599 C   0  0  0  0  0  0  0  0  0  0  0  0
   -6.3750   -0.0764    0.5891 C   0  0  0  0  0  0  0  0  0  0  0  0
   -1.7945   -0.3494    0.9296 N   0  0  0  0  0  0  0  0  0  0  0  0
   -0.6317    0.1436    0.4361 C   0  0  0  0  0  0  0  0  0  0  0  0
    2.4245    0.4083   -0.7036 N   0  0  0  0  0  0  0  0  0  0  0  0
    3.5989    0.1107   -0.1247 C   0  0  0  0  0  0  0  0  0  0  0  0
    4.3320   -1.0637   -0.6154 C   0  0  0  0  0  0  0  0  0  0  0  0
    5.5467   -1.4863   -0.0518 C   0  0  0  0  0  0  0  0  0  0  0  0
    6.2170   -2.6034   -0.5513 C   0  0  0  0  0  0  0  0  0  0  0  0
    5.6542   -3.2828   -1.6162 C   0  0  0  0  0  0  0  0  0  0  0  0
    4.4924   -2.9238   -2.1966 N   0  0  0  0  0  0  0  0  0  0  0  0
    3.8645   -1.8322   -1.6832 C   0  0  0  0  0  0  0  0  0  0  0  0
    4.1534    0.8261    0.8778 N   0  0  0  0  0  0  0  0  0  0  0  0
    4.2557    3.7540    2.0964 H   0  0  0  0  0  0  0  0  0  0  0  0
    5.1024    2.3117    2.6789 H   0  0  0  0  0  0  0  0  0  0  0  0
    3.4864    2.6913    3.3047 H   0  0  0  0  0  0  0  0  0  0  0  0
    1.7484    3.1798    1.1127 H   0  0  0  0  0  0  0  0  0  0  0  0
   -1.7003    2.8853   -1.2208 H   0  0  0  0  0  0  0  0  0  0  0  0
   -3.8604    2.0161   -0.3396 H   0  0  0  0  0  0  0  0  0  0  0  0
   -3.8487   -1.6573   -1.0698 H   0  0  0  0  0  0  0  0  0  0  0  0
   -5.7279   -2.2251   -2.5769 H   0  0  0  0  0  0  0  0  0  0  0  0
   -8.0229   -1.4361   -2.0580 H   0  0  0  0  0  0  0  0  0  0  0  0
   -8.4404   -0.0689   -0.0258 H   0  0  0  0  0  0  0  0  0  0  0  0
   -6.5583    0.5090    1.4863 H   0  0  0  0  0  0  0  0  0  0  0  0
    0.2377   -0.4569    0.6825 H   0  0  0  0  0  0  0  0  0  0  0  0
    5.9798   -0.9416    0.7850 H   0  0  0  0  0  0  0  0  0  0  0  0
    7.1556   -2.9304   -0.1181 H   0  0  0  0  0  0  0  0  0  0  0  0
    6.1380   -4.1560   -2.0430 H   0  0  0  0  0  0  0  0  0  0  0  0
    2.9324   -1.5847   -2.1867 H   0  0  0  0  0  0  0  0  0  0  0  0
  1  2  1  0
  2  3  1  0
  3  4  2  0
  4  5  1  0
  5  6  1  0
  6  7  2  0
  7  8  1  0
  8  9  2  0
  9 10  1  0
 10 11  1  0
 11 12  2  0
 12 13  1  0
 13 14  2  0
 14 15  1  0
 15 16  2  0
  9 17  1  0
 17 18  2  0
  4 19  1  0
 19 20  2  0
 20 21  1  0
 21 22  1  0
 22 23  2  0
 23 24  1  0
 24 25  2  0
 25 26  1  0
 20 27  1  0
 27  2  2  0
 18  6  1  0
 26 21  2  0
 16 11  1  0
  1 28  1  0
  1 29  1  0
  1 30  1  0
  3 31  1  0
  7 32  1  0
  8 33  1  0
 12 34  1  0
 13 35  1  0
 14 36  1  0
 15 37  1  0
 16 38  1  0
 18 39  1  0
 22 40  1  0
 23 41  1  0
 24 42  1  0
 26 43  1  0
M  END
$$$$
OCNT-2310310
     RDKit          3D

 47 49  0  0  0  0  0  0  0  0999 V2000
    4.8315   -1.7392    0.3110 C   0  0  0  0  0  0  0  0  0  0  0  0
    4.0695   -0.5843   -0.3552 C   0  0  0  0  0  0  0  0  0  0  0  0
    4.1857   -0.6412   -1.8900 C   0  0  0  0  0  0  0  0  0  0  0  0
    3.3307   -1.7437   -2.5072 C   0  0  0  0  0  0  0  0  0  0  0  0
    1.8977   -1.6718   -1.9937 C   0  0  0  0  0  0  0  0  0  0  0  0
    1.8575   -1.6223   -0.4659 C   0  0  0  0  0  0  0  0  0  0  0  0
    2.6686   -0.5434    0.1229 N   0  0  0  0  0  0  0  0  0  0  0  0
    2.0839    0.7995   -0.0593 C   0  0  0  0  0  0  0  0  0  0  0  0
    0.7337    0.9849    0.6484 C   0  0  0  0  0  0  0  0  0  0  0  0
    0.2861    2.4501    0.6029 C   0  0  0  0  0  0  0  0  0  0  0  0
   -1.0369    2.7007    1.3293 C   0  0  0  0  0  0  0  0  0  0  0  0
   -2.1533    2.1527    0.5722 N   0  0  0  0  0  0  0  0  0  0  0  0
   -2.8195    1.0241    1.1102 C   0  0  0  0  0  0  0  0  0  0  0  0
   -2.1864    0.2680    2.0324 N   0  0  0  0  0  0  0  0  0  0  0  0
   -2.8200   -0.8337    2.4413 C   0  0  0  0  0  0  0  0  0  0  0  0
   -4.0191   -1.2515    2.0235 N   0  0  0  0  0  0  0  0  0  0  0  0
   -4.6243   -0.4829    1.1055 C   0  0  0  0  0  0  0  0  0  0  0  0
   -5.8721   -0.8578    0.6292 C   0  0  0  0  0  0  0  0  0  0  0  0
   -6.5447   -0.0906   -0.3193 C   0  0  0  0  0  0  0  0  0  0  0  0
   -5.9342    1.0606   -0.7704 C   0  0  0  0  0  0  0  0  0  0  0  0
   -4.7264    1.4733   -0.3387 N   0  0  0  0  0  0  0  0  0  0  0  0
   -4.0787    0.6974    0.5830 C   0  0  0  0  0  0  0  0  0  0  0  0
    4.7597   -1.6718    1.4024 H   0  0  0  0  0  0  0  0  0  0  0  0
    4.4628   -2.7239    0.0092 H   0  0  0  0  0  0  0  0  0  0  0  0
    5.8946   -1.6927    0.0496 H   0  0  0  0  0  0  0  0  0  0  0  0
    4.5847    0.3254   -0.0180 H   0  0  0  0  0  0  0  0  0  0  0  0
    5.2323   -0.7831   -2.1850 H   0  0  0  0  0  0  0  0  0  0  0  0
    3.8769    0.3230   -2.3131 H   0  0  0  0  0  0  0  0  0  0  0  0
    3.7579   -2.7244   -2.2668 H   0  0  0  0  0  0  0  0  0  0  0  0
    3.3403   -1.6557   -3.5994 H   0  0  0  0  0  0  0  0  0  0  0  0
    1.3978   -0.7912   -2.4139 H   0  0  0  0  0  0  0  0  0  0  0  0
    1.3397   -2.5466   -2.3471 H   0  0  0  0  0  0  0  0  0  0  0  0
    0.8179   -1.5692   -0.1272 H   0  0  0  0  0  0  0  0  0  0  0  0
    2.2128   -2.5832   -0.0734 H   0  0  0  0  0  0  0  0  0  0  0  0
    2.7750    1.5371    0.3692 H   0  0  0  0  0  0  0  0  0  0  0  0
    1.9765    1.0527   -1.1205 H   0  0  0  0  0  0  0  0  0  0  0  0
    0.8146    0.6608    1.6930 H   0  0  0  0  0  0  0  0  0  0  0  0
   -0.0277    0.3662    0.1639 H   0  0  0  0  0  0  0  0  0  0  0  0
    0.2049    2.7772   -0.4414 H   0  0  0  0  0  0  0  0  0  0  0  0
    1.0580    3.0721    1.0728 H   0  0  0  0  0  0  0  0  0  0  0  0
   -0.9904    2.3549    2.3686 H   0  0  0  0  0  0  0  0  0  0  0  0
   -1.1839    3.7865    1.3867 H   0  0  0  0  0  0  0  0  0  0  0  0
   -2.8621    2.8415    0.3185 H   0  0  0  0  0  0  0  0  0  0  0  0
   -2.3132   -1.4461    3.1792 H   0  0  0  0  0  0  0  0  0  0  0  0
   -6.3298   -1.7693    1.0061 H   0  0  0  0  0  0  0  0  0  0  0  0
   -7.5187   -0.3886   -0.6909 H   0  0  0  0  0  0  0  0  0  0  0  0
   -6.4101    1.6995   -1.5090 H   0  0  0  0  0  0  0  0  0  0  0  0
  1  2  1  0
  2  3  1  0
  3  4  1  0
  4  5  1  0
  5  6  1  0
  6  7  1  0
  7  8  1  0
  8  9  1  0
  9 10  1  0
 10 11  1  0
 11 12  1  0
 12 13  1  0
 13 14  1  0
 14 15  2  0
 15 16  1  0
 16 17  2  0
 17 18  1  0
 18 19  2  0
 19 20  1  0
 20 21  2  0
 21 22  1  0
  7  2  1  0
 22 13  2  0
 22 17  1  0
  1 23  1  0
  1 24  1  0
  1 25  1  0
  2 26  1  0
  3 27  1  0
  3 28  1  0
  4 29  1  0
  4 30  1  0
  5 31  1  0
  5 32  1  0
  6 33  1  0
  6 34  1  0
  8 35  1  0
  8 36  1  0
  9 37  1  0
  9 38  1  0
 10 39  1  0
 10 40  1  0
 11 41  1  0
 11 42  1  0
 12 43  1  0
 15 44  1  0
 18 45  1  0
 19 46  1  0
 20 47  1  0
M  END
$$$$
OCNT-2310311
     RDKit          3D

 45 48  0  0  0  0  0  0  0  0999 V2000
   -4.1437    4.0696   -0.0532 O   0  0  0  0  0  0  0  0  0  0  0  0
   -3.2638    3.0876    0.2961 C   0  0  0  0  0  0  0  0  0  0  0  0
   -2.0743    3.3837    0.9512 C   0  0  0  0  0  0  0  0  0  0  0  0
   -1.1986    2.3473    1.2800 C   0  0  0  0  0  0  0  0  0  0  0  0
   -1.5086    1.0159    0.9548 C   0  0  0  0  0  0  0  0  0  0  0  0
   -0.5494   -0.0826    1.3530 C   0  0  0  0  0  0  0  0  0  0  0  0
   -0.7688   -1.3926    0.5678 C   0  0  0  0  0  0  0  0  0  0  0  0
    0.0135   -2.5217    1.1071 N   0  0  0  0  0  0  0  0  0  0  0  0
    1.4647   -2.3964    0.9330 C   0  0  0  0  0  0  0  0  0  0  0  0
    1.8425   -2.5449   -0.5033 C   0  0  0  0  0  0  0  0  0  0  0  0
    1.8555   -3.7034   -1.2553 C   0  0  0  0  0  0  0  0  0  0  0  0
    2.2496   -3.3426   -2.5084 N   0  0  0  0  0  0  0  0  0  0  0  0
    2.4762   -2.0314   -2.6420 N   0  0  0  0  0  0  0  0  0  0  0  0
    2.2643   -1.5278   -1.4167 C   0  0  0  0  0  0  0  0  0  0  0  0
    2.4463   -0.1072   -1.1500 C   0  0  0  0  0  0  0  0  0  0  0  0
    3.4649    0.3246   -0.2925 C   0  0  0  0  0  0  0  0  0  0  0  0
    3.6127    1.6838   -0.0098 C   0  0  0  0  0  0  0  0  0  0  0  0
    2.7410    2.6155   -0.5777 C   0  0  0  0  0  0  0  0  0  0  0  0
    1.7280    2.1923   -1.4347 C   0  0  0  0  0  0  0  0  0  0  0  0
    1.5844    0.8343   -1.7282 C   0  0  0  0  0  0  0  0  0  0  0  0
   -2.2616   -1.7536    0.6297 C   0  0  0  0  0  0  0  0  0  0  0  0
   -3.0973   -0.6827   -0.0740 C   0  0  0  0  0  0  0  0  0  0  0  0
   -2.7274    0.7259    0.3145 C   0  0  0  0  0  0  0  0  0  0  0  0
   -3.5936    1.7757   -0.0251 C   0  0  0  0  0  0  0  0  0  0  0  0
   -3.8117    4.9159    0.2915 H   0  0  0  0  0  0  0  0  0  0  0  0
   -1.8092    4.4040    1.2090 H   0  0  0  0  0  0  0  0  0  0  0  0
   -0.2670    2.5813    1.7920 H   0  0  0  0  0  0  0  0  0  0  0  0
   -0.6778   -0.2648    2.4286 H   0  0  0  0  0  0  0  0  0  0  0  0
    0.4751    0.2728    1.2018 H   0  0  0  0  0  0  0  0  0  0  0  0
   -0.5186   -1.2358   -0.4887 H   0  0  0  0  0  0  0  0  0  0  0  0
   -0.2873   -3.3886    0.6568 H   0  0  0  0  0  0  0  0  0  0  0  0
    1.8463   -1.4677    1.3719 H   0  0  0  0  0  0  0  0  0  0  0  0
    1.9406   -3.2076    1.5021 H   0  0  0  0  0  0  0  0  0  0  0  0
    1.6154   -4.7280   -1.0106 H   0  0  0  0  0  0  0  0  0  0  0  0
    2.3714   -3.9357   -3.3224 H   0  0  0  0  0  0  0  0  0  0  0  0
    4.1527   -0.3935    0.1538 H   0  0  0  0  0  0  0  0  0  0  0  0
    4.4066    2.0154    0.6557 H   0  0  0  0  0  0  0  0  0  0  0  0
    2.8552    3.6728   -0.3546 H   0  0  0  0  0  0  0  0  0  0  0  0
    1.0477    2.9147   -1.8750 H   0  0  0  0  0  0  0  0  0  0  0  0
    0.7935    0.5105   -2.4009 H   0  0  0  0  0  0  0  0  0  0  0  0
   -2.4534   -2.7208    0.1499 H   0  0  0  0  0  0  0  0  0  0  0  0
   -2.5830   -1.8469    1.6758 H   0  0  0  0  0  0  0  0  0  0  0  0
   -4.1563   -0.8651    0.1455 H   0  0  0  0  0  0  0  0  0  0  0  0
   -2.9646   -0.7785   -1.1588 H   0  0  0  0  0  0  0  0  0  0  0  0
   -4.5318    1.5763   -0.5371 H   0  0  0  0  0  0  0  0  0  0  0  0
  1  2  1  0
  2  3  1  0
  3  4  2  0
  4  5  1  0
  5  6  1  0
  6  7  1  0
  7  8  1  0
  8  9  1  0
  9 10  1  0
 10 11  2  0
 11 12  1  0
 12 13  1  0
 13 14  2  0
 14 15  1  0
 15 16  2  0
 16 17  1  0
 17 18  2  0
 18 19  1  0
 19 20  2  0
  7 21  1  0
 21 22  1  0
 22 23  1  0
 23 24  1  0
 24  2  2  0
 23  5  2  0
 14 10  1  0
 20 15  1  0
  1 25  1  0
  3 26  1  0
  4 27  1  0
  6 28  1  0
  6 29  1  0
  7 30  1  0
  8 31  1  0
  9 32  1  0
  9 33  1  0
 11 34  1  0
 12 35  1  0
 16 36  1  0
 17 37  1  0
 18 38  1  0
 19 39  1  0
 20 40  1  0
 21 41  1  0
 21 42  1  0
 22 43  1  0
 22 44  1  0
 24 45  1  0
M  END
$$$$
OCNT-2310312
     RDKit          3D

 56 61  0  0  0  0  0  0  0  0999 V2000
    3.2098    0.7275   -3.0505 C   0  0  0  0  0  0  0  0  0  0  0  0
    3.1709   -0.3564   -1.9669 C   0  0  0  0  0  0  0  0  0  0  0  0
    4.1901   -0.0569   -0.9164 C   0  0  0  0  0  0  0  0  0  0  0  0
    3.9645    0.5782    0.2832 C   0  0  0  0  0  0  0  0  0  0  0  0
    2.5889    0.9899    0.6376 C   0  0  0  0  0  0  0  0  0  0  0  0
    1.6079   -0.0514    0.0682 C   0  0  0  0  0  0  0  0  0  0  0  0
    1.8201   -0.4378   -1.3535 N   0  0  0  0  0  0  0  0  0  0  0  0
    0.8463   -1.0978   -2.1050 C   0  0  0  0  0  0  0  0  0  0  0  0
    1.0052   -1.4971   -3.2549 O   0  0  0  0  0  0  0  0  0  0  0  0
   -0.4729   -1.3431   -1.4955 C   0  0  0  0  0  0  0  0  0  0  0  0
   -0.6280   -2.4038   -0.5729 C   0  0  0  0  0  0  0  0  0  0  0  0
   -1.8792   -2.6706   -0.0079 C   0  0  0  0  0  0  0  0  0  0  0  0
   -2.9329   -1.8668   -0.4024 C   0  0  0  0  0  0  0  0  0  0  0  0
   -4.3394   -1.8888   -0.0029 C   0  0  0  0  0  0  0  0  0  0  0  0
   -4.8088   -2.6684    0.8036 O   0  0  0  0  0  0  0  0  0  0  0  0
   -4.9540   -0.8861   -0.6993 N   0  0  0  0  0  0  0  0  0  0  0  0
   -6.3478   -0.5355   -0.5477 C   0  0  0  0  0  0  0  0  0  0  0  0
   -6.5427    0.4715    0.5582 C   0  0  0  0  0  0  0  0  0  0  0  0
   -6.4654    1.8430    0.2981 C   0  0  0  0  0  0  0  0  0  0  0  0
   -6.6182    2.7282    1.3532 C   0  0  0  0  0  0  0  0  0  0  0  0
   -6.8329    2.3452    2.6299 N   0  0  0  0  0  0  0  0  0  0  0  0
   -6.8934    1.0168    2.8626 C   0  0  0  0  0  0  0  0  0  0  0  0
   -6.7530    0.0541    1.8759 C   0  0  0  0  0  0  0  0  0  0  0  0
   -4.0793   -0.2055   -1.4994 C   0  0  0  0  0  0  0  0  0  0  0  0
   -4.2819    0.7476   -2.2267 O   0  0  0  0  0  0  0  0  0  0  0  0
   -2.7745   -0.8387   -1.3182 C   0  0  0  0  0  0  0  0  0  0  0  0
   -1.5542   -0.5490   -1.8938 C   0  0  0  0  0  0  0  0  0  0  0  0
    5.2017    0.6840    0.9663 C   0  0  0  0  0  0  0  0  0  0  0  0
    5.6055    1.2219    2.2033 C   0  0  0  0  0  0  0  0  0  0  0  0
    6.9528    1.1494    2.5757 C   0  0  0  0  0  0  0  0  0  0  0  0
    7.8913    0.5516    1.7373 C   0  0  0  0  0  0  0  0  0  0  0  0
    7.5153    0.0088    0.5050 C   0  0  0  0  0  0  0  0  0  0  0  0
    6.1646    0.0886    0.1453 C   0  0  0  0  0  0  0  0  0  0  0  0
    5.5222   -0.3570   -0.9919 N   0  0  0  0  0  0  0  0  0  0  0  0
    2.9579    1.7117   -2.6380 H   0  0  0  0  0  0  0  0  0  0  0  0
    4.2066    0.7995   -3.5000 H   0  0  0  0  0  0  0  0  0  0  0  0
    2.4976    0.5203   -3.8551 H   0  0  0  0  0  0  0  0  0  0  0  0
    3.3946   -1.3290   -2.4234 H   0  0  0  0  0  0  0  0  0  0  0  0
    2.3818    1.9730    0.1985 H   0  0  0  0  0  0  0  0  0  0  0  0
    2.4595    1.0703    1.7218 H   0  0  0  0  0  0  0  0  0  0  0  0
    1.6927   -0.9795    0.6486 H   0  0  0  0  0  0  0  0  0  0  0  0
    0.5854    0.3193    0.1944 H   0  0  0  0  0  0  0  0  0  0  0  0
    0.2290   -3.0216   -0.3098 H   0  0  0  0  0  0  0  0  0  0  0  0
   -2.0234   -3.4784    0.7028 H   0  0  0  0  0  0  0  0  0  0  0  0
   -6.7221   -0.1258   -1.4935 H   0  0  0  0  0  0  0  0  0  0  0  0
   -6.9261   -1.4416   -0.3313 H   0  0  0  0  0  0  0  0  0  0  0  0
   -6.2805    2.2193   -0.7040 H   0  0  0  0  0  0  0  0  0  0  0  0
   -6.5659    3.8015    1.1941 H   0  0  0  0  0  0  0  0  0  0  0  0
   -7.0592    0.7350    3.8985 H   0  0  0  0  0  0  0  0  0  0  0  0
   -6.7980   -0.9996    2.1350 H   0  0  0  0  0  0  0  0  0  0  0  0
   -1.4428    0.2487   -2.6211 H   0  0  0  0  0  0  0  0  0  0  0  0
    4.8827    1.6911    2.8636 H   0  0  0  0  0  0  0  0  0  0  0  0
    7.2684    1.5653    3.5294 H   0  0  0  0  0  0  0  0  0  0  0  0
    8.9334    0.5059    2.0453 H   0  0  0  0  0  0  0  0  0  0  0  0
    8.2498   -0.4561   -0.1445 H   0  0  0  0  0  0  0  0  0  0  0  0
    5.9800   -0.8253   -1.7620 H   0  0  0  0  0  0  0  0  0  0  0  0
  1  2  1  0
  2  3  1  0
  3  4  2  0
  4  5  1  0
  5  6  1  0
  6  7  1  0
  7  8  1  0
  8  9  2  0
  8 10  1  0
 10 11  1  0
 11 12  2  0
 12 13  1  0
 13 14  1  0
 14 15  2  0
 14 16  1  0
 16 17  1  0
 17 18  1  0
 18 19  2  0
 19 20  1  0
 20 21  2  0
 21 22  1  0
 22 23  2  0
 16 24  1  0
 24 25  2  0
 24 26  1  0
 26 27  1  0
  4 28  1  0
 28 29  2  0
 29 30  1  0
 30 31  2  0
 31 32  1  0
 32 33  2  0
 33 34  1  0
  7  2  1  0
 27 10  2  0
 33 28  1  0
 34  3  1  0
 26 13  2  0
 23 18  1  0
  1 35  1  0
  1 36  1  0
  1 37  1  0
  2 38  1  0
  5 39  1  0
  5 40  1  0
  6 41  1  0
  6 42  1  0
 11 43  1  0
 12 44  1  0
 17 45  1  0
 17 46  1  0
 19 47  1  0
 20 48  1  0
 22 49  1  0
 23 50  1  0
 27 51  1  0
 29 52  1  0
 30 53  1  0
 31 54  1  0
 32 55  1  0
 34 56  1  0
M  END
$$$$
OCNT-2310324
     RDKit          3D

 37 40  0  0  0  0  0  0  0  0999 V2000
    1.6144   -2.1711   -1.1986 O   0  0  0  0  0  0  0  0  0  0  0  0
    1.9810   -1.0105   -1.0381 C   0  0  0  0  0  0  0  0  0  0  0  0
    1.3974    0.0496   -1.6858 N   0  0  0  0  0  0  0  0  0  0  0  0
    0.2403   -0.1105   -2.5346 C   0  0  0  0  0  0  0  0  0  0  0  0
   -1.0274    0.1747   -1.7823 C   0  0  0  0  0  0  0  0  0  0  0  0
   -1.6448   -0.8135   -1.0108 C   0  0  0  0  0  0  0  0  0  0  0  0
   -2.8172   -0.5290   -0.2982 C   0  0  0  0  0  0  0  0  0  0  0  0
   -3.4137    0.7457   -0.3211 C   0  0  0  0  0  0  0  0  0  0  0  0
   -4.6821    1.0956    0.4358 C   0  0  0  0  0  0  0  0  0  0  0  0
   -5.7897    0.0868    0.6206 C   0  0  0  0  0  0  0  0  0  0  0  0
   -4.9629    0.5133    1.8000 C   0  0  0  0  0  0  0  0  0  0  0  0
   -2.7689    1.7256   -1.0947 C   0  0  0  0  0  0  0  0  0  0  0  0
   -1.6014    1.4430   -1.8039 C   0  0  0  0  0  0  0  0  0  0  0  0
   -1.0253    2.4245   -2.5135 F   0  0  0  0  0  0  0  0  0  0  0  0
    3.0642   -0.6664   -0.1354 C   0  0  0  0  0  0  0  0  0  0  0  0
    3.6529    0.5602    0.1724 C   0  0  0  0  0  0  0  0  0  0  0  0
    4.6460    0.2417    1.1114 C   0  0  0  0  0  0  0  0  0  0  0  0
    4.6759   -1.0796    1.3662 C   0  0  0  0  0  0  0  0  0  0  0  0
    5.6875   -1.3426    2.3108 C   0  0  0  0  0  0  0  0  0  0  0  0
    6.2062   -0.0899    2.5553 C   0  0  0  0  0  0  0  0  0  0  0  0
    5.5894    0.8942    1.8367 O   0  0  0  0  0  0  0  0  0  0  0  0
    3.7043   -1.6589    0.6013 N   0  0  0  0  0  0  0  0  0  0  0  0
    1.6545    0.9891   -1.4257 H   0  0  0  0  0  0  0  0  0  0  0  0
    0.2102   -1.1217   -2.9564 H   0  0  0  0  0  0  0  0  0  0  0  0
    0.3551    0.5812   -3.3764 H   0  0  0  0  0  0  0  0  0  0  0  0
   -1.2144   -1.8126   -0.9542 H   0  0  0  0  0  0  0  0  0  0  0  0
   -3.2656   -1.3277    0.2892 H   0  0  0  0  0  0  0  0  0  0  0  0
   -5.0242    2.1226    0.3023 H   0  0  0  0  0  0  0  0  0  0  0  0
   -6.8117    0.4450    0.5607 H   0  0  0  0  0  0  0  0  0  0  0  0
   -5.6627   -0.9201    0.2415 H   0  0  0  0  0  0  0  0  0  0  0  0
   -5.4257    1.1600    2.5376 H   0  0  0  0  0  0  0  0  0  0  0  0
   -4.2696   -0.2016    2.2266 H   0  0  0  0  0  0  0  0  0  0  0  0
   -3.1739    2.7325   -1.1502 H   0  0  0  0  0  0  0  0  0  0  0  0
    3.4135    1.5387   -0.2152 H   0  0  0  0  0  0  0  0  0  0  0  0
    5.9969   -2.2800    2.7473 H   0  0  0  0  0  0  0  0  0  0  0  0
    7.0007    0.2607    3.2006 H   0  0  0  0  0  0  0  0  0  0  0  0
    3.4907   -2.6491    0.5789 H   0  0  0  0  0  0  0  0  0  0  0  0
  1  2  2  0
  2  3  1  0
  3  4  1  0
  4  5  1  0
  5  6  1  0
  6  7  2  0
  7  8  1  0
  8  9  1  0
  9 10  1  0
 10 11  1  0
  8 12  2  0
 12 13  1  0
 13 14  1  0
  2 15  1  0
 15 16  2  0
 16 17  1  0
 17 18  2  0
 18 19  1  0
 19 20  2  0
 20 21  1  0
 18 22  1  0
 13  5  2  0
 22 15  1  0
 11  9  1  0
 21 17  1  0
  3 23  1  0
  4 24  1  0
  4 25  1  0
  6 26  1  0
  7 27  1  0
  9 28  1  0
 10 29  1  0
 10 30  1  0
 11 31  1  0
 11 32  1  0
 12 33  1  0
 16 34  1  0
 19 35  1  0
 20 36  1  0
 22 37  1  0
M  END
$$$$
OCNT-2310336
     RDKit          3D

  0  0  0  0  0  0  0  0  0  0999 V3000
M  V30 BEGIN CTAB
M  V30 COUNTS 55 58 0 0 0
M  V30 BEGIN ATOM
M  V30 1 O 0.128935 1.468667 2.216010 0
M  V30 2 C -0.117659 0.432843 1.593136 0
M  V30 3 C -1.518753 -0.184516 1.633186 0 CFG=1
M  V30 4 C -2.378698 0.486320 2.717953 0
M  V30 5 C -3.801516 -0.061749 2.715757 0
M  V30 6 N -4.426209 0.096438 1.406205 0
M  V30 7 C -3.665405 -0.581432 0.350235 0 CFG=1
M  V30 8 C -4.358201 -0.438976 -0.994707 0
M  V30 9 C -4.590396 -1.570072 -1.792958 0
M  V30 10 C -5.214389 -1.447740 -3.036576 0
M  V30 11 C -5.612424 -0.194888 -3.498853 0
M  V30 12 C -5.387153 0.937309 -2.719400 0
M  V30 13 C -4.763204 0.816660 -1.476651 0
M  V30 14 C -2.225957 -0.045625 0.278912 0
M  V30 15 N 0.864422 -0.190680 0.828557 0
M  V30 16 C 0.757467 -1.521533 0.225142 0
M  V30 17 C 2.094572 -2.255003 0.231751 0
M  V30 18 C 3.177644 -1.489750 -0.531706 0
M  V30 19 C 2.961285 0.036240 -0.507355 0
M  V30 20 C 4.259502 0.797853 -0.682109 0
M  V30 21 C 4.485676 1.550088 -1.846765 0
M  V30 22 C 5.679404 2.260767 -2.020841 0
M  V30 23 C 6.666790 2.231236 -1.036390 0
M  V30 24 C 6.452252 1.489677 0.115717 0
M  V30 25 O 7.429247 1.467910 1.070630 0
M  V30 26 C 5.264625 0.781161 0.291336 0
M  V30 27 F 5.106412 0.067944 1.417313 0
M  V30 28 C 2.173205 0.471622 0.740042 0
M  V30 29 H -1.428518 -1.240935 1.908320 0
M  V30 30 H -1.926434 0.326593 3.704561 0
M  V30 31 H -2.410268 1.573099 2.561705 0
M  V30 32 H -4.395974 0.480392 3.459116 0
M  V30 33 H -3.804200 -1.117475 3.012891 0
M  V30 34 H -5.373360 -0.280555 1.425464 0
M  V30 35 H -3.625872 -1.651417 0.598530 0
M  V30 36 H -4.287817 -2.557318 -1.451869 0
M  V30 37 H -5.391027 -2.330845 -3.644957 0
M  V30 38 H -6.099661 -0.100352 -4.465669 0
M  V30 39 H -5.698144 1.915903 -3.075610 0
M  V30 40 H -4.596468 1.708500 -0.874497 0
M  V30 41 H -1.680492 -0.583007 -0.503644 0
M  V30 42 H -2.218202 1.009940 -0.028015 0
M  V30 43 H 0.014725 -2.126537 0.747886 0
M  V30 44 H 0.415709 -1.385342 -0.806977 0
M  V30 45 H 1.980532 -3.257143 -0.196312 0
M  V30 46 H 2.421598 -2.390785 1.270669 0
M  V30 47 H 4.153694 -1.776226 -0.121828 0
M  V30 48 H 3.190613 -1.821839 -1.578343 0
M  V30 49 H 2.319294 0.271994 -1.369510 0
M  V30 50 H 3.732151 1.593604 -2.631247 0
M  V30 51 H 5.837693 2.840987 -2.927195 0
M  V30 52 H 7.593455 2.782249 -1.167310 0
M  V30 53 H 7.093649 0.919260 1.804267 0
M  V30 54 H 2.029788 1.559061 0.731324 0
M  V30 55 H 2.712062 0.227421 1.663290 0
M  V30 END ATOM
M  V30 BEGIN BOND
M  V30 1 2 1 2
M  V30 2 1 2 3
M  V30 3 1 3 4
M  V30 4 1 4 5
M  V30 5 1 5 6
M  V30 6 1 6 7
M  V30 7 1 7 8
M  V30 8 2 8 9
M  V30 9 1 9 10
M  V30 10 2 10 11
M  V30 11 1 11 12
M  V30 12 2 12 13
M  V30 13 1 7 14
M  V30 14 1 2 15
M  V30 15 1 15 16
M  V30 16 1 16 17
M  V30 17 1 17 18
M  V30 18 1 18 19
M  V30 19 1 19 20
M  V30 20 2 20 21
M  V30 21 1 21 22
M  V30 22 2 22 23
M  V30 23 1 23 24
M  V30 24 1 24 25
M  V30 25 2 24 26
M  V30 26 1 26 27
M  V30 27 1 19 28
M  V30 28 1 14 3
M  V30 29 1 28 15
M  V30 30 1 13 8
M  V30 31 1 26 20
M  V30 32 1 3 29 CFG=1
M  V30 33 1 4 30
M  V30 34 1 4 31
M  V30 35 1 5 32
M  V30 36 1 5 33
M  V30 37 1 6 34
M  V30 38 1 7 35 CFG=1
M  V30 39 1 9 36
M  V30 40 1 10 37
M  V30 41 1 11 38
M  V30 42 1 12 39
M  V30 43 1 13 40
M  V30 44 1 14 41
M  V30 45 1 14 42
M  V30 46 1 16 43
M  V30 47 1 16 44
M  V30 48 1 17 45
M  V30 49 1 17 46
M  V30 50 1 18 47
M  V30 51 1 18 48
M  V30 52 1 19 49
M  V30 53 1 21 50
M  V30 54 1 22 51
M  V30 55 1 23 52
M  V30 56 1 25 53
M  V30 57 1 28 54
M  V30 58 1 28 55
M  V30 END BOND
M  V30 BEGIN COLLECTION
M  V30 MDLV30/STERAC1 ATOMS=(2 3 7)
M  V30 END COLLECTION
M  V30 END CTAB
M  END
>  <_CXSMILES_Data>  (317) 
|&1:2,6|

$$$$
OCNT-2310337
     RDKit          3D

 51 54  0  0  0  0  0  0  0  0999 V2000
    8.8242   -0.6813    1.3465 C   0  0  0  0  0  0  0  0  0  0  0  0
    8.0025    0.2625    0.6713 O   0  0  0  0  0  0  0  0  0  0  0  0
    6.6572    0.0082    0.6461 C   0  0  0  0  0  0  0  0  0  0  0  0
    6.0105   -1.0341    1.3114 C   0  0  0  0  0  0  0  0  0  0  0  0
    4.6226   -1.2085    1.2161 C   0  0  0  0  0  0  0  0  0  0  0  0
    3.9063   -0.2947    0.4359 C   0  0  0  0  0  0  0  0  0  0  0  0
    2.5614   -0.2221    0.1568 N   0  0  0  0  0  0  0  0  0  0  0  0
    2.2798    0.8588   -0.6503 C   0  0  0  0  0  0  0  0  0  0  0  0
    0.9722    1.2389   -1.1411 C   0  0  0  0  0  0  0  0  0  0  0  0
    0.8087    1.9573   -2.1211 O   0  0  0  0  0  0  0  0  0  0  0  0
   -0.0837    0.7473   -0.3950 N   0  0  0  0  0  0  0  0  0  0  0  0
   -1.4388    1.2028   -0.6748 C   0  0  0  0  0  0  0  0  0  0  0  0
   -2.5113    0.2213   -0.1768 C   0  0  2  0  0  0  0  0  0  0  0  0
   -2.5407   -1.0743   -0.9936 C   0  0  0  0  0  0  0  0  0  0  0  0
   -3.9594   -1.5700   -0.7554 C   0  0  2  0  0  0  0  0  0  0  0  0
   -4.3882   -2.5055   -1.7373 O   0  0  0  0  0  0  0  0  0  0  0  0
   -3.8233   -3.7980   -1.5591 C   0  0  0  0  0  0  0  0  0  0  0  0
   -4.7595   -0.2636   -0.8635 C   0  0  0  0  0  0  0  0  0  0  0  0
   -3.8674    0.8019   -0.3497 N   0  0  0  0  0  0  0  0  0  0  0  0
   -4.3963    1.3398    0.8419 C   0  0  0  0  0  0  0  0  0  0  0  0
   -5.0654    2.5484    0.7582 C   0  0  0  0  0  0  0  0  0  0  0  0
   -5.5931    3.0432    1.9275 C   0  0  0  0  0  0  0  0  0  0  0  0
   -5.4925    2.4103    3.1091 N   0  0  0  0  0  0  0  0  0  0  0  0
   -4.8375    1.2410    3.0814 C   0  0  0  0  0  0  0  0  0  0  0  0
   -4.2765    0.6704    2.0038 N   0  0  0  0  0  0  0  0  0  0  0  0
    3.4959    1.4637   -0.9245 C   0  0  0  0  0  0  0  0  0  0  0  0
    4.5194    0.7585   -0.2374 C   0  0  0  0  0  0  0  0  0  0  0  0
    5.9143    0.9112   -0.1281 C   0  0  0  0  0  0  0  0  0  0  0  0
    9.8653   -0.3678    1.2237 H   0  0  0  0  0  0  0  0  0  0  0  0
    8.7240   -1.6800    0.9087 H   0  0  0  0  0  0  0  0  0  0  0  0
    8.6052   -0.6955    2.4195 H   0  0  0  0  0  0  0  0  0  0  0  0
    6.5615   -1.7415    1.9234 H   0  0  0  0  0  0  0  0  0  0  0  0
    4.1304   -2.0262    1.7337 H   0  0  0  0  0  0  0  0  0  0  0  0
    1.8789   -0.8950    0.4738 H   0  0  0  0  0  0  0  0  0  0  0  0
    0.1214    0.5370    0.5713 H   0  0  0  0  0  0  0  0  0  0  0  0
   -1.5510    2.1723   -0.1733 H   0  0  0  0  0  0  0  0  0  0  0  0
   -1.5544    1.3869   -1.7503 H   0  0  0  0  0  0  0  0  0  0  0  0
   -2.2971   -0.0468    0.8669 H   0  0  0  0  0  0  0  0  0  0  0  0
   -1.7849   -1.7913   -0.6566 H   0  0  0  0  0  0  0  0  0  0  0  0
   -2.3712   -0.8944   -2.0627 H   0  0  0  0  0  0  0  0  0  0  0  0
   -4.0707   -1.9902    0.2535 H   0  0  0  0  0  0  0  0  0  0  0  0
   -4.0897   -4.2002   -0.5759 H   0  0  0  0  0  0  0  0  0  0  0  0
   -2.7350   -3.7687   -1.6737 H   0  0  0  0  0  0  0  0  0  0  0  0
   -4.2345   -4.4590   -2.3290 H   0  0  0  0  0  0  0  0  0  0  0  0
   -5.7205   -0.3492   -0.3391 H   0  0  0  0  0  0  0  0  0  0  0  0
   -4.9959   -0.0438   -1.9119 H   0  0  0  0  0  0  0  0  0  0  0  0
   -5.1709    3.0750   -0.1800 H   0  0  0  0  0  0  0  0  0  0  0  0
   -6.1360    3.9826    1.9456 H   0  0  0  0  0  0  0  0  0  0  0  0
   -4.7582    0.7029    4.0205 H   0  0  0  0  0  0  0  0  0  0  0  0
    3.6248    2.3362   -1.5550 H   0  0  0  0  0  0  0  0  0  0  0  0
    6.4171    1.7231   -0.6465 H   0  0  0  0  0  0  0  0  0  0  0  0
  1  2  1  0
  2  3  1  0
  3  4  2  0
  4  5  1  0
  5  6  2  0
  6  7  1  0
  7  8  1  0
  8  9  1  0
  9 10  2  0
  9 11  1  0
 11 12  1  0
 12 13  1  0
 13 14  1  0
 14 15  1  0
 15 16  1  0
 16 17  1  0
 15 18  1  0
 18 19  1  0
 19 20  1  0
 20 21  1  0
 21 22  2  0
 22 23  1  0
 23 24  2  0
 24 25  1  0
  8 26  2  0
 26 27  1  0
 27 28  2  0
 28  3  1  0
 27  6  1  0
 19 13  1  0
 25 20  2  0
  1 29  1  0
  1 30  1  0
  1 31  1  0
  4 32  1  0
  5 33  1  0
  7 34  1  0
 11 35  1  0
 12 36  1  0
 12 37  1  0
 13 38  1  1
 14 39  1  0
 14 40  1  0
 15 41  1  1
 17 42  1  0
 17 43  1  0
 17 44  1  0
 18 45  1  0
 18 46  1  0
 21 47  1  0
 22 48  1  0
 24 49  1  0
 26 50  1  0
 28 51  1  0
M  END
$$$$
OCNT-2310340
     RDKit          3D

 41 43  0  0  0  0  0  0  0  0999 V2000
   -0.4826    3.1294   -1.9378 C   0  0  0  0  0  0  0  0  0  0  0  0
   -1.7113    2.8367   -1.2097 N   0  0  0  0  0  0  0  0  0  0  0  0
   -2.7113    3.8944   -1.2331 C   0  0  0  0  0  0  0  0  0  0  0  0
   -1.8704    1.8170   -0.2681 C   0  0  0  0  0  0  0  0  0  0  0  0
   -2.8565    1.7918    0.4775 O   0  0  0  0  0  0  0  0  0  0  0  0
   -0.7987    0.7021   -0.1338 C   0  0  1  0  0  0  0  0  0  0  0  0
   -0.7605   -0.1692   -1.4053 C   0  0  0  0  0  0  0  0  0  0  0  0
   -1.7028   -1.3500   -1.3132 C   0  0  0  0  0  0  0  0  0  0  0  0
   -3.0474   -1.2229   -1.6868 C   0  0  0  0  0  0  0  0  0  0  0  0
   -3.9151   -2.3107   -1.5787 C   0  0  0  0  0  0  0  0  0  0  0  0
   -3.4490   -3.5315   -1.0940 C   0  0  0  0  0  0  0  0  0  0  0  0
   -2.1152   -3.6655   -0.7134 C   0  0  0  0  0  0  0  0  0  0  0  0
   -1.2455   -2.5795   -0.8196 C   0  0  0  0  0  0  0  0  0  0  0  0
    0.5102    1.3103    0.2026 N   0  0  0  0  0  0  0  0  0  0  0  0
    1.4661    0.5154    0.7486 C   0  0  0  0  0  0  0  0  0  0  0  0
    1.5445   -0.7952    0.6561 N   0  0  0  0  0  0  0  0  0  0  0  0
    2.6356   -1.3154    1.3213 N   0  0  0  0  0  0  0  0  0  0  0  0
    3.3520   -0.3739    1.8997 C   0  0  0  0  0  0  0  0  0  0  0  0
    4.6455   -0.7015    2.7205 C   0  0  0  0  0  0  0  0  0  0  0  0
    5.3956    0.2326    3.3205 N   0  0  0  0  0  0  0  0  0  0  0  0
    6.4306   -0.4582    3.9308 O   0  0  0  0  0  0  0  0  0  0  0  0
    6.2886   -1.7853    3.6915 C   0  0  0  0  0  0  0  0  0  0  0  0
    5.1719   -1.9962    2.9273 C   0  0  0  0  0  0  0  0  0  0  0  0
    2.7435    1.2111    1.6714 S   0  0  0  0  0  0  0  0  0  0  0  0
   -0.7378    3.5283   -2.9244 H   0  0  0  0  0  0  0  0  0  0  0  0
    0.0797    3.8823   -1.3773 H   0  0  0  0  0  0  0  0  0  0  0  0
    0.1470    2.2536   -2.0836 H   0  0  0  0  0  0  0  0  0  0  0  0
   -3.6703    3.5601   -0.8281 H   0  0  0  0  0  0  0  0  0  0  0  0
   -2.8691    4.2196   -2.2657 H   0  0  0  0  0  0  0  0  0  0  0  0
   -2.3451    4.7341   -0.6349 H   0  0  0  0  0  0  0  0  0  0  0  0
   -1.1098    0.0980    0.7312 H   0  0  0  0  0  0  0  0  0  0  0  0
    0.2496   -0.5464   -1.6056 H   0  0  0  0  0  0  0  0  0  0  0  0
   -1.0321    0.3991   -2.3027 H   0  0  0  0  0  0  0  0  0  0  0  0
   -3.4320   -0.2757   -2.0586 H   0  0  0  0  0  0  0  0  0  0  0  0
   -4.9572   -2.2035   -1.8679 H   0  0  0  0  0  0  0  0  0  0  0  0
   -4.1264   -4.3766   -1.0077 H   0  0  0  0  0  0  0  0  0  0  0  0
   -1.7513   -4.6145   -0.3290 H   0  0  0  0  0  0  0  0  0  0  0  0
   -0.2083   -2.6967   -0.5092 H   0  0  0  0  0  0  0  0  0  0  0  0
    0.4137    2.2139    0.6601 H   0  0  0  0  0  0  0  0  0  0  0  0
    7.0454   -2.4232    4.1239 H   0  0  0  0  0  0  0  0  0  0  0  0
    4.7860   -2.9385    2.5682 H   0  0  0  0  0  0  0  0  0  0  0  0
  1  2  1  0
  2  3  1  0
  2  4  1  0
  4  5  2  0
  4  6  1  0
  6  7  1  0
  7  8  1  0
  8  9  2  0
  9 10  1  0
 10 11  2  0
 11 12  1  0
 12 13  2  0
  6 14  1  0
 14 15  1  0
 15 16  2  0
 16 17  1  0
 17 18  2  0
 18 19  1  0
 19 20  2  0
 20 21  1  0
 21 22  1  0
 22 23  2  0
 18 24  1  0
 13  8  1  0
 24 15  1  0
 23 19  1  0
  1 25  1  0
  1 26  1  0
  1 27  1  0
  3 28  1  0
  3 29  1  0
  3 30  1  0
  6 31  1  1
  7 32  1  0
  7 33  1  0
  9 34  1  0
 10 35  1  0
 11 36  1  0
 12 37  1  0
 13 38  1  0
 14 39  1  0
 22 40  1  0
 23 41  1  0
M  END
$$$$
OCNT-2310342
     RDKit          3D

 49 52  0  0  0  0  0  0  0  0999 V2000
   -6.0377   -0.6621    3.1663 C   0  0  0  0  0  0  0  0  0  0  0  0
   -6.2770   -0.5062    1.6979 C   0  0  0  0  0  0  0  0  0  0  0  0
   -7.2450   -1.2582    1.1441 N   0  0  0  0  0  0  0  0  0  0  0  0
   -7.4499   -1.0757   -0.1701 C   0  0  0  0  0  0  0  0  0  0  0  0
   -6.7178   -0.2024   -0.9380 C   0  0  0  0  0  0  0  0  0  0  0  0
   -5.7260    0.5001   -0.2891 C   0  0  0  0  0  0  0  0  0  0  0  0
   -4.9112    1.4220   -0.9421 N   0  0  0  0  0  0  0  0  0  0  0  0
   -4.1554    0.9345   -2.0901 C   0  0  0  0  0  0  0  0  0  0  0  0
   -3.0019    0.0505   -1.6709 C   0  0  0  0  0  0  0  0  0  0  0  0
   -3.1164   -1.3459   -1.7186 C   0  0  0  0  0  0  0  0  0  0  0  0
   -2.0645   -2.1601   -1.2971 C   0  0  0  0  0  0  0  0  0  0  0  0
   -0.8802   -1.5901   -0.8280 C   0  0  0  0  0  0  0  0  0  0  0  0
   -0.7439   -0.1973   -0.7842 C   0  0  0  0  0  0  0  0  0  0  0  0
    0.4948    0.4616   -0.2825 C   0  0  0  0  0  0  0  0  0  0  0  0
    0.4230    1.5734    0.2361 O   0  0  0  0  0  0  0  0  0  0  0  0
    1.6749   -0.2396   -0.4718 N   0  0  0  0  0  0  0  0  0  0  0  0
    2.8859    0.2515   -0.0260 C   0  0  0  0  0  0  0  0  0  0  0  0
    4.1473   -0.2783   -0.1357 C   0  0  0  0  0  0  0  0  0  0  0  0
    5.0187    0.6463    0.5122 C   0  0  0  0  0  0  0  0  0  0  0  0
    6.4728    0.5682    0.6947 C   0  0  0  0  0  0  0  0  0  0  0  0
    7.1220    1.4636    1.5673 C   0  0  0  0  0  0  0  0  0  0  0  0
    8.5061    1.4084    1.7688 C   0  0  0  0  0  0  0  0  0  0  0  0
    9.2665    0.4578    1.0954 C   0  0  0  0  0  0  0  0  0  0  0  0
    8.6356   -0.4260    0.2283 C   0  0  0  0  0  0  0  0  0  0  0  0
    9.3743   -1.3312   -0.4300 F   0  0  0  0  0  0  0  0  0  0  0  0
    7.2578   -0.3763    0.0251 C   0  0  0  0  0  0  0  0  0  0  0  0
    6.7119   -1.2517   -0.8343 F   0  0  0  0  0  0  0  0  0  0  0  0
    4.3145    1.6865    0.9974 N   0  0  0  0  0  0  0  0  0  0  0  0
    3.0435    1.4285    0.6496 N   0  0  0  0  0  0  0  0  0  0  0  0
   -1.8103    0.6164   -1.1901 C   0  0  0  0  0  0  0  0  0  0  0  0
   -5.5108    0.3749    1.0281 N   0  0  0  0  0  0  0  0  0  0  0  0
   -6.9383   -0.3802    3.7195 H   0  0  0  0  0  0  0  0  0  0  0  0
   -5.7885   -1.7016    3.3987 H   0  0  0  0  0  0  0  0  0  0  0  0
   -5.2125   -0.0246    3.5000 H   0  0  0  0  0  0  0  0  0  0  0  0
   -8.2508   -1.6679   -0.6024 H   0  0  0  0  0  0  0  0  0  0  0  0
   -6.9267   -0.0728   -1.9904 H   0  0  0  0  0  0  0  0  0  0  0  0
   -4.2912    1.7757   -0.2126 H   0  0  0  0  0  0  0  0  0  0  0  0
   -4.7932    0.4223   -2.8207 H   0  0  0  0  0  0  0  0  0  0  0  0
   -3.7491    1.8030   -2.6251 H   0  0  0  0  0  0  0  0  0  0  0  0
   -4.0380   -1.8100   -2.0649 H   0  0  0  0  0  0  0  0  0  0  0  0
   -2.1774   -3.2416   -1.3185 H   0  0  0  0  0  0  0  0  0  0  0  0
   -0.0952   -2.2489   -0.4694 H   0  0  0  0  0  0  0  0  0  0  0  0
    1.6839   -1.1074   -0.9928 H   0  0  0  0  0  0  0  0  0  0  0  0
    4.4113   -1.2100   -0.6143 H   0  0  0  0  0  0  0  0  0  0  0  0
    6.5438    2.2185    2.1011 H   0  0  0  0  0  0  0  0  0  0  0  0
    8.9827    2.1130    2.4467 H   0  0  0  0  0  0  0  0  0  0  0  0
   10.3423    0.4036    1.2339 H   0  0  0  0  0  0  0  0  0  0  0  0
    2.3076    2.0863    0.8935 H   0  0  0  0  0  0  0  0  0  0  0  0
   -1.7120    1.6995   -1.1280 H   0  0  0  0  0  0  0  0  0  0  0  0
  1  2  1  0
  2  3  2  0
  3  4  1  0
  4  5  2  0
  5  6  1  0
  6  7  1  0
  7  8  1  0
  8  9  1  0
  9 10  2  0
 10 11  1  0
 11 12  2  0
 12 13  1  0
 13 14  1  0
 14 15  2  0
 14 16  1  0
 16 17  1  0
 17 18  2  0
 18 19  1  0
 19 20  1  0
 20 21  2  0
 21 22  1  0
 22 23  2  0
 23 24  1  0
 24 25  1  0
 24 26  2  0
 26 27  1  0
 19 28  2  0
 28 29  1  0
 13 30  2  0
  6 31  2  0
 31  2  1  0
 30  9  1  0
 29 17  1  0
 26 20  1  0
  1 32  1  0
  1 33  1  0
  1 34  1  0
  4 35  1  0
  5 36  1  0
  7 37  1  0
  8 38  1  0
  8 39  1  0
 10 40  1  0
 11 41  1  0
 12 42  1  0
 16 43  1  0
 18 44  1  0
 21 45  1  0
 22 46  1  0
 23 47  1  0
 29 48  1  0
 30 49  1  0
M  END
$$$$
OCNT-2310344
     RDKit          3D

 33 35  0  0  0  0  0  0  0  0999 V2000
    5.6989    1.6142   -1.9204 C   0  0  0  0  0  0  0  0  0  0  0  0
    5.0415    0.7231   -0.9270 C   0  0  0  0  0  0  0  0  0  0  0  0
    3.7616    0.4198   -0.9333 N   0  0  0  0  0  0  0  0  0  0  0  0
    3.4738   -0.4297    0.1203 C   0  0  0  0  0  0  0  0  0  0  0  0
    2.0946   -0.8899    0.2914 C   0  0  0  0  0  0  0  0  0  0  0  0
    1.5828   -1.7146    1.2681 C   0  0  0  0  0  0  0  0  0  0  0  0
    0.2436   -1.8776    1.0203 N   0  0  0  0  0  0  0  0  0  0  0  0
   -0.1332   -1.1510   -0.0896 C   0  0  0  0  0  0  0  0  0  0  0  0
   -1.4649   -1.0829   -0.6538 C   0  0  0  0  0  0  0  0  0  0  0  0
   -1.6867   -0.7499   -1.8134 O   0  0  0  0  0  0  0  0  0  0  0  0
   -2.4770   -1.4000    0.2284 N   0  0  0  0  0  0  0  0  0  0  0  0
   -3.8631   -1.2346   -0.1488 C   0  0  0  0  0  0  0  0  0  0  0  0
   -4.3131    0.1230    0.2890 C   0  0  0  0  0  0  0  0  0  0  0  0
   -4.1619    1.3284   -0.3735 C   0  0  0  0  0  0  0  0  0  0  0  0
   -4.7140    2.4231    0.3559 C   0  0  0  0  0  0  0  0  0  0  0  0
   -5.2601    2.0020    1.5411 C   0  0  0  0  0  0  0  0  0  0  0  0
   -6.0948    3.1778    2.7951 Br  0  0  0  0  0  0  0  0  0  0  0  0
   -5.1200    0.3326    1.7895 S   0  0  0  0  0  0  0  0  0  0  0  0
    1.0213   -0.5489   -0.5683 C   0  0  0  0  0  0  0  0  0  0  0  0
    4.5496   -0.7584    0.9188 C   0  0  0  0  0  0  0  0  0  0  0  0
    5.9655    0.0134    0.3373 S   0  0  0  0  0  0  0  0  0  0  0  0
    6.4827    1.0785   -2.4652 H   0  0  0  0  0  0  0  0  0  0  0  0
    6.1436    2.4849   -1.4282 H   0  0  0  0  0  0  0  0  0  0  0  0
    4.9687    1.9768   -2.6510 H   0  0  0  0  0  0  0  0  0  0  0  0
    2.0499   -2.2099    2.1083 H   0  0  0  0  0  0  0  0  0  0  0  0
   -0.3729   -2.4761    1.5528 H   0  0  0  0  0  0  0  0  0  0  0  0
   -2.2772   -1.3463    1.2148 H   0  0  0  0  0  0  0  0  0  0  0  0
   -4.4326   -2.0278    0.3467 H   0  0  0  0  0  0  0  0  0  0  0  0
   -3.9888   -1.3551   -1.2301 H   0  0  0  0  0  0  0  0  0  0  0  0
   -3.6686    1.4170   -1.3362 H   0  0  0  0  0  0  0  0  0  0  0  0
   -4.7017    3.4527    0.0203 H   0  0  0  0  0  0  0  0  0  0  0  0
    1.0756    0.0810   -1.4491 H   0  0  0  0  0  0  0  0  0  0  0  0
    4.5765   -1.3956    1.7897 H   0  0  0  0  0  0  0  0  0  0  0  0
  1  2  1  0
  2  3  2  0
  3  4  1  0
  4  5  1  0
  5  6  2  0
  6  7  1  0
  7  8  1  0
  8  9  1  0
  9 10  2  0
  9 11  1  0
 11 12  1  0
 12 13  1  0
 13 14  2  0
 14 15  1  0
 15 16  2  0
 16 17  1  0
 16 18  1  0
  8 19  2  0
  4 20  2  0
 20 21  1  0
 21  2  1  0
 19  5  1  0
 18 13  1  0
  1 22  1  0
  1 23  1  0
  1 24  1  0
  6 25  1  0
  7 26  1  0
 11 27  1  0
 12 28  1  0
 12 29  1  0
 14 30  1  0
 15 31  1  0
 19 32  1  0
 20 33  1  0
M  END
$$$$
OCNT-2310353
     RDKit          3D

 47 50  0  0  0  0  0  0  0  0999 V2000
    6.5761    0.7650   -1.1963 C   0  0  0  0  0  0  0  0  0  0  0  0
    6.4654   -0.6803   -0.9536 N   0  0  0  0  0  0  0  0  0  0  0  0
    7.7122   -1.3353   -1.3613 C   0  0  0  0  0  0  0  0  0  0  0  0
    6.2140   -0.9460    0.4807 C   0  0  0  0  0  0  0  0  0  0  0  0
    4.8169   -0.5976    0.8895 C   0  0  0  0  0  0  0  0  0  0  0  0
    4.4237   -0.0609    2.0277 N   0  0  0  0  0  0  0  0  0  0  0  0
    3.0590    0.0576    1.9259 C   0  0  0  0  0  0  0  0  0  0  0  0
    2.1303    0.5665    2.8412 C   0  0  0  0  0  0  0  0  0  0  0  0
    0.7695    0.5815    2.4909 C   0  0  0  0  0  0  0  0  0  0  0  0
    0.3311    0.1025    1.2519 C   0  0  0  0  0  0  0  0  0  0  0  0
   -1.0242    0.0903    0.8548 N   0  0  0  0  0  0  0  0  0  0  0  0
   -2.1072    0.6126    1.5388 C   0  0  0  0  0  0  0  0  0  0  0  0
   -2.0841    1.2474    2.5857 O   0  0  0  0  0  0  0  0  0  0  0  0
   -3.4250    0.3968    0.8770 C   0  0  0  0  0  0  0  0  0  0  0  0
   -3.7245   -0.7877    0.1978 C   0  0  0  0  0  0  0  0  0  0  0  0
   -4.9757   -0.9467   -0.4088 C   0  0  0  0  0  0  0  0  0  0  0  0
   -5.9540    0.0612   -0.3547 C   0  0  0  0  0  0  0  0  0  0  0  0
   -7.3076   -0.1185   -0.9961 C   0  0  0  0  0  0  0  0  0  0  0  0
   -7.7751    0.8748   -2.0499 C   0  0  0  0  0  0  0  0  0  0  0  0
   -7.4429   -0.5153   -2.4266 C   0  0  0  0  0  0  0  0  0  0  0  0
   -6.3448   -0.7743   -3.2138 F   0  0  0  0  0  0  0  0  0  0  0  0
   -8.4387   -1.3816   -2.8146 F   0  0  0  0  0  0  0  0  0  0  0  0
   -5.6396    1.2305    0.3587 C   0  0  0  0  0  0  0  0  0  0  0  0
   -4.3935    1.3993    0.9704 C   0  0  0  0  0  0  0  0  0  0  0  0
    1.2586   -0.4151    0.3291 C   0  0  0  0  0  0  0  0  0  0  0  0
    2.6065   -0.4194    0.7026 C   0  0  0  0  0  0  0  0  0  0  0  0
    3.7442   -0.8338    0.0635 N   0  0  0  0  0  0  0  0  0  0  0  0
    5.6442    1.2836   -0.9479 H   0  0  0  0  0  0  0  0  0  0  0  0
    6.7598    0.9578   -2.2595 H   0  0  0  0  0  0  0  0  0  0  0  0
    7.3894    1.2218   -0.6202 H   0  0  0  0  0  0  0  0  0  0  0  0
    7.6363   -2.4206   -1.2310 H   0  0  0  0  0  0  0  0  0  0  0  0
    8.5762   -0.9777   -0.7894 H   0  0  0  0  0  0  0  0  0  0  0  0
    7.9066   -1.1629   -2.4258 H   0  0  0  0  0  0  0  0  0  0  0  0
    6.3370   -2.0184    0.6825 H   0  0  0  0  0  0  0  0  0  0  0  0
    6.9349   -0.4165    1.1165 H   0  0  0  0  0  0  0  0  0  0  0  0
    2.4614    0.9421    3.8029 H   0  0  0  0  0  0  0  0  0  0  0  0
    0.0737    0.9774    3.2246 H   0  0  0  0  0  0  0  0  0  0  0  0
   -1.2043   -0.2833   -0.0674 H   0  0  0  0  0  0  0  0  0  0  0  0
   -3.0132   -1.6081    0.1555 H   0  0  0  0  0  0  0  0  0  0  0  0
   -5.1929   -1.8785   -0.9296 H   0  0  0  0  0  0  0  0  0  0  0  0
   -8.0789   -0.5118   -0.3377 H   0  0  0  0  0  0  0  0  0  0  0  0
   -8.8203    1.1540   -2.0548 H   0  0  0  0  0  0  0  0  0  0  0  0
   -7.0958    1.6477   -2.3850 H   0  0  0  0  0  0  0  0  0  0  0  0
   -6.3785    2.0253    0.4459 H   0  0  0  0  0  0  0  0  0  0  0  0
   -4.1809    2.3150    1.5192 H   0  0  0  0  0  0  0  0  0  0  0  0
    0.9537   -0.7959   -0.6389 H   0  0  0  0  0  0  0  0  0  0  0  0
    3.8211   -1.2112   -0.8704 H   0  0  0  0  0  0  0  0  0  0  0  0
  1  2  1  0
  2  3  1  0
  2  4  1  0
  4  5  1  0
  5  6  2  0
  6  7  1  0
  7  8  2  0
  8  9  1  0
  9 10  2  0
 10 11  1  0
 11 12  1  0
 12 13  2  0
 12 14  1  0
 14 15  1  0
 15 16  2  0
 16 17  1  0
 17 18  1  0
 18 19  1  0
 19 20  1  0
 20 21  1  0
 20 22  1  0
 17 23  2  0
 23 24  1  0
 10 25  1  0
 25 26  2  0
 26 27  1  0
 27  5  1  0
 26  7  1  0
 24 14  2  0
 20 18  1  0
  1 28  1  0
  1 29  1  0
  1 30  1  0
  3 31  1  0
  3 32  1  0
  3 33  1  0
  4 34  1  0
  4 35  1  0
  8 36  1  0
  9 37  1  0
 11 38  1  0
 15 39  1  0
 16 40  1  0
 18 41  1  0
 19 42  1  0
 19 43  1  0
 23 44  1  0
 24 45  1  0
 25 46  1  0
 27 47  1  0
M  END
$$$$
OCNT-2310355
     RDKit          3D

 41 43  0  0  0  0  0  0  0  0999 V2000
    4.6082    1.1268   -2.2814 F   0  0  0  0  0  0  0  0  0  0  0  0
    5.0654    0.3581   -1.2627 C   0  0  0  0  0  0  0  0  0  0  0  0
    5.9479    1.1142   -0.5637 F   0  0  0  0  0  0  0  0  0  0  0  0
    3.9119   -0.0649   -0.3560 C   0  0  0  0  0  0  0  0  0  0  0  0
    3.2444    1.1688    0.2820 C   0  0  0  0  0  0  0  0  0  0  0  0
    1.8225    0.8509    0.7298 C   0  0  0  0  0  0  0  0  0  0  0  0
    0.9150    0.5212   -0.4732 C   0  0  0  0  0  0  0  0  0  0  0  0
   -0.1916   -0.2955    0.0355 N   0  0  0  0  0  0  0  0  0  0  0  0
   -1.3723   -0.2576   -0.8251 C   0  0  0  0  0  0  0  0  0  0  0  0
   -2.5369   -0.9305   -0.1397 C   0  0  0  0  0  0  0  0  0  0  0  0
   -2.7815   -2.2813   -0.4626 C   0  0  0  0  0  0  0  0  0  0  0  0
   -3.7917   -2.9977    0.1677 C   0  0  0  0  0  0  0  0  0  0  0  0
   -4.5386   -2.3510    1.1271 C   0  0  0  0  0  0  0  0  0  0  0  0
   -4.3431   -1.0645    1.4789 N   0  0  0  0  0  0  0  0  0  0  0  0
   -3.3531   -0.3553    0.8477 C   0  0  0  0  0  0  0  0  0  0  0  0
   -3.2316    1.0053    1.2720 N   0  0  0  0  0  0  0  0  0  0  0  0
   -3.9453    1.5871    2.2990 C   0  0  0  0  0  0  0  0  0  0  0  0
   -3.6286    2.8551    2.4312 N   0  0  0  0  0  0  0  0  0  0  0  0
   -2.7101    3.0287    1.4438 C   0  0  0  0  0  0  0  0  0  0  0  0
   -2.4480    1.9543    0.7006 N   0  0  0  0  0  0  0  0  0  0  0  0
    1.6986   -0.1620   -1.6131 C   0  0  0  0  0  0  0  0  0  0  0  0
    2.9002   -0.9544   -1.1042 C   0  0  0  0  0  0  0  0  0  0  0  0
    5.6000   -0.4987   -1.6827 H   0  0  0  0  0  0  0  0  0  0  0  0
    4.3463   -0.6650    0.4547 H   0  0  0  0  0  0  0  0  0  0  0  0
    3.8400    1.4997    1.1412 H   0  0  0  0  0  0  0  0  0  0  0  0
    3.2200    2.0101   -0.4219 H   0  0  0  0  0  0  0  0  0  0  0  0
    1.8606    0.0129    1.4395 H   0  0  0  0  0  0  0  0  0  0  0  0
    1.4030    1.7017    1.2811 H   0  0  0  0  0  0  0  0  0  0  0  0
    0.5186    1.4717   -0.8544 H   0  0  0  0  0  0  0  0  0  0  0  0
    0.1071   -1.2579    0.1766 H   0  0  0  0  0  0  0  0  0  0  0  0
   -1.1599   -0.7859   -1.7633 H   0  0  0  0  0  0  0  0  0  0  0  0
   -1.6419    0.7527   -1.1438 H   0  0  0  0  0  0  0  0  0  0  0  0
   -2.1704   -2.7857   -1.2090 H   0  0  0  0  0  0  0  0  0  0  0  0
   -3.9821   -4.0360   -0.0795 H   0  0  0  0  0  0  0  0  0  0  0  0
   -5.3373   -2.8627    1.6566 H   0  0  0  0  0  0  0  0  0  0  0  0
   -4.6577    1.0346    2.8953 H   0  0  0  0  0  0  0  0  0  0  0  0
   -2.2177    3.9741    1.2539 H   0  0  0  0  0  0  0  0  0  0  0  0
    2.0511    0.6099   -2.3097 H   0  0  0  0  0  0  0  0  0  0  0  0
    1.0528   -0.8180   -2.2072 H   0  0  0  0  0  0  0  0  0  0  0  0
    3.3841   -1.4763   -1.9380 H   0  0  0  0  0  0  0  0  0  0  0  0
    2.5418   -1.7370   -0.4230 H   0  0  0  0  0  0  0  0  0  0  0  0
  1  2  1  0
  2  3  1  0
  2  4  1  0
  4  5  1  0
  5  6  1  0
  6  7  1  0
  7  8  1  0
  8  9  1  0
  9 10  1  0
 10 11  1  0
 11 12  2  0
 12 13  1  0
 13 14  2  0
 14 15  1  0
 15 16  1  0
 16 17  1  0
 17 18  2  0
 18 19  1  0
 19 20  2  0
  7 21  1  0
 21 22  1  0
 22  4  1  0
 15 10  2  0
 20 16  1  0
  2 23  1  0
  4 24  1  0
  5 25  1  0
  5 26  1  0
  6 27  1  0
  6 28  1  0
  7 29  1  0
  8 30  1  0
  9 31  1  0
  9 32  1  0
 11 33  1  0
 12 34  1  0
 13 35  1  0
 17 36  1  0
 19 37  1  0
 21 38  1  0
 21 39  1  0
 22 40  1  0
 22 41  1  0
M  END
$$$$
OCNT-2310374
     RDKit          3D

 40 43  0  0  0  0  0  0  0  0999 V2000
   -7.6104    0.8394   -0.2088 C   0  0  0  0  0  0  0  0  0  0  0  0
   -6.2461    0.2209   -0.0876 C   0  0  0  0  0  0  0  0  0  0  0  0
   -6.0960   -1.1088    0.0239 C   0  0  0  0  0  0  0  0  0  0  0  0
   -4.7362   -1.6845    0.1417 C   0  0  0  0  0  0  0  0  0  0  0  0
   -4.6033   -2.9003    0.2470 O   0  0  0  0  0  0  0  0  0  0  0  0
   -3.7359   -0.7389    0.1187 N   0  0  0  0  0  0  0  0  0  0  0  0
   -2.4112   -1.0804    0.2154 N   0  0  0  0  0  0  0  0  0  0  0  0
   -1.6669   -0.0149    0.1693 C   0  0  0  0  0  0  0  0  0  0  0  0
   -0.2867   -0.0121    0.2486 N   0  0  0  0  0  0  0  0  0  0  0  0
    0.5382    1.1843    0.0604 C   0  0  0  0  0  0  0  0  0  0  0  0
    1.9681    0.8172   -0.3100 C   0  0  0  0  0  0  0  0  0  0  0  0
    2.6293   -0.0501    0.7663 C   0  0  0  0  0  0  0  0  0  0  0  0
    3.6482   -0.8684    0.1675 O   0  0  0  0  0  0  0  0  0  0  0  0
    4.8709   -0.2551   -0.0033 C   0  0  0  0  0  0  0  0  0  0  0  0
    5.9004   -1.0210   -0.5347 C   0  0  0  0  0  0  0  0  0  0  0  0
    7.1439   -0.5267   -0.7555 N   0  0  0  0  0  0  0  0  0  0  0  0
    7.3090    0.7720   -0.4203 C   0  0  0  0  0  0  0  0  0  0  0  0
    6.2815    1.5378    0.1080 C   0  0  0  0  0  0  0  0  0  0  0  0
    5.0397    1.0446    0.3275 N   0  0  0  0  0  0  0  0  0  0  0  0
    1.6230   -0.9964    1.4339 C   0  0  0  0  0  0  0  0  0  0  0  0
    0.4226   -1.2662    0.5342 C   0  0  0  0  0  0  0  0  0  0  0  0
   -2.5519    1.5035    0.0096 S   0  0  0  0  0  0  0  0  0  0  0  0
   -4.0193    0.5912    0.0015 C   0  0  0  0  0  0  0  0  0  0  0  0
   -5.1960    1.1126   -0.1006 N   0  0  0  0  0  0  0  0  0  0  0  0
   -8.4077    0.0888   -0.1932 H   0  0  0  0  0  0  0  0  0  0  0  0
   -7.7870    1.5329    0.6201 H   0  0  0  0  0  0  0  0  0  0  0  0
   -7.6922    1.3952   -1.1488 H   0  0  0  0  0  0  0  0  0  0  0  0
   -6.9218   -1.8077    0.0343 H   0  0  0  0  0  0  0  0  0  0  0  0
    0.5275    1.7835    0.9786 H   0  0  0  0  0  0  0  0  0  0  0  0
    0.1401    1.8036   -0.7511 H   0  0  0  0  0  0  0  0  0  0  0  0
    1.9782    0.2925   -1.2751 H   0  0  0  0  0  0  0  0  0  0  0  0
    2.5529    1.7313   -0.4645 H   0  0  0  0  0  0  0  0  0  0  0  0
    3.0514    0.5694    1.5690 H   0  0  0  0  0  0  0  0  0  0  0  0
    5.7488   -2.0611   -0.7989 H   0  0  0  0  0  0  0  0  0  0  0  0
    8.2968    1.1858   -0.5887 H   0  0  0  0  0  0  0  0  0  0  0  0
    6.4323    2.5788    0.3708 H   0  0  0  0  0  0  0  0  0  0  0  0
    1.2621   -0.5336    2.3620 H   0  0  0  0  0  0  0  0  0  0  0  0
    2.1006   -1.9439    1.7092 H   0  0  0  0  0  0  0  0  0  0  0  0
    0.7334   -1.7365   -0.4061 H   0  0  0  0  0  0  0  0  0  0  0  0
   -0.2300   -1.9785    1.0523 H   0  0  0  0  0  0  0  0  0  0  0  0
  1  2  1  0
  2  3  2  0
  3  4  1  0
  4  5  2  0
  4  6  1  0
  6  7  1  0
  7  8  2  0
  8  9  1  0
  9 10  1  0
 10 11  1  0
 11 12  1  0
 12 13  1  0
 13 14  1  0
 14 15  2  0
 15 16  1  0
 16 17  2  0
 17 18  1  0
 18 19  2  0
 12 20  1  0
 20 21  1  0
  8 22  1  0
 22 23  1  0
 23 24  2  0
 24  2  1  0
 23  6  1  0
 21  9  1  0
 19 14  1  0
  1 25  1  0
  1 26  1  0
  1 27  1  0
  3 28  1  0
 10 29  1  0
 10 30  1  0
 11 31  1  0
 11 32  1  0
 12 33  1  0
 15 34  1  0
 17 35  1  0
 18 36  1  0
 20 37  1  0
 20 38  1  0
 21 39  1  0
 21 40  1  0
M  END
$$$$
OCNT-2310378
     RDKit          3D

 49 52  0  0  0  0  0  0  0  0999 V2000
    0.0029   -0.0255    1.9513 O   0  0  0  0  0  0  0  0  0  0  0  0
    0.4639    0.4292    0.9144 C   0  0  0  0  0  0  0  0  0  0  0  0
   -0.2881    0.9225   -0.1188 N   0  0  0  0  0  0  0  0  0  0  0  0
   -1.7418    0.8812   -0.0705 C   0  0  0  0  0  0  0  0  0  0  0  0
   -2.3008   -0.5203   -0.3262 C   0  0  0  0  0  0  0  0  0  0  0  0
   -3.7972   -0.5089   -0.3261 C   0  0  0  0  0  0  0  0  0  0  0  0
   -4.5320    0.3408   -1.0195 N   0  0  0  0  0  0  0  0  0  0  0  0
   -5.8665    0.0770   -0.8009 C   0  0  0  0  0  0  0  0  0  0  0  0
   -6.1284   -0.9730    0.0545 C   0  0  0  0  0  0  0  0  0  0  0  0
   -7.4861   -1.4610    0.4295 C   0  0  0  0  0  0  0  0  0  0  0  0
   -8.5450   -0.4028    0.0674 C   0  0  0  0  0  0  0  0  0  0  0  0
   -8.3069    0.2007   -1.3294 C   0  0  0  0  0  0  0  0  0  0  0  0
   -6.9393    0.9013   -1.4293 C   0  0  0  0  0  0  0  0  0  0  0  0
   -4.6766   -1.6661    0.6040 S   0  0  0  0  0  0  0  0  0  0  0  0
    1.8026    0.5059    0.6331 N   0  0  0  0  0  0  0  0  0  0  0  0
    2.7548    0.1361    1.6549 C   0  0  0  0  0  0  0  0  0  0  0  0
    4.1421    0.0709    1.0911 C   0  0  0  0  0  0  0  0  0  0  0  0
    4.9929    1.1784    1.0955 C   0  0  0  0  0  0  0  0  0  0  0  0
    6.2669    1.0813    0.5323 C   0  0  0  0  0  0  0  0  0  0  0  0
    6.6578   -0.1311   -0.0311 C   0  0  0  0  0  0  0  0  0  0  0  0
    7.9442   -0.2723   -0.6206 N   0  0  0  0  0  0  0  0  0  0  0  0
    8.9501    0.6625   -0.7481 C   0  0  0  0  0  0  0  0  0  0  0  0
    9.9794    0.0190   -1.3963 C   0  0  0  0  0  0  0  0  0  0  0  0
    9.6477   -1.2780   -1.6724 N   0  0  0  0  0  0  0  0  0  0  0  0
    8.4295   -1.4259   -1.1969 C   0  0  0  0  0  0  0  0  0  0  0  0
    5.8433   -1.2179   -0.0532 N   0  0  0  0  0  0  0  0  0  0  0  0
    4.6144   -1.0934    0.4985 C   0  0  0  0  0  0  0  0  0  0  0  0
    0.1428    0.8900   -1.0317 H   0  0  0  0  0  0  0  0  0  0  0  0
   -2.0979    1.5900   -0.8278 H   0  0  0  0  0  0  0  0  0  0  0  0
   -2.0665    1.2487    0.9113 H   0  0  0  0  0  0  0  0  0  0  0  0
   -1.9527   -0.8840   -1.3013 H   0  0  0  0  0  0  0  0  0  0  0  0
   -1.9118   -1.2205    0.4228 H   0  0  0  0  0  0  0  0  0  0  0  0
   -7.6967   -2.3868   -0.1197 H   0  0  0  0  0  0  0  0  0  0  0  0
   -7.5456   -1.6875    1.4999 H   0  0  0  0  0  0  0  0  0  0  0  0
   -9.5427   -0.8545    0.1166 H   0  0  0  0  0  0  0  0  0  0  0  0
   -8.5228    0.4056    0.8108 H   0  0  0  0  0  0  0  0  0  0  0  0
   -9.1017    0.9164   -1.5689 H   0  0  0  0  0  0  0  0  0  0  0  0
   -8.3620   -0.6017   -2.0770 H   0  0  0  0  0  0  0  0  0  0  0  0
   -6.7010    1.0998   -2.4815 H   0  0  0  0  0  0  0  0  0  0  0  0
   -6.9854    1.8684   -0.9128 H   0  0  0  0  0  0  0  0  0  0  0  0
    2.0535    1.2885    0.0474 H   0  0  0  0  0  0  0  0  0  0  0  0
    2.6978    0.8774    2.4616 H   0  0  0  0  0  0  0  0  0  0  0  0
    2.4688   -0.8292    2.0909 H   0  0  0  0  0  0  0  0  0  0  0  0
    4.6710    2.1214    1.5350 H   0  0  0  0  0  0  0  0  0  0  0  0
    6.9108    1.9534    0.5493 H   0  0  0  0  0  0  0  0  0  0  0  0
    8.8717    1.6751   -0.3838 H   0  0  0  0  0  0  0  0  0  0  0  0
   10.9435    0.4244   -1.6773 H   0  0  0  0  0  0  0  0  0  0  0  0
    7.8457   -2.3378   -1.2350 H   0  0  0  0  0  0  0  0  0  0  0  0
    3.9973   -1.9876    0.4423 H   0  0  0  0  0  0  0  0  0  0  0  0
  1  2  2  0
  2  3  1  0
  3  4  1  0
  4  5  1  0
  5  6  1  0
  6  7  2  0
  7  8  1  0
  8  9  2  0
  9 10  1  0
 10 11  1  0
 11 12  1  0
 12 13  1  0
  9 14  1  0
  2 15  1  0
 15 16  1  0
 16 17  1  0
 17 18  2  0
 18 19  1  0
 19 20  2  0
 20 21  1  0
 21 22  1  0
 22 23  2  0
 23 24  1  0
 24 25  2  0
 20 26  1  0
 26 27  2  0
 14  6  1  0
 27 17  1  0
 13  8  1  0
 25 21  1  0
  3 28  1  0
  4 29  1  0
  4 30  1  0
  5 31  1  0
  5 32  1  0
 10 33  1  0
 10 34  1  0
 11 35  1  0
 11 36  1  0
 12 37  1  0
 12 38  1  0
 13 39  1  0
 13 40  1  0
 15 41  1  0
 16 42  1  0
 16 43  1  0
 18 44  1  0
 19 45  1  0
 22 46  1  0
 23 47  1  0
 25 48  1  0
 27 49  1  0
M  END
$$$$
OCNT-2310397
     RDKit          3D

 45 46  0  0  0  0  0  0  0  0999 V2000
   -4.5379   -1.7337    1.4497 C   0  0  0  0  0  0  0  0  0  0  0  0
   -4.4668   -0.2101    1.5032 C   0  0  0  0  0  0  0  0  0  0  0  0
   -3.0561    0.3588    1.7898 C   0  0  0  0  0  0  0  0  0  0  0  0
   -2.1130    0.3752    0.6540 N   0  0  0  0  0  0  0  0  0  0  0  0
   -1.4828   -0.9196    0.3930 C   0  0  0  0  0  0  0  0  0  0  0  0
    0.0450   -0.7994    0.3115 C   0  0  0  0  0  0  0  0  0  0  0  0
    0.5363    0.0824   -0.8328 C   0  0  0  0  0  0  0  0  0  0  0  0
    1.9729   -0.0332   -1.0218 N   0  0  0  0  0  0  0  0  0  0  0  0
    2.8598    0.6801   -0.2432 C   0  0  0  0  0  0  0  0  0  0  0  0
    2.5249    1.4781    0.6231 O   0  0  0  0  0  0  0  0  0  0  0  0
    4.3061    0.4125   -0.4714 C   0  0  0  0  0  0  0  0  0  0  0  0
    4.8001    0.0140   -1.7215 C   0  0  0  0  0  0  0  0  0  0  0  0
    6.1679   -0.2151   -1.8883 C   0  0  0  0  0  0  0  0  0  0  0  0
    7.0364   -0.0388   -0.8130 C   0  0  0  0  0  0  0  0  0  0  0  0
    8.3437   -0.2671   -1.0018 F   0  0  0  0  0  0  0  0  0  0  0  0
    6.5619    0.3716    0.4309 C   0  0  0  0  0  0  0  0  0  0  0  0
    7.4675    0.5529    1.5225 C   0  0  0  0  0  0  0  0  0  0  0  0
    8.1841    0.7000    2.4235 N   0  0  0  0  0  0  0  0  0  0  0  0
    5.1922    0.6024    0.6007 C   0  0  0  0  0  0  0  0  0  0  0  0
   -2.8050    0.9468   -0.5189 C   0  0  0  0  0  0  0  0  0  0  0  0
   -4.1749    0.2997   -0.8186 C   0  0  0  0  0  0  0  0  0  0  0  0
   -4.8720    1.0233   -1.9648 C   0  0  0  0  0  0  0  0  0  0  0  0
   -5.0438    0.3685    0.3214 O   0  0  0  0  0  0  0  0  0  0  0  0
   -5.5771   -2.0539    1.3159 H   0  0  0  0  0  0  0  0  0  0  0  0
   -3.9793   -2.1550    0.6106 H   0  0  0  0  0  0  0  0  0  0  0  0
   -4.1570   -2.1760    2.3754 H   0  0  0  0  0  0  0  0  0  0  0  0
   -5.1152    0.1058    2.3297 H   0  0  0  0  0  0  0  0  0  0  0  0
   -3.1862    1.4074    2.0913 H   0  0  0  0  0  0  0  0  0  0  0  0
   -2.6087   -0.1364    2.6606 H   0  0  0  0  0  0  0  0  0  0  0  0
   -1.8633   -1.3899   -0.5218 H   0  0  0  0  0  0  0  0  0  0  0  0
   -1.6915   -1.6280    1.2045 H   0  0  0  0  0  0  0  0  0  0  0  0
    0.4387   -0.4236    1.2646 H   0  0  0  0  0  0  0  0  0  0  0  0
    0.4596   -1.8089    0.1911 H   0  0  0  0  0  0  0  0  0  0  0  0
    0.2908    1.1337   -0.6488 H   0  0  0  0  0  0  0  0  0  0  0  0
    0.0741   -0.2213   -1.7778 H   0  0  0  0  0  0  0  0  0  0  0  0
    2.3074   -0.8139   -1.5684 H   0  0  0  0  0  0  0  0  0  0  0  0
    4.1411   -0.0918   -2.5792 H   0  0  0  0  0  0  0  0  0  0  0  0
    6.5660   -0.5197   -2.8524 H   0  0  0  0  0  0  0  0  0  0  0  0
    4.8067    0.9303    1.5665 H   0  0  0  0  0  0  0  0  0  0  0  0
   -2.1628    0.8998   -1.4058 H   0  0  0  0  0  0  0  0  0  0  0  0
   -2.9553    2.0152   -0.3133 H   0  0  0  0  0  0  0  0  0  0  0  0
   -4.0505   -0.7487   -1.1105 H   0  0  0  0  0  0  0  0  0  0  0  0
   -5.8438    0.5619   -2.1717 H   0  0  0  0  0  0  0  0  0  0  0  0
   -4.2705    0.9941   -2.8784 H   0  0  0  0  0  0  0  0  0  0  0  0
   -5.0699    2.0694   -1.7064 H   0  0  0  0  0  0  0  0  0  0  0  0
  1  2  1  0
  2  3  1  0
  3  4  1  0
  4  5  1  0
  5  6  1  0
  6  7  1  0
  7  8  1  0
  8  9  1  0
  9 10  2  0
  9 11  1  0
 11 12  1  0
 12 13  2  0
 13 14  1  0
 14 15  1  0
 14 16  2  0
 16 17  1  0
 17 18  3  0
 16 19  1  0
  4 20  1  0
 20 21  1  0
 21 22  1  0
 21 23  1  0
 23  2  1  0
 19 11  2  0
  1 24  1  0
  1 25  1  0
  1 26  1  0
  2 27  1  0
  3 28  1  0
  3 29  1  0
  5 30  1  0
  5 31  1  0
  6 32  1  0
  6 33  1  0
  7 34  1  0
  7 35  1  0
  8 36  1  0
 12 37  1  0
 13 38  1  0
 19 39  1  0
 20 40  1  0
 20 41  1  0
 21 42  1  0
 22 43  1  0
 22 44  1  0
 22 45  1  0
M  END
$$$$
OCNT-2310398
     RDKit          3D

 43 45  0  0  0  0  0  0  0  0999 V2000
    5.1514   -0.1437   -2.6699 C   0  0  0  0  0  0  0  0  0  0  0  0
    4.7093   -0.0125   -1.2423 C   0  0  0  0  0  0  0  0  0  0  0  0
    5.3565    0.8664   -0.3747 C   0  0  0  0  0  0  0  0  0  0  0  0
    4.9198    1.0013    0.9452 C   0  0  0  0  0  0  0  0  0  0  0  0
    3.8222    0.2695    1.4253 C   0  0  0  0  0  0  0  0  0  0  0  0
    3.3534    0.6230    3.2289 Br  0  0  0  0  0  0  0  0  0  0  0  0
    3.1570   -0.6007    0.5590 C   0  0  0  0  0  0  0  0  0  0  0  0
    1.7744   -1.6263    1.0097 S   0  0  0  0  0  0  0  0  0  0  0  0
    1.6179   -1.7026    2.4439 O   0  0  0  0  0  0  0  0  0  0  0  0
    1.8882   -2.8457    0.2328 O   0  0  0  0  0  0  0  0  0  0  0  0
    0.4346   -0.7529    0.3916 N   0  0  0  0  0  0  0  0  0  0  0  0
   -0.8157   -1.5621    0.2651 C   0  0  0  0  0  0  0  0  0  0  0  0
   -1.8738   -1.1358    1.2739 C   0  0  0  0  0  0  0  0  0  0  0  0
   -2.2618    0.3435    1.1120 C   0  0  0  0  0  0  0  0  0  0  0  0
   -3.5325    0.5261    0.3343 C   0  0  0  0  0  0  0  0  0  0  0  0
   -3.8111    0.1836   -0.9747 C   0  0  0  0  0  0  0  0  0  0  0  0
   -5.1034    0.5557   -1.2057 N   0  0  0  0  0  0  0  0  0  0  0  0
   -5.8477    0.4028   -2.4317 C   0  0  0  0  0  0  0  0  0  0  0  0
   -5.6936    1.1204   -0.1392 N   0  0  0  0  0  0  0  0  0  0  0  0
   -4.7416    1.1008    0.7952 C   0  0  0  0  0  0  0  0  0  0  0  0
   -1.1097    1.1729    0.5236 C   0  0  0  0  0  0  0  0  0  0  0  0
    0.2340    0.6072    0.9622 C   0  0  0  0  0  0  0  0  0  0  0  0
    3.6057   -0.7334   -0.7716 C   0  0  0  0  0  0  0  0  0  0  0  0
    4.9747   -1.1588   -3.0408 H   0  0  0  0  0  0  0  0  0  0  0  0
    4.6021    0.5643   -3.2979 H   0  0  0  0  0  0  0  0  0  0  0  0
    6.2238    0.0552   -2.7674 H   0  0  0  0  0  0  0  0  0  0  0  0
    6.2078    1.4521   -0.7164 H   0  0  0  0  0  0  0  0  0  0  0  0
    5.4501    1.6931    1.5979 H   0  0  0  0  0  0  0  0  0  0  0  0
   -0.6133   -2.6301    0.3963 H   0  0  0  0  0  0  0  0  0  0  0  0
   -1.1841   -1.4481   -0.7607 H   0  0  0  0  0  0  0  0  0  0  0  0
   -2.7509   -1.7896    1.1966 H   0  0  0  0  0  0  0  0  0  0  0  0
   -1.4684   -1.2852    2.2839 H   0  0  0  0  0  0  0  0  0  0  0  0
   -2.4536    0.7227    2.1267 H   0  0  0  0  0  0  0  0  0  0  0  0
   -3.2100   -0.2804   -1.7439 H   0  0  0  0  0  0  0  0  0  0  0  0
   -5.2145   -0.0722   -3.1850 H   0  0  0  0  0  0  0  0  0  0  0  0
   -6.1555    1.3939   -2.7741 H   0  0  0  0  0  0  0  0  0  0  0  0
   -6.7204   -0.2231   -2.2294 H   0  0  0  0  0  0  0  0  0  0  0  0
   -4.9641    1.5052    1.7747 H   0  0  0  0  0  0  0  0  0  0  0  0
   -1.2040    2.2154    0.8518 H   0  0  0  0  0  0  0  0  0  0  0  0
   -1.1513    1.1902   -0.5735 H   0  0  0  0  0  0  0  0  0  0  0  0
    0.2858    0.5827    2.0559 H   0  0  0  0  0  0  0  0  0  0  0  0
    1.0243    1.2672    0.5907 H   0  0  0  0  0  0  0  0  0  0  0  0
    3.0878   -1.4120   -1.4504 H   0  0  0  0  0  0  0  0  0  0  0  0
  1  2  1  0
  2  3  1  0
  3  4  2  0
  4  5  1  0
  5  6  1  0
  5  7  2  0
  7  8  1  0
  8  9  2  0
  8 10  2  0
  8 11  1  0
 11 12  1  0
 12 13  1  0
 13 14  1  0
 14 15  1  0
 15 16  2  0
 16 17  1  0
 17 18  1  0
 17 19  1  0
 19 20  2  0
 14 21  1  0
 21 22  1  0
  7 23  1  0
 23  2  2  0
 22 11  1  0
 20 15  1  0
  1 24  1  0
  1 25  1  0
  1 26  1  0
  3 27  1  0
  4 28  1  0
 12 29  1  0
 12 30  1  0
 13 31  1  0
 13 32  1  0
 14 33  1  0
 16 34  1  0
 18 35  1  0
 18 36  1  0
 18 37  1  0
 20 38  1  0
 21 39  1  0
 21 40  1  0
 22 41  1  0
 22 42  1  0
 23 43  1  0
M  END
$$$$
OCNT-2310401
     RDKit          3D

 49 52  0  0  0  0  0  0  0  0999 V2000
    8.4943    1.0665   -0.5528 C   0  0  0  0  0  0  0  0  0  0  0  0
    7.0645    0.9780   -0.2130 C   0  0  0  0  0  0  0  0  0  0  0  0
    6.1617   -0.0511   -0.1184 C   0  0  0  0  0  0  0  0  0  0  0  0
    4.9499    0.5711    0.2535 C   0  0  0  0  0  0  0  0  0  0  0  0
    3.7200    0.0066    0.4833 N   0  0  0  0  0  0  0  0  0  0  0  0
    3.3969   -1.3220    0.3437 C   0  0  0  0  0  0  0  0  0  0  0  0
    4.1676   -2.2227    0.0200 O   0  0  0  0  0  0  0  0  0  0  0  0
    1.9338   -1.6189    0.7019 C   0  0  0  0  0  0  0  0  0  0  0  0
    1.0679   -0.4327    0.4966 N   0  0  0  0  0  0  0  0  0  0  0  0
   -0.2024   -0.6048    1.2335 C   0  0  0  0  0  0  0  0  0  0  0  0
   -1.3256    0.3388    0.7468 C   0  0  0  0  0  0  0  0  0  0  0  0
   -1.6455    0.2137   -0.6864 N   0  0  0  0  0  0  0  0  0  0  0  0
   -2.9928   -0.2542   -1.0123 C   0  0  0  0  0  0  0  0  0  0  0  0
   -3.4050   -1.6387   -0.4549 C   0  0  0  0  0  0  0  0  0  0  0  0
   -4.9406   -1.6342   -0.3986 C   0  0  0  0  0  0  0  0  0  0  0  0
   -5.2227   -0.1852   -0.1446 C   0  0  0  0  0  0  0  0  0  0  0  0
   -6.4006    0.3832    0.3149 C   0  0  0  0  0  0  0  0  0  0  0  0
   -6.4594    1.7732    0.4339 C   0  0  0  0  0  0  0  0  0  0  0  0
   -5.3563    2.5587    0.0797 C   0  0  0  0  0  0  0  0  0  0  0  0
   -5.4413    3.8910    0.1943 F   0  0  0  0  0  0  0  0  0  0  0  0
   -4.1787    1.9892   -0.3948 C   0  0  0  0  0  0  0  0  0  0  0  0
   -4.1179    0.6074   -0.4924 C   0  0  0  0  0  0  0  0  0  0  0  0
   -0.6074   -0.5165   -1.4287 C   0  0  0  0  0  0  0  0  0  0  0  0
    0.8168   -0.1672   -0.9414 C   0  0  0  0  0  0  0  0  0  0  0  0
    5.1115    1.8934    0.3780 N   0  0  0  0  0  0  0  0  0  0  0  0
    6.4382    2.1466    0.0832 O   0  0  0  0  0  0  0  0  0  0  0  0
    9.0562    1.5258    0.2660 H   0  0  0  0  0  0  0  0  0  0  0  0
    8.6375    1.6717   -1.4532 H   0  0  0  0  0  0  0  0  0  0  0  0
    8.9157    0.0738   -0.7392 H   0  0  0  0  0  0  0  0  0  0  0  0
    6.3537   -1.0987   -0.2938 H   0  0  0  0  0  0  0  0  0  0  0  0
    2.9685    0.6468    0.7191 H   0  0  0  0  0  0  0  0  0  0  0  0
    1.9390   -1.9051    1.7610 H   0  0  0  0  0  0  0  0  0  0  0  0
    1.5822   -2.4728    0.1113 H   0  0  0  0  0  0  0  0  0  0  0  0
   -0.0178   -0.4139    2.2973 H   0  0  0  0  0  0  0  0  0  0  0  0
   -0.5610   -1.6398    1.1503 H   0  0  0  0  0  0  0  0  0  0  0  0
   -2.2027    0.2002    1.3893 H   0  0  0  0  0  0  0  0  0  0  0  0
   -1.0004    1.3737    0.9162 H   0  0  0  0  0  0  0  0  0  0  0  0
   -3.1085   -0.2665   -2.1057 H   0  0  0  0  0  0  0  0  0  0  0  0
   -3.0229   -1.7885    0.5631 H   0  0  0  0  0  0  0  0  0  0  0  0
   -3.0219   -2.4647   -1.0635 H   0  0  0  0  0  0  0  0  0  0  0  0
   -5.3731   -1.9393   -1.3570 H   0  0  0  0  0  0  0  0  0  0  0  0
   -5.3118   -2.2791    0.4027 H   0  0  0  0  0  0  0  0  0  0  0  0
   -7.2582   -0.2298    0.5732 H   0  0  0  0  0  0  0  0  0  0  0  0
   -7.3616    2.2585    0.7932 H   0  0  0  0  0  0  0  0  0  0  0  0
   -3.3390    2.6146   -0.6758 H   0  0  0  0  0  0  0  0  0  0  0  0
   -0.7470   -1.6016   -1.3426 H   0  0  0  0  0  0  0  0  0  0  0  0
   -0.6828   -0.2640   -2.4931 H   0  0  0  0  0  0  0  0  0  0  0  0
    1.5470   -0.6769   -1.5821 H   0  0  0  0  0  0  0  0  0  0  0  0
    0.9821    0.9062   -1.1032 H   0  0  0  0  0  0  0  0  0  0  0  0
  1  2  1  0
  2  3  2  0
  3  4  1  0
  4  5  1  0
  5  6  1  0
  6  7  2  0
  6  8  1  0
  8  9  1  0
  9 10  1  0
 10 11  1  0
 11 12  1  0
 12 13  1  0
 13 14  1  0
 14 15  1  0
 15 16  1  0
 16 17  1  0
 17 18  2  0
 18 19  1  0
 19 20  1  0
 19 21  2  0
 21 22  1  0
 12 23  1  0
 23 24  1  0
  4 25  2  0
 25 26  1  0
 26  2  1  0
 24  9  1  0
 22 13  1  0
 22 16  2  0
  1 27  1  0
  1 28  1  0
  1 29  1  0
  3 30  1  0
  5 31  1  0
  8 32  1  0
  8 33  1  0
 10 34  1  0
 10 35  1  0
 11 36  1  0
 11 37  1  0
 13 38  1  0
 14 39  1  0
 14 40  1  0
 15 41  1  0
 15 42  1  0
 17 43  1  0
 18 44  1  0
 21 45  1  0
 23 46  1  0
 23 47  1  0
 24 48  1  0
 24 49  1  0
M  END
$$$$
OCNT-2310404
     RDKit          3D

 50 52  0  0  0  0  0  0  0  0999 V2000
    5.8474   -2.4362   -1.3160 C   0  0  0  0  0  0  0  0  0  0  0  0
    5.7888   -2.6152    0.1888 C   0  0  0  0  0  0  0  0  0  0  0  0
    4.7624   -1.7167    0.7690 N   0  0  0  0  0  0  0  0  0  0  0  0
    5.3370   -0.2143    1.3265 S   0  0  0  0  0  0  0  0  0  0  0  0
    5.4302   -0.3564    2.7637 O   0  0  0  0  0  0  0  0  0  0  0  0
    6.4547    0.2090    0.5148 O   0  0  0  0  0  0  0  0  0  0  0  0
    3.9632    0.8399    0.9474 C   0  0  0  0  0  0  0  0  0  0  0  0
    3.5843    1.0063   -0.3874 C   0  0  0  0  0  0  0  0  0  0  0  0
    2.4990    1.8263   -0.6988 C   0  0  0  0  0  0  0  0  0  0  0  0
    1.7899    2.4814    0.3197 C   0  0  0  0  0  0  0  0  0  0  0  0
    0.6065    3.3621   -0.0152 C   0  0  0  0  0  0  0  0  0  0  0  0
   -0.6915    2.9167    0.6392 C   0  0  0  0  0  0  0  0  0  0  0  0
   -1.3830    3.6804    1.3079 O   0  0  0  0  0  0  0  0  0  0  0  0
   -1.0486    1.6066    0.3777 N   0  0  0  0  0  0  0  0  0  0  0  0
   -2.2604    0.9975    0.9642 C   0  0  2  0  0  0  0  0  0  0  0  0
   -2.4812   -0.4756    0.5577 C   0  0  0  0  0  0  0  0  0  0  0  0
   -3.3482    0.0309   -0.6306 C   0  0  1  0  0  0  0  0  0  0  0  0
   -4.6109   -0.8196   -1.0762 C   0  0  0  0  0  0  0  0  0  0  0  0
   -4.5893   -2.2293   -1.1006 C   0  0  0  0  0  0  0  0  0  0  0  0
   -5.6979   -2.9836   -1.5028 C   0  0  0  0  0  0  0  0  0  0  0  0
   -6.8620   -2.3386   -1.9028 C   0  0  0  0  0  0  0  0  0  0  0  0
   -8.2245   -3.2591   -2.4037 Cl  0  0  0  0  0  0  0  0  0  0  0  0
   -6.9239   -0.9501   -1.9016 C   0  0  0  0  0  0  0  0  0  0  0  0
   -5.8093   -0.2062   -1.4962 C   0  0  0  0  0  0  0  0  0  0  0  0
   -3.5665    1.3237    0.2074 C   0  0  0  0  0  0  0  0  0  0  0  0
    2.1961    2.3180    1.6543 C   0  0  0  0  0  0  0  0  0  0  0  0
    3.2786    1.4962    1.9711 C   0  0  0  0  0  0  0  0  0  0  0  0
    6.5512   -3.1482   -1.7601 H   0  0  0  0  0  0  0  0  0  0  0  0
    6.1661   -1.4262   -1.5922 H   0  0  0  0  0  0  0  0  0  0  0  0
    4.8640   -2.6095   -1.7653 H   0  0  0  0  0  0  0  0  0  0  0  0
    6.7675   -2.4598    0.6572 H   0  0  0  0  0  0  0  0  0  0  0  0
    5.4954   -3.6467    0.4164 H   0  0  0  0  0  0  0  0  0  0  0  0
    4.3135   -2.1649    1.5717 H   0  0  0  0  0  0  0  0  0  0  0  0
    4.1325    0.5031   -1.1813 H   0  0  0  0  0  0  0  0  0  0  0  0
    2.2155    1.9523   -1.7422 H   0  0  0  0  0  0  0  0  0  0  0  0
    0.8299    4.3898    0.3001 H   0  0  0  0  0  0  0  0  0  0  0  0
    0.4349    3.3900   -1.0992 H   0  0  0  0  0  0  0  0  0  0  0  0
   -0.3544    1.0222   -0.0764 H   0  0  0  0  0  0  0  0  0  0  0  0
   -2.3033    1.1672    2.0455 H   0  0  0  0  0  0  0  0  0  0  0  0
   -1.5875   -1.0424    0.2800 H   0  0  0  0  0  0  0  0  0  0  0  0
   -3.0331   -1.0500    1.3111 H   0  0  0  0  0  0  0  0  0  0  0  0
   -2.7193    0.2386   -1.5109 H   0  0  0  0  0  0  0  0  0  0  0  0
   -3.6851   -2.7558   -0.7978 H   0  0  0  0  0  0  0  0  0  0  0  0
   -5.6419   -4.0696   -1.5006 H   0  0  0  0  0  0  0  0  0  0  0  0
   -7.8285   -0.4373   -2.2161 H   0  0  0  0  0  0  0  0  0  0  0  0
   -5.8751    0.8811   -1.5099 H   0  0  0  0  0  0  0  0  0  0  0  0
   -4.4526    1.3040    0.8537 H   0  0  0  0  0  0  0  0  0  0  0  0
   -3.5777    2.2569   -0.3645 H   0  0  0  0  0  0  0  0  0  0  0  0
    1.6679    2.8319    2.4571 H   0  0  0  0  0  0  0  0  0  0  0  0
    3.5791    1.3795    3.0100 H   0  0  0  0  0  0  0  0  0  0  0  0
  1  2  1  0
  2  3  1  0
  3  4  1  0
  4  5  2  0
  4  6  2  0
  4  7  1  0
  7  8  1  0
  8  9  2  0
  9 10  1  0
 10 11  1  0
 11 12  1  0
 12 13  2  0
 12 14  1  0
 14 15  1  0
 15 16  1  0
 16 17  1  0
 17 18  1  0
 18 19  1  0
 19 20  2  0
 20 21  1  0
 21 22  1  0
 21 23  2  0
 23 24  1  0
 17 25  1  0
 10 26  2  0
 26 27  1  0
 27  7  2  0
 25 15  1  0
 24 18  2  0
  1 28  1  0
  1 29  1  0
  1 30  1  0
  2 31  1  0
  2 32  1  0
  3 33  1  0
  8 34  1  0
  9 35  1  0
 11 36  1  0
 11 37  1  0
 14 38  1  0
 15 39  1  1
 16 40  1  0
 16 41  1  0
 17 42  1  6
 19 43  1  0
 20 44  1  0
 23 45  1  0
 24 46  1  0
 25 47  1  0
 25 48  1  0
 26 49  1  0
 27 50  1  0
M  END
$$$$
OCNT-2310417
     RDKit          3D

 49 52  0  0  0  0  0  0  0  0999 V2000
   -2.2146    1.9243   -2.6567 C   0  0  0  0  0  0  0  0  0  0  0  0
   -2.3061    0.9638   -1.5042 C   0  0  0  0  0  0  0  0  0  0  0  0
   -1.1722    0.2431   -1.1279 C   0  0  0  0  0  0  0  0  0  0  0  0
   -1.2514   -0.6512   -0.0518 C   0  0  0  0  0  0  0  0  0  0  0  0
   -0.0891   -1.4420    0.4111 C   0  0  0  0  0  0  0  0  0  0  0  0
    0.0220   -1.7385    1.5945 O   0  0  0  0  0  0  0  0  0  0  0  0
    0.8203   -1.8171   -0.5537 N   0  0  0  0  0  0  0  0  0  0  0  0
    2.0378   -2.5224   -0.2166 C   0  0  0  0  0  0  0  0  0  0  0  0
    3.1945   -1.5717   -0.1164 C   0  0  0  0  0  0  0  0  0  0  0  0
    3.3713   -0.7591    1.0055 C   0  0  0  0  0  0  0  0  0  0  0  0
    4.4422    0.1333    1.0639 C   0  0  0  0  0  0  0  0  0  0  0  0
    5.3169    0.1947   -0.0169 C   0  0  0  0  0  0  0  0  0  0  0  0
    6.4201    1.0934   -0.0056 N   0  0  0  0  0  0  0  0  0  0  0  0
    7.3464    1.2414   -1.0173 C   0  0  0  0  0  0  0  0  0  0  0  0
    8.2224    2.2098   -0.5921 C   0  0  0  0  0  0  0  0  0  0  0  0
    7.8721    2.6682    0.6475 N   0  0  0  0  0  0  0  0  0  0  0  0
    6.7962    1.9838    0.9740 C   0  0  0  0  0  0  0  0  0  0  0  0
    5.1620   -0.5833   -1.1213 N   0  0  0  0  0  0  0  0  0  0  0  0
    4.1165   -1.4405   -1.1448 C   0  0  0  0  0  0  0  0  0  0  0  0
   -2.4786   -0.7551    0.6195 C   0  0  0  0  0  0  0  0  0  0  0  0
   -3.0240   -1.4598    1.7146 C   0  0  0  0  0  0  0  0  0  0  0  0
   -4.3154   -1.1816    1.9232 N   0  0  0  0  0  0  0  0  0  0  0  0
   -4.6021   -0.2752    0.9570 N   0  0  0  0  0  0  0  0  0  0  0  0
   -5.9376    0.3019    0.8616 C   0  0  0  0  0  0  0  0  0  0  0  0
   -6.9980   -0.7726    0.6237 C   0  0  0  0  0  0  0  0  0  0  0  0
   -6.2659    1.1462    2.0924 C   0  0  0  0  0  0  0  0  0  0  0  0
   -3.5327    0.0109    0.1459 C   0  0  0  0  0  0  0  0  0  0  0  0
   -3.5100    0.8661   -0.8962 N   0  0  0  0  0  0  0  0  0  0  0  0
   -3.1727    2.4278   -2.8222 H   0  0  0  0  0  0  0  0  0  0  0  0
   -1.9480    1.3884   -3.5730 H   0  0  0  0  0  0  0  0  0  0  0  0
   -1.4585    2.6890   -2.4525 H   0  0  0  0  0  0  0  0  0  0  0  0
   -0.2368    0.4072   -1.6524 H   0  0  0  0  0  0  0  0  0  0  0  0
    0.6580   -1.5983   -1.5258 H   0  0  0  0  0  0  0  0  0  0  0  0
    1.9200   -3.0722    0.7241 H   0  0  0  0  0  0  0  0  0  0  0  0
    2.2116   -3.2638   -1.0045 H   0  0  0  0  0  0  0  0  0  0  0  0
    2.6710   -0.8172    1.8383 H   0  0  0  0  0  0  0  0  0  0  0  0
    4.5512    0.7479    1.9492 H   0  0  0  0  0  0  0  0  0  0  0  0
    7.2960    0.6558   -1.9245 H   0  0  0  0  0  0  0  0  0  0  0  0
    9.0863    2.5997   -1.1150 H   0  0  0  0  0  0  0  0  0  0  0  0
    6.2627    2.1045    1.9059 H   0  0  0  0  0  0  0  0  0  0  0  0
    4.0434   -2.0355   -2.0514 H   0  0  0  0  0  0  0  0  0  0  0  0
   -2.5278   -2.1664    2.3689 H   0  0  0  0  0  0  0  0  0  0  0  0
   -5.9355    0.9661   -0.0110 H   0  0  0  0  0  0  0  0  0  0  0  0
   -7.9805   -0.3162    0.4645 H   0  0  0  0  0  0  0  0  0  0  0  0
   -7.0795   -1.4578    1.4745 H   0  0  0  0  0  0  0  0  0  0  0  0
   -6.7553   -1.3702   -0.2620 H   0  0  0  0  0  0  0  0  0  0  0  0
   -7.2382    1.6366    1.9776 H   0  0  0  0  0  0  0  0  0  0  0  0
   -6.3003    0.5381    3.0031 H   0  0  0  0  0  0  0  0  0  0  0  0
   -5.5103    1.9256    2.2418 H   0  0  0  0  0  0  0  0  0  0  0  0
  1  2  1  0
  2  3  1  0
  3  4  2  0
  4  5  1  0
  5  6  2  0
  5  7  1  0
  7  8  1  0
  8  9  1  0
  9 10  2  0
 10 11  1  0
 11 12  2  0
 12 13  1  0
 13 14  1  0
 14 15  2  0
 15 16  1  0
 16 17  2  0
 12 18  1  0
 18 19  2  0
  4 20  1  0
 20 21  1  0
 21 22  2  0
 22 23  1  0
 23 24  1  0
 24 25  1  0
 24 26  1  0
 23 27  1  0
 27 28  1  0
 28  2  2  0
 19  9  1  0
 27 20  2  0
 17 13  1  0
  1 29  1  0
  1 30  1  0
  1 31  1  0
  3 32  1  0
  7 33  1  0
  8 34  1  0
  8 35  1  0
 10 36  1  0
 11 37  1  0
 14 38  1  0
 15 39  1  0
 17 40  1  0
 19 41  1  0
 21 42  1  0
 24 43  1  0
 25 44  1  0
 25 45  1  0
 25 46  1  0
 26 47  1  0
 26 48  1  0
 26 49  1  0
M  END
$$$$
OCNT-2310418
     RDKit          3D

 55 58  0  0  0  0  0  0  0  0999 V2000
   -1.5073   -0.1222   -2.9184 O   0  0  0  0  0  0  0  0  0  0  0  0
   -1.0968   -0.7096   -1.9246 C   0  0  0  0  0  0  0  0  0  0  0  0
   -1.8668   -1.5601   -1.1560 N   0  0  0  0  0  0  0  0  0  0  0  0
   -3.2911   -1.7228   -1.3987 C   0  0  0  0  0  0  0  0  0  0  0  0
   -4.1802   -1.0591   -0.3076 C   0  0  0  0  0  0  0  0  0  0  0  0
   -3.8730    0.4426   -0.1688 C   0  0  0  0  0  0  0  0  0  0  0  0
   -3.4629    1.0406    1.0293 C   0  0  0  0  0  0  0  0  0  0  0  0
   -3.1986    2.4053    1.0583 C   0  0  0  0  0  0  0  0  0  0  0  0
   -3.3043    3.2186   -0.0098 N   0  0  0  0  0  0  0  0  0  0  0  0
   -3.6865    2.6367   -1.1631 C   0  0  0  0  0  0  0  0  0  0  0  0
   -3.9822    1.2861   -1.2866 C   0  0  0  0  0  0  0  0  0  0  0  0
   -4.0985   -1.8812    1.0043 C   0  0  0  0  0  0  0  0  0  0  0  0
   -5.4173   -1.6364    1.7406 C   0  0  0  0  0  0  0  0  0  0  0  0
   -6.4030   -1.1376    0.6877 C   0  0  0  0  0  0  0  0  0  0  0  0
   -5.6766   -1.2663   -0.6482 C   0  0  0  0  0  0  0  0  0  0  0  0
    0.3000   -0.5039   -1.4608 C   0  0  0  0  0  0  0  0  0  0  0  0
    0.8845    0.7530   -1.6345 C   0  0  0  0  0  0  0  0  0  0  0  0
    2.1979    0.9870   -1.2092 C   0  0  0  0  0  0  0  0  0  0  0  0
    2.9445   -0.0348   -0.6194 C   0  0  0  0  0  0  0  0  0  0  0  0
    4.2700    0.1189   -0.1624 N   0  0  0  0  0  0  0  0  0  0  0  0
    5.0751    1.2378   -0.2837 C   0  0  0  0  0  0  0  0  0  0  0  0
    4.8049    2.2800   -0.8668 O   0  0  0  0  0  0  0  0  0  0  0  0
    6.4227    1.1061    0.3391 C   0  0  0  0  0  0  0  0  0  0  0  0
    7.5149    1.7070   -0.2983 C   0  0  0  0  0  0  0  0  0  0  0  0
    8.7920    1.6023    0.2544 C   0  0  0  0  0  0  0  0  0  0  0  0
    8.9796    0.9078    1.4493 C   0  0  0  0  0  0  0  0  0  0  0  0
    7.8914    0.3244    2.0991 C   0  0  0  0  0  0  0  0  0  0  0  0
    6.6114    0.4251    1.5494 C   0  0  0  0  0  0  0  0  0  0  0  0
    2.3557   -1.2972   -0.4579 C   0  0  0  0  0  0  0  0  0  0  0  0
    1.0421   -1.5353   -0.8780 C   0  0  0  0  0  0  0  0  0  0  0  0
   -1.4972   -1.8915   -0.2762 H   0  0  0  0  0  0  0  0  0  0  0  0
   -3.4716   -2.8039   -1.4335 H   0  0  0  0  0  0  0  0  0  0  0  0
   -3.5432   -1.3367   -2.3929 H   0  0  0  0  0  0  0  0  0  0  0  0
   -3.3409    0.4839    1.9498 H   0  0  0  0  0  0  0  0  0  0  0  0
   -2.8822    2.8913    1.9769 H   0  0  0  0  0  0  0  0  0  0  0  0
   -3.7489    3.2998   -2.0210 H   0  0  0  0  0  0  0  0  0  0  0  0
   -4.2685    0.9043   -2.2619 H   0  0  0  0  0  0  0  0  0  0  0  0
   -4.0409   -2.9540    0.7736 H   0  0  0  0  0  0  0  0  0  0  0  0
   -3.2251   -1.6594    1.6246 H   0  0  0  0  0  0  0  0  0  0  0  0
   -5.7717   -2.5579    2.2148 H   0  0  0  0  0  0  0  0  0  0  0  0
   -5.2992   -0.8905    2.5337 H   0  0  0  0  0  0  0  0  0  0  0  0
   -7.3357   -1.7102    0.6964 H   0  0  0  0  0  0  0  0  0  0  0  0
   -6.6597   -0.0900    0.8835 H   0  0  0  0  0  0  0  0  0  0  0  0
   -6.0723   -0.5636   -1.3885 H   0  0  0  0  0  0  0  0  0  0  0  0
   -5.8416   -2.2777   -1.0433 H   0  0  0  0  0  0  0  0  0  0  0  0
    0.3180    1.5607   -2.0952 H   0  0  0  0  0  0  0  0  0  0  0  0
    2.6055    1.9829   -1.3552 H   0  0  0  0  0  0  0  0  0  0  0  0
    4.6976   -0.7078    0.2331 H   0  0  0  0  0  0  0  0  0  0  0  0
    7.3708    2.2566   -1.2266 H   0  0  0  0  0  0  0  0  0  0  0  0
    9.6385    2.0679   -0.2446 H   0  0  0  0  0  0  0  0  0  0  0  0
    9.9749    0.8326    1.8813 H   0  0  0  0  0  0  0  0  0  0  0  0
    8.0407   -0.1977    3.0413 H   0  0  0  0  0  0  0  0  0  0  0  0
    5.7716   -0.0019    2.0902 H   0  0  0  0  0  0  0  0  0  0  0  0
    2.9147   -2.1173   -0.0142 H   0  0  0  0  0  0  0  0  0  0  0  0
    0.6249   -2.5324   -0.7720 H   0  0  0  0  0  0  0  0  0  0  0  0
  1  2  2  0
  2  3  1  0
  3  4  1  0
  4  5  1  0
  5  6  1  0
  6  7  2  0
  7  8  1  0
  8  9  2  0
  9 10  1  0
 10 11  2  0
  5 12  1  0
 12 13  1  0
 13 14  1  0
 14 15  1  0
  2 16  1  0
 16 17  1  0
 17 18  2  0
 18 19  1  0
 19 20  1  0
 20 21  1  0
 21 22  2  0
 21 23  1  0
 23 24  2  0
 24 25  1  0
 25 26  2  0
 26 27  1  0
 27 28  2  0
 19 29  2  0
 29 30  1  0
 15  5  1  0
 30 16  2  0
 11  6  1  0
 28 23  1  0
  3 31  1  0
  4 32  1  0
  4 33  1  0
  7 34  1  0
  8 35  1  0
 10 36  1  0
 11 37  1  0
 12 38  1  0
 12 39  1  0
 13 40  1  0
 13 41  1  0
 14 42  1  0
 14 43  1  0
 15 44  1  0
 15 45  1  0
 17 46  1  0
 18 47  1  0
 20 48  1  0
 24 49  1  0
 25 50  1  0
 26 51  1  0
 27 52  1  0
 28 53  1  0
 29 54  1  0
 30 55  1  0
M  END
$$$$
OCNT-2310433
     RDKit          3D

 43 46  0  0  0  0  0  0  0  0999 V2000
    0.1805   -1.0404    1.6440 C   0  0  0  0  0  0  0  0  0  0  0  0
   -1.0395   -0.4407    0.9465 C   0  0  0  0  0  0  0  0  0  0  0  0
   -1.7336   -1.4374    0.0036 C   0  0  0  0  0  0  0  0  0  0  0  0
   -2.5405   -0.8049   -1.0038 O   0  0  0  0  0  0  0  0  0  0  0  0
   -3.5634   -0.0718   -0.4641 C   0  0  0  0  0  0  0  0  0  0  0  0
   -4.8542   -0.5632   -0.6730 C   0  0  0  0  0  0  0  0  0  0  0  0
   -5.9556    0.1354   -0.1843 C   0  0  0  0  0  0  0  0  0  0  0  0
   -5.7673    1.3352    0.4961 C   0  0  0  0  0  0  0  0  0  0  0  0
   -4.4776    1.8391    0.6817 C   0  0  0  0  0  0  0  0  0  0  0  0
   -3.3510    1.1438    0.2052 C   0  0  0  0  0  0  0  0  0  0  0  0
   -1.9885    1.7860    0.3945 C   0  0  0  0  0  0  0  0  0  0  0  0
   -0.8428    0.8784    0.3084 N   0  0  0  0  0  0  0  0  0  0  0  0
    0.2350    1.3271   -0.4465 C   0  0  0  0  0  0  0  0  0  0  0  0
    0.4082    2.5040   -0.7578 O   0  0  0  0  0  0  0  0  0  0  0  0
    1.2478    0.3811   -0.9306 C   0  0  0  0  0  0  0  0  0  0  0  0
    0.9261   -0.5192   -1.9397 C   0  0  0  0  0  0  0  0  0  0  0  0
    1.9307   -1.3501   -2.3864 C   0  0  0  0  0  0  0  0  0  0  0  0
    3.1933   -1.3206   -1.9051 N   0  0  0  0  0  0  0  0  0  0  0  0
    3.4967   -0.3962   -0.9537 C   0  0  0  0  0  0  0  0  0  0  0  0
    4.8385   -0.3612   -0.4855 N   0  0  0  0  0  0  0  0  0  0  0  0
    5.4076    0.4655    0.4585 C   0  0  0  0  0  0  0  0  0  0  0  0
    6.7254    0.0798    0.5484 C   0  0  0  0  0  0  0  0  0  0  0  0
    6.9904   -0.9545   -0.3037 N   0  0  0  0  0  0  0  0  0  0  0  0
    5.8489   -1.1945   -0.9122 C   0  0  0  0  0  0  0  0  0  0  0  0
    2.5519    0.4821   -0.4447 C   0  0  0  0  0  0  0  0  0  0  0  0
   -0.1325   -1.8412    2.3235 H   0  0  0  0  0  0  0  0  0  0  0  0
    0.7069   -0.2844    2.2358 H   0  0  0  0  0  0  0  0  0  0  0  0
    0.8886   -1.4879    0.9432 H   0  0  0  0  0  0  0  0  0  0  0  0
   -1.7348   -0.2473    1.7766 H   0  0  0  0  0  0  0  0  0  0  0  0
   -2.3392   -2.1557    0.5719 H   0  0  0  0  0  0  0  0  0  0  0  0
   -0.9891   -2.0330   -0.5345 H   0  0  0  0  0  0  0  0  0  0  0  0
   -4.9995   -1.4914   -1.2190 H   0  0  0  0  0  0  0  0  0  0  0  0
   -6.9592   -0.2500   -0.3436 H   0  0  0  0  0  0  0  0  0  0  0  0
   -6.6255    1.8885    0.8699 H   0  0  0  0  0  0  0  0  0  0  0  0
   -4.3555    2.7916    1.1947 H   0  0  0  0  0  0  0  0  0  0  0  0
   -1.8989    2.5989   -0.3350 H   0  0  0  0  0  0  0  0  0  0  0  0
   -1.9387    2.2305    1.3966 H   0  0  0  0  0  0  0  0  0  0  0  0
   -0.0671   -0.5570   -2.3735 H   0  0  0  0  0  0  0  0  0  0  0  0
    1.7492   -2.0802   -3.1709 H   0  0  0  0  0  0  0  0  0  0  0  0
    4.8646    1.2403    0.9771 H   0  0  0  0  0  0  0  0  0  0  0  0
    7.4968    0.4963    1.1839 H   0  0  0  0  0  0  0  0  0  0  0  0
    5.6866   -1.9545   -1.6659 H   0  0  0  0  0  0  0  0  0  0  0  0
    2.7802    1.2338    0.3012 H   0  0  0  0  0  0  0  0  0  0  0  0
  1  2  1  0
  2  3  1  0
  3  4  1  0
  4  5  1  0
  5  6  2  0
  6  7  1  0
  7  8  2  0
  8  9  1  0
  9 10  2  0
 10 11  1  0
 11 12  1  0
 12 13  1  0
 13 14  2  0
 13 15  1  0
 15 16  2  0
 16 17  1  0
 17 18  2  0
 18 19  1  0
 19 20  1  0
 20 21  1  0
 21 22  2  0
 22 23  1  0
 23 24  2  0
 19 25  2  0
 12  2  1  0
 25 15  1  0
 10  5  1  0
 24 20  1  0
  1 26  1  0
  1 27  1  0
  1 28  1  0
  2 29  1  0
  3 30  1  0
  3 31  1  0
  6 32  1  0
  7 33  1  0
  8 34  1  0
  9 35  1  0
 11 36  1  0
 11 37  1  0
 16 38  1  0
 17 39  1  0
 21 40  1  0
 22 41  1  0
 24 42  1  0
 25 43  1  0
M  END
$$$$
OCNT-2310436
     RDKit          3D

 36 37  0  0  0  0  0  0  0  0999 V2000
    6.6149    0.6139    0.6876 C   0  0  0  0  0  0  0  0  0  0  0  0
    5.6555   -0.1271   -0.2263 C   0  0  0  0  0  0  0  0  0  0  0  0
    4.3475    0.4044   -0.0156 O   0  0  0  0  0  0  0  0  0  0  0  0
    3.3375   -0.1415   -0.7532 C   0  0  0  0  0  0  0  0  0  0  0  0
    3.4389   -1.1588   -1.6929 C   0  0  0  0  0  0  0  0  0  0  0  0
    2.3891   -1.6596   -2.3890 N   0  0  0  0  0  0  0  0  0  0  0  0
    1.1772   -1.1170   -2.1350 C   0  0  0  0  0  0  0  0  0  0  0  0
    0.9617   -0.0860   -1.2275 C   0  0  0  0  0  0  0  0  0  0  0  0
   -0.4187    0.4611   -0.9973 C   0  0  0  0  0  0  0  0  0  0  0  0
   -1.1744   -0.4703   -0.1727 N   0  0  0  0  0  0  0  0  0  0  0  0
   -2.4531   -0.1261    0.2733 C   0  0  0  0  0  0  0  0  0  0  0  0
   -3.0165   -0.8714    1.3188 C   0  0  0  0  0  0  0  0  0  0  0  0
   -4.3175   -0.6280    1.7732 C   0  0  0  0  0  0  0  0  0  0  0  0
   -5.1091    0.3526    1.1656 C   0  0  0  0  0  0  0  0  0  0  0  0
   -6.5044    0.6363    1.6622 C   0  0  0  0  0  0  0  0  0  0  0  0
   -7.3439    1.0708    0.6806 F   0  0  0  0  0  0  0  0  0  0  0  0
   -6.5249    1.6001    2.6239 F   0  0  0  0  0  0  0  0  0  0  0  0
   -7.1106   -0.4531    2.2122 F   0  0  0  0  0  0  0  0  0  0  0  0
   -4.5665    1.0806    0.0997 C   0  0  0  0  0  0  0  0  0  0  0  0
   -3.2631    0.8295   -0.3490 C   0  0  0  0  0  0  0  0  0  0  0  0
    2.0715    0.3947   -0.5237 C   0  0  0  0  0  0  0  0  0  0  0  0
    7.6361    0.2426    0.5643 H   0  0  0  0  0  0  0  0  0  0  0  0
    6.6004    1.6875    0.4726 H   0  0  0  0  0  0  0  0  0  0  0  0
    6.3191    0.4946    1.7352 H   0  0  0  0  0  0  0  0  0  0  0  0
    5.9636    0.0234   -1.2674 H   0  0  0  0  0  0  0  0  0  0  0  0
    5.6764   -1.1947    0.0217 H   0  0  0  0  0  0  0  0  0  0  0  0
    4.3832   -1.6328   -1.9369 H   0  0  0  0  0  0  0  0  0  0  0  0
    0.3536   -1.5521   -2.6966 H   0  0  0  0  0  0  0  0  0  0  0  0
   -0.9030    0.6078   -1.9706 H   0  0  0  0  0  0  0  0  0  0  0  0
   -0.3516    1.4418   -0.5097 H   0  0  0  0  0  0  0  0  0  0  0  0
   -0.6113   -0.8789    0.5706 H   0  0  0  0  0  0  0  0  0  0  0  0
   -2.4386   -1.6609    1.7950 H   0  0  0  0  0  0  0  0  0  0  0  0
   -4.7111   -1.2197    2.5983 H   0  0  0  0  0  0  0  0  0  0  0  0
   -5.1611    1.8438   -0.4007 H   0  0  0  0  0  0  0  0  0  0  0  0
   -2.9033    1.4015   -1.1990 H   0  0  0  0  0  0  0  0  0  0  0  0
    1.9567    1.1906    0.2084 H   0  0  0  0  0  0  0  0  0  0  0  0
  1  2  1  0
  2  3  1  0
  3  4  1  0
  4  5  1  0
  5  6  2  0
  6  7  1  0
  7  8  2  0
  8  9  1  0
  9 10  1  0
 10 11  1  0
 11 12  1  0
 12 13  2  0
 13 14  1  0
 14 15  1  0
 15 16  1  0
 15 17  1  0
 15 18  1  0
 14 19  2  0
 19 20  1  0
  8 21  1  0
 21  4  2  0
 20 11  2  0
  1 22  1  0
  1 23  1  0
  1 24  1  0
  2 25  1  0
  2 26  1  0
  5 27  1  0
  7 28  1  0
  9 29  1  0
  9 30  1  0
 10 31  1  0
 12 32  1  0
 13 33  1  0
 19 34  1  0
 20 35  1  0
 21 36  1  0
M  END
$$$$
OCNT-2310437
     RDKit          3D

 41 43  0  0  0  0  0  0  0  0999 V2000
   -1.1228   -2.4630   -0.6694 O   0  0  0  0  0  0  0  0  0  0  0  0
   -1.4601   -1.3832   -0.1907 C   0  0  0  0  0  0  0  0  0  0  0  0
   -2.2900   -1.2834    1.0935 C   0  0  0  0  0  0  0  0  0  0  0  0
   -3.5842   -0.6347    0.8824 N   0  0  0  0  0  0  0  0  0  0  0  0
   -4.6257   -1.4016    0.2040 C   0  0  0  0  0  0  0  0  0  0  0  0
   -6.0022   -0.7679    0.3821 C   0  0  0  0  0  0  0  0  0  0  0  0
   -5.9741    0.5670   -0.1245 O   0  0  0  0  0  0  0  0  0  0  0  0
   -5.0417    1.3572    0.6023 C   0  0  0  0  0  0  0  0  0  0  0  0
   -3.6466    0.7552    0.8581 C   0  0  0  0  0  0  0  0  0  0  0  0
   -2.6598    1.4623    1.0668 O   0  0  0  0  0  0  0  0  0  0  0  0
   -1.1061   -0.1654   -0.7268 N   0  0  0  0  0  0  0  0  0  0  0  0
   -0.2241   -0.0434   -1.8595 C   0  0  0  0  0  0  0  0  0  0  0  0
    1.2016    0.1431   -1.4115 C   0  0  0  0  0  0  0  0  0  0  0  0
    2.0188   -0.9643   -1.1595 C   0  0  0  0  0  0  0  0  0  0  0  0
    3.3379   -0.7987   -0.7182 C   0  0  0  0  0  0  0  0  0  0  0  0
    3.8685    0.4851   -0.5109 C   0  0  0  0  0  0  0  0  0  0  0  0
    5.2127    0.6430   -0.0620 N   0  0  0  0  0  0  0  0  0  0  0  0
    6.1218   -0.3637    0.2059 C   0  0  0  0  0  0  0  0  0  0  0  0
    7.2816    0.2539    0.6077 C   0  0  0  0  0  0  0  0  0  0  0  0
    7.1330    1.6069    0.6015 N   0  0  0  0  0  0  0  0  0  0  0  0
    5.8964    1.8129    0.2004 C   0  0  0  0  0  0  0  0  0  0  0  0
    3.0395    1.5864   -0.7541 C   0  0  0  0  0  0  0  0  0  0  0  0
    3.4585    2.8461   -0.5782 F   0  0  0  0  0  0  0  0  0  0  0  0
    1.7240    1.4213   -1.1939 C   0  0  0  0  0  0  0  0  0  0  0  0
   -2.4610   -2.2879    1.4947 H   0  0  0  0  0  0  0  0  0  0  0  0
   -1.7103   -0.7217    1.8349 H   0  0  0  0  0  0  0  0  0  0  0  0
   -4.6320   -2.4219    0.6005 H   0  0  0  0  0  0  0  0  0  0  0  0
   -4.3620   -1.4296   -0.8595 H   0  0  0  0  0  0  0  0  0  0  0  0
   -6.7526   -1.3291   -0.1830 H   0  0  0  0  0  0  0  0  0  0  0  0
   -6.3081   -0.7534    1.4349 H   0  0  0  0  0  0  0  0  0  0  0  0
   -5.4778    1.6128    1.5748 H   0  0  0  0  0  0  0  0  0  0  0  0
   -4.9035    2.2868    0.0406 H   0  0  0  0  0  0  0  0  0  0  0  0
   -1.3167    0.6698   -0.1813 H   0  0  0  0  0  0  0  0  0  0  0  0
   -0.3095   -0.9242   -2.5061 H   0  0  0  0  0  0  0  0  0  0  0  0
   -0.5559    0.8216   -2.4443 H   0  0  0  0  0  0  0  0  0  0  0  0
    1.6259   -1.9719   -1.2993 H   0  0  0  0  0  0  0  0  0  0  0  0
    3.9140   -1.7023   -0.5435 H   0  0  0  0  0  0  0  0  0  0  0  0
    5.8974   -1.4128    0.0978 H   0  0  0  0  0  0  0  0  0  0  0  0
    8.2144   -0.2109    0.9003 H   0  0  0  0  0  0  0  0  0  0  0  0
    5.4645    2.7965    0.0896 H   0  0  0  0  0  0  0  0  0  0  0  0
    1.1161    2.3071   -1.3603 H   0  0  0  0  0  0  0  0  0  0  0  0
  1  2  2  0
  2  3  1  0
  3  4  1  0
  4  5  1  0
  5  6  1  0
  6  7  1  0
  7  8  1  0
  8  9  1  0
  9 10  2  0
  2 11  1  0
 11 12  1  0
 12 13  1  0
 13 14  1  0
 14 15  2  0
 15 16  1  0
 16 17  1  0
 17 18  1  0
 18 19  2  0
 19 20  1  0
 20 21  2  0
 16 22  2  0
 22 23  1  0
 22 24  1  0
  9  4  1  0
 24 13  2  0
 21 17  1  0
  3 25  1  0
  3 26  1  0
  5 27  1  0
  5 28  1  0
  6 29  1  0
  6 30  1  0
  8 31  1  0
  8 32  1  0
 11 33  1  0
 12 34  1  0
 12 35  1  0
 14 36  1  0
 15 37  1  0
 18 38  1  0
 19 39  1  0
 21 40  1  0
 24 41  1  0
M  END
$$$$
OCNT-2310440
     RDKit          3D

 50 53  0  0  0  0  0  0  0  0999 V2000
    0.0529   -1.4722    1.1766 O   0  0  0  0  0  0  0  0  0  0  0  0
    0.2425   -1.0691    0.0362 C   0  0  0  0  0  0  0  0  0  0  0  0
    1.2774   -1.4889   -0.7686 N   0  0  0  0  0  0  0  0  0  0  0  0
    2.2984   -2.3916   -0.2905 C   0  0  0  0  0  0  0  0  0  0  0  0
    3.5792   -1.6429   -0.0258 C   0  0  0  0  0  0  0  0  0  0  0  0
    4.6362   -1.6726   -0.9411 C   0  0  0  0  0  0  0  0  0  0  0  0
    5.8140   -0.9571   -0.6944 C   0  0  0  0  0  0  0  0  0  0  0  0
    5.9521   -0.1920    0.4733 C   0  0  0  0  0  0  0  0  0  0  0  0
    7.1508    0.5386    0.7233 N   0  0  0  0  0  0  0  0  0  0  0  0
    8.2768    0.6024   -0.0722 C   0  0  0  0  0  0  0  0  0  0  0  0
    9.1623    1.4293    0.5772 C   0  0  0  0  0  0  0  0  0  0  0  0
    8.6309    1.8834    1.7473 N   0  0  0  0  0  0  0  0  0  0  0  0
    7.4358    1.3374    1.8121 C   0  0  0  0  0  0  0  0  0  0  0  0
    4.8901   -0.1564    1.3877 C   0  0  0  0  0  0  0  0  0  0  0  0
    3.7161   -0.8744    1.1364 C   0  0  0  0  0  0  0  0  0  0  0  0
   -0.6751   -0.0698   -0.5667 C   0  0  0  0  0  0  0  0  0  0  0  0
   -0.1793    0.9837   -1.3429 C   0  0  0  0  0  0  0  0  0  0  0  0
   -1.0618    1.9203   -1.8752 C   0  0  0  0  0  0  0  0  0  0  0  0
   -2.4327    1.8036   -1.6312 C   0  0  0  0  0  0  0  0  0  0  0  0
   -2.9388    0.7516   -0.8542 C   0  0  0  0  0  0  0  0  0  0  0  0
   -4.3352    0.7163   -0.6537 N   0  0  0  0  0  0  0  0  0  0  0  0
   -5.0669   -0.2982   -0.0629 C   0  0  0  0  0  0  0  0  0  0  0  0
   -4.6475   -1.3902    0.2983 O   0  0  0  0  0  0  0  0  0  0  0  0
   -6.5246   -0.0198    0.0800 C   0  0  0  0  0  0  0  0  0  0  0  0
   -7.4255   -1.0862   -0.0582 C   0  0  0  0  0  0  0  0  0  0  0  0
   -8.7978   -0.8648    0.0710 C   0  0  0  0  0  0  0  0  0  0  0  0
   -9.2612    0.4163    0.3484 C   0  0  0  0  0  0  0  0  0  0  0  0
  -10.5772    0.6291    0.4732 F   0  0  0  0  0  0  0  0  0  0  0  0
   -8.3788    1.4805    0.5070 C   0  0  0  0  0  0  0  0  0  0  0  0
   -7.0045    1.2650    0.3779 C   0  0  0  0  0  0  0  0  0  0  0  0
   -2.0494   -0.1778   -0.3119 C   0  0  0  0  0  0  0  0  0  0  0  0
    1.3607   -1.1387   -1.7116 H   0  0  0  0  0  0  0  0  0  0  0  0
    1.9728   -2.9129    0.6165 H   0  0  0  0  0  0  0  0  0  0  0  0
    2.4488   -3.1515   -1.0651 H   0  0  0  0  0  0  0  0  0  0  0  0
    4.5543   -2.2565   -1.8556 H   0  0  0  0  0  0  0  0  0  0  0  0
    6.6010   -1.0228   -1.4393 H   0  0  0  0  0  0  0  0  0  0  0  0
    8.3727    0.0768   -1.0088 H   0  0  0  0  0  0  0  0  0  0  0  0
   10.1557    1.7186    0.2588 H   0  0  0  0  0  0  0  0  0  0  0  0
    6.7460    1.4955    2.6284 H   0  0  0  0  0  0  0  0  0  0  0  0
    4.9298    0.4164    2.3091 H   0  0  0  0  0  0  0  0  0  0  0  0
    2.8976   -0.8310    1.8555 H   0  0  0  0  0  0  0  0  0  0  0  0
    0.8882    1.1018   -1.5081 H   0  0  0  0  0  0  0  0  0  0  0  0
   -0.6843    2.7476   -2.4713 H   0  0  0  0  0  0  0  0  0  0  0  0
   -3.0990    2.5488   -2.0590 H   0  0  0  0  0  0  0  0  0  0  0  0
   -4.8584    1.4772   -1.0664 H   0  0  0  0  0  0  0  0  0  0  0  0
   -7.0572   -2.0895   -0.2657 H   0  0  0  0  0  0  0  0  0  0  0  0
   -9.5037   -1.6824   -0.0369 H   0  0  0  0  0  0  0  0  0  0  0  0
   -8.7679    2.4663    0.7428 H   0  0  0  0  0  0  0  0  0  0  0  0
   -6.3236    2.0955    0.5439 H   0  0  0  0  0  0  0  0  0  0  0  0
   -2.3929   -0.9927    0.3198 H   0  0  0  0  0  0  0  0  0  0  0  0
  1  2  2  0
  2  3  1  0
  3  4  1  0
  4  5  1  0
  5  6  1  0
  6  7  2  0
  7  8  1  0
  8  9  1  0
  9 10  1  0
 10 11  2  0
 11 12  1  0
 12 13  2  0
  8 14  2  0
 14 15  1  0
  2 16  1  0
 16 17  1  0
 17 18  2  0
 18 19  1  0
 19 20  2  0
 20 21  1  0
 21 22  1  0
 22 23  2  0
 22 24  1  0
 24 25  1  0
 25 26  2  0
 26 27  1  0
 27 28  1  0
 27 29  2  0
 29 30  1  0
 20 31  1  0
 15  5  2  0
 31 16  2  0
 13  9  1  0
 30 24  2  0
  3 32  1  0
  4 33  1  0
  4 34  1  0
  6 35  1  0
  7 36  1  0
 10 37  1  0
 11 38  1  0
 13 39  1  0
 14 40  1  0
 15 41  1  0
 17 42  1  0
 18 43  1  0
 19 44  1  0
 21 45  1  0
 25 46  1  0
 26 47  1  0
 29 48  1  0
 30 49  1  0
 31 50  1  0
M  END
$$$$
OCNT-2310442
     RDKit          3D

 56 59  0  0  0  0  0  0  0  0999 V2000
   -2.4888    2.9579    2.9036 C   0  0  0  0  0  0  0  0  0  0  0  0
   -1.5118    2.7930    1.8775 O   0  0  0  0  0  0  0  0  0  0  0  0
   -2.0202    2.9600    0.6123 C   0  0  0  0  0  0  0  0  0  0  0  0
   -2.7839    4.0881    0.2851 C   0  0  0  0  0  0  0  0  0  0  0  0
   -3.2676    4.2585   -1.0115 C   0  0  0  0  0  0  0  0  0  0  0  0
   -2.9798    3.3102   -1.9872 C   0  0  0  0  0  0  0  0  0  0  0  0
   -2.1955    2.1981   -1.6700 C   0  0  0  0  0  0  0  0  0  0  0  0
   -1.6890    2.0054   -0.3700 C   0  0  0  0  0  0  0  0  0  0  0  0
   -0.8292    0.7824   -0.0196 C   0  0  0  0  0  0  0  0  0  0  0  0
    0.3421    0.5779   -1.0505 C   0  0  0  0  0  0  0  0  0  0  0  0
    1.2530   -0.5264   -0.7008 N   0  0  0  0  0  0  0  0  0  0  0  0
    2.4074   -0.6359   -1.6095 C   0  0  0  0  0  0  0  0  0  0  0  0
    2.8904   -2.1144   -1.5958 C   0  0  0  0  0  0  0  0  0  0  0  0
    3.4435   -2.5797   -0.2301 C   0  0  0  0  0  0  0  0  0  0  0  0
    4.3077   -1.5303    0.3680 C   0  0  0  0  0  0  0  0  0  0  0  0
    4.3409   -0.2309   -0.0818 C   0  0  0  0  0  0  0  0  0  0  0  0
    3.5725    0.3304   -1.2256 C   0  0  0  0  0  0  0  0  0  0  0  0
    5.2212    0.4356    0.7129 N   0  0  0  0  0  0  0  0  0  0  0  0
    5.7567   -0.3497    1.6664 N   0  0  0  0  0  0  0  0  0  0  0  0
    5.2003   -1.5471    1.4524 C   0  0  0  0  0  0  0  0  0  0  0  0
   -1.6865   -0.3961    0.2692 N   0  0  0  0  0  0  0  0  0  0  0  0
   -1.2289   -1.1581    1.4391 C   0  0  0  0  0  0  0  0  0  0  0  0
   -1.4336   -2.6733    1.3368 C   0  0  0  0  0  0  0  0  0  0  0  0
   -2.8045   -3.0239    0.7749 C   0  0  0  0  0  0  0  0  0  0  0  0
   -3.1212   -2.2332   -0.4952 C   0  0  0  0  0  0  0  0  0  0  0  0
   -2.0254   -1.2323   -0.8773 C   0  0  0  0  0  0  0  0  0  0  0  0
   -2.1288    2.4294    3.7917 H   0  0  0  0  0  0  0  0  0  0  0  0
   -2.5927    4.0175    3.1615 H   0  0  0  0  0  0  0  0  0  0  0  0
   -3.4599    2.5286    2.6273 H   0  0  0  0  0  0  0  0  0  0  0  0
   -2.9964    4.8503    1.0295 H   0  0  0  0  0  0  0  0  0  0  0  0
   -3.8656    5.1310   -1.2592 H   0  0  0  0  0  0  0  0  0  0  0  0
   -3.3622    3.4344   -2.9986 H   0  0  0  0  0  0  0  0  0  0  0  0
   -1.9919    1.4775   -2.4570 H   0  0  0  0  0  0  0  0  0  0  0  0
   -0.3095    1.0491    0.9111 H   0  0  0  0  0  0  0  0  0  0  0  0
    0.9047    1.5182   -1.1129 H   0  0  0  0  0  0  0  0  0  0  0  0
   -0.0643    0.3843   -2.0501 H   0  0  0  0  0  0  0  0  0  0  0  0
    1.5830   -0.4003    0.2577 H   0  0  0  0  0  0  0  0  0  0  0  0
    2.0842   -0.4061   -2.6336 H   0  0  0  0  0  0  0  0  0  0  0  0
    3.6802   -2.2225   -2.3515 H   0  0  0  0  0  0  0  0  0  0  0  0
    2.0770   -2.7841   -1.9028 H   0  0  0  0  0  0  0  0  0  0  0  0
    2.6122   -2.7950    0.4529 H   0  0  0  0  0  0  0  0  0  0  0  0
    4.0056   -3.5115   -0.3626 H   0  0  0  0  0  0  0  0  0  0  0  0
    3.1989    1.3337   -0.9897 H   0  0  0  0  0  0  0  0  0  0  0  0
    4.2462    0.4308   -2.0877 H   0  0  0  0  0  0  0  0  0  0  0  0
    5.5004    1.4108    0.6762 H   0  0  0  0  0  0  0  0  0  0  0  0
    5.4637   -2.3730    2.1000 H   0  0  0  0  0  0  0  0  0  0  0  0
   -0.1673   -0.9919    1.6562 H   0  0  0  0  0  0  0  0  0  0  0  0
   -1.7814   -0.7836    2.3111 H   0  0  0  0  0  0  0  0  0  0  0  0
   -0.6565   -3.1031    0.6901 H   0  0  0  0  0  0  0  0  0  0  0  0
   -1.3071   -3.1327    2.3238 H   0  0  0  0  0  0  0  0  0  0  0  0
   -2.8514   -4.0994    0.5649 H   0  0  0  0  0  0  0  0  0  0  0  0
   -3.5743   -2.8246    1.5310 H   0  0  0  0  0  0  0  0  0  0  0  0
   -4.0731   -1.7019   -0.3565 H   0  0  0  0  0  0  0  0  0  0  0  0
   -3.2784   -2.9272   -1.3298 H   0  0  0  0  0  0  0  0  0  0  0  0
   -2.4123   -0.6301   -1.7049 H   0  0  0  0  0  0  0  0  0  0  0  0
   -1.1525   -1.7747   -1.2611 H   0  0  0  0  0  0  0  0  0  0  0  0
  1  2  1  0
  2  3  1  0
  3  4  2  0
  4  5  1  0
  5  6  2  0
  6  7  1  0
  7  8  2  0
  8  9  1  0
  9 10  1  0
 10 11  1  0
 11 12  1  0
 12 13  1  0
 13 14  1  0
 14 15  1  0
 15 16  2  0
 16 17  1  0
 16 18  1  0
 18 19  1  0
 19 20  2  0
  9 21  1  0
 21 22  1  0
 22 23  1  0
 23 24  1  0
 24 25  1  0
 25 26  1  0
  8  3  1  0
 17 12  1  0
 26 21  1  0
 20 15  1  0
  1 27  1  0
  1 28  1  0
  1 29  1  0
  4 30  1  0
  5 31  1  0
  6 32  1  0
  7 33  1  0
  9 34  1  0
 10 35  1  0
 10 36  1  0
 11 37  1  0
 12 38  1  0
 13 39  1  0
 13 40  1  0
 14 41  1  0
 14 42  1  0
 17 43  1  0
 17 44  1  0
 18 45  1  0
 20 46  1  0
 22 47  1  0
 22 48  1  0
 23 49  1  0
 23 50  1  0
 24 51  1  0
 24 52  1  0
 25 53  1  0
 25 54  1  0
 26 55  1  0
 26 56  1  0
M  END
$$$$
OCNT-2310447
     RDKit          3D

 35 37  0  0  0  0  0  0  0  0999 V2000
    4.6689    1.6155   -1.2400 C   0  0  0  0  0  0  0  0  0  0  0  0
    4.3612    0.9052    0.0265 C   0  0  0  0  0  0  0  0  0  0  0  0
    3.3911   -0.0686    0.2231 C   0  0  0  0  0  0  0  0  0  0  0  0
    2.4281   -0.6660   -0.6829 C   0  0  0  0  0  0  0  0  0  0  0  0
    2.3193   -0.3631   -1.8685 O   0  0  0  0  0  0  0  0  0  0  0  0
    1.6206   -1.6131   -0.0905 N   0  0  0  0  0  0  0  0  0  0  0  0
    0.5200   -2.2317   -0.7828 C   0  0  0  0  0  0  0  0  0  0  0  0
   -0.7636   -1.4977   -0.5284 C   0  0  0  0  0  0  0  0  0  0  0  0
   -1.6086   -1.8371    0.5299 C   0  0  0  0  0  0  0  0  0  0  0  0
   -2.7849   -1.1164    0.7428 C   0  0  0  0  0  0  0  0  0  0  0  0
   -3.0854   -0.0606   -0.1133 C   0  0  0  0  0  0  0  0  0  0  0  0
   -4.2738    0.6988    0.0670 N   0  0  0  0  0  0  0  0  0  0  0  0
   -5.2607    0.5563    1.0185 C   0  0  0  0  0  0  0  0  0  0  0  0
   -6.1849    1.5397    0.7502 C   0  0  0  0  0  0  0  0  0  0  0  0
   -5.8062    2.2839   -0.3306 N   0  0  0  0  0  0  0  0  0  0  0  0
   -4.6626    1.7614   -0.7190 C   0  0  0  0  0  0  0  0  0  0  0  0
   -2.2742    0.2929   -1.1428 N   0  0  0  0  0  0  0  0  0  0  0  0
   -1.1391   -0.4214   -1.3226 C   0  0  0  0  0  0  0  0  0  0  0  0
    3.4112   -0.4813    1.5325 O   0  0  0  0  0  0  0  0  0  0  0  0
    4.3848    0.2215    2.1619 C   0  0  0  0  0  0  0  0  0  0  0  0
    4.9979    1.0841    1.2868 C   0  0  0  0  0  0  0  0  0  0  0  0
    3.7926    2.1679   -1.5939 H   0  0  0  0  0  0  0  0  0  0  0  0
    5.4857    2.3314   -1.1022 H   0  0  0  0  0  0  0  0  0  0  0  0
    4.9709    0.9050   -2.0160 H   0  0  0  0  0  0  0  0  0  0  0  0
    1.7122   -1.7247    0.9124 H   0  0  0  0  0  0  0  0  0  0  0  0
    0.4446   -3.2632   -0.4211 H   0  0  0  0  0  0  0  0  0  0  0  0
    0.7243   -2.2834   -1.8584 H   0  0  0  0  0  0  0  0  0  0  0  0
   -1.3591   -2.6618    1.1935 H   0  0  0  0  0  0  0  0  0  0  0  0
   -3.4262   -1.4002    1.5686 H   0  0  0  0  0  0  0  0  0  0  0  0
   -5.2411   -0.2001    1.7871 H   0  0  0  0  0  0  0  0  0  0  0  0
   -7.1046    1.7489    1.2817 H   0  0  0  0  0  0  0  0  0  0  0  0
   -4.0674    2.1023   -1.5568 H   0  0  0  0  0  0  0  0  0  0  0  0
   -0.5159   -0.0882   -2.1509 H   0  0  0  0  0  0  0  0  0  0  0  0
    4.5192    0.0012    3.2119 H   0  0  0  0  0  0  0  0  0  0  0  0
    5.8057    1.7626    1.5251 H   0  0  0  0  0  0  0  0  0  0  0  0
  1  2  1  0
  2  3  2  0
  3  4  1  0
  4  5  2  0
  4  6  1  0
  6  7  1  0
  7  8  1  0
  8  9  2  0
  9 10  1  0
 10 11  2  0
 11 12  1  0
 12 13  1  0
 13 14  2  0
 14 15  1  0
 15 16  2  0
 11 17  1  0
 17 18  2  0
  3 19  1  0
 19 20  1  0
 20 21  2  0
 21  2  1  0
 18  8  1  0
 16 12  1  0
  1 22  1  0
  1 23  1  0
  1 24  1  0
  6 25  1  0
  7 26  1  0
  7 27  1  0
  9 28  1  0
 10 29  1  0
 13 30  1  0
 14 31  1  0
 16 32  1  0
 18 33  1  0
 20 34  1  0
 21 35  1  0
M  END
$$$$
OCNT-2310448
     RDKit          3D

 45 48  0  0  0  0  0  0  0  0999 V2000
    0.2117    3.2046    1.6313 C   0  0  0  0  0  0  0  0  0  0  0  0
    0.8076    1.8287    1.9164 C   0  0  0  0  0  0  0  0  0  0  0  0
   -0.2866    0.8313    2.2820 C   0  0  0  0  0  0  0  0  0  0  0  0
   -0.4533    0.5239    3.4617 O   0  0  0  0  0  0  0  0  0  0  0  0
   -1.0796    0.4049    1.2258 N   0  0  0  0  0  0  0  0  0  0  0  0
   -2.1986   -0.4540    1.2757 C   0  0  0  0  0  0  0  0  0  0  0  0
   -2.7665   -0.9309    2.4569 C   0  0  0  0  0  0  0  0  0  0  0  0
   -3.8674   -1.7898    2.4155 C   0  0  0  0  0  0  0  0  0  0  0  0
   -4.4172   -2.1689    1.1921 C   0  0  0  0  0  0  0  0  0  0  0  0
   -3.8812   -1.6833   -0.0051 C   0  0  0  0  0  0  0  0  0  0  0  0
   -4.4759   -2.0957   -1.2720 C   0  0  0  0  0  0  0  0  0  0  0  0
   -4.8485   -3.3215   -1.5957 N   0  0  0  0  0  0  0  0  0  0  0  0
   -5.3525   -3.2591   -2.8703 N   0  0  0  0  0  0  0  0  0  0  0  0
   -5.3238   -2.0185   -3.3301 N   0  0  0  0  0  0  0  0  0  0  0  0
   -4.8014   -1.2872   -2.3326 N   0  0  0  0  0  0  0  0  0  0  0  0
   -4.7201    0.1410   -2.4593 C   0  0  0  0  0  0  0  0  0  0  0  0
   -2.7624   -0.8366    0.0481 C   0  0  0  0  0  0  0  0  0  0  0  0
    1.6191    1.3460    0.8152 N   0  0  0  0  0  0  0  0  0  0  0  0
    1.1078    1.1746   -0.4202 N   0  0  0  0  0  0  0  0  0  0  0  0
    2.1347    0.7766   -1.1548 N   0  0  0  0  0  0  0  0  0  0  0  0
    3.2377    0.7498   -0.3277 C   0  0  0  0  0  0  0  0  0  0  0  0
    4.5648    0.3633   -0.7883 C   0  0  0  0  0  0  0  0  0  0  0  0
    4.7750   -0.0015   -2.1266 C   0  0  0  0  0  0  0  0  0  0  0  0
    6.0467   -0.3733   -2.5715 C   0  0  0  0  0  0  0  0  0  0  0  0
    7.1210   -0.3845   -1.6841 C   0  0  0  0  0  0  0  0  0  0  0  0
    6.9268   -0.0248   -0.3521 C   0  0  0  0  0  0  0  0  0  0  0  0
    5.6558    0.3471    0.0938 C   0  0  0  0  0  0  0  0  0  0  0  0
    2.9397    1.1241    0.9304 N   0  0  0  0  0  0  0  0  0  0  0  0
   -0.3559    3.5656    2.4958 H   0  0  0  0  0  0  0  0  0  0  0  0
   -0.4728    3.1862    0.7758 H   0  0  0  0  0  0  0  0  0  0  0  0
    0.9995    3.9332    1.4112 H   0  0  0  0  0  0  0  0  0  0  0  0
    1.4794    1.9076    2.7810 H   0  0  0  0  0  0  0  0  0  0  0  0
   -0.7611    0.6520    0.2897 H   0  0  0  0  0  0  0  0  0  0  0  0
   -2.3742   -0.6634    3.4331 H   0  0  0  0  0  0  0  0  0  0  0  0
   -4.2920   -2.1686    3.3425 H   0  0  0  0  0  0  0  0  0  0  0  0
   -5.2683   -2.8484    1.1773 H   0  0  0  0  0  0  0  0  0  0  0  0
   -4.9149    0.6055   -1.4899 H   0  0  0  0  0  0  0  0  0  0  0  0
   -3.7205    0.3985   -2.8166 H   0  0  0  0  0  0  0  0  0  0  0  0
   -5.4717    0.4840   -3.1757 H   0  0  0  0  0  0  0  0  0  0  0  0
   -2.3054   -0.4970   -0.8785 H   0  0  0  0  0  0  0  0  0  0  0  0
    3.9505   -0.0010   -2.8370 H   0  0  0  0  0  0  0  0  0  0  0  0
    6.1972   -0.6550   -3.6107 H   0  0  0  0  0  0  0  0  0  0  0  0
    8.1098   -0.6747   -2.0304 H   0  0  0  0  0  0  0  0  0  0  0  0
    7.7635   -0.0343    0.3420 H   0  0  0  0  0  0  0  0  0  0  0  0
    5.5234    0.6234    1.1384 H   0  0  0  0  0  0  0  0  0  0  0  0
  1  2  1  0
  2  3  1  0
  3  4  2  0
  3  5  1  0
  5  6  1  0
  6  7  2  0
  7  8  1  0
  8  9  2  0
  9 10  1  0
 10 11  1  0
 11 12  2  0
 12 13  1  0
 13 14  2  0
 14 15  1  0
 15 16  1  0
 10 17  2  0
  2 18  1  0
 18 19  1  0
 19 20  2  0
 20 21  1  0
 21 22  1  0
 22 23  2  0
 23 24  1  0
 24 25  2  0
 25 26  1  0
 26 27  2  0
 21 28  2  0
 17  6  1  0
 28 18  1  0
 15 11  1  0
 27 22  1  0
  1 29  1  0
  1 30  1  0
  1 31  1  0
  2 32  1  0
  5 33  1  0
  7 34  1  0
  8 35  1  0
  9 36  1  0
 16 37  1  0
 16 38  1  0
 16 39  1  0
 17 40  1  0
 23 41  1  0
 24 42  1  0
 25 43  1  0
 26 44  1  0
 27 45  1  0
M  END
$$$$
OCNT-2310450
     RDKit          3D

 46 50  0  0  0  0  0  0  0  0999 V2000
   -3.4458    1.6126    1.9716 O   0  0  0  0  0  0  0  0  0  0  0  0
   -2.7877    1.0727    1.0873 C   0  0  0  0  0  0  0  0  0  0  0  0
   -3.5008    0.6184   -0.1240 C   0  0  0  0  0  0  0  0  0  0  0  0
   -3.3575    1.3940   -1.2836 C   0  0  0  0  0  0  0  0  0  0  0  0
   -4.0010    1.0086   -2.4546 C   0  0  0  0  0  0  0  0  0  0  0  0
   -4.7873   -0.1437   -2.4649 C   0  0  0  0  0  0  0  0  0  0  0  0
   -4.9469   -0.9205   -1.3007 C   0  0  0  0  0  0  0  0  0  0  0  0
   -5.7317   -2.0763   -1.2828 C   0  0  0  0  0  0  0  0  0  0  0  0
   -5.9237   -2.8614   -0.1986 N   0  0  0  0  0  0  0  0  0  0  0  0
   -5.3130   -2.4758    0.9381 C   0  0  0  0  0  0  0  0  0  0  0  0
   -4.5098   -1.3513    1.0370 C   0  0  0  0  0  0  0  0  0  0  0  0
   -4.3079   -0.5441   -0.1010 C   0  0  0  0  0  0  0  0  0  0  0  0
   -1.4084    0.8816    1.1498 N   0  0  0  0  0  0  0  0  0  0  0  0
   -0.7450    1.2120    2.4121 C   0  0  0  0  0  0  0  0  0  0  0  0
    0.7450    1.5511    2.2391 C   0  0  0  0  0  0  0  0  0  0  0  0
    1.4442    0.5169    1.4500 N   0  0  0  0  0  0  0  0  0  0  0  0
    2.8163    0.5141    1.4291 C   0  0  0  0  0  0  0  0  0  0  0  0
    3.5207    0.1343    0.3824 N   0  0  0  0  0  0  0  0  0  0  0  0
    4.8781    0.2037    0.6351 C   0  0  0  0  0  0  0  0  0  0  0  0
    5.9219   -0.1920   -0.4687 C   0  0  0  0  0  0  0  0  0  0  0  0
    5.5549   -0.6244   -1.7251 C   0  0  0  0  0  0  0  0  0  0  0  0
    6.6849   -0.9217   -2.5424 C   0  0  0  0  0  0  0  0  0  0  0  0
    7.8714   -0.7043   -1.8769 C   0  0  0  0  0  0  0  0  0  0  0  0
    7.6164   -0.1460   -0.2790 S   0  0  0  0  0  0  0  0  0  0  0  0
    5.2164    0.6344    1.8965 C   0  0  0  0  0  0  0  0  0  0  0  0
    3.7978    0.9551    2.7924 S   0  0  0  0  0  0  0  0  0  0  0  0
    0.7938    0.2334    0.1533 C   0  0  0  0  0  0  0  0  0  0  0  0
   -0.6938   -0.1090    0.3328 C   0  0  0  0  0  0  0  0  0  0  0  0
   -2.7501    2.2958   -1.2672 H   0  0  0  0  0  0  0  0  0  0  0  0
   -3.8962    1.6054   -3.3576 H   0  0  0  0  0  0  0  0  0  0  0  0
   -5.2859   -0.4321   -3.3889 H   0  0  0  0  0  0  0  0  0  0  0  0
   -6.2495   -2.4178   -2.1760 H   0  0  0  0  0  0  0  0  0  0  0  0
   -5.4906   -3.1125    1.8004 H   0  0  0  0  0  0  0  0  0  0  0  0
   -4.0608   -1.1062    1.9951 H   0  0  0  0  0  0  0  0  0  0  0  0
   -1.2526    2.0530    2.8973 H   0  0  0  0  0  0  0  0  0  0  0  0
   -0.8570    0.3394    3.0681 H   0  0  0  0  0  0  0  0  0  0  0  0
    0.8426    2.5181    1.7289 H   0  0  0  0  0  0  0  0  0  0  0  0
    1.1690    1.6573    3.2432 H   0  0  0  0  0  0  0  0  0  0  0  0
    4.5229   -0.7232   -2.0408 H   0  0  0  0  0  0  0  0  0  0  0  0
    6.6288   -1.2768   -3.5640 H   0  0  0  0  0  0  0  0  0  0  0  0
    8.8765   -0.8460   -2.2498 H   0  0  0  0  0  0  0  0  0  0  0  0
    6.1956    0.7692    2.3311 H   0  0  0  0  0  0  0  0  0  0  0  0
    1.2694   -0.6168   -0.3515 H   0  0  0  0  0  0  0  0  0  0  0  0
    0.8900    1.1112   -0.4991 H   0  0  0  0  0  0  0  0  0  0  0  0
   -0.7973   -1.0729    0.8470 H   0  0  0  0  0  0  0  0  0  0  0  0
   -1.1561   -0.2175   -0.6513 H   0  0  0  0  0  0  0  0  0  0  0  0
  1  2  2  0
  2  3  1  0
  3  4  2  0
  4  5  1  0
  5  6  2  0
  6  7  1  0
  7  8  2  0
  8  9  1  0
  9 10  2  0
 10 11  1  0
 11 12  2  0
  2 13  1  0
 13 14  1  0
 14 15  1  0
 15 16  1  0
 16 17  1  0
 17 18  2  0
 18 19  1  0
 19 20  1  0
 20 21  2  0
 21 22  1  0
 22 23  2  0
 23 24  1  0
 19 25  2  0
 25 26  1  0
 16 27  1  0
 27 28  1  0
 12  3  1  0
 28 13  1  0
 12  7  1  0
 26 17  1  0
 24 20  1  0
  4 29  1  0
  5 30  1  0
  6 31  1  0
  8 32  1  0
 10 33  1  0
 11 34  1  0
 14 35  1  0
 14 36  1  0
 15 37  1  0
 15 38  1  0
 21 39  1  0
 22 40  1  0
 23 41  1  0
 25 42  1  0
 27 43  1  0
 27 44  1  0
 28 45  1  0
 28 46  1  0
M  END
$$$$
OCNT-2310453
     RDKit          3D

 50 52  0  0  0  0  0  0  0  0999 V2000
    4.1119    0.1974    0.7876 C   0  0  0  0  0  0  0  0  0  0  0  0
    3.6657   -0.6135   -0.4427 C   0  0  0  0  0  0  0  0  0  0  0  0
    4.9326   -1.2900   -1.0320 C   0  0  0  0  0  0  0  0  0  0  0  0
    2.7249   -1.7550   -0.0155 C   0  0  0  0  0  0  0  0  0  0  0  0
    3.0304    0.2769   -1.4233 N   0  0  0  0  0  0  0  0  0  0  0  0
    3.6951    0.6087   -2.5527 N   0  0  0  0  0  0  0  0  0  0  0  0
    2.8922    1.4098   -3.2298 N   0  0  0  0  0  0  0  0  0  0  0  0
    1.7300    1.6215   -2.5483 N   0  0  0  0  0  0  0  0  0  0  0  0
    1.8209    0.9377   -1.4213 C   0  0  0  0  0  0  0  0  0  0  0  0
    0.7658    0.9103   -0.3702 C   0  0  0  0  0  0  0  0  0  0  0  0
   -0.2209   -0.1287   -0.6835 N   0  0  0  0  0  0  0  0  0  0  0  0
   -1.4592   -0.0949    0.1412 C   0  0  0  0  0  0  0  0  0  0  0  0
   -2.2353    1.2277   -0.0732 C   0  0  0  0  0  0  0  0  0  0  0  0
   -2.6272    2.0651    0.9862 C   0  0  0  0  0  0  0  0  0  0  0  0
   -3.3294    3.2541    0.7522 C   0  0  0  0  0  0  0  0  0  0  0  0
   -3.6567    3.6266   -0.5465 C   0  0  0  0  0  0  0  0  0  0  0  0
   -4.5197    5.0871   -0.8283 Cl  0  0  0  0  0  0  0  0  0  0  0  0
   -3.2922    2.8181   -1.6153 C   0  0  0  0  0  0  0  0  0  0  0  0
   -2.5927    1.6303   -1.3799 C   0  0  0  0  0  0  0  0  0  0  0  0
   -1.0374   -0.3961    1.6177 C   0  0  0  0  0  0  0  0  0  0  0  0
   -2.1220   -1.1320    2.4022 C   0  0  0  0  0  0  0  0  0  0  0  0
   -2.3823   -2.5183    1.8088 C   0  0  0  0  0  0  0  0  0  0  0  0
   -2.1034   -2.5887    0.3065 C   0  0  0  0  0  0  0  0  0  0  0  0
   -2.3885   -1.2499   -0.3681 C   0  0  0  0  0  0  0  0  0  0  0  0
    4.7970    1.0041    0.5008 H   0  0  0  0  0  0  0  0  0  0  0  0
    4.6307   -0.4392    1.5136 H   0  0  0  0  0  0  0  0  0  0  0  0
    3.2684    0.6602    1.3076 H   0  0  0  0  0  0  0  0  0  0  0  0
    5.3967   -1.9660   -0.3040 H   0  0  0  0  0  0  0  0  0  0  0  0
    5.6930   -0.5521   -1.3142 H   0  0  0  0  0  0  0  0  0  0  0  0
    4.6905   -1.8811   -1.9233 H   0  0  0  0  0  0  0  0  0  0  0  0
    2.2884   -2.2581   -0.8859 H   0  0  0  0  0  0  0  0  0  0  0  0
    3.2593   -2.5101    0.5733 H   0  0  0  0  0  0  0  0  0  0  0  0
    1.9075   -1.4017    0.6149 H   0  0  0  0  0  0  0  0  0  0  0  0
    0.3040    1.9040   -0.3540 H   0  0  0  0  0  0  0  0  0  0  0  0
    1.2019    0.7537    0.6177 H   0  0  0  0  0  0  0  0  0  0  0  0
   -0.4762   -0.0272   -1.6668 H   0  0  0  0  0  0  0  0  0  0  0  0
   -2.4079    1.8184    2.0208 H   0  0  0  0  0  0  0  0  0  0  0  0
   -3.6184    3.8815    1.5916 H   0  0  0  0  0  0  0  0  0  0  0  0
   -3.5461    3.1011   -2.6335 H   0  0  0  0  0  0  0  0  0  0  0  0
   -2.3290    1.0183   -2.2405 H   0  0  0  0  0  0  0  0  0  0  0  0
   -0.7249    0.5100    2.1484 H   0  0  0  0  0  0  0  0  0  0  0  0
   -0.1527   -1.0482    1.6319 H   0  0  0  0  0  0  0  0  0  0  0  0
   -1.8241   -1.2364    3.4517 H   0  0  0  0  0  0  0  0  0  0  0  0
   -3.0510   -0.5504    2.3987 H   0  0  0  0  0  0  0  0  0  0  0  0
   -1.7611   -3.2653    2.3175 H   0  0  0  0  0  0  0  0  0  0  0  0
   -3.4236   -2.7977    2.0096 H   0  0  0  0  0  0  0  0  0  0  0  0
   -2.7188   -3.3773   -0.1414 H   0  0  0  0  0  0  0  0  0  0  0  0
   -1.0582   -2.8742    0.1347 H   0  0  0  0  0  0  0  0  0  0  0  0
   -2.3042   -1.3704   -1.4566 H   0  0  0  0  0  0  0  0  0  0  0  0
   -3.4437   -1.0003   -0.1844 H   0  0  0  0  0  0  0  0  0  0  0  0
  1  2  1  0
  2  3  1  0
  2  4  1  0
  2  5  1  0
  5  6  1  0
  6  7  2  0
  7  8  1  0
  8  9  2  0
  9 10  1  0
 10 11  1  0
 11 12  1  0
 12 13  1  0
 13 14  1  0
 14 15  2  0
 15 16  1  0
 16 17  1  0
 16 18  2  0
 18 19  1  0
 12 20  1  0
 20 21  1  0
 21 22  1  0
 22 23  1  0
 23 24  1  0
  9  5  1  0
 24 12  1  0
 19 13  2  0
  1 25  1  0
  1 26  1  0
  1 27  1  0
  3 28  1  0
  3 29  1  0
  3 30  1  0
  4 31  1  0
  4 32  1  0
  4 33  1  0
 10 34  1  0
 10 35  1  0
 11 36  1  0
 14 37  1  0
 15 38  1  0
 18 39  1  0
 19 40  1  0
 20 41  1  0
 20 42  1  0
 21 43  1  0
 21 44  1  0
 22 45  1  0
 22 46  1  0
 23 47  1  0
 23 48  1  0
 24 49  1  0
 24 50  1  0
M  END
$$$$
OCNT-2310458
     RDKit          3D

 41 43  0  0  0  0  0  0  0  0999 V2000
   -3.8143   -3.0917    1.0774 C   0  0  0  0  0  0  0  0  0  0  0  0
   -4.5611   -2.0231    0.5164 O   0  0  0  0  0  0  0  0  0  0  0  0
   -4.4010   -0.7886    1.2155 C   0  0  0  0  0  0  0  0  0  0  0  0
   -3.1229   -0.0763    0.8335 C   0  0  0  0  0  0  0  0  0  0  0  0
   -2.0121   -0.1420    1.6972 C   0  0  0  0  0  0  0  0  0  0  0  0
   -0.8087    0.4995    1.3886 C   0  0  0  0  0  0  0  0  0  0  0  0
    0.2855    0.2806    2.2841 N   0  0  0  0  0  0  0  0  0  0  0  0
    1.6317    1.2925    2.3347 S   0  0  0  0  0  0  0  0  0  0  0  0
    1.2202    2.6555    2.0848 O   0  0  0  0  0  0  0  0  0  0  0  0
    2.3571    0.9171    3.5293 O   0  0  0  0  0  0  0  0  0  0  0  0
    2.7001    0.8248    0.9954 C   0  0  0  0  0  0  0  0  0  0  0  0
    2.7055   -0.2654    0.1507 C   0  0  0  0  0  0  0  0  0  0  0  0
    3.7764   -0.2327   -0.8021 C   0  0  0  0  0  0  0  0  0  0  0  0
    4.1202   -1.1424   -1.8310 C   0  0  0  0  0  0  0  0  0  0  0  0
    5.2278   -0.8912   -2.6445 C   0  0  0  0  0  0  0  0  0  0  0  0
    5.6321   -2.0059   -3.8923 Cl  0  0  0  0  0  0  0  0  0  0  0  0
    6.0038    0.2440   -2.4590 C   0  0  0  0  0  0  0  0  0  0  0  0
    5.6868    1.1574   -1.4501 C   0  0  0  0  0  0  0  0  0  0  0  0
    4.5697    0.9051   -0.6297 C   0  0  0  0  0  0  0  0  0  0  0  0
    3.9953    1.8812    0.6670 S   0  0  0  0  0  0  0  0  0  0  0  0
   -0.7010    1.1604    0.1674 C   0  0  0  0  0  0  0  0  0  0  0  0
   -1.7980    1.2393   -0.7004 C   0  0  0  0  0  0  0  0  0  0  0  0
   -3.0112    0.6276   -0.3767 C   0  0  0  0  0  0  0  0  0  0  0  0
   -4.1348    0.6678   -1.1566 O   0  0  0  0  0  0  0  0  0  0  0  0
   -4.0200    1.2489   -2.4487 C   0  0  0  0  0  0  0  0  0  0  0  0
   -2.7401   -2.9122    0.9803 H   0  0  0  0  0  0  0  0  0  0  0  0
   -4.0802   -3.2410    2.1283 H   0  0  0  0  0  0  0  0  0  0  0  0
   -4.0581   -4.0044    0.5267 H   0  0  0  0  0  0  0  0  0  0  0  0
   -4.4594   -0.9528    2.2991 H   0  0  0  0  0  0  0  0  0  0  0  0
   -5.2591   -0.1530    0.9680 H   0  0  0  0  0  0  0  0  0  0  0  0
   -2.0992   -0.7100    2.6208 H   0  0  0  0  0  0  0  0  0  0  0  0
    0.0298    0.0156    3.2354 H   0  0  0  0  0  0  0  0  0  0  0  0
    1.9667   -1.0560    0.2102 H   0  0  0  0  0  0  0  0  0  0  0  0
    3.5210   -2.0359   -1.9861 H   0  0  0  0  0  0  0  0  0  0  0  0
    6.8648    0.4315   -3.0963 H   0  0  0  0  0  0  0  0  0  0  0  0
    6.2942    2.0465   -1.3020 H   0  0  0  0  0  0  0  0  0  0  0  0
    0.2159    1.6498   -0.1443 H   0  0  0  0  0  0  0  0  0  0  0  0
   -1.6675    1.7924   -1.6253 H   0  0  0  0  0  0  0  0  0  0  0  0
   -4.9843    1.1350   -2.9531 H   0  0  0  0  0  0  0  0  0  0  0  0
   -3.8057    2.3203   -2.3794 H   0  0  0  0  0  0  0  0  0  0  0  0
   -3.2660    0.7317   -3.0513 H   0  0  0  0  0  0  0  0  0  0  0  0
  1  2  1  0
  2  3  1  0
  3  4  1  0
  4  5  1  0
  5  6  2  0
  6  7  1  0
  7  8  1  0
  8  9  2  0
  8 10  2  0
  8 11  1  0
 11 12  2  0
 12 13  1  0
 13 14  2  0
 14 15  1  0
 15 16  1  0
 15 17  2  0
 17 18  1  0
 18 19  2  0
 19 20  1  0
  6 21  1  0
 21 22  2  0
 22 23  1  0
 23 24  1  0
 24 25  1  0
 23  4  2  0
 20 11  1  0
 19 13  1  0
  1 26  1  0
  1 27  1  0
  1 28  1  0
  3 29  1  0
  3 30  1  0
  5 31  1  0
  7 32  1  0
 12 33  1  0
 14 34  1  0
 17 35  1  0
 18 36  1  0
 21 37  1  0
 22 38  1  0
 25 39  1  0
 25 40  1  0
 25 41  1  0
M  END
$$$$
OCNT-2310465
     RDKit          3D

 41 43  0  0  0  0  0  0  0  0999 V2000
   -7.0572   -1.0047   -0.9105 C   0  0  0  0  0  0  0  0  0  0  0  0
   -5.7058   -1.2378   -0.2381 C   0  0  0  0  0  0  0  0  0  0  0  0
   -5.9071   -1.8216    1.1572 C   0  0  0  0  0  0  0  0  0  0  0  0
   -5.0758    0.0472   -0.1415 O   0  0  0  0  0  0  0  0  0  0  0  0
   -3.6973    0.0322   -0.1609 C   0  0  0  0  0  0  0  0  0  0  0  0
   -3.0764    1.2695   -0.2357 C   0  0  0  0  0  0  0  0  0  0  0  0
   -1.6822    1.3230   -0.2516 C   0  0  0  0  0  0  0  0  0  0  0  0
   -0.9527    0.1343   -0.1737 C   0  0  0  0  0  0  0  0  0  0  0  0
    0.5336    0.0675   -0.1749 C   0  0  0  0  0  0  0  0  0  0  0  0
    1.0606   -0.9798   -0.5319 O   0  0  0  0  0  0  0  0  0  0  0  0
    1.1907    1.2055    0.2603 N   0  0  0  0  0  0  0  0  0  0  0  0
    2.5861    1.4203    0.3175 C   0  0  0  0  0  0  0  0  0  0  0  0
    3.0243    2.6441    0.8349 C   0  0  0  0  0  0  0  0  0  0  0  0
    4.3868    2.9343    0.9097 C   0  0  0  0  0  0  0  0  0  0  0  0
    5.3233    1.9969    0.4737 C   0  0  0  0  0  0  0  0  0  0  0  0
    4.9125    0.7600   -0.0405 C   0  0  0  0  0  0  0  0  0  0  0  0
    5.9212   -0.2053   -0.4830 C   0  0  0  0  0  0  0  0  0  0  0  0
    7.2244   -0.0032   -0.5785 N   0  0  0  0  0  0  0  0  0  0  0  0
    7.8179   -1.1596   -1.0324 N   0  0  0  0  0  0  0  0  0  0  0  0
    6.8702   -2.0473   -1.2021 C   0  0  0  0  0  0  0  0  0  0  0  0
    5.6706   -1.5021   -0.8657 N   0  0  0  0  0  0  0  0  0  0  0  0
    3.5355    0.4903   -0.1195 C   0  0  0  0  0  0  0  0  0  0  0  0
   -1.6703   -1.0576   -0.1137 C   0  0  0  0  0  0  0  0  0  0  0  0
   -3.0256   -1.1334   -0.1000 N   0  0  0  0  0  0  0  0  0  0  0  0
   -6.9130   -0.5630   -1.9028 H   0  0  0  0  0  0  0  0  0  0  0  0
   -7.6176   -1.9388   -1.0288 H   0  0  0  0  0  0  0  0  0  0  0  0
   -7.6666   -0.2946   -0.3391 H   0  0  0  0  0  0  0  0  0  0  0  0
   -5.1388   -1.9278   -0.8767 H   0  0  0  0  0  0  0  0  0  0  0  0
   -4.9471   -1.9947    1.6538 H   0  0  0  0  0  0  0  0  0  0  0  0
   -6.4670   -1.1252    1.7931 H   0  0  0  0  0  0  0  0  0  0  0  0
   -6.4471   -2.7734    1.1188 H   0  0  0  0  0  0  0  0  0  0  0  0
   -3.6722    2.1753   -0.2965 H   0  0  0  0  0  0  0  0  0  0  0  0
   -1.2021    2.2904   -0.3525 H   0  0  0  0  0  0  0  0  0  0  0  0
    0.6286    1.9658    0.6224 H   0  0  0  0  0  0  0  0  0  0  0  0
    2.3166    3.3900    1.1846 H   0  0  0  0  0  0  0  0  0  0  0  0
    4.7235    3.8891    1.3064 H   0  0  0  0  0  0  0  0  0  0  0  0
    6.3849    2.2334    0.5392 H   0  0  0  0  0  0  0  0  0  0  0  0
    6.9938   -3.0620   -1.5497 H   0  0  0  0  0  0  0  0  0  0  0  0
    4.7723   -1.9642   -0.8805 H   0  0  0  0  0  0  0  0  0  0  0  0
    3.2084   -0.4536   -0.5374 H   0  0  0  0  0  0  0  0  0  0  0  0
   -1.1639   -2.0194   -0.0714 H   0  0  0  0  0  0  0  0  0  0  0  0
  1  2  1  0
  2  3  1  0
  2  4  1  0
  4  5  1  0
  5  6  2  0
  6  7  1  0
  7  8  2  0
  8  9  1  0
  9 10  2  0
  9 11  1  0
 11 12  1  0
 12 13  2  0
 13 14  1  0
 14 15  2  0
 15 16  1  0
 16 17  1  0
 17 18  2  0
 18 19  1  0
 19 20  2  0
 20 21  1  0
 16 22  2  0
  8 23  1  0
 23 24  2  0
 24  5  1  0
 22 12  1  0
 21 17  1  0
  1 25  1  0
  1 26  1  0
  1 27  1  0
  2 28  1  0
  3 29  1  0
  3 30  1  0
  3 31  1  0
  6 32  1  0
  7 33  1  0
 11 34  1  0
 13 35  1  0
 14 36  1  0
 15 37  1  0
 20 38  1  0
 21 39  1  0
 22 40  1  0
 23 41  1  0
M  END
$$$$
OCNT-2310469
     RDKit          3D

 45 47  0  0  0  0  0  0  0  0999 V2000
    8.1238    0.3170    0.0561 C   0  0  0  0  0  0  0  0  0  0  0  0
    7.5147   -1.3284    0.3160 S   0  0  0  0  0  0  0  0  0  0  0  0
    7.7222   -1.6759    1.7084 O   0  0  0  0  0  0  0  0  0  0  0  0
    8.0336   -2.1687   -0.7468 O   0  0  0  0  0  0  0  0  0  0  0  0
    5.7644   -1.1595    0.0630 C   0  0  0  0  0  0  0  0  0  0  0  0
    4.9626   -0.6918    1.1046 C   0  0  0  0  0  0  0  0  0  0  0  0
    3.5834   -0.5605    0.9105 C   0  0  0  0  0  0  0  0  0  0  0  0
    3.0004   -0.9102   -0.3111 C   0  0  0  0  0  0  0  0  0  0  0  0
    1.6226   -0.7999   -0.5830 N   0  0  0  0  0  0  0  0  0  0  0  0
    0.6153   -0.4623    0.2942 C   0  0  0  0  0  0  0  0  0  0  0  0
    0.7224   -0.2576    1.4951 O   0  0  0  0  0  0  0  0  0  0  0  0
   -0.5968   -0.3887   -0.3660 N   0  0  0  0  0  0  0  0  0  0  0  0
   -1.7971    0.0020    0.3597 C   0  0  0  0  0  0  0  0  0  0  0  0
   -1.8512    1.5022    0.6462 C   0  0  0  0  0  0  0  0  0  0  0  0
   -3.3356    1.7482    0.8853 C   0  0  0  0  0  0  0  0  0  0  0  0
   -3.9756    0.8591   -0.0698 N   0  0  0  0  0  0  0  0  0  0  0  0
   -5.3369    0.7010   -0.1862 C   0  0  0  0  0  0  0  0  0  0  0  0
   -6.2371    1.6312    0.3335 C   0  0  0  0  0  0  0  0  0  0  0  0
   -7.6118    1.4445    0.1785 C   0  0  0  0  0  0  0  0  0  0  0  0
   -8.0711    0.3304   -0.5029 C   0  0  0  0  0  0  0  0  0  0  0  0
   -7.1284   -0.5452   -1.0018 C   0  0  0  0  0  0  0  0  0  0  0  0
   -5.7938   -0.3791   -0.8604 N   0  0  0  0  0  0  0  0  0  0  0  0
   -3.1038   -0.2647   -0.4163 C   0  0  0  0  0  0  0  0  0  0  0  0
    3.8195   -1.3920   -1.3426 C   0  0  0  0  0  0  0  0  0  0  0  0
    5.1991   -1.5226   -1.1592 C   0  0  0  0  0  0  0  0  0  0  0  0
    7.6738    0.9862    0.7918 H   0  0  0  0  0  0  0  0  0  0  0  0
    7.8757    0.6325   -0.9592 H   0  0  0  0  0  0  0  0  0  0  0  0
    9.2082    0.3008    0.1848 H   0  0  0  0  0  0  0  0  0  0  0  0
    5.3917   -0.4353    2.0711 H   0  0  0  0  0  0  0  0  0  0  0  0
    2.9877   -0.1882    1.7391 H   0  0  0  0  0  0  0  0  0  0  0  0
    1.3113   -1.1349   -1.4822 H   0  0  0  0  0  0  0  0  0  0  0  0
   -0.5424   -0.0782   -1.3253 H   0  0  0  0  0  0  0  0  0  0  0  0
   -1.8240   -0.5473    1.3102 H   0  0  0  0  0  0  0  0  0  0  0  0
   -1.5084    2.0749   -0.2252 H   0  0  0  0  0  0  0  0  0  0  0  0
   -1.2380    1.7962    1.5033 H   0  0  0  0  0  0  0  0  0  0  0  0
   -3.5815    2.8005    0.7100 H   0  0  0  0  0  0  0  0  0  0  0  0
   -3.6093    1.4768    1.9118 H   0  0  0  0  0  0  0  0  0  0  0  0
   -5.8890    2.5126    0.8587 H   0  0  0  0  0  0  0  0  0  0  0  0
   -8.3106    2.1689    0.5856 H   0  0  0  0  0  0  0  0  0  0  0  0
   -9.1300    0.1510   -0.6449 H   0  0  0  0  0  0  0  0  0  0  0  0
   -7.4247   -1.4351   -1.5491 H   0  0  0  0  0  0  0  0  0  0  0  0
   -3.5097   -1.2367   -0.1102 H   0  0  0  0  0  0  0  0  0  0  0  0
   -2.9351   -0.2810   -1.4994 H   0  0  0  0  0  0  0  0  0  0  0  0
    3.3946   -1.6800   -2.3012 H   0  0  0  0  0  0  0  0  0  0  0  0
    5.8146   -1.9121   -1.9674 H   0  0  0  0  0  0  0  0  0  0  0  0
  1  2  1  0
  2  3  2  0
  2  4  2  0
  2  5  1  0
  5  6  1  0
  6  7  2  0
  7  8  1  0
  8  9  1  0
  9 10  1  0
 10 11  2  0
 10 12  1  0
 12 13  1  0
 13 14  1  0
 14 15  1  0
 15 16  1  0
 16 17  1  0
 17 18  2  0
 18 19  1  0
 19 20  2  0
 20 21  1  0
 21 22  2  0
 16 23  1  0
  8 24  2  0
 24 25  1  0
 25  5  2  0
 23 13  1  0
 22 17  1  0
  1 26  1  0
  1 27  1  0
  1 28  1  0
  6 29  1  0
  7 30  1  0
  9 31  1  0
 12 32  1  0
 13 33  1  0
 14 34  1  0
 14 35  1  0
 15 36  1  0
 15 37  1  0
 18 38  1  0
 19 39  1  0
 20 40  1  0
 21 41  1  0
 23 42  1  0
 23 43  1  0
 24 44  1  0
 25 45  1  0
M  END
$$$$
OCNT-2310470
     RDKit          3D

 57 60  0  0  0  0  0  0  0  0999 V2000
    7.9784    0.8310   -1.4200 C   0  0  0  0  0  0  0  0  0  0  0  0
    6.9359    1.5917   -0.8226 O   0  0  0  0  0  0  0  0  0  0  0  0
    5.9329    0.8894   -0.2127 C   0  0  0  0  0  0  0  0  0  0  0  0
    5.8679   -0.4966   -0.0718 C   0  0  0  0  0  0  0  0  0  0  0  0
    4.7798   -1.0883    0.5803 C   0  0  0  0  0  0  0  0  0  0  0  0
    3.7437   -0.3024    1.1003 C   0  0  0  0  0  0  0  0  0  0  0  0
    2.5646   -0.9439    1.7939 C   0  0  0  0  0  0  0  0  0  0  0  0
    1.5534   -1.5764    0.8265 C   0  0  0  0  0  0  0  0  0  0  0  0
    0.5033   -2.4271    1.5380 C   0  0  0  0  0  0  0  0  0  0  0  0
    0.9385   -0.6027   -0.1848 C   0  0  0  0  0  0  0  0  0  0  0  0
    1.0275   -0.8857   -1.3861 O   0  0  0  0  0  0  0  0  0  0  0  0
    0.2937    0.5581    0.2233 N   0  0  0  0  0  0  0  0  0  0  0  0
   -0.3705    0.7583    1.5058 C   0  0  0  0  0  0  0  0  0  0  0  0
   -1.8610    0.4453    1.3732 C   0  0  0  0  0  0  0  0  0  0  0  0
   -2.4947    1.2478    0.2169 C   0  0  0  0  0  0  0  0  0  0  0  0
   -3.9803    0.9428    0.0266 C   0  0  0  0  0  0  0  0  0  0  0  0
   -4.8726    2.0027    0.2999 C   0  0  0  0  0  0  0  0  0  0  0  0
   -6.2487    1.8464    0.1747 C   0  0  0  0  0  0  0  0  0  0  0  0
   -6.7679    0.6233   -0.2266 C   0  0  0  0  0  0  0  0  0  0  0  0
   -5.9161   -0.4543   -0.5090 C   0  0  0  0  0  0  0  0  0  0  0  0
   -6.4413   -1.6857   -0.9127 C   0  0  0  0  0  0  0  0  0  0  0  0
   -5.7091   -2.7806   -1.2081 N   0  0  0  0  0  0  0  0  0  0  0  0
   -4.3773   -2.6432   -1.1002 C   0  0  0  0  0  0  0  0  0  0  0  0
   -3.7497   -1.4690   -0.7049 C   0  0  0  0  0  0  0  0  0  0  0  0
   -4.5105   -0.3203   -0.3915 C   0  0  0  0  0  0  0  0  0  0  0  0
   -1.6802    1.1850   -1.0919 C   0  0  0  0  0  0  0  0  0  0  0  0
   -0.2011    1.4545   -0.8214 C   0  0  0  0  0  0  0  0  0  0  0  0
    3.8125    1.0875    0.9528 C   0  0  0  0  0  0  0  0  0  0  0  0
    4.9007    1.6751    0.3037 C   0  0  0  0  0  0  0  0  0  0  0  0
    8.6806    1.5318   -1.8815 H   0  0  0  0  0  0  0  0  0  0  0  0
    8.5289    0.2562   -0.6673 H   0  0  0  0  0  0  0  0  0  0  0  0
    7.5903    0.1794   -2.2106 H   0  0  0  0  0  0  0  0  0  0  0  0
    6.6444   -1.1481   -0.4584 H   0  0  0  0  0  0  0  0  0  0  0  0
    4.7472   -2.1718    0.6748 H   0  0  0  0  0  0  0  0  0  0  0  0
    2.0975   -0.2067    2.4532 H   0  0  0  0  0  0  0  0  0  0  0  0
    2.9535   -1.7189    2.4685 H   0  0  0  0  0  0  0  0  0  0  0  0
    2.1206   -2.2859    0.2037 H   0  0  0  0  0  0  0  0  0  0  0  0
    0.0467   -1.9197    2.3902 H   0  0  0  0  0  0  0  0  0  0  0  0
   -0.2978   -2.7212    0.8517 H   0  0  0  0  0  0  0  0  0  0  0  0
    0.9630   -3.3426    1.9271 H   0  0  0  0  0  0  0  0  0  0  0  0
   -0.2250    1.8054    1.7980 H   0  0  0  0  0  0  0  0  0  0  0  0
    0.0619    0.1508    2.2953 H   0  0  0  0  0  0  0  0  0  0  0  0
   -2.3693    0.6852    2.3156 H   0  0  0  0  0  0  0  0  0  0  0  0
   -1.9835   -0.6318    1.2263 H   0  0  0  0  0  0  0  0  0  0  0  0
   -2.4214    2.2988    0.5369 H   0  0  0  0  0  0  0  0  0  0  0  0
   -4.4961    2.9737    0.6180 H   0  0  0  0  0  0  0  0  0  0  0  0
   -6.9145    2.6776    0.3907 H   0  0  0  0  0  0  0  0  0  0  0  0
   -7.8466    0.5148   -0.3195 H   0  0  0  0  0  0  0  0  0  0  0  0
   -7.5143   -1.8317   -1.0143 H   0  0  0  0  0  0  0  0  0  0  0  0
   -3.7969   -3.5275   -1.3476 H   0  0  0  0  0  0  0  0  0  0  0  0
   -2.6682   -1.4784   -0.6550 H   0  0  0  0  0  0  0  0  0  0  0  0
   -2.0632    1.9244   -1.8060 H   0  0  0  0  0  0  0  0  0  0  0  0
   -1.7733    0.2120   -1.5812 H   0  0  0  0  0  0  0  0  0  0  0  0
    0.3790    1.3454   -1.7440 H   0  0  0  0  0  0  0  0  0  0  0  0
   -0.0561    2.4849   -0.4748 H   0  0  0  0  0  0  0  0  0  0  0  0
    3.0190    1.7255    1.3344 H   0  0  0  0  0  0  0  0  0  0  0  0
    4.9419    2.7561    0.1941 H   0  0  0  0  0  0  0  0  0  0  0  0
  1  2  1  0
  2  3  1  0
  3  4  1  0
  4  5  2  0
  5  6  1  0
  6  7  1  0
  7  8  1  0
  8  9  1  0
  8 10  1  0
 10 11  2  0
 10 12  1  0
 12 13  1  0
 13 14  1  0
 14 15  1  0
 15 16  1  0
 16 17  2  0
 17 18  1  0
 18 19  2  0
 19 20  1  0
 20 21  2  0
 21 22  1  0
 22 23  2  0
 23 24  1  0
 24 25  2  0
 15 26  1  0
 26 27  1  0
  6 28  2  0
 28 29  1  0
 29  3  2  0
 27 12  1  0
 25 16  1  0
 25 20  1  0
  1 30  1  0
  1 31  1  0
  1 32  1  0
  4 33  1  0
  5 34  1  0
  7 35  1  0
  7 36  1  0
  8 37  1  0
  9 38  1  0
  9 39  1  0
  9 40  1  0
 13 41  1  0
 13 42  1  0
 14 43  1  0
 14 44  1  0
 15 45  1  0
 17 46  1  0
 18 47  1  0
 19 48  1  0
 21 49  1  0
 23 50  1  0
 24 51  1  0
 26 52  1  0
 26 53  1  0
 27 54  1  0
 27 55  1  0
 28 56  1  0
 29 57  1  0
M  END
$$$$
OCNT-2310478
     RDKit          3D

 48 50  0  0  0  0  0  0  0  0999 V2000
    6.4957   -1.4594    1.4140 C   0  0  0  0  0  0  0  0  0  0  0  0
    5.6034   -0.2751    1.4798 C   0  0  0  0  0  0  0  0  0  0  0  0
    5.6595    0.7535    2.3991 C   0  0  0  0  0  0  0  0  0  0  0  0
    4.4330    1.9031    2.0767 S   0  0  0  0  0  0  0  0  0  0  0  0
    3.9071    0.9519    0.7363 C   0  0  0  0  0  0  0  0  0  0  0  0
    2.7283    1.4244   -0.1147 C   0  0  0  0  0  0  0  0  0  0  0  0
    3.3105    1.9656   -1.4345 C   0  0  0  0  0  0  0  0  0  0  0  0
    1.7214    0.3520   -0.3344 N   0  0  0  0  0  0  0  0  0  0  0  0
    1.1221   -0.1498    0.9223 C   0  0  0  0  0  0  0  0  0  0  0  0
   -0.3528    0.2580    1.1432 C   0  0  0  0  0  0  0  0  0  0  0  0
   -1.2717   -0.1223    0.0498 N   0  0  0  0  0  0  0  0  0  0  0  0
   -1.9928   -1.3739    0.3600 C   0  0  0  0  0  0  0  0  0  0  0  0
   -3.1423   -1.7463   -0.6210 C   0  0  0  0  0  0  0  0  0  0  0  0
   -3.6506   -3.0540   -0.3439 O   0  0  0  0  0  0  0  0  0  0  0  0
   -4.2964   -0.7595   -0.6405 C   0  0  0  0  0  0  0  0  0  0  0  0
   -4.4659    0.0339   -1.7961 C   0  0  0  0  0  0  0  0  0  0  0  0
   -5.4971    0.9695   -1.8860 C   0  0  0  0  0  0  0  0  0  0  0  0
   -6.3722    1.1221   -0.8222 C   0  0  0  0  0  0  0  0  0  0  0  0
   -7.3623    2.0201   -0.9065 F   0  0  0  0  0  0  0  0  0  0  0  0
   -6.2372    0.3586    0.3277 C   0  0  0  0  0  0  0  0  0  0  0  0
   -5.2043   -0.5803    0.4219 C   0  0  0  0  0  0  0  0  0  0  0  0
   -5.1261   -1.4868    1.8932 Cl  0  0  0  0  0  0  0  0  0  0  0  0
   -0.5501   -0.2097   -1.2374 C   0  0  0  0  0  0  0  0  0  0  0  0
    0.6787    0.7234   -1.3089 C   0  0  0  0  0  0  0  0  0  0  0  0
    4.6034   -0.1501    0.5315 N   0  0  0  0  0  0  0  0  0  0  0  0
    7.0608   -1.5853    2.3431 H   0  0  0  0  0  0  0  0  0  0  0  0
    7.2073   -1.3496    0.5899 H   0  0  0  0  0  0  0  0  0  0  0  0
    5.9111   -2.3696    1.2469 H   0  0  0  0  0  0  0  0  0  0  0  0
    6.3461    0.8809    3.2234 H   0  0  0  0  0  0  0  0  0  0  0  0
    2.2306    2.2626    0.3926 H   0  0  0  0  0  0  0  0  0  0  0  0
    2.5518    2.4780   -2.0346 H   0  0  0  0  0  0  0  0  0  0  0  0
    4.1072    2.6941   -1.2419 H   0  0  0  0  0  0  0  0  0  0  0  0
    3.7425    1.1608   -2.0407 H   0  0  0  0  0  0  0  0  0  0  0  0
    1.6931    0.1465    1.8089 H   0  0  0  0  0  0  0  0  0  0  0  0
    1.1762   -1.2459    0.8921 H   0  0  0  0  0  0  0  0  0  0  0  0
   -0.6973   -0.1275    2.1108 H   0  0  0  0  0  0  0  0  0  0  0  0
   -0.3945    1.3510    1.2398 H   0  0  0  0  0  0  0  0  0  0  0  0
   -2.4102   -1.3044    1.3701 H   0  0  0  0  0  0  0  0  0  0  0  0
   -1.2839   -2.2124    0.4077 H   0  0  0  0  0  0  0  0  0  0  0  0
   -2.7248   -1.8236   -1.6320 H   0  0  0  0  0  0  0  0  0  0  0  0
   -2.8975   -3.6674   -0.3466 H   0  0  0  0  0  0  0  0  0  0  0  0
   -3.7867   -0.0726   -2.6397 H   0  0  0  0  0  0  0  0  0  0  0  0
   -5.6208    1.5776   -2.7764 H   0  0  0  0  0  0  0  0  0  0  0  0
   -6.9412    0.5008    1.1417 H   0  0  0  0  0  0  0  0  0  0  0  0
   -1.2386    0.0574   -2.0469 H   0  0  0  0  0  0  0  0  0  0  0  0
   -0.2081   -1.2360   -1.4296 H   0  0  0  0  0  0  0  0  0  0  0  0
    1.0914    0.6576   -2.3223 H   0  0  0  0  0  0  0  0  0  0  0  0
    0.3439    1.7580   -1.1534 H   0  0  0  0  0  0  0  0  0  0  0  0
  1  2  1  0
  2  3  2  0
  3  4  1  0
  4  5  1  0
  5  6  1  0
  6  7  1  0
  6  8  1  0
  8  9  1  0
  9 10  1  0
 10 11  1  0
 11 12  1  0
 12 13  1  0
 13 14  1  0
 13 15  1  0
 15 16  1  0
 16 17  2  0
 17 18  1  0
 18 19  1  0
 18 20  2  0
 20 21  1  0
 21 22  1  0
 11 23  1  0
 23 24  1  0
  5 25  2  0
 25  2  1  0
 24  8  1  0
 21 15  2  0
  1 26  1  0
  1 27  1  0
  1 28  1  0
  3 29  1  0
  6 30  1  0
  7 31  1  0
  7 32  1  0
  7 33  1  0
  9 34  1  0
  9 35  1  0
 10 36  1  0
 10 37  1  0
 12 38  1  0
 12 39  1  0
 13 40  1  0
 14 41  1  0
 16 42  1  0
 17 43  1  0
 20 44  1  0
 23 45  1  0
 23 46  1  0
 24 47  1  0
 24 48  1  0
M  END
$$$$
OCNT-2310481
     RDKit          3D

 47 49  0  0  0  0  0  0  0  0999 V2000
   -5.0618   -1.4180   -1.3860 C   0  0  0  0  0  0  0  0  0  0  0  0
   -4.6015   -0.0511   -1.0335 C   0  0  0  0  0  0  0  0  0  0  0  0
   -5.0695    0.9918   -1.7309 N   0  0  0  0  0  0  0  0  0  0  0  0
   -4.4731    2.0563   -1.1748 N   0  0  0  0  0  0  0  0  0  0  0  0
   -4.7529    3.3753   -1.6869 C   0  0  0  0  0  0  0  0  0  0  0  0
   -3.6382    1.7332   -0.1509 C   0  0  0  0  0  0  0  0  0  0  0  0
   -3.6892    0.3576   -0.0137 C   0  0  0  0  0  0  0  0  0  0  0  0
   -2.9252   -0.4592    0.9852 C   0  0  0  0  0  0  0  0  0  0  0  0
   -3.7883   -1.4634    1.7468 C   0  0  0  0  0  0  0  0  0  0  0  0
   -1.8319   -1.0970    0.2764 N   0  0  0  0  0  0  0  0  0  0  0  0
   -0.7435   -1.5891    0.9423 C   0  0  0  0  0  0  0  0  0  0  0  0
   -0.5766   -1.5007    2.1505 O   0  0  0  0  0  0  0  0  0  0  0  0
    0.1344   -2.1925    0.0803 N   0  0  0  0  0  0  0  0  0  0  0  0
    1.4037   -2.6990    0.5520 C   0  0  0  0  0  0  0  0  0  0  0  0
    2.4897   -1.6625    0.4154 C   0  0  0  0  0  0  0  0  0  0  0  0
    2.6703   -0.6862    1.4011 C   0  0  0  0  0  0  0  0  0  0  0  0
    3.6602    0.2963    1.2689 C   0  0  0  0  0  0  0  0  0  0  0  0
    4.4930    0.3274    0.1382 C   0  0  0  0  0  0  0  0  0  0  0  0
    5.4969    1.3325    0.0126 N   0  0  0  0  0  0  0  0  0  0  0  0
    6.4033    1.5152   -1.0110 C   0  0  0  0  0  0  0  0  0  0  0  0
    7.1575    2.6143   -0.6761 C   0  0  0  0  0  0  0  0  0  0  0  0
    6.7575    3.1273    0.5202 N   0  0  0  0  0  0  0  0  0  0  0  0
    5.7717    2.3486    0.9089 C   0  0  0  0  0  0  0  0  0  0  0  0
    4.2996   -0.6486   -0.8467 C   0  0  0  0  0  0  0  0  0  0  0  0
    5.0387   -0.6952   -1.9628 F   0  0  0  0  0  0  0  0  0  0  0  0
    3.3117   -1.6279   -0.7143 C   0  0  0  0  0  0  0  0  0  0  0  0
   -5.5124   -1.4428   -2.3840 H   0  0  0  0  0  0  0  0  0  0  0  0
   -5.8131   -1.7619   -0.6683 H   0  0  0  0  0  0  0  0  0  0  0  0
   -4.2268   -2.1249   -1.3851 H   0  0  0  0  0  0  0  0  0  0  0  0
   -5.8234    3.5672   -1.5787 H   0  0  0  0  0  0  0  0  0  0  0  0
   -4.1822    4.1148   -1.1198 H   0  0  0  0  0  0  0  0  0  0  0  0
   -4.4608    3.4058   -2.7395 H   0  0  0  0  0  0  0  0  0  0  0  0
   -3.0808    2.4849    0.3909 H   0  0  0  0  0  0  0  0  0  0  0  0
   -2.4821    0.2195    1.7266 H   0  0  0  0  0  0  0  0  0  0  0  0
   -4.6632   -0.9752    2.1896 H   0  0  0  0  0  0  0  0  0  0  0  0
   -3.2198   -1.9302    2.5584 H   0  0  0  0  0  0  0  0  0  0  0  0
   -4.1405   -2.2749    1.1024 H   0  0  0  0  0  0  0  0  0  0  0  0
   -2.0405   -1.5166   -0.6155 H   0  0  0  0  0  0  0  0  0  0  0  0
    0.1156   -1.8407   -0.8648 H   0  0  0  0  0  0  0  0  0  0  0  0
    1.6448   -3.5795   -0.0538 H   0  0  0  0  0  0  0  0  0  0  0  0
    1.3236   -3.0346    1.5924 H   0  0  0  0  0  0  0  0  0  0  0  0
    2.0292   -0.6807    2.2837 H   0  0  0  0  0  0  0  0  0  0  0  0
    3.7395    1.0189    2.0757 H   0  0  0  0  0  0  0  0  0  0  0  0
    6.4583    0.8796   -1.8802 H   0  0  0  0  0  0  0  0  0  0  0  0
    7.9682    3.0581   -1.2397 H   0  0  0  0  0  0  0  0  0  0  0  0
    5.2308    2.4887    1.8334 H   0  0  0  0  0  0  0  0  0  0  0  0
    3.1989   -2.3608   -1.5092 H   0  0  0  0  0  0  0  0  0  0  0  0
  1  2  1  0
  2  3  2  0
  3  4  1  0
  4  5  1  0
  4  6  1  0
  6  7  2  0
  7  8  1  0
  8  9  1  0
  8 10  1  0
 10 11  1  0
 11 12  2  0
 11 13  1  0
 13 14  1  0
 14 15  1  0
 15 16  1  0
 16 17  2  0
 17 18  1  0
 18 19  1  0
 19 20  1  0
 20 21  2  0
 21 22  1  0
 22 23  2  0
 18 24  2  0
 24 25  1  0
 24 26  1  0
  7  2  1  0
 26 15  2  0
 23 19  1  0
  1 27  1  0
  1 28  1  0
  1 29  1  0
  5 30  1  0
  5 31  1  0
  5 32  1  0
  6 33  1  0
  8 34  1  0
  9 35  1  0
  9 36  1  0
  9 37  1  0
 10 38  1  0
 13 39  1  0
 14 40  1  0
 14 41  1  0
 16 42  1  0
 17 43  1  0
 20 44  1  0
 21 45  1  0
 23 46  1  0
 26 47  1  0
M  END
$$$$
OCNT-2310486
     RDKit          3D

 45 48  0  0  0  0  0  0  0  0999 V2000
    1.0034    2.6951   -0.3931 C   0  0  0  0  0  0  0  0  0  0  0  0
    1.2225    1.6513   -1.4771 C   0  0  0  0  0  0  0  0  0  0  0  0
    2.2728    0.6550   -1.1064 C   0  0  0  0  0  0  0  0  0  0  0  0
    2.2525   -0.3824   -0.1622 C   0  0  0  0  0  0  0  0  0  0  0  0
    1.2339   -0.8835    0.7221 C   0  0  0  0  0  0  0  0  0  0  0  0
    1.4879   -1.4335    1.7890 O   0  0  0  0  0  0  0  0  0  0  0  0
   -0.0583   -0.7484    0.2605 N   0  0  0  0  0  0  0  0  0  0  0  0
   -1.1698   -1.3489    0.9721 C   0  0  0  0  0  0  0  0  0  0  0  0
   -2.5258   -0.7108    0.6434 C   0  0  0  0  0  0  0  0  0  0  0  0
   -2.9119   -0.8687   -0.8551 C   0  0  0  0  0  0  0  0  0  0  0  0
   -4.3439   -0.3668   -1.1460 C   0  0  0  0  0  0  0  0  0  0  0  0
   -4.5838    0.9341   -0.4758 C   0  0  0  0  0  0  0  0  0  0  0  0
   -3.7912    1.4156    0.5405 C   0  0  0  0  0  0  0  0  0  0  0  0
   -2.5777    0.7727    1.1013 C   0  0  0  0  0  0  0  0  0  0  0  0
   -4.3204    2.6139    0.9119 N   0  0  0  0  0  0  0  0  0  0  0  0
   -5.4142    2.9430    0.1988 N   0  0  0  0  0  0  0  0  0  0  0  0
   -5.5740    1.9164   -0.6438 C   0  0  0  0  0  0  0  0  0  0  0  0
    3.5393   -0.8651   -0.1920 N   0  0  0  0  0  0  0  0  0  0  0  0
    4.2708   -1.8407    0.4536 C   0  0  0  0  0  0  0  0  0  0  0  0
    5.5368   -1.9047   -0.0002 C   0  0  0  0  0  0  0  0  0  0  0  0
    6.6100   -2.8264    0.4614 C   0  0  0  0  0  0  0  0  0  0  0  0
    5.8578   -0.7172   -1.2873 S   0  0  0  0  0  0  0  0  0  0  0  0
    4.2179   -0.1690   -1.1431 C   0  0  0  0  0  0  0  0  0  0  0  0
    3.5099    0.7519   -1.7282 N   0  0  0  0  0  0  0  0  0  0  0  0
    0.2383    3.4125   -0.7065 H   0  0  0  0  0  0  0  0  0  0  0  0
    0.6746    2.2370    0.5452 H   0  0  0  0  0  0  0  0  0  0  0  0
    1.9261    3.2488   -0.1886 H   0  0  0  0  0  0  0  0  0  0  0  0
    1.5255    2.1635   -2.3988 H   0  0  0  0  0  0  0  0  0  0  0  0
    0.2788    1.1502   -1.7105 H   0  0  0  0  0  0  0  0  0  0  0  0
   -0.1580   -0.6254   -0.7371 H   0  0  0  0  0  0  0  0  0  0  0  0
   -0.9825   -1.2818    2.0503 H   0  0  0  0  0  0  0  0  0  0  0  0
   -1.1787   -2.4137    0.7115 H   0  0  0  0  0  0  0  0  0  0  0  0
   -3.2819   -1.2606    1.2236 H   0  0  0  0  0  0  0  0  0  0  0  0
   -2.8317   -1.9187   -1.1598 H   0  0  0  0  0  0  0  0  0  0  0  0
   -2.2095   -0.2993   -1.4773 H   0  0  0  0  0  0  0  0  0  0  0  0
   -4.4914   -0.2789   -2.2279 H   0  0  0  0  0  0  0  0  0  0  0  0
   -5.0683   -1.1000   -0.7716 H   0  0  0  0  0  0  0  0  0  0  0  0
   -1.6981    1.3195    0.7439 H   0  0  0  0  0  0  0  0  0  0  0  0
   -2.5804    0.8251    2.1959 H   0  0  0  0  0  0  0  0  0  0  0  0
   -3.9986    3.2578    1.6274 H   0  0  0  0  0  0  0  0  0  0  0  0
   -6.4042    1.9327   -1.3383 H   0  0  0  0  0  0  0  0  0  0  0  0
    3.8219   -2.4454    1.2276 H   0  0  0  0  0  0  0  0  0  0  0  0
    6.9626   -3.4535   -0.3638 H   0  0  0  0  0  0  0  0  0  0  0  0
    7.4604   -2.2623    0.8578 H   0  0  0  0  0  0  0  0  0  0  0  0
    6.2508   -3.4901    1.2550 H   0  0  0  0  0  0  0  0  0  0  0  0
  1  2  1  0
  2  3  1  0
  3  4  2  0
  4  5  1  0
  5  6  2  0
  5  7  1  0
  7  8  1  0
  8  9  1  0
  9 10  1  0
 10 11  1  0
 11 12  1  0
 12 13  2  0
 13 14  1  0
 13 15  1  0
 15 16  1  0
 16 17  2  0
  4 18  1  0
 18 19  1  0
 19 20  2  0
 20 21  1  0
 20 22  1  0
 22 23  1  0
 23 24  2  0
 24  3  1  0
 14  9  1  0
 23 18  1  0
 17 12  1  0
  1 25  1  0
  1 26  1  0
  1 27  1  0
  2 28  1  0
  2 29  1  0
  7 30  1  0
  8 31  1  0
  8 32  1  0
  9 33  1  0
 10 34  1  0
 10 35  1  0
 11 36  1  0
 11 37  1  0
 14 38  1  0
 14 39  1  0
 15 40  1  0
 17 41  1  0
 19 42  1  0
 21 43  1  0
 21 44  1  0
 21 45  1  0
M  END
$$$$
OCNT-2310492
     RDKit          3D

 54 57  0  0  0  0  0  0  0  0999 V2000
   -3.1575   -2.4906   -0.4587 C   0  0  0  0  0  0  0  0  0  0  0  0
   -4.4512   -1.8432   -0.0790 C   0  0  0  0  0  0  0  0  0  0  0  0
   -5.6465   -2.4293   -0.2516 C   0  0  0  0  0  0  0  0  0  0  0  0
   -6.8625   -1.7638    0.1256 C   0  0  0  0  0  0  0  0  0  0  0  0
   -6.8137   -0.5390    0.6588 C   0  0  0  0  0  0  0  0  0  0  0  0
   -5.6103    0.1233    0.8654 N   0  0  0  0  0  0  0  0  0  0  0  0
   -5.6320    1.3888    1.4312 C   0  0  0  0  0  0  0  0  0  0  0  0
   -6.6401    1.9996    1.7854 O   0  0  0  0  0  0  0  0  0  0  0  0
   -4.3221    2.0257    1.6188 C   0  0  0  0  0  0  0  0  0  0  0  0
   -3.2191    1.3713    1.2395 C   0  0  0  0  0  0  0  0  0  0  0  0
   -1.8516    2.0016    1.4379 C   0  0  0  0  0  0  0  0  0  0  0  0
   -1.4141    2.8369    0.3138 N   0  0  0  0  0  0  0  0  0  0  0  0
   -1.0105    2.0654   -0.8724 C   0  0  0  0  0  0  0  0  0  0  0  0
   -0.9761    3.0246   -2.0705 C   0  0  0  0  0  0  0  0  0  0  0  0
    0.3249    1.3604   -0.6781 C   0  0  0  0  0  0  0  0  0  0  0  0
    0.3551   -0.0328   -0.5261 C   0  0  0  0  0  0  0  0  0  0  0  0
    1.5642   -0.7042   -0.3299 C   0  0  0  0  0  0  0  0  0  0  0  0
    2.7687   -0.0018   -0.2775 C   0  0  0  0  0  0  0  0  0  0  0  0
    3.8746   -0.7808   -0.0790 O   0  0  0  0  0  0  0  0  0  0  0  0
    5.1392   -0.1202   -0.0487 C   0  0  0  0  0  0  0  0  0  0  0  0
    6.2199   -1.1356    0.2049 C   0  0  0  0  0  0  0  0  0  0  0  0
    6.1223   -2.0732    1.2380 C   0  0  0  0  0  0  0  0  0  0  0  0
    7.1624   -2.9710    1.4592 C   0  0  0  0  0  0  0  0  0  0  0  0
    8.2774   -2.8961    0.6418 C   0  0  0  0  0  0  0  0  0  0  0  0
    8.4160   -1.9993   -0.3580 N   0  0  0  0  0  0  0  0  0  0  0  0
    7.3870   -1.1429   -0.5524 C   0  0  0  0  0  0  0  0  0  0  0  0
    2.7521    1.3848   -0.4189 C   0  0  0  0  0  0  0  0  0  0  0  0
    1.5401    2.0597   -0.6134 C   0  0  0  0  0  0  0  0  0  0  0  0
   -3.2402    0.1085    0.6997 N   0  0  0  0  0  0  0  0  0  0  0  0
   -4.3939   -0.4640    0.5242 C   0  0  0  0  0  0  0  0  0  0  0  0
   -2.4992   -2.5803    0.4115 H   0  0  0  0  0  0  0  0  0  0  0  0
   -2.6464   -1.9028   -1.2280 H   0  0  0  0  0  0  0  0  0  0  0  0
   -3.3100   -3.4978   -0.8610 H   0  0  0  0  0  0  0  0  0  0  0  0
   -5.7310   -3.4221   -0.6835 H   0  0  0  0  0  0  0  0  0  0  0  0
   -7.8089   -2.2712   -0.0308 H   0  0  0  0  0  0  0  0  0  0  0  0
   -7.7212   -0.0167    0.9514 H   0  0  0  0  0  0  0  0  0  0  0  0
   -4.3082    3.0184    2.0474 H   0  0  0  0  0  0  0  0  0  0  0  0
   -1.1103    1.2360    1.6954 H   0  0  0  0  0  0  0  0  0  0  0  0
   -1.8973    2.6521    2.3217 H   0  0  0  0  0  0  0  0  0  0  0  0
   -0.6197    3.3958    0.6173 H   0  0  0  0  0  0  0  0  0  0  0  0
   -1.7767    1.3225   -1.1227 H   0  0  0  0  0  0  0  0  0  0  0  0
   -0.2951    3.8687   -1.9144 H   0  0  0  0  0  0  0  0  0  0  0  0
   -0.6550    2.5019   -2.9787 H   0  0  0  0  0  0  0  0  0  0  0  0
   -1.9731    3.4388   -2.2610 H   0  0  0  0  0  0  0  0  0  0  0  0
   -0.5700   -0.6050   -0.5484 H   0  0  0  0  0  0  0  0  0  0  0  0
    1.5645   -1.7854   -0.2143 H   0  0  0  0  0  0  0  0  0  0  0  0
    5.3142    0.3769   -1.0109 H   0  0  0  0  0  0  0  0  0  0  0  0
    5.1701    0.6187    0.7619 H   0  0  0  0  0  0  0  0  0  0  0  0
    5.2349   -2.1085    1.8663 H   0  0  0  0  0  0  0  0  0  0  0  0
    7.1038   -3.7104    2.2499 H   0  0  0  0  0  0  0  0  0  0  0  0
    9.1148   -3.5750    0.7742 H   0  0  0  0  0  0  0  0  0  0  0  0
    7.5398   -0.4379   -1.3655 H   0  0  0  0  0  0  0  0  0  0  0  0
    3.6595    1.9778   -0.3809 H   0  0  0  0  0  0  0  0  0  0  0  0
    1.5581    3.1426   -0.7123 H   0  0  0  0  0  0  0  0  0  0  0  0
  1  2  1  0
  2  3  2  0
  3  4  1  0
  4  5  2  0
  5  6  1  0
  6  7  1  0
  7  8  2  0
  7  9  1  0
  9 10  2  0
 10 11  1  0
 11 12  1  0
 12 13  1  0
 13 14  1  0
 13 15  1  0
 15 16  1  0
 16 17  2  0
 17 18  1  0
 18 19  1  0
 19 20  1  0
 20 21  1  0
 21 22  1  0
 22 23  2  0
 23 24  1  0
 24 25  2  0
 25 26  1  0
 18 27  2  0
 27 28  1  0
 10 29  1  0
 29 30  2  0
 30  2  1  0
 30  6  1  0
 28 15  2  0
 26 21  2  0
  1 31  1  0
  1 32  1  0
  1 33  1  0
  3 34  1  0
  4 35  1  0
  5 36  1  0
  9 37  1  0
 11 38  1  0
 11 39  1  0
 12 40  1  0
 13 41  1  0
 14 42  1  0
 14 43  1  0
 14 44  1  0
 16 45  1  0
 17 46  1  0
 20 47  1  0
 20 48  1  0
 22 49  1  0
 23 50  1  0
 24 51  1  0
 26 52  1  0
 27 53  1  0
 28 54  1  0
M  END
$$$$
OCNT-2310494
     RDKit          3D

 40 43  0  0  0  0  0  0  0  0999 V2000
   -5.0799   -0.0443   -2.2136 O   0  0  0  0  0  0  0  0  0  0  0  0
   -5.1880    0.4159   -1.0920 C   0  0  0  0  0  0  0  0  0  0  0  0
   -6.0539    1.4264   -0.7276 N   0  0  0  0  0  0  0  0  0  0  0  0
   -6.0184    1.6989    0.6758 C   0  0  0  0  0  0  0  0  0  0  0  0
   -4.6610    1.1619    1.0933 C   0  0  0  0  0  0  0  0  0  0  0  0
   -4.4522   -0.0341    0.1561 C   0  0  0  0  0  0  0  0  0  0  0  0
   -2.9944   -0.3842   -0.1272 C   0  0  0  0  0  0  0  0  0  0  0  0
   -2.2295   -0.7599    1.1386 C   0  0  0  0  0  0  0  0  0  0  0  0
   -0.8813   -1.2003    0.8522 N   0  0  0  0  0  0  0  0  0  0  0  0
    0.2301   -0.4321    0.6685 C   0  0  0  0  0  0  0  0  0  0  0  0
    1.2345   -1.3505    0.4509 C   0  0  0  0  0  0  0  0  0  0  0  0
    2.6400   -1.0839    0.1925 C   0  0  0  0  0  0  0  0  0  0  0  0
    3.5297   -2.1581    0.0528 C   0  0  0  0  0  0  0  0  0  0  0  0
    4.8875   -1.9381   -0.1948 C   0  0  0  0  0  0  0  0  0  0  0  0
    5.3842   -0.6307   -0.3091 C   0  0  0  0  0  0  0  0  0  0  0  0
    6.7305   -0.3494   -0.5557 C   0  0  0  0  0  0  0  0  0  0  0  0
    7.2451    0.8969   -0.6724 N   0  0  0  0  0  0  0  0  0  0  0  0
    6.3775    1.9201   -0.5390 C   0  0  0  0  0  0  0  0  0  0  0  0
    5.0227    1.7585   -0.2934 C   0  0  0  0  0  0  0  0  0  0  0  0
    4.5070    0.4617   -0.1740 C   0  0  0  0  0  0  0  0  0  0  0  0
    3.1417    0.2223    0.0757 C   0  0  0  0  0  0  0  0  0  0  0  0
    0.7003   -2.6148    0.5214 N   0  0  0  0  0  0  0  0  0  0  0  0
   -0.5979   -2.5085    0.7697 N   0  0  0  0  0  0  0  0  0  0  0  0
   -6.7203    1.8003   -1.3932 H   0  0  0  0  0  0  0  0  0  0  0  0
   -6.8394    1.1553    1.1535 H   0  0  0  0  0  0  0  0  0  0  0  0
   -6.1270    2.7711    0.8554 H   0  0  0  0  0  0  0  0  0  0  0  0
   -3.8910    1.9244    0.9189 H   0  0  0  0  0  0  0  0  0  0  0  0
   -4.6311    0.8851    2.1513 H   0  0  0  0  0  0  0  0  0  0  0  0
   -4.9836   -0.9110    0.5480 H   0  0  0  0  0  0  0  0  0  0  0  0
   -2.9566   -1.2173   -0.8417 H   0  0  0  0  0  0  0  0  0  0  0  0
   -2.4956    0.4563   -0.6280 H   0  0  0  0  0  0  0  0  0  0  0  0
   -2.1482    0.0941    1.8203 H   0  0  0  0  0  0  0  0  0  0  0  0
   -2.7364   -1.5688    1.6777 H   0  0  0  0  0  0  0  0  0  0  0  0
    0.2012    0.6455    0.7052 H   0  0  0  0  0  0  0  0  0  0  0  0
    3.1709   -3.1832    0.1361 H   0  0  0  0  0  0  0  0  0  0  0  0
    5.5508   -2.7940   -0.2980 H   0  0  0  0  0  0  0  0  0  0  0  0
    7.4593   -1.1477   -0.6705 H   0  0  0  0  0  0  0  0  0  0  0  0
    6.8127    2.9107   -0.6380 H   0  0  0  0  0  0  0  0  0  0  0  0
    4.3872    2.6324   -0.1987 H   0  0  0  0  0  0  0  0  0  0  0  0
    2.4728    1.0732    0.1753 H   0  0  0  0  0  0  0  0  0  0  0  0
  1  2  2  0
  2  3  1  0
  3  4  1  0
  4  5  1  0
  5  6  1  0
  6  7  1  0
  7  8  1  0
  8  9  1  0
  9 10  1  0
 10 11  2  0
 11 12  1  0
 12 13  1  0
 13 14  2  0
 14 15  1  0
 15 16  2  0
 16 17  1  0
 17 18  2  0
 18 19  1  0
 19 20  2  0
 20 21  1  0
 11 22  1  0
 22 23  2  0
  6  2  1  0
 23  9  1  0
 21 12  2  0
 20 15  1  0
  3 24  1  0
  4 25  1  0
  4 26  1  0
  5 27  1  0
  5 28  1  0
  6 29  1  0
  7 30  1  0
  7 31  1  0
  8 32  1  0
  8 33  1  0
 10 34  1  0
 13 35  1  0
 14 36  1  0
 16 37  1  0
 18 38  1  0
 19 39  1  0
 21 40  1  0
M  END
$$$$
OCNT-2310498
     RDKit          3D

 48 51  0  0  0  0  0  0  0  0999 V2000
    1.8826    0.4958    1.6513 C   0  0  0  0  0  0  0  0  0  0  0  0
    3.0247    1.0445    1.2315 N   0  0  0  0  0  0  0  0  0  0  0  0
    3.1546    0.5789   -0.0243 N   0  0  0  0  0  0  0  0  0  0  0  0
    4.2981    0.9744   -0.8312 C   0  0  0  0  0  0  0  0  0  0  0  0
    5.4722    0.0270   -0.6631 C   0  0  0  0  0  0  0  0  0  0  0  0
    6.2574    0.0844    0.6762 C   0  0  0  0  0  0  0  0  0  0  0  0
    7.5377   -0.1553   -0.1493 C   0  0  0  0  0  0  0  0  0  0  0  0
    6.7936    0.4662   -1.3488 C   0  0  0  0  0  0  0  0  0  0  0  0
    2.1407   -0.2511   -0.4010 C   0  0  0  0  0  0  0  0  0  0  0  0
    1.2751   -0.3258    0.6734 C   0  0  0  0  0  0  0  0  0  0  0  0
    0.0062   -1.1003    0.7996 C   0  0  0  0  0  0  0  0  0  0  0  0
   -0.9265   -0.6954   -0.2626 N   0  0  0  0  0  0  0  0  0  0  0  0
   -2.1999   -1.4388   -0.1462 C   0  0  0  0  0  0  0  0  0  0  0  0
   -2.8161   -0.2496    0.6297 C   0  0  0  0  0  0  0  0  0  0  0  0
   -4.2535    0.2194    0.3805 C   0  0  0  0  0  0  0  0  0  0  0  0
   -4.5659    0.5203   -1.0900 C   0  0  0  0  0  0  0  0  0  0  0  0
   -6.0450    0.8455   -1.2720 C   0  0  0  0  0  0  0  0  0  0  0  0
   -6.8604   -0.2170   -0.7807 O   0  0  0  0  0  0  0  0  0  0  0  0
   -6.6766   -0.4318    0.6171 C   0  0  0  0  0  0  0  0  0  0  0  0
   -5.2374   -0.8321    0.9143 C   0  0  0  0  0  0  0  0  0  0  0  0
   -1.6238    0.5663    0.0759 C   0  0  0  0  0  0  0  0  0  0  0  0
    1.5370    0.7157    2.6532 H   0  0  0  0  0  0  0  0  0  0  0  0
    4.5574    2.0022   -0.5511 H   0  0  0  0  0  0  0  0  0  0  0  0
    3.9641    0.9918   -1.8750 H   0  0  0  0  0  0  0  0  0  0  0  0
    5.2014   -1.0033   -0.9389 H   0  0  0  0  0  0  0  0  0  0  0  0
    6.0117   -0.6933    1.4039 H   0  0  0  0  0  0  0  0  0  0  0  0
    6.2361    1.0601    1.1759 H   0  0  0  0  0  0  0  0  0  0  0  0
    7.7844   -1.2147   -0.2836 H   0  0  0  0  0  0  0  0  0  0  0  0
    8.4289    0.3796    0.1876 H   0  0  0  0  0  0  0  0  0  0  0  0
    6.9263    1.5515   -1.4310 H   0  0  0  0  0  0  0  0  0  0  0  0
    6.9986    0.0093   -2.3205 H   0  0  0  0  0  0  0  0  0  0  0  0
    2.1036   -0.7055   -1.3812 H   0  0  0  0  0  0  0  0  0  0  0  0
    0.2500   -2.1638    0.6784 H   0  0  0  0  0  0  0  0  0  0  0  0
   -0.4131   -0.9836    1.8073 H   0  0  0  0  0  0  0  0  0  0  0  0
   -2.1670   -2.3854    0.4053 H   0  0  0  0  0  0  0  0  0  0  0  0
   -2.6499   -1.6465   -1.1227 H   0  0  0  0  0  0  0  0  0  0  0  0
   -2.6988   -0.3947    1.7169 H   0  0  0  0  0  0  0  0  0  0  0  0
   -4.4081    1.1457    0.9510 H   0  0  0  0  0  0  0  0  0  0  0  0
   -4.3262   -0.3507   -1.7095 H   0  0  0  0  0  0  0  0  0  0  0  0
   -3.9635    1.3573   -1.4567 H   0  0  0  0  0  0  0  0  0  0  0  0
   -6.3138    1.7789   -0.7634 H   0  0  0  0  0  0  0  0  0  0  0  0
   -6.2690    0.9733   -2.3359 H   0  0  0  0  0  0  0  0  0  0  0  0
   -7.3566   -1.2327    0.9242 H   0  0  0  0  0  0  0  0  0  0  0  0
   -6.9611    0.4729    1.1673 H   0  0  0  0  0  0  0  0  0  0  0  0
   -5.1024   -0.9737    1.9926 H   0  0  0  0  0  0  0  0  0  0  0  0
   -5.0303   -1.7970    0.4339 H   0  0  0  0  0  0  0  0  0  0  0  0
   -1.8387    1.1686   -0.8131 H   0  0  0  0  0  0  0  0  0  0  0  0
   -1.1387    1.2250    0.8047 H   0  0  0  0  0  0  0  0  0  0  0  0
  1  2  2  0
  2  3  1  0
  3  4  1  0
  4  5  1  0
  5  6  1  0
  6  7  1  0
  7  8  1  0
  3  9  1  0
  9 10  2  0
 10 11  1  0
 11 12  1  0
 12 13  1  0
 13 14  1  0
 14 15  1  0
 15 16  1  0
 16 17  1  0
 17 18  1  0
 18 19  1  0
 19 20  1  0
 14 21  1  0
 10  1  1  0
 21 12  1  0
  8  5  1  0
 20 15  1  0
  1 22  1  0
  4 23  1  0
  4 24  1  0
  5 25  1  0
  6 26  1  0
  6 27  1  0
  7 28  1  0
  7 29  1  0
  8 30  1  0
  8 31  1  0
  9 32  1  0
 11 33  1  0
 11 34  1  0
 13 35  1  0
 13 36  1  0
 14 37  1  0
 15 38  1  0
 16 39  1  0
 16 40  1  0
 17 41  1  0
 17 42  1  0
 19 43  1  0
 19 44  1  0
 20 45  1  0
 20 46  1  0
 21 47  1  0
 21 48  1  0
M  END
$$$$
OCNT-2310500
     RDKit          3D

 47 49  0  0  0  0  0  0  0  0999 V2000
   -4.0300    0.1399   -1.1801 C   0  0  0  0  0  0  0  0  0  0  0  0
   -3.1312   -0.9682   -0.6167 C   0  0  0  0  0  0  0  0  0  0  0  0
   -2.7818   -1.8137   -1.7248 O   0  0  0  0  0  0  0  0  0  0  0  0
   -3.8702   -1.8284    0.4266 C   0  0  0  0  0  0  0  0  0  0  0  0
   -3.4875   -1.4944    1.8701 C   0  0  0  0  0  0  0  0  0  0  0  0
   -3.1095   -0.0268    2.0401 C   0  0  0  0  0  0  0  0  0  0  0  0
   -1.9274    0.3326    1.2502 N   0  0  0  0  0  0  0  0  0  0  0  0
   -1.7698    1.7860    1.1384 C   0  0  0  0  0  0  0  0  0  0  0  0
   -0.3414    2.2219    0.7976 C   0  0  0  0  0  0  0  0  0  0  0  0
    0.6825    1.7473    1.8283 C   0  0  0  0  0  0  0  0  0  0  0  0
    1.9890    2.2210    1.4902 O   0  0  0  0  0  0  0  0  0  0  0  0
    2.7673    1.4576    0.6647 C   0  0  0  0  0  0  0  0  0  0  0  0
    4.0675    1.9337    0.4946 C   0  0  0  0  0  0  0  0  0  0  0  0
    4.9729    1.2591   -0.3273 C   0  0  0  0  0  0  0  0  0  0  0  0
    4.5892    0.0918   -1.0014 C   0  0  0  0  0  0  0  0  0  0  0  0
    5.4835   -0.6016   -1.8330 C   0  0  0  0  0  0  0  0  0  0  0  0
    5.0840   -1.7610   -2.4998 C   0  0  0  0  0  0  0  0  0  0  0  0
    3.7866   -2.2402   -2.3444 C   0  0  0  0  0  0  0  0  0  0  0  0
    2.8865   -1.5624   -1.5199 C   0  0  0  0  0  0  0  0  0  0  0  0
    3.2723   -0.3952   -0.8396 C   0  0  0  0  0  0  0  0  0  0  0  0
    2.3752    0.2968   -0.0043 C   0  0  0  0  0  0  0  0  0  0  0  0
   -1.8208   -0.3935   -0.0262 C   0  0  0  0  0  0  0  0  0  0  0  0
   -3.4896    0.7302   -1.9293 H   0  0  0  0  0  0  0  0  0  0  0  0
   -4.8956   -0.2893   -1.6980 H   0  0  0  0  0  0  0  0  0  0  0  0
   -4.4016    0.8204   -0.4107 H   0  0  0  0  0  0  0  0  0  0  0  0
   -3.6027   -2.2023   -2.0735 H   0  0  0  0  0  0  0  0  0  0  0  0
   -3.6816   -2.8962    0.2562 H   0  0  0  0  0  0  0  0  0  0  0  0
   -4.9543   -1.7044    0.3080 H   0  0  0  0  0  0  0  0  0  0  0  0
   -4.3191   -1.7492    2.5376 H   0  0  0  0  0  0  0  0  0  0  0  0
   -2.6425   -2.1251    2.1767 H   0  0  0  0  0  0  0  0  0  0  0  0
   -2.8966    0.1631    3.0985 H   0  0  0  0  0  0  0  0  0  0  0  0
   -3.9725    0.5956    1.7746 H   0  0  0  0  0  0  0  0  0  0  0  0
   -2.4653    2.1952    0.3960 H   0  0  0  0  0  0  0  0  0  0  0  0
   -2.0290    2.2560    2.0966 H   0  0  0  0  0  0  0  0  0  0  0  0
   -0.3074    3.3181    0.7498 H   0  0  0  0  0  0  0  0  0  0  0  0
   -0.0583    1.8906   -0.2069 H   0  0  0  0  0  0  0  0  0  0  0  0
    0.4375    2.1963    2.7979 H   0  0  0  0  0  0  0  0  0  0  0  0
    0.6728    0.6644    1.9938 H   0  0  0  0  0  0  0  0  0  0  0  0
    4.3807    2.8386    1.0093 H   0  0  0  0  0  0  0  0  0  0  0  0
    5.9798    1.6548   -0.4359 H   0  0  0  0  0  0  0  0  0  0  0  0
    6.5008   -0.2413   -1.9672 H   0  0  0  0  0  0  0  0  0  0  0  0
    5.7864   -2.2885   -3.1401 H   0  0  0  0  0  0  0  0  0  0  0  0
    3.4728   -3.1420   -2.8638 H   0  0  0  0  0  0  0  0  0  0  0  0
    1.8766   -1.9534   -1.4116 H   0  0  0  0  0  0  0  0  0  0  0  0
    1.3679   -0.0929    0.0996 H   0  0  0  0  0  0  0  0  0  0  0  0
   -1.3094    0.1952   -0.7976 H   0  0  0  0  0  0  0  0  0  0  0  0
   -1.1363   -1.2363    0.1478 H   0  0  0  0  0  0  0  0  0  0  0  0
  1  2  1  0
  2  3  1  0
  2  4  1  0
  4  5  1  0
  5  6  1  0
  6  7  1  0
  7  8  1  0
  8  9  1  0
  9 10  1  0
 10 11  1  0
 11 12  1  0
 12 13  1  0
 13 14  2  0
 14 15  1  0
 15 16  2  0
 16 17  1  0
 17 18  2  0
 18 19  1  0
 19 20  2  0
 20 21  1  0
  7 22  1  0
 22  2  1  0
 21 12  2  0
 20 15  1  0
  1 23  1  0
  1 24  1  0
  1 25  1  0
  3 26  1  0
  4 27  1  0
  4 28  1  0
  5 29  1  0
  5 30  1  0
  6 31  1  0
  6 32  1  0
  8 33  1  0
  8 34  1  0
  9 35  1  0
  9 36  1  0
 10 37  1  0
 10 38  1  0
 13 39  1  0
 14 40  1  0
 16 41  1  0
 17 42  1  0
 18 43  1  0
 19 44  1  0
 21 45  1  0
 22 46  1  0
 22 47  1  0
M  END
$$$$
OCNT-2310513
     RDKit          3D

 52 55  0  0  0  0  0  0  0  0999 V2000
    4.3419    1.8408    3.2455 C   0  0  0  0  0  0  0  0  0  0  0  0
    5.0910    0.8174    2.4062 C   0  0  0  0  0  0  0  0  0  0  0  0
    4.2404    0.2889    1.2807 C   0  0  0  0  0  0  0  0  0  0  0  0
    4.1554    0.9770    0.0681 C   0  0  0  0  0  0  0  0  0  0  0  0
    3.3482    0.4977   -0.9731 C   0  0  0  0  0  0  0  0  0  0  0  0
    2.5981   -0.6750   -0.8308 C   0  0  0  0  0  0  0  0  0  0  0  0
    1.7427   -1.1504   -1.8650 N   0  0  0  0  0  0  0  0  0  0  0  0
    0.8728   -2.2937   -1.6876 C   0  0  0  0  0  0  0  0  0  0  0  0
   -0.1320   -2.1849   -2.8140 C   0  0  0  0  0  0  0  0  0  0  0  0
   -1.3966   -1.4757   -2.3498 C   0  0  0  0  0  0  0  0  0  0  0  0
   -2.4641   -2.0794   -2.2821 O   0  0  0  0  0  0  0  0  0  0  0  0
   -1.2593   -0.1593   -1.9740 N   0  0  0  0  0  0  0  0  0  0  0  0
   -2.3487    0.5766   -1.3552 C   0  0  0  0  0  0  0  0  0  0  0  0
   -2.3536    0.4870    0.1532 C   0  0  0  0  0  0  0  0  0  0  0  0
   -1.1261    0.3441    0.8363 C   0  0  0  0  0  0  0  0  0  0  0  0
   -1.0826    0.1434    2.2112 C   0  0  0  0  0  0  0  0  0  0  0  0
   -2.2776    0.0913    2.8906 C   0  0  0  0  0  0  0  0  0  0  0  0
   -3.4723    0.2699    2.2952 N   0  0  0  0  0  0  0  0  0  0  0  0
   -3.5107    0.5120    0.9500 C   0  0  0  0  0  0  0  0  0  0  0  0
   -4.8141    0.8401    0.4599 N   0  0  0  0  0  0  0  0  0  0  0  0
   -5.2004    1.5339   -0.6666 C   0  0  0  0  0  0  0  0  0  0  0  0
   -6.5741    1.6040   -0.6196 C   0  0  0  0  0  0  0  0  0  0  0  0
   -7.0559    1.0063    0.5080 N   0  0  0  0  0  0  0  0  0  0  0  0
   -5.9867    0.5834    1.1456 C   0  0  0  0  0  0  0  0  0  0  0  0
    0.6089   -1.4498   -3.9159 C   0  0  0  0  0  0  0  0  0  0  0  0
    1.6629   -0.6593   -3.1764 C   0  0  0  0  0  0  0  0  0  0  0  0
    2.2882    0.2488   -3.7001 O   0  0  0  0  0  0  0  0  0  0  0  0
    2.6933   -1.3583    0.3918 C   0  0  0  0  0  0  0  0  0  0  0  0
    3.5007   -0.8845    1.4338 C   0  0  0  0  0  0  0  0  0  0  0  0
    4.0419    2.7060    2.6440 H   0  0  0  0  0  0  0  0  0  0  0  0
    3.4357    1.4089    3.6846 H   0  0  0  0  0  0  0  0  0  0  0  0
    4.9781    2.1995    4.0609 H   0  0  0  0  0  0  0  0  0  0  0  0
    6.0038    1.2670    1.9968 H   0  0  0  0  0  0  0  0  0  0  0  0
    5.4214   -0.0120    3.0440 H   0  0  0  0  0  0  0  0  0  0  0  0
    4.7206    1.8948   -0.0844 H   0  0  0  0  0  0  0  0  0  0  0  0
    3.3287    1.0830   -1.8869 H   0  0  0  0  0  0  0  0  0  0  0  0
    1.4806   -3.2000   -1.7905 H   0  0  0  0  0  0  0  0  0  0  0  0
    0.3849   -2.2809   -0.7079 H   0  0  0  0  0  0  0  0  0  0  0  0
   -0.4422   -3.1797   -3.1569 H   0  0  0  0  0  0  0  0  0  0  0  0
   -0.3473    0.2793   -1.9646 H   0  0  0  0  0  0  0  0  0  0  0  0
   -2.2351    1.6229   -1.6566 H   0  0  0  0  0  0  0  0  0  0  0  0
   -3.2738    0.1739   -1.7745 H   0  0  0  0  0  0  0  0  0  0  0  0
   -0.1801    0.3710    0.3012 H   0  0  0  0  0  0  0  0  0  0  0  0
   -0.1388    0.0180    2.7307 H   0  0  0  0  0  0  0  0  0  0  0  0
   -2.3104   -0.0822    3.9622 H   0  0  0  0  0  0  0  0  0  0  0  0
   -4.5144    1.9581   -1.3795 H   0  0  0  0  0  0  0  0  0  0  0  0
   -7.2391    2.0748   -1.3332 H   0  0  0  0  0  0  0  0  0  0  0  0
   -5.9903    0.0673    2.0978 H   0  0  0  0  0  0  0  0  0  0  0  0
   -0.0362   -0.7796   -4.4907 H   0  0  0  0  0  0  0  0  0  0  0  0
    1.1132   -2.1490   -4.5923 H   0  0  0  0  0  0  0  0  0  0  0  0
    2.1594   -2.2873    0.5696 H   0  0  0  0  0  0  0  0  0  0  0  0
    3.5505   -1.4459    2.3651 H   0  0  0  0  0  0  0  0  0  0  0  0
  1  2  1  0
  2  3  1  0
  3  4  1  0
  4  5  2  0
  5  6  1  0
  6  7  1  0
  7  8  1  0
  8  9  1  0
  9 10  1  0
 10 11  2  0
 10 12  1  0
 12 13  1  0
 13 14  1  0
 14 15  1  0
 15 16  2  0
 16 17  1  0
 17 18  2  0
 18 19  1  0
 19 20  1  0
 20 21  1  0
 21 22  2  0
 22 23  1  0
 23 24  2  0
  9 25  1  0
 25 26  1  0
 26 27  2  0
  6 28  2  0
 28 29  1  0
 29  3  2  0
 26  7  1  0
 19 14  2  0
 24 20  1  0
  1 30  1  0
  1 31  1  0
  1 32  1  0
  2 33  1  0
  2 34  1  0
  4 35  1  0
  5 36  1  0
  8 37  1  0
  8 38  1  0
  9 39  1  0
 12 40  1  0
 13 41  1  0
 13 42  1  0
 15 43  1  0
 16 44  1  0
 17 45  1  0
 21 46  1  0
 22 47  1  0
 24 48  1  0
 25 49  1  0
 25 50  1  0
 28 51  1  0
 29 52  1  0
M  END
$$$$
OCNT-2310514
     RDKit          3D

 51 53  0  0  0  0  0  0  0  0999 V2000
    0.1875    1.4109    0.4518 O   0  0  0  0  0  0  0  0  0  0  0  0
   -0.0881    0.2607    0.1386 C   0  0  0  0  0  0  0  0  0  0  0  0
   -1.1199   -0.4653    0.6713 N   0  0  0  0  0  0  0  0  0  0  0  0
   -2.0571    0.1343    1.5917 C   0  0  0  0  0  0  0  0  0  0  0  0
   -3.2959    0.6137    0.8754 C   0  0  0  0  0  0  0  0  0  0  0  0
   -3.2910    1.8476    0.2150 C   0  0  0  0  0  0  0  0  0  0  0  0
   -4.4238    2.2864   -0.4655 C   0  0  0  0  0  0  0  0  0  0  0  0
   -5.5754    1.4964   -0.5004 C   0  0  0  0  0  0  0  0  0  0  0  0
   -5.6016    0.2522    0.1463 C   0  0  0  0  0  0  0  0  0  0  0  0
   -6.7736   -0.5599    0.1088 N   0  0  0  0  0  0  0  0  0  0  0  0
   -6.9596   -1.7951    0.6959 C   0  0  0  0  0  0  0  0  0  0  0  0
   -8.2416   -2.1820    0.3847 C   0  0  0  0  0  0  0  0  0  0  0  0
   -8.8617   -1.2349   -0.3744 N   0  0  0  0  0  0  0  0  0  0  0  0
   -7.9684   -0.2809   -0.5235 C   0  0  0  0  0  0  0  0  0  0  0  0
   -4.4537   -0.1828    0.8300 C   0  0  0  0  0  0  0  0  0  0  0  0
    0.5963   -0.4741   -0.7973 N   0  0  0  0  0  0  0  0  0  0  0  0
    1.8102    0.0487   -1.3951 C   0  0  0  0  0  0  0  0  0  0  0  0
    3.0457   -0.2178   -0.5126 C   0  0  0  0  0  0  0  0  0  0  0  0
    3.4461   -1.7022   -0.5610 C   0  0  0  0  0  0  0  0  0  0  0  0
    2.3493   -2.5399   -0.1944 O   0  0  0  0  0  0  0  0  0  0  0  0
    4.2036    0.6942   -0.9663 C   0  0  0  0  0  0  0  0  0  0  0  0
    5.3895    0.6908   -0.0255 C   0  0  0  0  0  0  0  0  0  0  0  0
    5.2721    1.3844    1.1934 C   0  0  0  0  0  0  0  0  0  0  0  0
    6.3269    1.4178    2.1069 C   0  0  0  0  0  0  0  0  0  0  0  0
    7.5179    0.7585    1.8195 C   0  0  0  0  0  0  0  0  0  0  0  0
    7.6526    0.0642    0.6181 C   0  0  0  0  0  0  0  0  0  0  0  0
    6.5971    0.0280   -0.2998 C   0  0  0  0  0  0  0  0  0  0  0  0
    6.8435   -0.8717   -1.7544 Cl  0  0  0  0  0  0  0  0  0  0  0  0
   -1.4689   -1.2004    0.0756 H   0  0  0  0  0  0  0  0  0  0  0  0
   -2.3197   -0.6333    2.3282 H   0  0  0  0  0  0  0  0  0  0  0  0
   -1.5909    0.9607    2.1403 H   0  0  0  0  0  0  0  0  0  0  0  0
   -2.3958    2.4689    0.2247 H   0  0  0  0  0  0  0  0  0  0  0  0
   -4.4072    3.2475   -0.9744 H   0  0  0  0  0  0  0  0  0  0  0  0
   -6.4276    1.8897   -1.0457 H   0  0  0  0  0  0  0  0  0  0  0  0
   -6.2020   -2.2985    1.2748 H   0  0  0  0  0  0  0  0  0  0  0  0
   -8.7469   -3.0955    0.6710 H   0  0  0  0  0  0  0  0  0  0  0  0
   -8.1464    0.6266   -1.0819 H   0  0  0  0  0  0  0  0  0  0  0  0
   -4.4277   -1.1412    1.3399 H   0  0  0  0  0  0  0  0  0  0  0  0
    0.6549   -1.4636   -0.5754 H   0  0  0  0  0  0  0  0  0  0  0  0
    1.9221   -0.4303   -2.3740 H   0  0  0  0  0  0  0  0  0  0  0  0
    1.6741    1.1233   -1.5618 H   0  0  0  0  0  0  0  0  0  0  0  0
    2.7783    0.0235    0.5251 H   0  0  0  0  0  0  0  0  0  0  0  0
    4.2633   -1.9062    0.1377 H   0  0  0  0  0  0  0  0  0  0  0  0
    3.7659   -1.9899   -1.5680 H   0  0  0  0  0  0  0  0  0  0  0  0
    2.7079   -3.4431   -0.1203 H   0  0  0  0  0  0  0  0  0  0  0  0
    3.8470    1.7320   -1.0292 H   0  0  0  0  0  0  0  0  0  0  0  0
    4.5013    0.4434   -1.9903 H   0  0  0  0  0  0  0  0  0  0  0  0
    4.3482    1.9081    1.4376 H   0  0  0  0  0  0  0  0  0  0  0  0
    6.2162    1.9608    3.0427 H   0  0  0  0  0  0  0  0  0  0  0  0
    8.3407    0.7847    2.5293 H   0  0  0  0  0  0  0  0  0  0  0  0
    8.5861   -0.4496    0.4019 H   0  0  0  0  0  0  0  0  0  0  0  0
  1  2  2  0
  2  3  1  0
  3  4  1  0
  4  5  1  0
  5  6  2  0
  6  7  1  0
  7  8  2  0
  8  9  1  0
  9 10  1  0
 10 11  1  0
 11 12  2  0
 12 13  1  0
 13 14  2  0
  9 15  2  0
  2 16  1  0
 16 17  1  0
 17 18  1  0
 18 19  1  0
 19 20  1  0
 18 21  1  0
 21 22  1  0
 22 23  2  0
 23 24  1  0
 24 25  2  0
 25 26  1  0
 26 27  2  0
 27 28  1  0
 15  5  1  0
 27 22  1  0
 14 10  1  0
  3 29  1  0
  4 30  1  0
  4 31  1  0
  6 32  1  0
  7 33  1  0
  8 34  1  0
 11 35  1  0
 12 36  1  0
 14 37  1  0
 15 38  1  0
 16 39  1  0
 17 40  1  0
 17 41  1  0
 18 42  1  0
 19 43  1  0
 19 44  1  0
 20 45  1  0
 21 46  1  0
 21 47  1  0
 23 48  1  0
 24 49  1  0
 25 50  1  0
 26 51  1  0
M  END
$$$$
OCNT-2310518
     RDKit          3D

 52 54  0  0  0  0  0  0  0  0999 V2000
   -3.4710    1.2014   -1.3571 C   0  0  0  0  0  0  0  0  0  0  0  0
   -4.0778    0.4839   -0.1295 C   0  0  0  0  0  0  0  0  0  0  0  0
   -4.1222    1.5235    1.0170 C   0  0  0  0  0  0  0  0  0  0  0  0
   -3.1949   -0.7234    0.3172 C   0  0  0  0  0  0  0  0  0  0  0  0
   -1.8448   -0.3754    0.7316 N   0  0  0  0  0  0  0  0  0  0  0  0
   -0.7787   -0.4211   -0.1417 C   0  0  0  0  0  0  0  0  0  0  0  0
   -0.8736   -0.7585   -1.3157 O   0  0  0  0  0  0  0  0  0  0  0  0
    0.5376    0.0066    0.4040 C   0  0  0  0  0  0  0  0  0  0  0  0
    0.8868   -0.2061    1.7454 C   0  0  0  0  0  0  0  0  0  0  0  0
    2.1373    0.2043    2.2151 C   0  0  0  0  0  0  0  0  0  0  0  0
    3.0398    0.8133    1.3367 C   0  0  0  0  0  0  0  0  0  0  0  0
    4.6212    1.3505    1.9429 S   0  0  0  0  0  0  0  0  0  0  0  0
    5.1892    2.2901    1.0014 O   0  0  0  0  0  0  0  0  0  0  0  0
    4.4438    1.7104    3.3349 O   0  0  0  0  0  0  0  0  0  0  0  0
    5.5233   -0.0791    1.9429 N   0  0  0  0  0  0  0  0  0  0  0  0
    6.0585   -0.5265    0.7043 C   0  0  0  0  0  0  0  0  0  0  0  0
    7.2868   -0.0417    0.2564 C   0  0  0  0  0  0  0  0  0  0  0  0
    7.7879   -0.4595   -0.9772 C   0  0  0  0  0  0  0  0  0  0  0  0
    7.0592   -1.3556   -1.7598 C   0  0  0  0  0  0  0  0  0  0  0  0
    5.8277   -1.8335   -1.3117 C   0  0  0  0  0  0  0  0  0  0  0  0
    5.3246   -1.4164   -0.0788 C   0  0  0  0  0  0  0  0  0  0  0  0
    2.6999    1.0311   -0.0015 C   0  0  0  0  0  0  0  0  0  0  0  0
    1.4514    0.6153   -0.4682 C   0  0  0  0  0  0  0  0  0  0  0  0
   -5.4743   -0.0607   -0.4981 C   0  0  0  0  0  0  0  0  0  0  0  0
   -6.6294    0.2341    0.2385 C   0  0  0  0  0  0  0  0  0  0  0  0
   -7.8478   -0.3070   -0.1548 C   0  0  0  0  0  0  0  0  0  0  0  0
   -8.0053   -1.1197   -1.2178 N   0  0  0  0  0  0  0  0  0  0  0  0
   -6.8925   -1.4022   -1.9218 C   0  0  0  0  0  0  0  0  0  0  0  0
   -5.6333   -0.9096   -1.6071 C   0  0  0  0  0  0  0  0  0  0  0  0
   -4.1524    1.9716   -1.7384 H   0  0  0  0  0  0  0  0  0  0  0  0
   -3.2636    0.5105   -2.1810 H   0  0  0  0  0  0  0  0  0  0  0  0
   -2.5271    1.6989   -1.1077 H   0  0  0  0  0  0  0  0  0  0  0  0
   -4.7831    2.3632    0.7713 H   0  0  0  0  0  0  0  0  0  0  0  0
   -4.4738    1.0763    1.9540 H   0  0  0  0  0  0  0  0  0  0  0  0
   -3.1313    1.9484    1.2148 H   0  0  0  0  0  0  0  0  0  0  0  0
   -3.6563   -1.2222    1.1789 H   0  0  0  0  0  0  0  0  0  0  0  0
   -3.1247   -1.4724   -0.4805 H   0  0  0  0  0  0  0  0  0  0  0  0
   -1.7252    0.0443    1.6433 H   0  0  0  0  0  0  0  0  0  0  0  0
    0.2096   -0.7122    2.4280 H   0  0  0  0  0  0  0  0  0  0  0  0
    2.4057    0.0397    3.2569 H   0  0  0  0  0  0  0  0  0  0  0  0
    6.1406   -0.1134    2.7536 H   0  0  0  0  0  0  0  0  0  0  0  0
    7.8509    0.6736    0.8485 H   0  0  0  0  0  0  0  0  0  0  0  0
    8.7423   -0.0788   -1.3326 H   0  0  0  0  0  0  0  0  0  0  0  0
    7.4493   -1.6777   -2.7224 H   0  0  0  0  0  0  0  0  0  0  0  0
    5.2588   -2.5293   -1.9235 H   0  0  0  0  0  0  0  0  0  0  0  0
    4.3671   -1.7976    0.2647 H   0  0  0  0  0  0  0  0  0  0  0  0
    3.3994    1.5095   -0.6846 H   0  0  0  0  0  0  0  0  0  0  0  0
    1.1877    0.7705   -1.5134 H   0  0  0  0  0  0  0  0  0  0  0  0
   -6.6172    0.8744    1.1128 H   0  0  0  0  0  0  0  0  0  0  0  0
   -8.7573   -0.0906    0.3988 H   0  0  0  0  0  0  0  0  0  0  0  0
   -7.0371   -2.0582   -2.7755 H   0  0  0  0  0  0  0  0  0  0  0  0
   -4.7916   -1.1970   -2.2305 H   0  0  0  0  0  0  0  0  0  0  0  0
  1  2  1  0
  2  3  1  0
  2  4  1  0
  4  5  1  0
  5  6  1  0
  6  7  2  0
  6  8  1  0
  8  9  1  0
  9 10  2  0
 10 11  1  0
 11 12  1  0
 12 13  2  0
 12 14  2  0
 12 15  1  0
 15 16  1  0
 16 17  2  0
 17 18  1  0
 18 19  2  0
 19 20  1  0
 20 21  2  0
 11 22  2  0
 22 23  1  0
  2 24  1  0
 24 25  2  0
 25 26  1  0
 26 27  2  0
 27 28  1  0
 28 29  2  0
 23  8  2  0
 29 24  1  0
 21 16  1  0
  1 30  1  0
  1 31  1  0
  1 32  1  0
  3 33  1  0
  3 34  1  0
  3 35  1  0
  4 36  1  0
  4 37  1  0
  5 38  1  0
  9 39  1  0
 10 40  1  0
 15 41  1  0
 17 42  1  0
 18 43  1  0
 19 44  1  0
 20 45  1  0
 21 46  1  0
 22 47  1  0
 23 48  1  0
 25 49  1  0
 26 50  1  0
 28 51  1  0
 29 52  1  0
M  END
$$$$
OCNT-2310539
     RDKit          3D

 43 45  0  0  0  0  0  0  0  0999 V2000
    5.9152    0.3068   -2.1603 C   0  0  0  0  0  0  0  0  0  0  0  0
    4.7106    0.4021   -1.2666 C   0  0  0  0  0  0  0  0  0  0  0  0
    4.1692    1.6743   -0.9497 C   0  0  0  0  0  0  0  0  0  0  0  0
    3.0293    1.7997   -0.1473 C   0  0  0  0  0  0  0  0  0  0  0  0
    2.4556    0.6329    0.3163 C   0  0  0  0  0  0  0  0  0  0  0  0
    1.2652    0.4201    1.1346 C   0  0  0  0  0  0  0  0  0  0  0  0
    0.5088    1.2979    1.5031 O   0  0  0  0  0  0  0  0  0  0  0  0
    1.1412   -0.9284    1.3065 N   0  0  0  0  0  0  0  0  0  0  0  0
    0.0629   -1.5638    2.0407 C   0  0  0  0  0  0  0  0  0  0  0  0
   -1.1987   -1.7341    1.1875 C   0  0  0  0  0  0  0  0  0  0  0  0
   -1.9087   -2.7312    1.2920 O   0  0  0  0  0  0  0  0  0  0  0  0
   -1.5332   -0.6332    0.4181 N   0  0  0  0  0  0  0  0  0  0  0  0
   -2.7732   -0.5139   -0.3814 C   0  0  0  0  0  0  0  0  0  0  0  0
   -2.8786   -1.6854   -1.3780 C   0  0  0  0  0  0  0  0  0  0  0  0
   -4.0369   -0.4779    0.5218 C   0  0  0  0  0  0  0  0  0  0  0  0
   -4.2379    0.8368    1.2279 C   0  0  0  0  0  0  0  0  0  0  0  0
   -3.6383    1.9729    0.8471 C   0  0  0  0  0  0  0  0  0  0  0  0
   -2.7228    2.0658   -0.3366 C   0  0  0  0  0  0  0  0  0  0  0  0
   -2.7052    0.8002   -1.2036 C   0  0  0  0  0  0  0  0  0  0  0  0
    2.1045   -1.6160    0.6226 C   0  0  0  0  0  0  0  0  0  0  0  0
    2.2598   -2.8156    0.5051 O   0  0  0  0  0  0  0  0  0  0  0  0
    2.9669   -0.6122   -0.0001 C   0  0  0  0  0  0  0  0  0  0  0  0
    4.0893   -0.7644   -0.7918 C   0  0  0  0  0  0  0  0  0  0  0  0
    6.4347   -0.6475   -2.0220 H   0  0  0  0  0  0  0  0  0  0  0  0
    5.6106    0.3925   -3.2081 H   0  0  0  0  0  0  0  0  0  0  0  0
    6.6298    1.1037   -1.9287 H   0  0  0  0  0  0  0  0  0  0  0  0
    4.6434    2.5748   -1.3393 H   0  0  0  0  0  0  0  0  0  0  0  0
    2.6096    2.7706    0.0947 H   0  0  0  0  0  0  0  0  0  0  0  0
    0.3931   -2.5540    2.3709 H   0  0  0  0  0  0  0  0  0  0  0  0
   -0.1950   -0.9510    2.9105 H   0  0  0  0  0  0  0  0  0  0  0  0
   -1.1528    0.2449    0.7632 H   0  0  0  0  0  0  0  0  0  0  0  0
   -3.7167   -1.5425   -2.0696 H   0  0  0  0  0  0  0  0  0  0  0  0
   -3.0428   -2.6428   -0.8739 H   0  0  0  0  0  0  0  0  0  0  0  0
   -1.9635   -1.7775   -1.9744 H   0  0  0  0  0  0  0  0  0  0  0  0
   -4.9349   -0.6625   -0.0815 H   0  0  0  0  0  0  0  0  0  0  0  0
   -3.9969   -1.2735    1.2745 H   0  0  0  0  0  0  0  0  0  0  0  0
   -4.9088    0.8411    2.0847 H   0  0  0  0  0  0  0  0  0  0  0  0
   -3.8148    2.8868    1.4110 H   0  0  0  0  0  0  0  0  0  0  0  0
   -1.7106    2.2856    0.0226 H   0  0  0  0  0  0  0  0  0  0  0  0
   -3.0232    2.9178   -0.9595 H   0  0  0  0  0  0  0  0  0  0  0  0
   -1.8055    0.8148   -1.8337 H   0  0  0  0  0  0  0  0  0  0  0  0
   -3.5643    0.8421   -1.8880 H   0  0  0  0  0  0  0  0  0  0  0  0
    4.4638   -1.7569   -1.0337 H   0  0  0  0  0  0  0  0  0  0  0  0
  1  2  1  0
  2  3  1  0
  3  4  2  0
  4  5  1  0
  5  6  1  0
  6  7  2  0
  6  8  1  0
  8  9  1  0
  9 10  1  0
 10 11  2  0
 10 12  1  0
 12 13  1  0
 13 14  1  0
 13 15  1  0
 15 16  1  0
 16 17  2  0
 17 18  1  0
 18 19  1  0
  8 20  1  0
 20 21  2  0
 20 22  1  0
 22 23  1  0
 23  2  2  0
 22  5  2  0
 19 13  1  0
  1 24  1  0
  1 25  1  0
  1 26  1  0
  3 27  1  0
  4 28  1  0
  9 29  1  0
  9 30  1  0
 12 31  1  0
 14 32  1  0
 14 33  1  0
 14 34  1  0
 15 35  1  0
 15 36  1  0
 16 37  1  0
 17 38  1  0
 18 39  1  0
 18 40  1  0
 19 41  1  0
 19 42  1  0
 23 43  1  0
M  END
$$$$
OCNT-2310555
     RDKit          3D

 46 49  0  0  0  0  0  0  0  0999 V2000
    1.5632    2.0106    2.0790 C   0  0  0  0  0  0  0  0  0  0  0  0
    2.2641    1.3003    1.0236 N   0  0  0  0  0  0  0  0  0  0  0  0
    1.8040    0.0420    0.7346 N   0  0  0  0  0  0  0  0  0  0  0  0
    2.3729   -0.6549   -0.2033 C   0  0  0  0  0  0  0  0  0  0  0  0
    1.8684   -2.0563   -0.5075 C   0  0  0  0  0  0  0  0  0  0  0  0
    0.6362   -2.6166    0.1709 C   0  0  0  0  0  0  0  0  0  0  0  0
    0.2688   -3.7667   -0.0757 O   0  0  0  0  0  0  0  0  0  0  0  0
   -0.0433   -1.8024    1.0328 N   0  0  0  0  0  0  0  0  0  0  0  0
   -1.2884   -2.1769    1.6532 C   0  0  0  0  0  0  0  0  0  0  0  0
   -2.4571   -1.7344    0.8136 C   0  0  0  0  0  0  0  0  0  0  0  0
   -3.0046   -2.5948   -0.1405 C   0  0  0  0  0  0  0  0  0  0  0  0
   -4.0657   -2.1472   -0.9081 C   0  0  0  0  0  0  0  0  0  0  0  0
   -4.6024   -0.9140   -0.7958 N   0  0  0  0  0  0  0  0  0  0  0  0
   -4.0565   -0.0720    0.1222 C   0  0  0  0  0  0  0  0  0  0  0  0
   -4.6243    1.2286    0.2248 N   0  0  0  0  0  0  0  0  0  0  0  0
   -4.2706    2.2702    1.0555 C   0  0  0  0  0  0  0  0  0  0  0  0
   -5.1374    3.2979    0.7571 C   0  0  0  0  0  0  0  0  0  0  0  0
   -6.0098    2.9318   -0.2279 N   0  0  0  0  0  0  0  0  0  0  0  0
   -5.6813    1.6931   -0.5282 C   0  0  0  0  0  0  0  0  0  0  0  0
   -2.9874   -0.4428    0.9385 C   0  0  0  0  0  0  0  0  0  0  0  0
    3.5150   -0.1368   -0.9969 C   0  0  0  0  0  0  0  0  0  0  0  0
    4.1627   -0.8860   -1.9887 C   0  0  0  0  0  0  0  0  0  0  0  0
    5.2213   -0.3276   -2.7113 C   0  0  0  0  0  0  0  0  0  0  0  0
    5.6384    0.9749   -2.4491 C   0  0  0  0  0  0  0  0  0  0  0  0
    5.0016    1.7204   -1.4582 C   0  0  0  0  0  0  0  0  0  0  0  0
    3.9420    1.1610   -0.7316 C   0  0  0  0  0  0  0  0  0  0  0  0
    3.2838    1.9422    0.3302 C   0  0  0  0  0  0  0  0  0  0  0  0
    3.6583    3.0886    0.5594 O   0  0  0  0  0  0  0  0  0  0  0  0
    1.2712    1.3050    2.8629 H   0  0  0  0  0  0  0  0  0  0  0  0
    2.1960    2.7884    2.5182 H   0  0  0  0  0  0  0  0  0  0  0  0
    0.6713    2.4771    1.6490 H   0  0  0  0  0  0  0  0  0  0  0  0
    2.6863   -2.7526   -0.2822 H   0  0  0  0  0  0  0  0  0  0  0  0
    1.6537   -2.1028   -1.5821 H   0  0  0  0  0  0  0  0  0  0  0  0
    0.3004   -0.8517    1.1553 H   0  0  0  0  0  0  0  0  0  0  0  0
   -1.3201   -3.2596    1.8184 H   0  0  0  0  0  0  0  0  0  0  0  0
   -1.3265   -1.6969    2.6373 H   0  0  0  0  0  0  0  0  0  0  0  0
   -2.6073   -3.5948   -0.2884 H   0  0  0  0  0  0  0  0  0  0  0  0
   -4.5236   -2.7889   -1.6551 H   0  0  0  0  0  0  0  0  0  0  0  0
   -3.4647    2.2150    1.7702 H   0  0  0  0  0  0  0  0  0  0  0  0
   -5.1757    4.2843    1.2012 H   0  0  0  0  0  0  0  0  0  0  0  0
   -6.1655    1.0795   -1.2764 H   0  0  0  0  0  0  0  0  0  0  0  0
   -2.5531    0.2358    1.6664 H   0  0  0  0  0  0  0  0  0  0  0  0
    3.8708   -1.9046   -2.2225 H   0  0  0  0  0  0  0  0  0  0  0  0
    5.7213   -0.9096   -3.4822 H   0  0  0  0  0  0  0  0  0  0  0  0
    6.4607    1.4092   -3.0126 H   0  0  0  0  0  0  0  0  0  0  0  0
    5.3330    2.7351   -1.2499 H   0  0  0  0  0  0  0  0  0  0  0  0
  1  2  1  0
  2  3  1  0
  3  4  2  0
  4  5  1  0
  5  6  1  0
  6  7  2  0
  6  8  1  0
  8  9  1  0
  9 10  1  0
 10 11  2  0
 11 12  1  0
 12 13  2  0
 13 14  1  0
 14 15  1  0
 15 16  1  0
 16 17  2  0
 17 18  1  0
 18 19  2  0
 14 20  2  0
  4 21  1  0
 21 22  2  0
 22 23  1  0
 23 24  2  0
 24 25  1  0
 25 26  2  0
 26 27  1  0
 27 28  2  0
 27  2  1  0
 20 10  1  0
 26 21  1  0
 19 15  1  0
  1 29  1  0
  1 30  1  0
  1 31  1  0
  5 32  1  0
  5 33  1  0
  8 34  1  0
  9 35  1  0
  9 36  1  0
 11 37  1  0
 12 38  1  0
 16 39  1  0
 17 40  1  0
 19 41  1  0
 20 42  1  0
 22 43  1  0
 23 44  1  0
 24 45  1  0
 25 46  1  0
M  END
$$$$
OCNT-2310560
     RDKit          3D

 46 48  0  0  0  0  0  0  0  0999 V2000
   -2.0356    0.9200    1.4272 C   0  0  0  0  0  0  0  0  0  0  0  0
   -2.3110   -0.4866    0.8625 C   0  0  0  0  0  0  0  0  0  0  0  0
   -2.9714   -0.3594   -0.5528 C   0  0  0  0  0  0  0  0  0  0  0  0
   -2.0378   -0.2161   -1.7687 C   0  0  0  0  0  0  0  0  0  0  0  0
   -1.1816    1.0390   -1.8200 C   0  0  0  0  0  0  0  0  0  0  0  0
   -1.9864    2.2055   -1.7023 O   0  0  0  0  0  0  0  0  0  0  0  0
   -3.3057   -1.1913    1.8162 C   0  0  0  0  0  0  0  0  0  0  0  0
   -3.0326   -2.6821    1.6751 C   0  0  0  0  0  0  0  0  0  0  0  0
   -1.7966   -2.7825    0.7995 C   0  0  0  0  0  0  0  0  0  0  0  0
   -1.1777   -1.4467    0.7984 N   0  0  0  0  0  0  0  0  0  0  0  0
   -0.1644   -1.3414    1.8621 C   0  0  0  0  0  0  0  0  0  0  0  0
    0.8971   -0.3544    1.4939 C   0  0  0  0  0  0  0  0  0  0  0  0
    1.3261    0.7537    2.1892 C   0  0  0  0  0  0  0  0  0  0  0  0
    2.3253    1.3464    1.4809 O   0  0  0  0  0  0  0  0  0  0  0  0
    2.4690    0.5537    0.3725 C   0  0  0  0  0  0  0  0  0  0  0  0
    3.4781    0.9551   -0.6030 C   0  0  0  0  0  0  0  0  0  0  0  0
    3.6658    0.1792   -1.7624 C   0  0  0  0  0  0  0  0  0  0  0  0
    4.6218    0.5349   -2.7187 C   0  0  0  0  0  0  0  0  0  0  0  0
    5.3957    1.6710   -2.5192 C   0  0  0  0  0  0  0  0  0  0  0  0
    6.3124    2.0120   -3.4350 F   0  0  0  0  0  0  0  0  0  0  0  0
    5.2208    2.4466   -1.3800 C   0  0  0  0  0  0  0  0  0  0  0  0
    5.9695    3.5420   -1.1907 F   0  0  0  0  0  0  0  0  0  0  0  0
    4.2704    2.0986   -0.4233 C   0  0  0  0  0  0  0  0  0  0  0  0
    1.6575   -0.4850    0.3460 N   0  0  0  0  0  0  0  0  0  0  0  0
   -1.2675    1.4591    0.8727 H   0  0  0  0  0  0  0  0  0  0  0  0
   -2.9454    1.5317    1.3984 H   0  0  0  0  0  0  0  0  0  0  0  0
   -1.7209    0.8891    2.4759 H   0  0  0  0  0  0  0  0  0  0  0  0
   -3.6847    0.4756   -0.5484 H   0  0  0  0  0  0  0  0  0  0  0  0
   -3.5878   -1.2485   -0.7468 H   0  0  0  0  0  0  0  0  0  0  0  0
   -2.6815   -0.2182   -2.6585 H   0  0  0  0  0  0  0  0  0  0  0  0
   -1.3928   -1.0971   -1.8602 H   0  0  0  0  0  0  0  0  0  0  0  0
   -0.6472    1.0908   -2.7747 H   0  0  0  0  0  0  0  0  0  0  0  0
   -0.4256    1.0480   -1.0336 H   0  0  0  0  0  0  0  0  0  0  0  0
   -2.6027    2.2050   -2.4542 H   0  0  0  0  0  0  0  0  0  0  0  0
   -4.3504   -0.9533    1.5865 H   0  0  0  0  0  0  0  0  0  0  0  0
   -3.1332   -0.9045    2.8615 H   0  0  0  0  0  0  0  0  0  0  0  0
   -3.8817   -3.2022    1.2196 H   0  0  0  0  0  0  0  0  0  0  0  0
   -2.8545   -3.1253    2.6612 H   0  0  0  0  0  0  0  0  0  0  0  0
   -2.0923   -3.0366   -0.2259 H   0  0  0  0  0  0  0  0  0  0  0  0
   -1.1282   -3.5894    1.1201 H   0  0  0  0  0  0  0  0  0  0  0  0
    0.3644   -2.2970    1.9793 H   0  0  0  0  0  0  0  0  0  0  0  0
   -0.6056   -1.1188    2.8404 H   0  0  0  0  0  0  0  0  0  0  0  0
    1.0467    1.2284    3.1177 H   0  0  0  0  0  0  0  0  0  0  0  0
    3.0589   -0.7124   -1.9213 H   0  0  0  0  0  0  0  0  0  0  0  0
    4.7639   -0.0660   -3.6114 H   0  0  0  0  0  0  0  0  0  0  0  0
    4.1595    2.7294    0.4544 H   0  0  0  0  0  0  0  0  0  0  0  0
  1  2  1  0
  2  3  1  0
  3  4  1  0
  4  5  1  0
  5  6  1  0
  2  7  1  0
  7  8  1  0
  8  9  1  0
  9 10  1  0
 10 11  1  0
 11 12  1  0
 12 13  2  0
 13 14  1  0
 14 15  1  0
 15 16  1  0
 16 17  1  0
 17 18  2  0
 18 19  1  0
 19 20  1  0
 19 21  2  0
 21 22  1  0
 21 23  1  0
 15 24  2  0
 10  2  1  0
 24 12  1  0
 23 16  2  0
  1 25  1  0
  1 26  1  0
  1 27  1  0
  3 28  1  0
  3 29  1  0
  4 30  1  0
  4 31  1  0
  5 32  1  0
  5 33  1  0
  6 34  1  0
  7 35  1  0
  7 36  1  0
  8 37  1  0
  8 38  1  0
  9 39  1  0
  9 40  1  0
 11 41  1  0
 11 42  1  0
 13 43  1  0
 17 44  1  0
 18 45  1  0
 23 46  1  0
M  END
$$$$
OCNT-2310562
     RDKit          3D

 55 58  0  0  0  0  0  0  0  0999 V2000
   -1.7241    0.7112   -2.4908 C   0  0  0  0  0  0  0  0  0  0  0  0
   -0.5683    1.3588   -1.7385 C   0  0  0  0  0  0  0  0  0  0  0  0
    0.2653    0.4491   -0.7906 C   0  0  0  0  0  0  0  0  0  0  0  0
   -0.5926    0.0762    0.4420 C   0  0  0  0  0  0  0  0  0  0  0  0
   -0.4988    0.6811    1.5085 O   0  0  0  0  0  0  0  0  0  0  0  0
   -1.4997   -0.9411    0.2625 N   0  0  0  0  0  0  0  0  0  0  0  0
   -2.4628   -1.2932    1.2834 C   0  0  0  0  0  0  0  0  0  0  0  0
   -3.8060   -0.6792    0.9728 C   0  0  0  0  0  0  0  0  0  0  0  0
   -4.0547    0.6634    1.3076 C   0  0  0  0  0  0  0  0  0  0  0  0
   -5.2734    1.2824    1.0078 C   0  0  0  0  0  0  0  0  0  0  0  0
   -6.2218    0.5003    0.3563 C   0  0  0  0  0  0  0  0  0  0  0  0
   -7.4629    0.9134   -0.0234 O   0  0  0  0  0  0  0  0  0  0  0  0
   -8.0656   -0.1458   -0.6237 C   0  0  0  0  0  0  0  0  0  0  0  0
   -7.2275   -1.2372   -0.6375 C   0  0  0  0  0  0  0  0  0  0  0  0
   -6.0253   -0.8278   -0.0022 C   0  0  0  0  0  0  0  0  0  0  0  0
   -4.7935   -1.4335    0.3068 C   0  0  0  0  0  0  0  0  0  0  0  0
    0.8220   -0.7908   -1.5243 C   0  0  0  0  0  0  0  0  0  0  0  0
    1.8140   -1.5786   -0.6706 C   0  0  0  0  0  0  0  0  0  0  0  0
    2.8969   -0.7377   -0.1786 N   0  0  0  0  0  0  0  0  0  0  0  0
    4.0806   -1.4043    0.1711 C   0  0  0  0  0  0  0  0  0  0  0  0
    4.2237   -2.6221    0.0825 O   0  0  0  0  0  0  0  0  0  0  0  0
    5.2385   -0.6088    0.6402 C   0  0  0  0  0  0  0  0  0  0  0  0
    5.7086    0.4762   -0.1090 C   0  0  0  0  0  0  0  0  0  0  0  0
    6.8193    1.1941    0.3357 C   0  0  0  0  0  0  0  0  0  0  0  0
    7.4658    0.8188    1.5149 C   0  0  0  0  0  0  0  0  0  0  0  0
    7.0112   -0.2793    2.2477 C   0  0  0  0  0  0  0  0  0  0  0  0
    5.9012   -1.0007    1.8073 C   0  0  0  0  0  0  0  0  0  0  0  0
    2.4726    0.4748    0.5244 C   0  0  0  0  0  0  0  0  0  0  0  0
    1.4833    1.2894   -0.3076 C   0  0  0  0  0  0  0  0  0  0  0  0
   -1.3992   -0.1524   -3.0768 H   0  0  0  0  0  0  0  0  0  0  0  0
   -2.1574    1.4354   -3.1894 H   0  0  0  0  0  0  0  0  0  0  0  0
   -2.5264    0.4033   -1.8166 H   0  0  0  0  0  0  0  0  0  0  0  0
   -0.9719    2.2039   -1.1649 H   0  0  0  0  0  0  0  0  0  0  0  0
    0.1017    1.7940   -2.4919 H   0  0  0  0  0  0  0  0  0  0  0  0
   -1.6874   -1.2844   -0.6674 H   0  0  0  0  0  0  0  0  0  0  0  0
   -2.1200   -0.9803    2.2758 H   0  0  0  0  0  0  0  0  0  0  0  0
   -2.5364   -2.3862    1.2959 H   0  0  0  0  0  0  0  0  0  0  0  0
   -3.2807    1.2456    1.8092 H   0  0  0  0  0  0  0  0  0  0  0  0
   -5.4720    2.3158    1.2637 H   0  0  0  0  0  0  0  0  0  0  0  0
   -9.0703    0.0321   -0.9812 H   0  0  0  0  0  0  0  0  0  0  0  0
   -7.4555   -2.2080   -1.0530 H   0  0  0  0  0  0  0  0  0  0  0  0
   -4.6145   -2.4693    0.0331 H   0  0  0  0  0  0  0  0  0  0  0  0
    1.3354   -0.4619   -2.4383 H   0  0  0  0  0  0  0  0  0  0  0  0
    0.0284   -1.4715   -1.8483 H   0  0  0  0  0  0  0  0  0  0  0  0
    1.3204   -2.0357    0.1953 H   0  0  0  0  0  0  0  0  0  0  0  0
    2.2267   -2.3954   -1.2743 H   0  0  0  0  0  0  0  0  0  0  0  0
    5.2174    0.7559   -1.0372 H   0  0  0  0  0  0  0  0  0  0  0  0
    7.1869    2.0399   -0.2397 H   0  0  0  0  0  0  0  0  0  0  0  0
    8.3340    1.3764    1.8582 H   0  0  0  0  0  0  0  0  0  0  0  0
    7.5266   -0.5781    3.1571 H   0  0  0  0  0  0  0  0  0  0  0  0
    5.5549   -1.8664    2.3669 H   0  0  0  0  0  0  0  0  0  0  0  0
    2.0346    0.1587    1.4781 H   0  0  0  0  0  0  0  0  0  0  0  0
    3.3251    1.1077    0.7788 H   0  0  0  0  0  0  0  0  0  0  0  0
    2.0193    1.6847   -1.1815 H   0  0  0  0  0  0  0  0  0  0  0  0
    1.1545    2.1600    0.2737 H   0  0  0  0  0  0  0  0  0  0  0  0
  1  2  1  0
  2  3  1  0
  3  4  1  0
  4  5  2  0
  4  6  1  0
  6  7  1  0
  7  8  1  0
  8  9  2  0
  9 10  1  0
 10 11  2  0
 11 12  1  0
 12 13  1  0
 13 14  2  0
 14 15  1  0
 15 16  2  0
  3 17  1  0
 17 18  1  0
 18 19  1  0
 19 20  1  0
 20 21  2  0
 20 22  1  0
 22 23  2  0
 23 24  1  0
 24 25  2  0
 25 26  1  0
 26 27  2  0
 19 28  1  0
 28 29  1  0
 29  3  1  0
 16  8  1  0
 27 22  1  0
 15 11  1  0
  1 30  1  0
  1 31  1  0
  1 32  1  0
  2 33  1  0
  2 34  1  0
  6 35  1  0
  7 36  1  0
  7 37  1  0
  9 38  1  0
 10 39  1  0
 13 40  1  0
 14 41  1  0
 16 42  1  0
 17 43  1  0
 17 44  1  0
 18 45  1  0
 18 46  1  0
 23 47  1  0
 24 48  1  0
 25 49  1  0
 26 50  1  0
 27 51  1  0
 28 52  1  0
 28 53  1  0
 29 54  1  0
 29 55  1  0
M  END
$$$$
OCNT-2310580
     RDKit          3D

 50 53  0  0  0  0  0  0  0  0999 V2000
   -7.7243    0.4097   -0.8397 O   0  0  0  0  0  0  0  0  0  0  0  0
   -6.6687    0.7280    0.0685 C   0  0  0  0  0  0  0  0  0  0  0  0
   -6.1690   -0.5550    0.7249 C   0  0  0  0  0  0  0  0  0  0  0  0
   -4.7547   -0.3880    1.2664 C   0  0  0  0  0  0  0  0  0  0  0  0
   -3.8295    0.0033    0.1966 N   0  0  0  0  0  0  0  0  0  0  0  0
   -2.5112   -0.4384    0.2379 C   0  0  0  0  0  0  0  0  0  0  0  0
   -1.7605   -0.6728   -0.9243 C   0  0  0  0  0  0  0  0  0  0  0  0
   -0.4298   -1.1116   -0.8755 C   0  0  0  0  0  0  0  0  0  0  0  0
    0.2041   -1.3273    0.3500 C   0  0  0  0  0  0  0  0  0  0  0  0
    1.6425   -1.7800    0.4105 C   0  0  0  0  0  0  0  0  0  0  0  0
    2.5705   -0.7241    0.8090 N   0  0  0  0  0  0  0  0  0  0  0  0
    2.7655    0.2732   -0.2375 C   0  0  0  0  0  0  0  0  0  0  0  0
    3.7880    1.2449    0.2401 C   0  0  0  0  0  0  0  0  0  0  0  0
    3.5212    2.4604    0.8451 C   0  0  0  0  0  0  0  0  0  0  0  0
    4.7236    3.0353    1.1068 N   0  0  0  0  0  0  0  0  0  0  0  0
    5.7661    2.2980    0.7127 N   0  0  0  0  0  0  0  0  0  0  0  0
    5.2140    1.1882    0.1930 C   0  0  0  0  0  0  0  0  0  0  0  0
    6.1551    0.0437   -0.3662 C   0  0  0  0  0  0  0  0  0  0  0  0
    7.5336    0.1438   -0.3488 C   0  0  0  0  0  0  0  0  0  0  0  0
    8.1735   -1.0042   -0.9005 C   0  0  0  0  0  0  0  0  0  0  0  0
    7.2602   -1.9447   -1.3195 C   0  0  0  0  0  0  0  0  0  0  0  0
    5.6509   -1.4366   -1.0455 S   0  0  0  0  0  0  0  0  0  0  0  0
   -0.5215   -1.0927    1.5203 C   0  0  0  0  0  0  0  0  0  0  0  0
   -1.8518   -0.6567    1.4588 C   0  0  0  0  0  0  0  0  0  0  0  0
   -4.3963    0.5777   -1.0291 C   0  0  0  0  0  0  0  0  0  0  0  0
   -5.5754    1.4833   -0.6838 C   0  0  0  0  0  0  0  0  0  0  0  0
   -8.4237   -0.0388   -0.3335 H   0  0  0  0  0  0  0  0  0  0  0  0
   -7.0958    1.3962    0.8256 H   0  0  0  0  0  0  0  0  0  0  0  0
   -6.1962   -1.3823    0.0029 H   0  0  0  0  0  0  0  0  0  0  0  0
   -6.8531   -0.8452    1.5314 H   0  0  0  0  0  0  0  0  0  0  0  0
   -4.7404    0.3740    2.0549 H   0  0  0  0  0  0  0  0  0  0  0  0
   -4.4612   -1.3440    1.7176 H   0  0  0  0  0  0  0  0  0  0  0  0
   -2.2057   -0.5410   -1.9063 H   0  0  0  0  0  0  0  0  0  0  0  0
    0.1027   -1.2827   -1.8083 H   0  0  0  0  0  0  0  0  0  0  0  0
    1.7125   -2.5939    1.1431 H   0  0  0  0  0  0  0  0  0  0  0  0
    1.9513   -2.2267   -0.5431 H   0  0  0  0  0  0  0  0  0  0  0  0
    2.2217   -0.2623    1.6460 H   0  0  0  0  0  0  0  0  0  0  0  0
    1.8320    0.8126   -0.4394 H   0  0  0  0  0  0  0  0  0  0  0  0
    3.0772   -0.1797   -1.1831 H   0  0  0  0  0  0  0  0  0  0  0  0
    2.5922    2.9492    1.1017 H   0  0  0  0  0  0  0  0  0  0  0  0
    4.9088    3.9305    1.5468 H   0  0  0  0  0  0  0  0  0  0  0  0
    8.0573    1.0069    0.0454 H   0  0  0  0  0  0  0  0  0  0  0  0
    9.2457   -1.1310   -0.9821 H   0  0  0  0  0  0  0  0  0  0  0  0
    7.4580   -2.9065   -1.7717 H   0  0  0  0  0  0  0  0  0  0  0  0
   -0.0583   -1.2431    2.4928 H   0  0  0  0  0  0  0  0  0  0  0  0
   -2.3620   -0.4641    2.3987 H   0  0  0  0  0  0  0  0  0  0  0  0
   -4.7097   -0.2207   -1.7126 H   0  0  0  0  0  0  0  0  0  0  0  0
   -3.6531    1.1954   -1.5480 H   0  0  0  0  0  0  0  0  0  0  0  0
   -5.2063    2.2960   -0.0442 H   0  0  0  0  0  0  0  0  0  0  0  0
   -5.9700    1.9440   -1.5967 H   0  0  0  0  0  0  0  0  0  0  0  0
  1  2  1  0
  2  3  1  0
  3  4  1  0
  4  5  1  0
  5  6  1  0
  6  7  1  0
  7  8  2  0
  8  9  1  0
  9 10  1  0
 10 11  1  0
 11 12  1  0
 12 13  1  0
 13 14  2  0
 14 15  1  0
 15 16  1  0
 16 17  2  0
 17 18  1  0
 18 19  2  0
 19 20  1  0
 20 21  2  0
 21 22  1  0
  9 23  2  0
 23 24  1  0
  5 25  1  0
 25 26  1  0
 26  2  1  0
 24  6  2  0
 17 13  1  0
 22 18  1  0
  1 27  1  0
  2 28  1  0
  3 29  1  0
  3 30  1  0
  4 31  1  0
  4 32  1  0
  7 33  1  0
  8 34  1  0
 10 35  1  0
 10 36  1  0
 11 37  1  0
 12 38  1  0
 12 39  1  0
 14 40  1  0
 15 41  1  0
 19 42  1  0
 20 43  1  0
 21 44  1  0
 23 45  1  0
 24 46  1  0
 25 47  1  0
 25 48  1  0
 26 49  1  0
 26 50  1  0
M  END
$$$$
OCNT-2310581
     RDKit          3D

 39 41  0  0  0  0  0  0  0  0999 V2000
    4.6042   -2.0004   -1.8691 C   0  0  0  0  0  0  0  0  0  0  0  0
    4.2422   -1.3075   -0.6173 C   0  0  0  0  0  0  0  0  0  0  0  0
    4.6881   -1.4018    0.6811 C   0  0  0  0  0  0  0  0  0  0  0  0
    3.9398   -0.4597    1.4415 C   0  0  0  0  0  0  0  0  0  0  0  0
    4.0567   -0.1904    2.8963 C   0  0  0  0  0  0  0  0  0  0  0  0
    3.0765    0.1559    0.5457 C   0  0  0  0  0  0  0  0  0  0  0  0
    2.0744    1.1897    0.7284 C   0  0  0  0  0  0  0  0  0  0  0  0
    1.8159    1.7109    1.8103 O   0  0  0  0  0  0  0  0  0  0  0  0
    1.4192    1.5363   -0.4333 N   0  0  0  0  0  0  0  0  0  0  0  0
    0.2977    2.4383   -0.4529 C   0  0  0  0  0  0  0  0  0  0  0  0
   -1.0022    1.6772   -0.4370 C   0  0  0  0  0  0  0  0  0  0  0  0
   -1.6691    1.3636   -1.6254 C   0  0  0  0  0  0  0  0  0  0  0  0
   -2.8653    0.6335   -1.6047 C   0  0  0  0  0  0  0  0  0  0  0  0
   -3.4185    0.1931   -0.3899 C   0  0  0  0  0  0  0  0  0  0  0  0
   -4.6364   -0.5496   -0.3817 N   0  0  0  0  0  0  0  0  0  0  0  0
   -5.3217   -1.0613    0.7003 C   0  0  0  0  0  0  0  0  0  0  0  0
   -6.4331   -1.6947    0.1977 C   0  0  0  0  0  0  0  0  0  0  0  0
   -6.4702   -1.5987   -1.1603 N   0  0  0  0  0  0  0  0  0  0  0  0
   -5.3936   -0.9145   -1.4794 C   0  0  0  0  0  0  0  0  0  0  0  0
   -2.7378    0.5034    0.7933 C   0  0  0  0  0  0  0  0  0  0  0  0
   -3.1852    0.1215    1.9966 F   0  0  0  0  0  0  0  0  0  0  0  0
   -1.5466    1.2315    0.7720 C   0  0  0  0  0  0  0  0  0  0  0  0
    3.2650   -0.3661   -0.7097 O   0  0  0  0  0  0  0  0  0  0  0  0
    5.3949   -2.7370   -1.6962 H   0  0  0  0  0  0  0  0  0  0  0  0
    4.9632   -1.2831   -2.6135 H   0  0  0  0  0  0  0  0  0  0  0  0
    3.7359   -2.5227   -2.2822 H   0  0  0  0  0  0  0  0  0  0  0  0
    5.4595   -2.0693    1.0411 H   0  0  0  0  0  0  0  0  0  0  0  0
    4.3302    0.8546    3.0735 H   0  0  0  0  0  0  0  0  0  0  0  0
    4.8250   -0.8220    3.3538 H   0  0  0  0  0  0  0  0  0  0  0  0
    3.1077   -0.3940    3.4026 H   0  0  0  0  0  0  0  0  0  0  0  0
    1.6296    0.9806   -1.2538 H   0  0  0  0  0  0  0  0  0  0  0  0
    0.3765    3.0391   -1.3656 H   0  0  0  0  0  0  0  0  0  0  0  0
    0.3422    3.1313    0.3949 H   0  0  0  0  0  0  0  0  0  0  0  0
   -1.2628    1.6851   -2.5832 H   0  0  0  0  0  0  0  0  0  0  0  0
   -3.3300    0.4294   -2.5648 H   0  0  0  0  0  0  0  0  0  0  0  0
   -4.9934   -0.9504    1.7214 H   0  0  0  0  0  0  0  0  0  0  0  0
   -7.2058   -2.2139    0.7501 H   0  0  0  0  0  0  0  0  0  0  0  0
   -5.1281   -0.6631   -2.4957 H   0  0  0  0  0  0  0  0  0  0  0  0
   -1.0445    1.4416    1.7148 H   0  0  0  0  0  0  0  0  0  0  0  0
  1  2  1  0
  2  3  2  0
  3  4  1  0
  4  5  1  0
  4  6  2  0
  6  7  1  0
  7  8  2  0
  7  9  1  0
  9 10  1  0
 10 11  1  0
 11 12  1  0
 12 13  2  0
 13 14  1  0
 14 15  1  0
 15 16  1  0
 16 17  2  0
 17 18  1  0
 18 19  2  0
 14 20  2  0
 20 21  1  0
 20 22  1  0
  6 23  1  0
 23  2  1  0
 22 11  2  0
 19 15  1  0
  1 24  1  0
  1 25  1  0
  1 26  1  0
  3 27  1  0
  5 28  1  0
  5 29  1  0
  5 30  1  0
  9 31  1  0
 10 32  1  0
 10 33  1  0
 12 34  1  0
 13 35  1  0
 16 36  1  0
 17 37  1  0
 19 38  1  0
 22 39  1  0
M  END
$$$$
OCNT-2310583
     RDKit          3D

 44 45  0  0  0  0  0  0  0  0999 V2000
    4.1543    0.2242   -1.7985 C   0  0  0  0  0  0  0  0  0  0  0  0
    3.3622   -0.6642   -0.8400 C   0  0  0  0  0  0  0  0  0  0  0  0
    4.3042   -1.6734   -0.1772 C   0  0  0  0  0  0  0  0  0  0  0  0
    2.6136    0.1400    0.2436 C   0  0  0  0  0  0  0  0  0  0  0  0
    1.5335    1.0964   -0.3165 C   0  0  0  0  0  0  0  0  0  0  0  0
    2.0091    2.5653   -0.3623 C   0  0  0  0  0  0  0  0  0  0  0  0
    2.2465    3.1473    0.9259 O   0  0  0  0  0  0  0  0  0  0  0  0
    1.3593    2.6832    1.9481 C   0  0  0  0  0  0  0  0  0  0  0  0
    0.0482    2.0934    1.4225 C   0  0  0  0  0  0  0  0  0  0  0  0
    0.2940    0.9872    0.4893 N   0  0  0  0  0  0  0  0  0  0  0  0
   -0.6392    0.0295    0.1119 C   0  0  0  0  0  0  0  0  0  0  0  0
   -0.4318   -0.7519   -0.8123 O   0  0  0  0  0  0  0  0  0  0  0  0
   -1.7946    0.0170    0.8544 N   0  0  0  0  0  0  0  0  0  0  0  0
   -2.9265   -0.7082    0.5118 C   0  0  0  0  0  0  0  0  0  0  0  0
   -3.8334   -1.1160    1.4649 C   0  0  0  0  0  0  0  0  0  0  0  0
   -4.7951   -1.8131    0.8034 N   0  0  0  0  0  0  0  0  0  0  0  0
   -5.9438   -2.4714    1.3781 C   0  0  0  0  0  0  0  0  0  0  0  0
   -4.6148   -1.8487   -0.5224 N   0  0  0  0  0  0  0  0  0  0  0  0
   -3.4708   -1.1541   -0.7357 C   0  0  0  0  0  0  0  0  0  0  0  0
   -2.9880   -0.8852   -2.1414 C   0  0  0  0  0  0  0  0  0  0  0  0
   -4.0237   -0.8556   -3.0350 F   0  0  0  0  0  0  0  0  0  0  0  0
   -2.3820    0.3289   -2.2710 F   0  0  0  0  0  0  0  0  0  0  0  0
   -2.1302   -1.8314   -2.6061 F   0  0  0  0  0  0  0  0  0  0  0  0
    3.4907    0.8624   -2.3895 H   0  0  0  0  0  0  0  0  0  0  0  0
    4.7296   -0.3833   -2.5056 H   0  0  0  0  0  0  0  0  0  0  0  0
    4.8569    0.8661   -1.2565 H   0  0  0  0  0  0  0  0  0  0  0  0
    2.6268   -1.2306   -1.4256 H   0  0  0  0  0  0  0  0  0  0  0  0
    3.7492   -2.3514    0.4798 H   0  0  0  0  0  0  0  0  0  0  0  0
    4.8132   -2.2842   -0.9304 H   0  0  0  0  0  0  0  0  0  0  0  0
    5.0686   -1.1685    0.4233 H   0  0  0  0  0  0  0  0  0  0  0  0
    2.1423   -0.5821    0.9241 H   0  0  0  0  0  0  0  0  0  0  0  0
    3.3395    0.6936    0.8523 H   0  0  0  0  0  0  0  0  0  0  0  0
    1.2881    0.8008   -1.3438 H   0  0  0  0  0  0  0  0  0  0  0  0
    2.9330    2.6651   -0.9389 H   0  0  0  0  0  0  0  0  0  0  0  0
    1.2554    3.1837   -0.8653 H   0  0  0  0  0  0  0  0  0  0  0  0
    1.8996    1.9334    2.5371 H   0  0  0  0  0  0  0  0  0  0  0  0
    1.1526    3.5276    2.6134 H   0  0  0  0  0  0  0  0  0  0  0  0
   -0.5638    1.7629    2.2648 H   0  0  0  0  0  0  0  0  0  0  0  0
   -0.5182    2.8515    0.8690 H   0  0  0  0  0  0  0  0  0  0  0  0
   -1.6840    0.2056    1.8378 H   0  0  0  0  0  0  0  0  0  0  0  0
   -3.8600   -0.9955    2.5384 H   0  0  0  0  0  0  0  0  0  0  0  0
   -5.9316   -2.3428    2.4632 H   0  0  0  0  0  0  0  0  0  0  0  0
   -6.8459   -2.0192    0.9585 H   0  0  0  0  0  0  0  0  0  0  0  0
   -5.8928   -3.5340    1.1277 H   0  0  0  0  0  0  0  0  0  0  0  0
  1  2  1  0
  2  3  1  0
  2  4  1  0
  4  5  1  0
  5  6  1  0
  6  7  1  0
  7  8  1  0
  8  9  1  0
  9 10  1  0
 10 11  1  0
 11 12  2  0
 11 13  1  0
 13 14  1  0
 14 15  2  0
 15 16  1  0
 16 17  1  0
 16 18  1  0
 18 19  2  0
 19 20  1  0
 20 21  1  0
 20 22  1  0
 20 23  1  0
 10  5  1  0
 19 14  1  0
  1 24  1  0
  1 25  1  0
  1 26  1  0
  2 27  1  0
  3 28  1  0
  3 29  1  0
  3 30  1  0
  4 31  1  0
  4 32  1  0
  5 33  1  0
  6 34  1  0
  6 35  1  0
  8 36  1  0
  8 37  1  0
  9 38  1  0
  9 39  1  0
 13 40  1  0
 15 41  1  0
 17 42  1  0
 17 43  1  0
 17 44  1  0
M  END
$$$$
OCNT-2310598
     RDKit          3D

 43 46  0  0  0  0  0  0  0  0999 V2000
   -7.2445   -0.2042   -0.4505 C   0  0  0  0  0  0  0  0  0  0  0  0
   -6.4639   -1.2059   -1.0244 C   0  0  0  0  0  0  0  0  0  0  0  0
   -5.0752   -1.0732   -1.0654 C   0  0  0  0  0  0  0  0  0  0  0  0
   -4.4554    0.0665   -0.5355 C   0  0  0  0  0  0  0  0  0  0  0  0
   -2.9504    0.2020   -0.5615 C   0  0  0  0  0  0  0  0  0  0  0  0
   -2.3081   -0.4043    0.6998 C   0  0  0  0  0  0  0  0  0  0  0  0
   -0.8428   -0.3431    0.8127 N   0  0  0  0  0  0  0  0  0  0  0  0
   -0.1449   -1.0900   -0.2496 C   0  0  0  0  0  0  0  0  0  0  0  0
    1.3858   -1.1083   -0.0415 C   0  0  0  0  0  0  0  0  0  0  0  0
    1.9282    0.2612    0.0947 N   0  0  0  0  0  0  0  0  0  0  0  0
    3.2939    0.3671   -0.0028 C   0  0  0  0  0  0  0  0  0  0  0  0
    4.0636   -0.6281   -0.4031 N   0  0  0  0  0  0  0  0  0  0  0  0
    5.3893   -0.2442   -0.4302 C   0  0  0  0  0  0  0  0  0  0  0  0
    6.5029   -1.0213   -0.7908 C   0  0  0  0  0  0  0  0  0  0  0  0
    7.7616   -0.4223   -0.7443 C   0  0  0  0  0  0  0  0  0  0  0  0
    7.8575    0.9043   -0.3472 C   0  0  0  0  0  0  0  0  0  0  0  0
    6.8221    1.6967    0.0091 N   0  0  0  0  0  0  0  0  0  0  0  0
    5.6274    1.0698   -0.0537 C   0  0  0  0  0  0  0  0  0  0  0  0
    4.1648    1.8350    0.3356 S   0  0  0  0  0  0  0  0  0  0  0  0
    1.2108    1.0729    1.0976 C   0  0  0  0  0  0  0  0  0  0  0  0
   -0.3184    1.0327    0.8647 C   0  0  0  0  0  0  0  0  0  0  0  0
   -5.2489    1.0655    0.0443 C   0  0  0  0  0  0  0  0  0  0  0  0
   -6.6375    0.9306    0.0842 C   0  0  0  0  0  0  0  0  0  0  0  0
   -8.3258   -0.3084   -0.4188 H   0  0  0  0  0  0  0  0  0  0  0  0
   -6.9370   -2.0920   -1.4394 H   0  0  0  0  0  0  0  0  0  0  0  0
   -4.4796   -1.8654   -1.5136 H   0  0  0  0  0  0  0  0  0  0  0  0
   -2.6957    1.2640   -0.6573 H   0  0  0  0  0  0  0  0  0  0  0  0
   -2.5702   -0.2861   -1.4664 H   0  0  0  0  0  0  0  0  0  0  0  0
   -2.7361    0.0793    1.5885 H   0  0  0  0  0  0  0  0  0  0  0  0
   -2.6099   -1.4571    0.7855 H   0  0  0  0  0  0  0  0  0  0  0  0
   -0.3544   -0.6521   -1.2335 H   0  0  0  0  0  0  0  0  0  0  0  0
   -0.4997   -2.1273   -0.2676 H   0  0  0  0  0  0  0  0  0  0  0  0
    1.6299   -1.6922    0.8558 H   0  0  0  0  0  0  0  0  0  0  0  0
    1.8284   -1.6183   -0.9064 H   0  0  0  0  0  0  0  0  0  0  0  0
    6.3756   -2.0541   -1.0944 H   0  0  0  0  0  0  0  0  0  0  0  0
    8.6510   -0.9823   -1.0137 H   0  0  0  0  0  0  0  0  0  0  0  0
    8.8302    1.3906   -0.3042 H   0  0  0  0  0  0  0  0  0  0  0  0
    1.4411    0.7007    2.1044 H   0  0  0  0  0  0  0  0  0  0  0  0
    1.5103    2.1256    1.0509 H   0  0  0  0  0  0  0  0  0  0  0  0
   -0.8019    1.5826    1.6809 H   0  0  0  0  0  0  0  0  0  0  0  0
   -0.5382    1.5667   -0.0682 H   0  0  0  0  0  0  0  0  0  0  0  0
   -4.7900    1.9555    0.4690 H   0  0  0  0  0  0  0  0  0  0  0  0
   -7.2460    1.7109    0.5337 H   0  0  0  0  0  0  0  0  0  0  0  0
  1  2  2  0
  2  3  1  0
  3  4  2  0
  4  5  1  0
  5  6  1  0
  6  7  1  0
  7  8  1  0
  8  9  1  0
  9 10  1  0
 10 11  1  0
 11 12  2  0
 12 13  1  0
 13 14  1  0
 14 15  2  0
 15 16  1  0
 16 17  2  0
 17 18  1  0
 18 19  1  0
 10 20  1  0
 20 21  1  0
  4 22  1  0
 22 23  2  0
 23  1  1  0
 21  7  1  0
 19 11  1  0
 18 13  2  0
  1 24  1  0
  2 25  1  0
  3 26  1  0
  5 27  1  0
  5 28  1  0
  6 29  1  0
  6 30  1  0
  8 31  1  0
  8 32  1  0
  9 33  1  0
  9 34  1  0
 14 35  1  0
 15 36  1  0
 16 37  1  0
 20 38  1  0
 20 39  1  0
 21 40  1  0
 21 41  1  0
 22 42  1  0
 23 43  1  0
M  END
$$$$
OCNT-2310605
     RDKit          3D

 39 41  0  0  0  0  0  0  0  0999 V2000
    2.8113   -1.1600   -2.0622 C   0  0  0  0  0  0  0  0  0  0  0  0
    2.6306   -0.7316   -0.7154 O   0  0  0  0  0  0  0  0  0  0  0  0
    3.3181    0.3849   -0.3073 C   0  0  0  0  0  0  0  0  0  0  0  0
    4.3943    0.9253   -1.0300 C   0  0  0  0  0  0  0  0  0  0  0  0
    5.0571    2.0662   -0.5729 C   0  0  0  0  0  0  0  0  0  0  0  0
    4.6510    2.6695    0.6072 C   0  0  0  0  0  0  0  0  0  0  0  0
    5.2890    3.7636    1.0410 F   0  0  0  0  0  0  0  0  0  0  0  0
    3.5975    2.1512    1.3452 C   0  0  0  0  0  0  0  0  0  0  0  0
    2.9238    0.9994    0.9034 C   0  0  0  0  0  0  0  0  0  0  0  0
    1.8024    0.5230    1.7765 C   0  0  0  0  0  0  0  0  0  0  0  0
    1.3684    1.2444    2.6702 O   0  0  0  0  0  0  0  0  0  0  0  0
    1.2998   -0.7341    1.5395 N   0  0  0  0  0  0  0  0  0  0  0  0
    0.1391   -1.2426    2.2288 C   0  0  0  0  0  0  0  0  0  0  0  0
   -1.1045   -1.0372    1.4145 C   0  0  0  0  0  0  0  0  0  0  0  0
   -1.6259   -2.0421    0.5979 C   0  0  0  0  0  0  0  0  0  0  0  0
   -2.7754   -1.8025   -0.1573 C   0  0  0  0  0  0  0  0  0  0  0  0
   -3.3759   -0.5484   -0.0804 C   0  0  0  0  0  0  0  0  0  0  0  0
   -4.5478   -0.2583   -0.8335 N   0  0  0  0  0  0  0  0  0  0  0  0
   -5.2224    0.9451   -0.8400 C   0  0  0  0  0  0  0  0  0  0  0  0
   -6.2807    0.7833   -1.6999 C   0  0  0  0  0  0  0  0  0  0  0  0
   -6.2873   -0.4784   -2.2276 N   0  0  0  0  0  0  0  0  0  0  0  0
   -5.2446   -1.0775   -1.6924 C   0  0  0  0  0  0  0  0  0  0  0  0
   -2.8801    0.4461    0.7000 N   0  0  0  0  0  0  0  0  0  0  0  0
   -1.7642    0.1851    1.4198 C   0  0  0  0  0  0  0  0  0  0  0  0
    2.6196   -0.3467   -2.7701 H   0  0  0  0  0  0  0  0  0  0  0  0
    3.8095   -1.5859   -2.2044 H   0  0  0  0  0  0  0  0  0  0  0  0
    2.0816   -1.9514   -2.2590 H   0  0  0  0  0  0  0  0  0  0  0  0
    4.7485    0.4782   -1.9537 H   0  0  0  0  0  0  0  0  0  0  0  0
    5.8884    2.4869   -1.1308 H   0  0  0  0  0  0  0  0  0  0  0  0
    3.3091    2.6499    2.2673 H   0  0  0  0  0  0  0  0  0  0  0  0
    1.6226   -1.2212    0.7104 H   0  0  0  0  0  0  0  0  0  0  0  0
    0.3084   -2.3110    2.4028 H   0  0  0  0  0  0  0  0  0  0  0  0
    0.0331   -0.7694    3.2115 H   0  0  0  0  0  0  0  0  0  0  0  0
   -1.1438   -3.0155    0.5453 H   0  0  0  0  0  0  0  0  0  0  0  0
   -3.1603   -2.6021   -0.7786 H   0  0  0  0  0  0  0  0  0  0  0  0
   -4.8914    1.7847   -0.2445 H   0  0  0  0  0  0  0  0  0  0  0  0
   -7.0372    1.5107   -1.9651 H   0  0  0  0  0  0  0  0  0  0  0  0
   -4.9623   -2.0992   -1.9008 H   0  0  0  0  0  0  0  0  0  0  0  0
   -1.3995    1.0179    2.0189 H   0  0  0  0  0  0  0  0  0  0  0  0
  1  2  1  0
  2  3  1  0
  3  4  1  0
  4  5  2  0
  5  6  1  0
  6  7  1  0
  6  8  2  0
  8  9  1  0
  9 10  1  0
 10 11  2  0
 10 12  1  0
 12 13  1  0
 13 14  1  0
 14 15  2  0
 15 16  1  0
 16 17  2  0
 17 18  1  0
 18 19  1  0
 19 20  2  0
 20 21  1  0
 21 22  2  0
 17 23  1  0
 23 24  2  0
  9  3  2  0
 24 14  1  0
 22 18  1  0
  1 25  1  0
  1 26  1  0
  1 27  1  0
  4 28  1  0
  5 29  1  0
  8 30  1  0
 12 31  1  0
 13 32  1  0
 13 33  1  0
 15 34  1  0
 16 35  1  0
 19 36  1  0
 20 37  1  0
 22 38  1  0
 24 39  1  0
M  END
$$$$
OCNT-2310606
     RDKit          3D

 42 44  0  0  0  0  0  0  0  0999 V2000
    8.1898    0.6221    0.1015 C   0  0  0  0  0  0  0  0  0  0  0  0
    6.6932    0.6815    0.2263 C   0  0  0  0  0  0  0  0  0  0  0  0
    6.0962    1.7968    0.8336 C   0  0  0  0  0  0  0  0  0  0  0  0
    4.7076    1.8787    0.9625 C   0  0  0  0  0  0  0  0  0  0  0  0
    3.8914    0.8509    0.4790 C   0  0  0  0  0  0  0  0  0  0  0  0
    2.4166    0.9848    0.6360 C   0  0  0  0  0  0  0  0  0  0  0  0
    1.9570    1.7016    1.5174 O   0  0  0  0  0  0  0  0  0  0  0  0
    1.6367    0.3047   -0.2802 N   0  0  0  0  0  0  0  0  0  0  0  0
    0.1947    0.5061   -0.2965 C   0  0  0  0  0  0  0  0  0  0  0  0
   -0.5235   -0.5382   -1.1480 C   0  0  0  0  0  0  0  0  0  0  0  0
   -1.9883   -0.2770   -1.2401 C   0  0  0  0  0  0  0  0  0  0  0  0
   -2.8179   -0.7493   -0.3059 N   0  0  0  0  0  0  0  0  0  0  0  0
   -4.0553   -0.3220   -0.6735 N   0  0  0  0  0  0  0  0  0  0  0  0
   -5.1999   -0.6225    0.1178 C   0  0  0  0  0  0  0  0  0  0  0  0
   -5.0464   -1.3719    1.2954 C   0  0  0  0  0  0  0  0  0  0  0  0
   -6.1546   -1.6700    2.0914 C   0  0  0  0  0  0  0  0  0  0  0  0
   -7.4210   -1.2251    1.7194 C   0  0  0  0  0  0  0  0  0  0  0  0
   -7.5825   -0.4834    0.5503 C   0  0  0  0  0  0  0  0  0  0  0  0
   -6.4776   -0.1798   -0.2519 C   0  0  0  0  0  0  0  0  0  0  0  0
   -3.9967    0.3983   -1.8483 C   0  0  0  0  0  0  0  0  0  0  0  0
   -2.6788    0.4431   -2.2338 C   0  0  0  0  0  0  0  0  0  0  0  0
    4.4755   -0.2742   -0.1115 C   0  0  0  0  0  0  0  0  0  0  0  0
    5.8661   -0.3525   -0.2397 C   0  0  0  0  0  0  0  0  0  0  0  0
    6.5254   -1.7652   -0.9874 Cl  0  0  0  0  0  0  0  0  0  0  0  0
    8.6631    1.5143    0.5247 H   0  0  0  0  0  0  0  0  0  0  0  0
    8.5842   -0.2442    0.6423 H   0  0  0  0  0  0  0  0  0  0  0  0
    8.4828    0.5632   -0.9523 H   0  0  0  0  0  0  0  0  0  0  0  0
    6.7075    2.6118    1.2159 H   0  0  0  0  0  0  0  0  0  0  0  0
    4.2622    2.7498    1.4428 H   0  0  0  0  0  0  0  0  0  0  0  0
    2.0772    0.0124   -1.1425 H   0  0  0  0  0  0  0  0  0  0  0  0
    0.0158    1.5155   -0.6856 H   0  0  0  0  0  0  0  0  0  0  0  0
   -0.1758    0.4863    0.7358 H   0  0  0  0  0  0  0  0  0  0  0  0
   -0.3463   -1.5388   -0.7345 H   0  0  0  0  0  0  0  0  0  0  0  0
   -0.0938   -0.5488   -2.1581 H   0  0  0  0  0  0  0  0  0  0  0  0
   -4.0664   -1.7285    1.6078 H   0  0  0  0  0  0  0  0  0  0  0  0
   -6.0258   -2.2486    3.0026 H   0  0  0  0  0  0  0  0  0  0  0  0
   -8.2822   -1.4566    2.3416 H   0  0  0  0  0  0  0  0  0  0  0  0
   -8.5724   -0.1371    0.2632 H   0  0  0  0  0  0  0  0  0  0  0  0
   -6.6505    0.4029   -1.1507 H   0  0  0  0  0  0  0  0  0  0  0  0
   -4.8757    0.8198   -2.3092 H   0  0  0  0  0  0  0  0  0  0  0  0
   -2.2746    0.9329   -3.1086 H   0  0  0  0  0  0  0  0  0  0  0  0
    3.8634   -1.1053   -0.4488 H   0  0  0  0  0  0  0  0  0  0  0  0
  1  2  1  0
  2  3  1  0
  3  4  2  0
  4  5  1  0
  5  6  1  0
  6  7  2  0
  6  8  1  0
  8  9  1  0
  9 10  1  0
 10 11  1  0
 11 12  2  0
 12 13  1  0
 13 14  1  0
 14 15  2  0
 15 16  1  0
 16 17  2  0
 17 18  1  0
 18 19  2  0
 13 20  1  0
 20 21  2  0
  5 22  2  0
 22 23  1  0
 23 24  1  0
 23  2  2  0
 21 11  1  0
 19 14  1  0
  1 25  1  0
  1 26  1  0
  1 27  1  0
  3 28  1  0
  4 29  1  0
  8 30  1  0
  9 31  1  0
  9 32  1  0
 10 33  1  0
 10 34  1  0
 15 35  1  0
 16 36  1  0
 17 37  1  0
 18 38  1  0
 19 39  1  0
 20 40  1  0
 21 41  1  0
 22 42  1  0
M  END
$$$$
OCNT-2310611
     RDKit          3D

 51 53  0  0  0  0  0  0  0  0999 V2000
    7.7932   -0.3085    0.5826 C   0  0  0  0  0  0  0  0  0  0  0  0
    6.6461    0.4049    0.1388 O   0  0  0  0  0  0  0  0  0  0  0  0
    5.5595   -0.3381   -0.2326 C   0  0  0  0  0  0  0  0  0  0  0  0
    5.4674   -1.7311   -0.1985 C   0  0  0  0  0  0  0  0  0  0  0  0
    4.2955   -2.3674   -0.6172 C   0  0  0  0  0  0  0  0  0  0  0  0
    3.2087   -1.6132   -1.0620 C   0  0  0  0  0  0  0  0  0  0  0  0
    3.2855   -0.2154   -1.0844 C   0  0  0  0  0  0  0  0  0  0  0  0
    2.0997    0.5519   -1.5585 C   0  0  0  0  0  0  0  0  0  0  0  0
    1.2340    0.0086   -2.2395 O   0  0  0  0  0  0  0  0  0  0  0  0
    1.9974    1.8621   -1.1403 N   0  0  0  0  0  0  0  0  0  0  0  0
    0.8101    2.6375   -1.4507 C   0  0  0  0  0  0  0  0  0  0  0  0
   -0.2855    2.3098   -0.4379 C   0  0  0  0  0  0  0  0  0  0  0  0
   -0.4115    2.9291    0.6155 O   0  0  0  0  0  0  0  0  0  0  0  0
   -1.0416    1.2070   -0.7740 N   0  0  0  0  0  0  0  0  0  0  0  0
   -2.0481    0.6631    0.1273 C   0  0  0  0  0  0  0  0  0  0  0  0
   -3.2832    1.5663    0.1268 C   0  0  0  0  0  0  0  0  0  0  0  0
   -4.4618    0.8988    0.8413 C   0  0  0  0  0  0  0  0  0  0  0  0
   -5.6984    1.8001    0.7039 C   0  0  0  0  0  0  0  0  0  0  0  0
   -4.2048    0.6583    2.3370 C   0  0  0  0  0  0  0  0  0  0  0  0
   -4.8124   -0.3437    0.2111 O   0  0  0  0  0  0  0  0  0  0  0  0
   -3.7776   -1.1567   -0.1651 C   0  0  0  0  0  0  0  0  0  0  0  0
   -4.1440   -2.4618   -0.5032 C   0  0  0  0  0  0  0  0  0  0  0  0
   -3.1753   -3.3922   -0.8743 C   0  0  0  0  0  0  0  0  0  0  0  0
   -1.8348   -3.0198   -0.8994 C   0  0  0  0  0  0  0  0  0  0  0  0
   -1.4675   -1.7129   -0.5711 C   0  0  0  0  0  0  0  0  0  0  0  0
   -2.4382   -0.7529   -0.2292 C   0  0  0  0  0  0  0  0  0  0  0  0
    4.4689    0.4157   -0.6808 C   0  0  0  0  0  0  0  0  0  0  0  0
    7.5721   -0.8928    1.4827 H   0  0  0  0  0  0  0  0  0  0  0  0
    8.1939   -0.9430   -0.2145 H   0  0  0  0  0  0  0  0  0  0  0  0
    8.5624    0.4240    0.8417 H   0  0  0  0  0  0  0  0  0  0  0  0
    6.2907   -2.3528    0.1413 H   0  0  0  0  0  0  0  0  0  0  0  0
    4.2306   -3.4534   -0.5969 H   0  0  0  0  0  0  0  0  0  0  0  0
    2.3024   -2.1191   -1.3896 H   0  0  0  0  0  0  0  0  0  0  0  0
    2.5383    2.1647   -0.3401 H   0  0  0  0  0  0  0  0  0  0  0  0
    1.0607    3.6995   -1.3767 H   0  0  0  0  0  0  0  0  0  0  0  0
    0.4667    2.4264   -2.4687 H   0  0  0  0  0  0  0  0  0  0  0  0
   -0.6914    0.6239   -1.5330 H   0  0  0  0  0  0  0  0  0  0  0  0
   -1.6102    0.6458    1.1334 H   0  0  0  0  0  0  0  0  0  0  0  0
   -3.0516    2.5363    0.5843 H   0  0  0  0  0  0  0  0  0  0  0  0
   -3.5671    1.7731   -0.9159 H   0  0  0  0  0  0  0  0  0  0  0  0
   -6.5756    1.3338    1.1671 H   0  0  0  0  0  0  0  0  0  0  0  0
   -5.5398    2.7780    1.1695 H   0  0  0  0  0  0  0  0  0  0  0  0
   -5.9547    1.9545   -0.3510 H   0  0  0  0  0  0  0  0  0  0  0  0
   -3.9516    1.5895    2.8537 H   0  0  0  0  0  0  0  0  0  0  0  0
   -3.3969   -0.0594    2.5070 H   0  0  0  0  0  0  0  0  0  0  0  0
   -5.0916    0.2277    2.8170 H   0  0  0  0  0  0  0  0  0  0  0  0
   -5.1898   -2.7540   -0.4686 H   0  0  0  0  0  0  0  0  0  0  0  0
   -3.4673   -4.4053   -1.1341 H   0  0  0  0  0  0  0  0  0  0  0  0
   -1.0735   -3.7442   -1.1774 H   0  0  0  0  0  0  0  0  0  0  0  0
   -0.4117   -1.4489   -0.5905 H   0  0  0  0  0  0  0  0  0  0  0  0
    4.5735    1.4964   -0.7293 H   0  0  0  0  0  0  0  0  0  0  0  0
  1  2  1  0
  2  3  1  0
  3  4  1  0
  4  5  2  0
  5  6  1  0
  6  7  2  0
  7  8  1  0
  8  9  2  0
  8 10  1  0
 10 11  1  0
 11 12  1  0
 12 13  2  0
 12 14  1  0
 14 15  1  0
 15 16  1  0
 16 17  1  0
 17 18  1  0
 17 19  1  0
 17 20  1  0
 20 21  1  0
 21 22  2  0
 22 23  1  0
 23 24  2  0
 24 25  1  0
 25 26  2  0
  7 27  1  0
 27  3  2  0
 26 15  1  0
 26 21  1  0
  1 28  1  0
  1 29  1  0
  1 30  1  0
  4 31  1  0
  5 32  1  0
  6 33  1  0
 10 34  1  0
 11 35  1  0
 11 36  1  0
 14 37  1  0
 15 38  1  0
 16 39  1  0
 16 40  1  0
 18 41  1  0
 18 42  1  0
 18 43  1  0
 19 44  1  0
 19 45  1  0
 19 46  1  0
 22 47  1  0
 23 48  1  0
 24 49  1  0
 25 50  1  0
 27 51  1  0
M  END
$$$$
OCNT-2310613
     RDKit          3D

 44 46  0  0  0  0  0  0  0  0999 V2000
    2.9450    0.1553   -2.1726 O   0  0  0  0  0  0  0  0  0  0  0  0
    3.0491    0.1932   -0.9506 C   0  0  0  0  0  0  0  0  0  0  0  0
    1.9798    0.4341   -0.1151 N   0  0  0  0  0  0  0  0  0  0  0  0
    0.6123    0.5232   -0.6206 C   0  0  0  0  0  0  0  0  0  0  0  0
   -0.2702    1.3518    0.3204 C   0  0  0  0  0  0  0  0  0  0  0  0
   -1.0700    0.4625    1.2689 C   0  0  0  0  0  0  0  0  0  0  0  0
   -1.9343   -0.5030    0.5794 N   0  0  0  0  0  0  0  0  0  0  0  0
   -3.3624   -0.2047    0.7089 C   0  0  0  0  0  0  0  0  0  0  0  0
   -3.8580    1.1064    0.0867 C   0  0  0  0  0  0  0  0  0  0  0  0
   -5.3803    0.9614    0.0495 C   0  0  0  0  0  0  0  0  0  0  0  0
   -5.6756   -0.5331    0.1846 C   0  0  0  0  0  0  0  0  0  0  0  0
   -4.3222   -1.2299    0.0952 C   0  0  0  0  0  0  0  0  0  0  0  0
   -1.4804   -0.8763   -0.7633 C   0  0  0  0  0  0  0  0  0  0  0  0
    0.0425   -0.8796   -0.8645 C   0  0  0  0  0  0  0  0  0  0  0  0
    4.3815   -0.0303   -0.3224 C   0  0  0  0  0  0  0  0  0  0  0  0
    5.4921   -0.2099   -1.1679 C   0  0  0  0  0  0  0  0  0  0  0  0
    6.7662   -0.4222   -0.6335 C   0  0  0  0  0  0  0  0  0  0  0  0
    6.9319   -0.4562    0.7463 C   0  0  0  0  0  0  0  0  0  0  0  0
    8.1539   -0.6597    1.2557 F   0  0  0  0  0  0  0  0  0  0  0  0
    5.8433   -0.2822    1.5904 C   0  0  0  0  0  0  0  0  0  0  0  0
    6.0133   -0.3188    2.9198 F   0  0  0  0  0  0  0  0  0  0  0  0
    4.5743   -0.0709    1.0608 C   0  0  0  0  0  0  0  0  0  0  0  0
    3.5440    0.0866    1.9078 F   0  0  0  0  0  0  0  0  0  0  0  0
    2.1023    0.3105    0.8846 H   0  0  0  0  0  0  0  0  0  0  0  0
    0.6615    1.0537   -1.5805 H   0  0  0  0  0  0  0  0  0  0  0  0
    0.3298    2.0686    0.8940 H   0  0  0  0  0  0  0  0  0  0  0  0
   -0.9711    1.9475   -0.2787 H   0  0  0  0  0  0  0  0  0  0  0  0
   -0.3687   -0.1047    1.8944 H   0  0  0  0  0  0  0  0  0  0  0  0
   -1.6363    1.0897    1.9683 H   0  0  0  0  0  0  0  0  0  0  0  0
   -3.5876   -0.1728    1.7856 H   0  0  0  0  0  0  0  0  0  0  0  0
   -3.5533    1.9868    0.6614 H   0  0  0  0  0  0  0  0  0  0  0  0
   -3.4862    1.2339   -0.9362 H   0  0  0  0  0  0  0  0  0  0  0  0
   -5.7854    1.3672   -0.8835 H   0  0  0  0  0  0  0  0  0  0  0  0
   -5.8445    1.5126    0.8749 H   0  0  0  0  0  0  0  0  0  0  0  0
   -6.3681   -0.8872   -0.5853 H   0  0  0  0  0  0  0  0  0  0  0  0
   -6.1365   -0.7311    1.1597 H   0  0  0  0  0  0  0  0  0  0  0  0
   -4.0951   -1.4269   -0.9588 H   0  0  0  0  0  0  0  0  0  0  0  0
   -4.3159   -2.1841    0.6310 H   0  0  0  0  0  0  0  0  0  0  0  0
   -1.8390   -1.8842   -1.0008 H   0  0  0  0  0  0  0  0  0  0  0  0
   -1.8777   -0.1983   -1.5276 H   0  0  0  0  0  0  0  0  0  0  0  0
    0.3523   -1.2379   -1.8538 H   0  0  0  0  0  0  0  0  0  0  0  0
    0.4528   -1.5970   -0.1405 H   0  0  0  0  0  0  0  0  0  0  0  0
    5.3660   -0.1836   -2.2503 H   0  0  0  0  0  0  0  0  0  0  0  0
    7.6249   -0.5603   -1.2846 H   0  0  0  0  0  0  0  0  0  0  0  0
  1  2  2  0
  2  3  1  0
  3  4  1  0
  4  5  1  0
  5  6  1  0
  6  7  1  0
  7  8  1  0
  8  9  1  0
  9 10  1  0
 10 11  1  0
 11 12  1  0
  7 13  1  0
 13 14  1  0
  2 15  1  0
 15 16  1  0
 16 17  2  0
 17 18  1  0
 18 19  1  0
 18 20  2  0
 20 21  1  0
 20 22  1  0
 22 23  1  0
 14  4  1  0
 22 15  2  0
 12  8  1  0
  3 24  1  0
  4 25  1  0
  5 26  1  0
  5 27  1  0
  6 28  1  0
  6 29  1  0
  8 30  1  0
  9 31  1  0
  9 32  1  0
 10 33  1  0
 10 34  1  0
 11 35  1  0
 11 36  1  0
 12 37  1  0
 12 38  1  0
 13 39  1  0
 13 40  1  0
 14 41  1  0
 14 42  1  0
 16 43  1  0
 17 44  1  0
M  END
$$$$
OCNT-2310624
     RDKit          3D

 51 55  0  0  0  0  0  0  0  0999 V2000
    4.0993   -1.5809    2.0821 O   0  0  0  0  0  0  0  0  0  0  0  0
    3.7003   -1.3309    0.9523 C   0  0  0  0  0  0  0  0  0  0  0  0
    4.2808   -0.4072    0.1153 N   0  0  0  0  0  0  0  0  0  0  0  0
    5.3522    0.4298    0.5958 C   0  0  0  0  0  0  0  0  0  0  0  0
    5.7180    1.3821   -0.4910 C   0  0  0  0  0  0  0  0  0  0  0  0
    5.2425    2.6714   -0.6556 C   0  0  0  0  0  0  0  0  0  0  0  0
    5.8221    3.2112   -1.7747 N   0  0  0  0  0  0  0  0  0  0  0  0
    6.6555    2.2864   -2.3452 C   0  0  0  0  0  0  0  0  0  0  0  0
    6.6137    1.1452   -1.5740 C   0  0  0  0  0  0  0  0  0  0  0  0
    2.4993   -2.0211    0.4185 C   0  0  0  0  0  0  0  0  0  0  0  0
    2.4231   -2.4138   -0.9232 C   0  0  0  0  0  0  0  0  0  0  0  0
    1.2848   -3.0732   -1.3876 C   0  0  0  0  0  0  0  0  0  0  0  0
    0.2242   -3.3398   -0.5171 C   0  0  0  0  0  0  0  0  0  0  0  0
    0.2904   -2.9547    0.8319 C   0  0  0  0  0  0  0  0  0  0  0  0
   -0.8678   -3.2059    1.7656 C   0  0  0  0  0  0  0  0  0  0  0  0
   -1.7885   -2.0848    1.7684 N   0  0  0  0  0  0  0  0  0  0  0  0
   -2.8014   -1.8261    0.8900 C   0  0  0  0  0  0  0  0  0  0  0  0
   -3.3462   -0.6479    1.3530 C   0  0  0  0  0  0  0  0  0  0  0  0
   -4.4571    0.0762    0.7558 C   0  0  0  0  0  0  0  0  0  0  0  0
   -5.5915   -0.6596    0.3613 C   0  0  0  0  0  0  0  0  0  0  0  0
   -6.6931   -0.0241   -0.2076 C   0  0  0  0  0  0  0  0  0  0  0  0
   -6.6759    1.3546   -0.3914 C   0  0  0  0  0  0  0  0  0  0  0  0
   -5.5575    2.1150   -0.0085 C   0  0  0  0  0  0  0  0  0  0  0  0
   -5.5298    3.5017   -0.1920 C   0  0  0  0  0  0  0  0  0  0  0  0
   -4.4945    4.3053    0.1392 N   0  0  0  0  0  0  0  0  0  0  0  0
   -3.4246    3.6995    0.6876 C   0  0  0  0  0  0  0  0  0  0  0  0
   -3.3420    2.3320    0.9143 C   0  0  0  0  0  0  0  0  0  0  0  0
   -4.4269    1.4917    0.5719 C   0  0  0  0  0  0  0  0  0  0  0  0
   -2.6830   -0.2611    2.4872 N   0  0  0  0  0  0  0  0  0  0  0  0
   -1.7293   -1.1507    2.7349 N   0  0  0  0  0  0  0  0  0  0  0  0
    1.4411   -2.2971    1.2939 C   0  0  0  0  0  0  0  0  0  0  0  0
    3.7704   -0.0901   -0.6983 H   0  0  0  0  0  0  0  0  0  0  0  0
    5.0033    0.9647    1.4844 H   0  0  0  0  0  0  0  0  0  0  0  0
    6.1976   -0.2017    0.8840 H   0  0  0  0  0  0  0  0  0  0  0  0
    4.5433    3.2528   -0.0641 H   0  0  0  0  0  0  0  0  0  0  0  0
    5.6606    4.1492   -2.1223 H   0  0  0  0  0  0  0  0  0  0  0  0
    7.2082    2.5201   -3.2458 H   0  0  0  0  0  0  0  0  0  0  0  0
    7.1693    0.2350   -1.7669 H   0  0  0  0  0  0  0  0  0  0  0  0
    3.2513   -2.2326   -1.6045 H   0  0  0  0  0  0  0  0  0  0  0  0
    1.2264   -3.3862   -2.4287 H   0  0  0  0  0  0  0  0  0  0  0  0
   -0.6557   -3.8509   -0.9044 H   0  0  0  0  0  0  0  0  0  0  0  0
   -0.5218   -3.3741    2.7926 H   0  0  0  0  0  0  0  0  0  0  0  0
   -1.4285   -4.0973    1.4626 H   0  0  0  0  0  0  0  0  0  0  0  0
   -3.0195   -2.4589    0.0439 H   0  0  0  0  0  0  0  0  0  0  0  0
   -5.6326   -1.7367    0.5145 H   0  0  0  0  0  0  0  0  0  0  0  0
   -7.5683   -0.6004   -0.4967 H   0  0  0  0  0  0  0  0  0  0  0  0
   -7.5465    1.8382   -0.8325 H   0  0  0  0  0  0  0  0  0  0  0  0
   -6.3753    4.0275   -0.6304 H   0  0  0  0  0  0  0  0  0  0  0  0
   -2.6030    4.3596    0.9534 H   0  0  0  0  0  0  0  0  0  0  0  0
   -2.4329    1.9387    1.3589 H   0  0  0  0  0  0  0  0  0  0  0  0
    1.5153   -1.9801    2.3344 H   0  0  0  0  0  0  0  0  0  0  0  0
  1  2  2  0
  2  3  1  0
  3  4  1  0
  4  5  1  0
  5  6  2  0
  6  7  1  0
  7  8  1  0
  8  9  2  0
  2 10  1  0
 10 11  1  0
 11 12  2  0
 12 13  1  0
 13 14  2  0
 14 15  1  0
 15 16  1  0
 16 17  1  0
 17 18  2  0
 18 19  1  0
 19 20  2  0
 20 21  1  0
 21 22  2  0
 22 23  1  0
 23 24  2  0
 24 25  1  0
 25 26  2  0
 26 27  1  0
 27 28  2  0
 18 29  1  0
 29 30  2  0
 14 31  1  0
  9  5  1  0
 31 10  2  0
 30 16  1  0
 28 19  1  0
 28 23  1  0
  3 32  1  0
  4 33  1  0
  4 34  1  0
  6 35  1  0
  7 36  1  0
  8 37  1  0
  9 38  1  0
 11 39  1  0
 12 40  1  0
 13 41  1  0
 15 42  1  0
 15 43  1  0
 17 44  1  0
 20 45  1  0
 21 46  1  0
 22 47  1  0
 24 48  1  0
 26 49  1  0
 27 50  1  0
 31 51  1  0
M  END
$$$$
OCNT-2310627
     RDKit          3D

 46 48  0  0  0  0  0  0  0  0999 V2000
    7.1561    0.4997    0.0502 N   0  0  0  0  0  0  0  0  0  0  0  0
    6.2290   -0.8740    0.1198 S   0  0  0  0  0  0  0  0  0  0  0  0
    6.1707   -1.4363   -1.2042 O   0  0  0  0  0  0  0  0  0  0  0  0
    6.6703   -1.6043    1.2797 O   0  0  0  0  0  0  0  0  0  0  0  0
    4.7459   -0.1281    0.4634 N   0  0  0  0  0  0  0  0  0  0  0  0
    4.0946    0.5356   -0.6980 C   0  0  0  0  0  0  0  0  0  0  0  0
    2.9645    1.4281   -0.1895 C   0  0  0  0  0  0  0  0  0  0  0  0
    1.9260    0.6295    0.6080 C   0  0  0  0  0  0  0  0  0  0  0  0
    1.0552   -0.2294   -0.3082 C   0  0  0  0  0  0  0  0  0  0  0  0
    1.0481   -1.4548   -0.2702 O   0  0  0  0  0  0  0  0  0  0  0  0
    0.2794    0.4999   -1.1822 N   0  0  0  0  0  0  0  0  0  0  0  0
   -0.6805   -0.1402   -2.0546 C   0  0  0  0  0  0  0  0  0  0  0  0
   -2.0498   -0.1513   -1.4272 C   0  0  0  0  0  0  0  0  0  0  0  0
   -2.4107   -1.1589   -0.5260 C   0  0  0  0  0  0  0  0  0  0  0  0
   -3.6732   -1.1631    0.0815 C   0  0  0  0  0  0  0  0  0  0  0  0
   -4.6059   -0.1500   -0.1960 C   0  0  0  0  0  0  0  0  0  0  0  0
   -5.8883   -0.1629    0.4281 N   0  0  0  0  0  0  0  0  0  0  0  0
   -6.9265    0.7316    0.2712 C   0  0  0  0  0  0  0  0  0  0  0  0
   -7.9465    0.2955    1.0827 C   0  0  0  0  0  0  0  0  0  0  0  0
   -7.5857   -0.8399    1.7423 N   0  0  0  0  0  0  0  0  0  0  0  0
   -6.3611   -1.0925    1.3356 C   0  0  0  0  0  0  0  0  0  0  0  0
   -4.2325    0.8587   -1.0921 C   0  0  0  0  0  0  0  0  0  0  0  0
   -5.0492    1.8711   -1.4113 F   0  0  0  0  0  0  0  0  0  0  0  0
   -2.9732    0.8622   -1.6978 C   0  0  0  0  0  0  0  0  0  0  0  0
    2.6115   -0.2107    1.6936 C   0  0  0  0  0  0  0  0  0  0  0  0
    3.7832   -1.0341    1.1573 C   0  0  0  0  0  0  0  0  0  0  0  0
    7.2021    0.9674    0.9505 H   0  0  0  0  0  0  0  0  0  0  0  0
    6.9888    1.0706   -0.7693 H   0  0  0  0  0  0  0  0  0  0  0  0
    4.8143    1.1671   -1.2284 H   0  0  0  0  0  0  0  0  0  0  0  0
    3.7129   -0.2111   -1.4037 H   0  0  0  0  0  0  0  0  0  0  0  0
    3.3874    2.2041    0.4620 H   0  0  0  0  0  0  0  0  0  0  0  0
    2.5045    1.9464   -1.0380 H   0  0  0  0  0  0  0  0  0  0  0  0
    1.2445    1.3318    1.1067 H   0  0  0  0  0  0  0  0  0  0  0  0
    0.1633    1.4904   -1.0165 H   0  0  0  0  0  0  0  0  0  0  0  0
   -0.3627   -1.1605   -2.2977 H   0  0  0  0  0  0  0  0  0  0  0  0
   -0.6959    0.4261   -2.9924 H   0  0  0  0  0  0  0  0  0  0  0  0
   -1.7020   -1.9529   -0.2864 H   0  0  0  0  0  0  0  0  0  0  0  0
   -3.8815   -1.9797    0.7667 H   0  0  0  0  0  0  0  0  0  0  0  0
   -6.8832    1.5884   -0.3817 H   0  0  0  0  0  0  0  0  0  0  0  0
   -8.9214    0.7451    1.2213 H   0  0  0  0  0  0  0  0  0  0  0  0
   -5.7830   -1.9389    1.6767 H   0  0  0  0  0  0  0  0  0  0  0  0
   -2.7315    1.6694   -2.3844 H   0  0  0  0  0  0  0  0  0  0  0  0
    2.9871    0.4681    2.4707 H   0  0  0  0  0  0  0  0  0  0  0  0
    1.8896   -0.8774    2.1803 H   0  0  0  0  0  0  0  0  0  0  0  0
    4.2677   -1.5154    2.0134 H   0  0  0  0  0  0  0  0  0  0  0  0
    3.4475   -1.8205    0.4735 H   0  0  0  0  0  0  0  0  0  0  0  0
  1  2  1  0
  2  3  2  0
  2  4  2  0
  2  5  1  0
  5  6  1  0
  6  7  1  0
  7  8  1  0
  8  9  1  0
  9 10  2  0
  9 11  1  0
 11 12  1  0
 12 13  1  0
 13 14  1  0
 14 15  2  0
 15 16  1  0
 16 17  1  0
 17 18  1  0
 18 19  2  0
 19 20  1  0
 20 21  2  0
 16 22  2  0
 22 23  1  0
 22 24  1  0
  8 25  1  0
 25 26  1  0
 26  5  1  0
 24 13  2  0
 21 17  1  0
  1 27  1  0
  1 28  1  0
  6 29  1  0
  6 30  1  0
  7 31  1  0
  7 32  1  0
  8 33  1  0
 11 34  1  0
 12 35  1  0
 12 36  1  0
 14 37  1  0
 15 38  1  0
 18 39  1  0
 19 40  1  0
 21 41  1  0
 24 42  1  0
 25 43  1  0
 25 44  1  0
 26 45  1  0
 26 46  1  0
M  END
$$$$
OCNT-2310632
     RDKit          3D

 45 49  0  0  0  0  0  0  0  0999 V2000
    5.0750    0.7177    1.2977 C   0  0  0  0  0  0  0  0  0  0  0  0
    6.3361    1.0583    1.6162 C   0  0  0  0  0  0  0  0  0  0  0  0
    7.3751    0.6407    0.7956 N   0  0  0  0  0  0  0  0  0  0  0  0
    8.7268    0.8509    0.8957 C   0  0  0  0  0  0  0  0  0  0  0  0
    9.3902    0.2863   -0.0911 N   0  0  0  0  0  0  0  0  0  0  0  0
    8.4329   -0.3182   -0.8694 C   0  0  0  0  0  0  0  0  0  0  0  0
    7.1771   -0.1161   -0.3452 C   0  0  0  0  0  0  0  0  0  0  0  0
    5.8440   -0.4793   -0.6857 C   0  0  0  0  0  0  0  0  0  0  0  0
    4.7987   -0.0906    0.0911 C   0  0  0  0  0  0  0  0  0  0  0  0
    3.4386   -0.4501   -0.2394 C   0  0  0  0  0  0  0  0  0  0  0  0
    3.0414   -1.1753   -1.2962 N   0  0  0  0  0  0  0  0  0  0  0  0
    1.6566   -1.2315   -1.1555 O   0  0  0  0  0  0  0  0  0  0  0  0
    1.3401   -0.5330   -0.0213 C   0  0  0  0  0  0  0  0  0  0  0  0
    0.0006   -0.3709    0.4554 C   0  0  0  0  0  0  0  0  0  0  0  0
   -0.4397    0.3136    1.5770 C   0  0  0  0  0  0  0  0  0  0  0  0
   -1.8488    0.1883    1.6215 C   0  0  0  0  0  0  0  0  0  0  0  0
   -2.2035   -0.5608    0.5204 C   0  0  0  0  0  0  0  0  0  0  0  0
   -3.5119   -1.0502   -0.0082 C   0  0  0  0  0  0  0  0  0  0  0  0
   -3.9887   -0.2673   -1.1603 N   0  0  0  0  0  0  0  0  0  0  0  0
   -5.0649   -0.9620   -1.8816 C   0  0  0  0  0  0  0  0  0  0  0  0
   -6.4059   -0.9620   -1.1432 C   0  0  0  0  0  0  0  0  0  0  0  0
   -6.8334    0.4547   -0.7748 C   0  0  0  0  0  0  0  0  0  0  0  0
   -5.7137    1.1921   -0.0477 C   0  0  0  0  0  0  0  0  0  0  0  0
   -4.3957    1.1041   -0.8219 C   0  0  0  0  0  0  0  0  0  0  0  0
   -1.0873   -0.9119   -0.1803 O   0  0  0  0  0  0  0  0  0  0  0  0
    2.4070   -0.0365    0.5741 N   0  0  0  0  0  0  0  0  0  0  0  0
    4.2411    1.0307    1.9193 H   0  0  0  0  0  0  0  0  0  0  0  0
    6.5887    1.6484    2.4879 H   0  0  0  0  0  0  0  0  0  0  0  0
    9.1652    1.4197    1.7042 H   0  0  0  0  0  0  0  0  0  0  0  0
    8.7022   -0.8651   -1.7639 H   0  0  0  0  0  0  0  0  0  0  0  0
    5.6880   -1.0741   -1.5825 H   0  0  0  0  0  0  0  0  0  0  0  0
    0.1943    0.8423    2.2759 H   0  0  0  0  0  0  0  0  0  0  0  0
   -2.5252    0.5987    2.3581 H   0  0  0  0  0  0  0  0  0  0  0  0
   -4.2480   -1.0776    0.8031 H   0  0  0  0  0  0  0  0  0  0  0  0
   -3.3560   -2.0932   -0.3149 H   0  0  0  0  0  0  0  0  0  0  0  0
   -4.7683   -1.9925   -2.1124 H   0  0  0  0  0  0  0  0  0  0  0  0
   -5.1969   -0.4746   -2.8567 H   0  0  0  0  0  0  0  0  0  0  0  0
   -6.3372   -1.5740   -0.2360 H   0  0  0  0  0  0  0  0  0  0  0  0
   -7.1732   -1.4226   -1.7760 H   0  0  0  0  0  0  0  0  0  0  0  0
   -7.0950    1.0031   -1.6882 H   0  0  0  0  0  0  0  0  0  0  0  0
   -7.7329    0.4262   -0.1502 H   0  0  0  0  0  0  0  0  0  0  0  0
   -5.5904    0.7757    0.9589 H   0  0  0  0  0  0  0  0  0  0  0  0
   -5.9934    2.2441    0.0808 H   0  0  0  0  0  0  0  0  0  0  0  0
   -4.5023    1.6670   -1.7590 H   0  0  0  0  0  0  0  0  0  0  0  0
   -3.6077    1.6270   -0.2690 H   0  0  0  0  0  0  0  0  0  0  0  0
  1  2  2  0
  2  3  1  0
  3  4  1  0
  4  5  2  0
  5  6  1  0
  6  7  2  0
  7  8  1  0
  8  9  2  0
  9 10  1  0
 10 11  2  0
 11 12  1  0
 12 13  1  0
 13 14  1  0
 14 15  2  0
 15 16  1  0
 16 17  2  0
 17 18  1  0
 18 19  1  0
 19 20  1  0
 20 21  1  0
 21 22  1  0
 22 23  1  0
 23 24  1  0
 17 25  1  0
 13 26  2  0
  9  1  1  0
 26 10  1  0
  7  3  1  0
 25 14  1  0
 24 19  1  0
  1 27  1  0
  2 28  1  0
  4 29  1  0
  6 30  1  0
  8 31  1  0
 15 32  1  0
 16 33  1  0
 18 34  1  0
 18 35  1  0
 20 36  1  0
 20 37  1  0
 21 38  1  0
 21 39  1  0
 22 40  1  0
 22 41  1  0
 23 42  1  0
 23 43  1  0
 24 44  1  0
 24 45  1  0
M  END
$$$$
OCNT-2310634
     RDKit          3D

 51 54  0  0  0  0  0  0  0  0999 V2000
    3.6791   -1.6962   -0.7127 C   0  0  0  0  0  0  0  0  0  0  0  0
    3.0745   -0.3037   -0.4909 C   0  0  0  0  0  0  0  0  0  0  0  0
    3.8779    0.8310   -1.1421 C   0  0  0  0  0  0  0  0  0  0  0  0
    5.2769    0.9417   -0.5844 C   0  0  0  0  0  0  0  0  0  0  0  0
    6.3508    0.3152   -1.2319 C   0  0  0  0  0  0  0  0  0  0  0  0
    7.6434    0.4043   -0.7130 C   0  0  0  0  0  0  0  0  0  0  0  0
    7.8778    1.1243    0.4557 C   0  0  0  0  0  0  0  0  0  0  0  0
    6.8207    1.7576    1.1044 C   0  0  0  0  0  0  0  0  0  0  0  0
    5.5274    1.6686    0.5870 C   0  0  0  0  0  0  0  0  0  0  0  0
    2.5953   -0.0516    0.9614 C   0  0  0  0  0  0  0  0  0  0  0  0
    1.2671   -0.4618    0.5099 N   0  0  0  0  0  0  0  0  0  0  0  0
    0.0897   -0.2172    1.1879 C   0  0  0  0  0  0  0  0  0  0  0  0
    0.0941    0.1379    2.3618 O   0  0  0  0  0  0  0  0  0  0  0  0
   -1.0248   -0.4325    0.4056 N   0  0  0  0  0  0  0  0  0  0  0  0
   -2.3760   -0.2331    0.7461 C   0  0  0  0  0  0  0  0  0  0  0  0
   -2.8009    0.3421    1.9392 C   0  0  0  0  0  0  0  0  0  0  0  0
   -4.1648    0.5138    2.1881 C   0  0  0  0  0  0  0  0  0  0  0  0
   -5.1220    0.1267    1.2463 C   0  0  0  0  0  0  0  0  0  0  0  0
   -6.4161    0.3612    1.6322 O   0  0  0  0  0  0  0  0  0  0  0  0
   -7.2912    0.7208    0.5627 C   0  0  0  0  0  0  0  0  0  0  0  0
   -7.8848   -0.5210   -0.1097 C   0  0  0  0  0  0  0  0  0  0  0  0
   -6.9184   -1.5622   -0.4792 N   0  0  0  0  0  0  0  0  0  0  0  0
   -5.6784   -0.9958   -1.0086 C   0  0  0  0  0  0  0  0  0  0  0  0
   -4.7235   -0.4903    0.0517 C   0  0  0  0  0  0  0  0  0  0  0  0
   -3.3400   -0.6391   -0.1883 C   0  0  0  0  0  0  0  0  0  0  0  0
    1.5787   -0.2572   -0.8999 C   0  0  0  0  0  0  0  0  0  0  0  0
    3.0161   -2.4881   -0.3459 H   0  0  0  0  0  0  0  0  0  0  0  0
    4.6298   -1.8079   -0.1823 H   0  0  0  0  0  0  0  0  0  0  0  0
    3.8538   -1.8804   -1.7780 H   0  0  0  0  0  0  0  0  0  0  0  0
    3.9286    0.6782   -2.2281 H   0  0  0  0  0  0  0  0  0  0  0  0
    3.3714    1.7957   -1.0062 H   0  0  0  0  0  0  0  0  0  0  0  0
    6.1872   -0.2514   -2.1454 H   0  0  0  0  0  0  0  0  0  0  0  0
    8.4679   -0.0879   -1.2217 H   0  0  0  0  0  0  0  0  0  0  0  0
    8.8842    1.1949    0.8596 H   0  0  0  0  0  0  0  0  0  0  0  0
    7.0029    2.3239    2.0140 H   0  0  0  0  0  0  0  0  0  0  0  0
    4.7193    2.1788    1.1054 H   0  0  0  0  0  0  0  0  0  0  0  0
    3.0168   -0.7080    1.7271 H   0  0  0  0  0  0  0  0  0  0  0  0
    2.6104    0.9868    1.3071 H   0  0  0  0  0  0  0  0  0  0  0  0
   -0.8398   -0.8886   -0.4737 H   0  0  0  0  0  0  0  0  0  0  0  0
   -2.0995    0.6734    2.6984 H   0  0  0  0  0  0  0  0  0  0  0  0
   -4.4822    0.9665    3.1247 H   0  0  0  0  0  0  0  0  0  0  0  0
   -6.7935    1.3870   -0.1554 H   0  0  0  0  0  0  0  0  0  0  0  0
   -8.1078    1.3063    1.0005 H   0  0  0  0  0  0  0  0  0  0  0  0
   -8.6125   -0.9814    0.5687 H   0  0  0  0  0  0  0  0  0  0  0  0
   -8.4432   -0.2128   -1.0011 H   0  0  0  0  0  0  0  0  0  0  0  0
   -6.6802   -2.0911    0.3625 H   0  0  0  0  0  0  0  0  0  0  0  0
   -5.8764   -0.2056   -1.7438 H   0  0  0  0  0  0  0  0  0  0  0  0
   -5.1881   -1.8071   -1.5611 H   0  0  0  0  0  0  0  0  0  0  0  0
   -3.0182   -1.0979   -1.1215 H   0  0  0  0  0  0  0  0  0  0  0  0
    1.2067    0.7014   -1.2747 H   0  0  0  0  0  0  0  0  0  0  0  0
    1.2343   -1.0682   -1.5485 H   0  0  0  0  0  0  0  0  0  0  0  0
  1  2  1  0
  2  3  1  0
  3  4  1  0
  4  5  2  0
  5  6  1  0
  6  7  2  0
  7  8  1  0
  8  9  2  0
  2 10  1  0
 10 11  1  0
 11 12  1  0
 12 13  2  0
 12 14  1  0
 14 15  1  0
 15 16  1  0
 16 17  2  0
 17 18  1  0
 18 19  1  0
 19 20  1  0
 20 21  1  0
 21 22  1  0
 22 23  1  0
 23 24  1  0
 24 25  1  0
 11 26  1  0
 26  2  1  0
  9  4  1  0
 25 15  2  0
 24 18  2  0
  1 27  1  0
  1 28  1  0
  1 29  1  0
  3 30  1  0
  3 31  1  0
  5 32  1  0
  6 33  1  0
  7 34  1  0
  8 35  1  0
  9 36  1  0
 10 37  1  0
 10 38  1  0
 14 39  1  0
 16 40  1  0
 17 41  1  0
 20 42  1  0
 20 43  1  0
 21 44  1  0
 21 45  1  0
 22 46  1  0
 23 47  1  0
 23 48  1  0
 25 49  1  0
 26 50  1  0
 26 51  1  0
M  END
$$$$
OCNT-2310635
     RDKit          3D

 47 49  0  0  0  0  0  0  0  0999 V2000
    3.8390   -0.3009   -1.6904 C   0  0  0  0  0  0  0  0  0  0  0  0
    3.4802    0.3738   -0.4946 O   0  0  0  0  0  0  0  0  0  0  0  0
    2.8100   -0.3583    0.4554 C   0  0  0  0  0  0  0  0  0  0  0  0
    2.6025   -1.7385    0.4098 C   0  0  0  0  0  0  0  0  0  0  0  0
    1.9151   -2.3784    1.4436 C   0  0  0  0  0  0  0  0  0  0  0  0
    1.4413   -1.6474    2.5303 C   0  0  0  0  0  0  0  0  0  0  0  0
    1.6477   -0.2696    2.5857 C   0  0  0  0  0  0  0  0  0  0  0  0
    2.3138    0.3906    1.5458 C   0  0  0  0  0  0  0  0  0  0  0  0
    2.5027    1.7990    1.5834 N   0  0  0  0  0  0  0  0  0  0  0  0
    1.2384    2.5611    1.5318 C   0  0  0  0  0  0  0  0  0  0  0  0
    0.6094    2.5066    0.1235 C   0  0  0  0  0  0  0  0  0  0  0  0
    1.2759    2.8837   -0.8488 O   0  0  0  0  0  0  0  0  0  0  0  0
   -0.6946    2.0379   -0.0153 N   0  0  0  0  0  0  0  0  0  0  0  0
   -1.4786    1.4877    1.0933 C   0  0  0  0  0  0  0  0  0  0  0  0
   -2.9336    1.1226    0.7529 C   0  0  0  0  0  0  0  0  0  0  0  0
   -3.1045   -0.1061   -0.0417 N   0  0  0  0  0  0  0  0  0  0  0  0
   -4.3361   -0.8542    0.1985 C   0  0  0  0  0  0  0  0  0  0  0  0
   -2.1529   -0.6020   -0.9254 C   0  0  0  0  0  0  0  0  0  0  0  0
   -2.0967   -1.9809   -1.2203 C   0  0  0  0  0  0  0  0  0  0  0  0
   -1.1368   -2.5329   -2.0761 C   0  0  0  0  0  0  0  0  0  0  0  0
   -0.1901   -1.7160   -2.6713 C   0  0  0  0  0  0  0  0  0  0  0  0
   -0.2160   -0.3509   -2.4136 C   0  0  0  0  0  0  0  0  0  0  0  0
   -1.1913    0.2135   -1.5624 C   0  0  0  0  0  0  0  0  0  0  0  0
   -1.1530    1.7087   -1.3581 C   0  0  0  0  0  0  0  0  0  0  0  0
    2.9631   -0.7318   -2.1827 H   0  0  0  0  0  0  0  0  0  0  0  0
    4.5980   -1.0655   -1.4985 H   0  0  0  0  0  0  0  0  0  0  0  0
    4.2734    0.4360   -2.3736 H   0  0  0  0  0  0  0  0  0  0  0  0
    2.9641   -2.3442   -0.4132 H   0  0  0  0  0  0  0  0  0  0  0  0
    1.7546   -3.4525    1.4021 H   0  0  0  0  0  0  0  0  0  0  0  0
    0.9188   -2.1514    3.3384 H   0  0  0  0  0  0  0  0  0  0  0  0
    1.2959    0.2872    3.4490 H   0  0  0  0  0  0  0  0  0  0  0  0
    3.0489    2.0336    0.7428 H   0  0  0  0  0  0  0  0  0  0  0  0
    1.4728    3.6154    1.7210 H   0  0  0  0  0  0  0  0  0  0  0  0
    0.5638    2.2570    2.3325 H   0  0  0  0  0  0  0  0  0  0  0  0
   -1.4978    2.2481    1.8819 H   0  0  0  0  0  0  0  0  0  0  0  0
   -0.9506    0.6126    1.4855 H   0  0  0  0  0  0  0  0  0  0  0  0
   -3.4500    0.9831    1.7108 H   0  0  0  0  0  0  0  0  0  0  0  0
   -3.4426    1.9557    0.2532 H   0  0  0  0  0  0  0  0  0  0  0  0
   -4.1652   -1.6576    0.9217 H   0  0  0  0  0  0  0  0  0  0  0  0
   -5.1157   -0.2021    0.6079 H   0  0  0  0  0  0  0  0  0  0  0  0
   -4.7405   -1.2757   -0.7283 H   0  0  0  0  0  0  0  0  0  0  0  0
   -2.7935   -2.6727   -0.7561 H   0  0  0  0  0  0  0  0  0  0  0  0
   -1.1311   -3.6033   -2.2616 H   0  0  0  0  0  0  0  0  0  0  0  0
    0.5654   -2.1341   -3.3282 H   0  0  0  0  0  0  0  0  0  0  0  0
    0.5357    0.2889   -2.8747 H   0  0  0  0  0  0  0  0  0  0  0  0
   -2.1437    2.1472   -1.5243 H   0  0  0  0  0  0  0  0  0  0  0  0
   -0.5157    2.1771   -2.1160 H   0  0  0  0  0  0  0  0  0  0  0  0
  1  2  1  0
  2  3  1  0
  3  4  2  0
  4  5  1  0
  5  6  2  0
  6  7  1  0
  7  8  2  0
  8  9  1  0
  9 10  1  0
 10 11  1  0
 11 12  2  0
 11 13  1  0
 13 14  1  0
 14 15  1  0
 15 16  1  0
 16 17  1  0
 16 18  1  0
 18 19  2  0
 19 20  1  0
 20 21  2  0
 21 22  1  0
 22 23  2  0
 23 24  1  0
  8  3  1  0
 24 13  1  0
 23 18  1  0
  1 25  1  0
  1 26  1  0
  1 27  1  0
  4 28  1  0
  5 29  1  0
  6 30  1  0
  7 31  1  0
  9 32  1  0
 10 33  1  0
 10 34  1  0
 14 35  1  0
 14 36  1  0
 15 37  1  0
 15 38  1  0
 17 39  1  0
 17 40  1  0
 17 41  1  0
 19 42  1  0
 20 43  1  0
 21 44  1  0
 22 45  1  0
 24 46  1  0
 24 47  1  0
M  END
$$$$
OCNT-2310639
     RDKit          3D

 49 52  0  0  0  0  0  0  0  0999 V2000
   -2.1524    0.5517    3.4133 O   0  0  0  0  0  0  0  0  0  0  0  0
   -2.4523    0.0726    2.3267 C   0  0  0  0  0  0  0  0  0  0  0  0
   -1.5355   -0.4595    1.4408 N   0  0  0  0  0  0  0  0  0  0  0  0
   -0.1400   -0.5722    1.8259 C   0  0  0  0  0  0  0  0  0  0  0  0
    0.7769   -0.7890    0.6152 C   0  0  0  0  0  0  0  0  0  0  0  0
    0.8104    0.4378   -0.3154 C   0  0  0  0  0  0  0  0  0  0  0  0
    2.1393    1.1886   -0.2387 C   0  0  0  0  0  0  0  0  0  0  0  0
    3.2561    0.3245   -0.6267 N   0  0  0  0  0  0  0  0  0  0  0  0
    4.5437    1.0147   -0.4585 C   0  0  0  0  0  0  0  0  0  0  0  0
    5.6409    0.3945   -1.2843 C   0  0  0  0  0  0  0  0  0  0  0  0
    6.6855   -0.4069   -0.8625 C   0  0  0  0  0  0  0  0  0  0  0  0
    7.5421   -0.7941   -1.9338 C   0  0  0  0  0  0  0  0  0  0  0  0
    7.1319   -0.2682   -3.1383 C   0  0  0  0  0  0  0  0  0  0  0  0
    5.7191    0.6809   -2.9756 S   0  0  0  0  0  0  0  0  0  0  0  0
    3.2235   -1.0113   -0.0174 C   0  0  0  0  0  0  0  0  0  0  0  0
    2.1863   -1.1647    1.0947 C   0  0  0  0  0  0  0  0  0  0  0  0
   -3.8783    0.0076    1.9148 C   0  0  0  0  0  0  0  0  0  0  0  0
   -4.8457   -0.0866    2.9127 C   0  0  0  0  0  0  0  0  0  0  0  0
   -6.1665   -0.1431    2.5245 C   0  0  0  0  0  0  0  0  0  0  0  0
   -6.5629   -0.1043    1.2358 N   0  0  0  0  0  0  0  0  0  0  0  0
   -5.6155    0.0159    0.2664 C   0  0  0  0  0  0  0  0  0  0  0  0
   -6.0547    0.0835   -1.0923 N   0  0  0  0  0  0  0  0  0  0  0  0
   -5.3058    0.2241   -2.2382 C   0  0  0  0  0  0  0  0  0  0  0  0
   -6.0779    0.2303   -3.3010 N   0  0  0  0  0  0  0  0  0  0  0  0
   -7.3217    0.0957   -2.7645 C   0  0  0  0  0  0  0  0  0  0  0  0
   -7.3670    0.0027   -1.4368 N   0  0  0  0  0  0  0  0  0  0  0  0
   -4.2579    0.0748    0.5693 C   0  0  0  0  0  0  0  0  0  0  0  0
   -1.8747   -1.1214    0.7554 H   0  0  0  0  0  0  0  0  0  0  0  0
   -0.0733   -1.4229    2.5144 H   0  0  0  0  0  0  0  0  0  0  0  0
    0.1550    0.3258    2.3821 H   0  0  0  0  0  0  0  0  0  0  0  0
    0.3773   -1.6314    0.0333 H   0  0  0  0  0  0  0  0  0  0  0  0
   -0.0121    1.1302   -0.1013 H   0  0  0  0  0  0  0  0  0  0  0  0
    0.6553    0.0995   -1.3494 H   0  0  0  0  0  0  0  0  0  0  0  0
    2.2778    1.5918    0.7735 H   0  0  0  0  0  0  0  0  0  0  0  0
    2.0893    2.0453   -0.9228 H   0  0  0  0  0  0  0  0  0  0  0  0
    4.4532    2.0654   -0.7692 H   0  0  0  0  0  0  0  0  0  0  0  0
    4.8319    1.0384    0.6019 H   0  0  0  0  0  0  0  0  0  0  0  0
    6.8275   -0.7045    0.1699 H   0  0  0  0  0  0  0  0  0  0  0  0
    8.4174   -1.4227   -1.8275 H   0  0  0  0  0  0  0  0  0  0  0  0
    7.5939   -0.3934   -4.1089 H   0  0  0  0  0  0  0  0  0  0  0  0
    4.1979   -1.3108    0.3863 H   0  0  0  0  0  0  0  0  0  0  0  0
    2.9935   -1.7312   -0.8133 H   0  0  0  0  0  0  0  0  0  0  0  0
    2.1857   -2.2005    1.4559 H   0  0  0  0  0  0  0  0  0  0  0  0
    2.4806   -0.5400    1.9487 H   0  0  0  0  0  0  0  0  0  0  0  0
   -4.5752   -0.1163    3.9640 H   0  0  0  0  0  0  0  0  0  0  0  0
   -6.9671   -0.2217    3.2553 H   0  0  0  0  0  0  0  0  0  0  0  0
   -4.2309    0.3178   -2.2517 H   0  0  0  0  0  0  0  0  0  0  0  0
   -8.2254    0.0639   -3.3600 H   0  0  0  0  0  0  0  0  0  0  0  0
   -3.4991    0.1973   -0.1928 H   0  0  0  0  0  0  0  0  0  0  0  0
  1  2  2  0
  2  3  1  0
  3  4  1  0
  4  5  1  0
  5  6  1  0
  6  7  1  0
  7  8  1  0
  8  9  1  0
  9 10  1  0
 10 11  2  0
 11 12  1  0
 12 13  2  0
 13 14  1  0
  8 15  1  0
 15 16  1  0
  2 17  1  0
 17 18  2  0
 18 19  1  0
 19 20  2  0
 20 21  1  0
 21 22  1  0
 22 23  1  0
 23 24  2  0
 24 25  1  0
 25 26  2  0
 21 27  2  0
 16  5  1  0
 27 17  1  0
 14 10  1  0
 26 22  1  0
  3 28  1  0
  4 29  1  0
  4 30  1  0
  5 31  1  0
  6 32  1  0
  6 33  1  0
  7 34  1  0
  7 35  1  0
  9 36  1  0
  9 37  1  0
 11 38  1  0
 12 39  1  0
 13 40  1  0
 15 41  1  0
 15 42  1  0
 16 43  1  0
 16 44  1  0
 18 45  1  0
 19 46  1  0
 23 47  1  0
 25 48  1  0
 27 49  1  0
M  END
$$$$
OCNT-2310648
     RDKit          3D

 48 51  0  0  0  0  0  0  0  0999 V2000
    7.1861    3.2416    1.4239 N   0  0  0  0  0  0  0  0  0  0  0  0
    6.6958    2.8256    0.2166 C   0  0  0  0  0  0  0  0  0  0  0  0
    7.0596    3.3580   -0.8239 O   0  0  0  0  0  0  0  0  0  0  0  0
    5.6804    1.7393    0.2266 C   0  0  0  0  0  0  0  0  0  0  0  0
    4.8225    1.6200   -0.8693 C   0  0  0  0  0  0  0  0  0  0  0  0
    3.8531    0.6111   -0.8978 C   0  0  0  0  0  0  0  0  0  0  0  0
    3.7230   -0.3098    0.1571 C   0  0  0  0  0  0  0  0  0  0  0  0
    2.6769   -1.3507    0.0655 C   0  0  0  0  0  0  0  0  0  0  0  0
    1.7621   -1.3866   -0.8860 N   0  0  0  0  0  0  0  0  0  0  0  0
    0.9010   -2.4643   -0.7165 C   0  0  0  0  0  0  0  0  0  0  0  0
   -0.2155   -2.6723   -1.7011 C   0  0  0  0  0  0  0  0  0  0  0  0
   -1.4435   -1.9210   -1.4057 N   0  0  0  0  0  0  0  0  0  0  0  0
   -2.1031   -2.3107   -0.1483 C   0  0  0  0  0  0  0  0  0  0  0  0
   -3.4499   -1.5737    0.0602 C   0  0  0  0  0  0  0  0  0  0  0  0
   -3.2535   -0.1090   -0.0011 N   0  0  0  0  0  0  0  0  0  0  0  0
   -4.4342    0.6139    0.2559 C   0  0  0  0  0  0  0  0  0  0  0  0
   -5.0502    0.4999    1.5087 C   0  0  0  0  0  0  0  0  0  0  0  0
   -6.2111    1.2212    1.7894 C   0  0  0  0  0  0  0  0  0  0  0  0
   -6.7273    2.0503    0.8129 C   0  0  0  0  0  0  0  0  0  0  0  0
   -7.8381    2.7607    1.0418 F   0  0  0  0  0  0  0  0  0  0  0  0
   -6.0685    2.1345   -0.3961 C   0  0  0  0  0  0  0  0  0  0  0  0
   -4.9400    1.4424   -0.6875 N   0  0  0  0  0  0  0  0  0  0  0  0
   -2.5866    0.3057   -1.2579 C   0  0  0  0  0  0  0  0  0  0  0  0
   -1.2520   -0.4555   -1.4378 C   0  0  0  0  0  0  0  0  0  0  0  0
    1.2079   -3.2692    0.3631 C   0  0  0  0  0  0  0  0  0  0  0  0
    2.5621   -2.6462    1.1986 S   0  0  0  0  0  0  0  0  0  0  0  0
    4.6024   -0.1835    1.2460 C   0  0  0  0  0  0  0  0  0  0  0  0
    5.5740    0.8276    1.2814 C   0  0  0  0  0  0  0  0  0  0  0  0
    7.7689    4.0691    1.3938 H   0  0  0  0  0  0  0  0  0  0  0  0
    6.7032    3.0512    2.2897 H   0  0  0  0  0  0  0  0  0  0  0  0
    4.9009    2.3125   -1.7055 H   0  0  0  0  0  0  0  0  0  0  0  0
    3.1931    0.5448   -1.7626 H   0  0  0  0  0  0  0  0  0  0  0  0
   -0.4548   -3.7417   -1.7612 H   0  0  0  0  0  0  0  0  0  0  0  0
    0.1405   -2.3990   -2.7026 H   0  0  0  0  0  0  0  0  0  0  0  0
   -2.3023   -3.3889   -0.1539 H   0  0  0  0  0  0  0  0  0  0  0  0
   -1.4587   -2.0968    0.7135 H   0  0  0  0  0  0  0  0  0  0  0  0
   -3.8479   -1.8827    1.0335 H   0  0  0  0  0  0  0  0  0  0  0  0
   -4.1650   -1.8920   -0.7106 H   0  0  0  0  0  0  0  0  0  0  0  0
   -4.6135   -0.1280    2.2781 H   0  0  0  0  0  0  0  0  0  0  0  0
   -6.6966    1.1454    2.7555 H   0  0  0  0  0  0  0  0  0  0  0  0
   -6.4391    2.7799   -1.1849 H   0  0  0  0  0  0  0  0  0  0  0  0
   -3.2308    0.1045   -2.1249 H   0  0  0  0  0  0  0  0  0  0  0  0
   -2.3637    1.3800   -1.2329 H   0  0  0  0  0  0  0  0  0  0  0  0
   -0.5660   -0.1329   -0.6448 H   0  0  0  0  0  0  0  0  0  0  0  0
   -0.8157   -0.1588   -2.3990 H   0  0  0  0  0  0  0  0  0  0  0  0
    0.7059   -4.1666    0.6943 H   0  0  0  0  0  0  0  0  0  0  0  0
    4.5557   -0.8684    2.0894 H   0  0  0  0  0  0  0  0  0  0  0  0
    6.2526    0.8690    2.1287 H   0  0  0  0  0  0  0  0  0  0  0  0
  1  2  1  0
  2  3  2  0
  2  4  1  0
  4  5  1  0
  5  6  2  0
  6  7  1  0
  7  8  1  0
  8  9  2  0
  9 10  1  0
 10 11  1  0
 11 12  1  0
 12 13  1  0
 13 14  1  0
 14 15  1  0
 15 16  1  0
 16 17  2  0
 17 18  1  0
 18 19  2  0
 19 20  1  0
 19 21  1  0
 21 22  2  0
 15 23  1  0
 23 24  1  0
 10 25  2  0
 25 26  1  0
  7 27  2  0
 27 28  1  0
 28  4  2  0
 26  8  1  0
 24 12  1  0
 22 16  1  0
  1 29  1  0
  1 30  1  0
  5 31  1  0
  6 32  1  0
 11 33  1  0
 11 34  1  0
 13 35  1  0
 13 36  1  0
 14 37  1  0
 14 38  1  0
 17 39  1  0
 18 40  1  0
 21 41  1  0
 23 42  1  0
 23 43  1  0
 24 44  1  0
 24 45  1  0
 25 46  1  0
 27 47  1  0
 28 48  1  0
M  END
$$$$
OCNT-2310650
     RDKit          3D

 41 44  0  0  0  0  0  0  0  0999 V2000
    6.3010    0.2623   -1.8444 C   0  0  0  0  0  0  0  0  0  0  0  0
    5.3848   -0.2947   -0.9652 C   0  0  0  0  0  0  0  0  0  0  0  0
    4.1268    0.3004   -0.8422 C   0  0  0  0  0  0  0  0  0  0  0  0
    3.1149   -0.2377    0.0644 C   0  0  0  0  0  0  0  0  0  0  0  0
    1.7350   -0.2479   -0.0050 C   0  0  0  0  0  0  0  0  0  0  0  0
    1.2912   -0.9033    1.1694 C   0  0  0  0  0  0  0  0  0  0  0  0
   -0.1174   -1.2002    1.6067 C   0  0  0  0  0  0  0  0  0  0  0  0
   -0.8688    0.0936    1.9582 C   0  0  0  0  0  0  0  0  0  0  0  0
   -2.3783   -0.1206    1.9787 C   0  0  0  0  0  0  0  0  0  0  0  0
   -2.8551   -0.6288    0.6897 N   0  0  0  0  0  0  0  0  0  0  0  0
   -3.9422   -0.0028    0.0816 C   0  0  0  0  0  0  0  0  0  0  0  0
   -5.0409    0.4706    0.8138 C   0  0  0  0  0  0  0  0  0  0  0  0
   -6.1285    1.0821    0.2720 N   0  0  0  0  0  0  0  0  0  0  0  0
   -6.0998    1.1958   -1.0688 C   0  0  0  0  0  0  0  0  0  0  0  0
   -5.0420    0.7229   -1.8204 C   0  0  0  0  0  0  0  0  0  0  0  0
   -3.9614    0.1217   -1.2674 N   0  0  0  0  0  0  0  0  0  0  0  0
   -1.8806   -1.2362   -0.2195 C   0  0  0  0  0  0  0  0  0  0  0  0
   -0.8773   -2.0603    0.5818 C   0  0  0  0  0  0  0  0  0  0  0  0
    2.3226   -1.2687    1.9382 N   0  0  0  0  0  0  0  0  0  0  0  0
    3.4014   -0.8517    1.2573 N   0  0  0  0  0  0  0  0  0  0  0  0
    3.8490    1.4275   -1.6189 C   0  0  0  0  0  0  0  0  0  0  0  0
    4.8324    1.9125   -2.4663 C   0  0  0  0  0  0  0  0  0  0  0  0
    6.0540    1.3554   -2.5942 N   0  0  0  0  0  0  0  0  0  0  0  0
    7.2876   -0.1738   -1.9749 H   0  0  0  0  0  0  0  0  0  0  0  0
    5.6572   -1.1875   -0.4140 H   0  0  0  0  0  0  0  0  0  0  0  0
    1.1250    0.1532   -0.8024 H   0  0  0  0  0  0  0  0  0  0  0  0
   -0.0541   -1.8015    2.5259 H   0  0  0  0  0  0  0  0  0  0  0  0
   -0.5307    0.4633    2.9344 H   0  0  0  0  0  0  0  0  0  0  0  0
   -0.6359    0.8874    1.2355 H   0  0  0  0  0  0  0  0  0  0  0  0
   -2.8427    0.8360    2.2467 H   0  0  0  0  0  0  0  0  0  0  0  0
   -2.6444   -0.8408    2.7615 H   0  0  0  0  0  0  0  0  0  0  0  0
   -5.0900    0.3494    1.8902 H   0  0  0  0  0  0  0  0  0  0  0  0
   -6.9556    1.6757   -1.5283 H   0  0  0  0  0  0  0  0  0  0  0  0
   -5.0305    0.8131   -2.9002 H   0  0  0  0  0  0  0  0  0  0  0  0
   -1.3605   -0.4674   -0.8044 H   0  0  0  0  0  0  0  0  0  0  0  0
   -2.3851   -1.9110   -0.9227 H   0  0  0  0  0  0  0  0  0  0  0  0
   -0.1934   -2.5847   -0.0963 H   0  0  0  0  0  0  0  0  0  0  0  0
   -1.4286   -2.8410    1.1242 H   0  0  0  0  0  0  0  0  0  0  0  0
    4.3131   -1.0051    1.6723 H   0  0  0  0  0  0  0  0  0  0  0  0
    2.8918    1.9347   -1.5650 H   0  0  0  0  0  0  0  0  0  0  0  0
    4.6565    2.7900   -3.0821 H   0  0  0  0  0  0  0  0  0  0  0  0
  1  2  1  0
  2  3  2  0
  3  4  1  0
  4  5  2  0
  5  6  1  0
  6  7  1  0
  7  8  1  0
  8  9  1  0
  9 10  1  0
 10 11  1  0
 11 12  2  0
 12 13  1  0
 13 14  2  0
 14 15  1  0
 15 16  2  0
 10 17  1  0
 17 18  1  0
  6 19  2  0
 19 20  1  0
  3 21  1  0
 21 22  2  0
 22 23  1  0
 23  1  2  0
 20  4  1  0
 18  7  1  0
 16 11  1  0
  1 24  1  0
  2 25  1  0
  5 26  1  0
  7 27  1  0
  8 28  1  0
  8 29  1  0
  9 30  1  0
  9 31  1  0
 12 32  1  0
 14 33  1  0
 15 34  1  0
 17 35  1  0
 17 36  1  0
 18 37  1  0
 18 38  1  0
 20 39  1  0
 21 40  1  0
 22 41  1  0
M  END
$$$$
OCNT-2310655
     RDKit          3D

 47 49  0  0  0  0  0  0  0  0999 V2000
   -6.9484   -0.0238    1.1260 C   0  0  0  0  0  0  0  0  0  0  0  0
   -5.9366    1.1042    1.0110 C   0  0  0  0  0  0  0  0  0  0  0  0
   -4.7719    0.7025    0.2321 N   0  0  0  0  0  0  0  0  0  0  0  0
   -3.7334    0.1433    0.9419 N   0  0  0  0  0  0  0  0  0  0  0  0
   -2.6944   -0.2626    0.2800 C   0  0  0  0  0  0  0  0  0  0  0  0
   -1.5279   -0.7893    1.0888 C   0  0  0  0  0  0  0  0  0  0  0  0
   -0.5106   -1.5512    0.2535 C   0  0  0  0  0  0  0  0  0  0  0  0
   -0.1671   -0.7740   -0.9526 N   0  0  0  0  0  0  0  0  0  0  0  0
    0.9793   -1.4052   -1.6662 C   0  0  0  0  0  0  0  0  0  0  0  0
    2.2969   -1.1431   -0.9232 C   0  0  0  0  0  0  0  0  0  0  0  0
    3.1413   -2.0245   -0.8060 O   0  0  0  0  0  0  0  0  0  0  0  0
    2.3467    0.1482   -0.4227 N   0  0  0  0  0  0  0  0  0  0  0  0
    3.4277    0.7685    0.2352 C   0  0  0  0  0  0  0  0  0  0  0  0
    3.0959    1.7278    1.2025 C   0  0  0  0  0  0  0  0  0  0  0  0
    4.0974    2.3856    1.9166 C   0  0  0  0  0  0  0  0  0  0  0  0
    3.6693    3.5392    3.1199 Cl  0  0  0  0  0  0  0  0  0  0  0  0
    5.4388    2.1226    1.6601 C   0  0  0  0  0  0  0  0  0  0  0  0
    5.7817    1.2030    0.6689 C   0  0  0  0  0  0  0  0  0  0  0  0
    4.7836    0.5213   -0.0424 C   0  0  0  0  0  0  0  0  0  0  0  0
    5.1283   -0.2449   -1.1260 O   0  0  0  0  0  0  0  0  0  0  0  0
    6.0513   -1.2828   -0.7971 C   0  0  0  0  0  0  0  0  0  0  0  0
   -1.3367   -0.7486   -1.8461 C   0  0  0  0  0  0  0  0  0  0  0  0
   -2.5579   -0.1900   -1.1917 C   0  0  0  0  0  0  0  0  0  0  0  0
   -3.5692    0.3833   -1.8513 C   0  0  0  0  0  0  0  0  0  0  0  0
   -4.7744    0.8609   -1.1455 C   0  0  0  0  0  0  0  0  0  0  0  0
   -5.6910    1.3460   -1.8034 O   0  0  0  0  0  0  0  0  0  0  0  0
   -7.8115    0.2973    1.7171 H   0  0  0  0  0  0  0  0  0  0  0  0
   -6.5058   -0.8994    1.6123 H   0  0  0  0  0  0  0  0  0  0  0  0
   -7.3054   -0.3356    0.1390 H   0  0  0  0  0  0  0  0  0  0  0  0
   -5.6013    1.4167    2.0065 H   0  0  0  0  0  0  0  0  0  0  0  0
   -6.4069    1.9714    0.5342 H   0  0  0  0  0  0  0  0  0  0  0  0
   -1.9114   -1.4381    1.8848 H   0  0  0  0  0  0  0  0  0  0  0  0
   -1.0496    0.0739    1.5688 H   0  0  0  0  0  0  0  0  0  0  0  0
    0.3752   -1.7173    0.8780 H   0  0  0  0  0  0  0  0  0  0  0  0
   -0.9024   -2.5416   -0.0145 H   0  0  0  0  0  0  0  0  0  0  0  0
    1.1014   -0.9636   -2.6631 H   0  0  0  0  0  0  0  0  0  0  0  0
    0.8341   -2.4856   -1.7837 H   0  0  0  0  0  0  0  0  0  0  0  0
    1.4217    0.5538   -0.3044 H   0  0  0  0  0  0  0  0  0  0  0  0
    2.0554    1.9508    1.4227 H   0  0  0  0  0  0  0  0  0  0  0  0
    6.2195    2.6470    2.2044 H   0  0  0  0  0  0  0  0  0  0  0  0
    6.8307    1.0560    0.4286 H   0  0  0  0  0  0  0  0  0  0  0  0
    5.9831   -2.0501   -1.5743 H   0  0  0  0  0  0  0  0  0  0  0  0
    5.8185   -1.7530    0.1654 H   0  0  0  0  0  0  0  0  0  0  0  0
    7.0758   -0.8980   -0.7976 H   0  0  0  0  0  0  0  0  0  0  0  0
   -1.0945   -0.1367   -2.7247 H   0  0  0  0  0  0  0  0  0  0  0  0
   -1.5659   -1.7604   -2.2081 H   0  0  0  0  0  0  0  0  0  0  0  0
   -3.5794    0.4964   -2.9281 H   0  0  0  0  0  0  0  0  0  0  0  0
  1  2  1  0
  2  3  1  0
  3  4  1  0
  4  5  2  0
  5  6  1  0
  6  7  1  0
  7  8  1  0
  8  9  1  0
  9 10  1  0
 10 11  2  0
 10 12  1  0
 12 13  1  0
 13 14  1  0
 14 15  2  0
 15 16  1  0
 15 17  1  0
 17 18  2  0
 18 19  1  0
 19 20  1  0
 20 21  1  0
  8 22  1  0
 22 23  1  0
 23 24  2  0
 24 25  1  0
 25 26  2  0
 25  3  1  0
 23  5  1  0
 19 13  2  0
  1 27  1  0
  1 28  1  0
  1 29  1  0
  2 30  1  0
  2 31  1  0
  6 32  1  0
  6 33  1  0
  7 34  1  0
  7 35  1  0
  9 36  1  0
  9 37  1  0
 12 38  1  0
 14 39  1  0
 17 40  1  0
 18 41  1  0
 21 42  1  0
 21 43  1  0
 21 44  1  0
 22 45  1  0
 22 46  1  0
 24 47  1  0
M  END
$$$$
OCNT-2310665
     RDKit          3D

 50 52  0  0  0  0  0  0  0  0999 V2000
    1.6126    2.0970   -1.6003 O   0  0  0  0  0  0  0  0  0  0  0  0
    1.7201    0.9653   -1.1431 C   0  0  0  0  0  0  0  0  0  0  0  0
    0.6512    0.1183   -0.9376 N   0  0  0  0  0  0  0  0  0  0  0  0
   -0.7231    0.5502   -1.1652 C   0  0  0  0  0  0  0  0  0  0  0  0
   -1.2477    1.3561    0.0265 C   0  0  0  0  0  0  0  0  0  0  0  0
   -2.7340    1.6801   -0.1401 C   0  0  0  0  0  0  0  0  0  0  0  0
   -3.5829    0.4943   -0.3760 N   0  0  0  0  0  0  0  0  0  0  0  0
   -3.7401   -0.3609    0.8243 C   0  0  0  0  0  0  0  0  0  0  0  0
   -4.6321   -1.6007    0.6114 C   0  0  0  0  0  0  0  0  0  0  0  0
   -6.0581   -1.0588    0.5896 C   0  0  0  0  0  0  0  0  0  0  0  0
   -6.0236    0.1966    1.4602 C   0  0  0  0  0  0  0  0  0  0  0  0
   -4.5734    0.3324    1.9215 C   0  0  0  0  0  0  0  0  0  0  0  0
   -3.0849   -0.2081   -1.5707 C   0  0  0  0  0  0  0  0  0  0  0  0
   -1.6270   -0.6501   -1.4534 C   0  0  0  0  0  0  0  0  0  0  0  0
    3.0660    0.4282   -0.8038 C   0  0  0  0  0  0  0  0  0  0  0  0
    4.1660    0.8799   -1.5471 C   0  0  0  0  0  0  0  0  0  0  0  0
    5.4500    0.4080   -1.2661 C   0  0  0  0  0  0  0  0  0  0  0  0
    5.6319   -0.5016   -0.2211 C   0  0  0  0  0  0  0  0  0  0  0  0
    7.2645   -1.1251    0.1241 S   0  0  0  0  0  0  0  0  0  0  0  0
    8.0012   -1.1010   -1.1295 O   0  0  0  0  0  0  0  0  0  0  0  0
    7.0961   -2.3864    0.8291 O   0  0  0  0  0  0  0  0  0  0  0  0
    7.9390    0.1068    1.2495 C   0  0  0  0  0  0  0  0  0  0  0  0
    7.9990    1.3498    0.6915 F   0  0  0  0  0  0  0  0  0  0  0  0
    7.1954    0.2376    2.3860 F   0  0  0  0  0  0  0  0  0  0  0  0
    4.5436   -0.9583    0.5295 C   0  0  0  0  0  0  0  0  0  0  0  0
    3.2600   -0.4849    0.2423 C   0  0  0  0  0  0  0  0  0  0  0  0
    0.8073   -0.8184   -0.5926 H   0  0  0  0  0  0  0  0  0  0  0  0
   -0.7222    1.2031   -2.0484 H   0  0  0  0  0  0  0  0  0  0  0  0
   -1.0793    0.8065    0.9608 H   0  0  0  0  0  0  0  0  0  0  0  0
   -0.6834    2.2918    0.1216 H   0  0  0  0  0  0  0  0  0  0  0  0
   -3.0791    2.2605    0.7203 H   0  0  0  0  0  0  0  0  0  0  0  0
   -2.8530    2.3605   -0.9944 H   0  0  0  0  0  0  0  0  0  0  0  0
   -2.7678   -0.6724    1.2199 H   0  0  0  0  0  0  0  0  0  0  0  0
   -4.5185   -2.2743    1.4723 H   0  0  0  0  0  0  0  0  0  0  0  0
   -4.3990   -2.2017   -0.2698 H   0  0  0  0  0  0  0  0  0  0  0  0
   -6.7721   -1.7975    0.9668 H   0  0  0  0  0  0  0  0  0  0  0  0
   -6.3575   -0.7990   -0.4320 H   0  0  0  0  0  0  0  0  0  0  0  0
   -6.7058    0.1206    2.3128 H   0  0  0  0  0  0  0  0  0  0  0  0
   -6.3260    1.0698    0.8710 H   0  0  0  0  0  0  0  0  0  0  0  0
   -4.3083    1.3715    2.1272 H   0  0  0  0  0  0  0  0  0  0  0  0
   -4.4437   -0.2102    2.8680 H   0  0  0  0  0  0  0  0  0  0  0  0
   -3.1809    0.4679   -2.4319 H   0  0  0  0  0  0  0  0  0  0  0  0
   -3.7174   -1.0604   -1.8339 H   0  0  0  0  0  0  0  0  0  0  0  0
   -1.3133   -1.1303   -2.3887 H   0  0  0  0  0  0  0  0  0  0  0  0
   -1.5213   -1.4104   -0.6693 H   0  0  0  0  0  0  0  0  0  0  0  0
    4.0194    1.5970   -2.3539 H   0  0  0  0  0  0  0  0  0  0  0  0
    6.2905    0.7551   -1.8644 H   0  0  0  0  0  0  0  0  0  0  0  0
    8.9498   -0.2037    1.5252 H   0  0  0  0  0  0  0  0  0  0  0  0
    4.6824   -1.6728    1.3389 H   0  0  0  0  0  0  0  0  0  0  0  0
    2.4294   -0.8178    0.8586 H   0  0  0  0  0  0  0  0  0  0  0  0
  1  2  2  0
  2  3  1  0
  3  4  1  0
  4  5  1  0
  5  6  1  0
  6  7  1  0
  7  8  1  0
  8  9  1  0
  9 10  1  0
 10 11  1  0
 11 12  1  0
  7 13  1  0
 13 14  1  0
  2 15  1  0
 15 16  1  0
 16 17  2  0
 17 18  1  0
 18 19  1  0
 19 20  2  0
 19 21  2  0
 19 22  1  0
 22 23  1  0
 22 24  1  0
 18 25  2  0
 25 26  1  0
 14  4  1  0
 26 15  2  0
 12  8  1  0
  3 27  1  0
  4 28  1  0
  5 29  1  0
  5 30  1  0
  6 31  1  0
  6 32  1  0
  8 33  1  0
  9 34  1  0
  9 35  1  0
 10 36  1  0
 10 37  1  0
 11 38  1  0
 11 39  1  0
 12 40  1  0
 12 41  1  0
 13 42  1  0
 13 43  1  0
 14 44  1  0
 14 45  1  0
 16 46  1  0
 17 47  1  0
 22 48  1  0
 25 49  1  0
 26 50  1  0
M  END
$$$$
OCNT-2310680
     RDKit          3D

 51 54  0  0  0  0  0  0  0  0999 V2000
   -3.0226   -0.3140    1.4308 C   0  0  0  0  0  0  0  0  0  0  0  0
   -3.8063    0.2756    0.2420 C   0  0  0  0  0  0  0  0  0  0  0  0
   -4.9089   -0.7040   -0.1324 C   0  0  0  0  0  0  0  0  0  0  0  0
   -4.7895   -1.7355   -1.2319 C   0  0  0  0  0  0  0  0  0  0  0  0
   -5.7233   -0.5652   -1.3991 C   0  0  0  0  0  0  0  0  0  0  0  0
   -2.8054    0.5740   -0.9177 C   0  0  0  0  0  0  0  0  0  0  0  0
   -1.9474    1.7355   -0.6474 N   0  0  0  0  0  0  0  0  0  0  0  0
   -0.6751    1.9551   -1.1385 C   0  0  0  0  0  0  0  0  0  0  0  0
   -0.0966    3.0309   -1.0042 O   0  0  0  0  0  0  0  0  0  0  0  0
   -0.1129    0.9025   -1.8086 N   0  0  0  0  0  0  0  0  0  0  0  0
    1.2326    0.9955   -2.3373 C   0  0  0  0  0  0  0  0  0  0  0  0
    2.2274    0.3712   -1.3905 C   0  0  0  0  0  0  0  0  0  0  0  0
    2.6644   -0.9459   -1.5747 C   0  0  0  0  0  0  0  0  0  0  0  0
    3.5611   -1.5285   -0.6728 C   0  0  0  0  0  0  0  0  0  0  0  0
    4.0377   -0.8151    0.4387 C   0  0  0  0  0  0  0  0  0  0  0  0
    4.9738   -1.4316    1.3898 C   0  0  0  0  0  0  0  0  0  0  0  0
    6.1940   -1.9662    0.9622 C   0  0  0  0  0  0  0  0  0  0  0  0
    7.0420   -2.5382    1.8976 C   0  0  0  0  0  0  0  0  0  0  0  0
    6.7639   -2.6164    3.2155 N   0  0  0  0  0  0  0  0  0  0  0  0
    5.5845   -2.0978    3.6138 C   0  0  0  0  0  0  0  0  0  0  0  0
    4.6725   -1.5051    2.7541 C   0  0  0  0  0  0  0  0  0  0  0  0
    3.5901    0.5027    0.6180 C   0  0  0  0  0  0  0  0  0  0  0  0
    2.6956    1.0885   -0.2830 C   0  0  0  0  0  0  0  0  0  0  0  0
   -2.6097    2.8498    0.0313 C   0  0  0  0  0  0  0  0  0  0  0  0
   -4.1243    2.6650    0.0962 C   0  0  0  0  0  0  0  0  0  0  0  0
   -4.4776    1.4473    0.7525 O   0  0  0  0  0  0  0  0  0  0  0  0
   -3.6895   -0.5123    2.2787 H   0  0  0  0  0  0  0  0  0  0  0  0
   -2.2621    0.3851    1.7970 H   0  0  0  0  0  0  0  0  0  0  0  0
   -2.5309   -1.2545    1.1600 H   0  0  0  0  0  0  0  0  0  0  0  0
   -5.4820   -0.9834    0.7499 H   0  0  0  0  0  0  0  0  0  0  0  0
   -3.9113   -1.7707   -1.8630 H   0  0  0  0  0  0  0  0  0  0  0  0
   -5.2335   -2.7112   -1.0562 H   0  0  0  0  0  0  0  0  0  0  0  0
   -6.7908   -0.7513   -1.3299 H   0  0  0  0  0  0  0  0  0  0  0  0
   -5.4687    0.2039   -2.1174 H   0  0  0  0  0  0  0  0  0  0  0  0
   -2.2136   -0.3183   -1.1364 H   0  0  0  0  0  0  0  0  0  0  0  0
   -3.3382    0.8266   -1.8414 H   0  0  0  0  0  0  0  0  0  0  0  0
   -0.3529   -0.0089   -1.4591 H   0  0  0  0  0  0  0  0  0  0  0  0
    1.2367    0.4593   -3.2931 H   0  0  0  0  0  0  0  0  0  0  0  0
    1.5053    2.0353   -2.5509 H   0  0  0  0  0  0  0  0  0  0  0  0
    2.3104   -1.5315   -2.4207 H   0  0  0  0  0  0  0  0  0  0  0  0
    3.8774   -2.5569   -0.8371 H   0  0  0  0  0  0  0  0  0  0  0  0
    6.4901   -1.9286   -0.0808 H   0  0  0  0  0  0  0  0  0  0  0  0
    7.9986   -2.9581    1.6009 H   0  0  0  0  0  0  0  0  0  0  0  0
    5.3806   -2.1745    4.6777 H   0  0  0  0  0  0  0  0  0  0  0  0
    3.7369   -1.1193    3.1439 H   0  0  0  0  0  0  0  0  0  0  0  0
    3.9432    1.0930    1.4622 H   0  0  0  0  0  0  0  0  0  0  0  0
    2.3607    2.1116   -0.1137 H   0  0  0  0  0  0  0  0  0  0  0  0
   -2.3691    3.7919   -0.4725 H   0  0  0  0  0  0  0  0  0  0  0  0
   -2.1898    2.8895    1.0431 H   0  0  0  0  0  0  0  0  0  0  0  0
   -4.5711    2.6715   -0.9053 H   0  0  0  0  0  0  0  0  0  0  0  0
   -4.5761    3.4872    0.6599 H   0  0  0  0  0  0  0  0  0  0  0  0
  1  2  1  0
  2  3  1  0
  3  4  1  0
  4  5  1  0
  2  6  1  0
  6  7  1  0
  7  8  1  0
  8  9  2  0
  8 10  1  0
 10 11  1  0
 11 12  1  0
 12 13  1  0
 13 14  2  0
 14 15  1  0
 15 16  1  0
 16 17  2  0
 17 18  1  0
 18 19  2  0
 19 20  1  0
 20 21  2  0
 15 22  2  0
 22 23  1  0
  7 24  1  0
 24 25  1  0
 25 26  1  0
 26  2  1  0
  5  3  1  0
 23 12  2  0
 21 16  1  0
  1 27  1  0
  1 28  1  0
  1 29  1  0
  3 30  1  0
  4 31  1  0
  4 32  1  0
  5 33  1  0
  5 34  1  0
  6 35  1  0
  6 36  1  0
 10 37  1  0
 11 38  1  0
 11 39  1  0
 13 40  1  0
 14 41  1  0
 17 42  1  0
 18 43  1  0
 20 44  1  0
 21 45  1  0
 22 46  1  0
 23 47  1  0
 24 48  1  0
 24 49  1  0
 25 50  1  0
 25 51  1  0
M  END
$$$$
OCNT-2310706
     RDKit          3D

 44 46  0  0  0  0  0  0  0  0999 V2000
   -5.4833    0.3769   -1.1231 C   0  0  0  0  0  0  0  0  0  0  0  0
   -5.1035    1.5969   -0.4941 O   0  0  0  0  0  0  0  0  0  0  0  0
   -3.7361    1.8031   -0.4929 C   0  0  0  0  0  0  0  0  0  0  0  0
   -3.3064    2.9789    0.0633 C   0  0  0  0  0  0  0  0  0  0  0  0
   -1.9472    3.1674    0.0571 C   0  0  0  0  0  0  0  0  0  0  0  0
   -1.3509    4.4150    0.6333 C   0  0  0  0  0  0  0  0  0  0  0  0
   -1.0978    2.2559   -0.4601 N   0  0  0  0  0  0  0  0  0  0  0  0
   -1.6007    1.1255   -0.9839 C   0  0  0  0  0  0  0  0  0  0  0  0
   -0.7350    0.1901   -1.5331 N   0  0  0  0  0  0  0  0  0  0  0  0
   -1.2857   -1.1529   -1.7038 C   0  0  0  0  0  0  0  0  0  0  0  0
   -0.1739   -2.1543   -2.0056 C   0  0  0  0  0  0  0  0  0  0  0  0
    0.8702   -2.1855   -0.8846 C   0  0  0  0  0  0  0  0  0  0  0  0
    1.1693   -0.7946   -0.2805 C   0  0  0  0  0  0  0  0  0  0  0  0
    2.6124   -0.6681   -0.0184 N   0  0  0  0  0  0  0  0  0  0  0  0
    3.1843   -1.0972    1.1822 C   0  0  0  0  0  0  0  0  0  0  0  0
    4.5119   -0.7266    1.4501 C   0  0  0  0  0  0  0  0  0  0  0  0
    5.1788   -1.1661    2.5979 C   0  0  0  0  0  0  0  0  0  0  0  0
    4.5340   -2.0112    3.4934 C   0  0  0  0  0  0  0  0  0  0  0  0
    3.2313   -2.4220    3.2304 C   0  0  0  0  0  0  0  0  0  0  0  0
    2.5706   -1.9784    2.0781 C   0  0  0  0  0  0  0  0  0  0  0  0
    0.6964    0.3167   -1.2510 C   0  0  0  0  0  0  0  0  0  0  0  0
   -2.9177    0.8739   -1.0125 N   0  0  0  0  0  0  0  0  0  0  0  0
   -5.0783   -0.4886   -0.5872 H   0  0  0  0  0  0  0  0  0  0  0  0
   -5.1841    0.3631   -2.1770 H   0  0  0  0  0  0  0  0  0  0  0  0
   -6.5749    0.3093   -1.0867 H   0  0  0  0  0  0  0  0  0  0  0  0
   -3.9976    3.7012    0.4730 H   0  0  0  0  0  0  0  0  0  0  0  0
   -1.6092    4.5037    1.6932 H   0  0  0  0  0  0  0  0  0  0  0  0
   -1.7219    5.2944    0.0977 H   0  0  0  0  0  0  0  0  0  0  0  0
   -0.2594    4.4005    0.5492 H   0  0  0  0  0  0  0  0  0  0  0  0
   -2.0068   -1.1592   -2.5301 H   0  0  0  0  0  0  0  0  0  0  0  0
   -1.8071   -1.4813   -0.7945 H   0  0  0  0  0  0  0  0  0  0  0  0
   -0.5956   -3.1564   -2.1435 H   0  0  0  0  0  0  0  0  0  0  0  0
    0.3159   -1.8875   -2.9508 H   0  0  0  0  0  0  0  0  0  0  0  0
    0.5061   -2.8441   -0.0865 H   0  0  0  0  0  0  0  0  0  0  0  0
    1.7817   -2.6584   -1.2715 H   0  0  0  0  0  0  0  0  0  0  0  0
    0.5997   -0.6659    0.6497 H   0  0  0  0  0  0  0  0  0  0  0  0
    2.9980    0.2303   -0.3020 H   0  0  0  0  0  0  0  0  0  0  0  0
    5.0470   -0.0855    0.7537 H   0  0  0  0  0  0  0  0  0  0  0  0
    6.2030   -0.8539    2.7824 H   0  0  0  0  0  0  0  0  0  0  0  0
    5.0478   -2.3587    4.3852 H   0  0  0  0  0  0  0  0  0  0  0  0
    2.7254   -3.0962    3.9163 H   0  0  0  0  0  0  0  0  0  0  0  0
    1.5624   -2.3396    1.9089 H   0  0  0  0  0  0  0  0  0  0  0  0
    0.9828    1.2972   -0.8525 H   0  0  0  0  0  0  0  0  0  0  0  0
    1.2442    0.2321   -2.1996 H   0  0  0  0  0  0  0  0  0  0  0  0
  1  2  1  0
  2  3  1  0
  3  4  2  0
  4  5  1  0
  5  6  1  0
  5  7  2  0
  7  8  1  0
  8  9  1  0
  9 10  1  0
 10 11  1  0
 11 12  1  0
 12 13  1  0
 13 14  1  0
 14 15  1  0
 15 16  2  0
 16 17  1  0
 17 18  2  0
 18 19  1  0
 19 20  2  0
 13 21  1  0
  8 22  2  0
 22  3  1  0
 21  9  1  0
 20 15  1  0
  1 23  1  0
  1 24  1  0
  1 25  1  0
  4 26  1  0
  6 27  1  0
  6 28  1  0
  6 29  1  0
 10 30  1  0
 10 31  1  0
 11 32  1  0
 11 33  1  0
 12 34  1  0
 12 35  1  0
 13 36  1  0
 14 37  1  0
 16 38  1  0
 17 39  1  0
 18 40  1  0
 19 41  1  0
 20 42  1  0
 21 43  1  0
 21 44  1  0
M  END
$$$$
OCNT-2310736
     RDKit          3D

 44 47  0  0  0  0  0  0  0  0999 V2000
    8.0305    3.0217    0.9441 O   0  0  0  0  0  0  0  0  0  0  0  0
    7.0588    2.2701    0.9726 C   0  0  0  0  0  0  0  0  0  0  0  0
    6.7832    1.3065    2.1266 C   0  0  0  0  0  0  0  0  0  0  0  0
    5.8071    0.2831    2.0069 O   0  0  0  0  0  0  0  0  0  0  0  0
    4.9053    0.4541    0.9945 C   0  0  0  0  0  0  0  0  0  0  0  0
    3.8234   -0.4291    0.9784 C   0  0  0  0  0  0  0  0  0  0  0  0
    2.8565   -0.3568   -0.0327 C   0  0  0  0  0  0  0  0  0  0  0  0
    1.7896   -1.2757    0.0286 N   0  0  0  0  0  0  0  0  0  0  0  0
    0.7953   -1.4751   -0.9046 C   0  0  0  0  0  0  0  0  0  0  0  0
    0.7018   -0.9380   -1.9999 O   0  0  0  0  0  0  0  0  0  0  0  0
   -0.1166   -2.4079   -0.4526 N   0  0  0  0  0  0  0  0  0  0  0  0
   -1.2861   -2.7373   -1.2384 C   0  0  0  0  0  0  0  0  0  0  0  0
   -2.4683   -1.8945   -0.8331 C   0  0  0  0  0  0  0  0  0  0  0  0
   -2.6434   -0.6114   -1.3630 C   0  0  0  0  0  0  0  0  0  0  0  0
   -3.7260    0.1872   -0.9723 C   0  0  0  0  0  0  0  0  0  0  0  0
   -4.6598   -0.2806   -0.0337 C   0  0  0  0  0  0  0  0  0  0  0  0
   -5.7582    0.5401    0.3577 N   0  0  0  0  0  0  0  0  0  0  0  0
   -6.0399    1.8180   -0.0883 C   0  0  0  0  0  0  0  0  0  0  0  0
   -7.1859    2.2138    0.5583 C   0  0  0  0  0  0  0  0  0  0  0  0
   -7.6318    1.2329    1.3902 N   0  0  0  0  0  0  0  0  0  0  0  0
   -6.7683    0.2493    1.2523 C   0  0  0  0  0  0  0  0  0  0  0  0
   -4.4721   -1.5618    0.4972 C   0  0  0  0  0  0  0  0  0  0  0  0
   -5.3063   -2.0875    1.4033 F   0  0  0  0  0  0  0  0  0  0  0  0
   -3.3921   -2.3583    0.1078 C   0  0  0  0  0  0  0  0  0  0  0  0
    2.9900    0.6159   -1.0265 C   0  0  0  0  0  0  0  0  0  0  0  0
    4.0779    1.4965   -1.0194 C   0  0  0  0  0  0  0  0  0  0  0  0
    5.0319    1.4136   -0.0083 C   0  0  0  0  0  0  0  0  0  0  0  0
    6.1204    2.2824   -0.0190 N   0  0  0  0  0  0  0  0  0  0  0  0
    6.5130    1.9177    2.9958 H   0  0  0  0  0  0  0  0  0  0  0  0
    7.7323    0.8092    2.3567 H   0  0  0  0  0  0  0  0  0  0  0  0
    3.7515   -1.1747    1.7656 H   0  0  0  0  0  0  0  0  0  0  0  0
    1.8209   -1.9505    0.7779 H   0  0  0  0  0  0  0  0  0  0  0  0
   -0.2256   -2.4723    0.5474 H   0  0  0  0  0  0  0  0  0  0  0  0
   -1.5022   -3.7973   -1.0642 H   0  0  0  0  0  0  0  0  0  0  0  0
   -1.0817   -2.6219   -2.3089 H   0  0  0  0  0  0  0  0  0  0  0  0
   -1.9274   -0.2198   -2.0868 H   0  0  0  0  0  0  0  0  0  0  0  0
   -3.7986    1.1710   -1.4263 H   0  0  0  0  0  0  0  0  0  0  0  0
   -5.4330    2.3453   -0.8070 H   0  0  0  0  0  0  0  0  0  0  0  0
   -7.7096    3.1565    0.4642 H   0  0  0  0  0  0  0  0  0  0  0  0
   -6.8457   -0.6870    1.7847 H   0  0  0  0  0  0  0  0  0  0  0  0
   -3.2897   -3.3453    0.5515 H   0  0  0  0  0  0  0  0  0  0  0  0
    2.2619    0.7163   -1.8260 H   0  0  0  0  0  0  0  0  0  0  0  0
    4.1609    2.2376   -1.8098 H   0  0  0  0  0  0  0  0  0  0  0  0
    6.2561    2.9439   -0.7717 H   0  0  0  0  0  0  0  0  0  0  0  0
  1  2  2  0
  2  3  1  0
  3  4  1  0
  4  5  1  0
  5  6  1  0
  6  7  2  0
  7  8  1  0
  8  9  1  0
  9 10  2  0
  9 11  1  0
 11 12  1  0
 12 13  1  0
 13 14  1  0
 14 15  2  0
 15 16  1  0
 16 17  1  0
 17 18  1  0
 18 19  2  0
 19 20  1  0
 20 21  2  0
 16 22  2  0
 22 23  1  0
 22 24  1  0
  7 25  1  0
 25 26  2  0
 26 27  1  0
 27 28  1  0
 28  2  1  0
 27  5  2  0
 24 13  2  0
 21 17  1  0
  3 29  1  0
  3 30  1  0
  6 31  1  0
  8 32  1  0
 11 33  1  0
 12 34  1  0
 12 35  1  0
 14 36  1  0
 15 37  1  0
 18 38  1  0
 19 39  1  0
 21 40  1  0
 24 41  1  0
 25 42  1  0
 26 43  1  0
 28 44  1  0
M  END
$$$$
OCNT-2310740
     RDKit          3D

 48 50  0  0  0  0  0  0  0  0999 V2000
   -3.2242   -2.5409   -0.3373 N   0  0  0  0  0  0  0  0  0  0  0  0
   -2.3661   -1.6431   -0.8991 C   0  0  0  0  0  0  0  0  0  0  0  0
   -1.6947   -1.9510   -1.8833 O   0  0  0  0  0  0  0  0  0  0  0  0
   -2.3377   -0.2358   -0.2749 C   0  0  0  0  0  0  0  0  0  0  0  0
   -3.4845    0.6249   -0.8212 C   0  0  0  0  0  0  0  0  0  0  0  0
   -4.8297    0.2977   -0.2133 C   0  0  0  0  0  0  0  0  0  0  0  0
   -5.8036   -0.3794   -0.9607 C   0  0  0  0  0  0  0  0  0  0  0  0
   -7.0396   -0.6938   -0.3914 C   0  0  0  0  0  0  0  0  0  0  0  0
   -7.3081   -0.3308    0.9264 C   0  0  0  0  0  0  0  0  0  0  0  0
   -8.8294   -0.7217    1.6277 Cl  0  0  0  0  0  0  0  0  0  0  0  0
   -6.3512    0.3449    1.6800 C   0  0  0  0  0  0  0  0  0  0  0  0
   -5.1151    0.6595    1.1116 C   0  0  0  0  0  0  0  0  0  0  0  0
   -1.0419    0.3451   -0.6405 N   0  0  0  0  0  0  0  0  0  0  0  0
    0.0035    0.3464    0.2598 C   0  0  0  0  0  0  0  0  0  0  0  0
   -0.1518    0.1221    1.4559 O   0  0  0  0  0  0  0  0  0  0  0  0
    1.3366    0.7240   -0.3497 C   0  0  0  0  0  0  0  0  0  0  0  0
    1.8015   -0.2241   -1.4495 C   0  0  0  0  0  0  0  0  0  0  0  0
    3.3079    0.0194   -1.5169 C   0  0  0  0  0  0  0  0  0  0  0  0
    3.6655    0.4340   -0.1632 N   0  0  0  0  0  0  0  0  0  0  0  0
    4.9640    0.4899    0.2983 C   0  0  0  0  0  0  0  0  0  0  0  0
    5.2445    0.6765    1.6639 C   0  0  0  0  0  0  0  0  0  0  0  0
    6.5559    0.7393    2.1576 C   0  0  0  0  0  0  0  0  0  0  0  0
    7.6368    0.6196    1.2926 C   0  0  0  0  0  0  0  0  0  0  0  0
    7.4016    0.4391   -0.0641 C   0  0  0  0  0  0  0  0  0  0  0  0
    6.0902    0.3777   -0.5443 C   0  0  0  0  0  0  0  0  0  0  0  0
    5.9399    0.2189   -1.8703 F   0  0  0  0  0  0  0  0  0  0  0  0
    2.4767    0.6341    0.6658 C   0  0  0  0  0  0  0  0  0  0  0  0
   -3.7287   -2.3542    0.5202 H   0  0  0  0  0  0  0  0  0  0  0  0
   -3.2297   -3.4843   -0.7026 H   0  0  0  0  0  0  0  0  0  0  0  0
   -2.3994   -0.3360    0.8143 H   0  0  0  0  0  0  0  0  0  0  0  0
   -3.5384    0.5361   -1.9146 H   0  0  0  0  0  0  0  0  0  0  0  0
   -3.2796    1.6861   -0.6243 H   0  0  0  0  0  0  0  0  0  0  0  0
   -5.6071   -0.6705   -1.9912 H   0  0  0  0  0  0  0  0  0  0  0  0
   -7.7868   -1.2187   -0.9808 H   0  0  0  0  0  0  0  0  0  0  0  0
   -6.5617    0.6325    2.7069 H   0  0  0  0  0  0  0  0  0  0  0  0
   -4.3780    1.1936    1.7096 H   0  0  0  0  0  0  0  0  0  0  0  0
   -0.7980    0.2386   -1.6201 H   0  0  0  0  0  0  0  0  0  0  0  0
    1.2681    1.7482   -0.7391 H   0  0  0  0  0  0  0  0  0  0  0  0
    1.3185   -0.0336   -2.4129 H   0  0  0  0  0  0  0  0  0  0  0  0
    1.5956   -1.2667   -1.1752 H   0  0  0  0  0  0  0  0  0  0  0  0
    3.5313    0.8228   -2.2278 H   0  0  0  0  0  0  0  0  0  0  0  0
    3.8181   -0.8984   -1.8282 H   0  0  0  0  0  0  0  0  0  0  0  0
    4.4365    0.7682    2.3848 H   0  0  0  0  0  0  0  0  0  0  0  0
    6.7236    0.8807    3.2225 H   0  0  0  0  0  0  0  0  0  0  0  0
    8.6533    0.6682    1.6725 H   0  0  0  0  0  0  0  0  0  0  0  0
    8.2268    0.3474   -0.7628 H   0  0  0  0  0  0  0  0  0  0  0  0
    2.3563   -0.2128    1.3519 H   0  0  0  0  0  0  0  0  0  0  0  0
    2.5322    1.5602    1.2492 H   0  0  0  0  0  0  0  0  0  0  0  0
  1  2  1  0
  2  3  2  0
  2  4  1  0
  4  5  1  0
  5  6  1  0
  6  7  1  0
  7  8  2  0
  8  9  1  0
  9 10  1  0
  9 11  2  0
 11 12  1  0
  4 13  1  0
 13 14  1  0
 14 15  2  0
 14 16  1  0
 16 17  1  0
 17 18  1  0
 18 19  1  0
 19 20  1  0
 20 21  2  0
 21 22  1  0
 22 23  2  0
 23 24  1  0
 24 25  2  0
 25 26  1  0
 19 27  1  0
 12  6  2  0
 27 16  1  0
 25 20  1  0
  1 28  1  0
  1 29  1  0
  4 30  1  0
  5 31  1  0
  5 32  1  0
  7 33  1  0
  8 34  1  0
 11 35  1  0
 12 36  1  0
 13 37  1  0
 16 38  1  0
 17 39  1  0
 17 40  1  0
 18 41  1  0
 18 42  1  0
 21 43  1  0
 22 44  1  0
 23 45  1  0
 24 46  1  0
 27 47  1  0
 27 48  1  0
M  END
$$$$
OCNT-2310757
     RDKit          3D

 44 47  0  0  0  0  0  0  0  0999 V2000
   -7.2436   -0.4291   -1.0062 C   0  0  0  0  0  0  0  0  0  0  0  0
   -5.9564    0.0580   -0.4380 C   0  0  0  0  0  0  0  0  0  0  0  0
   -5.8950    1.0596    0.5076 C   0  0  0  0  0  0  0  0  0  0  0  0
   -4.7498    1.4968    1.0635 N   0  0  0  0  0  0  0  0  0  0  0  0
   -3.6272    0.8870    0.6590 C   0  0  0  0  0  0  0  0  0  0  0  0
   -2.4752    1.3732    1.2357 O   0  0  0  0  0  0  0  0  0  0  0  0
   -1.2844    0.6371    0.9373 C   0  0  0  0  0  0  0  0  0  0  0  0
   -0.6504    1.1386   -0.3583 C   0  0  0  0  0  0  0  0  0  0  0  0
    0.6147    0.3428   -0.6742 C   0  0  0  0  0  0  0  0  0  0  0  0
    1.3693    0.0129    0.5469 N   0  0  0  0  0  0  0  0  0  0  0  0
    2.7314   -0.2217    0.2729 C   0  0  0  0  0  0  0  0  0  0  0  0
    3.6835    0.5768    0.8299 N   0  0  0  0  0  0  0  0  0  0  0  0
    4.9915    0.3709    0.5563 C   0  0  0  0  0  0  0  0  0  0  0  0
    5.9681    1.2864    1.2294 C   0  0  0  0  0  0  0  0  0  0  0  0
    5.5060   -0.5937   -0.2271 N   0  0  0  0  0  0  0  0  0  0  0  0
    4.5518   -1.3793   -0.7411 C   0  0  0  0  0  0  0  0  0  0  0  0
    3.1835   -1.2751   -0.5498 C   0  0  0  0  0  0  0  0  0  0  0  0
    2.5964   -2.3563   -1.2723 C   0  0  0  0  0  0  0  0  0  0  0  0
    3.6110   -3.0570   -1.8906 C   0  0  0  0  0  0  0  0  0  0  0  0
    4.7938   -2.4486   -1.5591 N   0  0  0  0  0  0  0  0  0  0  0  0
    1.1479    0.9095    1.6830 C   0  0  0  0  0  0  0  0  0  0  0  0
   -0.3173    0.8417    2.1143 C   0  0  0  0  0  0  0  0  0  0  0  0
   -3.5638   -0.1023   -0.2472 N   0  0  0  0  0  0  0  0  0  0  0  0
   -4.7397   -0.4999   -0.7695 C   0  0  0  0  0  0  0  0  0  0  0  0
   -7.1038   -0.8049   -2.0253 H   0  0  0  0  0  0  0  0  0  0  0  0
   -7.9798    0.3800   -1.0568 H   0  0  0  0  0  0  0  0  0  0  0  0
   -7.6486   -1.2351   -0.3865 H   0  0  0  0  0  0  0  0  0  0  0  0
   -6.7915    1.5610    0.8624 H   0  0  0  0  0  0  0  0  0  0  0  0
   -1.4885   -0.4411    0.8726 H   0  0  0  0  0  0  0  0  0  0  0  0
   -1.3470    1.0776   -1.2018 H   0  0  0  0  0  0  0  0  0  0  0  0
   -0.4134    2.2065   -0.2594 H   0  0  0  0  0  0  0  0  0  0  0  0
    0.3182   -0.5876   -1.1711 H   0  0  0  0  0  0  0  0  0  0  0  0
    1.2192    0.9220   -1.3848 H   0  0  0  0  0  0  0  0  0  0  0  0
    5.5260    2.2756    1.3834 H   0  0  0  0  0  0  0  0  0  0  0  0
    6.8689    1.4060    0.6196 H   0  0  0  0  0  0  0  0  0  0  0  0
    6.2518    0.8712    2.2008 H   0  0  0  0  0  0  0  0  0  0  0  0
    1.5434   -2.5995   -1.3213 H   0  0  0  0  0  0  0  0  0  0  0  0
    3.5945   -3.9346   -2.5229 H   0  0  0  0  0  0  0  0  0  0  0  0
    5.7182   -2.7347   -1.8466 H   0  0  0  0  0  0  0  0  0  0  0  0
    1.4080    1.9423    1.4143 H   0  0  0  0  0  0  0  0  0  0  0  0
    1.7650    0.6272    2.5460 H   0  0  0  0  0  0  0  0  0  0  0  0
   -0.5666    1.7442    2.6865 H   0  0  0  0  0  0  0  0  0  0  0  0
   -0.4532    0.0066    2.8143 H   0  0  0  0  0  0  0  0  0  0  0  0
   -4.6668   -1.3110   -1.4891 H   0  0  0  0  0  0  0  0  0  0  0  0
  1  2  1  0
  2  3  2  0
  3  4  1  0
  4  5  2  0
  5  6  1  0
  6  7  1  0
  7  8  1  0
  8  9  1  0
  9 10  1  0
 10 11  1  0
 11 12  1  0
 12 13  2  0
 13 14  1  0
 13 15  1  0
 15 16  2  0
 16 17  1  0
 17 18  1  0
 18 19  2  0
 19 20  1  0
 10 21  1  0
 21 22  1  0
  5 23  1  0
 23 24  2  0
 24  2  1  0
 22  7  1  0
 17 11  2  0
 20 16  1  0
  1 25  1  0
  1 26  1  0
  1 27  1  0
  3 28  1  0
  7 29  1  0
  8 30  1  0
  8 31  1  0
  9 32  1  0
  9 33  1  0
 14 34  1  0
 14 35  1  0
 14 36  1  0
 18 37  1  0
 19 38  1  0
 20 39  1  0
 21 40  1  0
 21 41  1  0
 22 42  1  0
 22 43  1  0
 24 44  1  0
M  END
$$$$
OCNT-2310758
     RDKit          3D

 37 39  0  0  0  0  0  0  0  0999 V2000
    5.6518    1.2703    0.4968 C   0  0  0  0  0  0  0  0  0  0  0  0
    4.6435    0.3125    0.0851 N   0  0  0  0  0  0  0  0  0  0  0  0
    5.0309   -0.8956   -0.4396 C   0  0  0  0  0  0  0  0  0  0  0  0
    4.1250   -1.8182   -0.7711 C   0  0  0  0  0  0  0  0  0  0  0  0
    2.7723   -1.6699   -0.6571 N   0  0  0  0  0  0  0  0  0  0  0  0
    2.2990   -0.5468   -0.1651 C   0  0  0  0  0  0  0  0  0  0  0  0
    0.9054   -0.3816   -0.0902 N   0  0  0  0  0  0  0  0  0  0  0  0
    0.2861    0.8668    0.4023 C   0  0  0  0  0  0  0  0  0  0  0  0
   -1.1941    0.9950   -0.0214 C   0  0  0  0  0  0  0  0  0  0  0  0
   -1.9571   -0.2090    0.3747 N   0  0  0  0  0  0  0  0  0  0  0  0
   -3.3366   -0.1024    0.0934 C   0  0  0  0  0  0  0  0  0  0  0  0
   -3.7336    0.7380   -0.8955 N   0  0  0  0  0  0  0  0  0  0  0  0
   -5.0589    0.8292   -1.1671 C   0  0  0  0  0  0  0  0  0  0  0  0
   -6.0353    0.1183   -0.4924 C   0  0  0  0  0  0  0  0  0  0  0  0
   -7.6927    0.2915   -0.8994 Cl  0  0  0  0  0  0  0  0  0  0  0  0
   -5.6424   -0.7349    0.5263 C   0  0  0  0  0  0  0  0  0  0  0  0
   -4.2838   -0.8478    0.8280 C   0  0  0  0  0  0  0  0  0  0  0  0
   -3.8383   -1.8825    2.1421 Cl  0  0  0  0  0  0  0  0  0  0  0  0
   -1.3801   -1.4120   -0.2678 C   0  0  0  0  0  0  0  0  0  0  0  0
    0.0873   -1.5912    0.1663 C   0  0  0  0  0  0  0  0  0  0  0  0
    3.2959    0.5756    0.3281 C   0  0  0  0  0  0  0  0  0  0  0  0
    2.8915    1.5797    0.9018 O   0  0  0  0  0  0  0  0  0  0  0  0
    6.4114    1.3652   -0.2856 H   0  0  0  0  0  0  0  0  0  0  0  0
    6.1178    0.9143    1.4209 H   0  0  0  0  0  0  0  0  0  0  0  0
    5.2143    2.2558    0.6796 H   0  0  0  0  0  0  0  0  0  0  0  0
    6.0938   -1.0748   -0.5652 H   0  0  0  0  0  0  0  0  0  0  0  0
    4.4543   -2.7701   -1.1801 H   0  0  0  0  0  0  0  0  0  0  0  0
    0.7944    1.7381   -0.0215 H   0  0  0  0  0  0  0  0  0  0  0  0
    0.3638    0.9017    1.4953 H   0  0  0  0  0  0  0  0  0  0  0  0
   -1.2320    1.1402   -1.1100 H   0  0  0  0  0  0  0  0  0  0  0  0
   -1.6157    1.8872    0.4585 H   0  0  0  0  0  0  0  0  0  0  0  0
   -5.3136    1.5149   -1.9705 H   0  0  0  0  0  0  0  0  0  0  0  0
   -6.3802   -1.3001    1.0875 H   0  0  0  0  0  0  0  0  0  0  0  0
   -1.9309   -2.3189    0.0058 H   0  0  0  0  0  0  0  0  0  0  0  0
   -1.4273   -1.3155   -1.3614 H   0  0  0  0  0  0  0  0  0  0  0  0
    0.4839   -2.4601   -0.3704 H   0  0  0  0  0  0  0  0  0  0  0  0
    0.1298   -1.8182    1.2390 H   0  0  0  0  0  0  0  0  0  0  0  0
  1  2  1  0
  2  3  1  0
  3  4  2  0
  4  5  1  0
  5  6  2  0
  6  7  1  0
  7  8  1  0
  8  9  1  0
  9 10  1  0
 10 11  1  0
 11 12  1  0
 12 13  2  0
 13 14  1  0
 14 15  1  0
 14 16  2  0
 16 17  1  0
 17 18  1  0
 10 19  1  0
 19 20  1  0
  6 21  1  0
 21 22  2  0
 21  2  1  0
 20  7  1  0
 17 11  2  0
  1 23  1  0
  1 24  1  0
  1 25  1  0
  3 26  1  0
  4 27  1  0
  8 28  1  0
  8 29  1  0
  9 30  1  0
  9 31  1  0
 13 32  1  0
 16 33  1  0
 19 34  1  0
 19 35  1  0
 20 36  1  0
 20 37  1  0
M  END
$$$$
OCNT-2310760
     RDKit          3D

 54 56  0  0  0  0  0  0  0  0999 V2000
    8.1840    0.2166    2.4927 C   0  0  0  0  0  0  0  0  0  0  0  0
    6.7703    0.1459    1.9969 C   0  0  0  0  0  0  0  0  0  0  0  0
    5.9795   -0.9754    2.2694 C   0  0  0  0  0  0  0  0  0  0  0  0
    4.6530   -1.0297    1.8354 C   0  0  0  0  0  0  0  0  0  0  0  0
    4.0907    0.0414    1.1297 C   0  0  0  0  0  0  0  0  0  0  0  0
    2.6597   -0.0247    0.6546 C   0  0  0  0  0  0  0  0  0  0  0  0
    2.4551   -0.9624   -0.5450 C   0  0  0  0  0  0  0  0  0  0  0  0
    3.1237   -0.4548   -1.8234 C   0  0  0  0  0  0  0  0  0  0  0  0
    0.9637   -1.1900   -0.7599 C   0  0  0  0  0  0  0  0  0  0  0  0
    0.4337   -2.2683   -0.5049 O   0  0  0  0  0  0  0  0  0  0  0  0
    0.2559   -0.1004   -1.2214 N   0  0  0  0  0  0  0  0  0  0  0  0
   -1.1919   -0.1473   -1.3874 C   0  0  0  0  0  0  0  0  0  0  0  0
   -1.6664    0.9583   -2.3298 C   0  0  0  0  0  0  0  0  0  0  0  0
   -3.1734    0.8566   -2.5534 C   0  0  0  0  0  0  0  0  0  0  0  0
   -3.9078    0.4922   -1.3454 N   0  0  0  0  0  0  0  0  0  0  0  0
   -5.2851    0.3153   -1.4755 C   0  0  0  0  0  0  0  0  0  0  0  0
   -5.8938    0.5213   -2.5228 O   0  0  0  0  0  0  0  0  0  0  0  0
   -6.0625   -0.1652   -0.3157 C   0  0  0  0  0  0  0  0  0  0  0  0
   -7.1980    0.5410    0.0714 C   0  0  0  0  0  0  0  0  0  0  0  0
   -7.9189    0.0511    1.1429 C   0  0  0  0  0  0  0  0  0  0  0  0
   -7.5867   -1.0710    1.8197 N   0  0  0  0  0  0  0  0  0  0  0  0
   -6.4991   -1.7507    1.3942 C   0  0  0  0  0  0  0  0  0  0  0  0
   -5.7102   -1.3469    0.3342 C   0  0  0  0  0  0  0  0  0  0  0  0
   -3.2138    0.7093   -0.0793 C   0  0  0  0  0  0  0  0  0  0  0  0
   -1.9090   -0.0803   -0.0259 C   0  0  0  0  0  0  0  0  0  0  0  0
    4.8786    1.1695    0.8706 C   0  0  0  0  0  0  0  0  0  0  0  0
    6.2053    1.2229    1.3054 C   0  0  0  0  0  0  0  0  0  0  0  0
    8.7965    0.8484    1.8407 H   0  0  0  0  0  0  0  0  0  0  0  0
    8.2047    0.6300    3.5058 H   0  0  0  0  0  0  0  0  0  0  0  0
    8.6431   -0.7776    2.5054 H   0  0  0  0  0  0  0  0  0  0  0  0
    6.3919   -1.8170    2.8220 H   0  0  0  0  0  0  0  0  0  0  0  0
    4.0599   -1.9151    2.0558 H   0  0  0  0  0  0  0  0  0  0  0  0
    2.3055    0.9865    0.4150 H   0  0  0  0  0  0  0  0  0  0  0  0
    2.0351   -0.3528    1.4969 H   0  0  0  0  0  0  0  0  0  0  0  0
    2.8838   -1.9484   -0.3200 H   0  0  0  0  0  0  0  0  0  0  0  0
    4.2143   -0.5009   -1.7399 H   0  0  0  0  0  0  0  0  0  0  0  0
    2.8489    0.5824   -2.0433 H   0  0  0  0  0  0  0  0  0  0  0  0
    2.8300   -1.0650   -2.6847 H   0  0  0  0  0  0  0  0  0  0  0  0
    0.7157    0.7997   -1.2624 H   0  0  0  0  0  0  0  0  0  0  0  0
   -1.4287   -1.1159   -1.8493 H   0  0  0  0  0  0  0  0  0  0  0  0
   -1.4207    1.9384   -1.8999 H   0  0  0  0  0  0  0  0  0  0  0  0
   -1.1441    0.9081   -3.2925 H   0  0  0  0  0  0  0  0  0  0  0  0
   -3.3924    0.0989   -3.3157 H   0  0  0  0  0  0  0  0  0  0  0  0
   -3.5618    1.8125   -2.9245 H   0  0  0  0  0  0  0  0  0  0  0  0
   -7.5101    1.4385   -0.4506 H   0  0  0  0  0  0  0  0  0  0  0  0
   -8.8123    0.5578    1.4967 H   0  0  0  0  0  0  0  0  0  0  0  0
   -6.2771   -2.6606    1.9451 H   0  0  0  0  0  0  0  0  0  0  0  0
   -4.8575   -1.9373    0.0197 H   0  0  0  0  0  0  0  0  0  0  0  0
   -3.0076    1.7854   -0.0122 H   0  0  0  0  0  0  0  0  0  0  0  0
   -3.8342    0.4723    0.7872 H   0  0  0  0  0  0  0  0  0  0  0  0
   -2.1195   -1.1061    0.3034 H   0  0  0  0  0  0  0  0  0  0  0  0
   -1.2644    0.3588    0.7460 H   0  0  0  0  0  0  0  0  0  0  0  0
    4.4680    2.0183    0.3289 H   0  0  0  0  0  0  0  0  0  0  0  0
    6.7965    2.1124    1.0991 H   0  0  0  0  0  0  0  0  0  0  0  0
  1  2  1  0
  2  3  1  0
  3  4  2  0
  4  5  1  0
  5  6  1  0
  6  7  1  0
  7  8  1  0
  7  9  1  0
  9 10  2  0
  9 11  1  0
 11 12  1  0
 12 13  1  0
 13 14  1  0
 14 15  1  0
 15 16  1  0
 16 17  2  0
 16 18  1  0
 18 19  2  0
 19 20  1  0
 20 21  2  0
 21 22  1  0
 22 23  2  0
 15 24  1  0
 24 25  1  0
  5 26  2  0
 26 27  1  0
 27  2  2  0
 25 12  1  0
 23 18  1  0
  1 28  1  0
  1 29  1  0
  1 30  1  0
  3 31  1  0
  4 32  1  0
  6 33  1  0
  6 34  1  0
  7 35  1  0
  8 36  1  0
  8 37  1  0
  8 38  1  0
 11 39  1  0
 12 40  1  0
 13 41  1  0
 13 42  1  0
 14 43  1  0
 14 44  1  0
 19 45  1  0
 20 46  1  0
 22 47  1  0
 23 48  1  0
 24 49  1  0
 24 50  1  0
 25 51  1  0
 25 52  1  0
 26 53  1  0
 27 54  1  0
M  END
$$$$
OCNT-2310785
     RDKit          3D

 34 37  0  0  0  0  0  0  0  0999 V2000
   -0.1255    0.5699   -1.6842 O   0  0  0  0  0  0  0  0  0  0  0  0
   -0.2263    0.5753   -0.4656 C   0  0  0  0  0  0  0  0  0  0  0  0
   -1.3973    0.4048    0.2651 N   0  0  0  0  0  0  0  0  0  0  0  0
   -2.7023    0.1735   -0.2264 C   0  0  0  0  0  0  0  0  0  0  0  0
   -2.9901    0.0738   -1.6076 C   0  0  0  0  0  0  0  0  0  0  0  0
   -4.3482   -0.1535   -1.9024 C   0  0  0  0  0  0  0  0  0  0  0  0
   -4.9677   -0.2979   -3.0901 N   0  0  0  0  0  0  0  0  0  0  0  0
   -6.2660   -0.4811   -2.7822 N   0  0  0  0  0  0  0  0  0  0  0  0
   -6.5359   -0.4710   -1.4430 C   0  0  0  0  0  0  0  0  0  0  0  0
   -5.3222   -0.2665   -0.8474 C   0  0  0  0  0  0  0  0  0  0  0  0
   -5.0950   -0.1795    0.5189 C   0  0  0  0  0  0  0  0  0  0  0  0
   -3.7248    0.0448    0.7826 C   0  0  0  0  0  0  0  0  0  0  0  0
    0.9570    0.7754    0.3902 C   0  0  0  0  0  0  0  0  0  0  0  0
    0.9994    1.5810    1.5236 C   0  0  0  0  0  0  0  0  0  0  0  0
    2.5556    1.5335    2.2382 S   0  0  0  0  0  0  0  0  0  0  0  0
    3.1021    0.4897    0.9748 C   0  0  0  0  0  0  0  0  0  0  0  0
    4.4990    0.0258    0.9248 C   0  0  0  0  0  0  0  0  0  0  0  0
    5.0593   -0.3776   -0.2852 C   0  0  0  0  0  0  0  0  0  0  0  0
    6.3719   -0.8421   -0.2962 C   0  0  0  0  0  0  0  0  0  0  0  0
    7.0814   -0.9060    0.8968 C   0  0  0  0  0  0  0  0  0  0  0  0
    6.4482   -0.4972    2.0601 C   0  0  0  0  0  0  0  0  0  0  0  0
    5.1804   -0.0317    2.1008 N   0  0  0  0  0  0  0  0  0  0  0  0
    2.1780    0.1825    0.0794 N   0  0  0  0  0  0  0  0  0  0  0  0
   -1.2999    0.4060    1.2728 H   0  0  0  0  0  0  0  0  0  0  0  0
   -2.2663    0.1535   -2.4042 H   0  0  0  0  0  0  0  0  0  0  0  0
   -6.9179   -0.6050   -3.5495 H   0  0  0  0  0  0  0  0  0  0  0  0
   -7.5379   -0.6063   -1.0603 H   0  0  0  0  0  0  0  0  0  0  0  0
   -5.8435   -0.2664    1.2922 H   0  0  0  0  0  0  0  0  0  0  0  0
   -3.4410    0.1254    1.8339 H   0  0  0  0  0  0  0  0  0  0  0  0
    0.2170    2.1958    1.9500 H   0  0  0  0  0  0  0  0  0  0  0  0
    4.4778   -0.3330   -1.2052 H   0  0  0  0  0  0  0  0  0  0  0  0
    6.8239   -1.1688   -1.2301 H   0  0  0  0  0  0  0  0  0  0  0  0
    8.1003   -1.2766    0.9209 H   0  0  0  0  0  0  0  0  0  0  0  0
    6.9569   -0.5505    3.0197 H   0  0  0  0  0  0  0  0  0  0  0  0
  1  2  2  0
  2  3  1  0
  3  4  1  0
  4  5  2  0
  5  6  1  0
  6  7  2  0
  7  8  1  0
  8  9  1  0
  9 10  2  0
 10 11  1  0
 11 12  2  0
  2 13  1  0
 13 14  2  0
 14 15  1  0
 15 16  1  0
 16 17  1  0
 17 18  2  0
 18 19  1  0
 19 20  2  0
 20 21  1  0
 21 22  2  0
 16 23  2  0
 12  4  1  0
 23 13  1  0
 10  6  1  0
 22 17  1  0
  3 24  1  0
  5 25  1  0
  8 26  1  0
  9 27  1  0
 11 28  1  0
 12 29  1  0
 14 30  1  0
 18 31  1  0
 19 32  1  0
 20 33  1  0
 21 34  1  0
M  END
$$$$
OCNT-2310796
     RDKit          3D

 39 41  0  0  0  0  0  0  0  0999 V2000
   -1.7523    2.4163    0.1826 O   0  0  0  0  0  0  0  0  0  0  0  0
   -1.4016    1.2469    0.0486 C   0  0  0  0  0  0  0  0  0  0  0  0
   -2.2747    0.1738    0.0840 N   0  0  0  0  0  0  0  0  0  0  0  0
   -3.6783    0.1913    0.2499 C   0  0  0  0  0  0  0  0  0  0  0  0
   -4.4366    1.3564    0.3627 C   0  0  0  0  0  0  0  0  0  0  0  0
   -5.7867    1.3839    0.5085 N   0  0  0  0  0  0  0  0  0  0  0  0
   -6.4184    0.1979    0.5533 C   0  0  0  0  0  0  0  0  0  0  0  0
   -5.7657   -1.0186    0.4566 C   0  0  0  0  0  0  0  0  0  0  0  0
   -4.3715   -1.0356    0.2946 C   0  0  0  0  0  0  0  0  0  0  0  0
   -3.6726   -2.3702    0.2492 C   0  0  0  0  0  0  0  0  0  0  0  0
   -2.7080   -2.3999   -0.7967 O   0  0  0  0  0  0  0  0  0  0  0  0
    0.0030    0.8961   -0.1613 C   0  0  0  0  0  0  0  0  0  0  0  0
    1.0652    1.7766   -0.2512 C   0  0  0  0  0  0  0  0  0  0  0  0
    2.3258    1.1287   -0.4573 C   0  0  0  0  0  0  0  0  0  0  0  0
    2.1712   -0.2438   -0.5164 C   0  0  0  0  0  0  0  0  0  0  0  0
    3.2402   -1.2752   -0.7189 C   0  0  0  0  0  0  0  0  0  0  0  0
    4.3486   -1.1729    0.3303 C   0  0  0  0  0  0  0  0  0  0  0  0
    5.2920    0.0184    0.1368 C   0  0  0  0  0  0  0  0  0  0  0  0
    4.6785    1.3905    0.4316 C   0  0  0  0  0  0  0  0  0  0  0  0
    3.6361    1.8447   -0.5909 C   0  0  0  0  0  0  0  0  0  0  0  0
    0.5414   -0.7183   -0.3265 S   0  0  0  0  0  0  0  0  0  0  0  0
   -1.8534   -0.7423   -0.0651 H   0  0  0  0  0  0  0  0  0  0  0  0
   -3.9945    2.3465    0.3355 H   0  0  0  0  0  0  0  0  0  0  0  0
   -7.4963    0.2504    0.6780 H   0  0  0  0  0  0  0  0  0  0  0  0
   -6.3413   -1.9372    0.5147 H   0  0  0  0  0  0  0  0  0  0  0  0
   -3.1639   -2.5560    1.2007 H   0  0  0  0  0  0  0  0  0  0  0  0
   -4.3768   -3.1901    0.0735 H   0  0  0  0  0  0  0  0  0  0  0  0
   -3.1801   -2.1671   -1.6173 H   0  0  0  0  0  0  0  0  0  0  0  0
    0.9352    2.8509   -0.1705 H   0  0  0  0  0  0  0  0  0  0  0  0
    2.8107   -2.2835   -0.6660 H   0  0  0  0  0  0  0  0  0  0  0  0
    3.6605   -1.1702   -1.7267 H   0  0  0  0  0  0  0  0  0  0  0  0
    4.9546   -2.0856    0.2658 H   0  0  0  0  0  0  0  0  0  0  0  0
    3.9228   -1.1513    1.3413 H   0  0  0  0  0  0  0  0  0  0  0  0
    5.7054    0.0053   -0.8791 H   0  0  0  0  0  0  0  0  0  0  0  0
    6.1428   -0.1178    0.8165 H   0  0  0  0  0  0  0  0  0  0  0  0
    5.4946    2.1241    0.4265 H   0  0  0  0  0  0  0  0  0  0  0  0
    4.2550    1.4000    1.4437 H   0  0  0  0  0  0  0  0  0  0  0  0
    3.4689    2.9209   -0.4561 H   0  0  0  0  0  0  0  0  0  0  0  0
    4.0203    1.7160   -1.6103 H   0  0  0  0  0  0  0  0  0  0  0  0
  1  2  2  0
  2  3  1  0
  3  4  1  0
  4  5  2  0
  5  6  1  0
  6  7  2  0
  7  8  1  0
  8  9  2  0
  9 10  1  0
 10 11  1  0
  2 12  1  0
 12 13  2  0
 13 14  1  0
 14 15  2  0
 15 16  1  0
 16 17  1  0
 17 18  1  0
 18 19  1  0
 19 20  1  0
 15 21  1  0
  9  4  1  0
 21 12  1  0
 20 14  1  0
  3 22  1  0
  5 23  1  0
  7 24  1  0
  8 25  1  0
 10 26  1  0
 10 27  1  0
 11 28  1  0
 13 29  1  0
 16 30  1  0
 16 31  1  0
 17 32  1  0
 17 33  1  0
 18 34  1  0
 18 35  1  0
 19 36  1  0
 19 37  1  0
 20 38  1  0
 20 39  1  0
M  END
$$$$
OCNT-2310804
     RDKit          3D

 47 50  0  0  0  0  0  0  0  0999 V2000
   -0.5754   -1.0619   -1.4456 O   0  0  0  0  0  0  0  0  0  0  0  0
   -1.1227   -0.7134   -0.3977 C   0  0  0  0  0  0  0  0  0  0  0  0
   -0.4869   -0.5492    0.8273 N   0  0  0  0  0  0  0  0  0  0  0  0
    0.8596   -0.7518    1.0615 C   0  0  0  0  0  0  0  0  0  0  0  0
    1.8281   -1.1910    0.1934 C   0  0  0  0  0  0  0  0  0  0  0  0
    3.0000   -1.2084    0.8971 N   0  0  0  0  0  0  0  0  0  0  0  0
    4.3057   -1.6127    0.3951 C   0  0  0  0  0  0  0  0  0  0  0  0
    5.0149   -0.4699   -0.2834 C   0  0  0  0  0  0  0  0  0  0  0  0
    5.0974   -0.3974   -1.6773 C   0  0  0  0  0  0  0  0  0  0  0  0
    5.7572    0.6803   -2.2486 C   0  0  0  0  0  0  0  0  0  0  0  0
    6.3300    1.6741   -1.5376 N   0  0  0  0  0  0  0  0  0  0  0  0
    6.2313    1.5927   -0.1939 C   0  0  0  0  0  0  0  0  0  0  0  0
    5.5943    0.5567    0.4702 C   0  0  0  0  0  0  0  0  0  0  0  0
    2.8512   -0.8401    2.1888 N   0  0  0  0  0  0  0  0  0  0  0  0
    1.5504   -0.5487    2.2777 C   0  0  0  0  0  0  0  0  0  0  0  0
   -2.6675   -0.4184   -0.3376 C   0  0  0  0  0  0  0  0  0  0  0  0
   -2.9555    1.0323    0.0746 C   0  0  0  0  0  0  0  0  0  0  0  0
   -4.1118    1.3907    0.7900 C   0  0  0  0  0  0  0  0  0  0  0  0
   -4.3579    2.7187    1.1526 C   0  0  0  0  0  0  0  0  0  0  0  0
   -3.4647    3.7210    0.7884 C   0  0  0  0  0  0  0  0  0  0  0  0
   -2.3344    3.3995    0.0450 C   0  0  0  0  0  0  0  0  0  0  0  0
   -2.0891    2.0727   -0.3186 C   0  0  0  0  0  0  0  0  0  0  0  0
   -3.3090   -1.5141    0.5529 C   0  0  0  0  0  0  0  0  0  0  0  0
   -4.4126   -2.1132   -0.3026 C   0  0  0  0  0  0  0  0  0  0  0  0
   -3.8549   -1.9733   -1.7002 C   0  0  0  0  0  0  0  0  0  0  0  0
   -3.2663   -0.6386   -1.6874 N   0  0  0  0  0  0  0  0  0  0  0  0
   -1.0277   -0.1798    1.6010 H   0  0  0  0  0  0  0  0  0  0  0  0
    1.7942   -1.4747   -0.8492 H   0  0  0  0  0  0  0  0  0  0  0  0
    4.1474   -2.4512   -0.2931 H   0  0  0  0  0  0  0  0  0  0  0  0
    4.8959   -1.9908    1.2380 H   0  0  0  0  0  0  0  0  0  0  0  0
    4.6565   -1.1568   -2.3149 H   0  0  0  0  0  0  0  0  0  0  0  0
    5.8432    0.7755   -3.3274 H   0  0  0  0  0  0  0  0  0  0  0  0
    6.6903    2.4099    0.3552 H   0  0  0  0  0  0  0  0  0  0  0  0
    5.5418    0.5576    1.5553 H   0  0  0  0  0  0  0  0  0  0  0  0
    1.1603   -0.2044    3.2262 H   0  0  0  0  0  0  0  0  0  0  0  0
   -4.8585    0.6477    1.0577 H   0  0  0  0  0  0  0  0  0  0  0  0
   -5.2590    2.9708    1.7060 H   0  0  0  0  0  0  0  0  0  0  0  0
   -3.6610    4.7538    1.0633 H   0  0  0  0  0  0  0  0  0  0  0  0
   -1.6476    4.1823   -0.2673 H   0  0  0  0  0  0  0  0  0  0  0  0
   -1.2111    1.8667   -0.9297 H   0  0  0  0  0  0  0  0  0  0  0  0
   -3.6892   -1.1652    1.5170 H   0  0  0  0  0  0  0  0  0  0  0  0
   -2.5907   -2.3152    0.7746 H   0  0  0  0  0  0  0  0  0  0  0  0
   -5.3386   -1.5362   -0.1931 H   0  0  0  0  0  0  0  0  0  0  0  0
   -4.6227   -3.1535   -0.0377 H   0  0  0  0  0  0  0  0  0  0  0  0
   -3.0870   -2.7317   -1.8926 H   0  0  0  0  0  0  0  0  0  0  0  0
   -4.6314   -2.0616   -2.4649 H   0  0  0  0  0  0  0  0  0  0  0  0
   -2.5168   -0.5796   -2.3831 H   0  0  0  0  0  0  0  0  0  0  0  0
  1  2  2  0
  2  3  1  0
  3  4  1  0
  4  5  2  0
  5  6  1  0
  6  7  1  0
  7  8  1  0
  8  9  2  0
  9 10  1  0
 10 11  2  0
 11 12  1  0
 12 13  2  0
  6 14  1  0
 14 15  2  0
  2 16  1  0
 16 17  1  0
 17 18  2  0
 18 19  1  0
 19 20  2  0
 20 21  1  0
 21 22  2  0
 16 23  1  0
 23 24  1  0
 24 25  1  0
 25 26  1  0
 15  4  1  0
 26 16  1  0
 13  8  1  0
 22 17  1  0
  3 27  1  0
  5 28  1  0
  7 29  1  0
  7 30  1  0
  9 31  1  0
 10 32  1  0
 12 33  1  0
 13 34  1  0
 15 35  1  0
 18 36  1  0
 19 37  1  0
 20 38  1  0
 21 39  1  0
 22 40  1  0
 23 41  1  0
 23 42  1  0
 24 43  1  0
 24 44  1  0
 25 45  1  0
 25 46  1  0
 26 47  1  0
M  END
$$$$
OCNT-2310816
     RDKit          3D

 39 41  0  0  0  0  0  0  0  0999 V2000
   -4.7622    2.1575    1.1647 C   0  0  0  0  0  0  0  0  0  0  0  0
   -4.0640    0.8381    1.0340 C   0  0  0  0  0  0  0  0  0  0  0  0
   -2.7005    0.7498    1.2283 C   0  0  0  0  0  0  0  0  0  0  0  0
   -2.1306   -0.4983    1.0930 C   0  0  0  0  0  0  0  0  0  0  0  0
   -0.7645   -0.7170    1.2702 N   0  0  0  0  0  0  0  0  0  0  0  0
    0.1230    0.0553    0.3946 C   0  0  0  0  0  0  0  0  0  0  0  0
    0.0238   -0.3727   -1.0702 C   0  0  0  0  0  0  0  0  0  0  0  0
    1.3449    0.1082   -1.6643 C   0  0  0  0  0  0  0  0  0  0  0  0
    2.2867   -0.0449   -0.5705 N   0  0  0  0  0  0  0  0  0  0  0  0
    3.6326    0.2113   -0.6331 C   0  0  0  0  0  0  0  0  0  0  0  0
    4.3339    0.1185    0.5258 N   0  0  0  0  0  0  0  0  0  0  0  0
    5.6676    0.3486    0.5051 C   0  0  0  0  0  0  0  0  0  0  0  0
    6.3770    0.6794   -0.6337 C   0  0  0  0  0  0  0  0  0  0  0  0
    5.6727    0.7790   -1.8231 C   0  0  0  0  0  0  0  0  0  0  0  0
    4.3001    0.5433   -1.8213 C   0  0  0  0  0  0  0  0  0  0  0  0
    3.6458    0.6532   -2.9889 F   0  0  0  0  0  0  0  0  0  0  0  0
    1.6130   -0.2032    0.7162 C   0  0  0  0  0  0  0  0  0  0  0  0
   -2.8551   -1.5884    0.8105 N   0  0  0  0  0  0  0  0  0  0  0  0
   -4.1793   -1.4162    0.6471 C   0  0  0  0  0  0  0  0  0  0  0  0
   -4.9954   -2.6209    0.2985 C   0  0  0  0  0  0  0  0  0  0  0  0
   -4.8174   -0.2354    0.7304 N   0  0  0  0  0  0  0  0  0  0  0  0
   -5.8350    2.0518    0.9734 H   0  0  0  0  0  0  0  0  0  0  0  0
   -4.3567    2.8734    0.4430 H   0  0  0  0  0  0  0  0  0  0  0  0
   -4.6342    2.5549    2.1764 H   0  0  0  0  0  0  0  0  0  0  0  0
   -2.1120    1.6166    1.4950 H   0  0  0  0  0  0  0  0  0  0  0  0
   -0.6462   -1.7220    1.1325 H   0  0  0  0  0  0  0  0  0  0  0  0
   -0.0623    1.1338    0.4842 H   0  0  0  0  0  0  0  0  0  0  0  0
   -0.0493   -1.4647   -1.1549 H   0  0  0  0  0  0  0  0  0  0  0  0
   -0.8397    0.0610   -1.5840 H   0  0  0  0  0  0  0  0  0  0  0  0
    1.2694    1.1606   -1.9615 H   0  0  0  0  0  0  0  0  0  0  0  0
    1.6089   -0.4993   -2.5359 H   0  0  0  0  0  0  0  0  0  0  0  0
    6.1640    0.2543    1.4671 H   0  0  0  0  0  0  0  0  0  0  0  0
    7.4460    0.8533   -0.5941 H   0  0  0  0  0  0  0  0  0  0  0  0
    6.1725    1.0353   -2.7508 H   0  0  0  0  0  0  0  0  0  0  0  0
    1.9538    0.5167    1.4698 H   0  0  0  0  0  0  0  0  0  0  0  0
    1.7748   -1.2174    1.1002 H   0  0  0  0  0  0  0  0  0  0  0  0
   -6.0183   -2.5149    0.6724 H   0  0  0  0  0  0  0  0  0  0  0  0
   -4.5608   -3.5219    0.7421 H   0  0  0  0  0  0  0  0  0  0  0  0
   -5.0274   -2.7424   -0.7880 H   0  0  0  0  0  0  0  0  0  0  0  0
  1  2  1  0
  2  3  1  0
  3  4  2  0
  4  5  1  0
  5  6  1  0
  6  7  1  0
  7  8  1  0
  8  9  1  0
  9 10  1  0
 10 11  1  0
 11 12  2  0
 12 13  1  0
 13 14  2  0
 14 15  1  0
 15 16  1  0
  9 17  1  0
  4 18  1  0
 18 19  2  0
 19 20  1  0
 19 21  1  0
 21  2  2  0
 17  6  1  0
 15 10  2  0
  1 22  1  0
  1 23  1  0
  1 24  1  0
  3 25  1  0
  5 26  1  0
  6 27  1  0
  7 28  1  0
  7 29  1  0
  8 30  1  0
  8 31  1  0
 12 32  1  0
 13 33  1  0
 14 34  1  0
 17 35  1  0
 17 36  1  0
 20 37  1  0
 20 38  1  0
 20 39  1  0
M  END
$$$$
OCNT-2310826
     RDKit          3D

 46 49  0  0  0  0  0  0  0  0999 V2000
    1.7439    0.1393   -2.7108 O   0  0  0  0  0  0  0  0  0  0  0  0
    1.6969   -0.1563   -1.5159 C   0  0  0  0  0  0  0  0  0  0  0  0
    2.9251   -0.1811   -0.7444 C   0  0  0  0  0  0  0  0  0  0  0  0
    3.3528   -0.9377    0.3343 C   0  0  0  0  0  0  0  0  0  0  0  0
    4.6814   -0.5499    0.6635 C   0  0  0  0  0  0  0  0  0  0  0  0
    5.6066   -0.9354    1.6493 C   0  0  0  0  0  0  0  0  0  0  0  0
    5.2835   -1.8661    2.5589 F   0  0  0  0  0  0  0  0  0  0  0  0
    6.8717   -0.3485    1.6927 C   0  0  0  0  0  0  0  0  0  0  0  0
    7.2272    0.6196    0.7553 C   0  0  0  0  0  0  0  0  0  0  0  0
    6.3304    1.0207   -0.2428 C   0  0  0  0  0  0  0  0  0  0  0  0
    5.0654    0.4187   -0.2614 C   0  0  0  0  0  0  0  0  0  0  0  0
    4.0046    0.5958   -1.1159 N   0  0  0  0  0  0  0  0  0  0  0  0
    0.4812   -0.4376   -0.8997 N   0  0  0  0  0  0  0  0  0  0  0  0
   -0.6564   -0.8081   -1.7441 C   0  0  0  0  0  0  0  0  0  0  0  0
   -1.9881   -0.2232   -1.2385 C   0  0  0  0  0  0  0  0  0  0  0  0
   -2.2277   -0.5640    0.1775 N   0  0  0  0  0  0  0  0  0  0  0  0
   -3.5475   -0.1568    0.7046 C   0  0  0  0  0  0  0  0  0  0  0  0
   -3.8380    1.3553    0.6983 C   0  0  0  0  0  0  0  0  0  0  0  0
   -5.3189    1.5882    0.9627 C   0  0  0  0  0  0  0  0  0  0  0  0
   -6.1682    1.0151   -0.0306 O   0  0  0  0  0  0  0  0  0  0  0  0
   -5.5950   -0.0520   -0.7844 C   0  0  0  0  0  0  0  0  0  0  0  0
   -4.7043   -0.9496    0.0598 C   0  0  0  0  0  0  0  0  0  0  0  0
   -1.1097   -0.0522    0.9941 C   0  0  0  0  0  0  0  0  0  0  0  0
    0.2583   -0.6034    0.5386 C   0  0  0  0  0  0  0  0  0  0  0  0
    2.7868   -1.7076    0.8414 H   0  0  0  0  0  0  0  0  0  0  0  0
    7.5735   -0.6565    2.4615 H   0  0  0  0  0  0  0  0  0  0  0  0
    8.2174    1.0685    0.7960 H   0  0  0  0  0  0  0  0  0  0  0  0
    6.6131    1.7703   -0.9758 H   0  0  0  0  0  0  0  0  0  0  0  0
    3.9955    1.2105   -1.9196 H   0  0  0  0  0  0  0  0  0  0  0  0
   -0.4972   -0.4978   -2.7818 H   0  0  0  0  0  0  0  0  0  0  0  0
   -0.7065   -1.9043   -1.7414 H   0  0  0  0  0  0  0  0  0  0  0  0
   -2.7866   -0.6214   -1.8729 H   0  0  0  0  0  0  0  0  0  0  0  0
   -1.9634    0.8638   -1.3798 H   0  0  0  0  0  0  0  0  0  0  0  0
   -3.5524   -0.4731    1.7584 H   0  0  0  0  0  0  0  0  0  0  0  0
   -3.5854    1.8026   -0.2689 H   0  0  0  0  0  0  0  0  0  0  0  0
   -3.2395    1.8642    1.4618 H   0  0  0  0  0  0  0  0  0  0  0  0
   -5.6070    1.1706    1.9344 H   0  0  0  0  0  0  0  0  0  0  0  0
   -5.5328    2.6613    0.9984 H   0  0  0  0  0  0  0  0  0  0  0  0
   -6.4207   -0.6336   -1.2071 H   0  0  0  0  0  0  0  0  0  0  0  0
   -5.0423    0.3762   -1.6280 H   0  0  0  0  0  0  0  0  0  0  0  0
   -4.3426   -1.7983   -0.5319 H   0  0  0  0  0  0  0  0  0  0  0  0
   -5.3122   -1.3813    0.8666 H   0  0  0  0  0  0  0  0  0  0  0  0
   -1.2520   -0.3309    2.0450 H   0  0  0  0  0  0  0  0  0  0  0  0
   -1.0750    1.0438    0.9467 H   0  0  0  0  0  0  0  0  0  0  0  0
    0.3225   -1.6758    0.7568 H   0  0  0  0  0  0  0  0  0  0  0  0
    1.0313   -0.0821    1.1082 H   0  0  0  0  0  0  0  0  0  0  0  0
  1  2  2  0
  2  3  1  0
  3  4  2  0
  4  5  1  0
  5  6  2  0
  6  7  1  0
  6  8  1  0
  8  9  2  0
  9 10  1  0
 10 11  2  0
 11 12  1  0
  2 13  1  0
 13 14  1  0
 14 15  1  0
 15 16  1  0
 16 17  1  0
 17 18  1  0
 18 19  1  0
 19 20  1  0
 20 21  1  0
 21 22  1  0
 16 23  1  0
 23 24  1  0
 12  3  1  0
 24 13  1  0
 11  5  1  0
 22 17  1  0
  4 25  1  0
  8 26  1  0
  9 27  1  0
 10 28  1  0
 12 29  1  0
 14 30  1  0
 14 31  1  0
 15 32  1  0
 15 33  1  0
 17 34  1  0
 18 35  1  0
 18 36  1  0
 19 37  1  0
 19 38  1  0
 21 39  1  0
 21 40  1  0
 22 41  1  0
 22 42  1  0
 23 43  1  0
 23 44  1  0
 24 45  1  0
 24 46  1  0
M  END
$$$$
OCNT-2310827
     RDKit          3D

 44 47  0  0  0  0  0  0  0  0999 V2000
   -1.1415    1.0732   -2.6285 O   0  0  0  0  0  0  0  0  0  0  0  0
   -0.8263    0.5767   -1.5524 C   0  0  0  0  0  0  0  0  0  0  0  0
   -1.7330    0.0260   -0.6709 N   0  0  0  0  0  0  0  0  0  0  0  0
   -3.1401   -0.1207   -0.9966 C   0  0  0  0  0  0  0  0  0  0  0  0
   -3.3452   -1.3423   -1.8919 C   0  0  0  0  0  0  0  0  0  0  0  0
   -4.8298   -1.6318   -1.9860 C   0  0  0  0  0  0  0  0  0  0  0  0
   -5.3746   -1.9949   -0.7150 O   0  0  0  0  0  0  0  0  0  0  0  0
   -5.0517   -1.1414    0.3060 C   0  0  0  0  0  0  0  0  0  0  0  0
   -5.8368   -1.2516    1.4573 C   0  0  0  0  0  0  0  0  0  0  0  0
   -5.5987   -0.4178    2.5482 C   0  0  0  0  0  0  0  0  0  0  0  0
   -4.5763    0.5191    2.4778 C   0  0  0  0  0  0  0  0  0  0  0  0
   -4.3531    1.3311    3.5193 F   0  0  0  0  0  0  0  0  0  0  0  0
   -3.7792    0.6275    1.3424 C   0  0  0  0  0  0  0  0  0  0  0  0
   -3.9933   -0.2234    0.2450 C   0  0  0  0  0  0  0  0  0  0  0  0
    0.5968    0.5239   -1.1150 C   0  0  0  0  0  0  0  0  0  0  0  0
    1.6064    1.0557   -1.8902 C   0  0  0  0  0  0  0  0  0  0  0  0
    2.9154    0.9653   -1.4158 C   0  0  0  0  0  0  0  0  0  0  0  0
    3.1837    0.3591   -0.1909 C   0  0  0  0  0  0  0  0  0  0  0  0
    4.4673    0.2399    0.2934 N   0  0  0  0  0  0  0  0  0  0  0  0
    5.5448    1.1592   -0.0561 C   0  0  0  0  0  0  0  0  0  0  0  0
    6.4578    1.1557    1.1714 C   0  0  0  0  0  0  0  0  0  0  0  0
    6.1761   -0.1874    1.8260 C   0  0  0  0  0  0  0  0  0  0  0  0
    4.6751   -0.3520    1.6110 C   0  0  0  0  0  0  0  0  0  0  0  0
    2.1495   -0.1584    0.5160 N   0  0  0  0  0  0  0  0  0  0  0  0
    0.8478   -0.0760    0.0671 N   0  0  0  0  0  0  0  0  0  0  0  0
   -1.3587   -0.4616    0.1391 H   0  0  0  0  0  0  0  0  0  0  0  0
   -3.4598    0.7753   -1.5454 H   0  0  0  0  0  0  0  0  0  0  0  0
   -2.8305   -2.2130   -1.4635 H   0  0  0  0  0  0  0  0  0  0  0  0
   -2.9207   -1.1691   -2.8871 H   0  0  0  0  0  0  0  0  0  0  0  0
   -5.3889   -0.7787   -2.3903 H   0  0  0  0  0  0  0  0  0  0  0  0
   -4.9968   -2.4778   -2.6612 H   0  0  0  0  0  0  0  0  0  0  0  0
   -6.6406   -1.9822    1.4965 H   0  0  0  0  0  0  0  0  0  0  0  0
   -6.2056   -0.4885    3.4446 H   0  0  0  0  0  0  0  0  0  0  0  0
   -2.9923    1.3767    1.3254 H   0  0  0  0  0  0  0  0  0  0  0  0
    1.3900    1.5251   -2.8438 H   0  0  0  0  0  0  0  0  0  0  0  0
    3.7203    1.3603   -2.0262 H   0  0  0  0  0  0  0  0  0  0  0  0
    6.0784    0.7837   -0.9360 H   0  0  0  0  0  0  0  0  0  0  0  0
    5.1962    2.1784   -0.2573 H   0  0  0  0  0  0  0  0  0  0  0  0
    7.5110    1.2895    0.9091 H   0  0  0  0  0  0  0  0  0  0  0  0
    6.1709    1.9675    1.8510 H   0  0  0  0  0  0  0  0  0  0  0  0
    6.7238   -0.9811    1.3036 H   0  0  0  0  0  0  0  0  0  0  0  0
    6.4544   -0.2127    2.8830 H   0  0  0  0  0  0  0  0  0  0  0  0
    4.3856   -1.4076    1.6431 H   0  0  0  0  0  0  0  0  0  0  0  0
    4.1226    0.2011    2.3807 H   0  0  0  0  0  0  0  0  0  0  0  0
  1  2  2  0
  2  3  1  0
  3  4  1  0
  4  5  1  0
  5  6  1  0
  6  7  1  0
  7  8  1  0
  8  9  1  0
  9 10  2  0
 10 11  1  0
 11 12  1  0
 11 13  2  0
 13 14  1  0
  2 15  1  0
 15 16  2  0
 16 17  1  0
 17 18  2  0
 18 19  1  0
 19 20  1  0
 20 21  1  0
 21 22  1  0
 22 23  1  0
 18 24  1  0
 24 25  2  0
 14  4  1  0
 25 15  1  0
 14  8  2  0
 23 19  1  0
  3 26  1  0
  4 27  1  0
  5 28  1  0
  5 29  1  0
  6 30  1  0
  6 31  1  0
  9 32  1  0
 10 33  1  0
 13 34  1  0
 16 35  1  0
 17 36  1  0
 20 37  1  0
 20 38  1  0
 21 39  1  0
 21 40  1  0
 22 41  1  0
 22 42  1  0
 23 43  1  0
 23 44  1  0
M  END
$$$$
OCNT-2310829
     RDKit          3D

 42 44  0  0  0  0  0  0  0  0999 V2000
   -1.2894    1.8039    0.3580 O   0  0  0  0  0  0  0  0  0  0  0  0
   -1.4173    0.7827   -0.3038 C   0  0  0  0  0  0  0  0  0  0  0  0
   -0.3611    0.0426   -0.7977 N   0  0  0  0  0  0  0  0  0  0  0  0
    1.0179    0.3590   -0.4447 C   0  0  0  0  0  0  0  0  0  0  0  0
    1.9804   -0.1943   -1.4966 C   0  0  0  0  0  0  0  0  0  0  0  0
    3.4333    0.0408   -1.0843 C   0  0  0  0  0  0  0  0  0  0  0  0
    3.6915   -0.5663    0.2272 N   0  0  0  0  0  0  0  0  0  0  0  0
    5.1301   -0.5368    0.5882 C   0  0  0  0  0  0  0  0  0  0  0  0
    5.8727    0.8043    0.7395 C   0  0  0  0  0  0  0  0  0  0  0  0
    5.8498    1.5073   -0.4194 F   0  0  0  0  0  0  0  0  0  0  0  0
    5.2963    1.5789    1.6902 F   0  0  0  0  0  0  0  0  0  0  0  0
    2.8460    0.0459    1.2612 C   0  0  0  0  0  0  0  0  0  0  0  0
    1.3693   -0.1860    0.9426 C   0  0  0  0  0  0  0  0  0  0  0  0
   -2.7648    0.2373   -0.6197 C   0  0  0  0  0  0  0  0  0  0  0  0
   -3.0327   -0.0947   -1.9586 C   0  0  0  0  0  0  0  0  0  0  0  0
   -4.2750   -0.6074   -2.3171 C   0  0  0  0  0  0  0  0  0  0  0  0
   -5.2537   -0.7891   -1.3426 C   0  0  0  0  0  0  0  0  0  0  0  0
   -5.0033   -0.4566    0.0015 C   0  0  0  0  0  0  0  0  0  0  0  0
   -5.9738   -0.6350    0.9913 C   0  0  0  0  0  0  0  0  0  0  0  0
   -5.8042   -0.3456    2.3005 N   0  0  0  0  0  0  0  0  0  0  0  0
   -4.6050    0.1554    2.6507 C   0  0  0  0  0  0  0  0  0  0  0  0
   -3.5693    0.3719    1.7553 C   0  0  0  0  0  0  0  0  0  0  0  0
   -3.7506    0.0685    0.3887 C   0  0  0  0  0  0  0  0  0  0  0  0
   -0.5558   -0.8912   -1.1376 H   0  0  0  0  0  0  0  0  0  0  0  0
    1.1119    1.4529   -0.4230 H   0  0  0  0  0  0  0  0  0  0  0  0
    1.8071   -1.2695   -1.6395 H   0  0  0  0  0  0  0  0  0  0  0  0
    1.7895    0.2818   -2.4661 H   0  0  0  0  0  0  0  0  0  0  0  0
    3.6365    1.1183   -1.0762 H   0  0  0  0  0  0  0  0  0  0  0  0
    4.0823   -0.4128   -1.8428 H   0  0  0  0  0  0  0  0  0  0  0  0
    5.6648   -1.1285   -0.1656 H   0  0  0  0  0  0  0  0  0  0  0  0
    5.2413   -1.0878    1.5306 H   0  0  0  0  0  0  0  0  0  0  0  0
    6.9173    0.6399    1.0186 H   0  0  0  0  0  0  0  0  0  0  0  0
    3.0321    1.1229    1.3473 H   0  0  0  0  0  0  0  0  0  0  0  0
    3.0602   -0.4056    2.2371 H   0  0  0  0  0  0  0  0  0  0  0  0
    0.7496    0.2948    1.7091 H   0  0  0  0  0  0  0  0  0  0  0  0
    1.1442   -1.2600    0.9917 H   0  0  0  0  0  0  0  0  0  0  0  0
   -2.2808    0.0676   -2.7279 H   0  0  0  0  0  0  0  0  0  0  0  0
   -4.4851   -0.8574   -3.3543 H   0  0  0  0  0  0  0  0  0  0  0  0
   -6.2222   -1.1894   -1.6380 H   0  0  0  0  0  0  0  0  0  0  0  0
   -6.9561   -1.0339    0.7494 H   0  0  0  0  0  0  0  0  0  0  0  0
   -4.4876    0.3891    3.7051 H   0  0  0  0  0  0  0  0  0  0  0  0
   -2.6360    0.7818    2.1298 H   0  0  0  0  0  0  0  0  0  0  0  0
  1  2  2  0
  2  3  1  0
  3  4  1  0
  4  5  1  0
  5  6  1  0
  6  7  1  0
  7  8  1  0
  8  9  1  0
  9 10  1  0
  9 11  1  0
  7 12  1  0
 12 13  1  0
  2 14  1  0
 14 15  2  0
 15 16  1  0
 16 17  2  0
 17 18  1  0
 18 19  2  0
 19 20  1  0
 20 21  2  0
 21 22  1  0
 22 23  2  0
 13  4  1  0
 23 14  1  0
 23 18  1  0
  3 24  1  0
  4 25  1  0
  5 26  1  0
  5 27  1  0
  6 28  1  0
  6 29  1  0
  8 30  1  0
  8 31  1  0
  9 32  1  0
 12 33  1  0
 12 34  1  0
 13 35  1  0
 13 36  1  0
 15 37  1  0
 16 38  1  0
 17 39  1  0
 19 40  1  0
 21 41  1  0
 22 42  1  0
M  END
$$$$
OCNT-2310830
     RDKit          3D

 53 55  0  0  0  0  0  0  0  0999 V2000
   -3.7241   -0.8909    2.1128 C   0  0  0  0  0  0  0  0  0  0  0  0
   -2.3282   -0.7934    1.5006 C   0  0  0  0  0  0  0  0  0  0  0  0
   -2.1435   -1.3069    0.1366 N   0  0  0  0  0  0  0  0  0  0  0  0
   -2.8672   -2.5402   -0.1415 C   0  0  0  0  0  0  0  0  0  0  0  0
   -2.2590   -0.2960   -0.9632 C   0  0  0  0  0  0  0  0  0  0  0  0
   -0.9723    0.5941   -0.9830 C   0  0  0  0  0  0  0  0  0  0  0  0
   -0.9227    1.7488   -1.3986 O   0  0  0  0  0  0  0  0  0  0  0  0
    0.1560   -0.0787   -0.5364 N   0  0  0  0  0  0  0  0  0  0  0  0
    1.4205    0.6011   -0.2925 C   0  0  0  0  0  0  0  0  0  0  0  0
    1.3887    1.3445    1.0453 C   0  0  0  0  0  0  0  0  0  0  0  0
    2.6969    2.0892    1.3220 C   0  0  0  0  0  0  0  0  0  0  0  0
    3.8842    1.6045    0.4834 C   0  0  0  0  0  0  0  0  0  0  0  0
    3.8073    0.1611    0.3159 N   0  0  0  0  0  0  0  0  0  0  0  0
    4.9876   -0.4989   -0.0105 C   0  0  0  0  0  0  0  0  0  0  0  0
    6.1592    0.1492    0.1094 N   0  0  0  0  0  0  0  0  0  0  0  0
    7.2864   -0.5234   -0.1904 C   0  0  0  0  0  0  0  0  0  0  0  0
    7.3019   -1.8277   -0.6079 C   0  0  0  0  0  0  0  0  0  0  0  0
    6.0689   -2.4163   -0.7017 C   0  0  0  0  0  0  0  0  0  0  0  0
    4.9171   -1.7817   -0.4125 N   0  0  0  0  0  0  0  0  0  0  0  0
    2.6110   -0.3835   -0.3339 C   0  0  0  0  0  0  0  0  0  0  0  0
   -3.5753    0.4710   -1.0226 C   0  0  0  0  0  0  0  0  0  0  0  0
   -4.6485   -0.0508   -1.7674 C   0  0  0  0  0  0  0  0  0  0  0  0
   -5.8738    0.6166   -1.8284 C   0  0  0  0  0  0  0  0  0  0  0  0
   -6.0477    1.8179   -1.1469 C   0  0  0  0  0  0  0  0  0  0  0  0
   -4.9973    2.3524   -0.4057 C   0  0  0  0  0  0  0  0  0  0  0  0
   -3.7719    1.6843   -0.3425 C   0  0  0  0  0  0  0  0  0  0  0  0
   -4.4851   -0.3986    1.5041 H   0  0  0  0  0  0  0  0  0  0  0  0
   -4.0250   -1.9332    2.2595 H   0  0  0  0  0  0  0  0  0  0  0  0
   -3.7276   -0.4125    3.0981 H   0  0  0  0  0  0  0  0  0  0  0  0
   -1.9694    0.2395    1.5796 H   0  0  0  0  0  0  0  0  0  0  0  0
   -1.6543   -1.3687    2.1488 H   0  0  0  0  0  0  0  0  0  0  0  0
   -2.5527   -2.9646   -1.1015 H   0  0  0  0  0  0  0  0  0  0  0  0
   -3.9524   -2.4022   -0.1707 H   0  0  0  0  0  0  0  0  0  0  0  0
   -2.6377   -3.2978    0.6164 H   0  0  0  0  0  0  0  0  0  0  0  0
   -2.1635   -0.8357   -1.9186 H   0  0  0  0  0  0  0  0  0  0  0  0
   -0.0578   -0.9325   -0.0235 H   0  0  0  0  0  0  0  0  0  0  0  0
    1.5533    1.3426   -1.0916 H   0  0  0  0  0  0  0  0  0  0  0  0
    1.2080    0.6236    1.8544 H   0  0  0  0  0  0  0  0  0  0  0  0
    0.5506    2.0509    1.0847 H   0  0  0  0  0  0  0  0  0  0  0  0
    2.5584    3.1627    1.1458 H   0  0  0  0  0  0  0  0  0  0  0  0
    2.9340    1.9858    2.3885 H   0  0  0  0  0  0  0  0  0  0  0  0
    3.8783    2.0951   -0.4985 H   0  0  0  0  0  0  0  0  0  0  0  0
    4.7964    1.9253    1.0011 H   0  0  0  0  0  0  0  0  0  0  0  0
    8.2055    0.0432   -0.0773 H   0  0  0  0  0  0  0  0  0  0  0  0
    8.2161   -2.3521   -0.8429 H   0  0  0  0  0  0  0  0  0  0  0  0
    5.9598   -3.4484   -1.0201 H   0  0  0  0  0  0  0  0  0  0  0  0
    2.3296   -1.3159    0.1738 H   0  0  0  0  0  0  0  0  0  0  0  0
    2.8001   -0.6311   -1.3878 H   0  0  0  0  0  0  0  0  0  0  0  0
   -4.5349   -0.9865   -2.3105 H   0  0  0  0  0  0  0  0  0  0  0  0
   -6.6910    0.1997   -2.4110 H   0  0  0  0  0  0  0  0  0  0  0  0
   -6.9990    2.3405   -1.1972 H   0  0  0  0  0  0  0  0  0  0  0  0
   -5.1269    3.2942    0.1210 H   0  0  0  0  0  0  0  0  0  0  0  0
   -2.9673    2.1304    0.2385 H   0  0  0  0  0  0  0  0  0  0  0  0
  1  2  1  0
  2  3  1  0
  3  4  1  0
  3  5  1  0
  5  6  1  0
  6  7  2  0
  6  8  1  0
  8  9  1  0
  9 10  1  0
 10 11  1  0
 11 12  1  0
 12 13  1  0
 13 14  1  0
 14 15  2  0
 15 16  1  0
 16 17  2  0
 17 18  1  0
 18 19  2  0
 13 20  1  0
  5 21  1  0
 21 22  2  0
 22 23  1  0
 23 24  2  0
 24 25  1  0
 25 26  2  0
 20  9  1  0
 26 21  1  0
 19 14  1  0
  1 27  1  0
  1 28  1  0
  1 29  1  0
  2 30  1  0
  2 31  1  0
  4 32  1  0
  4 33  1  0
  4 34  1  0
  5 35  1  0
  8 36  1  0
  9 37  1  0
 10 38  1  0
 10 39  1  0
 11 40  1  0
 11 41  1  0
 12 42  1  0
 12 43  1  0
 16 44  1  0
 17 45  1  0
 18 46  1  0
 20 47  1  0
 20 48  1  0
 22 49  1  0
 23 50  1  0
 24 51  1  0
 25 52  1  0
 26 53  1  0
M  END
$$$$
OCNT-2310833
     RDKit          3D

 49 52  0  0  0  0  0  0  0  0999 V2000
    3.1070   -3.8500    0.0131 C   0  0  0  0  0  0  0  0  0  0  0  0
    3.5998   -2.6188    0.5808 N   0  0  0  0  0  0  0  0  0  0  0  0
    2.8578   -1.6105    1.1259 C   0  0  0  0  0  0  0  0  0  0  0  0
    3.7580   -0.6367    1.5017 C   0  0  0  0  0  0  0  0  0  0  0  0
    3.4113    0.6149    2.1432 C   0  0  0  0  0  0  0  0  0  0  0  0
    3.8911    0.8372    3.4448 C   0  0  0  0  0  0  0  0  0  0  0  0
    3.5912    2.0174    4.1257 C   0  0  0  0  0  0  0  0  0  0  0  0
    2.8088    2.9903    3.5136 C   0  0  0  0  0  0  0  0  0  0  0  0
    2.3324    2.7857    2.2187 C   0  0  0  0  0  0  0  0  0  0  0  0
    2.6333    1.6057    1.5103 C   0  0  0  0  0  0  0  0  0  0  0  0
    2.0851    1.4597    0.1121 C   0  0  0  0  0  0  0  0  0  0  0  0
    0.6922    1.0766    0.1456 N   0  0  0  0  0  0  0  0  0  0  0  0
    0.0070    0.9084   -1.0263 C   0  0  0  0  0  0  0  0  0  0  0  0
    0.4558    1.1632   -2.1351 O   0  0  0  0  0  0  0  0  0  0  0  0
   -1.2470    0.4061   -0.7948 N   0  0  0  0  0  0  0  0  0  0  0  0
   -2.1659    0.3189   -1.9088 C   0  0  1  0  0  0  0  0  0  0  0  0
   -3.3895   -0.5018   -1.6030 C   0  0  0  0  0  0  0  0  0  0  0  0
   -3.4694   -1.7188   -0.9429 C   0  0  0  0  0  0  0  0  0  0  0  0
   -4.7198   -2.3278   -0.8193 C   0  0  0  0  0  0  0  0  0  0  0  0
   -5.8648   -1.7265   -1.3649 C   0  0  0  0  0  0  0  0  0  0  0  0
   -5.7760   -0.5083   -2.0420 C   0  0  0  0  0  0  0  0  0  0  0  0
   -4.5338    0.0951   -2.1487 C   0  0  0  0  0  0  0  0  0  0  0  0
   -4.1920    1.3754   -2.8544 C   0  0  0  0  0  0  0  0  0  0  0  0
   -2.8038    1.6944   -2.2665 C   0  0  1  0  0  0  0  0  0  0  0  0
   -2.9604    2.5014   -1.0784 O   0  0  0  0  0  0  0  0  0  0  0  0
    5.0195   -1.1798    1.1749 C   0  0  0  0  0  0  0  0  0  0  0  0
    4.9254   -2.3876    0.6115 N   0  0  0  0  0  0  0  0  0  0  0  0
    3.5225   -4.6837    0.5844 H   0  0  0  0  0  0  0  0  0  0  0  0
    2.0158   -3.8656    0.0695 H   0  0  0  0  0  0  0  0  0  0  0  0
    3.4271   -3.9005   -1.0306 H   0  0  0  0  0  0  0  0  0  0  0  0
    1.7812   -1.6706    1.1925 H   0  0  0  0  0  0  0  0  0  0  0  0
    4.4954    0.0817    3.9438 H   0  0  0  0  0  0  0  0  0  0  0  0
    3.9652    2.1731    5.1342 H   0  0  0  0  0  0  0  0  0  0  0  0
    2.5686    3.9093    4.0421 H   0  0  0  0  0  0  0  0  0  0  0  0
    1.7194    3.5561    1.7529 H   0  0  0  0  0  0  0  0  0  0  0  0
    2.1699    2.4122   -0.4266 H   0  0  0  0  0  0  0  0  0  0  0  0
    2.6427    0.7305   -0.4847 H   0  0  0  0  0  0  0  0  0  0  0  0
    0.4128    0.4534    0.8878 H   0  0  0  0  0  0  0  0  0  0  0  0
   -1.6785    0.8059    0.0285 H   0  0  0  0  0  0  0  0  0  0  0  0
   -1.6667   -0.1095   -2.7872 H   0  0  0  0  0  0  0  0  0  0  0  0
   -2.5812   -2.1904   -0.5343 H   0  0  0  0  0  0  0  0  0  0  0  0
   -4.8078   -3.2799   -0.3016 H   0  0  0  0  0  0  0  0  0  0  0  0
   -6.8293   -2.2181   -1.2632 H   0  0  0  0  0  0  0  0  0  0  0  0
   -6.6618   -0.0510   -2.4710 H   0  0  0  0  0  0  0  0  0  0  0  0
   -4.9248    2.1585   -2.6398 H   0  0  0  0  0  0  0  0  0  0  0  0
   -4.1300    1.1881   -3.9313 H   0  0  0  0  0  0  0  0  0  0  0  0
   -2.1771    2.2662   -2.9587 H   0  0  0  0  0  0  0  0  0  0  0  0
   -3.3155    3.3603   -1.3649 H   0  0  0  0  0  0  0  0  0  0  0  0
    5.9992   -0.7435    1.3215 H   0  0  0  0  0  0  0  0  0  0  0  0
  1  2  1  0
  2  3  1  0
  3  4  2  0
  4  5  1  0
  5  6  2  0
  6  7  1  0
  7  8  2  0
  8  9  1  0
  9 10  2  0
 10 11  1  0
 11 12  1  0
 12 13  1  0
 13 14  2  0
 13 15  1  0
 15 16  1  0
 16 17  1  0
 17 18  2  0
 18 19  1  0
 19 20  2  0
 20 21  1  0
 21 22  2  0
 22 23  1  0
 23 24  1  0
 24 25  1  0
  4 26  1  0
 26 27  2  0
 27  2  1  0
 10  5  1  0
 24 16  1  0
 22 17  1  0
  1 28  1  0
  1 29  1  0
  1 30  1  0
  3 31  1  0
  6 32  1  0
  7 33  1  0
  8 34  1  0
  9 35  1  0
 11 36  1  0
 11 37  1  0
 12 38  1  0
 15 39  1  0
 16 40  1  6
 18 41  1  0
 19 42  1  0
 20 43  1  0
 21 44  1  0
 23 45  1  0
 23 46  1  0
 24 47  1  6
 25 48  1  0
 26 49  1  0
M  END
$$$$
OCNT-2310843
     RDKit          3D

 55 57  0  0  0  0  0  0  0  0999 V2000
   -3.8106    3.0210   -1.9053 C   0  0  0  0  0  0  0  0  0  0  0  0
   -3.6998    2.1047   -0.8186 O   0  0  0  0  0  0  0  0  0  0  0  0
   -4.6193    1.0197   -0.9141 C   0  0  0  0  0  0  0  0  0  0  0  0
   -3.8844   -0.3140   -0.7538 C   0  0  0  0  0  0  0  0  0  0  0  0
   -4.8836   -1.5070   -0.8157 C   0  0  0  0  0  0  0  0  0  0  0  0
   -5.7896   -1.6201    0.4340 C   0  0  0  0  0  0  0  0  0  0  0  0
   -5.7012   -3.1521    0.2552 C   0  0  0  0  0  0  0  0  0  0  0  0
   -4.3521   -2.9166   -0.4624 C   0  0  0  0  0  0  0  0  0  0  0  0
   -2.8269   -0.3855    0.3681 C   0  0  0  0  0  0  0  0  0  0  0  0
   -1.8887   -0.8927   -0.6329 N   0  0  0  0  0  0  0  0  0  0  0  0
   -0.5210   -0.7844   -0.6446 C   0  0  0  0  0  0  0  0  0  0  0  0
    0.1357   -0.7114   -1.6778 O   0  0  0  0  0  0  0  0  0  0  0  0
    0.0382   -0.7612    0.6121 N   0  0  0  0  0  0  0  0  0  0  0  0
    1.4811   -0.6948    0.7696 C   0  0  0  0  0  0  0  0  0  0  0  0
    2.0386    0.6980    0.4531 C   0  0  0  0  0  0  0  0  0  0  0  0
    3.5399    0.7616    0.6058 C   0  0  0  0  0  0  0  0  0  0  0  0
    4.1231    1.2846    1.7681 C   0  0  0  0  0  0  0  0  0  0  0  0
    5.5174    1.3537    1.9137 C   0  0  0  0  0  0  0  0  0  0  0  0
    6.0909    1.9428    3.1708 C   0  0  0  0  0  0  0  0  0  0  0  0
    6.3234    0.8941    0.8618 C   0  0  0  0  0  0  0  0  0  0  0  0
    7.6901    0.9502    0.9216 O   0  0  0  0  0  0  0  0  0  0  0  0
    5.7620    0.3609   -0.3070 C   0  0  0  0  0  0  0  0  0  0  0  0
    6.6336   -0.1221   -1.4316 C   0  0  0  0  0  0  0  0  0  0  0  0
    4.3673    0.2937   -0.4221 C   0  0  0  0  0  0  0  0  0  0  0  0
   -2.7431   -0.5468   -1.7679 C   0  0  0  0  0  0  0  0  0  0  0  0
   -4.8054    3.4714   -1.9359 H   0  0  0  0  0  0  0  0  0  0  0  0
   -3.0762    3.8100   -1.7580 H   0  0  0  0  0  0  0  0  0  0  0  0
   -3.5861    2.5158   -2.8521 H   0  0  0  0  0  0  0  0  0  0  0  0
   -5.3516    1.1501   -0.1113 H   0  0  0  0  0  0  0  0  0  0  0  0
   -5.1646    1.0401   -1.8652 H   0  0  0  0  0  0  0  0  0  0  0  0
   -5.4662   -1.5150   -1.7502 H   0  0  0  0  0  0  0  0  0  0  0  0
   -5.3536   -1.2650    1.3747 H   0  0  0  0  0  0  0  0  0  0  0  0
   -6.7932   -1.1981    0.3310 H   0  0  0  0  0  0  0  0  0  0  0  0
   -6.4808   -3.5669   -0.3963 H   0  0  0  0  0  0  0  0  0  0  0  0
   -5.6571   -3.7374    1.1780 H   0  0  0  0  0  0  0  0  0  0  0  0
   -3.4987   -2.9836    0.2200 H   0  0  0  0  0  0  0  0  0  0  0  0
   -4.1589   -3.5715   -1.3188 H   0  0  0  0  0  0  0  0  0  0  0  0
   -2.5059    0.5734    0.7907 H   0  0  0  0  0  0  0  0  0  0  0  0
   -3.0046   -1.0785    1.1932 H   0  0  0  0  0  0  0  0  0  0  0  0
   -0.4748   -1.3084    1.2880 H   0  0  0  0  0  0  0  0  0  0  0  0
    1.7002   -0.9613    1.8091 H   0  0  0  0  0  0  0  0  0  0  0  0
    1.9358   -1.4587    0.1279 H   0  0  0  0  0  0  0  0  0  0  0  0
    1.5642    1.4422    1.1077 H   0  0  0  0  0  0  0  0  0  0  0  0
    1.7752    1.0040   -0.5666 H   0  0  0  0  0  0  0  0  0  0  0  0
    3.4815    1.6515    2.5662 H   0  0  0  0  0  0  0  0  0  0  0  0
    5.3130    2.1597    3.9067 H   0  0  0  0  0  0  0  0  0  0  0  0
    6.6039    2.8803    2.9448 H   0  0  0  0  0  0  0  0  0  0  0  0
    6.7923    1.2472    3.6386 H   0  0  0  0  0  0  0  0  0  0  0  0
    7.9631    1.3164    1.7752 H   0  0  0  0  0  0  0  0  0  0  0  0
    7.2887   -0.9252   -1.0866 H   0  0  0  0  0  0  0  0  0  0  0  0
    6.0392   -0.5138   -2.2597 H   0  0  0  0  0  0  0  0  0  0  0  0
    7.2416    0.6998   -1.8206 H   0  0  0  0  0  0  0  0  0  0  0  0
    3.9179   -0.1164   -1.3268 H   0  0  0  0  0  0  0  0  0  0  0  0
   -2.8722   -1.3732   -2.4741 H   0  0  0  0  0  0  0  0  0  0  0  0
   -2.3875    0.3349   -2.3100 H   0  0  0  0  0  0  0  0  0  0  0  0
  1  2  1  0
  2  3  1  0
  3  4  1  0
  4  5  1  0
  5  6  1  0
  6  7  1  0
  7  8  1  0
  4  9  1  0
  9 10  1  0
 10 11  1  0
 11 12  2  0
 11 13  1  0
 13 14  1  0
 14 15  1  0
 15 16  1  0
 16 17  1  0
 17 18  2  0
 18 19  1  0
 18 20  1  0
 20 21  1  0
 20 22  2  0
 22 23  1  0
 22 24  1  0
 10 25  1  0
 25  4  1  0
  8  5  1  0
 24 16  2  0
  1 26  1  0
  1 27  1  0
  1 28  1  0
  3 29  1  0
  3 30  1  0
  5 31  1  0
  6 32  1  0
  6 33  1  0
  7 34  1  0
  7 35  1  0
  8 36  1  0
  8 37  1  0
  9 38  1  0
  9 39  1  0
 13 40  1  0
 14 41  1  0
 14 42  1  0
 15 43  1  0
 15 44  1  0
 17 45  1  0
 19 46  1  0
 19 47  1  0
 19 48  1  0
 21 49  1  0
 23 50  1  0
 23 51  1  0
 23 52  1  0
 24 53  1  0
 25 54  1  0
 25 55  1  0
M  END
$$$$
OCNT-2310853
     RDKit          3D

 43 45  0  0  0  0  0  0  0  0999 V2000
    2.5466    0.7636   -2.8479 C   0  0  0  0  0  0  0  0  0  0  0  0
    1.9641    0.7171   -1.4630 C   0  0  0  0  0  0  0  0  0  0  0  0
    0.6367    0.2879   -1.2810 C   0  0  0  0  0  0  0  0  0  0  0  0
    0.0523    0.2715   -0.0061 C   0  0  0  0  0  0  0  0  0  0  0  0
   -1.2767   -0.1182    0.2485 N   0  0  0  0  0  0  0  0  0  0  0  0
   -2.1874   -0.6811   -0.6380 C   0  0  0  0  0  0  0  0  0  0  0  0
   -1.9568   -1.0012   -1.8022 O   0  0  0  0  0  0  0  0  0  0  0  0
   -3.5139   -1.0291    0.0111 C   0  0  0  0  0  0  0  0  0  0  0  0
   -4.6192   -1.3278   -1.0136 C   0  0  0  0  0  0  0  0  0  0  0  0
   -5.8896   -1.0199   -0.2430 C   0  0  0  0  0  0  0  0  0  0  0  0
   -5.4959    0.0997    0.5777 N   0  0  0  0  0  0  0  0  0  0  0  0
   -6.4482    0.8432    1.3676 C   0  0  0  0  0  0  0  0  0  0  0  0
   -4.1355    0.0769    0.8457 C   0  0  0  0  0  0  0  0  0  0  0  0
   -3.5365    0.7812    1.6463 O   0  0  0  0  0  0  0  0  0  0  0  0
    0.8105    0.6794    1.1039 C   0  0  0  0  0  0  0  0  0  0  0  0
    2.1441    1.0562    0.9471 C   0  0  0  0  0  0  0  0  0  0  0  0
    2.7229    1.0491   -0.3299 C   0  0  0  0  0  0  0  0  0  0  0  0
    4.0331    1.4475   -0.4701 O   0  0  0  0  0  0  0  0  0  0  0  0
    4.9769    0.5527   -0.0035 C   0  0  0  0  0  0  0  0  0  0  0  0
    5.0472   -0.7612   -0.4634 C   0  0  0  0  0  0  0  0  0  0  0  0
    6.0692   -1.5628    0.0163 C   0  0  0  0  0  0  0  0  0  0  0  0
    7.0033   -1.1410    0.9016 N   0  0  0  0  0  0  0  0  0  0  0  0
    6.9079    0.1434    1.3196 C   0  0  0  0  0  0  0  0  0  0  0  0
    5.9221    1.0250    0.9010 C   0  0  0  0  0  0  0  0  0  0  0  0
    1.7593    0.9175   -3.6043 H   0  0  0  0  0  0  0  0  0  0  0  0
    3.0665   -0.1779   -3.0735 H   0  0  0  0  0  0  0  0  0  0  0  0
    3.2487    1.5997   -2.9484 H   0  0  0  0  0  0  0  0  0  0  0  0
    0.0646   -0.0013   -2.1618 H   0  0  0  0  0  0  0  0  0  0  0  0
   -1.6320    0.1168    1.1762 H   0  0  0  0  0  0  0  0  0  0  0  0
   -3.3618   -1.8984    0.6673 H   0  0  0  0  0  0  0  0  0  0  0  0
   -4.5878   -2.3564   -1.4054 H   0  0  0  0  0  0  0  0  0  0  0  0
   -4.5462   -0.6359   -1.8777 H   0  0  0  0  0  0  0  0  0  0  0  0
   -6.1809   -1.8478    0.4148 H   0  0  0  0  0  0  0  0  0  0  0  0
   -6.7243   -0.7478   -0.9056 H   0  0  0  0  0  0  0  0  0  0  0  0
   -7.2668    1.1774    0.7221 H   0  0  0  0  0  0  0  0  0  0  0  0
   -6.8342    0.1938    2.1598 H   0  0  0  0  0  0  0  0  0  0  0  0
   -5.9654    1.7151    1.8215 H   0  0  0  0  0  0  0  0  0  0  0  0
    0.3798    0.6841    2.1043 H   0  0  0  0  0  0  0  0  0  0  0  0
    2.7260    1.3565    1.8183 H   0  0  0  0  0  0  0  0  0  0  0  0
    4.3402   -1.1529   -1.1865 H   0  0  0  0  0  0  0  0  0  0  0  0
    6.1724   -2.5949   -0.3119 H   0  0  0  0  0  0  0  0  0  0  0  0
    7.6702    0.4523    2.0318 H   0  0  0  0  0  0  0  0  0  0  0  0
    5.8942    2.0478    1.2616 H   0  0  0  0  0  0  0  0  0  0  0  0
  1  2  1  0
  2  3  1  0
  3  4  2  0
  4  5  1  0
  5  6  1  0
  6  7  2  0
  6  8  1  0
  8  9  1  0
  9 10  1  0
 10 11  1  0
 11 12  1  0
 11 13  1  0
 13 14  2  0
  4 15  1  0
 15 16  2  0
 16 17  1  0
 17 18  1  0
 18 19  1  0
 19 20  2  0
 20 21  1  0
 21 22  2  0
 22 23  1  0
 23 24  2  0
 17  2  2  0
 24 19  1  0
 13  8  1  0
  1 25  1  0
  1 26  1  0
  1 27  1  0
  3 28  1  0
  5 29  1  0
  8 30  1  0
  9 31  1  0
  9 32  1  0
 10 33  1  0
 10 34  1  0
 12 35  1  0
 12 36  1  0
 12 37  1  0
 15 38  1  0
 16 39  1  0
 20 40  1  0
 21 41  1  0
 23 42  1  0
 24 43  1  0
M  END
$$$$
OCNT-2310859
     RDKit          3D

 48 51  0  0  0  0  0  0  0  0999 V2000
    6.1015    1.8848    1.2797 C   0  0  0  0  0  0  0  0  0  0  0  0
    6.4614    0.5424    0.9852 O   0  0  0  0  0  0  0  0  0  0  0  0
    5.4803   -0.2792    0.4975 C   0  0  0  0  0  0  0  0  0  0  0  0
    4.1455    0.0851    0.2710 C   0  0  0  0  0  0  0  0  0  0  0  0
    3.1941   -0.8239   -0.2381 C   0  0  0  0  0  0  0  0  0  0  0  0
    1.8801   -0.4456   -0.4584 N   0  0  0  0  0  0  0  0  0  0  0  0
    1.2497    0.6470    0.3088 C   0  0  0  0  0  0  0  0  0  0  0  0
   -0.2598    0.3897    0.5259 C   0  0  0  0  0  0  0  0  0  0  0  0
   -1.0007    0.2519   -0.7567 N   0  0  0  0  0  0  0  0  0  0  0  0
   -2.1882   -0.4849   -0.5230 C   0  0  0  0  0  0  0  0  0  0  0  0
   -2.1435   -1.8273   -0.6195 N   0  0  0  0  0  0  0  0  0  0  0  0
   -3.2749   -2.4888   -0.3499 C   0  0  0  0  0  0  0  0  0  0  0  0
   -4.4433   -1.9455    0.0055 N   0  0  0  0  0  0  0  0  0  0  0  0
   -4.4701   -0.6004    0.0914 C   0  0  0  0  0  0  0  0  0  0  0  0
   -3.3594    0.1922   -0.1798 C   0  0  0  0  0  0  0  0  0  0  0  0
   -3.4151    1.6922   -0.0716 C   0  0  0  0  0  0  0  0  0  0  0  0
   -4.8383    2.2505   -0.0634 C   0  0  0  0  0  0  0  0  0  0  0  0
   -5.7142    1.4556    0.8954 C   0  0  0  0  0  0  0  0  0  0  0  0
   -5.8068    0.0038    0.4364 C   0  0  0  0  0  0  0  0  0  0  0  0
   -0.1839   -0.3427   -1.8471 C   0  0  0  0  0  0  0  0  0  0  0  0
    0.9783   -1.2223   -1.3351 C   0  0  0  0  0  0  0  0  0  0  0  0
    3.6463   -2.1233   -0.5226 C   0  0  0  0  0  0  0  0  0  0  0  0
    4.9718   -2.5052   -0.3018 C   0  0  0  0  0  0  0  0  0  0  0  0
    5.8748   -1.5836    0.2062 C   0  0  0  0  0  0  0  0  0  0  0  0
    7.1430   -1.9712    0.4111 F   0  0  0  0  0  0  0  0  0  0  0  0
    6.9933    2.3955    1.6557 H   0  0  0  0  0  0  0  0  0  0  0  0
    5.7719    2.4121    0.3784 H   0  0  0  0  0  0  0  0  0  0  0  0
    5.3390    1.9264    2.0645 H   0  0  0  0  0  0  0  0  0  0  0  0
    3.8308    1.1039    0.4644 H   0  0  0  0  0  0  0  0  0  0  0  0
    1.7082    0.7473    1.2999 H   0  0  0  0  0  0  0  0  0  0  0  0
    1.3934    1.5905   -0.2312 H   0  0  0  0  0  0  0  0  0  0  0  0
   -0.6782    1.2271    1.0956 H   0  0  0  0  0  0  0  0  0  0  0  0
   -0.3641   -0.5147    1.1425 H   0  0  0  0  0  0  0  0  0  0  0  0
   -3.2405   -3.5698   -0.4259 H   0  0  0  0  0  0  0  0  0  0  0  0
   -2.8717    2.1556   -0.9034 H   0  0  0  0  0  0  0  0  0  0  0  0
   -2.9177    1.9882    0.8599 H   0  0  0  0  0  0  0  0  0  0  0  0
   -5.2632    2.2037   -1.0742 H   0  0  0  0  0  0  0  0  0  0  0  0
   -4.8181    3.3066    0.2279 H   0  0  0  0  0  0  0  0  0  0  0  0
   -5.2916    1.5036    1.9070 H   0  0  0  0  0  0  0  0  0  0  0  0
   -6.7177    1.8927    0.9438 H   0  0  0  0  0  0  0  0  0  0  0  0
   -6.2890   -0.5929    1.2195 H   0  0  0  0  0  0  0  0  0  0  0  0
   -6.4414   -0.0551   -0.4567 H   0  0  0  0  0  0  0  0  0  0  0  0
   -0.7966   -0.8984   -2.5690 H   0  0  0  0  0  0  0  0  0  0  0  0
    0.2431    0.4965   -2.4122 H   0  0  0  0  0  0  0  0  0  0  0  0
    1.5235   -1.5874   -2.2138 H   0  0  0  0  0  0  0  0  0  0  0  0
    0.5931   -2.0888   -0.7855 H   0  0  0  0  0  0  0  0  0  0  0  0
    2.9634   -2.8782   -0.9025 H   0  0  0  0  0  0  0  0  0  0  0  0
    5.3013   -3.5157   -0.5192 H   0  0  0  0  0  0  0  0  0  0  0  0
  1  2  1  0
  2  3  1  0
  3  4  1  0
  4  5  2  0
  5  6  1  0
  6  7  1  0
  7  8  1  0
  8  9  1  0
  9 10  1  0
 10 11  1  0
 11 12  2  0
 12 13  1  0
 13 14  2  0
 14 15  1  0
 15 16  1  0
 16 17  1  0
 17 18  1  0
 18 19  1  0
  9 20  1  0
 20 21  1  0
  5 22  1  0
 22 23  2  0
 23 24  1  0
 24 25  1  0
 24  3  2  0
 21  6  1  0
 15 10  2  0
 19 14  1  0
  1 26  1  0
  1 27  1  0
  1 28  1  0
  4 29  1  0
  7 30  1  0
  7 31  1  0
  8 32  1  0
  8 33  1  0
 12 34  1  0
 16 35  1  0
 16 36  1  0
 17 37  1  0
 17 38  1  0
 18 39  1  0
 18 40  1  0
 19 41  1  0
 19 42  1  0
 20 43  1  0
 20 44  1  0
 21 45  1  0
 21 46  1  0
 22 47  1  0
 23 48  1  0
M  END
$$$$
OCNT-2310864
     RDKit          3D

 42 44  0  0  0  0  0  0  0  0999 V2000
   -1.2705   -1.7395    1.9239 O   0  0  0  0  0  0  0  0  0  0  0  0
   -1.5939   -0.7065    1.3464 C   0  0  0  0  0  0  0  0  0  0  0  0
   -0.9642    0.4906    1.5492 N   0  0  0  0  0  0  0  0  0  0  0  0
    0.1973    0.5838    2.4060 C   0  0  0  0  0  0  0  0  0  0  0  0
    1.4707    0.4765    1.6061 C   0  0  0  0  0  0  0  0  0  0  0  0
    2.1556    1.6209    1.1845 C   0  0  0  0  0  0  0  0  0  0  0  0
    3.3266    1.5146    0.4218 C   0  0  0  0  0  0  0  0  0  0  0  0
    3.8354    0.2566    0.0569 C   0  0  0  0  0  0  0  0  0  0  0  0
    5.0275    0.1612   -0.7204 N   0  0  0  0  0  0  0  0  0  0  0  0
    5.7968    1.2092   -1.1913 C   0  0  0  0  0  0  0  0  0  0  0  0
    6.8395    0.6466   -1.8873 C   0  0  0  0  0  0  0  0  0  0  0  0
    6.7519   -0.7115   -1.8695 N   0  0  0  0  0  0  0  0  0  0  0  0
    5.6689   -0.9754   -1.1696 C   0  0  0  0  0  0  0  0  0  0  0  0
    3.1382   -0.8819    0.4761 C   0  0  0  0  0  0  0  0  0  0  0  0
    3.5463   -2.1198    0.1693 F   0  0  0  0  0  0  0  0  0  0  0  0
    1.9726   -0.7760    1.2371 C   0  0  0  0  0  0  0  0  0  0  0  0
   -2.6409   -0.6615    0.4599 N   0  0  0  0  0  0  0  0  0  0  0  0
   -3.3665   -1.8739    0.1155 C   0  0  0  0  0  0  0  0  0  0  0  0
   -4.3283   -1.4545   -0.9892 C   0  0  0  0  0  0  0  0  0  0  0  0
   -4.5847    0.0253   -0.6838 C   0  0  0  0  0  0  0  0  0  0  0  0
   -5.5440    0.1115    0.3950 O   0  0  0  0  0  0  0  0  0  0  0  0
   -5.0293    0.8172   -1.9141 C   0  0  0  0  0  0  0  0  0  0  0  0
   -4.1157    0.7251   -2.9105 F   0  0  0  0  0  0  0  0  0  0  0  0
   -5.1699    2.1323   -1.6288 F   0  0  0  0  0  0  0  0  0  0  0  0
   -6.2048    0.3693   -2.4063 F   0  0  0  0  0  0  0  0  0  0  0  0
   -3.2196    0.5127   -0.1914 C   0  0  0  0  0  0  0  0  0  0  0  0
   -1.0023    1.1486    0.7887 H   0  0  0  0  0  0  0  0  0  0  0  0
    0.1483    1.5564    2.9081 H   0  0  0  0  0  0  0  0  0  0  0  0
    0.1705   -0.1841    3.1875 H   0  0  0  0  0  0  0  0  0  0  0  0
    1.7865    2.6107    1.4489 H   0  0  0  0  0  0  0  0  0  0  0  0
    3.8118    2.4420    0.1322 H   0  0  0  0  0  0  0  0  0  0  0  0
    5.5660    2.2466   -1.0101 H   0  0  0  0  0  0  0  0  0  0  0  0
    7.6473    1.1539   -2.3989 H   0  0  0  0  0  0  0  0  0  0  0  0
    5.3211   -1.9783   -0.9697 H   0  0  0  0  0  0  0  0  0  0  0  0
    1.4569   -1.6876    1.5353 H   0  0  0  0  0  0  0  0  0  0  0  0
   -2.6749   -2.6600   -0.2033 H   0  0  0  0  0  0  0  0  0  0  0  0
   -3.9012   -2.2178    1.0080 H   0  0  0  0  0  0  0  0  0  0  0  0
   -3.8371   -1.5744   -1.9623 H   0  0  0  0  0  0  0  0  0  0  0  0
   -5.2368   -2.0643   -0.9775 H   0  0  0  0  0  0  0  0  0  0  0  0
   -5.1129   -0.2035    1.2114 H   0  0  0  0  0  0  0  0  0  0  0  0
   -2.5444    0.7900   -1.0081 H   0  0  0  0  0  0  0  0  0  0  0  0
   -3.2937    1.3375    0.5243 H   0  0  0  0  0  0  0  0  0  0  0  0
  1  2  2  0
  2  3  1  0
  3  4  1  0
  4  5  1  0
  5  6  1  0
  6  7  2  0
  7  8  1  0
  8  9  1  0
  9 10  1  0
 10 11  2  0
 11 12  1  0
 12 13  2  0
  8 14  2  0
 14 15  1  0
 14 16  1  0
  2 17  1  0
 17 18  1  0
 18 19  1  0
 19 20  1  0
 20 21  1  0
 20 22  1  0
 22 23  1  0
 22 24  1  0
 22 25  1  0
 20 26  1  0
 16  5  2  0
 26 17  1  0
 13  9  1  0
  3 27  1  0
  4 28  1  0
  4 29  1  0
  6 30  1  0
  7 31  1  0
 10 32  1  0
 11 33  1  0
 13 34  1  0
 16 35  1  0
 18 36  1  0
 18 37  1  0
 19 38  1  0
 19 39  1  0
 21 40  1  0
 26 41  1  0
 26 42  1  0
M  END
$$$$
OCNT-2310873
     RDKit          3D

 37 39  0  0  0  0  0  0  0  0999 V2000
    6.3418   -0.1451   -1.9463 N   0  0  0  0  0  0  0  0  0  0  0  0
    5.3794   -1.0608   -1.6237 C   0  0  0  0  0  0  0  0  0  0  0  0
    5.4977   -2.2348   -1.9492 O   0  0  0  0  0  0  0  0  0  0  0  0
    4.2104   -0.5953   -0.8469 C   0  0  0  0  0  0  0  0  0  0  0  0
    3.4259   -1.5382   -0.1993 C   0  0  0  0  0  0  0  0  0  0  0  0
    2.3314   -1.2350    0.5442 N   0  0  0  0  0  0  0  0  0  0  0  0
    1.9652    0.0674    0.6494 C   0  0  0  0  0  0  0  0  0  0  0  0
    0.8217    0.3869    1.4293 N   0  0  0  0  0  0  0  0  0  0  0  0
   -0.3848    0.9090    0.8205 C   0  0  0  0  0  0  0  0  0  0  0  0
   -1.0565   -0.4390    1.1269 C   0  0  0  0  0  0  0  0  0  0  0  0
   -2.4680   -0.4189    1.6890 C   0  0  0  0  0  0  0  0  0  0  0  0
   -3.4501   -0.0419    0.6065 C   0  0  0  0  0  0  0  0  0  0  0  0
   -3.9002   -1.0050   -0.3122 C   0  0  0  0  0  0  0  0  0  0  0  0
   -4.7951   -0.6548   -1.3266 C   0  0  0  0  0  0  0  0  0  0  0  0
   -5.2397    0.6586   -1.4269 C   0  0  0  0  0  0  0  0  0  0  0  0
   -6.0969    0.9900   -2.4022 F   0  0  0  0  0  0  0  0  0  0  0  0
   -4.7981    1.6191   -0.5263 C   0  0  0  0  0  0  0  0  0  0  0  0
   -5.2253    2.8855   -0.6264 F   0  0  0  0  0  0  0  0  0  0  0  0
   -3.9063    1.2793    0.4876 C   0  0  0  0  0  0  0  0  0  0  0  0
    0.0630   -0.6009    2.1640 C   0  0  0  0  0  0  0  0  0  0  0  0
    2.7112    1.0792    0.0162 C   0  0  0  0  0  0  0  0  0  0  0  0
    2.3170    2.7583    0.1538 Cl  0  0  0  0  0  0  0  0  0  0  0  0
    3.8371    0.7418   -0.7411 C   0  0  0  0  0  0  0  0  0  0  0  0
    6.4231    0.7583   -1.5031 H   0  0  0  0  0  0  0  0  0  0  0  0
    7.1756   -0.5161   -2.3870 H   0  0  0  0  0  0  0  0  0  0  0  0
    3.6593   -2.5998   -0.2523 H   0  0  0  0  0  0  0  0  0  0  0  0
   -0.3029    1.1541   -0.2420 H   0  0  0  0  0  0  0  0  0  0  0  0
   -0.7613    1.7740    1.3771 H   0  0  0  0  0  0  0  0  0  0  0  0
   -0.9492   -1.1606    0.3029 H   0  0  0  0  0  0  0  0  0  0  0  0
   -2.7324   -1.4060    2.0880 H   0  0  0  0  0  0  0  0  0  0  0  0
   -2.5523    0.2818    2.5292 H   0  0  0  0  0  0  0  0  0  0  0  0
   -3.5536   -2.0348   -0.2422 H   0  0  0  0  0  0  0  0  0  0  0  0
   -5.1457   -1.3964   -2.0376 H   0  0  0  0  0  0  0  0  0  0  0  0
   -3.5780    2.0525    1.1766 H   0  0  0  0  0  0  0  0  0  0  0  0
    0.5090   -1.5960    2.2332 H   0  0  0  0  0  0  0  0  0  0  0  0
   -0.1654   -0.2399    3.1737 H   0  0  0  0  0  0  0  0  0  0  0  0
    4.3929    1.5235   -1.2474 H   0  0  0  0  0  0  0  0  0  0  0  0
  1  2  1  0
  2  3  2  0
  2  4  1  0
  4  5  1  0
  5  6  2  0
  6  7  1  0
  7  8  1  0
  8  9  1  0
  9 10  1  0
 10 11  1  0
 11 12  1  0
 12 13  1  0
 13 14  2  0
 14 15  1  0
 15 16  1  0
 15 17  2  0
 17 18  1  0
 17 19  1  0
 10 20  1  0
  7 21  2  0
 21 22  1  0
 21 23  1  0
 23  4  2  0
 20  8  1  0
 19 12  2  0
  1 24  1  0
  1 25  1  0
  5 26  1  0
  9 27  1  0
  9 28  1  0
 10 29  1  0
 11 30  1  0
 11 31  1  0
 13 32  1  0
 14 33  1  0
 19 34  1  0
 20 35  1  0
 20 36  1  0
 23 37  1  0
M  END
$$$$
OCNT-2310875
     RDKit          3D

  0  0  0  0  0  0  0  0  0  0999 V3000
M  V30 BEGIN CTAB
M  V30 COUNTS 50 53 0 0 0
M  V30 BEGIN ATOM
M  V30 1 O 0.030526 0.558735 -3.378566 0
M  V30 2 C 0.459513 -0.427883 -2.786329 0
M  V30 3 C 1.861535 -0.969222 -3.010826 0
M  V30 4 C 2.796239 -0.603280 -1.881184 0
M  V30 5 C 3.134310 0.736465 -1.654234 0
M  V30 6 C 3.965374 1.094773 -0.587247 0
M  V30 7 C 4.477223 0.114300 0.274163 0
M  V30 8 N 5.305125 0.480978 1.375740 0
M  V30 9 C 5.711416 1.748524 1.734356 0
M  V30 10 C 6.470304 1.602810 2.870888 0
M  V30 11 N 6.558210 0.291326 3.229810 0
M  V30 12 C 5.862863 -0.355909 2.321773 0
M  V30 13 C 4.151826 -1.230860 0.037797 0
M  V30 14 C 3.319674 -1.584290 -1.032203 0
M  V30 15 N -0.267951 -1.128819 -1.842114 0
M  V30 16 C -1.555773 -0.630763 -1.384030 0 CFG=2
M  V30 17 C -1.384449 0.553395 -0.418962 0
M  V30 18 C -2.575256 0.455095 0.536535 0
M  V30 19 C -3.843590 1.076960 -0.077377 0
M  V30 20 N -5.010487 0.951411 0.774780 0
M  V30 21 C -5.222517 1.593936 1.962202 0
M  V30 22 C -6.439593 1.128947 2.401917 0
M  V30 23 N -6.974847 0.239039 1.503858 0
M  V30 24 C -6.099675 0.165129 0.526371 0
M  V30 25 C -2.660626 -1.059207 0.768547 0
M  V30 26 C -2.366988 -1.687152 -0.594107 0 CFG=1
M  V30 27 O -3.597371 -1.957049 -1.264013 0
M  V30 28 H 2.249739 -0.568214 -3.955874 0
M  V30 29 H 1.802071 -2.057590 -3.137876 0
M  V30 30 H 2.740964 1.517656 -2.305308 0
M  V30 31 H 4.181887 2.152584 -0.458805 0
M  V30 32 H 5.444818 2.636774 1.181545 0
M  V30 33 H 6.956006 2.378147 3.447005 0
M  V30 34 H 5.731481 -1.428264 2.320307 0
M  V30 35 H 4.525123 -2.037181 0.663138 0
M  V30 36 H 3.087042 -2.636982 -1.193799 0
M  V30 37 H 0.259546 -1.728454 -1.215261 0
M  V30 38 H -2.119975 -0.304121 -2.268053 0
M  V30 39 H -0.452387 0.448776 0.151310 0
M  V30 40 H -1.336696 1.511248 -0.945654 0
M  V30 41 H -2.346837 0.965822 1.480551 0
M  V30 42 H -4.093776 0.635869 -1.050165 0
M  V30 43 H -3.691174 2.151915 -0.244346 0
M  V30 44 H -4.516515 2.293329 2.388667 0
M  V30 45 H -6.960319 1.389218 3.314552 0
M  V30 46 H -6.198134 -0.440768 -0.365680 0
M  V30 47 H -3.618425 -1.377820 1.192527 0
M  V30 48 H -1.870055 -1.350025 1.473345 0
M  V30 49 H -1.832317 -2.637227 -0.488035 0
M  V30 50 H -4.047077 -2.672082 -0.776599 0
M  V30 END ATOM
M  V30 BEGIN BOND
M  V30 1 2 1 2
M  V30 2 1 2 3
M  V30 3 1 3 4
M  V30 4 1 4 5
M  V30 5 2 5 6
M  V30 6 1 6 7
M  V30 7 1 7 8
M  V30 8 1 8 9
M  V30 9 2 9 10
M  V30 10 1 10 11
M  V30 11 2 11 12
M  V30 12 2 7 13
M  V30 13 1 13 14
M  V30 14 1 2 15
M  V30 15 1 15 16
M  V30 16 1 16 17
M  V30 17 1 17 18
M  V30 18 1 18 19
M  V30 19 1 19 20
M  V30 20 1 20 21
M  V30 21 2 21 22
M  V30 22 1 22 23
M  V30 23 2 23 24
M  V30 24 1 18 25
M  V30 25 1 25 26
M  V30 26 1 26 27
M  V30 27 2 14 4
M  V30 28 1 26 16
M  V30 29 1 12 8
M  V30 30 1 24 20
M  V30 31 1 3 28
M  V30 32 1 3 29
M  V30 33 1 5 30
M  V30 34 1 6 31
M  V30 35 1 9 32
M  V30 36 1 10 33
M  V30 37 1 12 34
M  V30 38 1 13 35
M  V30 39 1 14 36
M  V30 40 1 15 37
M  V30 41 1 16 38 CFG=3
M  V30 42 1 17 39
M  V30 43 1 17 40
M  V30 44 1 18 41
M  V30 45 1 19 42
M  V30 46 1 19 43
M  V30 47 1 21 44
M  V30 48 1 22 45
M  V30 49 1 24 46
M  V30 50 1 25 47
M  V30 51 1 25 48
M  V30 52 1 26 49 CFG=1
M  V30 53 1 27 50
M  V30 END BOND
M  V30 BEGIN COLLECTION
M  V30 MDLV30/STERAC1 ATOMS=(2 16 26)
M  V30 END COLLECTION
M  V30 END CTAB
M  END
>  <_CXSMILES_Data>  (398) 
|&1:15,25|

$$$$
OCNT-2310884
     RDKit          3D

 42 44  0  0  0  0  0  0  0  0999 V2000
    8.3230    0.8482    0.1568 C   0  0  0  0  0  0  0  0  0  0  0  0
    6.8667    0.5134    0.0235 C   0  0  0  0  0  0  0  0  0  0  0  0
    6.0489    1.2408   -0.8468 C   0  0  0  0  0  0  0  0  0  0  0  0
    4.6851    0.9486   -0.9475 C   0  0  0  0  0  0  0  0  0  0  0  0
    4.1076   -0.0685   -0.1739 C   0  0  0  0  0  0  0  0  0  0  0  0
    2.6835   -0.3503   -0.3001 C   0  0  0  0  0  0  0  0  0  0  0  0
    1.7711    0.2165   -1.0636 N   0  0  0  0  0  0  0  0  0  0  0  0
    0.5824   -0.4297   -0.7952 N   0  0  0  0  0  0  0  0  0  0  0  0
    0.8451   -1.3441    0.1152 C   0  0  0  0  0  0  0  0  0  0  0  0
   -0.3124   -2.4367    0.8100 S   0  0  0  0  0  0  0  0  0  0  0  0
   -1.8551   -1.8973    0.0035 C   0  0  0  0  0  0  0  0  0  0  0  0
   -2.4214   -0.6201    0.6469 C   0  0  0  0  0  0  0  0  0  0  0  0
   -3.6752   -0.1545    0.0078 N   0  0  0  0  0  0  0  0  0  0  0  0
   -4.8166   -1.0214    0.3480 C   0  0  0  0  0  0  0  0  0  0  0  0
   -6.0811   -0.5608   -0.3659 C   0  0  0  0  0  0  0  0  0  0  0  0
   -6.3633    0.8878   -0.0411 C   0  0  0  0  0  0  0  0  0  0  0  0
   -7.4301    1.3172   -0.7616 F   0  0  0  0  0  0  0  0  0  0  0  0
   -6.7230    0.9925    1.2665 F   0  0  0  0  0  0  0  0  0  0  0  0
   -5.1760    1.7835   -0.3063 C   0  0  0  0  0  0  0  0  0  0  0  0
   -3.9455    1.2398    0.4059 C   0  0  0  0  0  0  0  0  0  0  0  0
    2.1656   -1.3512    0.4787 O   0  0  0  0  0  0  0  0  0  0  0  0
    4.9306   -0.7842    0.7074 C   0  0  0  0  0  0  0  0  0  0  0  0
    6.2951   -0.4927    0.8091 C   0  0  0  0  0  0  0  0  0  0  0  0
    8.4627    1.6081    0.9317 H   0  0  0  0  0  0  0  0  0  0  0  0
    8.7246    1.2280   -0.7885 H   0  0  0  0  0  0  0  0  0  0  0  0
    8.9051   -0.0404    0.4229 H   0  0  0  0  0  0  0  0  0  0  0  0
    6.4666    2.0405   -1.4551 H   0  0  0  0  0  0  0  0  0  0  0  0
    4.0722    1.5268   -1.6379 H   0  0  0  0  0  0  0  0  0  0  0  0
   -1.6938   -1.7615   -1.0716 H   0  0  0  0  0  0  0  0  0  0  0  0
   -2.5589   -2.7267    0.1190 H   0  0  0  0  0  0  0  0  0  0  0  0
   -2.5803   -0.7697    1.7233 H   0  0  0  0  0  0  0  0  0  0  0  0
   -1.6679    0.1708    0.5463 H   0  0  0  0  0  0  0  0  0  0  0  0
   -4.9836   -1.0384    1.4330 H   0  0  0  0  0  0  0  0  0  0  0  0
   -4.6239   -2.0526    0.0345 H   0  0  0  0  0  0  0  0  0  0  0  0
   -6.9274   -1.1828   -0.0533 H   0  0  0  0  0  0  0  0  0  0  0  0
   -5.9769   -0.6879   -1.4505 H   0  0  0  0  0  0  0  0  0  0  0  0
   -4.9944    1.8553   -1.3857 H   0  0  0  0  0  0  0  0  0  0  0  0
   -5.3890    2.7982    0.0483 H   0  0  0  0  0  0  0  0  0  0  0  0
   -4.0747    1.3159    1.4937 H   0  0  0  0  0  0  0  0  0  0  0  0
   -3.0942    1.8764    0.1350 H   0  0  0  0  0  0  0  0  0  0  0  0
    4.5203   -1.5774    1.3292 H   0  0  0  0  0  0  0  0  0  0  0  0
    6.9086   -1.0594    1.5066 H   0  0  0  0  0  0  0  0  0  0  0  0
  1  2  1  0
  2  3  1  0
  3  4  2  0
  4  5  1  0
  5  6  1  0
  6  7  2  0
  7  8  1  0
  8  9  2  0
  9 10  1  0
 10 11  1  0
 11 12  1  0
 12 13  1  0
 13 14  1  0
 14 15  1  0
 15 16  1  0
 16 17  1  0
 16 18  1  0
 16 19  1  0
 19 20  1  0
  9 21  1  0
  5 22  2  0
 22 23  1  0
 23  2  2  0
 21  6  1  0
 20 13  1  0
  1 24  1  0
  1 25  1  0
  1 26  1  0
  3 27  1  0
  4 28  1  0
 11 29  1  0
 11 30  1  0
 12 31  1  0
 12 32  1  0
 14 33  1  0
 14 34  1  0
 15 35  1  0
 15 36  1  0
 19 37  1  0
 19 38  1  0
 20 39  1  0
 20 40  1  0
 22 41  1  0
 23 42  1  0
M  END
$$$$
OCNT-2310886
     RDKit          3D

  0  0  0  0  0  0  0  0  0  0999 V3000
M  V30 BEGIN CTAB
M  V30 COUNTS 51 52 0 0 0
M  V30 BEGIN ATOM
M  V30 1 C 6.594245 -1.676081 1.067902 0
M  V30 2 C 6.428997 -0.282544 1.657588 0
M  V30 3 C 5.568677 0.620128 0.780025 0
M  V30 4 O 4.250273 0.087372 0.705283 0
M  V30 5 C 3.393616 0.885825 -0.095882 0
M  V30 6 C 1.981900 0.301477 -0.252621 0
M  V30 7 O 1.659319 -0.825450 0.110659 0
M  V30 8 N 1.096733 1.179312 -0.857928 0
M  V30 9 C -0.294524 0.824573 -1.090111 0
M  V30 10 C -1.151393 0.899147 0.192668 0 CFG=1
M  V30 11 C -1.222870 2.343164 0.751948 0
M  V30 12 C -2.595224 2.997784 0.634686 0
M  V30 13 C -3.218869 2.701206 -0.715096 0
M  V30 14 C -3.407669 1.201629 -0.949124 0
M  V30 15 C -2.571067 0.284384 -0.014713 0 CFG=1
M  V30 16 N -2.564280 -1.112447 -0.515989 0
M  V30 17 C -1.835103 -2.080292 0.341105 0
M  V30 18 C -2.754572 -2.991050 1.172798 0
M  V30 19 O -3.655749 -3.774339 0.379406 0
M  V30 20 C -3.950058 -3.169533 -0.884979 0
M  V30 21 C -3.917234 -1.634974 -0.821966 0
M  V30 22 H 7.053503 -1.628945 0.075354 0
M  V30 23 H 7.238337 -2.283831 1.711287 0
M  V30 24 H 5.630761 -2.187393 0.977241 0
M  V30 25 H 7.416554 0.173074 1.789287 0
M  V30 26 H 5.969668 -0.377235 2.648424 0
M  V30 27 H 5.529601 1.623452 1.219347 0
M  V30 28 H 5.998368 0.692694 -0.225818 0
M  V30 29 H 3.818289 0.984665 -1.101862 0
M  V30 30 H 3.302669 1.879452 0.358431 0
M  V30 31 H 1.398137 2.117554 -1.083064 0
M  V30 32 H -0.671038 1.506805 -1.858932 0
M  V30 33 H -0.302110 -0.187188 -1.508616 0
M  V30 34 H -0.627073 0.328688 0.966978 0
M  V30 35 H -0.482013 2.986185 0.262141 0
M  V30 36 H -0.944202 2.329676 1.813618 0
M  V30 37 H -3.252244 2.636638 1.435365 0
M  V30 38 H -2.498322 4.080266 0.776283 0
M  V30 39 H -2.580891 3.114288 -1.506501 0
M  V30 40 H -4.184594 3.212138 -0.804553 0
M  V30 41 H -3.181878 0.988945 -2.002407 0
M  V30 42 H -4.473019 0.974316 -0.814764 0
M  V30 43 H -3.065526 0.277895 0.967690 0
M  V30 44 H -1.115981 -1.609376 1.013020 0
M  V30 45 H -1.246014 -2.713329 -0.334750 0
M  V30 46 H -2.154051 -3.688199 1.766168 0
M  V30 47 H -3.349748 -2.396493 1.875762 0
M  V30 48 H -4.945392 -3.511651 -1.186507 0
M  V30 49 H -3.237761 -3.549169 -1.627034 0
M  V30 50 H -4.251355 -1.240405 -1.787401 0
M  V30 51 H -4.627827 -1.312807 -0.049647 0
M  V30 END ATOM
M  V30 BEGIN BOND
M  V30 1 1 1 2
M  V30 2 1 2 3
M  V30 3 1 3 4
M  V30 4 1 4 5
M  V30 5 1 5 6
M  V30 6 2 6 7
M  V30 7 1 6 8
M  V30 8 1 8 9
M  V30 9 1 9 10
M  V30 10 1 10 11
M  V30 11 1 11 12
M  V30 12 1 12 13
M  V30 13 1 13 14
M  V30 14 1 14 15
M  V30 15 1 15 16
M  V30 16 1 16 17
M  V30 17 1 17 18
M  V30 18 1 18 19
M  V30 19 1 19 20
M  V30 20 1 20 21
M  V30 21 1 15 10
M  V30 22 1 21 16
M  V30 23 1 1 22
M  V30 24 1 1 23
M  V30 25 1 1 24
M  V30 26 1 2 25
M  V30 27 1 2 26
M  V30 28 1 3 27
M  V30 29 1 3 28
M  V30 30 1 5 29
M  V30 31 1 5 30
M  V30 32 1 8 31
M  V30 33 1 9 32
M  V30 34 1 9 33
M  V30 35 1 10 34 CFG=1
M  V30 36 1 11 35
M  V30 37 1 11 36
M  V30 38 1 12 37
M  V30 39 1 12 38
M  V30 40 1 13 39
M  V30 41 1 13 40
M  V30 42 1 14 41
M  V30 43 1 14 42
M  V30 44 1 15 43 CFG=1
M  V30 45 1 17 44
M  V30 46 1 17 45
M  V30 47 1 18 46
M  V30 48 1 18 47
M  V30 49 1 20 48
M  V30 50 1 20 49
M  V30 51 1 21 50
M  V30 52 1 21 51
M  V30 END BOND
M  V30 BEGIN COLLECTION
M  V30 MDLV30/STERAC1 ATOMS=(2 10 15)
M  V30 END COLLECTION
M  V30 END CTAB
M  END
>  <_CXSMILES_Data>  (400) 
|&1:9,14|

$$$$
OCNT-2310890
     RDKit          3D

 37 39  0  0  0  0  0  0  0  0999 V2000
    1.4245   -2.0430   -0.7445 O   0  0  0  0  0  0  0  0  0  0  0  0
    1.6364   -1.5280    0.3445 C   0  0  0  0  0  0  0  0  0  0  0  0
    0.7370   -1.5978    1.3889 N   0  0  0  0  0  0  0  0  0  0  0  0
   -0.5511   -2.2372    1.2139 C   0  0  0  0  0  0  0  0  0  0  0  0
   -1.6126   -1.2439    0.8377 C   0  0  0  0  0  0  0  0  0  0  0  0
   -1.7297   -0.7579   -0.4661 C   0  0  0  0  0  0  0  0  0  0  0  0
   -2.7141    0.1803   -0.7798 C   0  0  0  0  0  0  0  0  0  0  0  0
   -3.5642    0.6170    0.2318 C   0  0  0  0  0  0  0  0  0  0  0  0
   -4.5817    1.5741   -0.0396 N   0  0  0  0  0  0  0  0  0  0  0  0
   -5.4774    2.0775    0.8812 C   0  0  0  0  0  0  0  0  0  0  0  0
   -6.2697    2.9647    0.1950 C   0  0  0  0  0  0  0  0  0  0  0  0
   -5.8971    3.0299   -1.1190 N   0  0  0  0  0  0  0  0  0  0  0  0
   -4.8897    2.1901   -1.2311 C   0  0  0  0  0  0  0  0  0  0  0  0
   -3.4661    0.1612    1.5091 N   0  0  0  0  0  0  0  0  0  0  0  0
   -2.5045   -0.7499    1.7794 C   0  0  0  0  0  0  0  0  0  0  0  0
    2.7664   -0.8332    0.7184 N   0  0  0  0  0  0  0  0  0  0  0  0
    3.8680   -0.4886   -0.0922 C   0  0  0  0  0  0  0  0  0  0  0  0
    4.9728    0.0963    0.5415 C   0  0  0  0  0  0  0  0  0  0  0  0
    6.0965    0.4711   -0.2003 C   0  0  0  0  0  0  0  0  0  0  0  0
    7.4434    1.1846    0.5988 Cl  0  0  0  0  0  0  0  0  0  0  0  0
    6.1354    0.2749   -1.5743 C   0  0  0  0  0  0  0  0  0  0  0  0
    5.0363   -0.2990   -2.1967 C   0  0  0  0  0  0  0  0  0  0  0  0
    5.0610   -0.4867   -3.5229 F   0  0  0  0  0  0  0  0  0  0  0  0
    3.9071   -0.6799   -1.4740 C   0  0  0  0  0  0  0  0  0  0  0  0
    0.7696   -0.8408    2.0543 H   0  0  0  0  0  0  0  0  0  0  0  0
   -0.4910   -3.0319    0.4615 H   0  0  0  0  0  0  0  0  0  0  0  0
   -0.7991   -2.7159    2.1678 H   0  0  0  0  0  0  0  0  0  0  0  0
   -1.0524   -1.1075   -1.2446 H   0  0  0  0  0  0  0  0  0  0  0  0
   -2.7784    0.5356   -1.8014 H   0  0  0  0  0  0  0  0  0  0  0  0
   -5.4667    1.7630    1.9153 H   0  0  0  0  0  0  0  0  0  0  0  0
   -7.0885    3.5590    0.5799 H   0  0  0  0  0  0  0  0  0  0  0  0
   -4.3595    2.0017   -2.1536 H   0  0  0  0  0  0  0  0  0  0  0  0
   -2.4751   -1.0777    2.8156 H   0  0  0  0  0  0  0  0  0  0  0  0
    2.8632   -0.6694    1.7095 H   0  0  0  0  0  0  0  0  0  0  0  0
    4.9706    0.2630    1.6156 H   0  0  0  0  0  0  0  0  0  0  0  0
    6.9992    0.5607   -2.1648 H   0  0  0  0  0  0  0  0  0  0  0  0
    3.0813   -1.1162   -2.0253 H   0  0  0  0  0  0  0  0  0  0  0  0
  1  2  2  0
  2  3  1  0
  3  4  1  0
  4  5  1  0
  5  6  2  0
  6  7  1  0
  7  8  2  0
  8  9  1  0
  9 10  1  0
 10 11  2  0
 11 12  1  0
 12 13  2  0
  8 14  1  0
 14 15  2  0
  2 16  1  0
 16 17  1  0
 17 18  1  0
 18 19  2  0
 19 20  1  0
 19 21  1  0
 21 22  2  0
 22 23  1  0
 22 24  1  0
 15  5  1  0
 24 17  2  0
 13  9  1  0
  3 25  1  0
  4 26  1  0
  4 27  1  0
  6 28  1  0
  7 29  1  0
 10 30  1  0
 11 31  1  0
 13 32  1  0
 15 33  1  0
 16 34  1  0
 18 35  1  0
 21 36  1  0
 24 37  1  0
M  END
$$$$
OCNT-2310909
     RDKit          3D

 43 44  0  0  0  0  0  0  0  0999 V2000
    1.9317   -1.9260   -1.4707 C   0  0  0  0  0  0  0  0  0  0  0  0
    2.1097   -0.6956   -0.6849 N   0  0  0  0  0  0  0  0  0  0  0  0
    2.2055    0.4475   -1.6068 C   0  0  0  0  0  0  0  0  0  0  0  0
    3.3419   -0.7683    0.1462 C   0  0  0  0  0  0  0  0  0  0  0  0
    3.1788   -1.6243    1.4122 C   0  0  0  0  0  0  0  0  0  0  0  0
    2.6718   -0.8917    2.5607 N   0  0  0  0  0  0  0  0  0  0  0  0
    3.4077   -0.8941    3.6951 N   0  0  0  0  0  0  0  0  0  0  0  0
    2.6437   -0.2362    4.5681 C   0  0  0  0  0  0  0  0  0  0  0  0
    1.4300    0.1901    4.0046 C   0  0  0  0  0  0  0  0  0  0  0  0
    1.4688   -0.2309    2.6933 C   0  0  0  0  0  0  0  0  0  0  0  0
    0.5715   -0.0810    1.6493 N   0  0  0  0  0  0  0  0  0  0  0  0
   -0.6012    0.6437    1.7573 C   0  0  0  0  0  0  0  0  0  0  0  0
   -1.0145    1.2323    2.7505 O   0  0  0  0  0  0  0  0  0  0  0  0
   -1.4022    0.7243    0.5042 C   0  0  0  0  0  0  0  0  0  0  0  0
   -1.5067   -0.3609   -0.3736 C   0  0  0  0  0  0  0  0  0  0  0  0
   -2.2660   -0.2449   -1.5412 C   0  0  0  0  0  0  0  0  0  0  0  0
   -2.9366    0.9512   -1.8420 C   0  0  0  0  0  0  0  0  0  0  0  0
   -3.7706    1.0701   -3.1005 C   0  0  0  0  0  0  0  0  0  0  0  0
   -5.2219    0.6975   -2.8419 C   0  0  0  0  0  0  0  0  0  0  0  0
   -3.3078    0.2660   -4.1033 F   0  0  0  0  0  0  0  0  0  0  0  0
   -3.7494    2.3340   -3.6164 F   0  0  0  0  0  0  0  0  0  0  0  0
   -2.8402    2.0280   -0.9471 C   0  0  0  0  0  0  0  0  0  0  0  0
   -2.0834    1.9133    0.2213 C   0  0  0  0  0  0  0  0  0  0  0  0
    1.8061   -2.7962   -0.8194 H   0  0  0  0  0  0  0  0  0  0  0  0
    2.7768   -2.1155   -2.1423 H   0  0  0  0  0  0  0  0  0  0  0  0
    1.0206   -1.8618   -2.0763 H   0  0  0  0  0  0  0  0  0  0  0  0
    3.0710    0.3693   -2.2744 H   0  0  0  0  0  0  0  0  0  0  0  0
    2.2819    1.3852   -1.0454 H   0  0  0  0  0  0  0  0  0  0  0  0
    1.2994    0.5240   -2.2182 H   0  0  0  0  0  0  0  0  0  0  0  0
    3.6445    0.2422    0.4521 H   0  0  0  0  0  0  0  0  0  0  0  0
    4.1665   -1.1685   -0.4582 H   0  0  0  0  0  0  0  0  0  0  0  0
    4.1631   -2.0195    1.6933 H   0  0  0  0  0  0  0  0  0  0  0  0
    2.5197   -2.4865    1.2685 H   0  0  0  0  0  0  0  0  0  0  0  0
    3.0014   -0.0940    5.5796 H   0  0  0  0  0  0  0  0  0  0  0  0
    0.6394    0.7426    4.4918 H   0  0  0  0  0  0  0  0  0  0  0  0
    0.8708   -0.3945    0.7236 H   0  0  0  0  0  0  0  0  0  0  0  0
   -1.0185   -1.3063   -0.1528 H   0  0  0  0  0  0  0  0  0  0  0  0
   -2.3356   -1.0947   -2.2188 H   0  0  0  0  0  0  0  0  0  0  0  0
   -5.8011    0.7885   -3.7669 H   0  0  0  0  0  0  0  0  0  0  0  0
   -5.6794    1.3595   -2.0994 H   0  0  0  0  0  0  0  0  0  0  0  0
   -5.3131   -0.3372   -2.4953 H   0  0  0  0  0  0  0  0  0  0  0  0
   -3.3541    2.9649   -1.1580 H   0  0  0  0  0  0  0  0  0  0  0  0
   -2.0198    2.7544    0.9097 H   0  0  0  0  0  0  0  0  0  0  0  0
  1  2  1  0
  2  3  1  0
  2  4  1  0
  4  5  1  0
  5  6  1  0
  6  7  1  0
  7  8  2  0
  8  9  1  0
  9 10  2  0
 10 11  1  0
 11 12  1  0
 12 13  2  0
 12 14  1  0
 14 15  1  0
 15 16  2  0
 16 17  1  0
 17 18  1  0
 18 19  1  0
 18 20  1  0
 18 21  1  0
 17 22  2  0
 22 23  1  0
 10  6  1  0
 23 14  2  0
  1 24  1  0
  1 25  1  0
  1 26  1  0
  3 27  1  0
  3 28  1  0
  3 29  1  0
  4 30  1  0
  4 31  1  0
  5 32  1  0
  5 33  1  0
  8 34  1  0
  9 35  1  0
 11 36  1  0
 15 37  1  0
 16 38  1  0
 19 39  1  0
 19 40  1  0
 19 41  1  0
 22 42  1  0
 23 43  1  0
M  END
$$$$
OCNT-2310913
     RDKit          3D

 45 48  0  0  0  0  0  0  0  0999 V2000
    0.9265    1.0890    2.7061 O   0  0  0  0  0  0  0  0  0  0  0  0
    0.7883    0.3179    1.7647 C   0  0  0  0  0  0  0  0  0  0  0  0
   -0.3935   -0.2205    1.2998 N   0  0  0  0  0  0  0  0  0  0  0  0
   -1.6320    0.1065    1.7992 C   0  0  0  0  0  0  0  0  0  0  0  0
   -2.8126   -0.4648    1.3893 C   0  0  0  0  0  0  0  0  0  0  0  0
   -3.7598    0.1828    2.1304 N   0  0  0  0  0  0  0  0  0  0  0  0
   -5.1953   -0.0310    2.1438 C   0  0  0  0  0  0  0  0  0  0  0  0
   -5.8139    0.2002    0.7871 C   0  0  0  0  0  0  0  0  0  0  0  0
   -5.8452    1.4874    0.2286 C   0  0  0  0  0  0  0  0  0  0  0  0
   -6.4153    1.7000   -1.0270 C   0  0  0  0  0  0  0  0  0  0  0  0
   -6.9609    0.6319   -1.7362 C   0  0  0  0  0  0  0  0  0  0  0  0
   -6.9377   -0.6506   -1.1910 C   0  0  0  0  0  0  0  0  0  0  0  0
   -6.3685   -0.8671    0.0646 C   0  0  0  0  0  0  0  0  0  0  0  0
   -3.2003    1.0794    2.9616 N   0  0  0  0  0  0  0  0  0  0  0  0
   -1.8885    1.0423    2.7585 N   0  0  0  0  0  0  0  0  0  0  0  0
    2.0106   -0.1515    1.0509 C   0  0  0  0  0  0  0  0  0  0  0  0
    2.0088   -0.4265   -0.3217 C   0  0  0  0  0  0  0  0  0  0  0  0
    3.1770   -0.8721   -0.9477 C   0  0  0  0  0  0  0  0  0  0  0  0
    4.3645   -1.0359   -0.2165 C   0  0  0  0  0  0  0  0  0  0  0  0
    5.6273   -1.5163   -0.8899 C   0  0  0  0  0  0  0  0  0  0  0  0
    6.1695   -0.5205   -1.7958 N   0  0  0  0  0  0  0  0  0  0  0  0
    6.9006    0.5829   -1.4501 C   0  0  0  0  0  0  0  0  0  0  0  0
    7.2230    1.1810   -2.6457 C   0  0  0  0  0  0  0  0  0  0  0  0
    6.7190    0.4647   -3.7004 N   0  0  0  0  0  0  0  0  0  0  0  0
    6.0939   -0.5561   -3.1590 C   0  0  0  0  0  0  0  0  0  0  0  0
    4.3625   -0.7370    1.1539 C   0  0  0  0  0  0  0  0  0  0  0  0
    3.1956   -0.2940    1.7815 C   0  0  0  0  0  0  0  0  0  0  0  0
   -0.3748   -0.9398    0.5938 H   0  0  0  0  0  0  0  0  0  0  0  0
   -3.0590   -1.2256    0.6646 H   0  0  0  0  0  0  0  0  0  0  0  0
   -5.3568   -1.0580    2.4916 H   0  0  0  0  0  0  0  0  0  0  0  0
   -5.6457    0.6445    2.8805 H   0  0  0  0  0  0  0  0  0  0  0  0
   -5.4214    2.3339    0.7680 H   0  0  0  0  0  0  0  0  0  0  0  0
   -6.4341    2.7009   -1.4518 H   0  0  0  0  0  0  0  0  0  0  0  0
   -7.4066    0.7998   -2.7133 H   0  0  0  0  0  0  0  0  0  0  0  0
   -7.3666   -1.4822   -1.7446 H   0  0  0  0  0  0  0  0  0  0  0  0
   -6.3640   -1.8759    0.4724 H   0  0  0  0  0  0  0  0  0  0  0  0
    1.1205   -0.2663   -0.9268 H   0  0  0  0  0  0  0  0  0  0  0  0
    3.1569   -1.0714   -2.0179 H   0  0  0  0  0  0  0  0  0  0  0  0
    6.4106   -1.7499   -0.1594 H   0  0  0  0  0  0  0  0  0  0  0  0
    5.4282   -2.4320   -1.4568 H   0  0  0  0  0  0  0  0  0  0  0  0
    7.1174    0.8481   -0.4245 H   0  0  0  0  0  0  0  0  0  0  0  0
    7.7933    2.0872   -2.8020 H   0  0  0  0  0  0  0  0  0  0  0  0
    5.5782   -1.3367   -3.7043 H   0  0  0  0  0  0  0  0  0  0  0  0
    5.2697   -0.8384    1.7470 H   0  0  0  0  0  0  0  0  0  0  0  0
    3.2109   -0.0578    2.8446 H   0  0  0  0  0  0  0  0  0  0  0  0
  1  2  2  0
  2  3  1  0
  3  4  1  0
  4  5  2  0
  5  6  1  0
  6  7  1  0
  7  8  1  0
  8  9  2  0
  9 10  1  0
 10 11  2  0
 11 12  1  0
 12 13  2  0
  6 14  1  0
 14 15  2  0
  2 16  1  0
 16 17  1  0
 17 18  2  0
 18 19  1  0
 19 20  1  0
 20 21  1  0
 21 22  1  0
 22 23  2  0
 23 24  1  0
 24 25  2  0
 19 26  2  0
 26 27  1  0
 15  4  1  0
 27 16  2  0
 13  8  1  0
 25 21  1  0
  3 28  1  0
  5 29  1  0
  7 30  1  0
  7 31  1  0
  9 32  1  0
 10 33  1  0
 11 34  1  0
 12 35  1  0
 13 36  1  0
 17 37  1  0
 18 38  1  0
 20 39  1  0
 20 40  1  0
 22 41  1  0
 23 42  1  0
 25 43  1  0
 26 44  1  0
 27 45  1  0
M  END
$$$$
OCNT-2310916
     RDKit          3D

 47 50  0  0  0  0  0  0  0  0999 V2000
   -4.6565    1.0257   -2.2056 C   0  0  0  0  0  0  0  0  0  0  0  0
   -4.2289    0.3578   -0.9030 C   0  0  0  0  0  0  0  0  0  0  0  0
   -5.1758   -0.6638   -0.6191 O   0  0  0  0  0  0  0  0  0  0  0  0
   -4.7702   -1.4709    0.4111 C   0  0  0  0  0  0  0  0  0  0  0  0
   -5.7882   -2.0991    1.1310 C   0  0  0  0  0  0  0  0  0  0  0  0
   -5.4695   -2.9556    2.1812 C   0  0  0  0  0  0  0  0  0  0  0  0
   -4.1331   -3.1878    2.5025 C   0  0  0  0  0  0  0  0  0  0  0  0
   -3.1135   -2.5784    1.7634 C   0  0  0  0  0  0  0  0  0  0  0  0
   -3.4200   -1.7188    0.7001 C   0  0  0  0  0  0  0  0  0  0  0  0
   -2.4205   -1.1153   -0.1097 N   0  0  0  0  0  0  0  0  0  0  0  0
   -1.0327   -1.5648   -0.0656 C   0  0  0  0  0  0  0  0  0  0  0  0
   -0.2015   -0.7340    0.9110 C   0  0  0  0  0  0  0  0  0  0  0  0
    0.3652   -1.2350    1.8803 O   0  0  0  0  0  0  0  0  0  0  0  0
   -0.0972    0.6002    0.5755 N   0  0  0  0  0  0  0  0  0  0  0  0
    0.7983    1.4929    1.2701 C   0  0  0  0  0  0  0  0  0  0  0  0
    2.1627    1.4784    0.6457 C   0  0  0  0  0  0  0  0  0  0  0  0
    2.4603    2.2332   -0.4910 C   0  0  0  0  0  0  0  0  0  0  0  0
    3.7322    2.1644   -1.0629 C   0  0  0  0  0  0  0  0  0  0  0  0
    4.6822    1.3312   -0.4779 C   0  0  0  0  0  0  0  0  0  0  0  0
    5.9882    1.2195   -1.0314 N   0  0  0  0  0  0  0  0  0  0  0  0
    7.0079    0.4371   -0.5295 C   0  0  0  0  0  0  0  0  0  0  0  0
    8.0766    0.6182   -1.3733 C   0  0  0  0  0  0  0  0  0  0  0  0
    7.7564    1.4869   -2.3808 N   0  0  0  0  0  0  0  0  0  0  0  0
    6.5070    1.8325   -2.1504 C   0  0  0  0  0  0  0  0  0  0  0  0
    4.4125    0.5854    0.6255 N   0  0  0  0  0  0  0  0  0  0  0  0
    3.1691    0.6659    1.1517 C   0  0  0  0  0  0  0  0  0  0  0  0
   -2.7624   -0.0900   -0.9842 C   0  0  0  0  0  0  0  0  0  0  0  0
   -1.9222    0.4933   -1.6740 O   0  0  0  0  0  0  0  0  0  0  0  0
   -4.0126    1.8751   -2.4590 H   0  0  0  0  0  0  0  0  0  0  0  0
   -4.6234    0.3106   -3.0361 H   0  0  0  0  0  0  0  0  0  0  0  0
   -5.6896    1.3818   -2.1328 H   0  0  0  0  0  0  0  0  0  0  0  0
   -4.2854    1.1091   -0.1020 H   0  0  0  0  0  0  0  0  0  0  0  0
   -6.8274   -1.9160    0.8759 H   0  0  0  0  0  0  0  0  0  0  0  0
   -6.2598   -3.4382    2.7513 H   0  0  0  0  0  0  0  0  0  0  0  0
   -3.8804   -3.8492    3.3281 H   0  0  0  0  0  0  0  0  0  0  0  0
   -2.0888   -2.7821    2.0610 H   0  0  0  0  0  0  0  0  0  0  0  0
   -0.9668   -2.6280    0.1847 H   0  0  0  0  0  0  0  0  0  0  0  0
   -0.5805   -1.4590   -1.0601 H   0  0  0  0  0  0  0  0  0  0  0  0
   -0.4518    0.8836   -0.3371 H   0  0  0  0  0  0  0  0  0  0  0  0
    0.3694    2.5009    1.2155 H   0  0  0  0  0  0  0  0  0  0  0  0
    0.8533    1.2219    2.3312 H   0  0  0  0  0  0  0  0  0  0  0  0
    1.7038    2.8729   -0.9411 H   0  0  0  0  0  0  0  0  0  0  0  0
    3.9348    2.7597   -1.9455 H   0  0  0  0  0  0  0  0  0  0  0  0
    6.8777   -0.1640    0.3604 H   0  0  0  0  0  0  0  0  0  0  0  0
    9.0579    0.1655   -1.3073 H   0  0  0  0  0  0  0  0  0  0  0  0
    5.9451    2.5188   -2.7695 H   0  0  0  0  0  0  0  0  0  0  0  0
    2.9980    0.0278    2.0172 H   0  0  0  0  0  0  0  0  0  0  0  0
  1  2  1  0
  2  3  1  0
  3  4  1  0
  4  5  2  0
  5  6  1  0
  6  7  2  0
  7  8  1  0
  8  9  2  0
  9 10  1  0
 10 11  1  0
 11 12  1  0
 12 13  2  0
 12 14  1  0
 14 15  1  0
 15 16  1  0
 16 17  2  0
 17 18  1  0
 18 19  2  0
 19 20  1  0
 20 21  1  0
 21 22  2  0
 22 23  1  0
 23 24  2  0
 19 25  1  0
 25 26  2  0
 10 27  1  0
 27 28  2  0
 27  2  1  0
  9  4  1  0
 26 16  1  0
 24 20  1  0
  1 29  1  0
  1 30  1  0
  1 31  1  0
  2 32  1  0
  5 33  1  0
  6 34  1  0
  7 35  1  0
  8 36  1  0
 11 37  1  0
 11 38  1  0
 14 39  1  0
 15 40  1  0
 15 41  1  0
 17 42  1  0
 18 43  1  0
 21 44  1  0
 22 45  1  0
 24 46  1  0
 26 47  1  0
M  END
$$$$
OCNT-2310919
     RDKit          3D

 35 37  0  0  0  0  0  0  0  0999 V2000
    0.6929   -2.2552   -0.3793 C   0  0  0  0  0  0  0  0  0  0  0  0
   -0.2725   -1.1329   -0.2850 C   0  0  0  0  0  0  0  0  0  0  0  0
   -1.5699   -1.1994    0.1773 C   0  0  0  0  0  0  0  0  0  0  0  0
   -2.1296    0.0585    0.0622 N   0  0  0  0  0  0  0  0  0  0  0  0
   -3.4708    0.4396    0.3804 C   0  0  0  0  0  0  0  0  0  0  0  0
   -4.4269   -0.5784    0.5919 C   0  0  0  0  0  0  0  0  0  0  0  0
   -5.7604   -0.2738    0.8815 C   0  0  0  0  0  0  0  0  0  0  0  0
   -6.1676    1.0498    0.9677 C   0  0  0  0  0  0  0  0  0  0  0  0
   -5.2382    2.0682    0.7696 C   0  0  0  0  0  0  0  0  0  0  0  0
   -3.8929    1.7798    0.4796 C   0  0  0  0  0  0  0  0  0  0  0  0
   -2.8753    3.1752    0.3545 Cl  0  0  0  0  0  0  0  0  0  0  0  0
   -1.2331    0.9232   -0.4479 N   0  0  0  0  0  0  0  0  0  0  0  0
   -0.1037    0.2317   -0.6619 C   0  0  0  0  0  0  0  0  0  0  0  0
    1.0898    0.8995   -1.2187 C   0  0  0  0  0  0  0  0  0  0  0  0
    1.0402    1.8174   -2.0343 O   0  0  0  0  0  0  0  0  0  0  0  0
    2.2891    0.4287   -0.7340 N   0  0  0  0  0  0  0  0  0  0  0  0
    3.5294    1.0870   -1.0740 C   0  0  0  0  0  0  0  0  0  0  0  0
    4.6631    0.3436   -0.4317 C   0  0  0  0  0  0  0  0  0  0  0  0
    4.5226   -0.5804    0.5037 N   0  0  0  0  0  0  0  0  0  0  0  0
    5.7659   -1.0510    0.8785 C   0  0  0  0  0  0  0  0  0  0  0  0
    6.8394   -0.4825    0.2288 C   0  0  0  0  0  0  0  0  0  0  0  0
    6.2847    0.6867   -0.8937 S   0  0  0  0  0  0  0  0  0  0  0  0
    0.1747   -3.2199   -0.3641 H   0  0  0  0  0  0  0  0  0  0  0  0
    1.2662   -2.2039   -1.3102 H   0  0  0  0  0  0  0  0  0  0  0  0
    1.3892   -2.2342    0.4647 H   0  0  0  0  0  0  0  0  0  0  0  0
   -2.1163   -2.0371    0.5817 H   0  0  0  0  0  0  0  0  0  0  0  0
   -4.1761   -1.6319    0.5071 H   0  0  0  0  0  0  0  0  0  0  0  0
   -6.4813   -1.0746    1.0306 H   0  0  0  0  0  0  0  0  0  0  0  0
   -7.2034    1.2928    1.1906 H   0  0  0  0  0  0  0  0  0  0  0  0
   -5.5674    3.1026    0.8515 H   0  0  0  0  0  0  0  0  0  0  0  0
    2.2981   -0.1435    0.1017 H   0  0  0  0  0  0  0  0  0  0  0  0
    3.4869    2.1165   -0.7022 H   0  0  0  0  0  0  0  0  0  0  0  0
    3.6263    1.1068   -2.1649 H   0  0  0  0  0  0  0  0  0  0  0  0
    5.8351   -1.8180    1.6404 H   0  0  0  0  0  0  0  0  0  0  0  0
    7.8918   -0.6908    0.3573 H   0  0  0  0  0  0  0  0  0  0  0  0
  1  2  1  0
  2  3  2  0
  3  4  1  0
  4  5  1  0
  5  6  2  0
  6  7  1  0
  7  8  2  0
  8  9  1  0
  9 10  2  0
 10 11  1  0
  4 12  1  0
 12 13  2  0
 13 14  1  0
 14 15  2  0
 14 16  1  0
 16 17  1  0
 17 18  1  0
 18 19  2  0
 19 20  1  0
 20 21  2  0
 21 22  1  0
 13  2  1  0
 22 18  1  0
 10  5  1  0
  1 23  1  0
  1 24  1  0
  1 25  1  0
  3 26  1  0
  6 27  1  0
  7 28  1  0
  8 29  1  0
  9 30  1  0
 16 31  1  0
 17 32  1  0
 17 33  1  0
 20 34  1  0
 21 35  1  0
M  END
$$$$
OCNT-2310920
     RDKit          3D

 43 44  0  0  0  0  0  0  0  0999 V2000
    5.1169   -1.6748    0.5262 C   0  0  0  0  0  0  0  0  0  0  0  0
    4.3251   -0.4321    0.4448 C   0  0  0  0  0  0  0  0  0  0  0  0
    4.7112    0.8084    0.6522 N   0  0  0  0  0  0  0  0  0  0  0  0
    3.5712    1.5534    0.4416 C   0  0  0  0  0  0  0  0  0  0  0  0
    3.5805    3.0252    0.5801 C   0  0  0  0  0  0  0  0  0  0  0  0
    2.5227    0.7184    0.1085 C   0  0  0  0  0  0  0  0  0  0  0  0
    1.1374    0.9734   -0.2078 C   0  0  0  0  0  0  0  0  0  0  0  0
    0.6561    2.1003   -0.2434 O   0  0  0  0  0  0  0  0  0  0  0  0
    0.4168   -0.1752   -0.4704 N   0  0  0  0  0  0  0  0  0  0  0  0
   -0.9997   -0.2299   -0.9042 C   0  0  0  0  0  0  0  0  0  0  0  0
   -1.0753    0.5243   -2.2602 C   0  0  0  0  0  0  0  0  0  0  0  0
   -1.9251    0.3811    0.1717 C   0  0  0  0  0  0  0  0  0  0  0  0
   -1.6270    0.2408    1.5436 C   0  0  0  0  0  0  0  0  0  0  0  0
   -2.4576    0.7761    2.5331 C   0  0  0  0  0  0  0  0  0  0  0  0
   -3.6089    1.4627    2.1680 C   0  0  0  0  0  0  0  0  0  0  0  0
   -4.7365    2.1867    3.5003 Br  0  0  0  0  0  0  0  0  0  0  0  0
   -3.9349    1.6166    0.8254 C   0  0  0  0  0  0  0  0  0  0  0  0
   -3.1005    1.0797   -0.1620 C   0  0  0  0  0  0  0  0  0  0  0  0
   -1.3642   -1.7538   -1.1560 C   0  0  0  0  0  0  0  0  0  0  0  0
   -1.2057   -2.6598    0.0785 C   0  0  0  0  0  0  0  0  0  0  0  0
   -2.7629   -1.9952   -1.7456 C   0  0  0  0  0  0  0  0  0  0  0  0
    3.0069   -0.5701    0.1084 O   0  0  0  0  0  0  0  0  0  0  0  0
    4.6964   -2.3478    1.2791 H   0  0  0  0  0  0  0  0  0  0  0  0
    5.1206   -2.1901   -0.4388 H   0  0  0  0  0  0  0  0  0  0  0  0
    6.1527   -1.4558    0.8021 H   0  0  0  0  0  0  0  0  0  0  0  0
    3.3046    3.5024   -0.3654 H   0  0  0  0  0  0  0  0  0  0  0  0
    4.5746    3.3847    0.8635 H   0  0  0  0  0  0  0  0  0  0  0  0
    2.8726    3.3438    1.3515 H   0  0  0  0  0  0  0  0  0  0  0  0
    0.9622   -1.0272   -0.5094 H   0  0  0  0  0  0  0  0  0  0  0  0
   -0.3431    0.1192   -2.9694 H   0  0  0  0  0  0  0  0  0  0  0  0
   -0.8587    1.5923   -2.1487 H   0  0  0  0  0  0  0  0  0  0  0  0
   -2.0562    0.4593   -2.7382 H   0  0  0  0  0  0  0  0  0  0  0  0
   -0.7317   -0.2894    1.8614 H   0  0  0  0  0  0  0  0  0  0  0  0
   -2.1919    0.6530    3.5794 H   0  0  0  0  0  0  0  0  0  0  0  0
   -4.8328    2.1539    0.5316 H   0  0  0  0  0  0  0  0  0  0  0  0
   -3.3967    1.2227   -1.1975 H   0  0  0  0  0  0  0  0  0  0  0  0
   -0.6459   -2.1318   -1.8989 H   0  0  0  0  0  0  0  0  0  0  0  0
   -1.2984   -3.7127   -0.2124 H   0  0  0  0  0  0  0  0  0  0  0  0
   -1.9789   -2.4653    0.8281 H   0  0  0  0  0  0  0  0  0  0  0  0
   -0.2265   -2.5457    0.5519 H   0  0  0  0  0  0  0  0  0  0  0  0
   -3.5540   -1.6500   -1.0734 H   0  0  0  0  0  0  0  0  0  0  0  0
   -2.8904   -1.5056   -2.7141 H   0  0  0  0  0  0  0  0  0  0  0  0
   -2.9248   -3.0661   -1.9151 H   0  0  0  0  0  0  0  0  0  0  0  0
  1  2  1  0
  2  3  2  0
  3  4  1  0
  4  5  1  0
  4  6  2  0
  6  7  1  0
  7  8  2  0
  7  9  1  0
  9 10  1  0
 10 11  1  0
 10 12  1  0
 12 13  1  0
 13 14  2  0
 14 15  1  0
 15 16  1  0
 15 17  2  0
 17 18  1  0
 10 19  1  0
 19 20  1  0
 19 21  1  0
  6 22  1  0
 22  2  1  0
 18 12  2  0
  1 23  1  0
  1 24  1  0
  1 25  1  0
  5 26  1  0
  5 27  1  0
  5 28  1  0
  9 29  1  0
 11 30  1  0
 11 31  1  0
 11 32  1  0
 13 33  1  0
 14 34  1  0
 17 35  1  0
 18 36  1  0
 19 37  1  0
 20 38  1  0
 20 39  1  0
 20 40  1  0
 21 41  1  0
 21 42  1  0
 21 43  1  0
M  END
$$$$
OCNT-2310942
     RDKit          3D

 41 44  0  0  0  0  0  0  0  0999 V2000
   -4.5648    1.5540   -1.1600 C   0  0  0  0  0  0  0  0  0  0  0  0
   -3.3422    1.7627   -0.2630 C   0  0  0  0  0  0  0  0  0  0  0  0
   -3.6520    2.7572    0.8586 C   0  0  0  0  0  0  0  0  0  0  0  0
   -2.8231    0.4470    0.2867 C   0  0  0  0  0  0  0  0  0  0  0  0
   -3.5960   -0.3640    1.1192 C   0  0  0  0  0  0  0  0  0  0  0  0
   -3.0874   -1.5757    1.5993 C   0  0  0  0  0  0  0  0  0  0  0  0
   -1.8110   -2.0180    1.2800 C   0  0  0  0  0  0  0  0  0  0  0  0
   -1.3997   -3.1917    1.7695 N   0  0  0  0  0  0  0  0  0  0  0  0
   -0.1681   -3.5852    1.4288 C   0  0  0  0  0  0  0  0  0  0  0  0
    0.6929   -2.9143    0.6593 N   0  0  0  0  0  0  0  0  0  0  0  0
    0.2734   -1.7264    0.1834 C   0  0  0  0  0  0  0  0  0  0  0  0
    1.1749   -0.9628   -0.6207 N   0  0  0  0  0  0  0  0  0  0  0  0
    2.4244   -1.5130   -1.1197 C   0  0  0  0  0  0  0  0  0  0  0  0
    3.1586   -0.6524   -0.0974 C   0  0  0  0  0  0  0  0  0  0  0  0
    4.3221    0.0782   -0.6237 N   0  0  0  0  0  0  0  0  0  0  0  0
    4.3779    0.7993   -1.7885 C   0  0  0  0  0  0  0  0  0  0  0  0
    5.6525    1.3098   -1.8650 C   0  0  0  0  0  0  0  0  0  0  0  0
    6.2892    0.8492   -0.7001 C   0  0  0  0  0  0  0  0  0  0  0  0
    5.4835    0.1050    0.0598 N   0  0  0  0  0  0  0  0  0  0  0  0
    1.8759    0.1710   -0.0356 C   0  0  0  0  0  0  0  0  0  0  0  0
   -1.0121   -1.2160    0.4571 C   0  0  0  0  0  0  0  0  0  0  0  0
   -1.5328    0.0092   -0.0397 C   0  0  0  0  0  0  0  0  0  0  0  0
   -4.3402    0.8519   -1.9707 H   0  0  0  0  0  0  0  0  0  0  0  0
   -4.8754    2.5014   -1.6137 H   0  0  0  0  0  0  0  0  0  0  0  0
   -5.4196    1.1569   -0.6018 H   0  0  0  0  0  0  0  0  0  0  0  0
   -2.5589    2.2145   -0.8862 H   0  0  0  0  0  0  0  0  0  0  0  0
   -2.7736    2.9168    1.4939 H   0  0  0  0  0  0  0  0  0  0  0  0
   -3.9455    3.7271    0.4427 H   0  0  0  0  0  0  0  0  0  0  0  0
   -4.4692    2.4099    1.5002 H   0  0  0  0  0  0  0  0  0  0  0  0
   -4.6044   -0.0708    1.4026 H   0  0  0  0  0  0  0  0  0  0  0  0
   -3.7110   -2.1944    2.2414 H   0  0  0  0  0  0  0  0  0  0  0  0
    0.1649   -4.5414    1.8175 H   0  0  0  0  0  0  0  0  0  0  0  0
    2.5429   -2.5937   -1.0027 H   0  0  0  0  0  0  0  0  0  0  0  0
    2.5487   -1.2645   -2.1793 H   0  0  0  0  0  0  0  0  0  0  0  0
    3.3800   -1.1836    0.8378 H   0  0  0  0  0  0  0  0  0  0  0  0
    3.5302    0.8887   -2.4526 H   0  0  0  0  0  0  0  0  0  0  0  0
    6.0641    1.9282   -2.6498 H   0  0  0  0  0  0  0  0  0  0  0  0
    7.3057    1.0255   -0.3716 H   0  0  0  0  0  0  0  0  0  0  0  0
    1.7984    1.0475   -0.6874 H   0  0  0  0  0  0  0  0  0  0  0  0
    1.5428    0.4398    0.9717 H   0  0  0  0  0  0  0  0  0  0  0  0
   -0.9159    0.6174   -0.6986 H   0  0  0  0  0  0  0  0  0  0  0  0
  1  2  1  0
  2  3  1  0
  2  4  1  0
  4  5  1  0
  5  6  2  0
  6  7  1  0
  7  8  2  0
  8  9  1  0
  9 10  2  0
 10 11  1  0
 11 12  1  0
 12 13  1  0
 13 14  1  0
 14 15  1  0
 15 16  1  0
 16 17  2  0
 17 18  1  0
 18 19  2  0
 14 20  1  0
 11 21  2  0
 21 22  1  0
 22  4  2  0
 21  7  1  0
 20 12  1  0
 19 15  1  0
  1 23  1  0
  1 24  1  0
  1 25  1  0
  2 26  1  0
  3 27  1  0
  3 28  1  0
  3 29  1  0
  5 30  1  0
  6 31  1  0
  9 32  1  0
 13 33  1  0
 13 34  1  0
 14 35  1  0
 16 36  1  0
 17 37  1  0
 18 38  1  0
 20 39  1  0
 20 40  1  0
 22 41  1  0
M  END
$$$$
OCNT-2310944
     RDKit          3D

 38 41  0  0  0  0  0  0  0  0999 V2000
    4.2991   -2.4588   -0.8105 C   0  0  0  0  0  0  0  0  0  0  0  0
    5.3860   -1.6702   -0.5082 C   0  0  0  0  0  0  0  0  0  0  0  0
    4.9694   -0.3650    0.5142 S   0  0  0  0  0  0  0  0  0  0  0  0
    3.3193   -0.8348    0.5493 C   0  0  0  0  0  0  0  0  0  0  0  0
    2.3146   -0.0444    1.3476 C   0  0  0  0  0  0  0  0  0  0  0  0
    2.0241    1.2835    0.7709 N   0  0  0  0  0  0  0  0  0  0  0  0
    1.1138    2.0345    1.6757 C   0  0  0  0  0  0  0  0  0  0  0  0
   -0.3767    2.1251    1.2506 C   0  0  0  0  0  0  0  0  0  0  0  0
   -0.8036    0.8807    0.5898 N   0  0  0  0  0  0  0  0  0  0  0  0
   -2.1864    0.8057    0.3530 C   0  0  0  0  0  0  0  0  0  0  0  0
   -2.9635    1.9104    0.5262 N   0  0  0  0  0  0  0  0  0  0  0  0
   -4.2870    1.8334    0.2859 C   0  0  0  0  0  0  0  0  0  0  0  0
   -4.9964    0.7682   -0.1158 N   0  0  0  0  0  0  0  0  0  0  0  0
   -4.2118   -0.3091   -0.2500 C   0  0  0  0  0  0  0  0  0  0  0  0
   -2.8426   -0.3834   -0.0392 C   0  0  0  0  0  0  0  0  0  0  0  0
   -2.4787   -1.7434   -0.2735 C   0  0  0  0  0  0  0  0  0  0  0  0
   -3.6157   -2.4334   -0.6395 C   0  0  0  0  0  0  0  0  0  0  0  0
   -4.6604   -1.5463   -0.6234 N   0  0  0  0  0  0  0  0  0  0  0  0
   -0.0003    0.5325   -0.6026 C   0  0  0  0  0  0  0  0  0  0  0  0
    1.4020    1.1939   -0.5673 C   0  0  0  0  0  0  0  0  0  0  0  0
    3.1065   -1.9799   -0.1958 C   0  0  0  0  0  0  0  0  0  0  0  0
    4.3581   -3.3380   -1.4400 H   0  0  0  0  0  0  0  0  0  0  0  0
    6.4090   -1.7973   -0.8343 H   0  0  0  0  0  0  0  0  0  0  0  0
    1.4008   -0.6385    1.4759 H   0  0  0  0  0  0  0  0  0  0  0  0
    2.7345    0.0849    2.3550 H   0  0  0  0  0  0  0  0  0  0  0  0
    1.1637    1.6343    2.6971 H   0  0  0  0  0  0  0  0  0  0  0  0
    1.4981    3.0592    1.7554 H   0  0  0  0  0  0  0  0  0  0  0  0
   -0.9727    2.3170    2.1520 H   0  0  0  0  0  0  0  0  0  0  0  0
   -0.5060    2.9783    0.5706 H   0  0  0  0  0  0  0  0  0  0  0  0
   -4.8482    2.7507    0.4353 H   0  0  0  0  0  0  0  0  0  0  0  0
   -1.4912   -2.1722   -0.1714 H   0  0  0  0  0  0  0  0  0  0  0  0
   -3.7725   -3.4725   -0.8968 H   0  0  0  0  0  0  0  0  0  0  0  0
   -5.6265   -1.7515   -0.8327 H   0  0  0  0  0  0  0  0  0  0  0  0
    0.1286   -0.5542   -0.6395 H   0  0  0  0  0  0  0  0  0  0  0  0
   -0.4995    0.8452   -1.5293 H   0  0  0  0  0  0  0  0  0  0  0  0
    1.3123    2.2174   -0.9577 H   0  0  0  0  0  0  0  0  0  0  0  0
    2.0629    0.6902   -1.2822 H   0  0  0  0  0  0  0  0  0  0  0  0
    2.1369   -2.4523   -0.2961 H   0  0  0  0  0  0  0  0  0  0  0  0
  1  2  2  0
  2  3  1  0
  3  4  1  0
  4  5  1  0
  5  6  1  0
  6  7  1  0
  7  8  1  0
  8  9  1  0
  9 10  1  0
 10 11  1  0
 11 12  2  0
 12 13  1  0
 13 14  2  0
 14 15  1  0
 15 16  1  0
 16 17  2  0
 17 18  1  0
  9 19  1  0
 19 20  1  0
  4 21  2  0
 21  1  1  0
 20  6  1  0
 15 10  2  0
 18 14  1  0
  1 22  1  0
  2 23  1  0
  5 24  1  0
  5 25  1  0
  7 26  1  0
  7 27  1  0
  8 28  1  0
  8 29  1  0
 12 30  1  0
 16 31  1  0
 17 32  1  0
 18 33  1  0
 19 34  1  0
 19 35  1  0
 20 36  1  0
 20 37  1  0
 21 38  1  0
M  END
$$$$
OCNT-2310945
     RDKit          3D

 44 46  0  0  0  0  0  0  0  0999 V2000
    6.4511    2.1801   -1.1799 C   0  0  0  0  0  0  0  0  0  0  0  0
    5.3095    1.3846   -1.4675 O   0  0  0  0  0  0  0  0  0  0  0  0
    4.4968    1.1880   -0.3727 C   0  0  0  0  0  0  0  0  0  0  0  0
    4.8344    1.7107    0.8150 N   0  0  0  0  0  0  0  0  0  0  0  0
    3.9694    1.4675    1.8183 C   0  0  0  0  0  0  0  0  0  0  0  0
    2.8154    0.7254    1.6784 C   0  0  0  0  0  0  0  0  0  0  0  0
    1.7644    0.5369    3.0304 Cl  0  0  0  0  0  0  0  0  0  0  0  0
    2.5582    0.2094    0.4074 C   0  0  0  0  0  0  0  0  0  0  0  0
    1.4111   -0.5678    0.1629 N   0  0  0  0  0  0  0  0  0  0  0  0
    0.9037   -0.5076   -1.2270 C   0  0  0  0  0  0  0  0  0  0  0  0
   -0.0625   -1.6856   -1.5329 C   0  0  0  0  0  0  0  0  0  0  0  0
   -0.8282   -2.2125   -0.3818 N   0  0  0  0  0  0  0  0  0  0  0  0
   -1.7775   -1.2202    0.1703 C   0  0  0  0  0  0  0  0  0  0  0  0
   -2.8844   -0.8035   -0.8141 C   0  0  0  0  0  0  0  0  0  0  0  0
   -3.9154    0.0810   -0.1522 C   0  0  0  0  0  0  0  0  0  0  0  0
   -5.1059   -0.4647    0.3457 C   0  0  0  0  0  0  0  0  0  0  0  0
   -6.0495    0.3511    0.9719 C   0  0  0  0  0  0  0  0  0  0  0  0
   -5.8102    1.7172    1.1096 C   0  0  0  0  0  0  0  0  0  0  0  0
   -4.6266    2.2689    0.6228 C   0  0  0  0  0  0  0  0  0  0  0  0
   -3.6818    1.4551   -0.0039 C   0  0  0  0  0  0  0  0  0  0  0  0
    0.1340   -2.6335    0.6746 C   0  0  0  0  0  0  0  0  0  0  0  0
    1.5299   -1.9491    0.6614 C   0  0  0  0  0  0  0  0  0  0  0  0
    3.4013    0.4545   -0.6188 N   0  0  0  0  0  0  0  0  0  0  0  0
    7.0263    2.2849   -2.1051 H   0  0  0  0  0  0  0  0  0  0  0  0
    6.1645    3.1858   -0.8528 H   0  0  0  0  0  0  0  0  0  0  0  0
    7.0988    1.6954   -0.4410 H   0  0  0  0  0  0  0  0  0  0  0  0
    4.2397    1.9106    2.7725 H   0  0  0  0  0  0  0  0  0  0  0  0
    0.3675    0.4407   -1.3530 H   0  0  0  0  0  0  0  0  0  0  0  0
    1.7061   -0.5463   -1.9735 H   0  0  0  0  0  0  0  0  0  0  0  0
    0.5350   -2.5189   -1.9296 H   0  0  0  0  0  0  0  0  0  0  0  0
   -0.7236   -1.4155   -2.3637 H   0  0  0  0  0  0  0  0  0  0  0  0
   -1.2578   -0.3289    0.5436 H   0  0  0  0  0  0  0  0  0  0  0  0
   -2.2714   -1.6728    1.0413 H   0  0  0  0  0  0  0  0  0  0  0  0
   -3.3763   -1.6940   -1.2261 H   0  0  0  0  0  0  0  0  0  0  0  0
   -2.4673   -0.2602   -1.6702 H   0  0  0  0  0  0  0  0  0  0  0  0
   -5.3043   -1.5299    0.2496 H   0  0  0  0  0  0  0  0  0  0  0  0
   -6.9710   -0.0802    1.3537 H   0  0  0  0  0  0  0  0  0  0  0  0
   -6.5452    2.3514    1.5979 H   0  0  0  0  0  0  0  0  0  0  0  0
   -4.4380    3.3335    0.7326 H   0  0  0  0  0  0  0  0  0  0  0  0
   -2.7607    1.8989   -0.3749 H   0  0  0  0  0  0  0  0  0  0  0  0
    0.2945   -3.7136    0.5653 H   0  0  0  0  0  0  0  0  0  0  0  0
   -0.3104   -2.5137    1.6713 H   0  0  0  0  0  0  0  0  0  0  0  0
    2.2083   -2.5153    0.0084 H   0  0  0  0  0  0  0  0  0  0  0  0
    1.9480   -1.9978    1.6731 H   0  0  0  0  0  0  0  0  0  0  0  0
  1  2  1  0
  2  3  1  0
  3  4  2  0
  4  5  1  0
  5  6  2  0
  6  7  1  0
  6  8  1  0
  8  9  1  0
  9 10  1  0
 10 11  1  0
 11 12  1  0
 12 13  1  0
 13 14  1  0
 14 15  1  0
 15 16  2  0
 16 17  1  0
 17 18  2  0
 18 19  1  0
 19 20  2  0
 12 21  1  0
 21 22  1  0
  8 23  2  0
 23  3  1  0
 22  9  1  0
 20 15  1  0
  1 24  1  0
  1 25  1  0
  1 26  1  0
  5 27  1  0
 10 28  1  0
 10 29  1  0
 11 30  1  0
 11 31  1  0
 13 32  1  0
 13 33  1  0
 14 34  1  0
 14 35  1  0
 16 36  1  0
 17 37  1  0
 18 38  1  0
 19 39  1  0
 20 40  1  0
 21 41  1  0
 21 42  1  0
 22 43  1  0
 22 44  1  0
M  END
$$$$
OCNT-2310949
     RDKit          3D

 40 43  0  0  0  0  0  0  0  0999 V2000
   -2.4588   -1.5796    1.5248 O   0  0  0  0  0  0  0  0  0  0  0  0
   -1.7942   -1.4191    0.4967 C   0  0  0  0  0  0  0  0  0  0  0  0
   -0.6163   -2.3418    0.2274 C   0  0  0  0  0  0  0  0  0  0  0  0
    0.6792   -1.7087    0.5808 C   0  0  0  0  0  0  0  0  0  0  0  0
    1.1663   -1.3564    1.8229 C   0  0  0  0  0  0  0  0  0  0  0  0
    2.3964   -0.8248    1.5821 N   0  0  0  0  0  0  0  0  0  0  0  0
    3.3030   -0.2537    2.5563 C   0  0  0  0  0  0  0  0  0  0  0  0
    4.7209   -0.0972    2.0066 C   0  0  0  0  0  0  0  0  0  0  0  0
    4.6951    0.4945    0.5956 C   0  0  0  0  0  0  0  0  0  0  0  0
    3.9141   -0.4071   -0.3639 C   0  0  0  0  0  0  0  0  0  0  0  0
    2.6287   -0.8704    0.2314 C   0  0  0  0  0  0  0  0  0  0  0  0
    1.6020   -1.4019   -0.3987 N   0  0  0  0  0  0  0  0  0  0  0  0
   -2.0679   -0.4539   -0.4611 N   0  0  0  0  0  0  0  0  0  0  0  0
   -1.2311   -0.1357   -1.6351 C   0  0  0  0  0  0  0  0  0  0  0  0
   -1.9805    0.9142   -2.4633 C   0  0  0  0  0  0  0  0  0  0  0  0
   -3.0816    1.3120   -1.5335 C   0  0  0  0  0  0  0  0  0  0  0  0
   -4.0127    2.3244   -1.7221 C   0  0  0  0  0  0  0  0  0  0  0  0
   -4.9934    2.5046   -0.7476 C   0  0  0  0  0  0  0  0  0  0  0  0
   -5.0249    1.6726    0.3765 C   0  0  0  0  0  0  0  0  0  0  0  0
   -5.9796    1.8632    1.2977 F   0  0  0  0  0  0  0  0  0  0  0  0
   -4.0929    0.6538    0.5608 C   0  0  0  0  0  0  0  0  0  0  0  0
   -3.1178    0.4846   -0.4063 C   0  0  0  0  0  0  0  0  0  0  0  0
   -0.6281   -2.6761   -0.8143 H   0  0  0  0  0  0  0  0  0  0  0  0
   -0.7538   -3.2482    0.8303 H   0  0  0  0  0  0  0  0  0  0  0  0
    0.7409   -1.4346    2.8144 H   0  0  0  0  0  0  0  0  0  0  0  0
    2.8882    0.7229    2.8311 H   0  0  0  0  0  0  0  0  0  0  0  0
    3.3025   -0.8978    3.4418 H   0  0  0  0  0  0  0  0  0  0  0  0
    5.2153   -1.0765    1.9786 H   0  0  0  0  0  0  0  0  0  0  0  0
    5.3083    0.5410    2.6755 H   0  0  0  0  0  0  0  0  0  0  0  0
    5.7178    0.6285    0.2252 H   0  0  0  0  0  0  0  0  0  0  0  0
    4.2321    1.4890    0.6277 H   0  0  0  0  0  0  0  0  0  0  0  0
    3.7213    0.1290   -1.2997 H   0  0  0  0  0  0  0  0  0  0  0  0
    4.5186   -1.2877   -0.6122 H   0  0  0  0  0  0  0  0  0  0  0  0
   -0.2821    0.2745   -1.2740 H   0  0  0  0  0  0  0  0  0  0  0  0
   -1.0243   -1.0362   -2.2206 H   0  0  0  0  0  0  0  0  0  0  0  0
   -2.3958    0.4693   -3.3734 H   0  0  0  0  0  0  0  0  0  0  0  0
   -1.3320    1.7549   -2.7261 H   0  0  0  0  0  0  0  0  0  0  0  0
   -3.9859    2.9568   -2.6038 H   0  0  0  0  0  0  0  0  0  0  0  0
   -5.7420    3.2840   -0.8521 H   0  0  0  0  0  0  0  0  0  0  0  0
   -4.1551    0.0334    1.4458 H   0  0  0  0  0  0  0  0  0  0  0  0
  1  2  2  0
  2  3  1  0
  3  4  1  0
  4  5  2  0
  5  6  1  0
  6  7  1  0
  7  8  1  0
  8  9  1  0
  9 10  1  0
 10 11  1  0
 11 12  2  0
  2 13  1  0
 13 14  1  0
 14 15  1  0
 15 16  1  0
 16 17  1  0
 17 18  2  0
 18 19  1  0
 19 20  1  0
 19 21  2  0
 21 22  1  0
 12  4  1  0
 22 13  1  0
 11  6  1  0
 22 16  2  0
  3 23  1  0
  3 24  1  0
  5 25  1  0
  7 26  1  0
  7 27  1  0
  8 28  1  0
  8 29  1  0
  9 30  1  0
  9 31  1  0
 10 32  1  0
 10 33  1  0
 14 34  1  0
 14 35  1  0
 15 36  1  0
 15 37  1  0
 17 38  1  0
 18 39  1  0
 21 40  1  0
M  END
$$$$
OCNT-2310958
     RDKit          3D

 48 50  0  0  0  0  0  0  0  0999 V2000
    7.2941    1.8440   -1.6717 C   0  0  0  0  0  0  0  0  0  0  0  0
    5.8079    1.8112   -1.3618 C   0  0  0  0  0  0  0  0  0  0  0  0
    5.5494    0.6404   -0.5906 O   0  0  0  0  0  0  0  0  0  0  0  0
    4.2447    0.3458   -0.3037 C   0  0  0  0  0  0  0  0  0  0  0  0
    3.1627    1.1952   -0.5400 C   0  0  0  0  0  0  0  0  0  0  0  0
    1.8541    0.7883   -0.2378 C   0  0  0  0  0  0  0  0  0  0  0  0
    1.6058   -0.4752    0.2990 C   0  0  0  0  0  0  0  0  0  0  0  0
    0.3188   -0.9614    0.6031 N   0  0  0  0  0  0  0  0  0  0  0  0
   -0.8642   -0.2605    0.5979 C   0  0  0  0  0  0  0  0  0  0  0  0
   -1.0169    0.9361    0.3997 O   0  0  0  0  0  0  0  0  0  0  0  0
   -1.9307   -1.0999    0.8618 N   0  0  0  0  0  0  0  0  0  0  0  0
   -3.2932   -0.5697    0.9197 C   0  0  0  0  0  0  0  0  0  0  0  0
   -4.2394   -1.6278    1.5111 C   0  0  0  0  0  0  0  0  0  0  0  0
   -5.6520   -1.0674    1.6795 C   0  0  0  0  0  0  0  0  0  0  0  0
   -6.0993   -0.3590    0.4558 C   0  0  0  0  0  0  0  0  0  0  0  0
   -7.3238   -0.0560    0.0924 N   0  0  0  0  0  0  0  0  0  0  0  0
   -7.2507    0.6258   -1.1016 N   0  0  0  0  0  0  0  0  0  0  0  0
   -5.9821    0.7292   -1.4435 C   0  0  0  0  0  0  0  0  0  0  0  0
   -5.4384    1.3847   -2.6520 C   0  0  0  0  0  0  0  0  0  0  0  0
   -5.2270    0.1142   -0.4854 N   0  0  0  0  0  0  0  0  0  0  0  0
   -3.7958   -0.0864   -0.4575 C   0  0  0  0  0  0  0  0  0  0  0  0
    2.6864   -1.3279    0.5382 C   0  0  0  0  0  0  0  0  0  0  0  0
    3.9928   -0.9091    0.2666 C   0  0  0  0  0  0  0  0  0  0  0  0
    4.9913   -1.8202    0.5143 O   0  0  0  0  0  0  0  0  0  0  0  0
    5.7553   -1.4328    1.6573 C   0  0  0  0  0  0  0  0  0  0  0  0
    7.5503    2.7281   -2.2622 H   0  0  0  0  0  0  0  0  0  0  0  0
    7.8807    1.8537   -0.7464 H   0  0  0  0  0  0  0  0  0  0  0  0
    7.5910    0.9479   -2.2266 H   0  0  0  0  0  0  0  0  0  0  0  0
    5.2479    1.7835   -2.3046 H   0  0  0  0  0  0  0  0  0  0  0  0
    5.5408    2.7069   -0.7900 H   0  0  0  0  0  0  0  0  0  0  0  0
    3.2950    2.1861   -0.9620 H   0  0  0  0  0  0  0  0  0  0  0  0
    1.0477    1.4849   -0.4471 H   0  0  0  0  0  0  0  0  0  0  0  0
    0.2754   -1.8811    1.0168 H   0  0  0  0  0  0  0  0  0  0  0  0
   -1.8179   -2.0485    0.5304 H   0  0  0  0  0  0  0  0  0  0  0  0
   -3.2704    0.2937    1.5995 H   0  0  0  0  0  0  0  0  0  0  0  0
   -4.2641   -2.5069    0.8517 H   0  0  0  0  0  0  0  0  0  0  0  0
   -3.8662   -1.9774    2.4820 H   0  0  0  0  0  0  0  0  0  0  0  0
   -6.3454   -1.8812    1.9176 H   0  0  0  0  0  0  0  0  0  0  0  0
   -5.6725   -0.3646    2.5208 H   0  0  0  0  0  0  0  0  0  0  0  0
   -4.8873    0.6678   -3.2676 H   0  0  0  0  0  0  0  0  0  0  0  0
   -6.2484    1.8011   -3.2592 H   0  0  0  0  0  0  0  0  0  0  0  0
   -4.7641    2.2019   -2.3796 H   0  0  0  0  0  0  0  0  0  0  0  0
   -3.3215    0.8601   -0.7350 H   0  0  0  0  0  0  0  0  0  0  0  0
   -3.5673   -0.8249   -1.2362 H   0  0  0  0  0  0  0  0  0  0  0  0
    2.5367   -2.3241    0.9443 H   0  0  0  0  0  0  0  0  0  0  0  0
    5.1081   -1.2324    2.5205 H   0  0  0  0  0  0  0  0  0  0  0  0
    6.4110   -2.2700    1.9164 H   0  0  0  0  0  0  0  0  0  0  0  0
    6.3906   -0.5663    1.4464 H   0  0  0  0  0  0  0  0  0  0  0  0
  1  2  1  0
  2  3  1  0
  3  4  1  0
  4  5  1  0
  5  6  2  0
  6  7  1  0
  7  8  1  0
  8  9  1  0
  9 10  2  0
  9 11  1  0
 11 12  1  0
 12 13  1  0
 13 14  1  0
 14 15  1  0
 15 16  2  0
 16 17  1  0
 17 18  2  0
 18 19  1  0
 18 20  1  0
 20 21  1  0
  7 22  2  0
 22 23  1  0
 23 24  1  0
 24 25  1  0
 23  4  2  0
 21 12  1  0
 20 15  1  0
  1 26  1  0
  1 27  1  0
  1 28  1  0
  2 29  1  0
  2 30  1  0
  5 31  1  0
  6 32  1  0
  8 33  1  0
 11 34  1  0
 12 35  1  0
 13 36  1  0
 13 37  1  0
 14 38  1  0
 14 39  1  0
 19 40  1  0
 19 41  1  0
 19 42  1  0
 21 43  1  0
 21 44  1  0
 22 45  1  0
 25 46  1  0
 25 47  1  0
 25 48  1  0
M  END
$$$$
OCNT-2310977
     RDKit          3D

 51 53  0  0  0  0  0  0  0  0999 V2000
   -5.1272    0.3815    1.8084 C   0  0  0  0  0  0  0  0  0  0  0  0
   -4.3075    1.3027    0.8982 C   0  0  0  0  0  0  0  0  0  0  0  0
   -3.8148    2.4987    1.7275 C   0  0  0  0  0  0  0  0  0  0  0  0
   -5.1348    1.8317   -0.2785 C   0  0  0  0  0  0  0  0  0  0  0  0
   -3.0961    0.6505    0.4410 O   0  0  0  0  0  0  0  0  0  0  0  0
   -3.1506   -0.4596   -0.3362 C   0  0  0  0  0  0  0  0  0  0  0  0
   -4.1776   -1.0115   -0.7072 O   0  0  0  0  0  0  0  0  0  0  0  0
   -1.8967   -0.9071   -0.6593 N   0  0  0  0  0  0  0  0  0  0  0  0
   -1.6782   -2.0705   -1.4944 C   0  0  0  0  0  0  0  0  0  0  0  0
   -0.1997   -2.4069   -1.3013 C   0  0  2  0  0  0  0  0  0  0  0  0
    0.0098   -3.3459   -0.1088 C   0  0  0  0  0  0  0  0  0  0  0  0
    1.4789   -3.3803    0.2830 C   0  0  0  0  0  0  0  0  0  0  0  0
    1.9740   -1.9816    0.6254 C   0  0  0  0  0  0  0  0  0  0  0  0
    1.7637   -1.0332   -0.4743 N   0  0  0  0  0  0  0  0  0  0  0  0
    2.4694    0.1785   -0.5520 C   0  0  0  0  0  0  0  0  0  0  0  0
    1.9674    1.1803   -1.0544 O   0  0  0  0  0  0  0  0  0  0  0  0
    3.7493    0.1140   -0.0494 N   0  0  0  0  0  0  0  0  0  0  0  0
    4.6336    1.1930    0.1653 C   0  0  0  0  0  0  0  0  0  0  0  0
    4.2391    2.5272    0.1569 C   0  0  0  0  0  0  0  0  0  0  0  0
    5.1966    3.4998    0.3987 C   0  0  0  0  0  0  0  0  0  0  0  0
    6.4953    3.2334    0.6527 N   0  0  0  0  0  0  0  0  0  0  0  0
    6.8516    1.9337    0.6640 C   0  0  0  0  0  0  0  0  0  0  0  0
    5.9691    0.8904    0.4328 C   0  0  0  0  0  0  0  0  0  0  0  0
    0.4295   -1.0183   -1.0847 C   0  0  2  0  0  0  0  0  0  0  0  0
   -0.6480   -0.2556   -0.2921 C   0  0  0  0  0  0  0  0  0  0  0  0
   -4.4955   -0.0543    2.5906 H   0  0  0  0  0  0  0  0  0  0  0  0
   -5.5651   -0.4555    1.2564 H   0  0  0  0  0  0  0  0  0  0  0  0
   -5.9500    0.9237    2.2868 H   0  0  0  0  0  0  0  0  0  0  0  0
   -3.1862    2.1626    2.5605 H   0  0  0  0  0  0  0  0  0  0  0  0
   -3.1911    3.1641    1.1191 H   0  0  0  0  0  0  0  0  0  0  0  0
   -4.6470    3.0819    2.1355 H   0  0  0  0  0  0  0  0  0  0  0  0
   -4.5085    2.4153   -0.9626 H   0  0  0  0  0  0  0  0  0  0  0  0
   -5.9584    2.4659    0.0668 H   0  0  0  0  0  0  0  0  0  0  0  0
   -5.5723    1.0208   -0.8686 H   0  0  0  0  0  0  0  0  0  0  0  0
   -2.3592   -2.8838   -1.2246 H   0  0  0  0  0  0  0  0  0  0  0  0
   -1.8811   -1.7731   -2.5298 H   0  0  0  0  0  0  0  0  0  0  0  0
    0.2140   -2.8860   -2.1969 H   0  0  0  0  0  0  0  0  0  0  0  0
   -0.5880   -3.0261    0.7540 H   0  0  0  0  0  0  0  0  0  0  0  0
   -0.3306   -4.3550   -0.3687 H   0  0  0  0  0  0  0  0  0  0  0  0
    1.6170   -4.0430    1.1445 H   0  0  0  0  0  0  0  0  0  0  0  0
    2.0712   -3.7919   -0.5434 H   0  0  0  0  0  0  0  0  0  0  0  0
    3.0286   -2.0424    0.9039 H   0  0  0  0  0  0  0  0  0  0  0  0
    1.4445   -1.5882    1.5017 H   0  0  0  0  0  0  0  0  0  0  0  0
    4.1682   -0.8023   -0.0769 H   0  0  0  0  0  0  0  0  0  0  0  0
    3.2165    2.8341   -0.0248 H   0  0  0  0  0  0  0  0  0  0  0  0
    4.9310    4.5533    0.3966 H   0  0  0  0  0  0  0  0  0  0  0  0
    7.9008    1.7442    0.8718 H   0  0  0  0  0  0  0  0  0  0  0  0
    6.3323   -0.1300    0.4613 H   0  0  0  0  0  0  0  0  0  0  0  0
    0.5198   -0.5396   -2.0710 H   0  0  0  0  0  0  0  0  0  0  0  0
   -0.6844    0.8075   -0.5508 H   0  0  0  0  0  0  0  0  0  0  0  0
   -0.5227   -0.3469    0.7920 H   0  0  0  0  0  0  0  0  0  0  0  0
  1  2  1  0
  2  3  1  0
  2  4  1  0
  2  5  1  0
  5  6  1  0
  6  7  2  0
  6  8  1  0
  8  9  1  0
  9 10  1  0
 10 11  1  0
 11 12  1  0
 12 13  1  0
 13 14  1  0
 14 15  1  0
 15 16  2  0
 15 17  1  0
 17 18  1  0
 18 19  2  0
 19 20  1  0
 20 21  2  0
 21 22  1  0
 22 23  2  0
 14 24  1  0
 24 25  1  0
 25  8  1  0
 24 10  1  0
 23 18  1  0
  1 26  1  0
  1 27  1  0
  1 28  1  0
  3 29  1  0
  3 30  1  0
  3 31  1  0
  4 32  1  0
  4 33  1  0
  4 34  1  0
  9 35  1  0
  9 36  1  0
 10 37  1  6
 11 38  1  0
 11 39  1  0
 12 40  1  0
 12 41  1  0
 13 42  1  0
 13 43  1  0
 17 44  1  0
 19 45  1  0
 20 46  1  0
 22 47  1  0
 23 48  1  0
 24 49  1  6
 25 50  1  0
 25 51  1  0
M  END
$$$$
OCNT-2310978
     RDKit          3D

 40 42  0  0  0  0  0  0  0  0999 V2000
    5.2763    1.3293   -0.2807 C   0  0  0  0  0  0  0  0  0  0  0  0
    4.5319    0.6485    0.8584 C   0  0  0  0  0  0  0  0  0  0  0  0
    3.2210    0.0511    0.3992 C   0  0  0  0  0  0  0  0  0  0  0  0
    2.0792    0.8758    0.3831 C   0  0  0  0  0  0  0  0  0  0  0  0
    0.8266    0.3992   -0.0238 C   0  0  0  0  0  0  0  0  0  0  0  0
   -0.2606    1.2966   -0.0339 N   0  0  0  0  0  0  0  0  0  0  0  0
   -1.6306    0.9981   -0.0565 C   0  0  0  0  0  0  0  0  0  0  0  0
   -2.4062    1.7379   -0.8886 N   0  0  0  0  0  0  0  0  0  0  0  0
   -3.7391    1.5089   -0.9398 C   0  0  0  0  0  0  0  0  0  0  0  0
   -4.5248    2.3329   -1.9144 C   0  0  0  0  0  0  0  0  0  0  0  0
   -4.4234    0.5893   -0.2332 N   0  0  0  0  0  0  0  0  0  0  0  0
   -3.6286   -0.1000    0.6017 C   0  0  0  0  0  0  0  0  0  0  0  0
   -2.2618    0.0449    0.7485 C   0  0  0  0  0  0  0  0  0  0  0  0
   -1.9185   -0.8783    1.7586 C   0  0  0  0  0  0  0  0  0  0  0  0
   -2.9689   -1.5781    2.2047 N   0  0  0  0  0  0  0  0  0  0  0  0
   -3.9991   -1.0806    1.4817 N   0  0  0  0  0  0  0  0  0  0  0  0
   -5.3284   -1.5925    1.6990 C   0  0  0  0  0  0  0  0  0  0  0  0
    0.7329   -0.9225   -0.4601 C   0  0  0  0  0  0  0  0  0  0  0  0
    1.8553   -1.7552   -0.4579 C   0  0  0  0  0  0  0  0  0  0  0  0
    3.1066   -1.2830   -0.0348 C   0  0  0  0  0  0  0  0  0  0  0  0
    4.2800   -2.2238   -0.0426 C   0  0  0  0  0  0  0  0  0  0  0  0
    5.5077    0.6243   -1.0858 H   0  0  0  0  0  0  0  0  0  0  0  0
    4.6851    2.1451   -0.7103 H   0  0  0  0  0  0  0  0  0  0  0  0
    6.2191    1.7505    0.0826 H   0  0  0  0  0  0  0  0  0  0  0  0
    5.1674   -0.1180    1.3151 H   0  0  0  0  0  0  0  0  0  0  0  0
    4.3393    1.3777    1.6555 H   0  0  0  0  0  0  0  0  0  0  0  0
    2.1654    1.9105    0.7116 H   0  0  0  0  0  0  0  0  0  0  0  0
   -0.1079    2.0404   -0.7117 H   0  0  0  0  0  0  0  0  0  0  0  0
   -4.0738    3.3228   -2.0334 H   0  0  0  0  0  0  0  0  0  0  0  0
   -5.5538    2.4657   -1.5663 H   0  0  0  0  0  0  0  0  0  0  0  0
   -4.5427    1.8334   -2.8874 H   0  0  0  0  0  0  0  0  0  0  0  0
   -0.9417   -1.0692    2.1851 H   0  0  0  0  0  0  0  0  0  0  0  0
   -6.0316   -1.1131    1.0144 H   0  0  0  0  0  0  0  0  0  0  0  0
   -5.6133   -1.3802    2.7326 H   0  0  0  0  0  0  0  0  0  0  0  0
   -5.3158   -2.6706    1.5199 H   0  0  0  0  0  0  0  0  0  0  0  0
   -0.2075   -1.3250   -0.8265 H   0  0  0  0  0  0  0  0  0  0  0  0
    1.7432   -2.7822   -0.8004 H   0  0  0  0  0  0  0  0  0  0  0  0
    5.1154   -1.7950   -0.6043 H   0  0  0  0  0  0  0  0  0  0  0  0
    4.0273   -3.1772   -0.5191 H   0  0  0  0  0  0  0  0  0  0  0  0
    4.5985   -2.4384    0.9823 H   0  0  0  0  0  0  0  0  0  0  0  0
  1  2  1  0
  2  3  1  0
  3  4  1  0
  4  5  2  0
  5  6  1  0
  6  7  1  0
  7  8  1  0
  8  9  2  0
  9 10  1  0
  9 11  1  0
 11 12  2  0
 12 13  1  0
 13 14  1  0
 14 15  2  0
 15 16  1  0
 16 17  1  0
  5 18  1  0
 18 19  2  0
 19 20  1  0
 20 21  1  0
 20  3  2  0
 13  7  2  0
 16 12  1  0
  1 22  1  0
  1 23  1  0
  1 24  1  0
  2 25  1  0
  2 26  1  0
  4 27  1  0
  6 28  1  0
 10 29  1  0
 10 30  1  0
 10 31  1  0
 14 32  1  0
 17 33  1  0
 17 34  1  0
 17 35  1  0
 18 36  1  0
 19 37  1  0
 21 38  1  0
 21 39  1  0
 21 40  1  0
M  END
$$$$
OCNT-2310979
     RDKit          3D

 42 45  0  0  0  0  0  0  0  0999 V2000
    4.1328    1.5699    1.0341 C   0  0  0  0  0  0  0  0  0  0  0  0
    3.6702    0.6054   -0.0297 C   0  0  0  0  0  0  0  0  0  0  0  0
    2.2827    0.5823   -0.3010 C   0  0  0  0  0  0  0  0  0  0  0  0
    1.7433   -0.2686   -1.2716 C   0  0  0  0  0  0  0  0  0  0  0  0
    0.2846   -0.3067   -1.5721 C   0  0  0  0  0  0  0  0  0  0  0  0
   -0.0740   -0.5385   -2.7212 O   0  0  0  0  0  0  0  0  0  0  0  0
   -0.5484   -0.1066   -0.4875 N   0  0  0  0  0  0  0  0  0  0  0  0
   -1.9281   -0.0881   -0.5735 C   0  0  0  0  0  0  0  0  0  0  0  0
   -2.7621    0.0651    0.5078 C   0  0  0  0  0  0  0  0  0  0  0  0
   -4.0588    0.0355    0.0317 N   0  0  0  0  0  0  0  0  0  0  0  0
   -5.2686    0.1536    0.7743 C   0  0  0  0  0  0  0  0  0  0  0  0
   -6.4983    0.1001    0.0990 C   0  0  0  0  0  0  0  0  0  0  0  0
   -7.6973    0.2137    0.8059 C   0  0  0  0  0  0  0  0  0  0  0  0
   -7.6790    0.3812    2.1886 C   0  0  0  0  0  0  0  0  0  0  0  0
   -6.4627    0.4353    2.8671 C   0  0  0  0  0  0  0  0  0  0  0  0
   -5.2577    0.3222    2.1662 C   0  0  0  0  0  0  0  0  0  0  0  0
   -4.0824   -0.1280   -1.3164 N   0  0  0  0  0  0  0  0  0  0  0  0
   -2.7980   -0.2027   -1.6718 C   0  0  0  0  0  0  0  0  0  0  0  0
    2.5947   -1.0892   -2.0082 C   0  0  0  0  0  0  0  0  0  0  0  0
    3.9700   -1.0849   -1.7567 C   0  0  0  0  0  0  0  0  0  0  0  0
    4.5287   -0.2501   -0.7667 C   0  0  0  0  0  0  0  0  0  0  0  0
    5.9439   -0.3008   -0.5530 N   0  0  0  0  0  0  0  0  0  0  0  0
    6.8878   -1.0553   -1.2195 C   0  0  0  0  0  0  0  0  0  0  0  0
    8.0894   -0.8434   -0.7333 N   0  0  0  0  0  0  0  0  0  0  0  0
    7.8522    0.0638    0.2477 C   0  0  0  0  0  0  0  0  0  0  0  0
    6.5793    0.4235    0.4000 N   0  0  0  0  0  0  0  0  0  0  0  0
    3.2965    2.1488    1.4428 H   0  0  0  0  0  0  0  0  0  0  0  0
    4.8365    2.2971    0.6177 H   0  0  0  0  0  0  0  0  0  0  0  0
    4.5776    1.0316    1.8766 H   0  0  0  0  0  0  0  0  0  0  0  0
    1.6298    1.2679    0.2360 H   0  0  0  0  0  0  0  0  0  0  0  0
   -0.1533   -0.0298    0.4396 H   0  0  0  0  0  0  0  0  0  0  0  0
   -2.5455    0.1896    1.5561 H   0  0  0  0  0  0  0  0  0  0  0  0
   -6.5384   -0.0302   -0.9814 H   0  0  0  0  0  0  0  0  0  0  0  0
   -8.6444    0.1710    0.2739 H   0  0  0  0  0  0  0  0  0  0  0  0
   -8.6134    0.4693    2.7371 H   0  0  0  0  0  0  0  0  0  0  0  0
   -6.4526    0.5658    3.9466 H   0  0  0  0  0  0  0  0  0  0  0  0
   -4.3369    0.3698    2.7377 H   0  0  0  0  0  0  0  0  0  0  0  0
   -2.5550   -0.3366   -2.7186 H   0  0  0  0  0  0  0  0  0  0  0  0
    2.1901   -1.7402   -2.7822 H   0  0  0  0  0  0  0  0  0  0  0  0
    4.5715   -1.7564   -2.3631 H   0  0  0  0  0  0  0  0  0  0  0  0
    6.6615   -1.7261   -2.0337 H   0  0  0  0  0  0  0  0  0  0  0  0
    8.6319    0.4779    0.8748 H   0  0  0  0  0  0  0  0  0  0  0  0
  1  2  1  0
  2  3  1  0
  3  4  2  0
  4  5  1  0
  5  6  2  0
  5  7  1  0
  7  8  1  0
  8  9  2  0
  9 10  1  0
 10 11  1  0
 11 12  2  0
 12 13  1  0
 13 14  2  0
 14 15  1  0
 15 16  2  0
 10 17  1  0
 17 18  2  0
  4 19  1  0
 19 20  2  0
 20 21  1  0
 21 22  1  0
 22 23  1  0
 23 24  2  0
 24 25  1  0
 25 26  2  0
 21  2  2  0
 26 22  1  0
 18  8  1  0
 16 11  1  0
  1 27  1  0
  1 28  1  0
  1 29  1  0
  3 30  1  0
  7 31  1  0
  9 32  1  0
 12 33  1  0
 13 34  1  0
 14 35  1  0
 15 36  1  0
 16 37  1  0
 18 38  1  0
 19 39  1  0
 20 40  1  0
 23 41  1  0
 25 42  1  0
M  END
$$$$
OCNT-2310981
     RDKit          3D

 41 44  0  0  0  0  0  0  0  0999 V2000
   -4.7620   -3.2379   -1.8612 F   0  0  0  0  0  0  0  0  0  0  0  0
   -4.3042   -2.1844   -1.1710 C   0  0  0  0  0  0  0  0  0  0  0  0
   -4.1900   -0.9521   -1.8032 C   0  0  0  0  0  0  0  0  0  0  0  0
   -3.7149    0.1507   -1.0875 C   0  0  0  0  0  0  0  0  0  0  0  0
   -3.3443    0.0244    0.2617 C   0  0  0  0  0  0  0  0  0  0  0  0
   -2.8307    1.2152    1.0388 C   0  0  0  0  0  0  0  0  0  0  0  0
   -1.3058    1.4624    1.0116 C   0  0  0  0  0  0  0  0  0  0  0  0
   -0.4995    0.3392    1.6812 C   0  0  0  0  0  0  0  0  0  0  0  0
    0.9927    0.4640    1.3765 C   0  0  0  0  0  0  0  0  0  0  0  0
    1.2477    0.4153   -0.0658 N   0  0  0  0  0  0  0  0  0  0  0  0
    2.5021    0.0750   -0.5805 C   0  0  0  0  0  0  0  0  0  0  0  0
    2.6006   -0.1934   -1.8733 N   0  0  0  0  0  0  0  0  0  0  0  0
    3.8198   -0.5432   -2.4231 C   0  0  0  0  0  0  0  0  0  0  0  0
    4.9623   -0.6307   -1.7250 C   0  0  0  0  0  0  0  0  0  0  0  0
    4.9032   -0.3497   -0.3797 N   0  0  0  0  0  0  0  0  0  0  0  0
    5.8347   -0.3253    0.6137 C   0  0  0  0  0  0  0  0  0  0  0  0
    5.2648    0.0274    1.7470 N   0  0  0  0  0  0  0  0  0  0  0  0
    3.9225    0.2409    1.4942 N   0  0  0  0  0  0  0  0  0  0  0  0
    3.7239   -0.0008    0.2157 C   0  0  0  0  0  0  0  0  0  0  0  0
    0.1180    0.6848   -0.9583 C   0  0  0  0  0  0  0  0  0  0  0  0
   -0.7523    1.8012   -0.3837 C   0  0  0  0  0  0  0  0  0  0  0  0
   -3.4794   -1.2263    0.8844 C   0  0  0  0  0  0  0  0  0  0  0  0
   -3.9537   -2.3203    0.1649 C   0  0  0  0  0  0  0  0  0  0  0  0
   -4.0708   -3.5068    0.7768 F   0  0  0  0  0  0  0  0  0  0  0  0
   -4.4750   -0.8560   -2.8462 H   0  0  0  0  0  0  0  0  0  0  0  0
   -3.6451    1.1127   -1.5915 H   0  0  0  0  0  0  0  0  0  0  0  0
   -3.1538    1.1133    2.0839 H   0  0  0  0  0  0  0  0  0  0  0  0
   -3.3436    2.1153    0.6731 H   0  0  0  0  0  0  0  0  0  0  0  0
   -1.1523    2.3648    1.6221 H   0  0  0  0  0  0  0  0  0  0  0  0
   -0.6614    0.3642    2.7653 H   0  0  0  0  0  0  0  0  0  0  0  0
   -0.8342   -0.6448    1.3364 H   0  0  0  0  0  0  0  0  0  0  0  0
    1.3835    1.4022    1.7867 H   0  0  0  0  0  0  0  0  0  0  0  0
    1.4969   -0.3684    1.8798 H   0  0  0  0  0  0  0  0  0  0  0  0
    3.8086   -0.7537   -3.4897 H   0  0  0  0  0  0  0  0  0  0  0  0
    5.9143   -0.9038   -2.1583 H   0  0  0  0  0  0  0  0  0  0  0  0
    6.8783   -0.5605    0.4675 H   0  0  0  0  0  0  0  0  0  0  0  0
   -0.4633   -0.2323   -1.1058 H   0  0  0  0  0  0  0  0  0  0  0  0
    0.4623    1.0130   -1.9458 H   0  0  0  0  0  0  0  0  0  0  0  0
   -0.1318    2.7041   -0.2950 H   0  0  0  0  0  0  0  0  0  0  0  0
   -1.5500    2.0637   -1.0850 H   0  0  0  0  0  0  0  0  0  0  0  0
   -3.2181   -1.3638    1.9301 H   0  0  0  0  0  0  0  0  0  0  0  0
  1  2  1  0
  2  3  1  0
  3  4  2  0
  4  5  1  0
  5  6  1  0
  6  7  1  0
  7  8  1  0
  8  9  1  0
  9 10  1  0
 10 11  1  0
 11 12  2  0
 12 13  1  0
 13 14  2  0
 14 15  1  0
 15 16  1  0
 16 17  2  0
 17 18  1  0
 18 19  2  0
 10 20  1  0
 20 21  1  0
  5 22  2  0
 22 23  1  0
 23 24  1  0
 23  2  2  0
 21  7  1  0
 19 11  1  0
 19 15  1  0
  3 25  1  0
  4 26  1  0
  6 27  1  0
  6 28  1  0
  7 29  1  0
  8 30  1  0
  8 31  1  0
  9 32  1  0
  9 33  1  0
 13 34  1  0
 14 35  1  0
 16 36  1  0
 20 37  1  0
 20 38  1  0
 21 39  1  0
 21 40  1  0
 22 41  1  0
M  END
$$$$
OCNT-2310988
     RDKit          3D

 42 45  0  0  0  0  0  0  0  0999 V2000
   -1.9344   -2.0241    2.9755 O   0  0  0  0  0  0  0  0  0  0  0  0
   -1.8235   -2.3898    1.8085 C   0  0  0  0  0  0  0  0  0  0  0  0
   -3.0141   -2.4855    0.8674 C   0  0  0  0  0  0  0  0  0  0  0  0
   -2.9482   -1.4354   -0.1961 C   0  0  0  0  0  0  0  0  0  0  0  0
   -2.8199   -1.6428   -1.5603 C   0  0  0  0  0  0  0  0  0  0  0  0
   -2.7670   -0.4185   -2.1782 N   0  0  0  0  0  0  0  0  0  0  0  0
   -2.8614    0.5768   -1.2471 C   0  0  0  0  0  0  0  0  0  0  0  0
   -2.8312    1.8903   -1.5346 N   0  0  0  0  0  0  0  0  0  0  0  0
   -2.9499    2.6705   -0.4365 C   0  0  0  0  0  0  0  0  0  0  0  0
   -3.0824    2.2161    0.8691 C   0  0  0  0  0  0  0  0  0  0  0  0
   -3.1016    0.8408    1.1094 C   0  0  0  0  0  0  0  0  0  0  0  0
   -2.9875   -0.0174    0.0029 C   0  0  0  0  0  0  0  0  0  0  0  0
   -0.6221   -2.7455    1.2319 N   0  0  0  0  0  0  0  0  0  0  0  0
    0.6402   -2.4944    1.8897 C   0  0  0  0  0  0  0  0  0  0  0  0
    1.3828   -1.3812    1.1940 C   0  0  0  0  0  0  0  0  0  0  0  0
    0.8490   -0.0880    1.1450 C   0  0  0  0  0  0  0  0  0  0  0  0
    1.5166    0.9443    0.4735 C   0  0  0  0  0  0  0  0  0  0  0  0
    2.7504    0.7090   -0.1533 C   0  0  0  0  0  0  0  0  0  0  0  0
    3.4288    1.7670   -0.8265 N   0  0  0  0  0  0  0  0  0  0  0  0
    4.6706    1.7419   -1.4268 C   0  0  0  0  0  0  0  0  0  0  0  0
    4.8923    3.0052   -1.9235 C   0  0  0  0  0  0  0  0  0  0  0  0
    3.8324    3.8196   -1.6611 N   0  0  0  0  0  0  0  0  0  0  0  0
    2.9730    3.0590   -1.0176 C   0  0  0  0  0  0  0  0  0  0  0  0
    3.2834   -0.5841   -0.0895 C   0  0  0  0  0  0  0  0  0  0  0  0
    4.4481   -0.9075   -0.6675 F   0  0  0  0  0  0  0  0  0  0  0  0
    2.6111   -1.6157    0.5716 C   0  0  0  0  0  0  0  0  0  0  0  0
   -3.0343   -3.4904    0.4296 H   0  0  0  0  0  0  0  0  0  0  0  0
   -3.9336   -2.3699    1.4523 H   0  0  0  0  0  0  0  0  0  0  0  0
   -2.7566   -2.5520   -2.1471 H   0  0  0  0  0  0  0  0  0  0  0  0
   -2.6788   -0.2446   -3.1688 H   0  0  0  0  0  0  0  0  0  0  0  0
   -2.9383    3.7385   -0.6415 H   0  0  0  0  0  0  0  0  0  0  0  0
   -3.1725    2.9201    1.6891 H   0  0  0  0  0  0  0  0  0  0  0  0
   -3.2008    0.4530    2.1188 H   0  0  0  0  0  0  0  0  0  0  0  0
   -0.6007   -2.8680    0.2270 H   0  0  0  0  0  0  0  0  0  0  0  0
    0.5009   -2.2438    2.9458 H   0  0  0  0  0  0  0  0  0  0  0  0
    1.2098   -3.4276    1.8395 H   0  0  0  0  0  0  0  0  0  0  0  0
   -0.1035    0.1257    1.6289 H   0  0  0  0  0  0  0  0  0  0  0  0
    1.0343    1.9170    0.4725 H   0  0  0  0  0  0  0  0  0  0  0  0
    5.3028    0.8689   -1.4544 H   0  0  0  0  0  0  0  0  0  0  0  0
    5.7647    3.3630   -2.4558 H   0  0  0  0  0  0  0  0  0  0  0  0
    2.0062    3.4024   -0.6820 H   0  0  0  0  0  0  0  0  0  0  0  0
    3.0649   -2.6032    0.5844 H   0  0  0  0  0  0  0  0  0  0  0  0
  1  2  2  0
  2  3  1  0
  3  4  1  0
  4  5  2  0
  5  6  1  0
  6  7  1  0
  7  8  1  0
  8  9  2  0
  9 10  1  0
 10 11  2  0
 11 12  1  0
  2 13  1  0
 13 14  1  0
 14 15  1  0
 15 16  1  0
 16 17  2  0
 17 18  1  0
 18 19  1  0
 19 20  1  0
 20 21  2  0
 21 22  1  0
 22 23  2  0
 18 24  2  0
 24 25  1  0
 24 26  1  0
 12  4  1  0
 26 15  2  0
 12  7  2  0
 23 19  1  0
  3 27  1  0
  3 28  1  0
  5 29  1  0
  6 30  1  0
  9 31  1  0
 10 32  1  0
 11 33  1  0
 13 34  1  0
 14 35  1  0
 14 36  1  0
 16 37  1  0
 17 38  1  0
 20 39  1  0
 21 40  1  0
 23 41  1  0
 26 42  1  0
M  END
$$$$
OCNT-2310997
     RDKit          3D

 60 63  0  0  0  0  0  0  0  0999 V2000
   -9.1274   -0.2133    0.9094 C   0  0  0  0  0  0  0  0  0  0  0  0
   -7.8738    0.5052    0.7004 N   0  0  0  0  0  0  0  0  0  0  0  0
   -7.0949   -0.0625   -0.4286 C   0  0  0  0  0  0  0  0  0  0  0  0
   -5.9141   -0.9610   -0.0017 C   0  0  0  0  0  0  0  0  0  0  0  0
   -4.9516   -0.2267    0.8487 N   0  0  0  0  0  0  0  0  0  0  0  0
   -3.8208    0.2651    0.1673 C   0  0  0  0  0  0  0  0  0  0  0  0
   -2.7406    0.7612    0.9008 C   0  0  0  0  0  0  0  0  0  0  0  0
   -1.6134    1.2525    0.2427 C   0  0  0  0  0  0  0  0  0  0  0  0
   -1.5710    1.2441   -1.1486 C   0  0  0  0  0  0  0  0  0  0  0  0
   -0.3733    1.7407   -1.9035 C   0  0  0  0  0  0  0  0  0  0  0  0
    0.7085    0.7815   -1.8656 N   0  0  0  0  0  0  0  0  0  0  0  0
    1.7229    0.8899   -0.9533 C   0  0  0  0  0  0  0  0  0  0  0  0
    1.8212    1.8419   -0.1838 O   0  0  0  0  0  0  0  0  0  0  0  0
    2.6376   -0.1336   -0.9807 N   0  0  0  0  0  0  0  0  0  0  0  0
    2.6765   -1.2831   -1.8700 C   0  0  0  0  0  0  0  0  0  0  0  0
    3.7820   -2.1629   -1.3056 C   0  0  0  0  0  0  0  0  0  0  0  0
    4.7561   -1.1469   -0.7021 C   0  0  0  0  0  0  0  0  0  0  0  0
    5.6989   -1.7763    0.3232 C   0  0  0  0  0  0  0  0  0  0  0  0
    6.7260   -0.8012    0.8428 C   0  0  0  0  0  0  0  0  0  0  0  0
    7.8586   -0.4900    0.0782 C   0  0  0  0  0  0  0  0  0  0  0  0
    8.8018    0.4240    0.5499 C   0  0  0  0  0  0  0  0  0  0  0  0
    8.6209    1.0372    1.7879 C   0  0  0  0  0  0  0  0  0  0  0  0
    7.4971    0.7370    2.5551 C   0  0  0  0  0  0  0  0  0  0  0  0
    6.5532   -0.1777    2.0856 C   0  0  0  0  0  0  0  0  0  0  0  0
    3.8090   -0.0962   -0.1179 C   0  0  0  0  0  0  0  0  0  0  0  0
   -2.6770    0.7241   -1.8037 C   0  0  0  0  0  0  0  0  0  0  0  0
   -3.7780    0.2390   -1.1827 N   0  0  0  0  0  0  0  0  0  0  0  0
   -5.5732    0.8142    1.7050 C   0  0  0  0  0  0  0  0  0  0  0  0
   -7.0728    0.5251    1.9460 C   0  0  0  0  0  0  0  0  0  0  0  0
   -9.7621   -0.1441    0.0191 H   0  0  0  0  0  0  0  0  0  0  0  0
   -9.6941    0.2337    1.7339 H   0  0  0  0  0  0  0  0  0  0  0  0
   -8.9648   -1.2732    1.1356 H   0  0  0  0  0  0  0  0  0  0  0  0
   -6.7016    0.7840   -1.0060 H   0  0  0  0  0  0  0  0  0  0  0  0
   -7.7455   -0.6158   -1.1172 H   0  0  0  0  0  0  0  0  0  0  0  0
   -6.3037   -1.8015    0.5880 H   0  0  0  0  0  0  0  0  0  0  0  0
   -5.4477   -1.4270   -0.8780 H   0  0  0  0  0  0  0  0  0  0  0  0
   -2.7604    0.7483    1.9852 H   0  0  0  0  0  0  0  0  0  0  0  0
   -0.7714    1.6298    0.8197 H   0  0  0  0  0  0  0  0  0  0  0  0
   -0.0521    2.7105   -1.5074 H   0  0  0  0  0  0  0  0  0  0  0  0
   -0.6245    1.8920   -2.9592 H   0  0  0  0  0  0  0  0  0  0  0  0
    0.4941   -0.1441   -2.1943 H   0  0  0  0  0  0  0  0  0  0  0  0
    2.9187   -0.9250   -2.8764 H   0  0  0  0  0  0  0  0  0  0  0  0
    1.7133   -1.8000   -1.8925 H   0  0  0  0  0  0  0  0  0  0  0  0
    3.3751   -2.8167   -0.5240 H   0  0  0  0  0  0  0  0  0  0  0  0
    4.2436   -2.7936   -2.0710 H   0  0  0  0  0  0  0  0  0  0  0  0
    5.3305   -0.6915   -1.5210 H   0  0  0  0  0  0  0  0  0  0  0  0
    5.1295   -2.1982    1.1617 H   0  0  0  0  0  0  0  0  0  0  0  0
    6.2252   -2.6261   -0.1315 H   0  0  0  0  0  0  0  0  0  0  0  0
    8.0124   -0.9583   -0.8912 H   0  0  0  0  0  0  0  0  0  0  0  0
    9.6771    0.6591   -0.0496 H   0  0  0  0  0  0  0  0  0  0  0  0
    9.3542    1.7506    2.1543 H   0  0  0  0  0  0  0  0  0  0  0  0
    7.3539    1.2175    3.5194 H   0  0  0  0  0  0  0  0  0  0  0  0
    5.6805   -0.3965    2.6969 H   0  0  0  0  0  0  0  0  0  0  0  0
    3.4780   -0.3498    0.8959 H   0  0  0  0  0  0  0  0  0  0  0  0
    4.2510    0.9056   -0.1057 H   0  0  0  0  0  0  0  0  0  0  0  0
   -2.7194    0.6736   -2.8884 H   0  0  0  0  0  0  0  0  0  0  0  0
   -5.0612    0.8385    2.6742 H   0  0  0  0  0  0  0  0  0  0  0  0
   -5.4821    1.8104    1.2495 H   0  0  0  0  0  0  0  0  0  0  0  0
   -7.4814    1.2929    2.6132 H   0  0  0  0  0  0  0  0  0  0  0  0
   -7.1533   -0.4362    2.4722 H   0  0  0  0  0  0  0  0  0  0  0  0
  1  2  1  0
  2  3  1  0
  3  4  1  0
  4  5  1  0
  5  6  1  0
  6  7  2  0
  7  8  1  0
  8  9  2  0
  9 10  1  0
 10 11  1  0
 11 12  1  0
 12 13  2  0
 12 14  1  0
 14 15  1  0
 15 16  1  0
 16 17  1  0
 17 18  1  0
 18 19  1  0
 19 20  2  0
 20 21  1  0
 21 22  2  0
 22 23  1  0
 23 24  2  0
 17 25  1  0
  9 26  1  0
 26 27  2  0
  5 28  1  0
 28 29  1  0
 29  2  1  0
 27  6  1  0
 25 14  1  0
 24 19  1  0
  1 30  1  0
  1 31  1  0
  1 32  1  0
  3 33  1  0
  3 34  1  0
  4 35  1  0
  4 36  1  0
  7 37  1  0
  8 38  1  0
 10 39  1  0
 10 40  1  0
 11 41  1  0
 15 42  1  0
 15 43  1  0
 16 44  1  0
 16 45  1  0
 17 46  1  0
 18 47  1  0
 18 48  1  0
 20 49  1  0
 21 50  1  0
 22 51  1  0
 23 52  1  0
 24 53  1  0
 25 54  1  0
 25 55  1  0
 26 56  1  0
 28 57  1  0
 28 58  1  0
 29 59  1  0
 29 60  1  0
M  END
$$$$
OCNT-2311020
     RDKit          3D

 50 52  0  0  0  0  0  0  0  0999 V2000
   -8.8502   -0.1257   -1.0198 C   0  0  0  0  0  0  0  0  0  0  0  0
   -8.4096   -0.5326    0.3751 C   0  0  0  0  0  0  0  0  0  0  0  0
   -6.9721   -0.6958    0.4575 N   0  0  0  0  0  0  0  0  0  0  0  0
   -6.1376    0.3873    0.6510 C   0  0  0  0  0  0  0  0  0  0  0  0
   -6.5457    1.5331    0.8028 O   0  0  0  0  0  0  0  0  0  0  0  0
   -4.6798    0.1194    0.6359 C   0  0  0  0  0  0  0  0  0  0  0  0
   -4.1161   -1.1268    0.8897 C   0  0  0  0  0  0  0  0  0  0  0  0
   -2.7257   -1.2665    0.8507 C   0  0  0  0  0  0  0  0  0  0  0  0
   -1.9118   -0.1669    0.5620 C   0  0  0  0  0  0  0  0  0  0  0  0
   -0.5159   -0.3156    0.5339 N   0  0  0  0  0  0  0  0  0  0  0  0
    0.2229    0.9472    0.4839 C   0  0  0  0  0  0  0  0  0  0  0  0
    1.6904    0.7020    0.8367 C   0  0  0  0  0  0  0  0  0  0  0  0
    2.2676   -0.5567    0.1721 C   0  0  0  0  0  0  0  0  0  0  0  0
    3.5973   -0.3035   -0.3762 N   0  0  0  0  0  0  0  0  0  0  0  0
    4.7182   -0.2567    0.4398 C   0  0  0  0  0  0  0  0  0  0  0  0
    4.6432   -0.5350    1.6346 O   0  0  0  0  0  0  0  0  0  0  0  0
    5.9452    0.1583   -0.2319 C   0  0  0  0  0  0  0  0  0  0  0  0
    6.2431    0.2423   -1.5814 C   0  0  0  0  0  0  0  0  0  0  0  0
    7.5713    0.7035   -1.8236 C   0  0  0  0  0  0  0  0  0  0  0  0
    8.2572    0.9525   -0.6551 C   0  0  0  0  0  0  0  0  0  0  0  0
    9.6552    1.4388   -0.4832 C   0  0  0  0  0  0  0  0  0  0  0  0
    7.2967    0.6231    0.7194 S   0  0  0  0  0  0  0  0  0  0  0  0
    1.3440   -1.1042   -0.9117 C   0  0  0  0  0  0  0  0  0  0  0  0
   -0.0436   -1.3947   -0.3432 C   0  0  0  0  0  0  0  0  0  0  0  0
   -2.4588    1.0473    0.3382 N   0  0  0  0  0  0  0  0  0  0  0  0
   -3.8113    1.1696    0.3841 C   0  0  0  0  0  0  0  0  0  0  0  0
   -8.4145    0.8363   -1.3086 H   0  0  0  0  0  0  0  0  0  0  0  0
   -9.9397   -0.0350   -1.0642 H   0  0  0  0  0  0  0  0  0  0  0  0
   -8.5364   -0.8688   -1.7605 H   0  0  0  0  0  0  0  0  0  0  0  0
   -8.7308    0.2180    1.1050 H   0  0  0  0  0  0  0  0  0  0  0  0
   -8.8601   -1.4920    0.6479 H   0  0  0  0  0  0  0  0  0  0  0  0
   -6.5866   -1.5749    0.1436 H   0  0  0  0  0  0  0  0  0  0  0  0
   -4.7225   -1.9864    1.1533 H   0  0  0  0  0  0  0  0  0  0  0  0
   -2.2808   -2.2295    1.0803 H   0  0  0  0  0  0  0  0  0  0  0  0
    0.1457    1.3991   -0.5139 H   0  0  0  0  0  0  0  0  0  0  0  0
   -0.1715    1.6726    1.2074 H   0  0  0  0  0  0  0  0  0  0  0  0
    1.7856    0.5912    1.9251 H   0  0  0  0  0  0  0  0  0  0  0  0
    2.2682    1.5971    0.5745 H   0  0  0  0  0  0  0  0  0  0  0  0
    2.3791   -1.3294    0.9447 H   0  0  0  0  0  0  0  0  0  0  0  0
    3.6541    0.1606   -1.2710 H   0  0  0  0  0  0  0  0  0  0  0  0
    5.5555   -0.0261   -2.3731 H   0  0  0  0  0  0  0  0  0  0  0  0
    8.0015    0.8381   -2.8092 H   0  0  0  0  0  0  0  0  0  0  0  0
   10.2526    0.7147    0.0804 H   0  0  0  0  0  0  0  0  0  0  0  0
   10.1392    1.5880   -1.4542 H   0  0  0  0  0  0  0  0  0  0  0  0
    9.6707    2.3956    0.0490 H   0  0  0  0  0  0  0  0  0  0  0  0
    1.7614   -2.0196   -1.3488 H   0  0  0  0  0  0  0  0  0  0  0  0
    1.2654   -0.3828   -1.7361 H   0  0  0  0  0  0  0  0  0  0  0  0
   -0.0028   -2.3246    0.2373 H   0  0  0  0  0  0  0  0  0  0  0  0
   -0.7260   -1.5616   -1.1873 H   0  0  0  0  0  0  0  0  0  0  0  0
   -4.1813    2.1757    0.2005 H   0  0  0  0  0  0  0  0  0  0  0  0
  1  2  1  0
  2  3  1  0
  3  4  1  0
  4  5  2  0
  4  6  1  0
  6  7  2  0
  7  8  1  0
  8  9  2  0
  9 10  1  0
 10 11  1  0
 11 12  1  0
 12 13  1  0
 13 14  1  0
 14 15  1  0
 15 16  2  0
 15 17  1  0
 17 18  2  0
 18 19  1  0
 19 20  2  0
 20 21  1  0
 20 22  1  0
 13 23  1  0
 23 24  1  0
  9 25  1  0
 25 26  2  0
 26  6  1  0
 24 10  1  0
 22 17  1  0
  1 27  1  0
  1 28  1  0
  1 29  1  0
  2 30  1  0
  2 31  1  0
  3 32  1  0
  7 33  1  0
  8 34  1  0
 11 35  1  0
 11 36  1  0
 12 37  1  0
 12 38  1  0
 13 39  1  0
 14 40  1  0
 18 41  1  0
 19 42  1  0
 21 43  1  0
 21 44  1  0
 21 45  1  0
 23 46  1  0
 23 47  1  0
 24 48  1  0
 24 49  1  0
 26 50  1  0
M  END
$$$$
OCNT-2311052
     RDKit          3D

 50 52  0  0  0  0  0  0  0  0999 V2000
   -5.5578   -2.6342    0.4787 C   0  0  0  0  0  0  0  0  0  0  0  0
   -4.4762   -2.1471   -0.3031 O   0  0  0  0  0  0  0  0  0  0  0  0
   -4.5994   -0.7478   -0.5650 C   0  0  0  0  0  0  0  0  0  0  0  0
   -3.4140   -0.2623   -1.4394 C   0  0  0  0  0  0  0  0  0  0  0  0
   -3.4570   -1.0066   -2.7891 C   0  0  0  0  0  0  0  0  0  0  0  0
   -2.0565   -0.5503   -0.7565 C   0  0  0  0  0  0  0  0  0  0  0  0
   -1.8140    0.3474    0.4602 C   0  0  0  0  0  0  0  0  0  0  0  0
   -1.9237    1.7816    0.1661 N   0  0  0  0  0  0  0  0  0  0  0  0
   -0.7966    2.3336   -0.6117 C   0  0  0  0  0  0  0  0  0  0  0  0
    0.5185    2.2880    0.1868 C   0  0  0  0  0  0  0  0  0  0  0  0
    0.7472    3.0974    1.0813 O   0  0  0  0  0  0  0  0  0  0  0  0
    1.3437    1.2668   -0.2343 N   0  0  0  0  0  0  0  0  0  0  0  0
    2.5488    0.8944    0.2977 C   0  0  0  0  0  0  0  0  0  0  0  0
    3.2176   -0.1175   -0.2133 N   0  0  0  0  0  0  0  0  0  0  0  0
    4.3753   -0.3061    0.5119 C   0  0  0  0  0  0  0  0  0  0  0  0
    4.5579    0.5669    1.5641 C   0  0  0  0  0  0  0  0  0  0  0  0
    5.7242    0.5695    2.4905 C   0  0  0  0  0  0  0  0  0  0  0  0
    6.4751   -0.7705    2.3891 C   0  0  0  0  0  0  0  0  0  0  0  0
    6.6667   -1.2227    0.9292 C   0  0  0  0  0  0  0  0  0  0  0  0
    5.3243   -1.4129    0.1988 C   0  0  0  0  0  0  0  0  0  0  0  0
    3.2611    1.6642    1.6451 S   0  0  0  0  0  0  0  0  0  0  0  0
   -3.2162    2.0990   -0.4525 C   0  0  0  0  0  0  0  0  0  0  0  0
   -3.5324    1.2580   -1.6955 C   0  0  0  0  0  0  0  0  0  0  0  0
   -5.3985   -3.7017    0.6639 H   0  0  0  0  0  0  0  0  0  0  0  0
   -5.6020   -2.1126    1.4405 H   0  0  0  0  0  0  0  0  0  0  0  0
   -6.5023   -2.5098   -0.0581 H   0  0  0  0  0  0  0  0  0  0  0  0
   -4.6376   -0.2160    0.3913 H   0  0  0  0  0  0  0  0  0  0  0  0
   -5.5474   -0.5653   -1.0870 H   0  0  0  0  0  0  0  0  0  0  0  0
   -4.4141   -0.8476   -3.2975 H   0  0  0  0  0  0  0  0  0  0  0  0
   -2.6659   -0.6567   -3.4604 H   0  0  0  0  0  0  0  0  0  0  0  0
   -3.3211   -2.0848   -2.6581 H   0  0  0  0  0  0  0  0  0  0  0  0
   -1.9954   -1.5998   -0.4434 H   0  0  0  0  0  0  0  0  0  0  0  0
   -1.2411   -0.4080   -1.4777 H   0  0  0  0  0  0  0  0  0  0  0  0
   -0.8410    0.1097    0.9035 H   0  0  0  0  0  0  0  0  0  0  0  0
   -2.5374    0.0995    1.2461 H   0  0  0  0  0  0  0  0  0  0  0  0
   -0.6742    1.8367   -1.5802 H   0  0  0  0  0  0  0  0  0  0  0  0
   -0.9710    3.3955   -0.8291 H   0  0  0  0  0  0  0  0  0  0  0  0
    1.0565    0.6703   -0.9963 H   0  0  0  0  0  0  0  0  0  0  0  0
    5.4081    0.7345    3.5260 H   0  0  0  0  0  0  0  0  0  0  0  0
    6.4009    1.3864    2.2121 H   0  0  0  0  0  0  0  0  0  0  0  0
    5.9140   -1.5462    2.9271 H   0  0  0  0  0  0  0  0  0  0  0  0
    7.4482   -0.6858    2.8835 H   0  0  0  0  0  0  0  0  0  0  0  0
    7.2675   -0.4727    0.4006 H   0  0  0  0  0  0  0  0  0  0  0  0
    7.2299   -2.1604    0.9030 H   0  0  0  0  0  0  0  0  0  0  0  0
    4.8698   -2.3590    0.5149 H   0  0  0  0  0  0  0  0  0  0  0  0
    5.4956   -1.4744   -0.8816 H   0  0  0  0  0  0  0  0  0  0  0  0
   -4.0042    1.9593    0.2969 H   0  0  0  0  0  0  0  0  0  0  0  0
   -3.2622    3.1642   -0.7124 H   0  0  0  0  0  0  0  0  0  0  0  0
   -2.8494    1.5517   -2.5036 H   0  0  0  0  0  0  0  0  0  0  0  0
   -4.5420    1.5042   -2.0482 H   0  0  0  0  0  0  0  0  0  0  0  0
  1  2  1  0
  2  3  1  0
  3  4  1  0
  4  5  1  0
  4  6  1  0
  6  7  1  0
  7  8  1  0
  8  9  1  0
  9 10  1  0
 10 11  2  0
 10 12  1  0
 12 13  1  0
 13 14  2  0
 14 15  1  0
 15 16  2  0
 16 17  1  0
 17 18  1  0
 18 19  1  0
 19 20  1  0
 16 21  1  0
  8 22  1  0
 22 23  1  0
 23  4  1  0
 21 13  1  0
 20 15  1  0
  1 24  1  0
  1 25  1  0
  1 26  1  0
  3 27  1  0
  3 28  1  0
  5 29  1  0
  5 30  1  0
  5 31  1  0
  6 32  1  0
  6 33  1  0
  7 34  1  0
  7 35  1  0
  9 36  1  0
  9 37  1  0
 12 38  1  0
 17 39  1  0
 17 40  1  0
 18 41  1  0
 18 42  1  0
 19 43  1  0
 19 44  1  0
 20 45  1  0
 20 46  1  0
 22 47  1  0
 22 48  1  0
 23 49  1  0
 23 50  1  0
M  END
$$$$
OCNT-2311059
     RDKit          3D

 49 53  0  0  0  0  0  0  0  0999 V2000
    2.2437    1.2655    1.8139 O   0  0  0  0  0  0  0  0  0  0  0  0
    1.5250    0.6871    1.0134 C   0  0  0  0  0  0  0  0  0  0  0  0
    0.1497    0.7536    1.1227 N   0  0  0  0  0  0  0  0  0  0  0  0
   -0.5160   -0.1980    0.2788 C   0  0  0  0  0  0  0  0  0  0  0  0
   -1.3116   -1.2395    1.0655 C   0  0  0  0  0  0  0  0  0  0  0  0
   -2.8111   -0.9160    1.2890 C   0  0  0  0  0  0  0  0  0  0  0  0
   -3.0332    0.2609    2.2594 C   0  0  0  0  0  0  0  0  0  0  0  0
   -3.2186    1.6006    1.5589 C   0  0  0  0  0  0  0  0  0  0  0  0
   -4.3961    1.5421    0.5967 C   0  0  0  0  0  0  0  0  0  0  0  0
   -4.3141    0.3663   -0.3416 C   0  0  0  0  0  0  0  0  0  0  0  0
   -5.0300    0.4216   -1.5489 C   0  0  0  0  0  0  0  0  0  0  0  0
   -5.0281   -0.6577   -2.4296 C   0  0  0  0  0  0  0  0  0  0  0  0
   -4.3249   -1.8116   -2.1059 C   0  0  0  0  0  0  0  0  0  0  0  0
   -3.6215   -1.8842   -0.9034 C   0  0  0  0  0  0  0  0  0  0  0  0
   -3.5973   -0.7989   -0.0088 C   0  0  0  0  0  0  0  0  0  0  0  0
    0.6940   -0.8392   -0.4138 C   0  0  0  0  0  0  0  0  0  0  0  0
    0.5971   -1.7587   -1.2201 O   0  0  0  0  0  0  0  0  0  0  0  0
    1.8366   -0.2027    0.0123 N   0  0  0  0  0  0  0  0  0  0  0  0
    3.1583   -0.5193   -0.4025 C   0  0  0  0  0  0  0  0  0  0  0  0
    3.4951   -1.8617   -0.6614 C   0  0  0  0  0  0  0  0  0  0  0  0
    4.7917   -2.2172   -1.0176 C   0  0  0  0  0  0  0  0  0  0  0  0
    5.7634   -1.2327   -1.1353 C   0  0  0  0  0  0  0  0  0  0  0  0
    5.4367    0.1155   -0.9270 C   0  0  0  0  0  0  0  0  0  0  0  0
    6.4100    1.1111   -1.0906 C   0  0  0  0  0  0  0  0  0  0  0  0
    6.0727    2.4466   -0.9284 C   0  0  0  0  0  0  0  0  0  0  0  0
    4.7625    2.7428   -0.6226 C   0  0  0  0  0  0  0  0  0  0  0  0
    3.8002    1.8093   -0.4651 N   0  0  0  0  0  0  0  0  0  0  0  0
    4.1209    0.4986   -0.5709 C   0  0  0  0  0  0  0  0  0  0  0  0
   -0.2684    1.3247    1.8447 H   0  0  0  0  0  0  0  0  0  0  0  0
   -1.1003    0.3400   -0.4723 H   0  0  0  0  0  0  0  0  0  0  0  0
   -1.2451   -2.2079    0.5536 H   0  0  0  0  0  0  0  0  0  0  0  0
   -0.8398   -1.4068    2.0439 H   0  0  0  0  0  0  0  0  0  0  0  0
   -3.2221   -1.7958    1.8074 H   0  0  0  0  0  0  0  0  0  0  0  0
   -2.2193    0.3229    2.9908 H   0  0  0  0  0  0  0  0  0  0  0  0
   -3.9430    0.0596    2.8423 H   0  0  0  0  0  0  0  0  0  0  0  0
   -3.3940    2.3859    2.3033 H   0  0  0  0  0  0  0  0  0  0  0  0
   -2.3139    1.8829    1.0133 H   0  0  0  0  0  0  0  0  0  0  0  0
   -5.3338    1.4675    1.1613 H   0  0  0  0  0  0  0  0  0  0  0  0
   -4.4280    2.4780    0.0259 H   0  0  0  0  0  0  0  0  0  0  0  0
   -5.5988    1.3124   -1.8075 H   0  0  0  0  0  0  0  0  0  0  0  0
   -5.5818   -0.6004   -3.3628 H   0  0  0  0  0  0  0  0  0  0  0  0
   -4.3258   -2.6592   -2.7862 H   0  0  0  0  0  0  0  0  0  0  0  0
   -3.0926   -2.8060   -0.6703 H   0  0  0  0  0  0  0  0  0  0  0  0
    2.7588   -2.6546   -0.5515 H   0  0  0  0  0  0  0  0  0  0  0  0
    5.0421   -3.2599   -1.1958 H   0  0  0  0  0  0  0  0  0  0  0  0
    6.7756   -1.5211   -1.4113 H   0  0  0  0  0  0  0  0  0  0  0  0
    7.4329    0.8513   -1.3517 H   0  0  0  0  0  0  0  0  0  0  0  0
    6.8088    3.2330   -1.0464 H   0  0  0  0  0  0  0  0  0  0  0  0
    4.4334    3.7692   -0.4897 H   0  0  0  0  0  0  0  0  0  0  0  0
  1  2  2  0
  2  3  1  0
  3  4  1  0
  4  5  1  0
  5  6  1  0
  6  7  1  0
  7  8  1  0
  8  9  1  0
  9 10  1  0
 10 11  2  0
 11 12  1  0
 12 13  2  0
 13 14  1  0
 14 15  2  0
  4 16  1  0
 16 17  2  0
 16 18  1  0
 18 19  1  0
 19 20  1  0
 20 21  2  0
 21 22  1  0
 22 23  2  0
 23 24  1  0
 24 25  2  0
 25 26  1  0
 26 27  2  0
 27 28  1  0
 18  2  1  0
 28 19  2  0
 15  6  1  0
 28 23  1  0
 15 10  1  0
  3 29  1  0
  4 30  1  0
  5 31  1  0
  5 32  1  0
  6 33  1  0
  7 34  1  0
  7 35  1  0
  8 36  1  0
  8 37  1  0
  9 38  1  0
  9 39  1  0
 11 40  1  0
 12 41  1  0
 13 42  1  0
 14 43  1  0
 20 44  1  0
 21 45  1  0
 22 46  1  0
 24 47  1  0
 25 48  1  0
 26 49  1  0
M  END
$$$$
OCNT-2311083
     RDKit          3D

 50 52  0  0  0  0  0  0  0  0999 V2000
   -2.2370   -0.5953   -0.9131 O   0  0  0  0  0  0  0  0  0  0  0  0
   -2.3757   -0.0533    0.1731 C   0  0  0  0  0  0  0  0  0  0  0  0
   -1.3487    0.2428    1.0364 N   0  0  0  0  0  0  0  0  0  0  0  0
   -0.0047   -0.2187    0.7318 C   0  0  0  0  0  0  0  0  0  0  0  0
    1.0554    0.5695    1.5031 C   0  0  0  0  0  0  0  0  0  0  0  0
    2.3954    0.0856    1.2604 N   0  0  0  0  0  0  0  0  0  0  0  0
    2.8984   -1.0388    1.8806 C   0  0  0  0  0  0  0  0  0  0  0  0
    2.2947   -1.6693    2.7407 O   0  0  0  0  0  0  0  0  0  0  0  0
    4.2594   -1.4493    1.4060 C   0  0  0  0  0  0  0  0  0  0  0  0
    4.8762   -2.5610    1.9589 C   0  0  0  0  0  0  0  0  0  0  0  0
    6.1339   -2.9066    1.4845 C   0  0  0  0  0  0  0  0  0  0  0  0
    6.7235   -2.1360    0.4819 C   0  0  0  0  0  0  0  0  0  0  0  0
    6.0381   -1.0321   -0.0263 C   0  0  0  0  0  0  0  0  0  0  0  0
    6.5607   -0.1446   -1.0829 C   0  0  0  0  0  0  0  0  0  0  0  0
    6.0072    1.0372   -1.5552 C   0  0  0  0  0  0  0  0  0  0  0  0
    6.7733    1.6454   -2.5912 C   0  0  0  0  0  0  0  0  0  0  0  0
    7.8970    0.9127   -2.8911 C   0  0  0  0  0  0  0  0  0  0  0  0
    8.0186   -0.4924   -1.9295 S   0  0  0  0  0  0  0  0  0  0  0  0
    4.8096   -0.6771    0.4266 N   0  0  0  0  0  0  0  0  0  0  0  0
   -3.5794    0.3480    0.6991 N   0  0  0  0  0  0  0  0  0  0  0  0
   -4.8069    0.2250   -0.0754 C   0  0  0  0  0  0  0  0  0  0  0  0
   -4.8864    1.3065   -1.1687 C   0  0  0  0  0  0  0  0  0  0  0  0
   -6.3189    1.6763   -1.5619 C   0  0  0  0  0  0  0  0  0  0  0  0
   -7.2789    0.5103   -1.3740 C   0  0  0  0  0  0  0  0  0  0  0  0
   -7.3307    0.0461    0.0825 C   0  0  0  0  0  0  0  0  0  0  0  0
   -6.0255    0.2796    0.8465 C   0  0  0  0  0  0  0  0  0  0  0  0
   -1.6231    0.1628    2.0055 H   0  0  0  0  0  0  0  0  0  0  0  0
    0.1756   -0.1303   -0.3462 H   0  0  0  0  0  0  0  0  0  0  0  0
    0.0382   -1.2855    0.9800 H   0  0  0  0  0  0  0  0  0  0  0  0
    1.0311    1.6255    1.2131 H   0  0  0  0  0  0  0  0  0  0  0  0
    0.8539    0.5163    2.5794 H   0  0  0  0  0  0  0  0  0  0  0  0
    2.9545    0.4671    0.5011 H   0  0  0  0  0  0  0  0  0  0  0  0
    4.3898   -3.1411    2.7365 H   0  0  0  0  0  0  0  0  0  0  0  0
    6.6551   -3.7699    1.8900 H   0  0  0  0  0  0  0  0  0  0  0  0
    7.7084   -2.4125    0.1204 H   0  0  0  0  0  0  0  0  0  0  0  0
    5.0833    1.4493   -1.1668 H   0  0  0  0  0  0  0  0  0  0  0  0
    6.5109    2.5710   -3.0892 H   0  0  0  0  0  0  0  0  0  0  0  0
    8.6540    1.1340   -3.6312 H   0  0  0  0  0  0  0  0  0  0  0  0
   -3.5114    1.1446    1.3155 H   0  0  0  0  0  0  0  0  0  0  0  0
   -4.7861   -0.7596   -0.5620 H   0  0  0  0  0  0  0  0  0  0  0  0
   -4.3470    0.9491   -2.0553 H   0  0  0  0  0  0  0  0  0  0  0  0
   -4.3666    2.2207   -0.8540 H   0  0  0  0  0  0  0  0  0  0  0  0
   -6.6563    2.5214   -0.9487 H   0  0  0  0  0  0  0  0  0  0  0  0
   -6.3370    2.0197   -2.6024 H   0  0  0  0  0  0  0  0  0  0  0  0
   -6.9593   -0.3244   -2.0106 H   0  0  0  0  0  0  0  0  0  0  0  0
   -8.2853    0.7880   -1.7071 H   0  0  0  0  0  0  0  0  0  0  0  0
   -7.5866   -1.0203    0.1021 H   0  0  0  0  0  0  0  0  0  0  0  0
   -8.1421    0.5637    0.6087 H   0  0  0  0  0  0  0  0  0  0  0  0
   -6.0652    1.2596    1.3412 H   0  0  0  0  0  0  0  0  0  0  0  0
   -5.9373   -0.4599    1.6519 H   0  0  0  0  0  0  0  0  0  0  0  0
  1  2  2  0
  2  3  1  0
  3  4  1  0
  4  5  1  0
  5  6  1  0
  6  7  1  0
  7  8  2  0
  7  9  1  0
  9 10  1  0
 10 11  2  0
 11 12  1  0
 12 13  2  0
 13 14  1  0
 14 15  2  0
 15 16  1  0
 16 17  2  0
 17 18  1  0
 13 19  1  0
  2 20  1  0
 20 21  1  0
 21 22  1  0
 22 23  1  0
 23 24  1  0
 24 25  1  0
 25 26  1  0
 19  9  2  0
 26 21  1  0
 18 14  1  0
  3 27  1  0
  4 28  1  0
  4 29  1  0
  5 30  1  0
  5 31  1  0
  6 32  1  0
 10 33  1  0
 11 34  1  0
 12 35  1  0
 15 36  1  0
 16 37  1  0
 17 38  1  0
 20 39  1  0
 21 40  1  0
 22 41  1  0
 22 42  1  0
 23 43  1  0
 23 44  1  0
 24 45  1  0
 24 46  1  0
 25 47  1  0
 25 48  1  0
 26 49  1  0
 26 50  1  0
M  END
$$$$
OCNT-2311090
     RDKit          3D

 48 52  0  0  0  0  0  0  0  0999 V2000
    8.0208    0.6398    0.5370 C   0  0  0  0  0  0  0  0  0  0  0  0
    6.8588    0.9135    1.2543 C   0  0  0  0  0  0  0  0  0  0  0  0
    5.6057    0.5758    0.7297 C   0  0  0  0  0  0  0  0  0  0  0  0
    5.5073   -0.0454   -0.5206 C   0  0  0  0  0  0  0  0  0  0  0  0
    4.2565   -0.4088   -1.0956 N   0  0  0  0  0  0  0  0  0  0  0  0
    4.2001   -0.8814   -2.3778 N   0  0  0  0  0  0  0  0  0  0  0  0
    2.9333   -1.0888   -2.7161 N   0  0  0  0  0  0  0  0  0  0  0  0
    2.1707   -0.7813   -1.6397 C   0  0  0  0  0  0  0  0  0  0  0  0
    2.9728   -0.3890   -0.5914 C   0  0  0  0  0  0  0  0  0  0  0  0
    2.4319   -0.0444    0.7427 C   0  0  0  0  0  0  0  0  0  0  0  0
    0.9444   -0.5001    0.8311 C   0  0  0  0  0  0  0  0  0  0  0  0
    0.1667   -0.1725   -0.3923 N   0  0  0  0  0  0  0  0  0  0  0  0
   -1.2705   -0.4687   -0.2354 C   0  0  0  0  0  0  0  0  0  0  0  0
   -1.9937    0.5218    0.6928 C   0  0  0  0  0  0  0  0  0  0  0  0
   -3.4827    0.2600    0.7289 C   0  0  0  0  0  0  0  0  0  0  0  0
   -4.0152   -0.6750    1.6440 C   0  0  0  0  0  0  0  0  0  0  0  0
   -5.3848   -0.9499    1.6738 C   0  0  0  0  0  0  0  0  0  0  0  0
   -6.1972   -0.2756    0.7880 C   0  0  0  0  0  0  0  0  0  0  0  0
   -7.5539   -0.4491    0.6973 O   0  0  0  0  0  0  0  0  0  0  0  0
   -7.9796    0.6474   -0.1461 C   0  0  0  0  0  0  0  0  0  0  0  0
   -6.7912    1.1337   -0.9771 C   0  0  0  0  0  0  0  0  0  0  0  0
   -5.6910    0.6396   -0.1204 C   0  0  0  0  0  0  0  0  0  0  0  0
   -4.3363    0.9171   -0.1723 C   0  0  0  0  0  0  0  0  0  0  0  0
    0.6920   -0.9216   -1.5738 C   0  0  0  0  0  0  0  0  0  0  0  0
    6.6873   -0.3064   -1.2406 C   0  0  0  0  0  0  0  0  0  0  0  0
    7.9353    0.0321   -0.7117 C   0  0  0  0  0  0  0  0  0  0  0  0
    8.9914    0.9056    0.9478 H   0  0  0  0  0  0  0  0  0  0  0  0
    6.9266    1.3995    2.2249 H   0  0  0  0  0  0  0  0  0  0  0  0
    4.7396    0.8398    1.3216 H   0  0  0  0  0  0  0  0  0  0  0  0
    2.9928   -0.5385    1.5424 H   0  0  0  0  0  0  0  0  0  0  0  0
    2.4803    1.0407    0.8893 H   0  0  0  0  0  0  0  0  0  0  0  0
    0.9051   -1.5824    1.0171 H   0  0  0  0  0  0  0  0  0  0  0  0
    0.5152   -0.0098    1.7111 H   0  0  0  0  0  0  0  0  0  0  0  0
   -1.4174   -1.4992    0.1148 H   0  0  0  0  0  0  0  0  0  0  0  0
   -1.7527   -0.4059   -1.2207 H   0  0  0  0  0  0  0  0  0  0  0  0
   -1.6065    0.4644    1.7164 H   0  0  0  0  0  0  0  0  0  0  0  0
   -1.8149    1.5517    0.3578 H   0  0  0  0  0  0  0  0  0  0  0  0
   -3.3583   -1.1956    2.3375 H   0  0  0  0  0  0  0  0  0  0  0  0
   -5.7998   -1.6683    2.3715 H   0  0  0  0  0  0  0  0  0  0  0  0
   -8.3566    1.4443    0.5078 H   0  0  0  0  0  0  0  0  0  0  0  0
   -8.8063    0.3146   -0.7824 H   0  0  0  0  0  0  0  0  0  0  0  0
   -6.8006    2.2190   -1.1055 H   0  0  0  0  0  0  0  0  0  0  0  0
   -6.7631    0.6390   -1.9532 H   0  0  0  0  0  0  0  0  0  0  0  0
   -3.9450    1.6221   -0.9001 H   0  0  0  0  0  0  0  0  0  0  0  0
    0.4385   -1.9868   -1.5046 H   0  0  0  0  0  0  0  0  0  0  0  0
    0.2487   -0.5168   -2.4906 H   0  0  0  0  0  0  0  0  0  0  0  0
    6.6570   -0.7813   -2.2203 H   0  0  0  0  0  0  0  0  0  0  0  0
    8.8387   -0.1791   -1.2786 H   0  0  0  0  0  0  0  0  0  0  0  0
  1  2  2  0
  2  3  1  0
  3  4  2  0
  4  5  1  0
  5  6  1  0
  6  7  2  0
  7  8  1  0
  8  9  2  0
  9 10  1  0
 10 11  1  0
 11 12  1  0
 12 13  1  0
 13 14  1  0
 14 15  1  0
 15 16  1  0
 16 17  2  0
 17 18  1  0
 18 19  1  0
 19 20  1  0
 20 21  1  0
 21 22  1  0
 22 23  1  0
 12 24  1  0
  4 25  1  0
 25 26  2  0
 26  1  1  0
  9  5  1  0
 23 15  2  0
 24  8  1  0
 22 18  2  0
  1 27  1  0
  2 28  1  0
  3 29  1  0
 10 30  1  0
 10 31  1  0
 11 32  1  0
 11 33  1  0
 13 34  1  0
 13 35  1  0
 14 36  1  0
 14 37  1  0
 16 38  1  0
 17 39  1  0
 20 40  1  0
 20 41  1  0
 21 42  1  0
 21 43  1  0
 23 44  1  0
 24 45  1  0
 24 46  1  0
 25 47  1  0
 26 48  1  0
M  END
$$$$
OCNT-2311091
     RDKit          3D

 35 37  0  0  0  0  0  0  0  0999 V2000
   -1.4988   -2.3073    0.3565 O   0  0  0  0  0  0  0  0  0  0  0  0
   -1.1476   -1.4452   -0.4407 C   0  0  0  0  0  0  0  0  0  0  0  0
   -2.0471   -0.8162   -1.2800 N   0  0  0  0  0  0  0  0  0  0  0  0
   -3.4679   -1.0684   -1.1571 C   0  0  0  0  0  0  0  0  0  0  0  0
   -4.1272   -0.0396   -0.2869 C   0  0  0  0  0  0  0  0  0  0  0  0
   -4.7118    1.1115   -0.8241 C   0  0  0  0  0  0  0  0  0  0  0  0
   -5.2952    2.0491    0.0235 C   0  0  0  0  0  0  0  0  0  0  0  0
   -5.2695    1.8074    1.3866 C   0  0  0  0  0  0  0  0  0  0  0  0
   -4.7075    0.7140    1.9424 N   0  0  0  0  0  0  0  0  0  0  0  0
   -4.1473   -0.1819    1.0977 C   0  0  0  0  0  0  0  0  0  0  0  0
    0.2084   -0.9899   -0.5793 C   0  0  0  0  0  0  0  0  0  0  0  0
    1.2418   -0.9293    0.3308 C   0  0  0  0  0  0  0  0  0  0  0  0
    1.1966   -1.4442    2.1372 Br  0  0  0  0  0  0  0  0  0  0  0  0
    2.3668   -0.4020   -0.3589 C   0  0  0  0  0  0  0  0  0  0  0  0
    3.7108   -0.1032    0.1310 C   0  0  0  0  0  0  0  0  0  0  0  0
    3.9069    0.6710    1.2821 C   0  0  0  0  0  0  0  0  0  0  0  0
    5.1991    0.9474    1.7366 C   0  0  0  0  0  0  0  0  0  0  0  0
    6.3041    0.4602    1.0403 C   0  0  0  0  0  0  0  0  0  0  0  0
    6.1206   -0.2982   -0.1144 C   0  0  0  0  0  0  0  0  0  0  0  0
    4.8297   -0.5755   -0.5696 C   0  0  0  0  0  0  0  0  0  0  0  0
    2.0543   -0.1906   -1.6502 N   0  0  0  0  0  0  0  0  0  0  0  0
    0.7731   -0.5670   -1.7495 N   0  0  0  0  0  0  0  0  0  0  0  0
   -1.7870    0.0774   -1.6719 H   0  0  0  0  0  0  0  0  0  0  0  0
   -3.8878   -1.0304   -2.1686 H   0  0  0  0  0  0  0  0  0  0  0  0
   -3.6550   -2.0771   -0.7716 H   0  0  0  0  0  0  0  0  0  0  0  0
   -4.7218    1.2823   -1.8974 H   0  0  0  0  0  0  0  0  0  0  0  0
   -5.7601    2.9470   -0.3679 H   0  0  0  0  0  0  0  0  0  0  0  0
   -5.7121    2.5077    2.0891 H   0  0  0  0  0  0  0  0  0  0  0  0
   -3.6955   -1.0450    1.5834 H   0  0  0  0  0  0  0  0  0  0  0  0
    3.0599    1.0778    1.8288 H   0  0  0  0  0  0  0  0  0  0  0  0
    5.3420    1.5472    2.6317 H   0  0  0  0  0  0  0  0  0  0  0  0
    7.3087    0.6771    1.3942 H   0  0  0  0  0  0  0  0  0  0  0  0
    6.9807   -0.6721   -0.6636 H   0  0  0  0  0  0  0  0  0  0  0  0
    4.6967   -1.1625   -1.4759 H   0  0  0  0  0  0  0  0  0  0  0  0
    0.3391   -0.5317   -2.6654 H   0  0  0  0  0  0  0  0  0  0  0  0
  1  2  2  0
  2  3  1  0
  3  4  1  0
  4  5  1  0
  5  6  1  0
  6  7  2  0
  7  8  1  0
  8  9  2  0
  9 10  1  0
  2 11  1  0
 11 12  2  0
 12 13  1  0
 12 14  1  0
 14 15  1  0
 15 16  2  0
 16 17  1  0
 17 18  2  0
 18 19  1  0
 19 20  2  0
 14 21  2  0
 21 22  1  0
 10  5  2  0
 22 11  1  0
 20 15  1  0
  3 23  1  0
  4 24  1  0
  4 25  1  0
  6 26  1  0
  7 27  1  0
  8 28  1  0
 10 29  1  0
 16 30  1  0
 17 31  1  0
 18 32  1  0
 19 33  1  0
 20 34  1  0
 22 35  1  0
M  END
$$$$
OCNT-2311092
     RDKit          3D

 38 40  0  0  0  0  0  0  0  0999 V2000
   -6.1398    1.3121    0.3630 C   0  0  0  0  0  0  0  0  0  0  0  0
   -5.6301   -0.0964    0.0987 C   0  0  0  0  0  0  0  0  0  0  0  0
   -4.3222   -0.3590    0.7977 C   0  0  0  0  0  0  0  0  0  0  0  0
   -3.1007   -0.1024    0.1496 C   0  0  0  0  0  0  0  0  0  0  0  0
   -1.8813   -0.3281    0.7978 C   0  0  0  0  0  0  0  0  0  0  0  0
   -0.6175   -0.0978    0.2134 N   0  0  0  0  0  0  0  0  0  0  0  0
   -0.3458    0.3740   -1.0583 C   0  0  0  0  0  0  0  0  0  0  0  0
   -1.1800    0.6751   -1.9029 O   0  0  0  0  0  0  0  0  0  0  0  0
    1.0754    0.5037   -1.3644 C   0  0  0  0  0  0  0  0  0  0  0  0
    2.1931    0.2338   -0.5942 C   0  0  0  0  0  0  0  0  0  0  0  0
    3.3079    0.5285   -1.3585 N   0  0  0  0  0  0  0  0  0  0  0  0
    4.6713    0.4110   -0.9944 C   0  0  0  0  0  0  0  0  0  0  0  0
    5.0749   -0.0468    0.2632 C   0  0  0  0  0  0  0  0  0  0  0  0
    6.4368   -0.1363    0.5510 C   0  0  0  0  0  0  0  0  0  0  0  0
    7.3464    0.2342   -0.4258 C   0  0  0  0  0  0  0  0  0  0  0  0
    6.9897    0.6795   -1.6479 N   0  0  0  0  0  0  0  0  0  0  0  0
    5.6608    0.7594   -1.9087 C   0  0  0  0  0  0  0  0  0  0  0  0
    2.9535    0.9759   -2.5859 N   0  0  0  0  0  0  0  0  0  0  0  0
    1.6213    0.9587   -2.5827 C   0  0  0  0  0  0  0  0  0  0  0  0
   -1.8927   -0.8126    2.1137 C   0  0  0  0  0  0  0  0  0  0  0  0
   -3.0997   -1.0635    2.7687 C   0  0  0  0  0  0  0  0  0  0  0  0
   -4.3004   -0.8335    2.1096 C   0  0  0  0  0  0  0  0  0  0  0  0
   -5.4496   -1.0729    2.7566 F   0  0  0  0  0  0  0  0  0  0  0  0
   -7.0880    1.4756   -0.1589 H   0  0  0  0  0  0  0  0  0  0  0  0
   -5.4255    2.0651    0.0130 H   0  0  0  0  0  0  0  0  0  0  0  0
   -6.3079    1.4801    1.4322 H   0  0  0  0  0  0  0  0  0  0  0  0
   -6.3781   -0.8296    0.4240 H   0  0  0  0  0  0  0  0  0  0  0  0
   -5.5095   -0.2486   -0.9809 H   0  0  0  0  0  0  0  0  0  0  0  0
   -3.1363    0.2770   -0.8675 H   0  0  0  0  0  0  0  0  0  0  0  0
    0.1757   -0.3050    0.8004 H   0  0  0  0  0  0  0  0  0  0  0  0
    2.2954   -0.1355    0.4130 H   0  0  0  0  0  0  0  0  0  0  0  0
    4.3697   -0.3387    1.0332 H   0  0  0  0  0  0  0  0  0  0  0  0
    6.7830   -0.4876    1.5171 H   0  0  0  0  0  0  0  0  0  0  0  0
    8.4166    0.1811   -0.2464 H   0  0  0  0  0  0  0  0  0  0  0  0
    5.4246    1.1237   -2.9064 H   0  0  0  0  0  0  0  0  0  0  0  0
    1.0876    1.2789   -3.4705 H   0  0  0  0  0  0  0  0  0  0  0  0
   -0.9660   -0.9998    2.6498 H   0  0  0  0  0  0  0  0  0  0  0  0
   -3.1125   -1.4348    3.7885 H   0  0  0  0  0  0  0  0  0  0  0  0
  1  2  1  0
  2  3  1  0
  3  4  1  0
  4  5  2  0
  5  6  1  0
  6  7  1  0
  7  8  2  0
  7  9  1  0
  9 10  2  0
 10 11  1  0
 11 12  1  0
 12 13  1  0
 13 14  2  0
 14 15  1  0
 15 16  2  0
 16 17  1  0
 11 18  1  0
 18 19  2  0
  5 20  1  0
 20 21  2  0
 21 22  1  0
 22 23  1  0
 22  3  2  0
 19  9  1  0
 17 12  2  0
  1 24  1  0
  1 25  1  0
  1 26  1  0
  2 27  1  0
  2 28  1  0
  4 29  1  0
  6 30  1  0
 10 31  1  0
 13 32  1  0
 14 33  1  0
 15 34  1  0
 17 35  1  0
 19 36  1  0
 20 37  1  0
 21 38  1  0
M  END
$$$$
OCNT-2311094
     RDKit          3D

 39 41  0  0  0  0  0  0  0  0999 V2000
   -2.5056   -2.7726    2.2286 C   0  0  0  0  0  0  0  0  0  0  0  0
   -2.1973   -1.5842    1.3735 C   0  0  0  0  0  0  0  0  0  0  0  0
   -0.9083   -1.3438    1.0831 N   0  0  0  0  0  0  0  0  0  0  0  0
   -0.6306   -0.2894    0.2973 C   0  0  0  0  0  0  0  0  0  0  0  0
    0.7111   -0.0321   -0.0444 N   0  0  0  0  0  0  0  0  0  0  0  0
    1.6788   -0.9542    0.5482 C   0  0  0  0  0  0  0  0  0  0  0  0
    3.0763   -0.5943    0.1003 C   0  0  0  0  0  0  0  0  0  0  0  0
    3.3287   -0.3917   -1.2704 C   0  0  0  0  0  0  0  0  0  0  0  0
    4.6104   -0.0877   -1.7027 C   0  0  0  0  0  0  0  0  0  0  0  0
    4.9723    0.2015   -3.5280 Br  0  0  0  0  0  0  0  0  0  0  0  0
    5.6099   -0.0058   -0.7553 C   0  0  0  0  0  0  0  0  0  0  0  0
    5.4061   -0.2109    0.5666 N   0  0  0  0  0  0  0  0  0  0  0  0
    4.1600   -0.5087    0.9833 C   0  0  0  0  0  0  0  0  0  0  0  0
    4.0277   -0.7261    2.3540 N   0  0  0  0  0  0  0  0  0  0  0  0
   -1.6342    0.5262   -0.2213 C   0  0  0  0  0  0  0  0  0  0  0  0
   -1.3408    1.6576   -1.1710 C   0  0  0  0  0  0  0  0  0  0  0  0
   -2.5237    2.6007   -1.3924 C   0  0  0  0  0  0  0  0  0  0  0  0
   -3.8064    1.8113   -1.6120 C   0  0  0  0  0  0  0  0  0  0  0  0
   -4.1192    0.9755   -0.3752 C   0  0  0  0  0  0  0  0  0  0  0  0
   -2.9379    0.1775    0.1124 C   0  0  0  0  0  0  0  0  0  0  0  0
   -3.2305   -0.8623    0.9182 N   0  0  0  0  0  0  0  0  0  0  0  0
   -3.4121   -2.5993    2.8167 H   0  0  0  0  0  0  0  0  0  0  0  0
   -1.6821   -2.9737    2.9206 H   0  0  0  0  0  0  0  0  0  0  0  0
   -2.6577   -3.6519    1.5961 H   0  0  0  0  0  0  0  0  0  0  0  0
    0.9321    0.9322    0.1860 H   0  0  0  0  0  0  0  0  0  0  0  0
    1.4830   -1.9866    0.2305 H   0  0  0  0  0  0  0  0  0  0  0  0
    1.5998   -0.9108    1.6400 H   0  0  0  0  0  0  0  0  0  0  0  0
    2.5139   -0.4746   -1.9871 H   0  0  0  0  0  0  0  0  0  0  0  0
    6.6352    0.2287   -1.0251 H   0  0  0  0  0  0  0  0  0  0  0  0
    3.6942   -1.6660    2.5401 H   0  0  0  0  0  0  0  0  0  0  0  0
    3.3873   -0.0573    2.7678 H   0  0  0  0  0  0  0  0  0  0  0  0
   -0.4995    2.2571   -0.8054 H   0  0  0  0  0  0  0  0  0  0  0  0
   -1.0466    1.2236   -2.1352 H   0  0  0  0  0  0  0  0  0  0  0  0
   -2.3232    3.2476   -2.2539 H   0  0  0  0  0  0  0  0  0  0  0  0
   -2.6430    3.2567   -0.5205 H   0  0  0  0  0  0  0  0  0  0  0  0
   -3.6946    1.1606   -2.4884 H   0  0  0  0  0  0  0  0  0  0  0  0
   -4.6396    2.4922   -1.8185 H   0  0  0  0  0  0  0  0  0  0  0  0
   -4.4402    1.6345    0.4410 H   0  0  0  0  0  0  0  0  0  0  0  0
   -4.9539    0.3004   -0.5976 H   0  0  0  0  0  0  0  0  0  0  0  0
  1  2  1  0
  2  3  2  0
  3  4  1  0
  4  5  1  0
  5  6  1  0
  6  7  1  0
  7  8  1  0
  8  9  2  0
  9 10  1  0
  9 11  1  0
 11 12  2  0
 12 13  1  0
 13 14  1  0
  4 15  2  0
 15 16  1  0
 16 17  1  0
 17 18  1  0
 18 19  1  0
 19 20  1  0
 20 21  2  0
 21  2  1  0
 13  7  2  0
 20 15  1  0
  1 22  1  0
  1 23  1  0
  1 24  1  0
  5 25  1  0
  6 26  1  0
  6 27  1  0
  8 28  1  0
 11 29  1  0
 14 30  1  0
 14 31  1  0
 16 32  1  0
 16 33  1  0
 17 34  1  0
 17 35  1  0
 18 36  1  0
 18 37  1  0
 19 38  1  0
 19 39  1  0
M  END
$$$$
OCNT-2311101
     RDKit          3D

 44 46  0  0  0  0  0  0  0  0999 V2000
    6.8554    0.0300   -1.6000 O   0  0  0  0  0  0  0  0  0  0  0  0
    5.7765    0.1598   -1.0343 C   0  0  0  0  0  0  0  0  0  0  0  0
    5.6983    0.7416    0.3203 C   0  0  0  0  0  0  0  0  0  0  0  0
    4.5171    0.8773    0.9276 C   0  0  0  0  0  0  0  0  0  0  0  0
    3.3252    0.4219    0.1808 C   0  0  0  0  0  0  0  0  0  0  0  0
    1.9697    0.5778    0.8777 C   0  0  0  0  0  0  0  0  0  0  0  0
    1.8858    1.1512    1.9525 O   0  0  0  0  0  0  0  0  0  0  0  0
    0.9252    0.0264    0.1723 N   0  0  0  0  0  0  0  0  0  0  0  0
   -0.4621    0.2690    0.5287 C   0  0  0  0  0  0  0  0  0  0  0  0
   -0.9276    1.5260   -0.1943 C   0  0  0  0  0  0  0  0  0  0  0  0
   -1.1055    2.7178    0.5284 C   0  0  0  0  0  0  0  0  0  0  0  0
   -1.5155    3.8894   -0.1119 C   0  0  0  0  0  0  0  0  0  0  0  0
   -1.7452    3.8894   -1.4863 C   0  0  0  0  0  0  0  0  0  0  0  0
   -1.5571    2.7184   -2.2157 C   0  0  0  0  0  0  0  0  0  0  0  0
   -1.8286    2.7180   -3.9152 Cl  0  0  0  0  0  0  0  0  0  0  0  0
   -1.1470    1.5445   -1.5820 C   0  0  0  0  0  0  0  0  0  0  0  0
   -1.3341   -0.9872    0.2468 C   0  0  0  0  0  0  0  0  0  0  0  0
   -2.8045   -0.7815    0.6468 C   0  0  0  0  0  0  0  0  0  0  0  0
   -3.6791   -1.9759    0.2526 C   0  0  0  0  0  0  0  0  0  0  0  0
   -2.9274   -3.3059    0.2288 C   0  0  0  0  0  0  0  0  0  0  0  0
   -1.7970   -3.3261    1.2450 C   0  0  0  0  0  0  0  0  0  0  0  0
   -0.7642   -2.2279    0.9777 C   0  0  0  0  0  0  0  0  0  0  0  0
    3.3473   -0.0962   -1.0141 N   0  0  0  0  0  0  0  0  0  0  0  0
    4.5814   -0.2155   -1.5971 N   0  0  0  0  0  0  0  0  0  0  0  0
    6.6313    1.0438    0.7774 H   0  0  0  0  0  0  0  0  0  0  0  0
    4.4030    1.2982    1.9176 H   0  0  0  0  0  0  0  0  0  0  0  0
    1.1499   -0.2770   -0.7708 H   0  0  0  0  0  0  0  0  0  0  0  0
   -0.5011    0.4589    1.6099 H   0  0  0  0  0  0  0  0  0  0  0  0
   -0.9155    2.7420    1.6009 H   0  0  0  0  0  0  0  0  0  0  0  0
   -1.6497    4.8029    0.4624 H   0  0  0  0  0  0  0  0  0  0  0  0
   -2.0627    4.8030   -1.9813 H   0  0  0  0  0  0  0  0  0  0  0  0
   -0.9959    0.6471   -2.1759 H   0  0  0  0  0  0  0  0  0  0  0  0
   -1.3056   -1.2062   -0.8297 H   0  0  0  0  0  0  0  0  0  0  0  0
   -2.8655   -0.6329    1.7330 H   0  0  0  0  0  0  0  0  0  0  0  0
   -3.2269    0.1199    0.1897 H   0  0  0  0  0  0  0  0  0  0  0  0
   -4.5222   -2.0379    0.9515 H   0  0  0  0  0  0  0  0  0  0  0  0
   -4.1168   -1.8034   -0.7382 H   0  0  0  0  0  0  0  0  0  0  0  0
   -2.5146   -3.4746   -0.7738 H   0  0  0  0  0  0  0  0  0  0  0  0
   -3.6269   -4.1275    0.4198 H   0  0  0  0  0  0  0  0  0  0  0  0
   -1.3020   -4.3039    1.2441 H   0  0  0  0  0  0  0  0  0  0  0  0
   -2.2161   -3.1912    2.2503 H   0  0  0  0  0  0  0  0  0  0  0  0
   -0.3135   -1.9431    1.9369 H   0  0  0  0  0  0  0  0  0  0  0  0
    0.0502   -2.6448    0.3711 H   0  0  0  0  0  0  0  0  0  0  0  0
    4.6135   -0.6153   -2.5298 H   0  0  0  0  0  0  0  0  0  0  0  0
  1  2  2  0
  2  3  1  0
  3  4  2  0
  4  5  1  0
  5  6  1  0
  6  7  2  0
  6  8  1  0
  8  9  1  0
  9 10  1  0
 10 11  2  0
 11 12  1  0
 12 13  2  0
 13 14  1  0
 14 15  1  0
 14 16  2  0
  9 17  1  0
 17 18  1  0
 18 19  1  0
 19 20  1  0
 20 21  1  0
 21 22  1  0
  5 23  2  0
 23 24  1  0
 24  2  1  0
 16 10  1  0
 22 17  1  0
  3 25  1  0
  4 26  1  0
  8 27  1  0
  9 28  1  0
 11 29  1  0
 12 30  1  0
 13 31  1  0
 16 32  1  0
 17 33  1  0
 18 34  1  0
 18 35  1  0
 19 36  1  0
 19 37  1  0
 20 38  1  0
 20 39  1  0
 21 40  1  0
 21 41  1  0
 22 42  1  0
 22 43  1  0
 24 44  1  0
M  END
$$$$
OCNT-2311106
     RDKit          3D

 41 44  0  0  0  0  0  0  0  0999 V2000
   -3.4303   -0.9988   -1.9266 C   0  0  0  0  0  0  0  0  0  0  0  0
   -2.4682   -1.1911   -0.8351 N   0  0  0  0  0  0  0  0  0  0  0  0
   -1.5416   -2.3026   -1.1445 C   0  0  0  0  0  0  0  0  0  0  0  0
   -0.2357   -1.8879   -1.8400 C   0  0  0  0  0  0  0  0  0  0  0  0
    0.5156   -0.9127   -1.0544 N   0  0  0  0  0  0  0  0  0  0  0  0
    1.8459   -0.6925   -1.3848 C   0  0  0  0  0  0  0  0  0  0  0  0
    2.4024   -1.2261   -2.3408 O   0  0  0  0  0  0  0  0  0  0  0  0
    2.6397    0.2345   -0.5623 C   0  0  0  0  0  0  0  0  0  0  0  0
    3.1642    1.3963   -1.1585 C   0  0  0  0  0  0  0  0  0  0  0  0
    3.9302    2.2915   -0.4097 C   0  0  0  0  0  0  0  0  0  0  0  0
    4.1991    2.0392    0.9360 C   0  0  0  0  0  0  0  0  0  0  0  0
    4.9359    2.9016    1.6468 F   0  0  0  0  0  0  0  0  0  0  0  0
    3.6912    0.8687    1.4971 C   0  0  0  0  0  0  0  0  0  0  0  0
    2.9218   -0.0518    0.7892 C   0  0  0  0  0  0  0  0  0  0  0  0
    2.6383   -1.0993    1.7100 C   0  0  0  0  0  0  0  0  0  0  0  0
    3.2268   -0.7437    2.9014 C   0  0  0  0  0  0  0  0  0  0  0  0
    3.8651    0.4489    2.7822 O   0  0  0  0  0  0  0  0  0  0  0  0
   -0.2678   -0.1072   -0.1011 C   0  0  0  0  0  0  0  0  0  0  0  0
   -1.7395    0.0892   -0.5634 C   0  0  0  0  0  0  0  0  0  0  0  0
   -2.4648    0.9096    0.4686 C   0  0  0  0  0  0  0  0  0  0  0  0
   -2.3014    2.1935    0.7226 N   0  0  0  0  0  0  0  0  0  0  0  0
   -3.1631    2.4802    1.7504 C   0  0  0  0  0  0  0  0  0  0  0  0
   -3.8596    1.3586    2.1306 C   0  0  0  0  0  0  0  0  0  0  0  0
   -3.4065    0.3672    1.3098 N   0  0  0  0  0  0  0  0  0  0  0  0
   -2.9382   -0.7631   -2.8771 H   0  0  0  0  0  0  0  0  0  0  0  0
   -4.1336   -0.1922   -1.6920 H   0  0  0  0  0  0  0  0  0  0  0  0
   -4.0326   -1.9034   -2.0662 H   0  0  0  0  0  0  0  0  0  0  0  0
   -2.0439   -3.0824   -1.7300 H   0  0  0  0  0  0  0  0  0  0  0  0
   -1.2836   -2.7771   -0.1883 H   0  0  0  0  0  0  0  0  0  0  0  0
    0.3939   -2.7684   -2.0118 H   0  0  0  0  0  0  0  0  0  0  0  0
   -0.4452   -1.4363   -2.8171 H   0  0  0  0  0  0  0  0  0  0  0  0
    2.9704    1.5966   -2.2109 H   0  0  0  0  0  0  0  0  0  0  0  0
    4.3289    3.1919   -0.8691 H   0  0  0  0  0  0  0  0  0  0  0  0
    2.0751   -2.0032    1.5242 H   0  0  0  0  0  0  0  0  0  0  0  0
    3.2858   -1.2074    3.8766 H   0  0  0  0  0  0  0  0  0  0  0  0
   -0.2396   -0.6344    0.8609 H   0  0  0  0  0  0  0  0  0  0  0  0
    0.2093    0.8678    0.0446 H   0  0  0  0  0  0  0  0  0  0  0  0
   -1.6913    0.6791   -1.4906 H   0  0  0  0  0  0  0  0  0  0  0  0
   -3.2363    3.4792    2.1607 H   0  0  0  0  0  0  0  0  0  0  0  0
   -4.6141    1.1880    2.8847 H   0  0  0  0  0  0  0  0  0  0  0  0
   -3.7026   -0.6001    1.2781 H   0  0  0  0  0  0  0  0  0  0  0  0
  1  2  1  0
  2  3  1  0
  3  4  1  0
  4  5  1  0
  5  6  1  0
  6  7  2  0
  6  8  1  0
  8  9  1  0
  9 10  2  0
 10 11  1  0
 11 12  1  0
 11 13  2  0
 13 14  1  0
 14 15  1  0
 15 16  2  0
 16 17  1  0
  5 18  1  0
 18 19  1  0
 19 20  1  0
 20 21  2  0
 21 22  1  0
 22 23  2  0
 23 24  1  0
 19  2  1  0
 24 20  1  0
 14  8  2  0
 17 13  1  0
  1 25  1  0
  1 26  1  0
  1 27  1  0
  3 28  1  0
  3 29  1  0
  4 30  1  0
  4 31  1  0
  9 32  1  0
 10 33  1  0
 15 34  1  0
 16 35  1  0
 18 36  1  0
 18 37  1  0
 19 38  1  0
 22 39  1  0
 23 40  1  0
 24 41  1  0
M  END
$$$$
OCNT-2311111
     RDKit          3D

 39 42  0  0  0  0  0  0  0  0999 V2000
   -4.4211   -2.1630   -0.3206 O   0  0  0  0  0  0  0  0  0  0  0  0
   -4.2040   -0.7483   -0.0876 C   0  0  0  0  0  0  0  0  0  0  0  0
   -2.6249   -0.4249   -0.0366 C   0  0  0  0  0  0  0  0  0  0  0  0
   -1.9165   -0.2222    1.1634 C   0  0  0  0  0  0  0  0  0  0  0  0
   -0.5413    0.0463    1.1819 C   0  0  0  0  0  0  0  0  0  0  0  0
    0.1927    0.1168   -0.0067 C   0  0  0  0  0  0  0  0  0  0  0  0
    1.6374    0.3892    0.0080 C   0  0  0  0  0  0  0  0  0  0  0  0
    2.5285   -0.6720   -0.2454 C   0  0  0  0  0  0  0  0  0  0  0  0
    3.8918   -0.4274   -0.2249 C   0  0  0  0  0  0  0  0  0  0  0  0
    4.4020    0.8401    0.0417 C   0  0  0  0  0  0  0  0  0  0  0  0
    3.5568    1.9089    0.2593 C   0  0  0  0  0  0  0  0  0  0  0  0
    2.1739    1.6794    0.2539 C   0  0  0  0  0  0  0  0  0  0  0  0
    1.1481    3.0486    0.5350 Cl  0  0  0  0  0  0  0  0  0  0  0  0
    5.8120    0.9004   -0.0609 N   0  0  0  0  0  0  0  0  0  0  0  0
    6.2057   -0.5189    0.0021 C   0  0  0  0  0  0  0  0  0  0  0  0
    5.0196   -1.3601   -0.5055 C   0  0  0  0  0  0  0  0  0  0  0  0
   -0.4843   -0.1025   -1.2101 C   0  0  0  0  0  0  0  0  0  0  0  0
   -1.8584   -0.3706   -1.2185 C   0  0  0  0  0  0  0  0  0  0  0  0
   -5.1169   -0.1718    1.0566 C   0  0  0  0  0  0  0  0  0  0  0  0
   -5.3857    1.0504    0.1658 C   0  0  0  0  0  0  0  0  0  0  0  0
   -5.0598    0.1634   -1.0453 C   0  0  0  0  0  0  0  0  0  0  0  0
   -3.8784   -2.6038    0.3551 H   0  0  0  0  0  0  0  0  0  0  0  0
   -2.4380   -0.2727    2.1164 H   0  0  0  0  0  0  0  0  0  0  0  0
   -0.0462    0.2019    2.1385 H   0  0  0  0  0  0  0  0  0  0  0  0
    2.1545   -1.6703   -0.4573 H   0  0  0  0  0  0  0  0  0  0  0  0
    3.9564    2.9042    0.4191 H   0  0  0  0  0  0  0  0  0  0  0  0
    6.2173    1.4904    0.6615 H   0  0  0  0  0  0  0  0  0  0  0  0
    7.1082   -0.6996   -0.5907 H   0  0  0  0  0  0  0  0  0  0  0  0
    6.4336   -0.7799    1.0442 H   0  0  0  0  0  0  0  0  0  0  0  0
    4.9380   -2.3071    0.0347 H   0  0  0  0  0  0  0  0  0  0  0  0
    5.0984   -1.5440   -1.5820 H   0  0  0  0  0  0  0  0  0  0  0  0
    0.0522   -0.0627   -2.1560 H   0  0  0  0  0  0  0  0  0  0  0  0
   -2.3498   -0.5465   -2.1749 H   0  0  0  0  0  0  0  0  0  0  0  0
   -6.0099   -0.7790    1.2519 H   0  0  0  0  0  0  0  0  0  0  0  0
   -4.6510    0.0553    2.0179 H   0  0  0  0  0  0  0  0  0  0  0  0
   -4.6754    1.8714    0.3161 H   0  0  0  0  0  0  0  0  0  0  0  0
   -6.4019    1.4509    0.2021 H   0  0  0  0  0  0  0  0  0  0  0  0
   -5.9339   -0.3431   -1.4727 H   0  0  0  0  0  0  0  0  0  0  0  0
   -4.5297    0.6724   -1.8549 H   0  0  0  0  0  0  0  0  0  0  0  0
  1  2  1  0
  2  3  1  0
  3  4  1  0
  4  5  2  0
  5  6  1  0
  6  7  1  0
  7  8  2  0
  8  9  1  0
  9 10  2  0
 10 11  1  0
 11 12  2  0
 12 13  1  0
 10 14  1  0
 14 15  1  0
 15 16  1  0
  6 17  2  0
 17 18  1  0
  2 19  1  0
 19 20  1  0
 20 21  1  0
 21  2  1  0
 18  3  2  0
 12  7  1  0
 16  9  1  0
  1 22  1  0
  4 23  1  0
  5 24  1  0
  8 25  1  0
 11 26  1  0
 14 27  1  0
 15 28  1  0
 15 29  1  0
 16 30  1  0
 16 31  1  0
 17 32  1  0
 18 33  1  0
 19 34  1  0
 19 35  1  0
 20 36  1  0
 20 37  1  0
 21 38  1  0
 21 39  1  0
M  END
$$$$
OCNT-2311113
     RDKit          3D

 45 47  0  0  0  0  0  0  0  0999 V2000
   -4.4633   -0.7928    2.2031 C   0  0  0  0  0  0  0  0  0  0  0  0
   -3.8418    0.5048    1.6935 C   0  0  0  0  0  0  0  0  0  0  0  0
   -2.6816    0.9489    2.5889 C   0  0  0  0  0  0  0  0  0  0  0  0
   -2.0035    2.1984    2.0318 C   0  0  0  0  0  0  0  0  0  0  0  0
   -1.5191    1.9872    0.6663 N   0  0  0  0  0  0  0  0  0  0  0  0
   -2.6353    1.6105   -0.2430 C   0  0  0  0  0  0  0  0  0  0  0  0
   -2.0756    1.3308   -1.6537 C   0  0  0  0  0  0  0  0  0  0  0  0
   -2.7251    1.5260   -2.6772 O   0  0  0  0  0  0  0  0  0  0  0  0
   -0.8185    0.7773   -1.6447 N   0  0  0  0  0  0  0  0  0  0  0  0
   -0.0905    0.4118   -2.8476 C   0  0  0  0  0  0  0  0  0  0  0  0
    0.4650    1.6433   -3.5509 C   0  0  0  0  0  0  0  0  0  0  0  0
    1.0057   -0.5305   -2.4507 C   0  0  0  0  0  0  0  0  0  0  0  0
    1.2092   -1.7098   -3.0534 N   0  0  0  0  0  0  0  0  0  0  0  0
    2.2661   -2.2606   -2.3243 O   0  0  0  0  0  0  0  0  0  0  0  0
    2.6013   -1.3478   -1.3614 C   0  0  0  0  0  0  0  0  0  0  0  0
    3.7000   -1.6914   -0.4658 C   0  0  0  0  0  0  0  0  0  0  0  0
    4.2292   -0.7084    0.3890 C   0  0  0  0  0  0  0  0  0  0  0  0
    5.2818   -1.0074    1.2567 C   0  0  0  0  0  0  0  0  0  0  0  0
    5.8123   -2.2936    1.2870 C   0  0  0  0  0  0  0  0  0  0  0  0
    7.1060   -2.6621    2.3614 Cl  0  0  0  0  0  0  0  0  0  0  0  0
    5.2991   -3.2853    0.4496 C   0  0  0  0  0  0  0  0  0  0  0  0
    4.2489   -2.9840   -0.4229 C   0  0  0  0  0  0  0  0  0  0  0  0
    1.8607   -0.2622   -1.4025 N   0  0  0  0  0  0  0  0  0  0  0  0
   -3.3520    0.3477    0.2512 C   0  0  0  0  0  0  0  0  0  0  0  0
   -5.3120   -1.0894    1.5788 H   0  0  0  0  0  0  0  0  0  0  0  0
   -3.7372   -1.6134    2.1968 H   0  0  0  0  0  0  0  0  0  0  0  0
   -4.8282   -0.6702    3.2280 H   0  0  0  0  0  0  0  0  0  0  0  0
   -4.6147    1.2849    1.7160 H   0  0  0  0  0  0  0  0  0  0  0  0
   -3.0493    1.1555    3.6002 H   0  0  0  0  0  0  0  0  0  0  0  0
   -1.9435    0.1404    2.6765 H   0  0  0  0  0  0  0  0  0  0  0  0
   -2.6943    3.0502    2.0601 H   0  0  0  0  0  0  0  0  0  0  0  0
   -1.1523    2.4571    2.6705 H   0  0  0  0  0  0  0  0  0  0  0  0
   -1.1152    2.8619    0.3259 H   0  0  0  0  0  0  0  0  0  0  0  0
   -3.3338    2.4526   -0.3232 H   0  0  0  0  0  0  0  0  0  0  0  0
   -0.3214    0.8069   -0.7538 H   0  0  0  0  0  0  0  0  0  0  0  0
   -0.7925   -0.0910   -3.5201 H   0  0  0  0  0  0  0  0  0  0  0  0
    1.0220    1.3622   -4.4515 H   0  0  0  0  0  0  0  0  0  0  0  0
    1.1459    2.2012   -2.9004 H   0  0  0  0  0  0  0  0  0  0  0  0
   -0.3409    2.3240   -3.8479 H   0  0  0  0  0  0  0  0  0  0  0  0
    3.8234    0.3029    0.3754 H   0  0  0  0  0  0  0  0  0  0  0  0
    5.6808   -0.2291    1.9069 H   0  0  0  0  0  0  0  0  0  0  0  0
    5.7094   -4.2917    0.4739 H   0  0  0  0  0  0  0  0  0  0  0  0
    3.8616   -3.7751   -1.0611 H   0  0  0  0  0  0  0  0  0  0  0  0
   -4.2029    0.1310   -0.4072 H   0  0  0  0  0  0  0  0  0  0  0  0
   -2.6839   -0.5218    0.1787 H   0  0  0  0  0  0  0  0  0  0  0  0
  1  2  1  0
  2  3  1  0
  3  4  1  0
  4  5  1  0
  5  6  1  0
  6  7  1  0
  7  8  2  0
  7  9  1  0
  9 10  1  0
 10 11  1  0
 10 12  1  0
 12 13  2  0
 13 14  1  0
 14 15  1  0
 15 16  1  0
 16 17  1  0
 17 18  2  0
 18 19  1  0
 19 20  1  0
 19 21  2  0
 21 22  1  0
 15 23  2  0
  6 24  1  0
 24  2  1  0
 23 12  1  0
 22 16  2  0
  1 25  1  0
  1 26  1  0
  1 27  1  0
  2 28  1  0
  3 29  1  0
  3 30  1  0
  4 31  1  0
  4 32  1  0
  5 33  1  0
  6 34  1  0
  9 35  1  0
 10 36  1  0
 11 37  1  0
 11 38  1  0
 11 39  1  0
 17 40  1  0
 18 41  1  0
 21 42  1  0
 22 43  1  0
 24 44  1  0
 24 45  1  0
M  END
$$$$
OCNT-2311121
     RDKit          3D

 45 47  0  0  0  0  0  0  0  0999 V2000
    0.7786    0.8636    2.6474 C   0  0  0  0  0  0  0  0  0  0  0  0
    2.1561    1.1774    2.9913 N   0  0  0  0  0  0  0  0  0  0  0  0
    3.0925    0.1382    2.5496 C   0  0  0  0  0  0  0  0  0  0  0  0
    3.3204    0.1154    1.0499 C   0  0  0  0  0  0  0  0  0  0  0  0
    4.1030    1.1498    0.4969 C   0  0  0  0  0  0  0  0  0  0  0  0
    4.3645    1.2129   -0.8711 C   0  0  0  0  0  0  0  0  0  0  0  0
    3.8385    0.2495   -1.7183 C   0  0  0  0  0  0  0  0  0  0  0  0
    3.0602   -0.7795   -1.1947 C   0  0  0  0  0  0  0  0  0  0  0  0
    2.7930   -0.8685    0.1871 C   0  0  0  0  0  0  0  0  0  0  0  0
    1.8861   -1.9897    0.6416 C   0  0  0  0  0  0  0  0  0  0  0  0
    0.5114   -1.6492    0.4062 N   0  0  0  0  0  0  0  0  0  0  0  0
   -0.5283   -2.4834    0.7257 C   0  0  0  0  0  0  0  0  0  0  0  0
   -0.4033   -3.5369    1.3382 O   0  0  0  0  0  0  0  0  0  0  0  0
   -1.8609   -1.9970    0.2391 C   0  0  0  0  0  0  0  0  0  0  0  0
   -3.0012   -2.7563    0.4409 C   0  0  0  0  0  0  0  0  0  0  0  0
   -4.1997   -2.2654   -0.0594 C   0  0  0  0  0  0  0  0  0  0  0  0
   -4.2152   -1.0361   -0.7200 C   0  0  0  0  0  0  0  0  0  0  0  0
   -3.0283   -0.3186   -0.8759 C   0  0  0  0  0  0  0  0  0  0  0  0
   -2.9525    0.9993   -1.5407 C   0  0  0  0  0  0  0  0  0  0  0  0
   -3.8775    1.4132   -2.5114 C   0  0  0  0  0  0  0  0  0  0  0  0
   -3.7405    2.6657   -3.0941 C   0  0  0  0  0  0  0  0  0  0  0  0
   -2.7531    3.5327   -2.7902 N   0  0  0  0  0  0  0  0  0  0  0  0
   -1.8611    3.1265   -1.8639 C   0  0  0  0  0  0  0  0  0  0  0  0
   -1.9201    1.8975   -1.2258 C   0  0  0  0  0  0  0  0  0  0  0  0
   -1.8507   -0.7975   -0.4048 N   0  0  0  0  0  0  0  0  0  0  0  0
    0.4788   -0.1166    3.0358 H   0  0  0  0  0  0  0  0  0  0  0  0
    0.6079    0.9019    1.5656 H   0  0  0  0  0  0  0  0  0  0  0  0
    0.1173    1.6091    3.0923 H   0  0  0  0  0  0  0  0  0  0  0  0
    2.2212    1.2570    4.0062 H   0  0  0  0  0  0  0  0  0  0  0  0
    2.8103   -0.8357    2.9522 H   0  0  0  0  0  0  0  0  0  0  0  0
    4.0604    0.3553    3.0165 H   0  0  0  0  0  0  0  0  0  0  0  0
    4.5187    1.9192    1.1510 H   0  0  0  0  0  0  0  0  0  0  0  0
    4.9794    2.0116   -1.2747 H   0  0  0  0  0  0  0  0  0  0  0  0
    4.0292    0.2995   -2.7869 H   0  0  0  0  0  0  0  0  0  0  0  0
    2.6484   -1.5223   -1.8778 H   0  0  0  0  0  0  0  0  0  0  0  0
    2.1091   -2.9056    0.0839 H   0  0  0  0  0  0  0  0  0  0  0  0
    2.0111   -2.2521    1.6920 H   0  0  0  0  0  0  0  0  0  0  0  0
    0.2921   -0.8652   -0.2104 H   0  0  0  0  0  0  0  0  0  0  0  0
   -2.9535   -3.7032    0.9584 H   0  0  0  0  0  0  0  0  0  0  0  0
   -5.1157   -2.8303    0.0649 H   0  0  0  0  0  0  0  0  0  0  0  0
   -5.1611   -0.6517   -1.0888 H   0  0  0  0  0  0  0  0  0  0  0  0
   -4.6954    0.7791   -2.8369 H   0  0  0  0  0  0  0  0  0  0  0  0
   -4.4393    3.0099   -3.8527 H   0  0  0  0  0  0  0  0  0  0  0  0
   -1.0697    3.8306   -1.6380 H   0  0  0  0  0  0  0  0  0  0  0  0
   -1.1612    1.6461   -0.4889 H   0  0  0  0  0  0  0  0  0  0  0  0
  1  2  1  0
  2  3  1  0
  3  4  1  0
  4  5  2  0
  5  6  1  0
  6  7  2  0
  7  8  1  0
  8  9  2  0
  9 10  1  0
 10 11  1  0
 11 12  1  0
 12 13  2  0
 12 14  1  0
 14 15  1  0
 15 16  2  0
 16 17  1  0
 17 18  2  0
 18 19  1  0
 19 20  2  0
 20 21  1  0
 21 22  2  0
 22 23  1  0
 23 24  2  0
 18 25  1  0
  9  4  1  0
 25 14  2  0
 24 19  1  0
  1 26  1  0
  1 27  1  0
  1 28  1  0
  2 29  1  0
  3 30  1  0
  3 31  1  0
  5 32  1  0
  6 33  1  0
  7 34  1  0
  8 35  1  0
 10 36  1  0
 10 37  1  0
 11 38  1  0
 15 39  1  0
 16 40  1  0
 17 41  1  0
 20 42  1  0
 21 43  1  0
 23 44  1  0
 24 45  1  0
M  END
$$$$
OCNT-2311123
     RDKit          3D

 37 40  0  0  0  0  0  0  0  0999 V2000
    2.5885   -1.2617    2.5095 C   0  0  0  0  0  0  0  0  0  0  0  0
    2.4771   -1.3420    0.9841 C   0  0  2  0  0  0  0  0  0  0  0  0
    3.2617   -0.2938    0.2041 C   0  0  0  0  0  0  0  0  0  0  0  0
    3.5544   -0.5337   -1.1538 C   0  0  0  0  0  0  0  0  0  0  0  0
    4.2593    0.4008   -1.9179 C   0  0  0  0  0  0  0  0  0  0  0  0
    4.6824    1.5931   -1.3386 C   0  0  0  0  0  0  0  0  0  0  0  0
    4.3951    1.8399   -0.0030 C   0  0  0  0  0  0  0  0  0  0  0  0
    4.7965    2.9891    0.5560 F   0  0  0  0  0  0  0  0  0  0  0  0
    3.6929    0.9163    0.7688 C   0  0  0  0  0  0  0  0  0  0  0  0
    1.0731   -1.3419    0.5742 N   0  0  0  0  0  0  0  0  0  0  0  0
    0.1779   -0.3089    0.5854 C   0  0  0  0  0  0  0  0  0  0  0  0
   -0.9892   -0.8711    0.1174 C   0  0  0  0  0  0  0  0  0  0  0  0
   -2.2724   -0.2148   -0.0819 C   0  0  0  0  0  0  0  0  0  0  0  0
   -2.4325    1.1668    0.1121 C   0  0  0  0  0  0  0  0  0  0  0  0
   -3.6725    1.7987   -0.0806 C   0  0  0  0  0  0  0  0  0  0  0  0
   -4.7723    1.0225   -0.4774 C   0  0  0  0  0  0  0  0  0  0  0  0
   -6.1351    1.2528   -0.7679 C   0  0  0  0  0  0  0  0  0  0  0  0
   -6.7852    0.1383   -1.1139 N   0  0  0  0  0  0  0  0  0  0  0  0
   -5.8335   -0.8108   -1.0460 N   0  0  0  0  0  0  0  0  0  0  0  0
   -4.6027   -0.3422   -0.6682 C   0  0  0  0  0  0  0  0  0  0  0  0
   -3.3761   -0.9911   -0.4819 C   0  0  0  0  0  0  0  0  0  0  0  0
   -0.7669   -2.2019   -0.1414 N   0  0  0  0  0  0  0  0  0  0  0  0
    0.4974   -2.4801    0.1447 N   0  0  0  0  0  0  0  0  0  0  0  0
    3.6358   -1.2880    2.8294 H   0  0  0  0  0  0  0  0  0  0  0  0
    2.0736   -2.1087    2.9777 H   0  0  0  0  0  0  0  0  0  0  0  0
    2.1324   -0.3492    2.9096 H   0  0  0  0  0  0  0  0  0  0  0  0
    2.8825   -2.3223    0.6945 H   0  0  0  0  0  0  0  0  0  0  0  0
    3.2255   -1.4576   -1.6310 H   0  0  0  0  0  0  0  0  0  0  0  0
    4.4733    0.1970   -2.9644 H   0  0  0  0  0  0  0  0  0  0  0  0
    5.2296    2.3300   -1.9176 H   0  0  0  0  0  0  0  0  0  0  0  0
    3.4964    1.1725    1.8051 H   0  0  0  0  0  0  0  0  0  0  0  0
    0.4477    0.6853    0.9062 H   0  0  0  0  0  0  0  0  0  0  0  0
   -1.5925    1.7871    0.4147 H   0  0  0  0  0  0  0  0  0  0  0  0
   -3.7730    2.8689    0.0743 H   0  0  0  0  0  0  0  0  0  0  0  0
   -6.6777    2.1886   -0.7405 H   0  0  0  0  0  0  0  0  0  0  0  0
   -6.0884   -1.7657   -1.2708 H   0  0  0  0  0  0  0  0  0  0  0  0
   -3.2829   -2.0621   -0.6415 H   0  0  0  0  0  0  0  0  0  0  0  0
  1  2  1  0
  2  3  1  0
  3  4  2  0
  4  5  1  0
  5  6  2  0
  6  7  1  0
  7  8  1  0
  7  9  2  0
  2 10  1  0
 10 11  1  0
 11 12  2  0
 12 13  1  0
 13 14  2  0
 14 15  1  0
 15 16  2  0
 16 17  1  0
 17 18  2  0
 18 19  1  0
 19 20  1  0
 20 21  2  0
 12 22  1  0
 22 23  2  0
  9  3  1  0
 23 10  1  0
 21 13  1  0
 20 16  1  0
  1 24  1  0
  1 25  1  0
  1 26  1  0
  2 27  1  6
  4 28  1  0
  5 29  1  0
  6 30  1  0
  9 31  1  0
 11 32  1  0
 14 33  1  0
 15 34  1  0
 17 35  1  0
 19 36  1  0
 21 37  1  0
M  END
$$$$
OCNT-2311132
     RDKit          3D

 40 43  0  0  0  0  0  0  0  0999 V2000
    5.5071    0.1110   -0.1627 C   0  0  0  0  0  0  0  0  0  0  0  0
    4.5391   -0.8985   -0.4882 N   0  0  0  0  0  0  0  0  0  0  0  0
    4.9324   -2.1127   -0.8983 N   0  0  0  0  0  0  0  0  0  0  0  0
    3.8126   -2.7872   -1.1094 N   0  0  0  0  0  0  0  0  0  0  0  0
    2.7138   -2.0100   -0.8429 N   0  0  0  0  0  0  0  0  0  0  0  0
    3.1704   -0.8337   -0.4611 C   0  0  0  0  0  0  0  0  0  0  0  0
    2.3761    0.3724   -0.0627 C   0  0  0  0  0  0  0  0  0  0  0  0
    2.0805    0.3717    1.4482 C   0  0  0  0  0  0  0  0  0  0  0  0
    0.9387   -0.5757    1.8095 C   0  0  0  0  0  0  0  0  0  0  0  0
   -0.2395   -0.2601    1.0138 N   0  0  0  0  0  0  0  0  0  0  0  0
   -1.2296    0.5368    1.5859 C   0  0  0  0  0  0  0  0  0  0  0  0
   -1.1156    1.0619    2.6926 O   0  0  0  0  0  0  0  0  0  0  0  0
   -2.4722    0.8041    0.8476 C   0  0  0  0  0  0  0  0  0  0  0  0
   -2.9600    2.1143    0.7539 C   0  0  0  0  0  0  0  0  0  0  0  0
   -4.1520    2.3711    0.0866 C   0  0  0  0  0  0  0  0  0  0  0  0
   -4.5882    3.6346   -0.0036 F   0  0  0  0  0  0  0  0  0  0  0  0
   -4.9126    1.3517   -0.4938 C   0  0  0  0  0  0  0  0  0  0  0  0
   -4.4530    0.0277   -0.3815 C   0  0  0  0  0  0  0  0  0  0  0  0
   -3.2534   -0.2107    0.2885 C   0  0  0  0  0  0  0  0  0  0  0  0
   -2.9913   -1.5499    0.3015 O   0  0  0  0  0  0  0  0  0  0  0  0
   -4.0043   -2.1659   -0.3589 C   0  0  0  0  0  0  0  0  0  0  0  0
   -4.9252   -1.2448   -0.8001 C   0  0  0  0  0  0  0  0  0  0  0  0
   -0.0418   -0.4146   -0.4265 C   0  0  0  0  0  0  0  0  0  0  0  0
    1.0853    0.5112   -0.8956 C   0  0  0  0  0  0  0  0  0  0  0  0
    5.2244    0.5843    0.7804 H   0  0  0  0  0  0  0  0  0  0  0  0
    5.5221    0.8460   -0.9709 H   0  0  0  0  0  0  0  0  0  0  0  0
    6.4936   -0.3480   -0.0567 H   0  0  0  0  0  0  0  0  0  0  0  0
    2.9892    1.2567   -0.2826 H   0  0  0  0  0  0  0  0  0  0  0  0
    2.9745    0.1100    2.0264 H   0  0  0  0  0  0  0  0  0  0  0  0
    1.7978    1.3906    1.7443 H   0  0  0  0  0  0  0  0  0  0  0  0
    1.2123   -1.6182    1.6115 H   0  0  0  0  0  0  0  0  0  0  0  0
    0.7138   -0.4998    2.8788 H   0  0  0  0  0  0  0  0  0  0  0  0
   -2.4118    2.9367    1.2058 H   0  0  0  0  0  0  0  0  0  0  0  0
   -5.8402    1.5906   -1.0035 H   0  0  0  0  0  0  0  0  0  0  0  0
   -3.9284   -3.2426   -0.4276 H   0  0  0  0  0  0  0  0  0  0  0  0
   -5.8299   -1.4643   -1.3494 H   0  0  0  0  0  0  0  0  0  0  0  0
    0.1892   -1.4661   -0.6236 H   0  0  0  0  0  0  0  0  0  0  0  0
   -0.9435   -0.1687   -0.9900 H   0  0  0  0  0  0  0  0  0  0  0  0
    1.2854    0.3403   -1.9602 H   0  0  0  0  0  0  0  0  0  0  0  0
    0.7341    1.5480   -0.8032 H   0  0  0  0  0  0  0  0  0  0  0  0
  1  2  1  0
  2  3  1  0
  3  4  2  0
  4  5  1  0
  5  6  2  0
  6  7  1  0
  7  8  1  0
  8  9  1  0
  9 10  1  0
 10 11  1  0
 11 12  2  0
 11 13  1  0
 13 14  1  0
 14 15  2  0
 15 16  1  0
 15 17  1  0
 17 18  2  0
 18 19  1  0
 19 20  1  0
 20 21  1  0
 21 22  2  0
 10 23  1  0
 23 24  1  0
  6  2  1  0
 24  7  1  0
 19 13  2  0
 22 18  1  0
  1 25  1  0
  1 26  1  0
  1 27  1  0
  7 28  1  0
  8 29  1  0
  8 30  1  0
  9 31  1  0
  9 32  1  0
 14 33  1  0
 17 34  1  0
 21 35  1  0
 22 36  1  0
 23 37  1  0
 23 38  1  0
 24 39  1  0
 24 40  1  0
M  END
$$$$
OCNT-2311133
     RDKit          3D

 41 43  0  0  0  0  0  0  0  0999 V2000
   -4.6350   -0.6603   -0.8809 C   0  0  0  0  0  0  0  0  0  0  0  0
   -4.3344    0.1464    0.2961 N   0  0  0  0  0  0  0  0  0  0  0  0
   -3.6703   -0.6761    1.3301 C   0  0  0  0  0  0  0  0  0  0  0  0
   -2.8135    0.1283    2.3385 C   0  0  0  0  0  0  0  0  0  0  0  0
   -1.7693    0.9224    1.6559 N   0  0  0  0  0  0  0  0  0  0  0  0
   -0.4423    0.6766    2.0138 C   0  0  0  0  0  0  0  0  0  0  0  0
   -0.0542    0.5801    3.3571 C   0  0  0  0  0  0  0  0  0  0  0  0
    1.1994    0.2754    3.7754 N   0  0  0  0  0  0  0  0  0  0  0  0
    2.0900    0.0873    2.7823 C   0  0  0  0  0  0  0  0  0  0  0  0
    1.7542    0.2443    1.4506 C   0  0  0  0  0  0  0  0  0  0  0  0
    2.7239   -0.0201    0.5126 O   0  0  0  0  0  0  0  0  0  0  0  0
    2.5784    0.7503   -0.6787 C   0  0  0  0  0  0  0  0  0  0  0  0
    3.2199   -0.0306   -1.8014 C   0  0  0  0  0  0  0  0  0  0  0  0
    2.4489   -0.9130   -2.5748 C   0  0  0  0  0  0  0  0  0  0  0  0
    3.0363   -1.6534   -3.6023 C   0  0  0  0  0  0  0  0  0  0  0  0
    4.3993   -1.5242   -3.8640 C   0  0  0  0  0  0  0  0  0  0  0  0
    5.1743   -0.6566   -3.0921 C   0  0  0  0  0  0  0  0  0  0  0  0
    6.8574   -0.4933   -3.4180 Cl  0  0  0  0  0  0  0  0  0  0  0  0
    4.5958    0.0844   -2.0605 C   0  0  0  0  0  0  0  0  0  0  0  0
    0.4940    0.5322    1.0482 N   0  0  0  0  0  0  0  0  0  0  0  0
   -2.0034    1.1638    0.2222 C   0  0  0  0  0  0  0  0  0  0  0  0
   -3.5160    1.3289   -0.0443 C   0  0  0  0  0  0  0  0  0  0  0  0
   -5.2116   -0.0772   -1.6099 H   0  0  0  0  0  0  0  0  0  0  0  0
   -5.2550   -1.5186   -0.6081 H   0  0  0  0  0  0  0  0  0  0  0  0
   -3.7278   -1.0346   -1.3718 H   0  0  0  0  0  0  0  0  0  0  0  0
   -3.0118   -1.4176    0.8633 H   0  0  0  0  0  0  0  0  0  0  0  0
   -4.4398   -1.2288    1.8792 H   0  0  0  0  0  0  0  0  0  0  0  0
   -2.3959   -0.5849    3.0601 H   0  0  0  0  0  0  0  0  0  0  0  0
   -3.4561    0.8147    2.9033 H   0  0  0  0  0  0  0  0  0  0  0  0
   -0.7665    0.7559    4.1552 H   0  0  0  0  0  0  0  0  0  0  0  0
    3.0893   -0.2051    3.0802 H   0  0  0  0  0  0  0  0  0  0  0  0
    3.1064    1.7056   -0.5421 H   0  0  0  0  0  0  0  0  0  0  0  0
    1.5392    0.9929   -0.9634 H   0  0  0  0  0  0  0  0  0  0  0  0
    1.3779   -1.0266   -2.3798 H   0  0  0  0  0  0  0  0  0  0  0  0
    2.4267   -2.3320   -4.1988 H   0  0  0  0  0  0  0  0  0  0  0  0
    4.8505   -2.1009   -4.6675 H   0  0  0  0  0  0  0  0  0  0  0  0
    5.2131    0.7501   -1.4619 H   0  0  0  0  0  0  0  0  0  0  0  0
   -1.6231    0.3339   -0.3848 H   0  0  0  0  0  0  0  0  0  0  0  0
   -1.4841    2.0776   -0.0925 H   0  0  0  0  0  0  0  0  0  0  0  0
   -3.8827    2.1551    0.5805 H   0  0  0  0  0  0  0  0  0  0  0  0
   -3.6822    1.6478   -1.0820 H   0  0  0  0  0  0  0  0  0  0  0  0
  1  2  1  0
  2  3  1  0
  3  4  1  0
  4  5  1  0
  5  6  1  0
  6  7  2  0
  7  8  1  0
  8  9  2  0
  9 10  1  0
 10 11  1  0
 11 12  1  0
 12 13  1  0
 13 14  2  0
 14 15  1  0
 15 16  2  0
 16 17  1  0
 17 18  1  0
 17 19  2  0
 10 20  2  0
  5 21  1  0
 21 22  1  0
 22  2  1  0
 20  6  1  0
 19 13  1  0
  1 23  1  0
  1 24  1  0
  1 25  1  0
  3 26  1  0
  3 27  1  0
  4 28  1  0
  4 29  1  0
  7 30  1  0
  9 31  1  0
 12 32  1  0
 12 33  1  0
 14 34  1  0
 15 35  1  0
 16 36  1  0
 19 37  1  0
 21 38  1  0
 21 39  1  0
 22 40  1  0
 22 41  1  0
M  END
$$$$
OCNT-2311138
     RDKit          3D

  0  0  0  0  0  0  0  0  0  0999 V3000
M  V30 BEGIN CTAB
M  V30 COUNTS 44 47 0 0 0
M  V30 BEGIN ATOM
M  V30 1 C 6.807931 0.021880 -0.971837 0
M  V30 2 O 5.784798 -0.467167 -0.117059 0
M  V30 3 C 4.518811 0.080142 -0.227568 0
M  V30 4 C 4.159159 1.050156 -1.097179 0
M  V30 5 C 2.800330 1.557537 -1.099086 0
M  V30 6 C 1.860330 1.069439 -0.272702 0
M  V30 7 C 2.188795 0.015183 0.630294 0
M  V30 8 C 1.496580 -0.723266 1.576468 0
M  V30 9 C 0.098365 -0.691261 1.954611 0
M  V30 10 O -0.291930 -1.042635 3.065226 0
M  V30 11 N -0.771585 -0.299474 0.967263 0
M  V30 12 C -2.216159 -0.306724 1.167702 0 CFG=1
M  V30 13 C -2.840633 0.662703 0.182562 0
M  V30 14 C -2.671789 2.044352 0.384233 0
M  V30 15 C -3.200444 2.966708 -0.517237 0
M  V30 16 C -3.902670 2.521355 -1.632427 0
M  V30 17 C -4.075409 1.154294 -1.847374 0
M  V30 18 C -3.540791 0.213714 -0.953166 0
M  V30 19 C -3.796172 -1.252219 -1.205510 0
M  V30 20 C -2.895712 -2.179269 -0.398447 0
M  V30 21 C -2.828281 -1.732326 1.058791 0 CFG=1
M  V30 22 O -2.097610 -2.719089 1.790587 0
M  V30 23 C 2.486687 -1.535413 2.161667 0
M  V30 24 N 3.688454 -1.387128 1.611683 0
M  V30 25 N 3.524451 -0.431507 0.651453 0
M  V30 26 H 7.729212 -0.520700 -0.739876 0
M  V30 27 H 6.991082 1.086673 -0.795022 0
M  V30 28 H 6.563355 -0.164544 -2.022548 0
M  V30 29 H 4.846928 1.498188 -1.803615 0
M  V30 30 H 2.566235 2.367815 -1.784297 0
M  V30 31 H 0.862844 1.498458 -0.279853 0
M  V30 32 H -0.437206 -0.308724 0.013879 0
M  V30 33 H -2.404810 0.048884 2.189582 0
M  V30 34 H -2.121976 2.406043 1.251668 0
M  V30 35 H -3.067002 4.031995 -0.347422 0
M  V30 36 H -4.321790 3.238472 -2.333660 0
M  V30 37 H -4.636679 0.823337 -2.719232 0
M  V30 38 H -3.663878 -1.474364 -2.271247 0
M  V30 39 H -4.843850 -1.459645 -0.953334 0
M  V30 40 H -3.263866 -3.210280 -0.466125 0
M  V30 41 H -1.885794 -2.198789 -0.828826 0
M  V30 42 H -3.844520 -1.716105 1.472813 0
M  V30 43 H -1.720158 -2.287861 2.585849 0
M  V30 44 H 2.366368 -2.248838 2.968317 0
M  V30 END ATOM
M  V30 BEGIN BOND
M  V30 1 1 1 2
M  V30 2 1 2 3
M  V30 3 2 3 4
M  V30 4 1 4 5
M  V30 5 2 5 6
M  V30 6 1 6 7
M  V30 7 2 7 8
M  V30 8 1 8 9
M  V30 9 2 9 10
M  V30 10 1 9 11
M  V30 11 1 11 12
M  V30 12 1 12 13
M  V30 13 2 13 14
M  V30 14 1 14 15
M  V30 15 2 15 16
M  V30 16 1 16 17
M  V30 17 2 17 18
M  V30 18 1 18 19
M  V30 19 1 19 20
M  V30 20 1 20 21
M  V30 21 1 21 22
M  V30 22 1 8 23
M  V30 23 2 23 24
M  V30 24 1 24 25
M  V30 25 1 25 3
M  V30 26 1 25 7
M  V30 27 1 21 12
M  V30 28 1 18 13
M  V30 29 1 1 26
M  V30 30 1 1 27
M  V30 31 1 1 28
M  V30 32 1 4 29
M  V30 33 1 5 30
M  V30 34 1 6 31
M  V30 35 1 11 32
M  V30 36 1 12 33 CFG=1
M  V30 37 1 14 34
M  V30 38 1 15 35
M  V30 39 1 16 36
M  V30 40 1 17 37
M  V30 41 1 19 38
M  V30 42 1 19 39
M  V30 43 1 20 40
M  V30 44 1 20 41
M  V30 45 1 21 42 CFG=1
M  V30 46 1 22 43
M  V30 47 1 23 44
M  V30 END BOND
M  V30 BEGIN COLLECTION
M  V30 MDLV30/STERAC1 ATOMS=(2 12 21)
M  V30 END COLLECTION
M  V30 END CTAB
M  END
>  <_CXSMILES_Data>  (434) 
|&1:11,20|

$$$$
OCNT-2311148
     RDKit          3D

 49 52  0  0  0  0  0  0  0  0999 V2000
   -6.1587   -0.0580   -0.7562 C   0  0  0  0  0  0  0  0  0  0  0  0
   -5.4636    0.0753    0.5649 C   0  0  0  0  0  0  0  0  0  0  0  0
   -6.1982    0.2367    1.7348 C   0  0  0  0  0  0  0  0  0  0  0  0
   -5.6542    0.3444    2.9659 N   0  0  0  0  0  0  0  0  0  0  0  0
   -4.3099    0.2862    3.0345 C   0  0  0  0  0  0  0  0  0  0  0  0
   -3.4828    0.1222    1.9346 C   0  0  0  0  0  0  0  0  0  0  0  0
   -4.0681    0.0078    0.6768 C   0  0  0  0  0  0  0  0  0  0  0  0
   -3.3919   -0.1534   -0.5023 O   0  0  0  0  0  0  0  0  0  0  0  0
   -1.9763   -0.3784   -0.4844 C   0  0  0  0  0  0  0  0  0  0  0  0
   -1.2109    0.9499   -0.4121 C   0  0  0  0  0  0  0  0  0  0  0  0
   -0.8427    1.4701   -1.8003 C   0  0  0  0  0  0  0  0  0  0  0  0
   -0.0600    0.5194   -2.5949 N   0  0  0  0  0  0  0  0  0  0  0  0
    1.3221    0.9339   -2.8633 C   0  0  0  0  0  0  0  0  0  0  0  0
    2.2052    0.8948   -1.6612 C   0  0  0  0  0  0  0  0  0  0  0  0
    3.1772   -0.0206   -1.3168 C   0  0  0  0  0  0  0  0  0  0  0  0
    3.6803    0.4250   -0.1165 N   0  0  0  0  0  0  0  0  0  0  0  0
    4.7007   -0.1446    0.6875 C   0  0  0  0  0  0  0  0  0  0  0  0
    5.0432    0.4648    1.9049 C   0  0  0  0  0  0  0  0  0  0  0  0
    6.0461   -0.0835    2.7078 C   0  0  0  0  0  0  0  0  0  0  0  0
    6.7129   -1.2377    2.3028 C   0  0  0  0  0  0  0  0  0  0  0  0
    6.3785   -1.8474    1.0946 C   0  0  0  0  0  0  0  0  0  0  0  0
    5.3741   -1.3070    0.2857 C   0  0  0  0  0  0  0  0  0  0  0  0
    3.0364    1.5636    0.2421 N   0  0  0  0  0  0  0  0  0  0  0  0
    2.1542    1.8658   -0.6994 N   0  0  0  0  0  0  0  0  0  0  0  0
   -0.2163   -0.8838   -2.2210 C   0  0  0  0  0  0  0  0  0  0  0  0
   -1.6423   -1.1642   -1.7616 C   0  0  0  0  0  0  0  0  0  0  0  0
   -5.7531    0.6547   -1.4797 H   0  0  0  0  0  0  0  0  0  0  0  0
   -7.2328    0.1411   -0.6692 H   0  0  0  0  0  0  0  0  0  0  0  0
   -6.0341   -1.0741   -1.1442 H   0  0  0  0  0  0  0  0  0  0  0  0
   -7.2838    0.2822    1.7166 H   0  0  0  0  0  0  0  0  0  0  0  0
   -3.8939    0.3843    4.0335 H   0  0  0  0  0  0  0  0  0  0  0  0
   -2.4119    0.1006    2.0928 H   0  0  0  0  0  0  0  0  0  0  0  0
   -1.7008   -1.0133    0.3667 H   0  0  0  0  0  0  0  0  0  0  0  0
   -1.7938    1.7162    0.1109 H   0  0  0  0  0  0  0  0  0  0  0  0
   -0.2919    0.7981    0.1666 H   0  0  0  0  0  0  0  0  0  0  0  0
   -1.7702    1.6763   -2.3502 H   0  0  0  0  0  0  0  0  0  0  0  0
   -0.3410    2.4412   -1.7101 H   0  0  0  0  0  0  0  0  0  0  0  0
    1.3303    1.9454   -3.2874 H   0  0  0  0  0  0  0  0  0  0  0  0
    1.7426    0.2892   -3.6457 H   0  0  0  0  0  0  0  0  0  0  0  0
    3.5245   -0.9133   -1.8115 H   0  0  0  0  0  0  0  0  0  0  0  0
    4.5405    1.3684    2.2447 H   0  0  0  0  0  0  0  0  0  0  0  0
    6.3075    0.3932    3.6495 H   0  0  0  0  0  0  0  0  0  0  0  0
    7.4952   -1.6612    2.9295 H   0  0  0  0  0  0  0  0  0  0  0  0
    6.9038   -2.7465    0.7811 H   0  0  0  0  0  0  0  0  0  0  0  0
    5.1492   -1.8135   -0.6466 H   0  0  0  0  0  0  0  0  0  0  0  0
    0.4683   -1.1745   -1.4159 H   0  0  0  0  0  0  0  0  0  0  0  0
    0.0140   -1.5154   -3.0860 H   0  0  0  0  0  0  0  0  0  0  0  0
   -1.7715   -2.2370   -1.5685 H   0  0  0  0  0  0  0  0  0  0  0  0
   -2.3521   -0.9234   -2.5655 H   0  0  0  0  0  0  0  0  0  0  0  0
  1  2  1  0
  2  3  2  0
  3  4  1  0
  4  5  2  0
  5  6  1  0
  6  7  2  0
  7  8  1  0
  8  9  1  0
  9 10  1  0
 10 11  1  0
 11 12  1  0
 12 13  1  0
 13 14  1  0
 14 15  2  0
 15 16  1  0
 16 17  1  0
 17 18  2  0
 18 19  1  0
 19 20  2  0
 20 21  1  0
 21 22  2  0
 16 23  1  0
 23 24  2  0
 12 25  1  0
 25 26  1  0
  7  2  1  0
 26  9  1  0
 24 14  1  0
 22 17  1  0
  1 27  1  0
  1 28  1  0
  1 29  1  0
  3 30  1  0
  5 31  1  0
  6 32  1  0
  9 33  1  0
 10 34  1  0
 10 35  1  0
 11 36  1  0
 11 37  1  0
 13 38  1  0
 13 39  1  0
 15 40  1  0
 18 41  1  0
 19 42  1  0
 20 43  1  0
 21 44  1  0
 22 45  1  0
 25 46  1  0
 25 47  1  0
 26 48  1  0
 26 49  1  0
M  END
$$$$
OCNT-2311155
     RDKit          3D

 42 44  0  0  0  0  0  0  0  0999 V2000
    7.0397    0.2466    1.5403 C   0  0  0  0  0  0  0  0  0  0  0  0
    5.8236    0.3921    0.7065 C   0  0  0  0  0  0  0  0  0  0  0  0
    5.6898   -0.3182   -0.4179 N   0  0  0  0  0  0  0  0  0  0  0  0
    4.4943    0.0613   -0.9116 N   0  0  0  0  0  0  0  0  0  0  0  0
    4.0211   -0.5399   -2.1370 C   0  0  0  0  0  0  0  0  0  0  0  0
    3.8521    0.9874   -0.1283 C   0  0  0  0  0  0  0  0  0  0  0  0
    2.5211    1.5682   -0.4440 C   0  0  0  0  0  0  0  0  0  0  0  0
    1.4754    0.5524   -0.5032 N   0  0  0  0  0  0  0  0  0  0  0  0
    1.1885   -0.0142    0.8197 C   0  0  0  0  0  0  0  0  0  0  0  0
   -0.0503   -0.8492    0.6960 C   0  0  0  0  0  0  0  0  0  0  0  0
   -0.1249   -2.2264    0.7334 C   0  0  0  0  0  0  0  0  0  0  0  0
   -1.7451   -2.7318    0.5357 S   0  0  0  0  0  0  0  0  0  0  0  0
   -2.2526   -1.0879    0.3994 C   0  0  0  0  0  0  0  0  0  0  0  0
   -3.6689   -0.7135    0.1963 C   0  0  0  0  0  0  0  0  0  0  0  0
   -4.0214    0.6468    0.2421 C   0  0  0  0  0  0  0  0  0  0  0  0
   -5.3436    1.0658    0.0560 C   0  0  0  0  0  0  0  0  0  0  0  0
   -6.3564    0.1313   -0.1913 C   0  0  0  0  0  0  0  0  0  0  0  0
   -7.7872    0.5765   -0.3709 C   0  0  0  0  0  0  0  0  0  0  0  0
   -7.8961    1.8104   -0.9379 F   0  0  0  0  0  0  0  0  0  0  0  0
   -8.5119   -0.2610   -1.1643 F   0  0  0  0  0  0  0  0  0  0  0  0
   -8.4591    0.6469    0.8109 F   0  0  0  0  0  0  0  0  0  0  0  0
   -6.0184   -1.2278   -0.2327 C   0  0  0  0  0  0  0  0  0  0  0  0
   -4.6931   -1.6431   -0.0456 C   0  0  0  0  0  0  0  0  0  0  0  0
   -1.2709   -0.2095    0.5046 N   0  0  0  0  0  0  0  0  0  0  0  0
    4.7047    1.2224    0.9317 C   0  0  0  0  0  0  0  0  0  0  0  0
    6.9974    0.9002    2.4173 H   0  0  0  0  0  0  0  0  0  0  0  0
    7.9337    0.5088    0.9655 H   0  0  0  0  0  0  0  0  0  0  0  0
    7.1431   -0.7849    1.8918 H   0  0  0  0  0  0  0  0  0  0  0  0
    3.3416   -1.3549   -1.8772 H   0  0  0  0  0  0  0  0  0  0  0  0
    4.8751   -0.9289   -2.6985 H   0  0  0  0  0  0  0  0  0  0  0  0
    3.5123    0.2168   -2.7381 H   0  0  0  0  0  0  0  0  0  0  0  0
    2.5784    2.0671   -1.4190 H   0  0  0  0  0  0  0  0  0  0  0  0
    2.2586    2.3499    0.2798 H   0  0  0  0  0  0  0  0  0  0  0  0
    0.6099    0.9958   -0.8198 H   0  0  0  0  0  0  0  0  0  0  0  0
    2.0198   -0.6339    1.1735 H   0  0  0  0  0  0  0  0  0  0  0  0
    1.0045    0.7746    1.5590 H   0  0  0  0  0  0  0  0  0  0  0  0
    0.6787   -2.9379    0.8590 H   0  0  0  0  0  0  0  0  0  0  0  0
   -3.2551    1.3990    0.4289 H   0  0  0  0  0  0  0  0  0  0  0  0
   -5.5754    2.1291    0.1035 H   0  0  0  0  0  0  0  0  0  0  0  0
   -6.7880   -1.9775   -0.4152 H   0  0  0  0  0  0  0  0  0  0  0  0
   -4.4865   -2.7096   -0.0975 H   0  0  0  0  0  0  0  0  0  0  0  0
    4.5414    1.9008    1.7571 H   0  0  0  0  0  0  0  0  0  0  0  0
  1  2  1  0
  2  3  2  0
  3  4  1  0
  4  5  1  0
  4  6  1  0
  6  7  1  0
  7  8  1  0
  8  9  1  0
  9 10  1  0
 10 11  2  0
 11 12  1  0
 12 13  1  0
 13 14  1  0
 14 15  1  0
 15 16  2  0
 16 17  1  0
 17 18  1  0
 18 19  1  0
 18 20  1  0
 18 21  1  0
 17 22  2  0
 22 23  1  0
 13 24  2  0
  6 25  2  0
 25  2  1  0
 24 10  1  0
 23 14  2  0
  1 26  1  0
  1 27  1  0
  1 28  1  0
  5 29  1  0
  5 30  1  0
  5 31  1  0
  7 32  1  0
  7 33  1  0
  8 34  1  0
  9 35  1  0
  9 36  1  0
 11 37  1  0
 15 38  1  0
 16 39  1  0
 22 40  1  0
 23 41  1  0
 25 42  1  0
M  END
$$$$
OCNT-2311160
     RDKit          3D

  0  0  0  0  0  0  0  0  0  0999 V3000
M  V30 BEGIN CTAB
M  V30 COUNTS 44 47 0 0 0
M  V30 BEGIN ATOM
M  V30 1 C -5.614198 -1.012966 -0.873258 0
M  V30 2 N -4.265684 -0.740301 -0.426257 0
M  V30 3 C -3.186417 -1.533307 -0.688433 0
M  V30 4 C -2.060295 -0.961865 -0.120116 0
M  V30 5 C -0.731541 -1.553948 -0.239154 0
M  V30 6 O -0.558252 -2.753999 -0.426315 0
M  V30 7 N 0.310062 -0.664283 -0.161609 0
M  V30 8 C 1.700084 -1.086781 -0.317439 0 CFG=1
M  V30 9 C 2.561487 0.077908 -0.788083 0
M  V30 10 C 2.145204 0.848294 -1.891759 0
M  V30 11 C 2.914561 1.915154 -2.355422 0
M  V30 12 C 4.118684 2.222890 -1.732521 0
M  V30 13 C 4.561104 1.453544 -0.657897 0
M  V30 14 C 3.803304 0.367207 -0.191650 0
M  V30 15 C 4.330625 -0.439056 0.968944 0
M  V30 16 C 3.721738 -1.837071 1.031546 0
M  V30 17 C 2.202050 -1.762282 0.989717 0 CFG=1
M  V30 18 O 1.749884 -1.051653 2.154158 0
M  V30 19 C -2.507799 0.222326 0.564773 0
M  V30 20 C -1.884776 1.197271 1.376947 0
M  V30 21 C -2.643518 2.249805 1.889414 0
M  V30 22 F -2.043288 3.172627 2.653376 0
M  V30 23 C -3.999901 2.362907 1.632667 0
M  V30 24 C -4.649690 1.405389 0.853468 0
M  V30 25 C -3.887073 0.342450 0.337387 0
M  V30 26 H -6.253867 -1.124428 0.005954 0
M  V30 27 H -5.627061 -1.935503 -1.459331 0
M  V30 28 H -5.948160 -0.176985 -1.493096 0
M  V30 29 H -3.281438 -2.443490 -1.268743 0
M  V30 30 H 0.118722 0.327206 -0.146496 0
M  V30 31 H 1.745750 -1.841586 -1.114837 0
M  V30 32 H 1.213183 0.615330 -2.403773 0
M  V30 33 H 2.574615 2.503736 -3.203468 0
M  V30 34 H 4.718801 3.056576 -2.087297 0
M  V30 35 H 5.509462 1.700987 -0.184989 0
M  V30 36 H 4.123177 0.108844 1.896166 0
M  V30 37 H 5.419626 -0.540582 0.885826 0
M  V30 38 H 4.085345 -2.445087 0.193867 0
M  V30 39 H 4.051039 -2.320550 1.958811 0
M  V30 40 H 1.783084 -2.772423 1.065745 0
M  V30 41 H 0.783089 -0.983475 2.060372 0
M  V30 42 H -0.831941 1.150454 1.633637 0
M  V30 43 H -4.553966 3.197165 2.052408 0
M  V30 44 H -5.715817 1.483550 0.663751 0
M  V30 END ATOM
M  V30 BEGIN BOND
M  V30 1 1 1 2
M  V30 2 1 2 3
M  V30 3 2 3 4
M  V30 4 1 4 5
M  V30 5 2 5 6
M  V30 6 1 5 7
M  V30 7 1 7 8
M  V30 8 1 8 9
M  V30 9 2 9 10
M  V30 10 1 10 11
M  V30 11 2 11 12
M  V30 12 1 12 13
M  V30 13 2 13 14
M  V30 14 1 14 15
M  V30 15 1 15 16
M  V30 16 1 16 17
M  V30 17 1 17 18
M  V30 18 1 4 19
M  V30 19 2 19 20
M  V30 20 1 20 21
M  V30 21 1 21 22
M  V30 22 2 21 23
M  V30 23 1 23 24
M  V30 24 2 24 25
M  V30 25 1 25 2
M  V30 26 1 17 8
M  V30 27 1 25 19
M  V30 28 1 14 9
M  V30 29 1 1 26
M  V30 30 1 1 27
M  V30 31 1 1 28
M  V30 32 1 3 29
M  V30 33 1 7 30
M  V30 34 1 8 31 CFG=3
M  V30 35 1 10 32
M  V30 36 1 11 33
M  V30 37 1 12 34
M  V30 38 1 13 35
M  V30 39 1 15 36
M  V30 40 1 15 37
M  V30 41 1 16 38
M  V30 42 1 16 39
M  V30 43 1 17 40 CFG=1
M  V30 44 1 18 41
M  V30 45 1 20 42
M  V30 46 1 23 43
M  V30 47 1 24 44
M  V30 END BOND
M  V30 BEGIN COLLECTION
M  V30 MDLV30/STERAC1 ATOMS=(2 8 17)
M  V30 END COLLECTION
M  V30 END CTAB
M  END
>  <_CXSMILES_Data>  (437) 
|&1:7,16|

$$$$
OCNT-2311187
     RDKit          3D

 43 45  0  0  0  0  0  0  0  0999 V2000
    5.8269   -1.1391    0.0482 C   0  0  0  0  0  0  0  0  0  0  0  0
    4.7553   -0.2413   -0.4967 C   0  0  0  0  0  0  0  0  0  0  0  0
    4.4735   -0.2248   -1.8698 C   0  0  0  0  0  0  0  0  0  0  0  0
    3.4648    0.5955   -2.3817 C   0  0  0  0  0  0  0  0  0  0  0  0
    2.7139    1.3977   -1.5247 C   0  0  0  0  0  0  0  0  0  0  0  0
    2.9719    1.3613   -0.1523 C   0  0  0  0  0  0  0  0  0  0  0  0
    2.0227    2.3732    0.9552 S   0  0  0  0  0  0  0  0  0  0  0  0
    1.2546    3.3129    0.1680 O   0  0  0  0  0  0  0  0  0  0  0  0
    2.8990    2.8089    2.0196 O   0  0  0  0  0  0  0  0  0  0  0  0
    0.9530    1.2800    1.6286 N   0  0  0  0  0  0  0  0  0  0  0  0
    0.0392    0.5223    0.7542 C   0  0  0  0  0  0  0  0  0  0  0  0
   -1.0892   -0.0815    1.6127 C   0  0  0  0  0  0  0  0  0  0  0  0
   -0.5039   -0.9589    2.5936 O   0  0  0  0  0  0  0  0  0  0  0  0
   -2.1033   -0.8252    0.7580 C   0  0  0  0  0  0  0  0  0  0  0  0
   -1.8926   -2.1931    0.4914 C   0  0  0  0  0  0  0  0  0  0  0  0
   -2.7864   -2.9184   -0.2874 C   0  0  0  0  0  0  0  0  0  0  0  0
   -3.9026   -2.2878   -0.8254 C   0  0  0  0  0  0  0  0  0  0  0  0
   -4.1353   -0.9234   -0.6051 C   0  0  0  0  0  0  0  0  0  0  0  0
   -5.2621   -0.3098   -1.1770 C   0  0  0  0  0  0  0  0  0  0  0  0
   -5.5137    1.0473   -0.9910 C   0  0  0  0  0  0  0  0  0  0  0  0
   -4.6382    1.8094   -0.2315 C   0  0  0  0  0  0  0  0  0  0  0  0
   -3.5145    1.2130    0.3474 C   0  0  0  0  0  0  0  0  0  0  0  0
   -3.2322   -0.1654    0.1860 C   0  0  0  0  0  0  0  0  0  0  0  0
    3.9903    0.5532    0.3655 C   0  0  0  0  0  0  0  0  0  0  0  0
    5.4033   -2.1160    0.3006 H   0  0  0  0  0  0  0  0  0  0  0  0
    6.6289   -1.2791   -0.6841 H   0  0  0  0  0  0  0  0  0  0  0  0
    6.2796   -0.7062    0.9464 H   0  0  0  0  0  0  0  0  0  0  0  0
    5.0477   -0.8472   -2.5537 H   0  0  0  0  0  0  0  0  0  0  0  0
    3.2680    0.6098   -3.4512 H   0  0  0  0  0  0  0  0  0  0  0  0
    1.9353    2.0400   -1.9301 H   0  0  0  0  0  0  0  0  0  0  0  0
    1.3051    0.7764    2.4447 H   0  0  0  0  0  0  0  0  0  0  0  0
    0.6080   -0.2836    0.2764 H   0  0  0  0  0  0  0  0  0  0  0  0
   -0.3766    1.1742   -0.0206 H   0  0  0  0  0  0  0  0  0  0  0  0
   -1.5800    0.7015    2.1996 H   0  0  0  0  0  0  0  0  0  0  0  0
   -1.2517   -1.3764    3.0578 H   0  0  0  0  0  0  0  0  0  0  0  0
   -1.0183   -2.7046    0.8921 H   0  0  0  0  0  0  0  0  0  0  0  0
   -2.6125   -3.9742   -0.4782 H   0  0  0  0  0  0  0  0  0  0  0  0
   -4.5906   -2.8731   -1.4323 H   0  0  0  0  0  0  0  0  0  0  0  0
   -5.9571   -0.8893   -1.7815 H   0  0  0  0  0  0  0  0  0  0  0  0
   -6.3885    1.5071   -1.4429 H   0  0  0  0  0  0  0  0  0  0  0  0
   -4.8233    2.8711   -0.0878 H   0  0  0  0  0  0  0  0  0  0  0  0
   -2.8587    1.8612    0.9237 H   0  0  0  0  0  0  0  0  0  0  0  0
    4.1903    0.5477    1.4354 H   0  0  0  0  0  0  0  0  0  0  0  0
  1  2  1  0
  2  3  1  0
  3  4  2  0
  4  5  1  0
  5  6  2  0
  6  7  1  0
  7  8  2  0
  7  9  2  0
  7 10  1  0
 10 11  1  0
 11 12  1  0
 12 13  1  0
 12 14  1  0
 14 15  2  0
 15 16  1  0
 16 17  2  0
 17 18  1  0
 18 19  2  0
 19 20  1  0
 20 21  2  0
 21 22  1  0
 22 23  2  0
  6 24  1  0
 24  2  2  0
 23 14  1  0
 23 18  1  0
  1 25  1  0
  1 26  1  0
  1 27  1  0
  3 28  1  0
  4 29  1  0
  5 30  1  0
 10 31  1  0
 11 32  1  0
 11 33  1  0
 12 34  1  0
 13 35  1  0
 15 36  1  0
 16 37  1  0
 17 38  1  0
 19 39  1  0
 20 40  1  0
 21 41  1  0
 22 42  1  0
 24 43  1  0
M  END
$$$$
OCNT-2311194
     RDKit          3D

 48 50  0  0  0  0  0  0  0  0999 V2000
    4.6407    0.7720    0.8253 C   0  0  0  0  0  0  0  0  0  0  0  0
    3.9381   -0.5762    0.6305 C   0  0  0  0  0  0  0  0  0  0  0  0
    3.6763   -1.2848    1.9643 C   0  0  0  0  0  0  0  0  0  0  0  0
    4.8340   -1.4756   -0.2349 C   0  0  0  0  0  0  0  0  0  0  0  0
    2.7152   -0.4286   -0.1358 O   0  0  0  0  0  0  0  0  0  0  0  0
    1.6895    0.3126    0.3390 C   0  0  0  0  0  0  0  0  0  0  0  0
    1.6629    0.9164    1.3987 O   0  0  0  0  0  0  0  0  0  0  0  0
    0.6706    0.2692   -0.5580 N   0  0  0  0  0  0  0  0  0  0  0  0
   -0.5963    0.9281   -0.3421 C   0  0  0  0  0  0  0  0  0  0  0  0
   -1.2041    1.2752   -1.6744 C   0  0  0  0  0  0  0  0  0  0  0  0
   -0.8441    2.3048   -2.5306 C   0  0  0  0  0  0  0  0  0  0  0  0
   -1.5191    2.4238   -3.7468 C   0  0  0  0  0  0  0  0  0  0  0  0
   -2.5294    1.5138   -4.0945 C   0  0  0  0  0  0  0  0  0  0  0  0
   -2.8791    0.4737   -3.2308 C   0  0  0  0  0  0  0  0  0  0  0  0
   -2.2122    0.3719   -2.0216 C   0  0  0  0  0  0  0  0  0  0  0  0
   -2.3914   -0.6639   -0.9555 C   0  0  0  0  0  0  0  0  0  0  0  0
   -1.7094    0.0072    0.2815 C   0  0  0  0  0  0  0  0  0  0  0  0
   -1.1720   -1.0669    1.2474 C   0  0  0  0  0  0  0  0  0  0  0  0
   -2.2948   -1.9181    1.8542 C   0  0  0  0  0  0  0  0  0  0  0  0
   -3.5187   -1.1810    2.1741 N   0  0  0  0  0  0  0  0  0  0  0  0
   -3.2653    0.2446    2.3413 C   0  0  0  0  0  0  0  0  0  0  0  0
   -2.7535    0.8884    1.0482 C   0  0  0  0  0  0  0  0  0  0  0  0
    4.0802    1.4328    1.4933 H   0  0  0  0  0  0  0  0  0  0  0  0
    4.7391    1.3006   -0.1295 H   0  0  0  0  0  0  0  0  0  0  0  0
    5.6394    0.6421    1.2562 H   0  0  0  0  0  0  0  0  0  0  0  0
    4.6136   -1.5456    2.4675 H   0  0  0  0  0  0  0  0  0  0  0  0
    3.0984   -0.6609    2.6526 H   0  0  0  0  0  0  0  0  0  0  0  0
    3.0965   -2.2018    1.8099 H   0  0  0  0  0  0  0  0  0  0  0  0
    5.0141   -1.0186   -1.2151 H   0  0  0  0  0  0  0  0  0  0  0  0
    5.8017   -1.6654    0.2412 H   0  0  0  0  0  0  0  0  0  0  0  0
    4.3483   -2.4392   -0.4280 H   0  0  0  0  0  0  0  0  0  0  0  0
    0.8209   -0.2819   -1.3909 H   0  0  0  0  0  0  0  0  0  0  0  0
   -0.4350    1.8278    0.2618 H   0  0  0  0  0  0  0  0  0  0  0  0
   -0.0535    3.0004   -2.2660 H   0  0  0  0  0  0  0  0  0  0  0  0
   -1.2569    3.2248   -4.4339 H   0  0  0  0  0  0  0  0  0  0  0  0
   -3.0415    1.6187   -5.0481 H   0  0  0  0  0  0  0  0  0  0  0  0
   -3.6555   -0.2332   -3.5055 H   0  0  0  0  0  0  0  0  0  0  0  0
   -3.4487   -0.8895   -0.7872 H   0  0  0  0  0  0  0  0  0  0  0  0
   -1.8693   -1.5794   -1.2570 H   0  0  0  0  0  0  0  0  0  0  0  0
   -0.4652   -1.7376    0.7444 H   0  0  0  0  0  0  0  0  0  0  0  0
   -0.6166   -0.5789    2.0589 H   0  0  0  0  0  0  0  0  0  0  0  0
   -1.9208   -2.3976    2.7662 H   0  0  0  0  0  0  0  0  0  0  0  0
   -2.5518   -2.7335    1.1675 H   0  0  0  0  0  0  0  0  0  0  0  0
   -4.2029   -1.3137    1.4300 H   0  0  0  0  0  0  0  0  0  0  0  0
   -4.1922    0.7418    2.6488 H   0  0  0  0  0  0  0  0  0  0  0  0
   -2.5522    0.4054    3.1596 H   0  0  0  0  0  0  0  0  0  0  0  0
   -3.6093    1.1188    0.4007 H   0  0  0  0  0  0  0  0  0  0  0  0
   -2.3185    1.8571    1.3229 H   0  0  0  0  0  0  0  0  0  0  0  0
  1  2  1  0
  2  3  1  0
  2  4  1  0
  2  5  1  0
  5  6  1  0
  6  7  2  0
  6  8  1  0
  8  9  1  0
  9 10  1  0
 10 11  2  0
 11 12  1  0
 12 13  2  0
 13 14  1  0
 14 15  2  0
 15 16  1  0
 16 17  1  0
 17 18  1  0
 18 19  1  0
 19 20  1  0
 20 21  1  0
 21 22  1  0
 17  9  1  0
 15 10  1  0
 22 17  1  0
  1 23  1  0
  1 24  1  0
  1 25  1  0
  3 26  1  0
  3 27  1  0
  3 28  1  0
  4 29  1  0
  4 30  1  0
  4 31  1  0
  8 32  1  0
  9 33  1  0
 11 34  1  0
 12 35  1  0
 13 36  1  0
 14 37  1  0
 16 38  1  0
 16 39  1  0
 18 40  1  0
 18 41  1  0
 19 42  1  0
 19 43  1  0
 20 44  1  0
 21 45  1  0
 21 46  1  0
 22 47  1  0
 22 48  1  0
M  END
$$$$
OCNT-2311202
     RDKit          3D

 46 48  0  0  0  0  0  0  0  0999 V2000
   -3.2202   -1.4128   -0.8835 C   0  0  0  0  0  0  0  0  0  0  0  0
   -3.7822   -0.2403   -0.1688 N   0  0  0  0  0  0  0  0  0  0  0  0
   -5.1750   -0.3878    0.1732 C   0  0  0  0  0  0  0  0  0  0  0  0
   -5.6064   -1.2294    1.2026 C   0  0  0  0  0  0  0  0  0  0  0  0
   -6.9717   -1.3884    1.4469 C   0  0  0  0  0  0  0  0  0  0  0  0
   -7.9058   -0.7235    0.6525 C   0  0  0  0  0  0  0  0  0  0  0  0
   -7.4773    0.0966   -0.3908 C   0  0  0  0  0  0  0  0  0  0  0  0
   -6.1127    0.2571   -0.6359 C   0  0  0  0  0  0  0  0  0  0  0  0
   -2.8127    0.3644    1.1124 S   0  0  0  0  0  0  0  0  0  0  0  0
   -3.4460    1.5346    1.6854 O   0  0  0  0  0  0  0  0  0  0  0  0
   -2.4060   -0.7482    1.9475 O   0  0  0  0  0  0  0  0  0  0  0  0
   -1.3722    0.9477    0.2441 C   0  0  0  0  0  0  0  0  0  0  0  0
   -1.4424    2.1637   -0.4443 C   0  0  0  0  0  0  0  0  0  0  0  0
   -0.3202    2.6374   -1.1233 C   0  0  0  0  0  0  0  0  0  0  0  0
    0.8695    1.9047   -1.1038 C   0  0  0  0  0  0  0  0  0  0  0  0
    0.9417    0.6986   -0.3904 C   0  0  0  0  0  0  0  0  0  0  0  0
    2.1869   -0.1158   -0.3641 C   0  0  0  0  0  0  0  0  0  0  0  0
    2.0759   -1.3360   -0.3997 O   0  0  0  0  0  0  0  0  0  0  0  0
    3.3551    0.6165   -0.2749 N   0  0  0  0  0  0  0  0  0  0  0  0
    4.6315    0.0869   -0.2672 C   0  0  0  0  0  0  0  0  0  0  0  0
    5.0073   -1.2271   -0.4015 C   0  0  0  0  0  0  0  0  0  0  0  0
    6.3742   -1.2911   -0.3471 N   0  0  0  0  0  0  0  0  0  0  0  0
    6.9021   -0.0335   -0.1552 C   0  0  0  0  0  0  0  0  0  0  0  0
    8.3030    0.2907   -0.0512 C   0  0  0  0  0  0  0  0  0  0  0  0
    9.1322   -0.7545    0.2460 N   0  0  0  0  0  0  0  0  0  0  0  0
    8.7669    1.4182   -0.1779 O   0  0  0  0  0  0  0  0  0  0  0  0
    5.8242    0.8387   -0.1272 C   0  0  0  0  0  0  0  0  0  0  0  0
   -0.1844    0.2138    0.2835 C   0  0  0  0  0  0  0  0  0  0  0  0
   -2.2708   -1.1551   -1.3596 H   0  0  0  0  0  0  0  0  0  0  0  0
   -3.8975   -1.7264   -1.6859 H   0  0  0  0  0  0  0  0  0  0  0  0
   -3.0727   -2.2614   -0.2086 H   0  0  0  0  0  0  0  0  0  0  0  0
   -4.8921   -1.7642    1.8231 H   0  0  0  0  0  0  0  0  0  0  0  0
   -7.3058   -2.0318    2.2569 H   0  0  0  0  0  0  0  0  0  0  0  0
   -8.9686   -0.8465    0.8460 H   0  0  0  0  0  0  0  0  0  0  0  0
   -8.2050    0.6113   -1.0126 H   0  0  0  0  0  0  0  0  0  0  0  0
   -5.7825    0.8936   -1.4517 H   0  0  0  0  0  0  0  0  0  0  0  0
   -2.3679    2.7373   -0.4570 H   0  0  0  0  0  0  0  0  0  0  0  0
   -0.3752    3.5739   -1.6744 H   0  0  0  0  0  0  0  0  0  0  0  0
    1.7217    2.2715   -1.6710 H   0  0  0  0  0  0  0  0  0  0  0  0
    3.2992    1.6179   -0.1456 H   0  0  0  0  0  0  0  0  0  0  0  0
    4.4238   -2.1278   -0.5428 H   0  0  0  0  0  0  0  0  0  0  0  0
    6.9173   -2.1353   -0.4665 H   0  0  0  0  0  0  0  0  0  0  0  0
    8.7771   -1.5506    0.7535 H   0  0  0  0  0  0  0  0  0  0  0  0
   10.0786   -0.4714    0.4680 H   0  0  0  0  0  0  0  0  0  0  0  0
    5.9124    1.9116   -0.0081 H   0  0  0  0  0  0  0  0  0  0  0  0
   -0.1275   -0.7273    0.8283 H   0  0  0  0  0  0  0  0  0  0  0  0
  1  2  1  0
  2  3  1  0
  3  4  2  0
  4  5  1  0
  5  6  2  0
  6  7  1  0
  7  8  2  0
  2  9  1  0
  9 10  2  0
  9 11  2  0
  9 12  1  0
 12 13  2  0
 13 14  1  0
 14 15  2  0
 15 16  1  0
 16 17  1  0
 17 18  2  0
 17 19  1  0
 19 20  1  0
 20 21  2  0
 21 22  1  0
 22 23  1  0
 23 24  1  0
 24 25  1  0
 24 26  2  0
 23 27  2  0
 16 28  2  0
  8  3  1  0
 28 12  1  0
 27 20  1  0
  1 29  1  0
  1 30  1  0
  1 31  1  0
  4 32  1  0
  5 33  1  0
  6 34  1  0
  7 35  1  0
  8 36  1  0
 13 37  1  0
 14 38  1  0
 15 39  1  0
 19 40  1  0
 21 41  1  0
 22 42  1  0
 25 43  1  0
 25 44  1  0
 27 45  1  0
 28 46  1  0
M  END
$$$$
OCNT-2311203
     RDKit          3D

  0  0  0  0  0  0  0  0  0  0999 V3000
M  V30 BEGIN CTAB
M  V30 COUNTS 52 55 0 0 0
M  V30 BEGIN ATOM
M  V30 1 C 7.756443 -0.296358 -2.333500 0
M  V30 2 C 7.190593 1.098452 -2.107310 0
M  V30 3 N 5.839726 1.050008 -1.559953 0
M  V30 4 C 4.781377 0.979440 -2.451226 0
M  V30 5 O 4.904080 0.967139 -3.675168 0
M  V30 6 N 3.526815 0.912882 -1.913721 0
M  V30 7 C 3.265749 0.892432 -0.546829 0
M  V30 8 C 1.947821 0.829069 -0.089921 0
M  V30 9 C 1.696798 0.805454 1.289407 0
M  V30 10 C 0.311582 0.747513 1.828503 0
M  V30 11 O 0.051669 1.260382 2.909103 0
M  V30 12 N -0.612613 0.065601 1.060285 0
M  V30 13 C -1.952002 -0.166346 1.574962 0
M  V30 14 C -2.915703 -0.630819 0.476308 0 CFG=1
M  V30 15 C -2.660806 -2.065151 0.044552 0
M  V30 16 C -3.435038 -2.869291 1.063841 0
M  V30 17 O -4.551479 -2.068918 1.462335 0
M  V30 18 C -4.349406 -0.711420 1.020591 0 CFG=2
M  V30 19 C -5.384375 -0.311587 -0.018436 0
M  V30 20 C -5.532948 1.045336 -0.352166 0
M  V30 21 C -6.464086 1.448388 -1.311429 0
M  V30 22 C -7.260274 0.502131 -1.950764 0
M  V30 23 C -7.130582 -0.846073 -1.626851 0
M  V30 24 C -6.200182 -1.250327 -0.666727 0
M  V30 25 C 2.763395 0.867631 2.196889 0
M  V30 26 C 4.078697 0.924800 1.730801 0
M  V30 27 C 4.324510 0.933897 0.354370 0
M  V30 28 C 5.701743 0.990758 -0.174383 0
M  V30 29 O 6.644419 0.974175 0.613499 0
M  V30 30 H 7.802956 -0.860110 -1.396469 0
M  V30 31 H 7.136428 -0.864496 -3.034094 0
M  V30 32 H 8.768054 -0.233796 -2.745293 0
M  V30 33 H 7.844235 1.649854 -1.422103 0
M  V30 34 H 7.182201 1.646803 -3.056078 0
M  V30 35 H 2.775245 0.878152 -2.590846 0
M  V30 36 H 1.125007 0.828245 -0.798617 0
M  V30 37 H -0.257048 -0.572330 0.360754 0
M  V30 38 H -1.871350 -0.894293 2.390245 0
M  V30 39 H -2.306949 0.775139 2.012042 0
M  V30 40 H -2.820800 0.054571 -0.374873 0
M  V30 41 H -3.094260 -2.225722 -0.950178 0
M  V30 42 H -1.607854 -2.354386 -0.004630 0
M  V30 43 H -3.790835 -3.821997 0.661630 0
M  V30 44 H -2.832483 -3.075195 1.954099 0
M  V30 45 H -4.498867 -0.068968 1.896934 0
M  V30 46 H -4.923953 1.800777 0.139883 0
M  V30 47 H -6.570150 2.501873 -1.557110 0
M  V30 48 H -7.987990 0.814671 -2.695461 0
M  V30 49 H -7.757991 -1.586129 -2.117326 0
M  V30 50 H -6.123800 -2.307929 -0.423555 0
M  V30 51 H 2.570583 0.869539 3.268969 0
M  V30 52 H 4.903698 0.966527 2.439519 0
M  V30 END ATOM
M  V30 BEGIN BOND
M  V30 1 1 1 2
M  V30 2 1 2 3
M  V30 3 1 3 4
M  V30 4 2 4 5
M  V30 5 1 4 6
M  V30 6 1 6 7
M  V30 7 1 7 8
M  V30 8 2 8 9
M  V30 9 1 9 10
M  V30 10 2 10 11
M  V30 11 1 10 12
M  V30 12 1 12 13
M  V30 13 1 13 14
M  V30 14 1 14 15
M  V30 15 1 15 16
M  V30 16 1 16 17
M  V30 17 1 17 18
M  V30 18 1 18 19
M  V30 19 2 19 20
M  V30 20 1 20 21
M  V30 21 2 21 22
M  V30 22 1 22 23
M  V30 23 2 23 24
M  V30 24 1 9 25
M  V30 25 2 25 26
M  V30 26 1 26 27
M  V30 27 1 27 28
M  V30 28 2 28 29
M  V30 29 1 28 3
M  V30 30 2 27 7
M  V30 31 1 18 14
M  V30 32 1 24 19
M  V30 33 1 1 30
M  V30 34 1 1 31
M  V30 35 1 1 32
M  V30 36 1 2 33
M  V30 37 1 2 34
M  V30 38 1 6 35
M  V30 39 1 8 36
M  V30 40 1 12 37
M  V30 41 1 13 38
M  V30 42 1 13 39
M  V30 43 1 14 40 CFG=3
M  V30 44 1 15 41
M  V30 45 1 15 42
M  V30 46 1 16 43
M  V30 47 1 16 44
M  V30 48 1 18 45 CFG=1
M  V30 49 1 20 46
M  V30 50 1 21 47
M  V30 51 1 22 48
M  V30 52 1 23 49
M  V30 53 1 24 50
M  V30 54 1 25 51
M  V30 55 1 26 52
M  V30 END BOND
M  V30 BEGIN COLLECTION
M  V30 MDLV30/STERAC1 ATOMS=(2 14 18)
M  V30 END COLLECTION
M  V30 END CTAB
M  END
>  <_CXSMILES_Data>  (441) 
|&1:13,17|

$$$$
OCNT-2311206
     RDKit          3D

 42 45  0  0  0  0  0  0  0  0999 V2000
    2.6782   -1.8728   -2.2764 O   0  0  0  0  0  0  0  0  0  0  0  0
    2.5084   -0.6785   -1.4764 S   0  0  0  0  0  0  0  0  0  0  0  0
    3.0167    0.5999   -1.9236 O   0  0  0  0  0  0  0  0  0  0  0  0
    0.7685   -0.5106   -1.1631 C   0  0  0  0  0  0  0  0  0  0  0  0
    0.0589   -1.6114   -0.6803 C   0  0  0  0  0  0  0  0  0  0  0  0
   -1.3091   -1.4884   -0.4238 C   0  0  0  0  0  0  0  0  0  0  0  0
   -1.9849   -0.2745   -0.6472 C   0  0  0  0  0  0  0  0  0  0  0  0
   -3.4274   -0.1531   -0.3807 C   0  0  0  0  0  0  0  0  0  0  0  0
   -4.3496   -1.0700   -0.9253 C   0  0  0  0  0  0  0  0  0  0  0  0
   -5.7317   -0.9641   -0.6778 C   0  0  0  0  0  0  0  0  0  0  0  0
   -6.2291    0.0625    0.1231 C   0  0  0  0  0  0  0  0  0  0  0  0
   -5.3228    0.9552    0.6518 C   0  0  0  0  0  0  0  0  0  0  0  0
   -3.9682    0.8561    0.4099 C   0  0  0  0  0  0  0  0  0  0  0  0
   -3.2724    1.8446    1.0459 O   0  0  0  0  0  0  0  0  0  0  0  0
   -4.3346    2.5635    1.7006 C   0  0  0  0  0  0  0  0  0  0  0  0
   -5.6394    2.0075    1.4538 O   0  0  0  0  0  0  0  0  0  0  0  0
   -1.2446    0.8145   -1.1427 C   0  0  0  0  0  0  0  0  0  0  0  0
    0.1239    0.7025   -1.4037 C   0  0  0  0  0  0  0  0  0  0  0  0
    3.1351   -0.9845    0.0793 N   0  0  0  0  0  0  0  0  0  0  0  0
    3.0143    0.1190    1.0823 C   0  0  0  0  0  0  0  0  0  0  0  0
    4.1767    1.1287    0.9968 C   0  0  0  0  0  0  0  0  0  0  0  0
    5.5090    0.4997    1.0542 N   0  0  0  0  0  0  0  0  0  0  0  0
    5.6041   -0.5184   -0.0091 C   0  0  0  0  0  0  0  0  0  0  0  0
    4.5028   -1.5877    0.0943 C   0  0  0  0  0  0  0  0  0  0  0  0
    0.5634   -2.5583   -0.5017 H   0  0  0  0  0  0  0  0  0  0  0  0
   -1.8486   -2.3506   -0.0353 H   0  0  0  0  0  0  0  0  0  0  0  0
   -3.9981   -1.8774   -1.5664 H   0  0  0  0  0  0  0  0  0  0  0  0
   -6.4143   -1.6874   -1.1181 H   0  0  0  0  0  0  0  0  0  0  0  0
   -7.2902    0.1578    0.3239 H   0  0  0  0  0  0  0  0  0  0  0  0
   -4.3233    3.6018    1.3497 H   0  0  0  0  0  0  0  0  0  0  0  0
   -4.1486    2.5569    2.7808 H   0  0  0  0  0  0  0  0  0  0  0  0
   -1.7396    1.7651   -1.3361 H   0  0  0  0  0  0  0  0  0  0  0  0
    0.6691    1.5598   -1.7917 H   0  0  0  0  0  0  0  0  0  0  0  0
    3.0026   -0.3441    2.0773 H   0  0  0  0  0  0  0  0  0  0  0  0
    2.0578    0.6397    0.9804 H   0  0  0  0  0  0  0  0  0  0  0  0
    4.1030    1.7274    0.0828 H   0  0  0  0  0  0  0  0  0  0  0  0
    4.0933    1.8354    1.8302 H   0  0  0  0  0  0  0  0  0  0  0  0
    5.6110    0.0358    1.9569 H   0  0  0  0  0  0  0  0  0  0  0  0
    6.5832   -1.0044    0.0652 H   0  0  0  0  0  0  0  0  0  0  0  0
    5.5727   -0.0268   -0.9883 H   0  0  0  0  0  0  0  0  0  0  0  0
    4.6102   -2.1441    1.0343 H   0  0  0  0  0  0  0  0  0  0  0  0
    4.6138   -2.3261   -0.7061 H   0  0  0  0  0  0  0  0  0  0  0  0
  1  2  2  0
  2  3  2  0
  2  4  1  0
  4  5  1  0
  5  6  2  0
  6  7  1  0
  7  8  1  0
  8  9  2  0
  9 10  1  0
 10 11  2  0
 11 12  1  0
 12 13  2  0
 13 14  1  0
 14 15  1  0
 15 16  1  0
  7 17  2  0
 17 18  1  0
  2 19  1  0
 19 20  1  0
 20 21  1  0
 21 22  1  0
 22 23  1  0
 23 24  1  0
 18  4  2  0
 24 19  1  0
 13  8  1  0
 16 12  1  0
  5 25  1  0
  6 26  1  0
  9 27  1  0
 10 28  1  0
 11 29  1  0
 15 30  1  0
 15 31  1  0
 17 32  1  0
 18 33  1  0
 20 34  1  0
 20 35  1  0
 21 36  1  0
 21 37  1  0
 22 38  1  0
 23 39  1  0
 23 40  1  0
 24 41  1  0
 24 42  1  0
M  END
$$$$
OCNT-2311212
     RDKit          3D

 39 41  0  0  0  0  0  0  0  0999 V2000
   -3.5974    2.1061    0.4695 C   0  0  0  0  0  0  0  0  0  0  0  0
   -2.7378    1.4939   -0.9647 S   0  0  0  0  0  0  0  0  0  0  0  0
   -3.7175    1.3832   -2.0309 O   0  0  0  0  0  0  0  0  0  0  0  0
   -1.5615    2.3198   -1.1598 O   0  0  0  0  0  0  0  0  0  0  0  0
   -2.1901   -0.1756   -0.5627 C   0  0  2  0  0  0  0  0  0  0  0  0
   -3.3748   -1.1177   -0.3317 C   0  0  0  0  0  0  0  0  0  0  0  0
   -2.9165   -2.5685   -0.1742 C   0  0  0  0  0  0  0  0  0  0  0  0
   -1.5683   -2.7061    0.5326 C   0  0  0  0  0  0  0  0  0  0  0  0
   -1.2746   -1.5076    1.4270 C   0  0  0  0  0  0  0  0  0  0  0  0
   -1.1965   -0.1944    0.6178 C   0  0  1  0  0  0  0  0  0  0  0  0
    0.1749    0.0216    0.1606 N   0  0  0  0  0  0  0  0  0  0  0  0
    1.1408    0.5544    0.9855 C   0  0  0  0  0  0  0  0  0  0  0  0
    0.9043    0.8869    2.1435 O   0  0  0  0  0  0  0  0  0  0  0  0
    2.4605    0.6742    0.4055 C   0  0  0  0  0  0  0  0  0  0  0  0
    2.9487    0.4220   -0.8840 C   0  0  0  0  0  0  0  0  0  0  0  0
    4.3024    0.7255   -0.8254 C   0  0  0  0  0  0  0  0  0  0  0  0
    4.6402    1.1414    0.4002 C   0  0  0  0  0  0  0  0  0  0  0  0
    3.5355    1.1292    1.1764 N   0  0  0  0  0  0  0  0  0  0  0  0
    6.2488    1.5303    0.5589 S   0  0  0  0  0  0  0  0  0  0  0  0
    6.4905    1.1188   -1.0992 C   0  0  0  0  0  0  0  0  0  0  0  0
    8.0619    1.2646   -1.7797 Cl  0  0  0  0  0  0  0  0  0  0  0  0
    5.3436    0.6923   -1.7495 C   0  0  0  0  0  0  0  0  0  0  0  0
   -4.4273    1.4399    0.7062 H   0  0  0  0  0  0  0  0  0  0  0  0
   -2.9077    2.1899    1.3087 H   0  0  0  0  0  0  0  0  0  0  0  0
   -3.9868    3.0970    0.2230 H   0  0  0  0  0  0  0  0  0  0  0  0
   -1.6788   -0.5067   -1.4781 H   0  0  0  0  0  0  0  0  0  0  0  0
   -3.9201   -0.8154    0.5707 H   0  0  0  0  0  0  0  0  0  0  0  0
   -4.0962   -1.0607   -1.1547 H   0  0  0  0  0  0  0  0  0  0  0  0
   -3.6847   -3.1207    0.3806 H   0  0  0  0  0  0  0  0  0  0  0  0
   -2.8487   -3.0466   -1.1590 H   0  0  0  0  0  0  0  0  0  0  0  0
   -0.7720   -2.8037   -0.2159 H   0  0  0  0  0  0  0  0  0  0  0  0
   -1.5559   -3.6305    1.1211 H   0  0  0  0  0  0  0  0  0  0  0  0
   -2.0753   -1.4220    2.1732 H   0  0  0  0  0  0  0  0  0  0  0  0
   -0.3487   -1.6840    1.9869 H   0  0  0  0  0  0  0  0  0  0  0  0
   -1.4190    0.6140    1.3209 H   0  0  0  0  0  0  0  0  0  0  0  0
    0.4585   -0.3156   -0.7486 H   0  0  0  0  0  0  0  0  0  0  0  0
    2.3838    0.0757   -1.7380 H   0  0  0  0  0  0  0  0  0  0  0  0
    3.4646    1.3997    2.1499 H   0  0  0  0  0  0  0  0  0  0  0  0
    5.2972    0.3953   -2.7878 H   0  0  0  0  0  0  0  0  0  0  0  0
  1  2  1  0
  2  3  2  0
  2  4  2  0
  2  5  1  0
  5  6  1  0
  6  7  1  0
  7  8  1  0
  8  9  1  0
  9 10  1  0
 10 11  1  0
 11 12  1  0
 12 13  2  0
 12 14  1  0
 14 15  2  0
 15 16  1  0
 16 17  2  0
 17 18  1  0
 17 19  1  0
 19 20  1  0
 20 21  1  0
 20 22  2  0
 10  5  1  0
 18 14  1  0
 22 16  1  0
  1 23  1  0
  1 24  1  0
  1 25  1  0
  5 26  1  6
  6 27  1  0
  6 28  1  0
  7 29  1  0
  7 30  1  0
  8 31  1  0
  8 32  1  0
  9 33  1  0
  9 34  1  0
 10 35  1  1
 11 36  1  0
 15 37  1  0
 18 38  1  0
 22 39  1  0
M  END
$$$$
OCNT-2311225
     RDKit          3D

  0  0  0  0  0  0  0  0  0  0999 V3000
M  V30 BEGIN CTAB
M  V30 COUNTS 43 46 0 0 0
M  V30 BEGIN ATOM
M  V30 1 O -1.042512 1.437863 -2.181414 0
M  V30 2 C -0.719557 0.920934 -1.117809 0
M  V30 3 C -1.741080 0.725746 -0.050766 0 CFG=1
M  V30 4 C -1.947479 1.792995 0.991045 0
M  V30 5 C -3.011515 1.567825 -0.056569 0 CFG=2
M  V30 6 C -4.349146 0.969492 0.343892 0
M  V30 7 C -4.755272 -0.290460 -0.130034 0
M  V30 8 F -3.941174 -0.989333 -0.936609 0
M  V30 9 C -5.982873 -0.864332 0.203865 0
M  V30 10 C -6.864509 -0.178249 1.029677 0
M  V30 11 C -6.510766 1.080536 1.508057 0
M  V30 12 C -5.274441 1.646044 1.164058 0
M  V30 13 Cl -4.930507 3.227694 1.779078 0
M  V30 14 N 0.567947 0.498796 -0.832275 0
M  V30 15 C 1.609385 0.624445 -1.851268 0
M  V30 16 C 2.562561 -0.586023 -1.881991 0
M  V30 17 N 3.075021 -0.939597 -0.542950 0
M  V30 18 C 4.419035 -1.288900 -0.427815 0
M  V30 19 C 5.071146 -2.079490 -1.385301 0
M  V30 20 N 6.376891 -2.453950 -1.320280 0
M  V30 21 C 7.033268 -2.020368 -0.227882 0
M  V30 22 C 6.413856 -1.256702 0.742323 0
M  V30 23 N 5.113372 -0.885342 0.663041 0
M  V30 24 C 2.502048 -0.214131 0.600988 0
M  V30 25 C 0.975491 -0.090081 0.447864 0
M  V30 26 H -1.842549 -0.305484 0.271326 0
M  V30 27 H -2.133875 1.471167 2.009150 0
M  V30 28 H -1.367331 2.706939 0.919568 0
M  V30 29 H -3.077070 2.324082 -0.838701 0
M  V30 30 H -6.238164 -1.843506 -0.190148 0
M  V30 31 H -7.824254 -0.615567 1.292765 0
M  V30 32 H -7.203974 1.625337 2.145316 0
M  V30 33 H 2.173160 1.534317 -1.611048 0
M  V30 34 H 1.168147 0.769325 -2.843032 0
M  V30 35 H 3.372989 -0.350260 -2.582684 0
M  V30 36 H 2.024868 -1.457082 -2.275175 0
M  V30 37 H 4.540618 -2.461687 -2.250643 0
M  V30 38 H 8.075514 -2.306142 -0.148896 0
M  V30 39 H 6.948946 -0.916416 1.621274 0
M  V30 40 H 2.945560 0.787818 0.670422 0
M  V30 41 H 2.703557 -0.744369 1.540011 0
M  V30 42 H 0.515408 -1.084066 0.499308 0
M  V30 43 H 0.569261 0.510185 1.267808 0
M  V30 END ATOM
M  V30 BEGIN BOND
M  V30 1 2 1 2
M  V30 2 1 2 3
M  V30 3 1 3 4
M  V30 4 1 4 5
M  V30 5 1 5 6
M  V30 6 2 6 7
M  V30 7 1 7 8
M  V30 8 1 7 9
M  V30 9 2 9 10
M  V30 10 1 10 11
M  V30 11 2 11 12
M  V30 12 1 12 13
M  V30 13 1 2 14
M  V30 14 1 14 15
M  V30 15 1 15 16
M  V30 16 1 16 17
M  V30 17 1 17 18
M  V30 18 2 18 19
M  V30 19 1 19 20
M  V30 20 2 20 21
M  V30 21 1 21 22
M  V30 22 2 22 23
M  V30 23 1 17 24
M  V30 24 1 24 25
M  V30 25 1 5 3
M  V30 26 1 12 6
M  V30 27 1 25 14
M  V30 28 1 23 18
M  V30 29 1 3 26 CFG=1
M  V30 30 1 4 27
M  V30 31 1 4 28
M  V30 32 1 5 29 CFG=3
M  V30 33 1 9 30
M  V30 34 1 10 31
M  V30 35 1 11 32
M  V30 36 1 15 33
M  V30 37 1 15 34
M  V30 38 1 16 35
M  V30 39 1 16 36
M  V30 40 1 19 37
M  V30 41 1 21 38
M  V30 42 1 22 39
M  V30 43 1 24 40
M  V30 44 1 24 41
M  V30 45 1 25 42
M  V30 46 1 25 43
M  V30 END BOND
M  V30 BEGIN COLLECTION
M  V30 MDLV30/STERAC1 ATOMS=(2 3 5)
M  V30 END COLLECTION
M  V30 END CTAB
M  END
>  <_CXSMILES_Data>  (444) 
|&1:2,4|

$$$$
OCNT-2311229
     RDKit          3D

 50 53  0  0  0  0  0  0  0  0999 V2000
    3.9947   -1.8391    0.9313 C   0  0  0  0  0  0  0  0  0  0  0  0
    3.5981   -0.4335    0.8982 N   0  0  0  0  0  0  0  0  0  0  0  0
    4.5591    0.5319    0.5854 C   0  0  0  0  0  0  0  0  0  0  0  0
    4.3778    1.8754    0.9580 C   0  0  0  0  0  0  0  0  0  0  0  0
    5.3293    2.8608    0.6697 C   0  0  0  0  0  0  0  0  0  0  0  0
    6.5004    2.5226    0.0041 C   0  0  0  0  0  0  0  0  0  0  0  0
    6.7184    1.2003   -0.3642 C   0  0  0  0  0  0  0  0  0  0  0  0
    5.7611    0.2207   -0.0714 C   0  0  0  0  0  0  0  0  0  0  0  0
    2.1701   -0.1073    0.6598 C   0  0  0  0  0  0  0  0  0  0  0  0
    1.3563   -0.3098    1.9474 C   0  0  0  0  0  0  0  0  0  0  0  0
   -0.0358   -0.8891    1.6923 C   0  0  0  0  0  0  0  0  0  0  0  0
   -0.5964   -0.3167    0.4785 N   0  0  0  0  0  0  0  0  0  0  0  0
   -1.9804   -0.3352    0.3435 C   0  0  0  0  0  0  0  0  0  0  0  0
   -2.7401   -0.6462    1.4051 N   0  0  0  0  0  0  0  0  0  0  0  0
   -4.0765   -0.6358    1.2446 C   0  0  0  0  0  0  0  0  0  0  0  0
   -4.7058   -0.3351    0.0592 C   0  0  0  0  0  0  0  0  0  0  0  0
   -6.1973   -0.2976   -0.0582 C   0  0  0  0  0  0  0  0  0  0  0  0
   -6.6752   -0.2942   -1.5108 C   0  0  0  0  0  0  0  0  0  0  0  0
   -5.8710    0.7039   -2.3382 C   0  0  0  0  0  0  0  0  0  0  0  0
   -4.3924    0.3186   -2.3494 C   0  0  0  0  0  0  0  0  0  0  0  0
   -3.8576   -0.0091   -0.9802 C   0  0  0  0  0  0  0  0  0  0  0  0
   -2.5131   -0.0176   -0.8503 N   0  0  0  0  0  0  0  0  0  0  0  0
    0.1447   -0.4734   -0.7716 C   0  0  0  0  0  0  0  0  0  0  0  0
    1.5910   -0.8958   -0.5166 C   0  0  0  0  0  0  0  0  0  0  0  0
    4.9249   -1.9753    1.4947 H   0  0  0  0  0  0  0  0  0  0  0  0
    3.2366   -2.4478    1.4354 H   0  0  0  0  0  0  0  0  0  0  0  0
    4.1279   -2.2384   -0.0795 H   0  0  0  0  0  0  0  0  0  0  0  0
    3.4930    2.1719    1.5157 H   0  0  0  0  0  0  0  0  0  0  0  0
    5.1526    3.8877    0.9777 H   0  0  0  0  0  0  0  0  0  0  0  0
    7.2425    3.2832   -0.2196 H   0  0  0  0  0  0  0  0  0  0  0  0
    7.6330    0.9233   -0.8819 H   0  0  0  0  0  0  0  0  0  0  0  0
    5.9722   -0.7952   -0.3907 H   0  0  0  0  0  0  0  0  0  0  0  0
    2.0623    0.9497    0.3826 H   0  0  0  0  0  0  0  0  0  0  0  0
    1.2552    0.6657    2.4417 H   0  0  0  0  0  0  0  0  0  0  0  0
    1.8762   -0.9491    2.6705 H   0  0  0  0  0  0  0  0  0  0  0  0
    0.0205   -1.9811    1.5975 H   0  0  0  0  0  0  0  0  0  0  0  0
   -0.6409   -0.6736    2.5815 H   0  0  0  0  0  0  0  0  0  0  0  0
   -4.6419   -0.8851    2.1380 H   0  0  0  0  0  0  0  0  0  0  0  0
   -6.5586    0.6097    0.4418 H   0  0  0  0  0  0  0  0  0  0  0  0
   -6.6381   -1.1582    0.4590 H   0  0  0  0  0  0  0  0  0  0  0  0
   -7.7416   -0.0464   -1.5482 H   0  0  0  0  0  0  0  0  0  0  0  0
   -6.5630   -1.2977   -1.9409 H   0  0  0  0  0  0  0  0  0  0  0  0
   -6.2509    0.7370   -3.3652 H   0  0  0  0  0  0  0  0  0  0  0  0
   -5.9918    1.7101   -1.9173 H   0  0  0  0  0  0  0  0  0  0  0  0
   -3.8080    1.1354   -2.7883 H   0  0  0  0  0  0  0  0  0  0  0  0
   -4.2514   -0.5640   -2.9848 H   0  0  0  0  0  0  0  0  0  0  0  0
   -0.3126   -1.2296   -1.4233 H   0  0  0  0  0  0  0  0  0  0  0  0
    0.1396    0.4813   -1.3126 H   0  0  0  0  0  0  0  0  0  0  0  0
    2.1870   -0.7386   -1.4238 H   0  0  0  0  0  0  0  0  0  0  0  0
    1.6162   -1.9735   -0.3112 H   0  0  0  0  0  0  0  0  0  0  0  0
  1  2  1  0
  2  3  1  0
  3  4  2  0
  4  5  1  0
  5  6  2  0
  6  7  1  0
  7  8  2  0
  2  9  1  0
  9 10  1  0
 10 11  1  0
 11 12  1  0
 12 13  1  0
 13 14  2  0
 14 15  1  0
 15 16  2  0
 16 17  1  0
 17 18  1  0
 18 19  1  0
 19 20  1  0
 20 21  1  0
 21 22  2  0
 12 23  1  0
 23 24  1  0
  8  3  1  0
 24  9  1  0
 22 13  1  0
 21 16  1  0
  1 25  1  0
  1 26  1  0
  1 27  1  0
  4 28  1  0
  5 29  1  0
  6 30  1  0
  7 31  1  0
  8 32  1  0
  9 33  1  0
 10 34  1  0
 10 35  1  0
 11 36  1  0
 11 37  1  0
 15 38  1  0
 17 39  1  0
 17 40  1  0
 18 41  1  0
 18 42  1  0
 19 43  1  0
 19 44  1  0
 20 45  1  0
 20 46  1  0
 23 47  1  0
 23 48  1  0
 24 49  1  0
 24 50  1  0
M  END
$$$$
OCNT-2311231
     RDKit          3D

 56 58  0  0  0  0  0  0  0  0999 V2000
    7.0519    0.6290    0.1843 C   0  0  0  0  0  0  0  0  0  0  0  0
    5.8130    0.9919    1.0174 C   0  0  0  0  0  0  0  0  0  0  0  0
    5.7589    2.5146    1.1725 C   0  0  0  0  0  0  0  0  0  0  0  0
    5.9097    0.2797    2.3707 C   0  0  0  0  0  0  0  0  0  0  0  0
    4.6931    0.4985    0.2405 O   0  0  0  0  0  0  0  0  0  0  0  0
    3.4154    0.6482    0.6750 C   0  0  0  0  0  0  0  0  0  0  0  0
    3.1002    1.1935    1.7247 O   0  0  0  0  0  0  0  0  0  0  0  0
    2.5003    0.1014   -0.2087 N   0  0  0  0  0  0  0  0  0  0  0  0
    2.8958   -0.5122   -1.4738 C   0  0  0  0  0  0  0  0  0  0  0  0
    1.7553   -0.5110   -2.4826 C   0  0  0  0  0  0  0  0  0  0  0  0
    0.5025   -1.2103   -1.9495 C   0  0  0  0  0  0  0  0  0  0  0  0
    0.3763   -1.1542   -0.4138 C   0  0  2  0  0  0  0  0  0  0  0  0
   -1.0884   -1.1922    0.0605 C   0  0  0  0  0  0  0  0  0  0  0  0
   -1.7464   -2.4359   -0.3463 N   0  0  0  0  0  0  0  0  0  0  0  0
   -3.1419   -2.5099    0.1132 C   0  0  0  0  0  0  0  0  0  0  0  0
   -4.0296   -1.6013   -0.6789 C   0  0  0  0  0  0  0  0  0  0  0  0
   -4.0876   -1.7030   -2.0209 N   0  0  0  0  0  0  0  0  0  0  0  0
   -4.9819   -0.7254   -2.4411 O   0  0  0  0  0  0  0  0  0  0  0  0
   -5.4334   -0.0627   -1.3564 C   0  0  0  0  0  0  0  0  0  0  0  0
   -4.8756   -0.5696   -0.2126 C   0  0  0  0  0  0  0  0  0  0  0  0
   -5.1793   -0.0200    1.1302 C   0  0  0  0  0  0  0  0  0  0  0  0
   -6.4481    0.8637    1.0808 C   0  0  0  0  0  0  0  0  0  0  0  0
   -6.4762    1.8001   -0.1492 C   0  0  0  0  0  0  0  0  0  0  0  0
   -6.4180    1.0286   -1.4858 C   0  0  0  0  0  0  0  0  0  0  0  0
    1.0848    0.0860    0.1452 C   0  0  0  0  0  0  0  0  0  0  0  0
    7.9786    0.9559    0.6678 H   0  0  0  0  0  0  0  0  0  0  0  0
    7.1085   -0.4529    0.0235 H   0  0  0  0  0  0  0  0  0  0  0  0
    6.9994    1.0859   -0.8105 H   0  0  0  0  0  0  0  0  0  0  0  0
    5.5991    2.9991    0.2030 H   0  0  0  0  0  0  0  0  0  0  0  0
    4.9365    2.8310    1.8205 H   0  0  0  0  0  0  0  0  0  0  0  0
    6.6851    2.9034    1.6078 H   0  0  0  0  0  0  0  0  0  0  0  0
    5.8607   -0.8064    2.2421 H   0  0  0  0  0  0  0  0  0  0  0  0
    5.0869    0.5530    3.0377 H   0  0  0  0  0  0  0  0  0  0  0  0
    6.8440    0.5283    2.8855 H   0  0  0  0  0  0  0  0  0  0  0  0
    3.7569    0.0195   -1.8934 H   0  0  0  0  0  0  0  0  0  0  0  0
    3.2149   -1.5382   -1.2538 H   0  0  0  0  0  0  0  0  0  0  0  0
    1.4996    0.5288   -2.7258 H   0  0  0  0  0  0  0  0  0  0  0  0
    2.0738   -0.9815   -3.4198 H   0  0  0  0  0  0  0  0  0  0  0  0
    0.5183   -2.2624   -2.2612 H   0  0  0  0  0  0  0  0  0  0  0  0
   -0.3740   -0.7615   -2.4328 H   0  0  0  0  0  0  0  0  0  0  0  0
    0.8906   -2.0370   -0.0059 H   0  0  0  0  0  0  0  0  0  0  0  0
   -1.6184   -0.3186   -0.3375 H   0  0  0  0  0  0  0  0  0  0  0  0
   -1.1073   -1.1184    1.1546 H   0  0  0  0  0  0  0  0  0  0  0  0
   -1.7699   -2.4965   -1.3675 H   0  0  0  0  0  0  0  0  0  0  0  0
   -3.2066   -2.2966    1.1865 H   0  0  0  0  0  0  0  0  0  0  0  0
   -3.4923   -3.5407   -0.0199 H   0  0  0  0  0  0  0  0  0  0  0  0
   -4.3296    0.5856    1.4666 H   0  0  0  0  0  0  0  0  0  0  0  0
   -5.3207   -0.8255    1.8585 H   0  0  0  0  0  0  0  0  0  0  0  0
   -6.5140    1.4551    2.0006 H   0  0  0  0  0  0  0  0  0  0  0  0
   -7.3371    0.2191    1.0514 H   0  0  0  0  0  0  0  0  0  0  0  0
   -7.3780    2.4222   -0.1247 H   0  0  0  0  0  0  0  0  0  0  0  0
   -5.6173    2.4813   -0.0881 H   0  0  0  0  0  0  0  0  0  0  0  0
   -7.4031    0.6028   -1.7073 H   0  0  0  0  0  0  0  0  0  0  0  0
   -6.1522    1.7088   -2.3009 H   0  0  0  0  0  0  0  0  0  0  0  0
    0.9771    0.1264    1.2344 H   0  0  0  0  0  0  0  0  0  0  0  0
    0.6395    1.0028   -0.2596 H   0  0  0  0  0  0  0  0  0  0  0  0
  1  2  1  0
  2  3  1  0
  2  4  1  0
  2  5  1  0
  5  6  1  0
  6  7  2  0
  6  8  1  0
  8  9  1  0
  9 10  1  0
 10 11  1  0
 11 12  1  0
 12 13  1  0
 13 14  1  0
 14 15  1  0
 15 16  1  0
 16 17  2  0
 17 18  1  0
 18 19  1  0
 19 20  2  0
 20 21  1  0
 21 22  1  0
 22 23  1  0
 23 24  1  0
 12 25  1  0
 25  8  1  0
 20 16  1  0
 24 19  1  0
  1 26  1  0
  1 27  1  0
  1 28  1  0
  3 29  1  0
  3 30  1  0
  3 31  1  0
  4 32  1  0
  4 33  1  0
  4 34  1  0
  9 35  1  0
  9 36  1  0
 10 37  1  0
 10 38  1  0
 11 39  1  0
 11 40  1  0
 12 41  1  1
 13 42  1  0
 13 43  1  0
 14 44  1  0
 15 45  1  0
 15 46  1  0
 21 47  1  0
 21 48  1  0
 22 49  1  0
 22 50  1  0
 23 51  1  0
 23 52  1  0
 24 53  1  0
 24 54  1  0
 25 55  1  0
 25 56  1  0
M  END
$$$$
OCNT-2311233
     RDKit          3D

 39 41  0  0  0  0  0  0  0  0999 V2000
   -1.8162    1.6217    2.1374 C   0  0  0  0  0  0  0  0  0  0  0  0
   -1.7815    1.4944    0.7157 O   0  0  0  0  0  0  0  0  0  0  0  0
   -2.7511    0.6300    0.2558 C   0  0  0  0  0  0  0  0  0  0  0  0
   -4.0966    0.9888    0.4550 C   0  0  0  0  0  0  0  0  0  0  0  0
   -5.1209    0.1848   -0.0293 C   0  0  0  0  0  0  0  0  0  0  0  0
   -4.8023   -0.9693   -0.7281 C   0  0  0  0  0  0  0  0  0  0  0  0
   -3.4609   -1.3083   -0.9496 C   0  0  0  0  0  0  0  0  0  0  0  0
   -2.3867   -0.5251   -0.4781 C   0  0  0  0  0  0  0  0  0  0  0  0
   -1.0851   -0.9049   -0.7419 N   0  0  0  0  0  0  0  0  0  0  0  0
   -0.7106   -1.9848   -1.6504 C   0  0  0  0  0  0  0  0  0  0  0  0
    0.7883   -1.7938   -1.8596 C   0  0  0  0  0  0  0  0  0  0  0  0
    1.2521   -1.2608   -0.5118 C   0  0  0  0  0  0  0  0  0  0  0  0
    2.5481   -0.6086   -0.5842 N   0  0  0  0  0  0  0  0  0  0  0  0
    3.2308   -0.2996    0.5674 C   0  0  0  0  0  0  0  0  0  0  0  0
    2.9082   -0.6637    1.6887 O   0  0  0  0  0  0  0  0  0  0  0  0
    4.4380    0.5225    0.3555 C   0  0  0  0  0  0  0  0  0  0  0  0
    4.9255    1.4531    1.4441 C   0  0  0  0  0  0  0  0  0  0  0  0
    4.3325    2.0148    0.1875 C   0  0  0  0  0  0  0  0  0  0  0  0
    5.4230    2.7709   -0.9726 Cl  0  0  0  0  0  0  0  0  0  0  0  0
    2.7778    2.8228    0.3025 Cl  0  0  0  0  0  0  0  0  0  0  0  0
    0.0970   -0.3236   -0.1007 C   0  0  0  0  0  0  0  0  0  0  0  0
   -2.5874    2.3350    2.4439 H   0  0  0  0  0  0  0  0  0  0  0  0
   -1.9667    0.6552    2.6322 H   0  0  0  0  0  0  0  0  0  0  0  0
   -0.8478    2.0170    2.4593 H   0  0  0  0  0  0  0  0  0  0  0  0
   -4.3468    1.9108    0.9710 H   0  0  0  0  0  0  0  0  0  0  0  0
   -6.1586    0.4635    0.1289 H   0  0  0  0  0  0  0  0  0  0  0  0
   -5.5915   -1.6091   -1.1140 H   0  0  0  0  0  0  0  0  0  0  0  0
   -3.2721   -2.2233   -1.5039 H   0  0  0  0  0  0  0  0  0  0  0  0
   -1.2316   -1.9278   -2.6122 H   0  0  0  0  0  0  0  0  0  0  0  0
   -0.9116   -2.9567   -1.1849 H   0  0  0  0  0  0  0  0  0  0  0  0
    1.2925   -2.7215   -2.1467 H   0  0  0  0  0  0  0  0  0  0  0  0
    0.9659   -1.0561   -2.6527 H   0  0  0  0  0  0  0  0  0  0  0  0
    1.3171   -2.0879    0.2078 H   0  0  0  0  0  0  0  0  0  0  0  0
    2.7779   -0.1010   -1.4296 H   0  0  0  0  0  0  0  0  0  0  0  0
    5.2160    0.0070   -0.1983 H   0  0  0  0  0  0  0  0  0  0  0  0
    5.9946    1.5352    1.5968 H   0  0  0  0  0  0  0  0  0  0  0  0
    4.3497    1.5135    2.3613 H   0  0  0  0  0  0  0  0  0  0  0  0
    0.0155   -0.3046    0.9910 H   0  0  0  0  0  0  0  0  0  0  0  0
    0.2757    0.6896   -0.4788 H   0  0  0  0  0  0  0  0  0  0  0  0
  1  2  1  0
  2  3  1  0
  3  4  2  0
  4  5  1  0
  5  6  2  0
  6  7  1  0
  7  8  2  0
  8  9  1  0
  9 10  1  0
 10 11  1  0
 11 12  1  0
 12 13  1  0
 13 14  1  0
 14 15  2  0
 14 16  1  0
 16 17  1  0
 17 18  1  0
 18 19  1  0
 18 20  1  0
 12 21  1  0
  8  3  1  0
 21  9  1  0
 18 16  1  0
  1 22  1  0
  1 23  1  0
  1 24  1  0
  4 25  1  0
  5 26  1  0
  6 27  1  0
  7 28  1  0
 10 29  1  0
 10 30  1  0
 11 31  1  0
 11 32  1  0
 12 33  1  0
 13 34  1  0
 16 35  1  0
 17 36  1  0
 17 37  1  0
 21 38  1  0
 21 39  1  0
M  END
$$$$
OCNT-2311240
     RDKit          3D

 40 42  0  0  0  0  0  0  0  0999 V2000
    1.1636    1.3028    1.6334 O   0  0  0  0  0  0  0  0  0  0  0  0
    0.9532    0.2868    0.9812 C   0  0  0  0  0  0  0  0  0  0  0  0
   -0.2824   -0.1741    0.5555 N   0  0  0  0  0  0  0  0  0  0  0  0
   -1.5382    0.4492    0.7278 C   0  0  0  0  0  0  0  0  0  0  0  0
   -1.7171    1.6871    1.3443 C   0  0  0  0  0  0  0  0  0  0  0  0
   -2.9953    2.2369    1.4676 C   0  0  0  0  0  0  0  0  0  0  0  0
   -4.1068    1.5543    0.9735 C   0  0  0  0  0  0  0  0  0  0  0  0
   -3.9522    0.3120    0.3495 C   0  0  0  0  0  0  0  0  0  0  0  0
   -5.0983   -0.4162   -0.1671 C   0  0  0  0  0  0  0  0  0  0  0  0
   -6.2402    0.1579   -0.6854 C   0  0  0  0  0  0  0  0  0  0  0  0
   -7.0499   -0.8719   -1.0701 N   0  0  0  0  0  0  0  0  0  0  0  0
   -6.5179   -2.0833   -0.8435 N   0  0  0  0  0  0  0  0  0  0  0  0
   -5.3331   -1.8056   -0.2934 C   0  0  0  0  0  0  0  0  0  0  0  0
   -2.6623   -0.2311    0.2337 C   0  0  0  0  0  0  0  0  0  0  0  0
    2.0823   -0.6515    0.5967 C   0  0  0  0  0  0  0  0  0  0  0  0
    2.2117   -0.8484   -0.9150 C   0  0  0  0  0  0  0  0  0  0  0  0
    3.6917   -1.0467   -1.1219 C   0  0  0  0  0  0  0  0  0  0  0  0
    4.2189   -1.3970   -2.1632 O   0  0  0  0  0  0  0  0  0  0  0  0
    4.3426   -0.7396    0.0629 N   0  0  0  0  0  0  0  0  0  0  0  0
    5.7938   -0.5371    0.1111 C   0  0  0  0  0  0  0  0  0  0  0  0
    6.2868    0.8457   -0.3218 C   0  0  0  0  0  0  0  0  0  0  0  0
    5.8536    1.1891   -1.5518 F   0  0  0  0  0  0  0  0  0  0  0  0
    5.8680    1.7994    0.5432 F   0  0  0  0  0  0  0  0  0  0  0  0
    7.6396    0.8849   -0.3345 F   0  0  0  0  0  0  0  0  0  0  0  0
    3.4451   -0.1006    0.9945 C   0  0  0  0  0  0  0  0  0  0  0  0
   -0.3032   -1.0684    0.0809 H   0  0  0  0  0  0  0  0  0  0  0  0
   -0.8833    2.2577    1.7408 H   0  0  0  0  0  0  0  0  0  0  0  0
   -3.1218    3.2014    1.9537 H   0  0  0  0  0  0  0  0  0  0  0  0
   -5.0908    2.0003    1.0951 H   0  0  0  0  0  0  0  0  0  0  0  0
   -6.5444    1.1851   -0.8262 H   0  0  0  0  0  0  0  0  0  0  0  0
   -7.9700   -0.8221   -1.4954 H   0  0  0  0  0  0  0  0  0  0  0  0
   -4.6916   -2.6275   -0.0033 H   0  0  0  0  0  0  0  0  0  0  0  0
   -2.5347   -1.1907   -0.2610 H   0  0  0  0  0  0  0  0  0  0  0  0
    1.9200   -1.6201    1.0878 H   0  0  0  0  0  0  0  0  0  0  0  0
    1.8855    0.0288   -1.4831 H   0  0  0  0  0  0  0  0  0  0  0  0
    1.6636   -1.7333   -1.2506 H   0  0  0  0  0  0  0  0  0  0  0  0
    6.2544   -1.2872   -0.5417 H   0  0  0  0  0  0  0  0  0  0  0  0
    6.1210   -0.7455    1.1352 H   0  0  0  0  0  0  0  0  0  0  0  0
    3.5205    0.9841    0.8623 H   0  0  0  0  0  0  0  0  0  0  0  0
    3.7176   -0.3655    2.0204 H   0  0  0  0  0  0  0  0  0  0  0  0
  1  2  2  0
  2  3  1  0
  3  4  1  0
  4  5  2  0
  5  6  1  0
  6  7  2  0
  7  8  1  0
  8  9  1  0
  9 10  2  0
 10 11  1  0
 11 12  1  0
 12 13  2  0
  8 14  2  0
  2 15  1  0
 15 16  1  0
 16 17  1  0
 17 18  2  0
 17 19  1  0
 19 20  1  0
 20 21  1  0
 21 22  1  0
 21 23  1  0
 21 24  1  0
 19 25  1  0
 14  4  1  0
 25 15  1  0
 13  9  1  0
  3 26  1  0
  5 27  1  0
  6 28  1  0
  7 29  1  0
 10 30  1  0
 11 31  1  0
 13 32  1  0
 14 33  1  0
 15 34  1  0
 16 35  1  0
 16 36  1  0
 20 37  1  0
 20 38  1  0
 25 39  1  0
 25 40  1  0
M  END
$$$$
OCNT-2311245
     RDKit          3D

 44 46  0  0  0  0  0  0  0  0999 V2000
   -1.6524   -1.0974    1.5339 O   0  0  0  0  0  0  0  0  0  0  0  0
   -1.9475   -0.8306    0.3777 C   0  0  0  0  0  0  0  0  0  0  0  0
   -1.0329   -0.7390   -0.6515 N   0  0  0  0  0  0  0  0  0  0  0  0
    0.3948   -0.8953   -0.4290 C   0  0  0  0  0  0  0  0  0  0  0  0
    1.1502    0.4612   -0.4173 C   0  0  0  0  0  0  0  0  0  0  0  0
    0.8105    1.3223    0.7980 C   0  0  0  0  0  0  0  0  0  0  0  0
    1.7425    0.8148    1.8869 C   0  0  0  0  0  0  0  0  0  0  0  0
    2.8722    0.1082    1.1413 C   0  0  0  0  0  0  0  0  0  0  0  0
    2.6233    0.3886   -0.2787 N   0  0  0  0  0  0  0  0  0  0  0  0
    3.2716   -0.5393   -1.2043 C   0  0  0  0  0  0  0  0  0  0  0  0
    4.6928   -0.1408   -1.6140 C   0  0  0  0  0  0  0  0  0  0  0  0
    5.7166   -0.1391   -0.4918 C   0  0  0  0  0  0  0  0  0  0  0  0
    7.0205   -0.0638   -1.0615 O   0  0  0  0  0  0  0  0  0  0  0  0
   -3.3519   -0.5708   -0.0124 C   0  0  0  0  0  0  0  0  0  0  0  0
   -3.8918   -1.2361   -1.1259 C   0  0  0  0  0  0  0  0  0  0  0  0
   -5.2036   -1.0105   -1.5145 C   0  0  0  0  0  0  0  0  0  0  0  0
   -6.0011   -0.1180   -0.7958 C   0  0  0  0  0  0  0  0  0  0  0  0
   -5.4893    0.5672    0.3346 C   0  0  0  0  0  0  0  0  0  0  0  0
   -4.1606    0.3299    0.7183 C   0  0  0  0  0  0  0  0  0  0  0  0
   -3.7496    1.2876    2.1000 S   0  0  0  0  0  0  0  0  0  0  0  0
   -5.3024    1.9755    2.1959 C   0  0  0  0  0  0  0  0  0  0  0  0
   -6.1301    1.5163    1.2005 C   0  0  0  0  0  0  0  0  0  0  0  0
   -1.3415   -0.4241   -1.5619 H   0  0  0  0  0  0  0  0  0  0  0  0
    0.5635   -1.4539    0.4986 H   0  0  0  0  0  0  0  0  0  0  0  0
    0.7492   -1.5195   -1.2563 H   0  0  0  0  0  0  0  0  0  0  0  0
    0.8947    1.0127   -1.3308 H   0  0  0  0  0  0  0  0  0  0  0  0
   -0.2388    1.2854    1.1021 H   0  0  0  0  0  0  0  0  0  0  0  0
    1.0459    2.3742    0.5841 H   0  0  0  0  0  0  0  0  0  0  0  0
    1.2210    0.1094    2.5442 H   0  0  0  0  0  0  0  0  0  0  0  0
    2.1102    1.6433    2.5012 H   0  0  0  0  0  0  0  0  0  0  0  0
    3.8392    0.4941    1.4732 H   0  0  0  0  0  0  0  0  0  0  0  0
    2.8404   -0.9661    1.3630 H   0  0  0  0  0  0  0  0  0  0  0  0
    3.2613   -1.5670   -0.8205 H   0  0  0  0  0  0  0  0  0  0  0  0
    2.6999   -0.5589   -2.1419 H   0  0  0  0  0  0  0  0  0  0  0  0
    5.0285   -0.8318   -2.3980 H   0  0  0  0  0  0  0  0  0  0  0  0
    4.6816    0.8472   -2.0912 H   0  0  0  0  0  0  0  0  0  0  0  0
    5.5866    0.7313    0.1584 H   0  0  0  0  0  0  0  0  0  0  0  0
    5.6571   -1.0556    0.1047 H   0  0  0  0  0  0  0  0  0  0  0  0
    7.6464    0.0293   -0.3222 H   0  0  0  0  0  0  0  0  0  0  0  0
   -3.2886   -1.9529   -1.6792 H   0  0  0  0  0  0  0  0  0  0  0  0
   -5.6172   -1.5325   -2.3752 H   0  0  0  0  0  0  0  0  0  0  0  0
   -7.0298    0.0508   -1.1077 H   0  0  0  0  0  0  0  0  0  0  0  0
   -5.5347    2.6885    2.9743 H   0  0  0  0  0  0  0  0  0  0  0  0
   -7.1570    1.8425    1.0907 H   0  0  0  0  0  0  0  0  0  0  0  0
  1  2  2  0
  2  3  1  0
  3  4  1  0
  4  5  1  0
  5  6  1  0
  6  7  1  0
  7  8  1  0
  8  9  1  0
  9 10  1  0
 10 11  1  0
 11 12  1  0
 12 13  1  0
  2 14  1  0
 14 15  1  0
 15 16  2  0
 16 17  1  0
 17 18  2  0
 18 19  1  0
 19 20  1  0
 20 21  1  0
 21 22  2  0
  9  5  1  0
 19 14  2  0
 22 18  1  0
  3 23  1  0
  4 24  1  0
  4 25  1  0
  5 26  1  0
  6 27  1  0
  6 28  1  0
  7 29  1  0
  7 30  1  0
  8 31  1  0
  8 32  1  0
 10 33  1  0
 10 34  1  0
 11 35  1  0
 11 36  1  0
 12 37  1  0
 12 38  1  0
 13 39  1  0
 15 40  1  0
 16 41  1  0
 17 42  1  0
 21 43  1  0
 22 44  1  0
M  END
$$$$
OCNT-2311251
     RDKit          3D

 37 40  0  0  0  0  0  0  0  0999 V2000
   -3.0369   -1.3655   -0.7301 C   0  0  0  0  0  0  0  0  0  0  0  0
   -1.5691   -1.7663   -0.6203 C   0  0  0  0  0  0  0  0  0  0  0  0
   -1.4350   -3.2740   -0.3730 C   0  0  0  0  0  0  0  0  0  0  0  0
   -0.6868   -1.2482   -1.7785 C   0  0  0  0  0  0  0  0  0  0  0  0
    0.2814   -0.8723   -0.7953 N   0  0  0  0  0  0  0  0  0  0  0  0
    1.4582   -0.1419   -1.0035 C   0  0  0  0  0  0  0  0  0  0  0  0
    1.7805    0.1846   -2.2821 N   0  0  0  0  0  0  0  0  0  0  0  0
    2.8906    0.8927   -2.5230 C   0  0  0  0  0  0  0  0  0  0  0  0
    3.7709    1.3428   -1.6308 N   0  0  0  0  0  0  0  0  0  0  0  0
    3.4799    1.0082   -0.3517 C   0  0  0  0  0  0  0  0  0  0  0  0
    2.3494    0.2691    0.0036 C   0  0  0  0  0  0  0  0  0  0  0  0
    2.3323    0.0027    1.7108 S   0  0  0  0  0  0  0  0  0  0  0  0
    3.7570    0.8786    1.9357 C   0  0  0  0  0  0  0  0  0  0  0  0
    4.5567    1.1513    3.6494 Br  0  0  0  0  0  0  0  0  0  0  0  0
    4.2838    1.3651    0.7716 C   0  0  0  0  0  0  0  0  0  0  0  0
   -0.6423   -0.9105    0.3038 C   0  0  0  0  0  0  0  0  0  0  0  0
   -1.1256    0.5214    0.8209 C   0  0  0  0  0  0  0  0  0  0  0  0
   -1.5326    0.6906    2.1579 C   0  0  0  0  0  0  0  0  0  0  0  0
   -1.9523    1.9317    2.6174 C   0  0  0  0  0  0  0  0  0  0  0  0
   -2.0053    3.0344    1.8480 N   0  0  0  0  0  0  0  0  0  0  0  0
   -1.6197    2.8845    0.5669 C   0  0  0  0  0  0  0  0  0  0  0  0
   -1.1873    1.6811    0.0258 C   0  0  0  0  0  0  0  0  0  0  0  0
   -3.5411   -1.9456   -1.5109 H   0  0  0  0  0  0  0  0  0  0  0  0
   -3.1597   -0.3087   -0.9865 H   0  0  0  0  0  0  0  0  0  0  0  0
   -3.5614   -1.5452    0.2145 H   0  0  0  0  0  0  0  0  0  0  0  0
   -1.9096   -3.8446   -1.1787 H   0  0  0  0  0  0  0  0  0  0  0  0
   -0.3864   -3.5872   -0.3196 H   0  0  0  0  0  0  0  0  0  0  0  0
   -1.9148   -3.5551    0.5708 H   0  0  0  0  0  0  0  0  0  0  0  0
   -1.0785   -0.3906   -2.3356 H   0  0  0  0  0  0  0  0  0  0  0  0
   -0.3166   -2.0031   -2.4781 H   0  0  0  0  0  0  0  0  0  0  0  0
    3.0936    1.1272   -3.5632 H   0  0  0  0  0  0  0  0  0  0  0  0
    5.1956    1.9434    0.7025 H   0  0  0  0  0  0  0  0  0  0  0  0
   -0.2251   -1.5050    1.1289 H   0  0  0  0  0  0  0  0  0  0  0  0
   -1.5171   -0.1515    2.8440 H   0  0  0  0  0  0  0  0  0  0  0  0
   -2.2645    2.0694    3.6486 H   0  0  0  0  0  0  0  0  0  0  0  0
   -1.6665    3.7837   -0.0407 H   0  0  0  0  0  0  0  0  0  0  0  0
   -0.8958    1.6529   -1.0197 H   0  0  0  0  0  0  0  0  0  0  0  0
  1  2  1  0
  2  3  1  0
  2  4  1  0
  4  5  1  0
  5  6  1  0
  6  7  1  0
  7  8  2  0
  8  9  1  0
  9 10  2  0
 10 11  1  0
 11 12  1  0
 12 13  1  0
 13 14  1  0
 13 15  2  0
  5 16  1  0
 16 17  1  0
 17 18  2  0
 18 19  1  0
 19 20  2  0
 20 21  1  0
 21 22  2  0
 16  2  1  0
 22 17  1  0
 11  6  2  0
 15 10  1  0
  1 23  1  0
  1 24  1  0
  1 25  1  0
  3 26  1  0
  3 27  1  0
  3 28  1  0
  4 29  1  0
  4 30  1  0
  8 31  1  0
 15 32  1  0
 16 33  1  0
 18 34  1  0
 19 35  1  0
 21 36  1  0
 22 37  1  0
M  END
$$$$
OCNT-2311253
     RDKit          3D

 46 48  0  0  0  0  0  0  0  0999 V2000
    5.2805   -3.6695   -0.1888 C   0  0  0  0  0  0  0  0  0  0  0  0
    4.5213   -2.3789   -0.1022 C   0  0  0  0  0  0  0  0  0  0  0  0
    3.8914   -1.8533   -1.2343 C   0  0  0  0  0  0  0  0  0  0  0  0
    3.1618   -0.6636   -1.1495 C   0  0  0  0  0  0  0  0  0  0  0  0
    3.0437    0.0180    0.0679 C   0  0  0  0  0  0  0  0  0  0  0  0
    2.2989    1.2112    0.0633 N   0  0  0  0  0  0  0  0  0  0  0  0
    1.9830    2.0267    1.1392 C   0  0  0  0  0  0  0  0  0  0  0  0
    2.2677    1.8362    2.3186 O   0  0  0  0  0  0  0  0  0  0  0  0
    1.1335    3.2318    0.7198 C   0  0  0  0  0  0  0  0  0  0  0  0
   -0.2567    2.8271    0.4990 N   0  0  0  0  0  0  0  0  0  0  0  0
   -1.1198    2.7902    1.6734 C   0  0  0  0  0  0  0  0  0  0  0  0
   -0.5637    2.2522   -0.7303 C   0  0  0  0  0  0  0  0  0  0  0  0
    0.2384    2.1958   -1.6613 O   0  0  0  0  0  0  0  0  0  0  0  0
   -1.8847    1.6264   -0.9227 C   0  0  0  0  0  0  0  0  0  0  0  0
   -2.7846    2.2123   -1.8105 C   0  0  0  0  0  0  0  0  0  0  0  0
   -4.0200    1.6080   -2.0217 C   0  0  0  0  0  0  0  0  0  0  0  0
   -4.3473    0.4193   -1.3576 C   0  0  0  0  0  0  0  0  0  0  0  0
   -3.4341   -0.1858   -0.4775 C   0  0  0  0  0  0  0  0  0  0  0  0
   -3.7700   -1.3995    0.1927 N   0  0  0  0  0  0  0  0  0  0  0  0
   -4.9362   -2.1272    0.0752 C   0  0  0  0  0  0  0  0  0  0  0  0
   -4.8083   -3.2019    0.9238 C   0  0  0  0  0  0  0  0  0  0  0  0
   -3.6055   -3.1696    1.5656 N   0  0  0  0  0  0  0  0  0  0  0  0
   -3.0033   -2.0941    1.1064 C   0  0  0  0  0  0  0  0  0  0  0  0
   -2.1895    0.4243   -0.2682 C   0  0  0  0  0  0  0  0  0  0  0  0
    3.6627   -0.5114    1.1997 C   0  0  0  0  0  0  0  0  0  0  0  0
    4.3905   -1.7053    1.1164 C   0  0  0  0  0  0  0  0  0  0  0  0
    5.9755   -3.7776    0.6504 H   0  0  0  0  0  0  0  0  0  0  0  0
    4.5856   -4.5152   -0.1771 H   0  0  0  0  0  0  0  0  0  0  0  0
    5.8734   -3.7059   -1.1090 H   0  0  0  0  0  0  0  0  0  0  0  0
    3.9671   -2.3651   -2.1919 H   0  0  0  0  0  0  0  0  0  0  0  0
    2.6875   -0.2786   -2.0490 H   0  0  0  0  0  0  0  0  0  0  0  0
    1.8765    1.4755   -0.8288 H   0  0  0  0  0  0  0  0  0  0  0  0
    1.5527    3.6671   -0.1942 H   0  0  0  0  0  0  0  0  0  0  0  0
    1.1785    4.0016    1.4978 H   0  0  0  0  0  0  0  0  0  0  0  0
   -0.8698    1.9063    2.2667 H   0  0  0  0  0  0  0  0  0  0  0  0
   -0.9580    3.6929    2.2710 H   0  0  0  0  0  0  0  0  0  0  0  0
   -2.1746    2.7531    1.3932 H   0  0  0  0  0  0  0  0  0  0  0  0
   -2.5219    3.1270   -2.3371 H   0  0  0  0  0  0  0  0  0  0  0  0
   -4.7320    2.0577   -2.7097 H   0  0  0  0  0  0  0  0  0  0  0  0
   -5.3273   -0.0061   -1.5554 H   0  0  0  0  0  0  0  0  0  0  0  0
   -5.7484   -1.8496   -0.5778 H   0  0  0  0  0  0  0  0  0  0  0  0
   -5.5237   -3.9944    1.1046 H   0  0  0  0  0  0  0  0  0  0  0  0
   -2.0165   -1.7809    1.4168 H   0  0  0  0  0  0  0  0  0  0  0  0
   -1.4318   -0.0062    0.3796 H   0  0  0  0  0  0  0  0  0  0  0  0
    3.6005   -0.0213    2.1654 H   0  0  0  0  0  0  0  0  0  0  0  0
    4.8572   -2.0997    2.0168 H   0  0  0  0  0  0  0  0  0  0  0  0
  1  2  1  0
  2  3  1  0
  3  4  2  0
  4  5  1  0
  5  6  1  0
  6  7  1  0
  7  8  2  0
  7  9  1  0
  9 10  1  0
 10 11  1  0
 10 12  1  0
 12 13  2  0
 12 14  1  0
 14 15  1  0
 15 16  2  0
 16 17  1  0
 17 18  2  0
 18 19  1  0
 19 20  1  0
 20 21  2  0
 21 22  1  0
 22 23  2  0
 18 24  1  0
  5 25  2  0
 25 26  1  0
 26  2  2  0
 24 14  2  0
 23 19  1  0
  1 27  1  0
  1 28  1  0
  1 29  1  0
  3 30  1  0
  4 31  1  0
  6 32  1  0
  9 33  1  0
  9 34  1  0
 11 35  1  0
 11 36  1  0
 11 37  1  0
 15 38  1  0
 16 39  1  0
 17 40  1  0
 20 41  1  0
 21 42  1  0
 23 43  1  0
 24 44  1  0
 25 45  1  0
 26 46  1  0
M  END
$$$$
OCNT-2311256
     RDKit          3D

 50 52  0  0  0  0  0  0  0  0999 V2000
    7.1577   -1.2550   -0.9807 C   0  0  0  0  0  0  0  0  0  0  0  0
    6.0191   -0.4727   -0.6242 O   0  0  0  0  0  0  0  0  0  0  0  0
    5.0428   -1.1757    0.0215 C   0  0  0  0  0  0  0  0  0  0  0  0
    5.1171   -2.3731    0.2765 O   0  0  0  0  0  0  0  0  0  0  0  0
    3.8830   -0.3606    0.3854 C   0  0  0  0  0  0  0  0  0  0  0  0
    3.6717    0.9981    0.1714 C   0  0  0  0  0  0  0  0  0  0  0  0
    4.5206    2.0367   -0.4726 C   0  0  0  0  0  0  0  0  0  0  0  0
    2.4392    1.3217    0.6892 N   0  0  0  0  0  0  0  0  0  0  0  0
    1.8350    0.2092    1.2177 C   0  0  0  0  0  0  0  0  0  0  0  0
    0.4838    0.2736    1.8467 C   0  0  0  0  0  0  0  0  0  0  0  0
   -0.4373   -0.6997    1.2769 N   0  0  0  0  0  0  0  0  0  0  0  0
   -0.8601   -0.4575   -0.1136 C   0  0  0  0  0  0  0  0  0  0  0  0
   -1.5419   -1.7328   -0.6388 C   0  0  0  0  0  0  0  0  0  0  0  0
   -2.8464   -1.9894    0.1108 C   0  0  0  0  0  0  0  0  0  0  0  0
   -3.8778   -0.8494   -0.0907 C   0  0  0  0  0  0  0  0  0  0  0  0
   -4.8839   -0.9279    1.0786 C   0  0  0  0  0  0  0  0  0  0  0  0
   -4.6395   -1.1120   -1.4121 C   0  0  0  0  0  0  0  0  0  0  0  0
   -3.2277    0.5414   -0.1691 C   0  0  0  0  0  0  0  0  0  0  0  0
   -4.0439    1.6894   -0.2578 C   0  0  0  0  0  0  0  0  0  0  0  0
   -3.4998    2.9627   -0.4292 C   0  0  0  0  0  0  0  0  0  0  0  0
   -2.1252    3.1185   -0.5322 C   0  0  0  0  0  0  0  0  0  0  0  0
   -1.2977    2.0018   -0.4440 C   0  0  0  0  0  0  0  0  0  0  0  0
   -1.8257    0.7107   -0.2403 C   0  0  0  0  0  0  0  0  0  0  0  0
    2.7175   -0.8402    1.0583 C   0  0  0  0  0  0  0  0  0  0  0  0
    7.8721   -0.6011   -1.4890 H   0  0  0  0  0  0  0  0  0  0  0  0
    7.6389   -1.6637   -0.0863 H   0  0  0  0  0  0  0  0  0  0  0  0
    6.8732   -2.0565   -1.6700 H   0  0  0  0  0  0  0  0  0  0  0  0
    4.0416    3.0210   -0.4468 H   0  0  0  0  0  0  0  0  0  0  0  0
    5.4814    2.1212    0.0448 H   0  0  0  0  0  0  0  0  0  0  0  0
    4.7063    1.7830   -1.5210 H   0  0  0  0  0  0  0  0  0  0  0  0
    2.0340    2.2493    0.6817 H   0  0  0  0  0  0  0  0  0  0  0  0
    0.0707    1.2866    1.8218 H   0  0  0  0  0  0  0  0  0  0  0  0
    0.5998    0.0375    2.9120 H   0  0  0  0  0  0  0  0  0  0  0  0
    0.0023   -1.6158    1.3342 H   0  0  0  0  0  0  0  0  0  0  0  0
    0.0115   -0.2857   -0.7579 H   0  0  0  0  0  0  0  0  0  0  0  0
   -1.7379   -1.6390   -1.7145 H   0  0  0  0  0  0  0  0  0  0  0  0
   -0.8752   -2.5970   -0.5236 H   0  0  0  0  0  0  0  0  0  0  0  0
   -3.2681   -2.9500   -0.2120 H   0  0  0  0  0  0  0  0  0  0  0  0
   -2.6274   -2.1152    1.1795 H   0  0  0  0  0  0  0  0  0  0  0  0
   -4.4050   -0.6667    2.0297 H   0  0  0  0  0  0  0  0  0  0  0  0
   -5.2925   -1.9407    1.1765 H   0  0  0  0  0  0  0  0  0  0  0  0
   -5.7352   -0.2524    0.9429 H   0  0  0  0  0  0  0  0  0  0  0  0
   -5.4537   -0.3941   -1.5646 H   0  0  0  0  0  0  0  0  0  0  0  0
   -3.9763   -1.0389   -2.2818 H   0  0  0  0  0  0  0  0  0  0  0  0
   -5.0897   -2.1115   -1.4180 H   0  0  0  0  0  0  0  0  0  0  0  0
   -5.1272    1.6011   -0.2144 H   0  0  0  0  0  0  0  0  0  0  0  0
   -4.1545    3.8271   -0.4984 H   0  0  0  0  0  0  0  0  0  0  0  0
   -1.6981    4.1057   -0.6832 H   0  0  0  0  0  0  0  0  0  0  0  0
   -0.2242    2.1383   -0.5382 H   0  0  0  0  0  0  0  0  0  0  0  0
    2.5528   -1.8606    1.3843 H   0  0  0  0  0  0  0  0  0  0  0  0
  1  2  1  0
  2  3  1  0
  3  4  2  0
  3  5  1  0
  5  6  2  0
  6  7  1  0
  6  8  1  0
  8  9  1  0
  9 10  1  0
 10 11  1  0
 11 12  1  0
 12 13  1  0
 13 14  1  0
 14 15  1  0
 15 16  1  0
 15 17  1  0
 15 18  1  0
 18 19  2  0
 19 20  1  0
 20 21  2  0
 21 22  1  0
 22 23  2  0
  9 24  2  0
 24  5  1  0
 23 12  1  0
 23 18  1  0
  1 25  1  0
  1 26  1  0
  1 27  1  0
  7 28  1  0
  7 29  1  0
  7 30  1  0
  8 31  1  0
 10 32  1  0
 10 33  1  0
 11 34  1  0
 12 35  1  0
 13 36  1  0
 13 37  1  0
 14 38  1  0
 14 39  1  0
 16 40  1  0
 16 41  1  0
 16 42  1  0
 17 43  1  0
 17 44  1  0
 17 45  1  0
 19 46  1  0
 20 47  1  0
 21 48  1  0
 22 49  1  0
 24 50  1  0
M  END
$$$$
OCNT-2311260
     RDKit          3D

 56 59  0  0  0  0  0  0  0  0999 V2000
    7.8692    3.0804    2.6256 C   0  0  0  0  0  0  0  0  0  0  0  0
    7.1354    1.7719    2.7077 C   0  0  0  0  0  0  0  0  0  0  0  0
    7.5079    0.8012    3.6451 C   0  0  0  0  0  0  0  0  0  0  0  0
    6.8430   -0.4230    3.6966 C   0  0  0  0  0  0  0  0  0  0  0  0
    5.8052   -0.6945    2.8038 C   0  0  0  0  0  0  0  0  0  0  0  0
    5.4154    0.2583    1.8529 C   0  0  0  0  0  0  0  0  0  0  0  0
    4.3199   -0.0028    0.8388 C   0  0  0  0  0  0  0  0  0  0  0  0
    3.5372   -1.1498    1.1877 O   0  0  0  0  0  0  0  0  0  0  0  0
    2.4260   -1.3796    0.4192 C   0  0  0  0  0  0  0  0  0  0  0  0
    1.5038   -2.2680    0.9737 C   0  0  0  0  0  0  0  0  0  0  0  0
    0.3334   -2.6017    0.2876 C   0  0  0  0  0  0  0  0  0  0  0  0
    0.0675   -2.0633   -0.9824 C   0  0  0  0  0  0  0  0  0  0  0  0
   -1.2142   -2.4465   -1.7105 C   0  0  0  0  0  0  0  0  0  0  0  0
   -0.9683   -2.7223   -3.2017 C   0  0  0  0  0  0  0  0  0  0  0  0
   -2.2234   -1.4058   -1.4673 N   0  0  0  0  0  0  0  0  0  0  0  0
   -3.5395   -1.7343   -2.0417 C   0  0  0  0  0  0  0  0  0  0  0  0
   -4.5401   -0.6884   -1.5586 C   0  0  0  0  0  0  0  0  0  0  0  0
   -5.0513    0.1587   -2.3911 N   0  0  0  0  0  0  0  0  0  0  0  0
   -5.8391    1.2346   -1.9537 C   0  0  0  0  0  0  0  0  0  0  0  0
   -6.1418    2.2250   -2.8962 C   0  0  0  0  0  0  0  0  0  0  0  0
   -6.8897    3.3561   -2.5464 C   0  0  0  0  0  0  0  0  0  0  0  0
   -7.3446    3.5181   -1.2416 C   0  0  0  0  0  0  0  0  0  0  0  0
   -7.0564    2.5461   -0.2876 C   0  0  0  0  0  0  0  0  0  0  0  0
   -6.3128    1.4192   -0.6595 C   0  0  0  0  0  0  0  0  0  0  0  0
   -5.9820    0.1834    0.5212 S   0  0  0  0  0  0  0  0  0  0  0  0
   -7.1532   -0.6583    0.6226 O   0  0  0  0  0  0  0  0  0  0  0  0
   -5.4008    0.8137    1.6855 O   0  0  0  0  0  0  0  0  0  0  0  0
   -4.7801   -0.6946   -0.1814 N   0  0  0  0  0  0  0  0  0  0  0  0
    0.9934   -1.1573   -1.5204 C   0  0  0  0  0  0  0  0  0  0  0  0
    2.1662   -0.8250   -0.8297 C   0  0  0  0  0  0  0  0  0  0  0  0
    6.0984    1.4870    1.8098 C   0  0  0  0  0  0  0  0  0  0  0  0
    8.4030    3.2941    3.5615 H   0  0  0  0  0  0  0  0  0  0  0  0
    8.5964    3.0520    1.8082 H   0  0  0  0  0  0  0  0  0  0  0  0
    7.1705    3.9085    2.4530 H   0  0  0  0  0  0  0  0  0  0  0  0
    8.3210    0.9907    4.3416 H   0  0  0  0  0  0  0  0  0  0  0  0
    7.1363   -1.1698    4.4303 H   0  0  0  0  0  0  0  0  0  0  0  0
    5.3050   -1.6594    2.8571 H   0  0  0  0  0  0  0  0  0  0  0  0
    4.8002   -0.1662   -0.1340 H   0  0  0  0  0  0  0  0  0  0  0  0
    3.6728    0.8818    0.8061 H   0  0  0  0  0  0  0  0  0  0  0  0
    1.6957   -2.7110    1.9486 H   0  0  0  0  0  0  0  0  0  0  0  0
   -0.3706   -3.2856    0.7535 H   0  0  0  0  0  0  0  0  0  0  0  0
   -1.5694   -3.3873   -1.2690 H   0  0  0  0  0  0  0  0  0  0  0  0
   -0.7719   -1.8032   -3.7637 H   0  0  0  0  0  0  0  0  0  0  0  0
   -0.1091   -3.3891   -3.3402 H   0  0  0  0  0  0  0  0  0  0  0  0
   -1.8320   -3.2129   -3.6597 H   0  0  0  0  0  0  0  0  0  0  0  0
   -1.8958   -0.5244   -1.8728 H   0  0  0  0  0  0  0  0  0  0  0  0
   -3.5210   -1.7318   -3.1366 H   0  0  0  0  0  0  0  0  0  0  0  0
   -3.8792   -2.7157   -1.6868 H   0  0  0  0  0  0  0  0  0  0  0  0
   -5.7803    2.1164   -3.9158 H   0  0  0  0  0  0  0  0  0  0  0  0
   -7.1104    4.1113   -3.3011 H   0  0  0  0  0  0  0  0  0  0  0  0
   -7.9253    4.3969   -0.9712 H   0  0  0  0  0  0  0  0  0  0  0  0
   -7.4093    2.6620    0.7359 H   0  0  0  0  0  0  0  0  0  0  0  0
   -4.0124   -0.9839    0.4282 H   0  0  0  0  0  0  0  0  0  0  0  0
    0.8198   -0.6961   -2.4891 H   0  0  0  0  0  0  0  0  0  0  0  0
    2.8635   -0.1464   -1.3112 H   0  0  0  0  0  0  0  0  0  0  0  0
    5.8177    2.2311    1.0658 H   0  0  0  0  0  0  0  0  0  0  0  0
  1  2  1  0
  2  3  1  0
  3  4  2  0
  4  5  1  0
  5  6  2  0
  6  7  1  0
  7  8  1  0
  8  9  1  0
  9 10  1  0
 10 11  2  0
 11 12  1  0
 12 13  1  0
 13 14  1  0
 13 15  1  0
 15 16  1  0
 16 17  1  0
 17 18  2  0
 18 19  1  0
 19 20  2  0
 20 21  1  0
 21 22  2  0
 22 23  1  0
 23 24  2  0
 24 25  1  0
 25 26  2  0
 25 27  2  0
 25 28  1  0
 12 29  2  0
 29 30  1  0
  6 31  1  0
 31  2  2  0
 30  9  2  0
 28 17  1  0
 24 19  1  0
  1 32  1  0
  1 33  1  0
  1 34  1  0
  3 35  1  0
  4 36  1  0
  5 37  1  0
  7 38  1  0
  7 39  1  0
 10 40  1  0
 11 41  1  0
 13 42  1  0
 14 43  1  0
 14 44  1  0
 14 45  1  0
 15 46  1  0
 16 47  1  0
 16 48  1  0
 20 49  1  0
 21 50  1  0
 22 51  1  0
 23 52  1  0
 28 53  1  0
 29 54  1  0
 30 55  1  0
 31 56  1  0
M  END
$$$$
OCNT-2311263
     RDKit          3D

 51 53  0  0  0  0  0  0  0  0999 V2000
    7.4920   -1.7989    1.8920 C   0  0  0  0  0  0  0  0  0  0  0  0
    6.2697   -2.2014    2.4955 O   0  0  0  0  0  0  0  0  0  0  0  0
    5.4192   -1.0855    2.8097 C   0  0  0  0  0  0  0  0  0  0  0  0
    4.7874   -0.4328    1.6201 C   0  0  0  0  0  0  0  0  0  0  0  0
    5.3105    0.6484    1.0169 N   0  0  0  0  0  0  0  0  0  0  0  0
    4.4246    0.8569    0.0325 N   0  0  0  0  0  0  0  0  0  0  0  0
    4.5664    1.9435   -0.9101 C   0  0  0  0  0  0  0  0  0  0  0  0
    3.2537    2.2231   -1.6404 C   0  0  0  0  0  0  0  0  0  0  0  0
    2.6007    0.9158   -2.1062 C   0  0  0  0  0  0  0  0  0  0  0  0
    2.2889   -0.0311   -0.9274 C   0  0  0  0  0  0  0  0  0  0  0  0
    1.1113    0.3704   -0.1710 N   0  0  0  0  0  0  0  0  0  0  0  0
   -0.1526    0.2461   -0.7062 C   0  0  0  0  0  0  0  0  0  0  0  0
   -0.3585   -0.0726   -1.8776 O   0  0  0  0  0  0  0  0  0  0  0  0
   -1.3054    0.5169    0.2815 C   0  0  0  0  0  0  0  0  0  0  0  0
   -1.2362    1.9342    0.8380 C   0  0  0  0  0  0  0  0  0  0  0  0
   -2.5598    0.2980   -0.4330 N   0  0  0  0  0  0  0  0  0  0  0  0
   -3.7048   -0.0518    0.2484 C   0  0  0  0  0  0  0  0  0  0  0  0
   -3.7418   -0.1074    1.4701 O   0  0  0  0  0  0  0  0  0  0  0  0
   -4.7393   -0.2879   -0.6276 N   0  0  0  0  0  0  0  0  0  0  0  0
   -6.0460   -0.7188   -0.3258 C   0  0  0  0  0  0  0  0  0  0  0  0
   -6.4674   -1.0925    0.9514 C   0  0  0  0  0  0  0  0  0  0  0  0
   -7.7826   -1.5167    1.1680 C   0  0  0  0  0  0  0  0  0  0  0  0
   -8.6857   -1.5736    0.1091 C   0  0  0  0  0  0  0  0  0  0  0  0
   -8.2744   -1.2075   -1.1694 C   0  0  0  0  0  0  0  0  0  0  0  0
   -6.9604   -0.7836   -1.3856 C   0  0  0  0  0  0  0  0  0  0  0  0
    3.4238   -0.0696    0.0444 C   0  0  0  0  0  0  0  0  0  0  0  0
    3.6068   -0.8795    1.0664 N   0  0  0  0  0  0  0  0  0  0  0  0
    8.0156   -1.0707    2.5190 H   0  0  0  0  0  0  0  0  0  0  0  0
    7.3184   -1.3874    0.8939 H   0  0  0  0  0  0  0  0  0  0  0  0
    8.1265   -2.6834    1.7877 H   0  0  0  0  0  0  0  0  0  0  0  0
    5.9764   -0.3552    3.4089 H   0  0  0  0  0  0  0  0  0  0  0  0
    4.6217   -1.4744    3.4528 H   0  0  0  0  0  0  0  0  0  0  0  0
    4.9012    2.8315   -0.3644 H   0  0  0  0  0  0  0  0  0  0  0  0
    5.3486    1.6453   -1.6168 H   0  0  0  0  0  0  0  0  0  0  0  0
    3.4427    2.8775   -2.4986 H   0  0  0  0  0  0  0  0  0  0  0  0
    2.5645    2.7574   -0.9746 H   0  0  0  0  0  0  0  0  0  0  0  0
    3.2933    0.4104   -2.7927 H   0  0  0  0  0  0  0  0  0  0  0  0
    1.7004    1.1469   -2.6845 H   0  0  0  0  0  0  0  0  0  0  0  0
    2.1031   -1.0398   -1.3154 H   0  0  0  0  0  0  0  0  0  0  0  0
    1.1818    0.2488    0.8352 H   0  0  0  0  0  0  0  0  0  0  0  0
   -1.2309   -0.2166    1.0931 H   0  0  0  0  0  0  0  0  0  0  0  0
   -2.0810    2.1417    1.5028 H   0  0  0  0  0  0  0  0  0  0  0  0
   -1.2593    2.6747    0.0303 H   0  0  0  0  0  0  0  0  0  0  0  0
   -0.3150    2.0949    1.4074 H   0  0  0  0  0  0  0  0  0  0  0  0
   -2.4491   -0.0887   -1.3639 H   0  0  0  0  0  0  0  0  0  0  0  0
   -4.5617   -0.0232   -1.5844 H   0  0  0  0  0  0  0  0  0  0  0  0
   -5.7943   -1.0686    1.8027 H   0  0  0  0  0  0  0  0  0  0  0  0
   -8.0969   -1.8033    2.1684 H   0  0  0  0  0  0  0  0  0  0  0  0
   -9.7065   -1.9038    0.2816 H   0  0  0  0  0  0  0  0  0  0  0  0
   -8.9750   -1.2519   -1.9990 H   0  0  0  0  0  0  0  0  0  0  0  0
   -6.6645   -0.5043   -2.3931 H   0  0  0  0  0  0  0  0  0  0  0  0
  1  2  1  0
  2  3  1  0
  3  4  1  0
  4  5  2  0
  5  6  1  0
  6  7  1  0
  7  8  1  0
  8  9  1  0
  9 10  1  0
 10 11  1  0
 11 12  1  0
 12 13  2  0
 12 14  1  0
 14 15  1  0
 14 16  1  0
 16 17  1  0
 17 18  2  0
 17 19  1  0
 19 20  1  0
 20 21  2  0
 21 22  1  0
 22 23  2  0
 23 24  1  0
 24 25  2  0
 10 26  1  0
 26 27  2  0
 27  4  1  0
 26  6  1  0
 25 20  1  0
  1 28  1  0
  1 29  1  0
  1 30  1  0
  3 31  1  0
  3 32  1  0
  7 33  1  0
  7 34  1  0
  8 35  1  0
  8 36  1  0
  9 37  1  0
  9 38  1  0
 10 39  1  0
 11 40  1  0
 14 41  1  0
 15 42  1  0
 15 43  1  0
 15 44  1  0
 16 45  1  0
 19 46  1  0
 21 47  1  0
 22 48  1  0
 23 49  1  0
 24 50  1  0
 25 51  1  0
M  END
$$$$
OCNT-2311283
     RDKit          3D

 54 56  0  0  0  0  0  0  0  0999 V2000
   -3.2123    3.4126    2.7551 C   0  0  0  0  0  0  0  0  0  0  0  0
   -2.3766    2.4185    2.1728 O   0  0  0  0  0  0  0  0  0  0  0  0
   -2.7665    1.9268    0.9645 C   0  0  0  0  0  0  0  0  0  0  0  0
   -3.8731    2.2916    0.2238 C   0  0  0  0  0  0  0  0  0  0  0  0
   -4.1990    1.7513   -0.9770 N   0  0  0  0  0  0  0  0  0  0  0  0
   -3.4173    0.8048   -1.5012 C   0  0  0  0  0  0  0  0  0  0  0  0
   -3.7824    0.3060   -2.6720 N   0  0  0  0  0  0  0  0  0  0  0  0
   -3.0056   -0.6384   -3.2018 C   0  0  0  0  0  0  0  0  0  0  0  0
   -1.8845   -1.1302   -2.6710 N   0  0  0  0  0  0  0  0  0  0  0  0
   -1.5177   -0.6282   -1.4807 C   0  0  0  0  0  0  0  0  0  0  0  0
   -0.3000   -1.0862   -0.8814 N   0  0  0  0  0  0  0  0  0  0  0  0
   -0.1767   -2.5624   -0.9727 C   0  0  0  0  0  0  0  0  0  0  0  0
   -0.8179   -3.3030    0.2197 C   0  0  0  0  0  0  0  0  0  0  0  0
   -0.2755   -2.8207    1.5654 C   0  0  0  0  0  0  0  0  0  0  0  0
   -2.3454   -3.2720    0.2115 C   0  0  0  0  0  0  0  0  0  0  0  0
    0.8055   -0.3575   -1.5516 C   0  0  0  0  0  0  0  0  0  0  0  0
    2.0844   -0.3324   -0.6904 C   0  0  0  0  0  0  0  0  0  0  0  0
    1.8885    0.4528    0.6145 C   0  0  0  0  0  0  0  0  0  0  0  0
    3.2015    0.5911    1.3888 C   0  0  0  0  0  0  0  0  0  0  0  0
    4.3036    1.1609    0.6056 N   0  0  0  0  0  0  0  0  0  0  0  0
    4.1430    2.5960    0.3845 C   0  0  0  0  0  0  0  0  0  0  0  0
    4.5061    0.4208   -0.6439 C   0  0  0  0  0  0  0  0  0  0  0  0
    3.2426    0.2787   -1.4954 C   0  0  0  0  0  0  0  0  0  0  0  0
   -2.2694    0.3706   -0.8369 C   0  0  0  0  0  0  0  0  0  0  0  0
   -1.9562    0.9457    0.4162 C   0  0  0  0  0  0  0  0  0  0  0  0
   -4.2162    3.0199    2.9480 H   0  0  0  0  0  0  0  0  0  0  0  0
   -3.2532    4.3091    2.1277 H   0  0  0  0  0  0  0  0  0  0  0  0
   -2.7740    3.6969    3.7166 H   0  0  0  0  0  0  0  0  0  0  0  0
   -4.5737    3.0496    0.5576 H   0  0  0  0  0  0  0  0  0  0  0  0
   -3.3137   -1.0437   -4.1596 H   0  0  0  0  0  0  0  0  0  0  0  0
   -0.5558   -2.9676   -1.9196 H   0  0  0  0  0  0  0  0  0  0  0  0
    0.8866   -2.8326   -0.9674 H   0  0  0  0  0  0  0  0  0  0  0  0
   -0.5276   -4.3576    0.1150 H   0  0  0  0  0  0  0  0  0  0  0  0
    0.8191   -2.8498    1.5788 H   0  0  0  0  0  0  0  0  0  0  0  0
   -0.6358   -3.4623    2.3768 H   0  0  0  0  0  0  0  0  0  0  0  0
   -0.5941   -1.7976    1.7870 H   0  0  0  0  0  0  0  0  0  0  0  0
   -2.7382   -2.2832    0.4631 H   0  0  0  0  0  0  0  0  0  0  0  0
   -2.7428   -3.9748    0.9522 H   0  0  0  0  0  0  0  0  0  0  0  0
   -2.7390   -3.5655   -0.7671 H   0  0  0  0  0  0  0  0  0  0  0  0
    0.5199    0.6843   -1.7583 H   0  0  0  0  0  0  0  0  0  0  0  0
    1.0209   -0.8243   -2.5230 H   0  0  0  0  0  0  0  0  0  0  0  0
    2.3709   -1.3574   -0.4246 H   0  0  0  0  0  0  0  0  0  0  0  0
    1.4734    1.4453    0.4012 H   0  0  0  0  0  0  0  0  0  0  0  0
    1.1638   -0.0612    1.2546 H   0  0  0  0  0  0  0  0  0  0  0  0
    3.0346    1.1844    2.2964 H   0  0  0  0  0  0  0  0  0  0  0  0
    3.5088   -0.4017    1.7431 H   0  0  0  0  0  0  0  0  0  0  0  0
    3.2546    2.8479   -0.2030 H   0  0  0  0  0  0  0  0  0  0  0  0
    4.0775    3.1244    1.3423 H   0  0  0  0  0  0  0  0  0  0  0  0
    5.0190    3.0024   -0.1333 H   0  0  0  0  0  0  0  0  0  0  0  0
    5.3014    0.8882   -1.2375 H   0  0  0  0  0  0  0  0  0  0  0  0
    4.8794   -0.5812   -0.3946 H   0  0  0  0  0  0  0  0  0  0  0  0
    2.9501    1.2575   -1.8952 H   0  0  0  0  0  0  0  0  0  0  0  0
    3.4652   -0.3574   -2.3609 H   0  0  0  0  0  0  0  0  0  0  0  0
   -1.0800    0.6107    0.9629 H   0  0  0  0  0  0  0  0  0  0  0  0
  1  2  1  0
  2  3  1  0
  3  4  1  0
  4  5  2  0
  5  6  1  0
  6  7  2  0
  7  8  1  0
  8  9  2  0
  9 10  1  0
 10 11  1  0
 11 12  1  0
 12 13  1  0
 13 14  1  0
 13 15  1  0
 11 16  1  0
 16 17  1  0
 17 18  1  0
 18 19  1  0
 19 20  1  0
 20 21  1  0
 20 22  1  0
 22 23  1  0
 10 24  2  0
 24 25  1  0
 25  3  2  0
 24  6  1  0
 23 17  1  0
  1 26  1  0
  1 27  1  0
  1 28  1  0
  4 29  1  0
  8 30  1  0
 12 31  1  0
 12 32  1  0
 13 33  1  0
 14 34  1  0
 14 35  1  0
 14 36  1  0
 15 37  1  0
 15 38  1  0
 15 39  1  0
 16 40  1  0
 16 41  1  0
 17 42  1  0
 18 43  1  0
 18 44  1  0
 19 45  1  0
 19 46  1  0
 21 47  1  0
 21 48  1  0
 21 49  1  0
 22 50  1  0
 22 51  1  0
 23 52  1  0
 23 53  1  0
 25 54  1  0
M  END
$$$$
OCNT-2311302
     RDKit          3D

 42 45  0  0  0  0  0  0  0  0999 V2000
   -2.1132    2.8192    1.0223 O   0  0  0  0  0  0  0  0  0  0  0  0
   -2.7730    1.9618    0.4542 C   0  0  0  0  0  0  0  0  0  0  0  0
   -4.0951    2.1657    0.0389 N   0  0  0  0  0  0  0  0  0  0  0  0
   -4.5735    1.0149   -0.5566 C   0  0  0  0  0  0  0  0  0  0  0  0
   -5.8358    0.7939   -1.0667 C   0  0  0  0  0  0  0  0  0  0  0  0
   -6.1012   -0.4797   -1.5678 C   0  0  0  0  0  0  0  0  0  0  0  0
   -5.1162   -1.4827   -1.5261 C   0  0  0  0  0  0  0  0  0  0  0  0
   -3.8414   -1.2258   -0.9990 C   0  0  0  0  0  0  0  0  0  0  0  0
   -3.5663    0.0488   -0.5387 C   0  0  0  0  0  0  0  0  0  0  0  0
   -2.4068    0.6202    0.0627 N   0  0  0  0  0  0  0  0  0  0  0  0
   -1.1350    0.0835    0.2573 C   0  0  0  0  0  0  0  0  0  0  0  0
   -0.6343   -0.9522   -0.4422 C   0  0  0  0  0  0  0  0  0  0  0  0
    0.7424   -1.5238   -0.2441 C   0  0  0  0  0  0  0  0  0  0  0  0
    1.6407   -0.6651    0.5357 N   0  0  0  0  0  0  0  0  0  0  0  0
    2.8827   -1.3858    0.8703 C   0  0  0  0  0  0  0  0  0  0  0  0
    4.0512   -0.4816    1.3097 C   0  0  0  0  0  0  0  0  0  0  0  0
    4.6256    0.3503    0.1945 C   0  0  0  0  0  0  0  0  0  0  0  0
    4.0405    1.4932   -0.3203 C   0  0  0  0  0  0  0  0  0  0  0  0
    4.9560    2.2016   -1.5778 S   0  0  0  0  0  0  0  0  0  0  0  0
    6.1567    0.9930   -1.4552 C   0  0  0  0  0  0  0  0  0  0  0  0
    5.8621    0.0698   -0.4766 C   0  0  0  0  0  0  0  0  0  0  0  0
    0.9433   -0.1561    1.7221 C   0  0  0  0  0  0  0  0  0  0  0  0
   -0.2478    0.7236    1.3095 C   0  0  0  0  0  0  0  0  0  0  0  0
   -4.5907    3.0287    0.1891 H   0  0  0  0  0  0  0  0  0  0  0  0
   -6.5944    1.5673   -1.0708 H   0  0  0  0  0  0  0  0  0  0  0  0
   -7.0826   -0.7067   -1.9785 H   0  0  0  0  0  0  0  0  0  0  0  0
   -5.3518   -2.4782   -1.8976 H   0  0  0  0  0  0  0  0  0  0  0  0
   -3.1299   -2.0374   -0.9368 H   0  0  0  0  0  0  0  0  0  0  0  0
   -1.1833   -1.4089   -1.2536 H   0  0  0  0  0  0  0  0  0  0  0  0
    0.6309   -2.5099    0.2258 H   0  0  0  0  0  0  0  0  0  0  0  0
    1.1857   -1.6815   -1.2350 H   0  0  0  0  0  0  0  0  0  0  0  0
    2.6846   -2.1232    1.6593 H   0  0  0  0  0  0  0  0  0  0  0  0
    3.2208   -1.9534   -0.0076 H   0  0  0  0  0  0  0  0  0  0  0  0
    4.8459   -1.1278    1.7058 H   0  0  0  0  0  0  0  0  0  0  0  0
    3.7621    0.1709    2.1411 H   0  0  0  0  0  0  0  0  0  0  0  0
    3.1026    1.9428   -0.0213 H   0  0  0  0  0  0  0  0  0  0  0  0
    7.0198    1.0169   -2.1057 H   0  0  0  0  0  0  0  0  0  0  0  0
    6.5060   -0.7714   -0.2503 H   0  0  0  0  0  0  0  0  0  0  0  0
    0.5971   -0.9840    2.3559 H   0  0  0  0  0  0  0  0  0  0  0  0
    1.6069    0.4607    2.3372 H   0  0  0  0  0  0  0  0  0  0  0  0
   -0.8281    0.9330    2.2163 H   0  0  0  0  0  0  0  0  0  0  0  0
    0.1366    1.6751    0.9207 H   0  0  0  0  0  0  0  0  0  0  0  0
  1  2  2  0
  2  3  1  0
  3  4  1  0
  4  5  2  0
  5  6  1  0
  6  7  2  0
  7  8  1  0
  8  9  2  0
  9 10  1  0
 10 11  1  0
 11 12  2  0
 12 13  1  0
 13 14  1  0
 14 15  1  0
 15 16  1  0
 16 17  1  0
 17 18  2  0
 18 19  1  0
 19 20  1  0
 20 21  2  0
 14 22  1  0
 22 23  1  0
 10  2  1  0
 23 11  1  0
  9  4  1  0
 21 17  1  0
  3 24  1  0
  5 25  1  0
  6 26  1  0
  7 27  1  0
  8 28  1  0
 12 29  1  0
 13 30  1  0
 13 31  1  0
 15 32  1  0
 15 33  1  0
 16 34  1  0
 16 35  1  0
 18 36  1  0
 20 37  1  0
 21 38  1  0
 22 39  1  0
 22 40  1  0
 23 41  1  0
 23 42  1  0
M  END
$$$$
OCNT-2311311
     RDKit          3D

 42 45  0  0  0  0  0  0  0  0999 V2000
    7.9764   -1.7742    0.2081 C   0  0  0  0  0  0  0  0  0  0  0  0
    6.6014   -1.5357   -0.3668 C   0  0  0  0  0  0  0  0  0  0  0  0
    6.3406   -1.8886   -1.5106 O   0  0  0  0  0  0  0  0  0  0  0  0
    5.7722   -0.8858    0.5175 N   0  0  0  0  0  0  0  0  0  0  0  0
    4.4670   -0.5141    0.3125 C   0  0  0  0  0  0  0  0  0  0  0  0
    3.8003    0.1155    1.2547 N   0  0  0  0  0  0  0  0  0  0  0  0
    2.5179    0.3730    0.7991 C   0  0  0  0  0  0  0  0  0  0  0  0
    1.4621    1.0107    1.4370 C   0  0  0  0  0  0  0  0  0  0  0  0
    0.2770    1.1541    0.7985 N   0  0  0  0  0  0  0  0  0  0  0  0
    0.1384    0.6816   -0.4563 C   0  0  0  0  0  0  0  0  0  0  0  0
   -1.0863    0.8304   -1.1139 N   0  0  0  0  0  0  0  0  0  0  0  0
   -2.3721    0.9880   -0.4555 C   0  0  0  0  0  0  0  0  0  0  0  0
   -2.7099   -0.2611    0.3672 C   0  0  0  0  0  0  0  0  0  0  0  0
   -4.0091   -0.1922    1.1577 C   0  0  0  0  0  0  0  0  0  0  0  0
   -4.4283   -1.6407    1.1991 C   0  0  0  0  0  0  0  0  0  0  0  0
   -4.0173   -2.1225   -0.1733 C   0  0  0  0  0  0  0  0  0  0  0  0
   -2.8306   -1.3980   -0.5221 O   0  0  0  0  0  0  0  0  0  0  0  0
   -3.4172    1.4500   -1.5296 C   0  0  0  0  0  0  0  0  0  0  0  0
   -3.0783    2.9086   -1.1705 C   0  0  0  0  0  0  0  0  0  0  0  0
   -2.5401    2.4041    0.1821 C   0  0  0  0  0  0  0  0  0  0  0  0
    1.0897    0.0492   -1.1525 N   0  0  0  0  0  0  0  0  0  0  0  0
    2.2457   -0.0728   -0.4825 C   0  0  0  0  0  0  0  0  0  0  0  0
    3.6218   -0.8320   -1.1341 S   0  0  0  0  0  0  0  0  0  0  0  0
    8.6351   -0.9518   -0.0831 H   0  0  0  0  0  0  0  0  0  0  0  0
    8.3716   -2.7165   -0.1826 H   0  0  0  0  0  0  0  0  0  0  0  0
    7.9475   -1.8478    1.2991 H   0  0  0  0  0  0  0  0  0  0  0  0
    6.1203   -0.6227    1.4288 H   0  0  0  0  0  0  0  0  0  0  0  0
    1.5330    1.4095    2.4408 H   0  0  0  0  0  0  0  0  0  0  0  0
   -1.0973    0.1080   -1.8312 H   0  0  0  0  0  0  0  0  0  0  0  0
   -1.8986   -0.4979    1.0663 H   0  0  0  0  0  0  0  0  0  0  0  0
   -3.8699    0.2416    2.1525 H   0  0  0  0  0  0  0  0  0  0  0  0
   -4.7812    0.3936    0.6506 H   0  0  0  0  0  0  0  0  0  0  0  0
   -3.8553   -2.1697    1.9698 H   0  0  0  0  0  0  0  0  0  0  0  0
   -5.4926   -1.7846    1.4022 H   0  0  0  0  0  0  0  0  0  0  0  0
   -4.7831   -1.8908   -0.9213 H   0  0  0  0  0  0  0  0  0  0  0  0
   -3.8153   -3.1968   -0.2002 H   0  0  0  0  0  0  0  0  0  0  0  0
   -3.2109    1.1689   -2.5676 H   0  0  0  0  0  0  0  0  0  0  0  0
   -4.4594    1.1887   -1.3194 H   0  0  0  0  0  0  0  0  0  0  0  0
   -3.9291    3.5925   -1.1153 H   0  0  0  0  0  0  0  0  0  0  0  0
   -2.3090    3.3529   -1.8124 H   0  0  0  0  0  0  0  0  0  0  0  0
   -1.6411    2.9184    0.5317 H   0  0  0  0  0  0  0  0  0  0  0  0
   -3.2860    2.4569    0.9837 H   0  0  0  0  0  0  0  0  0  0  0  0
  1  2  1  0
  2  3  2  0
  2  4  1  0
  4  5  1  0
  5  6  2  0
  6  7  1  0
  7  8  2  0
  8  9  1  0
  9 10  2  0
 10 11  1  0
 11 12  1  0
 12 13  1  0
 13 14  1  0
 14 15  1  0
 15 16  1  0
 16 17  1  0
 12 18  1  0
 18 19  1  0
 19 20  1  0
 10 21  1  0
 21 22  2  0
 22 23  1  0
 23  5  1  0
 22  7  1  0
 20 12  1  0
 17 13  1  0
  1 24  1  0
  1 25  1  0
  1 26  1  0
  4 27  1  0
  8 28  1  0
 11 29  1  0
 13 30  1  0
 14 31  1  0
 14 32  1  0
 15 33  1  0
 15 34  1  0
 16 35  1  0
 16 36  1  0
 18 37  1  0
 18 38  1  0
 19 39  1  0
 19 40  1  0
 20 41  1  0
 20 42  1  0
M  END
$$$$
OCNT-2311312
     RDKit          3D

 41 44  0  0  0  0  0  0  0  0999 V2000
    5.8057    0.0988   -2.9316 C   0  0  0  0  0  0  0  0  0  0  0  0
    5.3495   -0.9920   -2.1412 O   0  0  0  0  0  0  0  0  0  0  0  0
    4.2892   -0.7504   -1.3126 C   0  0  0  0  0  0  0  0  0  0  0  0
    3.6061    0.4558   -1.1823 C   0  0  0  0  0  0  0  0  0  0  0  0
    2.5314    0.5609   -0.2899 C   0  0  0  0  0  0  0  0  0  0  0  0
    2.1116   -0.5250    0.4972 C   0  0  0  0  0  0  0  0  0  0  0  0
    0.9289   -0.3965    1.4470 C   0  0  0  0  0  0  0  0  0  0  0  0
   -0.3347   -0.6878    0.8244 N   0  0  0  0  0  0  0  0  0  0  0  0
   -1.0920    0.2679    0.1596 C   0  0  0  0  0  0  0  0  0  0  0  0
   -0.7608    1.4577    0.1361 O   0  0  0  0  0  0  0  0  0  0  0  0
   -2.3392   -0.3143   -0.5696 C   0  0  0  0  0  0  0  0  0  0  0  0
   -3.2123   -1.4149    0.1427 C   0  0  0  0  0  0  0  0  0  0  0  0
   -4.3227   -0.4090    0.1459 C   0  0  0  0  0  0  0  0  0  0  0  0
   -5.6320   -0.1957    0.5071 C   0  0  0  0  0  0  0  0  0  0  0  0
   -6.1676    1.0697    0.2531 C   0  0  0  0  0  0  0  0  0  0  0  0
   -5.3840    2.0745   -0.3465 C   0  0  0  0  0  0  0  0  0  0  0  0
   -4.0568    1.8243   -0.7028 C   0  0  0  0  0  0  0  0  0  0  0  0
   -3.5591    0.5686   -0.4413 C   0  0  0  0  0  0  0  0  0  0  0  0
    1.0022    0.6181    2.5720 C   0  0  0  0  0  0  0  0  0  0  0  0
    1.1175   -0.8367    2.8909 C   0  0  0  0  0  0  0  0  0  0  0  0
    2.8092   -1.7335    0.3416 C   0  0  0  0  0  0  0  0  0  0  0  0
    3.8838   -1.8435   -0.5471 C   0  0  0  0  0  0  0  0  0  0  0  0
    5.0290    0.4347   -3.6265 H   0  0  0  0  0  0  0  0  0  0  0  0
    6.6548   -0.2518   -3.5263 H   0  0  0  0  0  0  0  0  0  0  0  0
    6.1579    0.9229   -2.3023 H   0  0  0  0  0  0  0  0  0  0  0  0
    3.8742    1.3350   -1.7581 H   0  0  0  0  0  0  0  0  0  0  0  0
    1.9995    1.5090   -0.2094 H   0  0  0  0  0  0  0  0  0  0  0  0
   -0.5636   -1.6642    0.6986 H   0  0  0  0  0  0  0  0  0  0  0  0
   -2.0924   -0.5829   -1.6062 H   0  0  0  0  0  0  0  0  0  0  0  0
   -2.8624   -1.7316    1.1314 H   0  0  0  0  0  0  0  0  0  0  0  0
   -3.3716   -2.3141   -0.4632 H   0  0  0  0  0  0  0  0  0  0  0  0
   -6.2249   -0.9729    0.9750 H   0  0  0  0  0  0  0  0  0  0  0  0
   -7.1983    1.2850    0.5246 H   0  0  0  0  0  0  0  0  0  0  0  0
   -5.8161    3.0550   -0.5315 H   0  0  0  0  0  0  0  0  0  0  0  0
   -3.4392    2.5895   -1.1604 H   0  0  0  0  0  0  0  0  0  0  0  0
    1.8915    1.2319    2.6582 H   0  0  0  0  0  0  0  0  0  0  0  0
    0.0912    1.1366    2.8492 H   0  0  0  0  0  0  0  0  0  0  0  0
    0.2846   -1.3033    3.4035 H   0  0  0  0  0  0  0  0  0  0  0  0
    2.0880   -1.1983    3.2112 H   0  0  0  0  0  0  0  0  0  0  0  0
    2.5157   -2.6048    0.9220 H   0  0  0  0  0  0  0  0  0  0  0  0
    4.4084   -2.7910   -0.6427 H   0  0  0  0  0  0  0  0  0  0  0  0
  1  2  1  0
  2  3  1  0
  3  4  1  0
  4  5  2  0
  5  6  1  0
  6  7  1  0
  7  8  1  0
  8  9  1  0
  9 10  2  0
  9 11  1  0
 11 12  1  0
 12 13  1  0
 13 14  2  0
 14 15  1  0
 15 16  2  0
 16 17  1  0
 17 18  2  0
  7 19  1  0
 19 20  1  0
  6 21  2  0
 21 22  1  0
 22  3  2  0
 20  7  1  0
 18 11  1  0
 18 13  1  0
  1 23  1  0
  1 24  1  0
  1 25  1  0
  4 26  1  0
  5 27  1  0
  8 28  1  0
 11 29  1  0
 12 30  1  0
 12 31  1  0
 14 32  1  0
 15 33  1  0
 16 34  1  0
 17 35  1  0
 19 36  1  0
 19 37  1  0
 20 38  1  0
 20 39  1  0
 21 40  1  0
 22 41  1  0
M  END
$$$$
OCNT-2311317
     RDKit          3D

 38 42  0  0  0  0  0  0  0  0999 V2000
    1.9354   -0.2030   -2.1934 F   0  0  0  0  0  0  0  0  0  0  0  0
    2.6180   -0.8729   -1.2042 C   0  0  0  0  0  0  0  0  0  0  0  0
    1.8329   -1.9290   -0.8081 F   0  0  0  0  0  0  0  0  0  0  0  0
    4.0854   -1.0209   -1.2863 C   0  0  0  0  0  0  0  0  0  0  0  0
    3.4485   -0.1221   -0.2334 C   0  0  0  0  0  0  0  0  0  0  0  0
    3.4560   -0.4695    1.1942 N   0  0  0  0  0  0  0  0  0  0  0  0
    4.5118   -1.1164    1.7285 N   0  0  0  0  0  0  0  0  0  0  0  0
    4.1762   -1.2575    3.0124 C   0  0  0  0  0  0  0  0  0  0  0  0
    2.9316   -0.6757    3.3070 C   0  0  0  0  0  0  0  0  0  0  0  0
    2.4927   -0.1473    2.1108 C   0  0  0  0  0  0  0  0  0  0  0  0
    1.1713    0.6321    1.9349 C   0  0  0  0  0  0  0  0  0  0  0  0
    0.6681    1.2151    0.7993 C   0  0  0  0  0  0  0  0  0  0  0  0
   -0.5295    1.7400    1.2026 N   0  0  0  0  0  0  0  0  0  0  0  0
   -1.4951    2.4823    0.4142 C   0  0  0  0  0  0  0  0  0  0  0  0
   -2.0704    1.6234   -0.6576 C   0  0  0  0  0  0  0  0  0  0  0  0
   -1.8056    1.8802   -1.9487 N   0  0  0  0  0  0  0  0  0  0  0  0
   -2.4693    0.9145   -2.6103 N   0  0  0  0  0  0  0  0  0  0  0  0
   -3.1662    0.0570   -1.8034 C   0  0  0  0  0  0  0  0  0  0  0  0
   -3.9696   -1.0487   -2.0983 C   0  0  0  0  0  0  0  0  0  0  0  0
   -4.5398   -1.7271   -1.0163 C   0  0  0  0  0  0  0  0  0  0  0  0
   -4.3108   -1.3140    0.2964 C   0  0  0  0  0  0  0  0  0  0  0  0
   -3.5028   -0.2032    0.5691 C   0  0  0  0  0  0  0  0  0  0  0  0
   -2.9234    0.4942   -0.5069 C   0  0  0  0  0  0  0  0  0  0  0  0
   -0.7337    1.5354    2.5172 N   0  0  0  0  0  0  0  0  0  0  0  0
    0.3037    0.8480    2.9749 N   0  0  0  0  0  0  0  0  0  0  0  0
    4.5095   -1.9651   -0.9688 H   0  0  0  0  0  0  0  0  0  0  0  0
    4.5920   -0.5480   -2.1163 H   0  0  0  0  0  0  0  0  0  0  0  0
    3.5614    0.9435   -0.3948 H   0  0  0  0  0  0  0  0  0  0  0  0
    4.8551   -1.7717    3.6812 H   0  0  0  0  0  0  0  0  0  0  0  0
    2.4243   -0.6315    4.2610 H   0  0  0  0  0  0  0  0  0  0  0  0
    1.0028    1.3001   -0.2225 H   0  0  0  0  0  0  0  0  0  0  0  0
   -2.2839    2.8450    1.0826 H   0  0  0  0  0  0  0  0  0  0  0  0
   -0.9699    3.3522    0.0043 H   0  0  0  0  0  0  0  0  0  0  0  0
   -2.4078    0.8940   -3.6218 H   0  0  0  0  0  0  0  0  0  0  0  0
   -4.1446   -1.3754   -3.1180 H   0  0  0  0  0  0  0  0  0  0  0  0
   -5.1691   -2.5953   -1.2013 H   0  0  0  0  0  0  0  0  0  0  0  0
   -4.7602   -1.8632    1.1209 H   0  0  0  0  0  0  0  0  0  0  0  0
   -3.3249    0.1008    1.5974 H   0  0  0  0  0  0  0  0  0  0  0  0
  1  2  1  0
  2  3  1  0
  2  4  1  0
  4  5  1  0
  5  6  1  0
  6  7  1  0
  7  8  2  0
  8  9  1  0
  9 10  2  0
 10 11  1  0
 11 12  2  0
 12 13  1  0
 13 14  1  0
 14 15  1  0
 15 16  2  0
 16 17  1  0
 17 18  1  0
 18 19  2  0
 19 20  1  0
 20 21  2  0
 21 22  1  0
 22 23  2  0
 13 24  1  0
 24 25  2  0
  5  2  1  0
 10  6  1  0
 25 11  1  0
 23 15  1  0
 23 18  1  0
  4 26  1  0
  4 27  1  0
  5 28  1  0
  8 29  1  0
  9 30  1  0
 12 31  1  0
 14 32  1  0
 14 33  1  0
 17 34  1  0
 19 35  1  0
 20 36  1  0
 21 37  1  0
 22 38  1  0
M  END
$$$$
OCNT-2311328
     RDKit          3D

 42 45  0  0  0  0  0  0  0  0999 V2000
   -0.7448    1.7947    2.0833 O   0  0  0  0  0  0  0  0  0  0  0  0
   -0.2200    0.9416    1.3684 C   0  0  0  0  0  0  0  0  0  0  0  0
    1.0529    0.3744    1.8414 C   0  0  0  0  0  0  0  0  0  0  0  0
    2.1119    1.2471    2.0996 C   0  0  0  0  0  0  0  0  0  0  0  0
    3.3450    0.8847    2.5423 N   0  0  0  0  0  0  0  0  0  0  0  0
    3.4767   -0.4486    2.7605 C   0  0  0  0  0  0  0  0  0  0  0  0
    4.5830   -1.1965    3.2194 C   0  0  0  0  0  0  0  0  0  0  0  0
    4.1648   -2.5091    3.2628 C   0  0  0  0  0  0  0  0  0  0  0  0
    2.8681   -2.6203    2.8594 O   0  0  0  0  0  0  0  0  0  0  0  0
    2.4488   -1.3624    2.5493 C   0  0  0  0  0  0  0  0  0  0  0  0
    1.1925   -0.9927    2.0888 C   0  0  0  0  0  0  0  0  0  0  0  0
   -0.7508    0.5231    0.1557 N   0  0  0  0  0  0  0  0  0  0  0  0
   -0.0352   -0.2740   -0.8526 C   0  0  0  0  0  0  0  0  0  0  0  0
   -0.5933   -1.6732   -1.0530 C   0  0  0  0  0  0  0  0  0  0  0  0
   -0.3657   -2.3326   -2.2633 C   0  0  0  0  0  0  0  0  0  0  0  0
   -0.8494   -3.6278   -2.4276 C   0  0  0  0  0  0  0  0  0  0  0  0
   -1.5404   -4.2346   -1.3850 C   0  0  0  0  0  0  0  0  0  0  0  0
   -1.7107   -3.5216   -0.2099 C   0  0  0  0  0  0  0  0  0  0  0  0
   -1.2518   -2.2650   -0.0203 N   0  0  0  0  0  0  0  0  0  0  0  0
   -2.0712    1.0277   -0.2282 C   0  0  0  0  0  0  0  0  0  0  0  0
   -1.9944    2.2612   -1.1067 C   0  0  0  0  0  0  0  0  0  0  0  0
   -1.8940    3.5275   -0.5338 C   0  0  0  0  0  0  0  0  0  0  0  0
   -1.8059    4.6401   -1.3661 C   0  0  0  0  0  0  0  0  0  0  0  0
   -1.8157    4.4623   -2.7437 C   0  0  0  0  0  0  0  0  0  0  0  0
   -1.9078    3.1716   -3.2348 C   0  0  0  0  0  0  0  0  0  0  0  0
   -1.9902    2.0713   -2.4537 N   0  0  0  0  0  0  0  0  0  0  0  0
    1.9891    2.3179    1.9432 H   0  0  0  0  0  0  0  0  0  0  0  0
    5.5589   -0.8202    3.4887 H   0  0  0  0  0  0  0  0  0  0  0  0
    4.6430   -3.4369    3.5459 H   0  0  0  0  0  0  0  0  0  0  0  0
    0.3936   -1.7096    1.9497 H   0  0  0  0  0  0  0  0  0  0  0  0
   -0.0740    0.2768   -1.7990 H   0  0  0  0  0  0  0  0  0  0  0  0
    1.0246   -0.3633   -0.5957 H   0  0  0  0  0  0  0  0  0  0  0  0
    0.1798   -1.8483   -3.0694 H   0  0  0  0  0  0  0  0  0  0  0  0
   -0.6880   -4.1587   -3.3633 H   0  0  0  0  0  0  0  0  0  0  0  0
   -1.9307   -5.2413   -1.4834 H   0  0  0  0  0  0  0  0  0  0  0  0
   -2.2381   -3.9535    0.6369 H   0  0  0  0  0  0  0  0  0  0  0  0
   -2.6622    1.2572    0.6681 H   0  0  0  0  0  0  0  0  0  0  0  0
   -2.6157    0.2368   -0.7574 H   0  0  0  0  0  0  0  0  0  0  0  0
   -1.8823    3.6470    0.5463 H   0  0  0  0  0  0  0  0  0  0  0  0
   -1.7304    5.6360   -0.9399 H   0  0  0  0  0  0  0  0  0  0  0  0
   -1.7515    5.3090   -3.4185 H   0  0  0  0  0  0  0  0  0  0  0  0
   -1.9187    2.9818   -4.3044 H   0  0  0  0  0  0  0  0  0  0  0  0
  1  2  2  0
  2  3  1  0
  3  4  1  0
  4  5  2  0
  5  6  1  0
  6  7  1  0
  7  8  2  0
  8  9  1  0
  9 10  1  0
 10 11  1  0
  2 12  1  0
 12 13  1  0
 13 14  1  0
 14 15  2  0
 15 16  1  0
 16 17  2  0
 17 18  1  0
 18 19  2  0
 12 20  1  0
 20 21  1  0
 21 22  2  0
 22 23  1  0
 23 24  2  0
 24 25  1  0
 25 26  2  0
 11  3  2  0
 19 14  1  0
 26 21  1  0
 10  6  2  0
  4 27  1  0
  7 28  1  0
  8 29  1  0
 11 30  1  0
 13 31  1  0
 13 32  1  0
 15 33  1  0
 16 34  1  0
 17 35  1  0
 18 36  1  0
 20 37  1  0
 20 38  1  0
 22 39  1  0
 23 40  1  0
 24 41  1  0
 25 42  1  0
M  END
$$$$
OCNT-2311336
     RDKit          3D

 43 46  0  0  0  0  0  0  0  0999 V2000
    0.5209    1.7813   -0.7651 O   0  0  0  0  0  0  0  0  0  0  0  0
    1.1265    0.9209   -0.1330 C   0  0  0  0  0  0  0  0  0  0  0  0
    0.9611   -0.4285   -0.3782 N   0  0  0  0  0  0  0  0  0  0  0  0
    0.1527   -0.8914   -1.4786 C   0  0  0  0  0  0  0  0  0  0  0  0
   -1.2881   -1.0238   -1.0791 C   0  0  0  0  0  0  0  0  0  0  0  0
   -1.7543   -2.1448   -0.3914 C   0  0  0  0  0  0  0  0  0  0  0  0
   -3.0981   -2.2281   -0.0146 C   0  0  0  0  0  0  0  0  0  0  0  0
   -3.9512   -1.1707   -0.3359 C   0  0  0  0  0  0  0  0  0  0  0  0
   -5.3286   -1.2061    0.0316 N   0  0  0  0  0  0  0  0  0  0  0  0
   -6.2595   -0.2179   -0.2328 C   0  0  0  0  0  0  0  0  0  0  0  0
   -7.4475   -0.6574    0.2991 C   0  0  0  0  0  0  0  0  0  0  0  0
   -7.2908   -1.8859    0.8829 N   0  0  0  0  0  0  0  0  0  0  0  0
   -6.0164   -2.1859    0.7093 C   0  0  0  0  0  0  0  0  0  0  0  0
   -3.5182   -0.0671   -0.9993 N   0  0  0  0  0  0  0  0  0  0  0  0
   -2.2081   -0.0113   -1.3407 C   0  0  0  0  0  0  0  0  0  0  0  0
    2.1690    1.2298    0.9727 C   0  0  0  0  0  0  0  0  0  0  0  0
    1.9674    2.6504    1.5457 C   0  0  0  0  0  0  0  0  0  0  0  0
    3.3515    3.2823    1.5497 C   0  0  0  0  0  0  0  0  0  0  0  0
    4.0531    2.6124    0.3768 C   0  0  0  0  0  0  0  0  0  0  0  0
    3.5453    1.2535    0.4344 N   0  0  0  0  0  0  0  0  0  0  0  0
    4.0872    0.2052   -0.2377 C   0  0  0  0  0  0  0  0  0  0  0  0
    3.6109   -1.0230   -0.1713 N   0  0  0  0  0  0  0  0  0  0  0  0
    4.3548   -1.8825   -0.9602 C   0  0  0  0  0  0  0  0  0  0  0  0
    5.3909   -1.3036   -1.6527 C   0  0  0  0  0  0  0  0  0  0  0  0
    5.4726    0.3563   -1.2744 S   0  0  0  0  0  0  0  0  0  0  0  0
    1.7717   -0.9954   -0.1254 H   0  0  0  0  0  0  0  0  0  0  0  0
    0.2680   -0.2190   -2.3374 H   0  0  0  0  0  0  0  0  0  0  0  0
    0.5433   -1.8715   -1.7877 H   0  0  0  0  0  0  0  0  0  0  0  0
   -1.0749   -2.9570   -0.1375 H   0  0  0  0  0  0  0  0  0  0  0  0
   -3.4286   -3.1130    0.5195 H   0  0  0  0  0  0  0  0  0  0  0  0
   -5.9905    0.6866   -0.7611 H   0  0  0  0  0  0  0  0  0  0  0  0
   -8.4061   -0.1544    0.2915 H   0  0  0  0  0  0  0  0  0  0  0  0
   -5.5610   -3.1003    1.0600 H   0  0  0  0  0  0  0  0  0  0  0  0
   -1.9060    0.9075   -1.8419 H   0  0  0  0  0  0  0  0  0  0  0  0
    2.0829    0.4900    1.7767 H   0  0  0  0  0  0  0  0  0  0  0  0
    1.2908    3.2612    0.9399 H   0  0  0  0  0  0  0  0  0  0  0  0
    1.5442    2.6183    2.5559 H   0  0  0  0  0  0  0  0  0  0  0  0
    3.8662    3.0416    2.4853 H   0  0  0  0  0  0  0  0  0  0  0  0
    3.3193    4.3700    1.4531 H   0  0  0  0  0  0  0  0  0  0  0  0
    3.7703    3.0816   -0.5736 H   0  0  0  0  0  0  0  0  0  0  0  0
    5.1387    2.6750    0.5025 H   0  0  0  0  0  0  0  0  0  0  0  0
    4.0819   -2.9318   -1.0039 H   0  0  0  0  0  0  0  0  0  0  0  0
    6.0868   -1.7536   -2.3455 H   0  0  0  0  0  0  0  0  0  0  0  0
  1  2  2  0
  2  3  1  0
  3  4  1  0
  4  5  1  0
  5  6  2  0
  6  7  1  0
  7  8  2  0
  8  9  1  0
  9 10  1  0
 10 11  2  0
 11 12  1  0
 12 13  2  0
  8 14  1  0
 14 15  2  0
  2 16  1  0
 16 17  1  0
 17 18  1  0
 18 19  1  0
 19 20  1  0
 20 21  1  0
 21 22  2  0
 22 23  1  0
 23 24  2  0
 24 25  1  0
 15  5  1  0
 20 16  1  0
 25 21  1  0
 13  9  1  0
  3 26  1  0
  4 27  1  0
  4 28  1  0
  6 29  1  0
  7 30  1  0
 10 31  1  0
 11 32  1  0
 13 33  1  0
 15 34  1  0
 16 35  1  0
 17 36  1  0
 17 37  1  0
 18 38  1  0
 18 39  1  0
 19 40  1  0
 19 41  1  0
 23 42  1  0
 24 43  1  0
M  END
$$$$
OCNT-2311340
     RDKit          3D

 53 56  0  0  0  0  0  0  0  0999 V2000
   -3.5474   -2.9001    0.9421 N   0  0  0  0  0  0  0  0  0  0  0  0
   -2.9570   -1.6756    0.7529 C   0  0  0  0  0  0  0  0  0  0  0  0
   -2.1033   -1.2906    1.5486 O   0  0  0  0  0  0  0  0  0  0  0  0
   -3.4605   -0.8843   -0.4864 C   0  0  0  0  0  0  0  0  0  0  0  0
   -4.7425   -0.0933   -0.2253 C   0  0  0  0  0  0  0  0  0  0  0  0
   -5.1321    0.3244    1.0578 C   0  0  0  0  0  0  0  0  0  0  0  0
   -6.3140    1.0459    1.2449 C   0  0  0  0  0  0  0  0  0  0  0  0
   -7.1191    1.3671    0.1546 C   0  0  0  0  0  0  0  0  0  0  0  0
   -6.7406    0.9753   -1.1266 C   0  0  0  0  0  0  0  0  0  0  0  0
   -5.5602    0.2546   -1.3158 C   0  0  0  0  0  0  0  0  0  0  0  0
   -2.4115   -0.0578   -1.1264 N   0  0  0  0  0  0  0  0  0  0  0  0
   -1.3668   -0.8611   -1.7795 C   0  0  0  0  0  0  0  0  0  0  0  0
   -0.1999    0.0034   -2.2845 C   0  0  0  0  0  0  0  0  0  0  0  0
    0.4610    0.7206   -1.1968 N   0  0  0  0  0  0  0  0  0  0  0  0
    1.7535    1.1617   -1.3956 C   0  0  0  0  0  0  0  0  0  0  0  0
    2.3213    1.0811   -2.4820 O   0  0  0  0  0  0  0  0  0  0  0  0
    2.3529    1.7001   -0.2882 N   0  0  0  0  0  0  0  0  0  0  0  0
    3.7289    2.1419   -0.3255 C   0  0  0  0  0  0  0  0  0  0  0  0
    4.6620    1.0649    0.1752 C   0  0  0  0  0  0  0  0  0  0  0  0
    5.0835    1.0566    1.5160 C   0  0  0  0  0  0  0  0  0  0  0  0
    5.9318    0.0590    2.0122 C   0  0  0  0  0  0  0  0  0  0  0  0
    6.3270   -0.9257    1.1114 C   0  0  0  0  0  0  0  0  0  0  0  0
    7.1439   -1.9779    1.3964 O   0  0  0  0  0  0  0  0  0  0  0  0
    7.2734   -2.6980    0.2513 C   0  0  0  0  0  0  0  0  0  0  0  0
    6.5496   -2.1233   -0.7682 C   0  0  0  0  0  0  0  0  0  0  0  0
    5.9322   -0.9686   -0.2198 C   0  0  0  0  0  0  0  0  0  0  0  0
    5.0812    0.0420   -0.7007 C   0  0  0  0  0  0  0  0  0  0  0  0
   -0.3524    0.9715   -0.0018 C   0  0  0  0  0  0  0  0  0  0  0  0
   -1.8665    1.0351   -0.3006 C   0  0  0  0  0  0  0  0  0  0  0  0
   -4.4558   -3.0971    0.5413 H   0  0  0  0  0  0  0  0  0  0  0  0
   -3.3116   -3.3735    1.8056 H   0  0  0  0  0  0  0  0  0  0  0  0
   -3.7475   -1.6547   -1.2191 H   0  0  0  0  0  0  0  0  0  0  0  0
   -4.5172    0.1077    1.9291 H   0  0  0  0  0  0  0  0  0  0  0  0
   -6.6020    1.3642    2.2438 H   0  0  0  0  0  0  0  0  0  0  0  0
   -8.0354    1.9325    0.3023 H   0  0  0  0  0  0  0  0  0  0  0  0
   -7.3598    1.2368   -1.9806 H   0  0  0  0  0  0  0  0  0  0  0  0
   -5.2690   -0.0283   -2.3259 H   0  0  0  0  0  0  0  0  0  0  0  0
   -0.9660   -1.6156   -1.0908 H   0  0  0  0  0  0  0  0  0  0  0  0
   -1.8026   -1.3938   -2.6326 H   0  0  0  0  0  0  0  0  0  0  0  0
    0.5313   -0.6271   -2.8031 H   0  0  0  0  0  0  0  0  0  0  0  0
   -0.5578    0.7516   -3.0025 H   0  0  0  0  0  0  0  0  0  0  0  0
    2.0440    1.3180    0.5910 H   0  0  0  0  0  0  0  0  0  0  0  0
    4.0137    2.4554   -1.3363 H   0  0  0  0  0  0  0  0  0  0  0  0
    3.7983    3.0270    0.3165 H   0  0  0  0  0  0  0  0  0  0  0  0
    4.7517    1.8401    2.1954 H   0  0  0  0  0  0  0  0  0  0  0  0
    6.2653    0.0454    3.0424 H   0  0  0  0  0  0  0  0  0  0  0  0
    7.9006   -3.5756    0.3218 H   0  0  0  0  0  0  0  0  0  0  0  0
    6.4747   -2.4883   -1.7823 H   0  0  0  0  0  0  0  0  0  0  0  0
    4.7453    0.0315   -1.7355 H   0  0  0  0  0  0  0  0  0  0  0  0
   -0.1330    0.1615    0.7020 H   0  0  0  0  0  0  0  0  0  0  0  0
   -0.0436    1.9118    0.4668 H   0  0  0  0  0  0  0  0  0  0  0  0
   -2.0493    1.9595   -0.8642 H   0  0  0  0  0  0  0  0  0  0  0  0
   -2.4025    1.1621    0.6458 H   0  0  0  0  0  0  0  0  0  0  0  0
  1  2  1  0
  2  3  2  0
  2  4  1  0
  4  5  1  0
  5  6  2  0
  6  7  1  0
  7  8  2  0
  8  9  1  0
  9 10  2  0
  4 11  1  0
 11 12  1  0
 12 13  1  0
 13 14  1  0
 14 15  1  0
 15 16  2  0
 15 17  1  0
 17 18  1  0
 18 19  1  0
 19 20  2  0
 20 21  1  0
 21 22  2  0
 22 23  1  0
 23 24  1  0
 24 25  2  0
 25 26  1  0
 26 27  2  0
 14 28  1  0
 28 29  1  0
 10  5  1  0
 29 11  1  0
 27 19  1  0
 26 22  1  0
  1 30  1  0
  1 31  1  0
  4 32  1  0
  6 33  1  0
  7 34  1  0
  8 35  1  0
  9 36  1  0
 10 37  1  0
 12 38  1  0
 12 39  1  0
 13 40  1  0
 13 41  1  0
 17 42  1  0
 18 43  1  0
 18 44  1  0
 20 45  1  0
 21 46  1  0
 24 47  1  0
 25 48  1  0
 27 49  1  0
 28 50  1  0
 28 51  1  0
 29 52  1  0
 29 53  1  0
M  END
$$$$
OCNT-2311344
     RDKit          3D

 45 46  0  0  0  0  0  0  0  0999 V2000
    7.6149    0.9475    0.3254 C   0  0  0  0  0  0  0  0  0  0  0  0
    6.8715   -0.1278   -0.2334 O   0  0  0  0  0  0  0  0  0  0  0  0
    5.5221   -0.1378   -0.0110 C   0  0  0  0  0  0  0  0  0  0  0  0
    4.8076    0.8258    0.7010 C   0  0  0  0  0  0  0  0  0  0  0  0
    3.4208    0.6998    0.8567 C   0  0  0  0  0  0  0  0  0  0  0  0
    2.7339   -0.3882    0.3015 C   0  0  0  0  0  0  0  0  0  0  0  0
    1.2691   -0.4848    0.4888 C   0  0  0  0  0  0  0  0  0  0  0  0
    0.5941    0.3271    1.2404 N   0  0  0  0  0  0  0  0  0  0  0  0
   -0.7570   -0.0926    1.1875 O   0  0  0  0  0  0  0  0  0  0  0  0
   -0.9070   -0.9053    0.0152 C   0  0  0  0  0  0  0  0  0  0  0  0
   -2.0275   -1.9335    0.2045 C   0  0  0  0  0  0  0  0  0  0  0  0
   -3.3677   -1.4185    0.4933 N   0  0  0  0  0  0  0  0  0  0  0  0
   -4.0757   -0.6330   -0.5411 C   0  0  0  0  0  0  0  0  0  0  0  0
   -3.8742   -1.1561   -1.9647 C   0  0  0  0  0  0  0  0  0  0  0  0
   -3.8136    0.9005   -0.3959 C   0  0  0  0  0  0  0  0  0  0  0  0
   -4.7522    1.7302   -1.2727 C   0  0  0  0  0  0  0  0  0  0  0  0
   -4.0341    1.2439    0.9856 O   0  0  0  0  0  0  0  0  0  0  0  0
   -3.3027    2.3891    1.4053 C   0  0  0  0  0  0  0  0  0  0  0  0
    0.4516   -1.5523   -0.1560 C   0  0  0  0  0  0  0  0  0  0  0  0
    3.4440   -1.3563   -0.4070 C   0  0  0  0  0  0  0  0  0  0  0  0
    4.8233   -1.2206   -0.5564 C   0  0  0  0  0  0  0  0  0  0  0  0
    5.4810   -2.1664   -1.2449 F   0  0  0  0  0  0  0  0  0  0  0  0
    8.6668    0.7988    0.0632 H   0  0  0  0  0  0  0  0  0  0  0  0
    7.5414    0.9527    1.4179 H   0  0  0  0  0  0  0  0  0  0  0  0
    7.2987    1.9069   -0.0971 H   0  0  0  0  0  0  0  0  0  0  0  0
    5.2929    1.6869    1.1495 H   0  0  0  0  0  0  0  0  0  0  0  0
    2.8803    1.4611    1.4182 H   0  0  0  0  0  0  0  0  0  0  0  0
   -1.1102   -0.2463   -0.8352 H   0  0  0  0  0  0  0  0  0  0  0  0
   -2.0604   -2.6135   -0.6541 H   0  0  0  0  0  0  0  0  0  0  0  0
   -1.7679   -2.5623    1.0659 H   0  0  0  0  0  0  0  0  0  0  0  0
   -3.3291   -0.8267    1.3332 H   0  0  0  0  0  0  0  0  0  0  0  0
   -5.1366   -0.7852   -0.2995 H   0  0  0  0  0  0  0  0  0  0  0  0
   -4.5984   -0.7103   -2.6538 H   0  0  0  0  0  0  0  0  0  0  0  0
   -4.0297   -2.2399   -2.0092 H   0  0  0  0  0  0  0  0  0  0  0  0
   -2.8718   -0.9355   -2.3439 H   0  0  0  0  0  0  0  0  0  0  0  0
   -2.7784    1.1272   -0.6698 H   0  0  0  0  0  0  0  0  0  0  0  0
   -5.7993    1.5209   -1.0281 H   0  0  0  0  0  0  0  0  0  0  0  0
   -4.5923    1.5350   -2.3365 H   0  0  0  0  0  0  0  0  0  0  0  0
   -4.6022    2.8017   -1.1088 H   0  0  0  0  0  0  0  0  0  0  0  0
   -3.4934    2.5428    2.4709 H   0  0  0  0  0  0  0  0  0  0  0  0
   -2.2290    2.2367    1.2651 H   0  0  0  0  0  0  0  0  0  0  0  0
   -3.6285    3.2820    0.8658 H   0  0  0  0  0  0  0  0  0  0  0  0
    0.5616   -2.4767    0.4198 H   0  0  0  0  0  0  0  0  0  0  0  0
    0.6960   -1.7221   -1.2064 H   0  0  0  0  0  0  0  0  0  0  0  0
    2.9671   -2.2248   -0.8465 H   0  0  0  0  0  0  0  0  0  0  0  0
  1  2  1  0
  2  3  1  0
  3  4  1  0
  4  5  2  0
  5  6  1  0
  6  7  1  0
  7  8  2  0
  8  9  1  0
  9 10  1  0
 10 11  1  0
 11 12  1  0
 12 13  1  0
 13 14  1  0
 13 15  1  0
 15 16  1  0
 15 17  1  0
 17 18  1  0
 10 19  1  0
  6 20  2  0
 20 21  1  0
 21 22  1  0
 21  3  2  0
 19  7  1  0
  1 23  1  0
  1 24  1  0
  1 25  1  0
  4 26  1  0
  5 27  1  0
 10 28  1  0
 11 29  1  0
 11 30  1  0
 12 31  1  0
 13 32  1  0
 14 33  1  0
 14 34  1  0
 14 35  1  0
 15 36  1  0
 16 37  1  0
 16 38  1  0
 16 39  1  0
 18 40  1  0
 18 41  1  0
 18 42  1  0
 19 43  1  0
 19 44  1  0
 20 45  1  0
M  END
$$$$
OCNT-2311351
     RDKit          3D

 47 49  0  0  0  0  0  0  0  0999 V2000
    0.6064   -1.0144   -2.6903 C   0  0  0  0  0  0  0  0  0  0  0  0
    0.5471   -0.9365   -1.1600 C   0  0  0  0  0  0  0  0  0  0  0  0
   -0.5114   -0.0296   -0.7049 N   0  0  0  0  0  0  0  0  0  0  0  0
   -1.8222   -0.6780   -0.6223 C   0  0  0  0  0  0  0  0  0  0  0  0
   -2.9669    0.3245   -0.2797 C   0  0  0  0  0  0  0  0  0  0  0  0
   -3.1776    1.3199   -1.4526 C   0  0  0  0  0  0  0  0  0  0  0  0
   -2.0068    2.0622   -1.7789 O   0  0  0  0  0  0  0  0  0  0  0  0
   -2.6307    1.0669    1.0437 C   0  0  0  0  0  0  0  0  0  0  0  0
   -3.8963    1.4639    1.7919 C   0  0  0  0  0  0  0  0  0  0  0  0
   -4.7013    0.3458    2.1649 O   0  0  0  0  0  0  0  0  0  0  0  0
   -4.5354   -0.8202    1.3604 C   0  0  0  0  0  0  0  0  0  0  0  0
   -4.2927   -0.4704   -0.1008 C   0  0  0  0  0  0  0  0  0  0  0  0
    1.8795   -0.5014   -0.5841 C   0  0  0  0  0  0  0  0  0  0  0  0
    2.6683   -1.3583    0.0852 C   0  0  0  0  0  0  0  0  0  0  0  0
    3.9239   -0.8635    0.6323 C   0  0  0  0  0  0  0  0  0  0  0  0
    4.7033   -1.6572    1.4810 C   0  0  0  0  0  0  0  0  0  0  0  0
    5.9229   -1.1792    1.9668 C   0  0  0  0  0  0  0  0  0  0  0  0
    6.3727    0.0884    1.5990 C   0  0  0  0  0  0  0  0  0  0  0  0
    5.6012    0.8805    0.7487 C   0  0  0  0  0  0  0  0  0  0  0  0
    4.3758    0.4092    0.2767 C   0  0  0  0  0  0  0  0  0  0  0  0
    3.6904    1.2318   -0.5728 O   0  0  0  0  0  0  0  0  0  0  0  0
    2.2927    0.9430   -0.7479 C   0  0  0  0  0  0  0  0  0  0  0  0
    0.7448   -0.0296   -3.1499 H   0  0  0  0  0  0  0  0  0  0  0  0
   -0.3151   -1.4420   -3.0996 H   0  0  0  0  0  0  0  0  0  0  0  0
    1.4354   -1.6532   -3.0155 H   0  0  0  0  0  0  0  0  0  0  0  0
    0.3343   -1.9482   -0.7875 H   0  0  0  0  0  0  0  0  0  0  0  0
   -0.5989    0.7556   -1.3614 H   0  0  0  0  0  0  0  0  0  0  0  0
   -2.0610   -1.1723   -1.5721 H   0  0  0  0  0  0  0  0  0  0  0  0
   -1.7834   -1.4590    0.1475 H   0  0  0  0  0  0  0  0  0  0  0  0
   -3.4709    0.7746   -2.3570 H   0  0  0  0  0  0  0  0  0  0  0  0
   -3.9784    2.0347   -1.2324 H   0  0  0  0  0  0  0  0  0  0  0  0
   -1.8988    2.7524   -1.1010 H   0  0  0  0  0  0  0  0  0  0  0  0
   -2.0103    1.9512    0.8669 H   0  0  0  0  0  0  0  0  0  0  0  0
   -2.0498    0.4047    1.6997 H   0  0  0  0  0  0  0  0  0  0  0  0
   -3.6385    2.0016    2.7101 H   0  0  0  0  0  0  0  0  0  0  0  0
   -4.5117    2.1396    1.1877 H   0  0  0  0  0  0  0  0  0  0  0  0
   -5.4481   -1.4168    1.4581 H   0  0  0  0  0  0  0  0  0  0  0  0
   -3.7145   -1.4186    1.7710 H   0  0  0  0  0  0  0  0  0  0  0  0
   -4.2905   -1.3802   -0.7122 H   0  0  0  0  0  0  0  0  0  0  0  0
   -5.1405    0.1373   -0.4439 H   0  0  0  0  0  0  0  0  0  0  0  0
    2.3990   -2.3960    0.2443 H   0  0  0  0  0  0  0  0  0  0  0  0
    4.3703   -2.6510    1.7687 H   0  0  0  0  0  0  0  0  0  0  0  0
    6.5244   -1.7985    2.6272 H   0  0  0  0  0  0  0  0  0  0  0  0
    7.3244    0.4588    1.9704 H   0  0  0  0  0  0  0  0  0  0  0  0
    5.9512    1.8656    0.4538 H   0  0  0  0  0  0  0  0  0  0  0  0
    2.0491    1.2882   -1.7576 H   0  0  0  0  0  0  0  0  0  0  0  0
    1.7341    1.5735   -0.0457 H   0  0  0  0  0  0  0  0  0  0  0  0
  1  2  1  0
  2  3  1  0
  3  4  1  0
  4  5  1  0
  5  6  1  0
  6  7  1  0
  5  8  1  0
  8  9  1  0
  9 10  1  0
 10 11  1  0
 11 12  1  0
  2 13  1  0
 13 14  2  0
 14 15  1  0
 15 16  2  0
 16 17  1  0
 17 18  2  0
 18 19  1  0
 19 20  2  0
 20 21  1  0
 21 22  1  0
 12  5  1  0
 22 13  1  0
 20 15  1  0
  1 23  1  0
  1 24  1  0
  1 25  1  0
  2 26  1  0
  3 27  1  0
  4 28  1  0
  4 29  1  0
  6 30  1  0
  6 31  1  0
  7 32  1  0
  8 33  1  0
  8 34  1  0
  9 35  1  0
  9 36  1  0
 11 37  1  0
 11 38  1  0
 12 39  1  0
 12 40  1  0
 14 41  1  0
 16 42  1  0
 17 43  1  0
 18 44  1  0
 19 45  1  0
 22 46  1  0
 22 47  1  0
M  END
$$$$
OCNT-2311357
     RDKit          3D

 44 46  0  0  0  0  0  0  0  0999 V2000
    0.2770    0.8767    3.4414 C   0  0  0  0  0  0  0  0  0  0  0  0
   -0.6474    2.0647    3.1981 C   0  0  0  0  0  0  0  0  0  0  0  0
   -2.3984    1.7080    3.5491 S   0  0  0  0  0  0  0  0  0  0  0  0
   -2.9177    0.7757    2.1656 C   0  0  0  0  0  0  0  0  0  0  0  0
   -2.1065   -0.0316    1.5215 N   0  0  0  0  0  0  0  0  0  0  0  0
   -2.8032   -0.6815    0.5141 C   0  0  0  0  0  0  0  0  0  0  0  0
   -2.2727   -1.6488   -0.3626 C   0  0  0  0  0  0  0  0  0  0  0  0
   -3.0852   -2.2119   -1.3514 C   0  0  0  0  0  0  0  0  0  0  0  0
   -4.4162   -1.8258   -1.4728 C   0  0  0  0  0  0  0  0  0  0  0  0
   -4.9695   -0.8751   -0.6095 C   0  0  0  0  0  0  0  0  0  0  0  0
   -4.1443   -0.3179    0.3806 C   0  0  0  0  0  0  0  0  0  0  0  0
   -4.5275    0.8452    1.5889 S   0  0  0  0  0  0  0  0  0  0  0  0
   -0.4833    2.7553    1.8425 C   0  0  0  0  0  0  0  0  0  0  0  0
   -0.6216    3.9720    1.7171 O   0  0  0  0  0  0  0  0  0  0  0  0
   -0.1981    1.9439    0.7703 N   0  0  0  0  0  0  0  0  0  0  0  0
   -0.1294    2.4955   -0.5736 C   0  0  0  0  0  0  0  0  0  0  0  0
    0.4095    1.5363   -1.6281 C   0  0  0  0  0  0  0  0  0  0  0  0
    0.6275    1.8659   -2.7882 O   0  0  0  0  0  0  0  0  0  0  0  0
    0.5849    0.2826   -1.1258 O   0  0  0  0  0  0  0  0  0  0  0  0
    1.1754   -0.6703   -2.0165 C   0  0  0  0  0  0  0  0  0  0  0  0
    2.6056   -0.8923   -1.6037 C   0  0  0  0  0  0  0  0  0  0  0  0
    2.9184   -1.7866   -0.5706 C   0  0  0  0  0  0  0  0  0  0  0  0
    4.2437   -1.9744   -0.1757 C   0  0  0  0  0  0  0  0  0  0  0  0
    5.2660   -1.2651   -0.8034 C   0  0  0  0  0  0  0  0  0  0  0  0
    4.9643   -0.3631   -1.8217 C   0  0  0  0  0  0  0  0  0  0  0  0
    3.6398   -0.1735   -2.2182 C   0  0  0  0  0  0  0  0  0  0  0  0
    0.2237    0.5475    4.4848 H   0  0  0  0  0  0  0  0  0  0  0  0
    0.0543    0.0148    2.8075 H   0  0  0  0  0  0  0  0  0  0  0  0
    1.3166    1.1583    3.2389 H   0  0  0  0  0  0  0  0  0  0  0  0
   -0.3539    2.8224    3.9369 H   0  0  0  0  0  0  0  0  0  0  0  0
   -1.2368   -1.9532   -0.2591 H   0  0  0  0  0  0  0  0  0  0  0  0
   -2.6741   -2.9587   -2.0275 H   0  0  0  0  0  0  0  0  0  0  0  0
   -5.0383   -2.2727   -2.2460 H   0  0  0  0  0  0  0  0  0  0  0  0
   -6.0105   -0.5803   -0.7012 H   0  0  0  0  0  0  0  0  0  0  0  0
   -0.4474    0.9585    0.8502 H   0  0  0  0  0  0  0  0  0  0  0  0
    0.5147    3.3802   -0.5499 H   0  0  0  0  0  0  0  0  0  0  0  0
   -1.1447    2.7877   -0.8599 H   0  0  0  0  0  0  0  0  0  0  0  0
    1.1062   -0.3839   -3.0727 H   0  0  0  0  0  0  0  0  0  0  0  0
    0.6141   -1.6067   -1.9229 H   0  0  0  0  0  0  0  0  0  0  0  0
    2.1303   -2.3383   -0.0633 H   0  0  0  0  0  0  0  0  0  0  0  0
    4.4792   -2.6707    0.6248 H   0  0  0  0  0  0  0  0  0  0  0  0
    6.2978   -1.4109   -0.4945 H   0  0  0  0  0  0  0  0  0  0  0  0
    5.7605    0.1967   -2.3055 H   0  0  0  0  0  0  0  0  0  0  0  0
    3.4172    0.5425   -3.0078 H   0  0  0  0  0  0  0  0  0  0  0  0
  1  2  1  0
  2  3  1  0
  3  4  1  0
  4  5  2  0
  5  6  1  0
  6  7  2  0
  7  8  1  0
  8  9  2  0
  9 10  1  0
 10 11  2  0
 11 12  1  0
  2 13  1  0
 13 14  2  0
 13 15  1  0
 15 16  1  0
 16 17  1  0
 17 18  2  0
 17 19  1  0
 19 20  1  0
 20 21  1  0
 21 22  2  0
 22 23  1  0
 23 24  2  0
 24 25  1  0
 25 26  2  0
 12  4  1  0
 26 21  1  0
 11  6  1  0
  1 27  1  0
  1 28  1  0
  1 29  1  0
  2 30  1  0
  7 31  1  0
  8 32  1  0
  9 33  1  0
 10 34  1  0
 15 35  1  0
 16 36  1  0
 16 37  1  0
 20 38  1  0
 20 39  1  0
 22 40  1  0
 23 41  1  0
 24 42  1  0
 25 43  1  0
 26 44  1  0
M  END
$$$$
OCNT-2311380
     RDKit          3D

  0  0  0  0  0  0  0  0  0  0999 V3000
M  V30 BEGIN CTAB
M  V30 COUNTS 38 41 0 0 0
M  V30 BEGIN ATOM
M  V30 1 O 1.980304 2.582957 -1.026209 0
M  V30 2 C 2.269577 1.536619 -0.449611 0
M  V30 3 C 3.639195 1.138361 -0.250760 0
M  V30 4 C 4.723290 1.337421 -1.083284 0
M  V30 5 N 5.875457 0.833411 -0.534530 0
M  V30 6 C 5.522413 0.379195 0.643963 0
M  V30 7 N 4.187640 0.555706 0.867210 0
M  V30 8 N 1.275511 0.696508 0.033118 0
M  V30 9 C 1.405799 -0.712562 0.362288 0
M  V30 10 C -0.016081 -1.289586 0.292287 0 CFG=1
M  V30 11 C -0.328743 -2.161604 1.486774 0
M  V30 12 O -0.570342 -1.264307 2.574712 0
M  V30 13 C -0.991942 0.007122 2.035823 0
M  V30 14 C -0.934097 -0.076663 0.495326 0 CFG=2
M  V30 15 C -2.340158 -0.133233 -0.097805 0
M  V30 16 C -3.163217 1.008687 -0.022718 0
M  V30 17 C -4.455540 1.009162 -0.552367 0
M  V30 18 C -4.955097 -0.132736 -1.167779 0
M  V30 19 C -4.162305 -1.272846 -1.251264 0
M  V30 20 C -2.867768 -1.274009 -0.721477 0
M  V30 21 C -0.119373 1.063047 -0.137094 0
M  V30 22 H 4.723616 1.812076 -2.057080 0
M  V30 23 H 6.182208 -0.071045 1.373955 0
M  V30 24 H 3.699993 0.339489 1.724625 0
M  V30 25 H 1.837970 -0.792750 1.364662 0
M  V30 26 H 2.073968 -1.210590 -0.347916 0
M  V30 27 H -0.141670 -1.810291 -0.661875 0
M  V30 28 H -1.236209 -2.754264 1.332956 0
M  V30 29 H 0.485201 -2.843704 1.749664 0
M  V30 30 H -0.311562 0.764780 2.440013 0
M  V30 31 H -1.990616 0.219724 2.431060 0
M  V30 32 H -2.806664 1.919623 0.455291 0
M  V30 33 H -5.071003 1.902617 -0.483192 0
M  V30 34 H -5.960253 -0.135126 -1.580799 0
M  V30 35 H -4.551834 -2.167689 -1.730771 0
M  V30 36 H -2.295725 -2.192291 -0.812538 0
M  V30 37 H -0.304726 2.041736 0.319502 0
M  V30 38 H -0.307219 1.147054 -1.215568 0
M  V30 END ATOM
M  V30 BEGIN BOND
M  V30 1 2 1 2
M  V30 2 1 2 3
M  V30 3 2 3 4
M  V30 4 1 4 5
M  V30 5 2 5 6
M  V30 6 1 6 7
M  V30 7 1 2 8
M  V30 8 1 8 9
M  V30 9 1 9 10
M  V30 10 1 10 11
M  V30 11 1 11 12
M  V30 12 1 12 13
M  V30 13 1 13 14
M  V30 14 1 14 15 CFG=3
M  V30 15 2 15 16
M  V30 16 1 16 17
M  V30 17 2 17 18
M  V30 18 1 18 19
M  V30 19 2 19 20
M  V30 20 1 14 21
M  V30 21 1 7 3
M  V30 22 1 21 8
M  V30 23 1 14 10
M  V30 24 1 20 15
M  V30 25 1 4 22
M  V30 26 1 6 23
M  V30 27 1 7 24
M  V30 28 1 9 25
M  V30 29 1 9 26
M  V30 30 1 10 27 CFG=3
M  V30 31 1 11 28
M  V30 32 1 11 29
M  V30 33 1 13 30
M  V30 34 1 13 31
M  V30 35 1 16 32
M  V30 36 1 17 33
M  V30 37 1 18 34
M  V30 38 1 19 35
M  V30 39 1 20 36
M  V30 40 1 21 37
M  V30 41 1 21 38
M  V30 END BOND
M  V30 BEGIN COLLECTION
M  V30 MDLV30/STERAC1 ATOMS=(2 10 14)
M  V30 END COLLECTION
M  V30 END CTAB
M  END
>  <_CXSMILES_Data>  (466) 
|&1:9,13|

$$$$
OCNT-2311391
     RDKit          3D

 49 51  0  0  0  0  0  0  0  0999 V2000
    2.5650    0.2722   -0.8841 C   0  0  0  0  0  0  0  0  0  0  0  0
    2.1453   -0.4467    0.4118 C   0  0  0  0  0  0  0  0  0  0  0  0
    2.2705   -1.9680    0.2027 C   0  0  0  0  0  0  0  0  0  0  0  0
    0.6804   -0.0804    0.7748 C   0  0  0  0  0  0  0  0  0  0  0  0
   -0.3535   -0.4587   -0.2592 C   0  0  0  0  0  0  0  0  0  0  0  0
   -0.9017   -1.5519   -0.3254 O   0  0  0  0  0  0  0  0  0  0  0  0
   -0.5988    0.5776   -1.1041 O   0  0  0  0  0  0  0  0  0  0  0  0
   -1.5341    0.3034   -2.1534 C   0  0  0  0  0  0  0  0  0  0  0  0
   -2.9792    0.2579   -1.6589 C   0  0  0  0  0  0  0  0  0  0  0  0
   -3.6998    1.3273   -1.6989 N   0  0  0  0  0  0  0  0  0  0  0  0
   -4.9829    1.3875   -1.1398 C   0  0  0  0  0  0  0  0  0  0  0  0
   -5.6135    2.6380   -1.1346 C   0  0  0  0  0  0  0  0  0  0  0  0
   -6.8787    2.8133   -0.5627 C   0  0  0  0  0  0  0  0  0  0  0  0
   -7.5376    1.7326    0.0184 C   0  0  0  0  0  0  0  0  0  0  0  0
   -6.9321    0.4791    0.0204 C   0  0  0  0  0  0  0  0  0  0  0  0
   -5.6665    0.3263   -0.5605 C   0  0  0  0  0  0  0  0  0  0  0  0
   -4.9313   -1.2518   -0.5830 S   0  0  0  0  0  0  0  0  0  0  0  0
   -4.7973   -1.6958    0.7876 O   0  0  0  0  0  0  0  0  0  0  0  0
   -5.6193   -2.0480   -1.5747 O   0  0  0  0  0  0  0  0  0  0  0  0
   -3.4051   -0.9657   -1.1357 N   0  0  0  0  0  0  0  0  0  0  0  0
    3.0247    0.0187    1.6164 C   0  0  0  0  0  0  0  0  0  0  0  0
    4.5185   -0.1922    1.5104 C   0  0  0  0  0  0  0  0  0  0  0  0
    5.3418    0.8070    0.9700 C   0  0  0  0  0  0  0  0  0  0  0  0
    6.7219    0.6154    0.8735 C   0  0  0  0  0  0  0  0  0  0  0  0
    7.2884   -0.5747    1.3221 C   0  0  0  0  0  0  0  0  0  0  0  0
    8.9885   -0.8108    1.2002 Cl  0  0  0  0  0  0  0  0  0  0  0  0
    6.4870   -1.5734    1.8697 C   0  0  0  0  0  0  0  0  0  0  0  0
    5.1066   -1.3809    1.9663 C   0  0  0  0  0  0  0  0  0  0  0  0
    3.5934    0.0263   -1.1680 H   0  0  0  0  0  0  0  0  0  0  0  0
    2.4942    1.3596   -0.7735 H   0  0  0  0  0  0  0  0  0  0  0  0
    1.9345   -0.0208   -1.7303 H   0  0  0  0  0  0  0  0  0  0  0  0
    1.9761   -2.5154    1.1045 H   0  0  0  0  0  0  0  0  0  0  0  0
    3.2944   -2.2593   -0.0514 H   0  0  0  0  0  0  0  0  0  0  0  0
    1.6384   -2.3160   -0.6210 H   0  0  0  0  0  0  0  0  0  0  0  0
    0.3834   -0.5712    1.7115 H   0  0  0  0  0  0  0  0  0  0  0  0
    0.5872    0.9964    0.9704 H   0  0  0  0  0  0  0  0  0  0  0  0
   -1.4400    1.1126   -2.8857 H   0  0  0  0  0  0  0  0  0  0  0  0
   -1.2756   -0.6324   -2.6626 H   0  0  0  0  0  0  0  0  0  0  0  0
   -5.1061    3.4927   -1.5773 H   0  0  0  0  0  0  0  0  0  0  0  0
   -7.3439    3.7961   -0.5696 H   0  0  0  0  0  0  0  0  0  0  0  0
   -8.5197    1.8672    0.4653 H   0  0  0  0  0  0  0  0  0  0  0  0
   -7.4388   -0.3729    0.4679 H   0  0  0  0  0  0  0  0  0  0  0  0
   -2.6916   -1.5993   -0.7566 H   0  0  0  0  0  0  0  0  0  0  0  0
    2.6771   -0.4803    2.5323 H   0  0  0  0  0  0  0  0  0  0  0  0
    2.8488    1.0886    1.7995 H   0  0  0  0  0  0  0  0  0  0  0  0
    4.9133    1.7435    0.6183 H   0  0  0  0  0  0  0  0  0  0  0  0
    7.3466    1.3969    0.4497 H   0  0  0  0  0  0  0  0  0  0  0  0
    6.9283   -2.5012    2.2230 H   0  0  0  0  0  0  0  0  0  0  0  0
    4.4929   -2.1685    2.3995 H   0  0  0  0  0  0  0  0  0  0  0  0
  1  2  1  0
  2  3  1  0
  2  4  1  0
  4  5  1  0
  5  6  2  0
  5  7  1  0
  7  8  1  0
  8  9  1  0
  9 10  2  0
 10 11  1  0
 11 12  2  0
 12 13  1  0
 13 14  2  0
 14 15  1  0
 15 16  2  0
 16 17  1  0
 17 18  2  0
 17 19  2  0
 17 20  1  0
  2 21  1  0
 21 22  1  0
 22 23  1  0
 23 24  2  0
 24 25  1  0
 25 26  1  0
 25 27  2  0
 27 28  1  0
 20  9  1  0
 28 22  2  0
 16 11  1  0
  1 29  1  0
  1 30  1  0
  1 31  1  0
  3 32  1  0
  3 33  1  0
  3 34  1  0
  4 35  1  0
  4 36  1  0
  8 37  1  0
  8 38  1  0
 12 39  1  0
 13 40  1  0
 14 41  1  0
 15 42  1  0
 20 43  1  0
 21 44  1  0
 21 45  1  0
 23 46  1  0
 24 47  1  0
 27 48  1  0
 28 49  1  0
M  END
$$$$
OCNT-2311397
     RDKit          3D

 44 46  0  0  0  0  0  0  0  0999 V2000
    1.5645    2.3145   -1.8044 C   0  0  0  0  0  0  0  0  0  0  0  0
    2.0235    1.2617   -0.7899 C   0  0  0  0  0  0  0  0  0  0  0  0
    1.3774   -0.0064   -1.1035 N   0  0  0  0  0  0  0  0  0  0  0  0
    0.9449   -0.8518   -0.1166 C   0  0  0  0  0  0  0  0  0  0  0  0
    1.0356   -0.6266    1.0833 O   0  0  0  0  0  0  0  0  0  0  0  0
    0.3544   -1.9700   -0.6431 N   0  0  0  0  0  0  0  0  0  0  0  0
   -0.2964   -2.9357    0.2235 C   0  0  0  0  0  0  0  0  0  0  0  0
   -1.7071   -2.5476    0.4962 C   0  0  0  0  0  0  0  0  0  0  0  0
   -2.2927   -1.3066    0.6359 C   0  0  0  0  0  0  0  0  0  0  0  0
   -3.6127   -1.5572    0.9241 N   0  0  0  0  0  0  0  0  0  0  0  0
   -4.6594   -0.6315    1.1737 C   0  0  0  0  0  0  0  0  0  0  0  0
   -5.9375   -1.1055    1.5056 C   0  0  0  0  0  0  0  0  0  0  0  0
   -6.9757   -0.2074    1.7613 C   0  0  0  0  0  0  0  0  0  0  0  0
   -6.7477    1.1640    1.6844 C   0  0  0  0  0  0  0  0  0  0  0  0
   -5.4806    1.6436    1.3511 C   0  0  0  0  0  0  0  0  0  0  0  0
   -4.4357    0.7511    1.0965 C   0  0  0  0  0  0  0  0  0  0  0  0
   -3.8140   -2.9012    0.9529 N   0  0  0  0  0  0  0  0  0  0  0  0
   -2.6661   -3.5058    0.6813 N   0  0  0  0  0  0  0  0  0  0  0  0
    3.5359    1.0852   -0.7003 C   0  0  0  0  0  0  0  0  0  0  0  0
    4.0925    0.6084    0.5024 C   0  0  0  0  0  0  0  0  0  0  0  0
    5.4730    0.4450    0.6463 C   0  0  0  0  0  0  0  0  0  0  0  0
    6.3254    0.7549   -0.4150 C   0  0  0  0  0  0  0  0  0  0  0  0
    7.7426    0.6235   -0.2586 C   0  0  0  0  0  0  0  0  0  0  0  0
    8.8893    0.5341   -0.1231 N   0  0  0  0  0  0  0  0  0  0  0  0
    5.7883    1.2093   -1.6234 C   0  0  0  0  0  0  0  0  0  0  0  0
    4.4046    1.3651   -1.7675 C   0  0  0  0  0  0  0  0  0  0  0  0
    0.4811    2.4524   -1.7412 H   0  0  0  0  0  0  0  0  0  0  0  0
    2.0416    3.2859   -1.6213 H   0  0  0  0  0  0  0  0  0  0  0  0
    1.7818    2.0119   -2.8353 H   0  0  0  0  0  0  0  0  0  0  0  0
    1.6686    1.6040    0.1923 H   0  0  0  0  0  0  0  0  0  0  0  0
    1.6659   -0.4495   -1.9657 H   0  0  0  0  0  0  0  0  0  0  0  0
   -0.0254   -1.8733   -1.5733 H   0  0  0  0  0  0  0  0  0  0  0  0
    0.2594   -3.0375    1.1635 H   0  0  0  0  0  0  0  0  0  0  0  0
   -0.2691   -3.8984   -0.3021 H   0  0  0  0  0  0  0  0  0  0  0  0
   -1.8787   -0.3120    0.5783 H   0  0  0  0  0  0  0  0  0  0  0  0
   -6.1439   -2.1734    1.5743 H   0  0  0  0  0  0  0  0  0  0  0  0
   -7.9630   -0.5815    2.0244 H   0  0  0  0  0  0  0  0  0  0  0  0
   -7.5574    1.8601    1.8853 H   0  0  0  0  0  0  0  0  0  0  0  0
   -5.3048    2.7175    1.2931 H   0  0  0  0  0  0  0  0  0  0  0  0
   -3.4668    1.1680    0.8370 H   0  0  0  0  0  0  0  0  0  0  0  0
    3.4452    0.3627    1.3454 H   0  0  0  0  0  0  0  0  0  0  0  0
    5.8702    0.0813    1.5934 H   0  0  0  0  0  0  0  0  0  0  0  0
    6.4413    1.4534   -2.4605 H   0  0  0  0  0  0  0  0  0  0  0  0
    4.0277    1.7214   -2.7240 H   0  0  0  0  0  0  0  0  0  0  0  0
  1  2  1  0
  2  3  1  0
  3  4  1  0
  4  5  2  0
  4  6  1  0
  6  7  1  0
  7  8  1  0
  8  9  2  0
  9 10  1  0
 10 11  1  0
 11 12  2  0
 12 13  1  0
 13 14  2  0
 14 15  1  0
 15 16  2  0
 10 17  1  0
 17 18  2  0
  2 19  1  0
 19 20  1  0
 20 21  2  0
 21 22  1  0
 22 23  1  0
 23 24  3  0
 22 25  2  0
 25 26  1  0
 18  8  1  0
 26 19  2  0
 16 11  1  0
  1 27  1  0
  1 28  1  0
  1 29  1  0
  2 30  1  0
  3 31  1  0
  6 32  1  0
  7 33  1  0
  7 34  1  0
  9 35  1  0
 12 36  1  0
 13 37  1  0
 14 38  1  0
 15 39  1  0
 16 40  1  0
 20 41  1  0
 21 42  1  0
 25 43  1  0
 26 44  1  0
M  END
$$$$
OCNT-2311405
     RDKit          3D

 54 55  0  0  0  0  0  0  0  0999 V2000
   -5.8821    0.7993   -0.4814 C   0  0  0  0  0  0  0  0  0  0  0  0
   -4.5154    1.2710    0.0334 C   0  0  0  0  0  0  0  0  0  0  0  0
   -3.8786    2.1116   -1.0892 C   0  0  0  0  0  0  0  0  0  0  0  0
   -3.5909    0.1820    0.4667 N   0  0  0  0  0  0  0  0  0  0  0  0
   -4.2207   -0.8133    1.3758 C   0  0  0  0  0  0  0  0  0  0  0  0
   -4.8582   -1.9925    0.6165 C   0  0  0  0  0  0  0  0  0  0  0  0
   -4.0124   -2.3924   -0.4606 O   0  0  0  0  0  0  0  0  0  0  0  0
   -2.3737    0.7527    1.1030 C   0  0  0  0  0  0  0  0  0  0  0  0
   -1.1146    0.5134    0.2385 C   0  0  0  0  0  0  0  0  0  0  0  0
   -0.7052   -0.9734    0.1658 C   0  0  0  0  0  0  0  0  0  0  0  0
    0.4711   -1.3087    1.0771 C   0  0  0  0  0  0  0  0  0  0  0  0
    1.6323   -0.4811    0.7772 N   0  0  0  0  0  0  0  0  0  0  0  0
    2.9012   -1.0170    0.9032 C   0  0  0  0  0  0  0  0  0  0  0  0
    3.1324   -2.1461    1.3192 O   0  0  0  0  0  0  0  0  0  0  0  0
    3.8674   -0.1459    0.5030 O   0  0  0  0  0  0  0  0  0  0  0  0
    5.2173   -0.6312    0.5775 C   0  0  0  0  0  0  0  0  0  0  0  0
    6.1584    0.5620    0.4497 C   0  0  0  0  0  0  0  0  0  0  0  0
    6.1757    0.8782   -1.0444 C   0  0  0  0  0  0  0  0  0  0  0  0
    5.7854   -0.4166   -1.7566 C   0  0  0  0  0  0  0  0  0  0  0  0
    5.5655   -1.4546   -0.6582 C   0  0  0  0  0  0  0  0  0  0  0  0
    1.3982    0.8809    0.3104 C   0  0  0  0  0  0  0  0  0  0  0  0
    0.0367    1.3982    0.7564 C   0  0  0  0  0  0  0  0  0  0  0  0
   -6.4820    0.3550    0.3182 H   0  0  0  0  0  0  0  0  0  0  0  0
   -6.4650    1.6455   -0.8643 H   0  0  0  0  0  0  0  0  0  0  0  0
   -5.7766    0.0782   -1.2988 H   0  0  0  0  0  0  0  0  0  0  0  0
   -4.7142    1.9325    0.8878 H   0  0  0  0  0  0  0  0  0  0  0  0
   -2.9759    2.6332   -0.7579 H   0  0  0  0  0  0  0  0  0  0  0  0
   -3.6162    1.4863   -1.9501 H   0  0  0  0  0  0  0  0  0  0  0  0
   -4.5726    2.8848   -1.4380 H   0  0  0  0  0  0  0  0  0  0  0  0
   -4.9266   -0.3526    2.0767 H   0  0  0  0  0  0  0  0  0  0  0  0
   -3.4413   -1.2820    1.9915 H   0  0  0  0  0  0  0  0  0  0  0  0
   -5.8387   -1.7496    0.2042 H   0  0  0  0  0  0  0  0  0  0  0  0
   -4.9868   -2.8492    1.2858 H   0  0  0  0  0  0  0  0  0  0  0  0
   -3.6065   -1.5560   -0.7709 H   0  0  0  0  0  0  0  0  0  0  0  0
   -2.4928    1.8281    1.2898 H   0  0  0  0  0  0  0  0  0  0  0  0
   -2.1930    0.3318    2.1012 H   0  0  0  0  0  0  0  0  0  0  0  0
   -1.3360    0.8340   -0.7881 H   0  0  0  0  0  0  0  0  0  0  0  0
   -0.4128   -1.1975   -0.8690 H   0  0  0  0  0  0  0  0  0  0  0  0
   -1.5412   -1.6385    0.3967 H   0  0  0  0  0  0  0  0  0  0  0  0
    0.2059   -1.1337    2.1264 H   0  0  0  0  0  0  0  0  0  0  0  0
    0.7275   -2.3689    0.9777 H   0  0  0  0  0  0  0  0  0  0  0  0
    5.3870   -1.1664    1.5182 H   0  0  0  0  0  0  0  0  0  0  0  0
    7.1672    0.2824    0.7758 H   0  0  0  0  0  0  0  0  0  0  0  0
    5.8299    1.4282    1.0326 H   0  0  0  0  0  0  0  0  0  0  0  0
    7.1595    1.2377   -1.3626 H   0  0  0  0  0  0  0  0  0  0  0  0
    5.4482    1.6641   -1.2780 H   0  0  0  0  0  0  0  0  0  0  0  0
    6.5556   -0.7419   -2.4633 H   0  0  0  0  0  0  0  0  0  0  0  0
    4.8616   -0.2625   -2.3263 H   0  0  0  0  0  0  0  0  0  0  0  0
    4.7845   -2.1655   -0.9429 H   0  0  0  0  0  0  0  0  0  0  0  0
    6.4955   -2.0099   -0.4880 H   0  0  0  0  0  0  0  0  0  0  0  0
    1.4692    0.8704   -0.7836 H   0  0  0  0  0  0  0  0  0  0  0  0
    2.1852    1.5425    0.6879 H   0  0  0  0  0  0  0  0  0  0  0  0
    0.0167    1.4360    1.8538 H   0  0  0  0  0  0  0  0  0  0  0  0
   -0.1051    2.4272    0.4049 H   0  0  0  0  0  0  0  0  0  0  0  0
  1  2  1  0
  2  3  1  0
  2  4  1  0
  4  5  1  0
  5  6  1  0
  6  7  1  0
  4  8  1  0
  8  9  1  0
  9 10  1  0
 10 11  1  0
 11 12  1  0
 12 13  1  0
 13 14  2  0
 13 15  1  0
 15 16  1  0
 16 17  1  0
 17 18  1  0
 18 19  1  0
 19 20  1  0
 12 21  1  0
 21 22  1  0
 22  9  1  0
 20 16  1  0
  1 23  1  0
  1 24  1  0
  1 25  1  0
  2 26  1  0
  3 27  1  0
  3 28  1  0
  3 29  1  0
  5 30  1  0
  5 31  1  0
  6 32  1  0
  6 33  1  0
  7 34  1  0
  8 35  1  0
  8 36  1  0
  9 37  1  0
 10 38  1  0
 10 39  1  0
 11 40  1  0
 11 41  1  0
 16 42  1  0
 17 43  1  0
 17 44  1  0
 18 45  1  0
 18 46  1  0
 19 47  1  0
 19 48  1  0
 20 49  1  0
 20 50  1  0
 21 51  1  0
 21 52  1  0
 22 53  1  0
 22 54  1  0
M  END
$$$$
OCNT-2311414
     RDKit          3D

 51 53  0  0  0  0  0  0  0  0999 V2000
   -3.4274   -1.9657   -0.2298 C   0  0  0  0  0  0  0  0  0  0  0  0
   -3.1031   -1.5523    1.0089 C   0  0  0  0  0  0  0  0  0  0  0  0
   -3.8122   -2.1076    2.2141 C   0  0  0  0  0  0  0  0  0  0  0  0
   -2.0229   -0.5327    1.3295 C   0  0  0  0  0  0  0  0  0  0  0  0
   -1.7146    0.4074    0.2639 N   0  0  0  0  0  0  0  0  0  0  0  0
   -2.5298    1.4101   -0.2280 C   0  0  0  0  0  0  0  0  0  0  0  0
   -3.8099    1.8626    0.3093 C   0  0  0  0  0  0  0  0  0  0  0  0
   -4.6779    2.6321   -0.4607 C   0  0  0  0  0  0  0  0  0  0  0  0
   -5.8720    3.0898    0.0000 N   0  0  0  0  0  0  0  0  0  0  0  0
   -6.1606    2.7545    1.2751 C   0  0  0  0  0  0  0  0  0  0  0  0
   -5.2985    2.0006    2.0536 C   0  0  0  0  0  0  0  0  0  0  0  0
   -4.1094    1.5414    1.5947 N   0  0  0  0  0  0  0  0  0  0  0  0
   -1.9667    1.8882   -1.3256 N   0  0  0  0  0  0  0  0  0  0  0  0
   -0.7758    1.2448   -1.5235 N   0  0  0  0  0  0  0  0  0  0  0  0
   -0.5886    0.4012   -0.5319 C   0  0  0  0  0  0  0  0  0  0  0  0
    0.4798   -0.4227   -0.3181 N   0  0  0  0  0  0  0  0  0  0  0  0
    1.2467   -0.7497   -1.5343 C   0  0  0  0  0  0  0  0  0  0  0  0
    2.4775   -1.5780   -1.1730 C   0  0  0  0  0  0  0  0  0  0  0  0
    3.4631   -0.7694   -0.2910 C   0  0  0  0  0  0  0  0  0  0  0  0
    4.1980   -1.7440    0.6528 C   0  0  0  0  0  0  0  0  0  0  0  0
    4.5054   -0.0584   -1.1884 C   0  0  0  0  0  0  0  0  0  0  0  0
    5.3943    0.7184   -0.3843 O   0  0  0  0  0  0  0  0  0  0  0  0
    6.3509    1.4108   -1.1754 C   0  0  0  0  0  0  0  0  0  0  0  0
    2.6982    0.2922    0.5429 C   0  0  0  0  0  0  0  0  0  0  0  0
    1.2838   -0.1634    0.8935 C   0  0  0  0  0  0  0  0  0  0  0  0
   -4.2098   -2.7004   -0.3971 H   0  0  0  0  0  0  0  0  0  0  0  0
   -2.9185   -1.5979   -1.1175 H   0  0  0  0  0  0  0  0  0  0  0  0
   -4.3299   -1.3082    2.7536 H   0  0  0  0  0  0  0  0  0  0  0  0
   -3.0925   -2.5767    2.8934 H   0  0  0  0  0  0  0  0  0  0  0  0
   -4.5572   -2.8638    1.9446 H   0  0  0  0  0  0  0  0  0  0  0  0
   -2.2812    0.0623    2.2113 H   0  0  0  0  0  0  0  0  0  0  0  0
   -1.1166   -1.0815    1.5998 H   0  0  0  0  0  0  0  0  0  0  0  0
   -4.4359    2.9076   -1.4826 H   0  0  0  0  0  0  0  0  0  0  0  0
   -7.1091    3.1123    1.6595 H   0  0  0  0  0  0  0  0  0  0  0  0
   -5.5443    1.7425    3.0775 H   0  0  0  0  0  0  0  0  0  0  0  0
    1.5539    0.1587   -2.0687 H   0  0  0  0  0  0  0  0  0  0  0  0
    0.6116   -1.3336   -2.2121 H   0  0  0  0  0  0  0  0  0  0  0  0
    2.1435   -2.4807   -0.6434 H   0  0  0  0  0  0  0  0  0  0  0  0
    2.9726   -1.9260   -2.0875 H   0  0  0  0  0  0  0  0  0  0  0  0
    3.4955   -2.2745    1.3050 H   0  0  0  0  0  0  0  0  0  0  0  0
    4.7542   -2.4963    0.0813 H   0  0  0  0  0  0  0  0  0  0  0  0
    4.9124   -1.2216    1.2986 H   0  0  0  0  0  0  0  0  0  0  0  0
    4.0032    0.6006   -1.9077 H   0  0  0  0  0  0  0  0  0  0  0  0
    5.0882   -0.7980   -1.7520 H   0  0  0  0  0  0  0  0  0  0  0  0
    5.8532    2.1071   -1.8565 H   0  0  0  0  0  0  0  0  0  0  0  0
    6.9647    0.7025   -1.7407 H   0  0  0  0  0  0  0  0  0  0  0  0
    7.0012    1.9810   -0.5073 H   0  0  0  0  0  0  0  0  0  0  0  0
    2.6241    1.2321   -0.0208 H   0  0  0  0  0  0  0  0  0  0  0  0
    3.2466    0.5297    1.4625 H   0  0  0  0  0  0  0  0  0  0  0  0
    0.8165    0.5975    1.5319 H   0  0  0  0  0  0  0  0  0  0  0  0
    1.3251   -1.0853    1.4857 H   0  0  0  0  0  0  0  0  0  0  0  0
  1  2  2  0
  2  3  1  0
  2  4  1  0
  4  5  1  0
  5  6  1  0
  6  7  1  0
  7  8  2  0
  8  9  1  0
  9 10  2  0
 10 11  1  0
 11 12  2  0
  6 13  2  0
 13 14  1  0
 14 15  2  0
 15 16  1  0
 16 17  1  0
 17 18  1  0
 18 19  1  0
 19 20  1  0
 19 21  1  0
 21 22  1  0
 22 23  1  0
 19 24  1  0
 24 25  1  0
 15  5  1  0
 25 16  1  0
 12  7  1  0
  1 26  1  0
  1 27  1  0
  3 28  1  0
  3 29  1  0
  3 30  1  0
  4 31  1  0
  4 32  1  0
  8 33  1  0
 10 34  1  0
 11 35  1  0
 17 36  1  0
 17 37  1  0
 18 38  1  0
 18 39  1  0
 20 40  1  0
 20 41  1  0
 20 42  1  0
 21 43  1  0
 21 44  1  0
 23 45  1  0
 23 46  1  0
 23 47  1  0
 24 48  1  0
 24 49  1  0
 25 50  1  0
 25 51  1  0
M  END
$$$$
OCNT-2311438
     RDKit          3D

 48 51  0  0  0  0  0  0  0  0999 V2000
    2.5573   -1.1060    2.4593 O   0  0  0  0  0  0  0  0  0  0  0  0
    2.3156   -0.7415    1.3089 C   0  0  0  0  0  0  0  0  0  0  0  0
    3.1710   -1.1407    0.2050 C   0  0  0  0  0  0  0  0  0  0  0  0
    4.1411   -0.4312   -0.4847 C   0  0  0  0  0  0  0  0  0  0  0  0
    4.4951    0.9277   -0.2228 N   0  0  0  0  0  0  0  0  0  0  0  0
    5.4597    1.6740   -0.8692 C   0  0  0  0  0  0  0  0  0  0  0  0
    5.4052    2.9135   -0.2840 C   0  0  0  0  0  0  0  0  0  0  0  0
    4.4443    2.9164    0.6763 N   0  0  0  0  0  0  0  0  0  0  0  0
    3.9020    1.7072    0.7141 N   0  0  0  0  0  0  0  0  0  0  0  0
    4.7600   -1.2370   -1.4972 C   0  0  0  0  0  0  0  0  0  0  0  0
    4.2592   -2.5199   -1.5241 C   0  0  0  0  0  0  0  0  0  0  0  0
    3.0592   -2.7654   -0.3357 S   0  0  0  0  0  0  0  0  0  0  0  0
    1.1922    0.0478    1.0078 N   0  0  0  0  0  0  0  0  0  0  0  0
    0.4320    0.5925    2.1249 C   0  0  0  0  0  0  0  0  0  0  0  0
   -0.7722   -0.2838    2.4479 C   0  0  0  0  0  0  0  0  0  0  0  0
   -1.9562   -0.0883    1.4994 C   0  0  0  0  0  0  0  0  0  0  0  0
   -1.6527   -0.3391    0.0039 C   0  0  0  0  0  0  0  0  0  0  0  0
   -2.8737   -0.3872   -0.8284 N   0  0  0  0  0  0  0  0  0  0  0  0
   -3.7035   -1.5907   -0.6240 C   0  0  0  0  0  0  0  0  0  0  0  0
   -5.1113   -1.2861   -0.0846 C   0  0  0  0  0  0  0  0  0  0  0  0
   -5.8535   -0.3809   -0.9105 O   0  0  0  0  0  0  0  0  0  0  0  0
   -5.0256    0.5733   -1.5887 C   0  0  0  0  0  0  0  0  0  0  0  0
   -3.6909    0.8370   -0.8721 C   0  0  0  0  0  0  0  0  0  0  0  0
   -0.6890    0.7231   -0.5674 C   0  0  0  0  0  0  0  0  0  0  0  0
    0.7895    0.3950   -0.3520 C   0  0  0  0  0  0  0  0  0  0  0  0
    6.0798    1.2736   -1.6548 H   0  0  0  0  0  0  0  0  0  0  0  0
    5.9980    3.7910   -0.4990 H   0  0  0  0  0  0  0  0  0  0  0  0
    5.5418   -0.9144   -2.1740 H   0  0  0  0  0  0  0  0  0  0  0  0
    4.5497   -3.3322   -2.1772 H   0  0  0  0  0  0  0  0  0  0  0  0
    0.1462    1.6272    1.9054 H   0  0  0  0  0  0  0  0  0  0  0  0
    1.0753    0.6391    3.0113 H   0  0  0  0  0  0  0  0  0  0  0  0
   -0.4832   -1.3420    2.4595 H   0  0  0  0  0  0  0  0  0  0  0  0
   -1.1155   -0.0412    3.4614 H   0  0  0  0  0  0  0  0  0  0  0  0
   -2.7513   -0.7632    1.8373 H   0  0  0  0  0  0  0  0  0  0  0  0
   -2.3381    0.9303    1.6419 H   0  0  0  0  0  0  0  0  0  0  0  0
   -1.1603   -1.3160   -0.0951 H   0  0  0  0  0  0  0  0  0  0  0  0
   -3.8109   -2.0678   -1.6062 H   0  0  0  0  0  0  0  0  0  0  0  0
   -3.2137   -2.3260    0.0247 H   0  0  0  0  0  0  0  0  0  0  0  0
   -5.6920   -2.2115   -0.0109 H   0  0  0  0  0  0  0  0  0  0  0  0
   -5.0574   -0.8592    0.9234 H   0  0  0  0  0  0  0  0  0  0  0  0
   -4.8532    0.2091   -2.6084 H   0  0  0  0  0  0  0  0  0  0  0  0
   -5.5979    1.5031   -1.6697 H   0  0  0  0  0  0  0  0  0  0  0  0
   -3.1547    1.6275   -1.4071 H   0  0  0  0  0  0  0  0  0  0  0  0
   -3.9133    1.1998    0.1372 H   0  0  0  0  0  0  0  0  0  0  0  0
   -0.8262    0.8121   -1.6539 H   0  0  0  0  0  0  0  0  0  0  0  0
   -0.9231    1.7128   -0.1556 H   0  0  0  0  0  0  0  0  0  0  0  0
    1.3877    1.2625   -0.6533 H   0  0  0  0  0  0  0  0  0  0  0  0
    1.0575   -0.4243   -1.0267 H   0  0  0  0  0  0  0  0  0  0  0  0
  1  2  2  0
  2  3  1  0
  3  4  2  0
  4  5  1  0
  5  6  1  0
  6  7  2  0
  7  8  1  0
  8  9  2  0
  4 10  1  0
 10 11  2  0
 11 12  1  0
  2 13  1  0
 13 14  1  0
 14 15  1  0
 15 16  1  0
 16 17  1  0
 17 18  1  0
 18 19  1  0
 19 20  1  0
 20 21  1  0
 21 22  1  0
 22 23  1  0
 17 24  1  0
 24 25  1  0
 12  3  1  0
 25 13  1  0
  9  5  1  0
 23 18  1  0
  6 26  1  0
  7 27  1  0
 10 28  1  0
 11 29  1  0
 14 30  1  0
 14 31  1  0
 15 32  1  0
 15 33  1  0
 16 34  1  0
 16 35  1  0
 17 36  1  0
 19 37  1  0
 19 38  1  0
 20 39  1  0
 20 40  1  0
 22 41  1  0
 22 42  1  0
 23 43  1  0
 23 44  1  0
 24 45  1  0
 24 46  1  0
 25 47  1  0
 25 48  1  0
M  END
$$$$
OCNT-2311440
     RDKit          3D

 56 59  0  0  0  0  0  0  0  0999 V2000
   -7.0968    0.1561    2.1011 C   0  0  0  0  0  0  0  0  0  0  0  0
   -6.9383    0.3486    0.6231 C   0  0  0  0  0  0  0  0  0  0  0  0
   -5.7083    0.1285    0.1012 N   0  0  0  0  0  0  0  0  0  0  0  0
   -5.5371    0.2495   -1.2298 C   0  0  0  0  0  0  0  0  0  0  0  0
   -4.2796    0.0215   -1.8157 N   0  0  0  0  0  0  0  0  0  0  0  0
   -3.2000   -0.3230   -0.8847 C   0  0  0  0  0  0  0  0  0  0  0  0
   -2.0427   -1.0448   -1.6209 C   0  0  0  0  0  0  0  0  0  0  0  0
   -2.3740   -2.5140   -1.9248 C   0  0  0  0  0  0  0  0  0  0  0  0
   -1.9105   -3.2447   -0.6718 C   0  0  0  0  0  0  0  0  0  0  0  0
   -0.6497   -2.4894   -0.2746 C   0  0  0  0  0  0  0  0  0  0  0  0
   -0.8322   -1.1412   -0.7980 N   0  0  0  0  0  0  0  0  0  0  0  0
    0.0686   -0.0832   -0.7495 C   0  0  0  0  0  0  0  0  0  0  0  0
   -0.1794    0.9625   -1.3514 O   0  0  0  0  0  0  0  0  0  0  0  0
    1.3279   -0.2470   -0.0080 C   0  0  0  0  0  0  0  0  0  0  0  0
    2.4512    0.5805   -0.0442 C   0  0  0  0  0  0  0  0  0  0  0  0
    2.6527    1.8767   -0.7365 C   0  0  0  0  0  0  0  0  0  0  0  0
    3.3736   -0.0506    0.7856 N   0  0  0  0  0  0  0  0  0  0  0  0
    4.7444    0.2229    1.0699 C   0  0  0  0  0  0  0  0  0  0  0  0
    5.3534   -0.4199    2.1607 C   0  0  0  0  0  0  0  0  0  0  0  0
    6.6975   -0.1786    2.4727 C   0  0  0  0  0  0  0  0  0  0  0  0
    7.4607    0.6997    1.7059 C   0  0  0  0  0  0  0  0  0  0  0  0
    8.7525    0.8458    2.1235 O   0  0  0  0  0  0  0  0  0  0  0  0
    9.4937    1.9050    1.5507 C   0  0  0  0  0  0  0  0  0  0  0  0
   10.6822    1.9696    2.2072 F   0  0  0  0  0  0  0  0  0  0  0  0
    9.7794    1.6060    0.2604 F   0  0  0  0  0  0  0  0  0  0  0  0
    6.8722    1.3168    0.6026 C   0  0  0  0  0  0  0  0  0  0  0  0
    5.5237    1.0791    0.2850 C   0  0  0  0  0  0  0  0  0  0  0  0
    2.7698   -1.1073    1.3889 N   0  0  0  0  0  0  0  0  0  0  0  0
    1.5628   -1.2587    0.8821 N   0  0  0  0  0  0  0  0  0  0  0  0
   -6.5849    0.6287   -2.0637 C   0  0  0  0  0  0  0  0  0  0  0  0
   -7.8452    0.8551   -1.5228 C   0  0  0  0  0  0  0  0  0  0  0  0
   -8.0310    0.7025   -0.1570 C   0  0  0  0  0  0  0  0  0  0  0  0
   -6.1205    0.1311    2.5979 H   0  0  0  0  0  0  0  0  0  0  0  0
   -7.6133   -0.7843    2.2995 H   0  0  0  0  0  0  0  0  0  0  0  0
   -7.6699    0.9832    2.5373 H   0  0  0  0  0  0  0  0  0  0  0  0
   -4.3850   -0.6289   -2.5894 H   0  0  0  0  0  0  0  0  0  0  0  0
   -3.5479   -0.9666   -0.0693 H   0  0  0  0  0  0  0  0  0  0  0  0
   -2.8292    0.6036   -0.4302 H   0  0  0  0  0  0  0  0  0  0  0  0
   -1.8129   -0.5121   -2.5518 H   0  0  0  0  0  0  0  0  0  0  0  0
   -3.4270   -2.6967   -2.1536 H   0  0  0  0  0  0  0  0  0  0  0  0
   -1.7770   -2.8538   -2.7814 H   0  0  0  0  0  0  0  0  0  0  0  0
   -2.6678   -3.1577    0.1166 H   0  0  0  0  0  0  0  0  0  0  0  0
   -1.7260   -4.3085   -0.8421 H   0  0  0  0  0  0  0  0  0  0  0  0
    0.2362   -2.9292   -0.7421 H   0  0  0  0  0  0  0  0  0  0  0  0
   -0.5296   -2.4683    0.8095 H   0  0  0  0  0  0  0  0  0  0  0  0
    3.1886    2.5840   -0.0981 H   0  0  0  0  0  0  0  0  0  0  0  0
    3.1942    1.7442   -1.6758 H   0  0  0  0  0  0  0  0  0  0  0  0
    1.7059    2.3652   -0.9733 H   0  0  0  0  0  0  0  0  0  0  0  0
    4.7965   -1.1074    2.7953 H   0  0  0  0  0  0  0  0  0  0  0  0
    7.1459   -0.6840    3.3258 H   0  0  0  0  0  0  0  0  0  0  0  0
    8.9939    2.8772    1.6263 H   0  0  0  0  0  0  0  0  0  0  0  0
    7.4368    1.9723   -0.0569 H   0  0  0  0  0  0  0  0  0  0  0  0
    5.1440    1.5504   -0.6134 H   0  0  0  0  0  0  0  0  0  0  0  0
   -6.4176    0.7568   -3.1275 H   0  0  0  0  0  0  0  0  0  0  0  0
   -8.6692    1.1567   -2.1598 H   0  0  0  0  0  0  0  0  0  0  0  0
   -9.0060    0.8619    0.2891 H   0  0  0  0  0  0  0  0  0  0  0  0
  1  2  1  0
  2  3  1  0
  3  4  2  0
  4  5  1  0
  5  6  1  0
  6  7  1  0
  7  8  1  0
  8  9  1  0
  9 10  1  0
 10 11  1  0
 11 12  1  0
 12 13  2  0
 12 14  1  0
 14 15  2  0
 15 16  1  0
 15 17  1  0
 17 18  1  0
 18 19  1  0
 19 20  2  0
 20 21  1  0
 21 22  1  0
 22 23  1  0
 23 24  1  0
 23 25  1  0
 21 26  2  0
 26 27  1  0
 17 28  1  0
 28 29  2  0
  4 30  1  0
 30 31  2  0
 31 32  1  0
 32  2  2  0
 11  7  1  0
 29 14  1  0
 27 18  2  0
  1 33  1  0
  1 34  1  0
  1 35  1  0
  5 36  1  0
  6 37  1  0
  6 38  1  0
  7 39  1  0
  8 40  1  0
  8 41  1  0
  9 42  1  0
  9 43  1  0
 10 44  1  0
 10 45  1  0
 16 46  1  0
 16 47  1  0
 16 48  1  0
 19 49  1  0
 20 50  1  0
 23 51  1  0
 26 52  1  0
 27 53  1  0
 30 54  1  0
 31 55  1  0
 32 56  1  0
M  END
$$$$
OCNT-2311450
     RDKit          3D

 49 51  0  0  0  0  0  0  0  0999 V2000
    4.8708   -0.8662    2.4665 C   0  0  0  0  0  0  0  0  0  0  0  0
    4.5882   -0.8949    0.9912 C   0  0  0  0  0  0  0  0  0  0  0  0
    5.4083   -1.5783    0.0991 C   0  0  0  0  0  0  0  0  0  0  0  0
    6.5667   -2.2977    0.5308 C   0  0  0  0  0  0  0  0  0  0  0  0
    7.5053   -2.8838    0.8810 N   0  0  0  0  0  0  0  0  0  0  0  0
    5.0746   -1.5400   -1.2511 C   0  0  0  0  0  0  0  0  0  0  0  0
    3.9419   -0.8349   -1.6599 C   0  0  0  0  0  0  0  0  0  0  0  0
    3.1449   -0.1817   -0.7218 C   0  0  0  0  0  0  0  0  0  0  0  0
    2.0239    0.5420   -1.1073 N   0  0  0  0  0  0  0  0  0  0  0  0
    1.1450    0.0226   -2.1619 C   0  0  0  0  0  0  0  0  0  0  0  0
   -0.2808   -0.1316   -1.6349 C   0  0  0  0  0  0  0  0  0  0  0  0
   -0.8566    1.2162   -1.1651 C   0  0  0  0  0  0  0  0  0  0  0  0
   -1.4868    1.8488   -2.2974 O   0  0  0  0  0  0  0  0  0  0  0  0
   -1.9606    1.0293   -0.0789 C   0  0  0  0  0  0  0  0  0  0  0  0
   -3.1682    0.3874   -0.6557 N   0  0  0  0  0  0  0  0  0  0  0  0
   -3.3040   -1.0303   -0.2785 C   0  0  0  0  0  0  0  0  0  0  0  0
   -3.7202   -1.2627    1.1777 C   0  0  0  0  0  0  0  0  0  0  0  0
   -4.9796   -0.4801    1.5300 C   0  0  0  0  0  0  0  0  0  0  0  0
   -4.8305    0.9853    1.1391 C   0  0  0  0  0  0  0  0  0  0  0  0
   -4.4025    1.1214   -0.3235 C   0  0  0  0  0  0  0  0  0  0  0  0
    0.2508    2.1650   -0.6708 C   0  0  0  0  0  0  0  0  0  0  0  0
    1.4158    1.3843   -0.0733 C   0  0  0  0  0  0  0  0  0  0  0  0
    3.4849   -0.2083    0.5877 N   0  0  0  0  0  0  0  0  0  0  0  0
    4.1109   -0.2808    2.9950 H   0  0  0  0  0  0  0  0  0  0  0  0
    4.8580   -1.8800    2.8788 H   0  0  0  0  0  0  0  0  0  0  0  0
    5.8437   -0.4041    2.6608 H   0  0  0  0  0  0  0  0  0  0  0  0
    5.6896   -2.0427   -1.9939 H   0  0  0  0  0  0  0  0  0  0  0  0
    3.7102   -0.7780   -2.7184 H   0  0  0  0  0  0  0  0  0  0  0  0
    1.4687   -0.9567   -2.5327 H   0  0  0  0  0  0  0  0  0  0  0  0
    1.1649    0.7109   -3.0153 H   0  0  0  0  0  0  0  0  0  0  0  0
   -0.9072   -0.5691   -2.4213 H   0  0  0  0  0  0  0  0  0  0  0  0
   -0.2498   -0.8420   -0.7992 H   0  0  0  0  0  0  0  0  0  0  0  0
   -2.3686    1.4232   -2.3513 H   0  0  0  0  0  0  0  0  0  0  0  0
   -1.5621    0.4879    0.7867 H   0  0  0  0  0  0  0  0  0  0  0  0
   -2.2279    2.0302    0.2854 H   0  0  0  0  0  0  0  0  0  0  0  0
   -4.0575   -1.4845   -0.9356 H   0  0  0  0  0  0  0  0  0  0  0  0
   -2.3790   -1.5782   -0.4835 H   0  0  0  0  0  0  0  0  0  0  0  0
   -2.9089   -0.9730    1.8555 H   0  0  0  0  0  0  0  0  0  0  0  0
   -3.8973   -2.3320    1.3410 H   0  0  0  0  0  0  0  0  0  0  0  0
   -5.1881   -0.5650    2.6021 H   0  0  0  0  0  0  0  0  0  0  0  0
   -5.8375   -0.9131    1.0009 H   0  0  0  0  0  0  0  0  0  0  0  0
   -4.0964    1.4685    1.7950 H   0  0  0  0  0  0  0  0  0  0  0  0
   -5.7834    1.5043    1.2929 H   0  0  0  0  0  0  0  0  0  0  0  0
   -5.2091    0.7466   -0.9675 H   0  0  0  0  0  0  0  0  0  0  0  0
   -4.2952    2.1814   -0.5853 H   0  0  0  0  0  0  0  0  0  0  0  0
   -0.1406    2.8733    0.0690 H   0  0  0  0  0  0  0  0  0  0  0  0
    0.6156    2.7825   -1.5033 H   0  0  0  0  0  0  0  0  0  0  0  0
    1.0611    0.7787    0.7708 H   0  0  0  0  0  0  0  0  0  0  0  0
    2.1545    2.0999    0.3090 H   0  0  0  0  0  0  0  0  0  0  0  0
  1  2  1  0
  2  3  2  0
  3  4  1  0
  4  5  3  0
  3  6  1  0
  6  7  2  0
  7  8  1  0
  8  9  1  0
  9 10  1  0
 10 11  1  0
 11 12  1  0
 12 13  1  0
 12 14  1  0
 14 15  1  0
 15 16  1  0
 16 17  1  0
 17 18  1  0
 18 19  1  0
 19 20  1  0
 12 21  1  0
 21 22  1  0
  8 23  2  0
 23  2  1  0
 22  9  1  0
 20 15  1  0
  1 24  1  0
  1 25  1  0
  1 26  1  0
  6 27  1  0
  7 28  1  0
 10 29  1  0
 10 30  1  0
 11 31  1  0
 11 32  1  0
 13 33  1  0
 14 34  1  0
 14 35  1  0
 16 36  1  0
 16 37  1  0
 17 38  1  0
 17 39  1  0
 18 40  1  0
 18 41  1  0
 19 42  1  0
 19 43  1  0
 20 44  1  0
 20 45  1  0
 21 46  1  0
 21 47  1  0
 22 48  1  0
 22 49  1  0
M  END
$$$$
OCNT-2311473
     RDKit          3D

 40 42  0  0  0  0  0  0  0  0999 V2000
   -1.5336    1.2266    2.3182 C   0  0  0  0  0  0  0  0  0  0  0  0
   -1.6930    0.8806    0.8995 N   0  0  0  0  0  0  0  0  0  0  0  0
   -2.6502    1.7324    0.1634 C   0  0  0  0  0  0  0  0  0  0  0  0
   -1.9928    3.0495   -0.2757 C   0  0  0  0  0  0  0  0  0  0  0  0
   -0.9089    2.8544   -1.3343 C   0  0  0  0  0  0  0  0  0  0  0  0
    0.2062    2.0887   -0.8337 N   0  0  0  0  0  0  0  0  0  0  0  0
    1.3554    1.8763   -1.5709 C   0  0  0  0  0  0  0  0  0  0  0  0
    1.5973    2.5164   -2.5930 O   0  0  0  0  0  0  0  0  0  0  0  0
    2.1960    0.8127   -1.0261 C   0  0  0  0  0  0  0  0  0  0  0  0
    1.8328    0.0854    0.0132 N   0  0  0  0  0  0  0  0  0  0  0  0
    2.8011   -0.8705    0.2770 C   0  0  0  0  0  0  0  0  0  0  0  0
    2.7668   -1.8385    1.2901 C   0  0  0  0  0  0  0  0  0  0  0  0
    3.7863   -2.7213    1.4460 N   0  0  0  0  0  0  0  0  0  0  0  0
    4.8406   -2.6539    0.6069 C   0  0  0  0  0  0  0  0  0  0  0  0
    4.9701   -1.7404   -0.4255 C   0  0  0  0  0  0  0  0  0  0  0  0
    3.9102   -0.8417   -0.5714 C   0  0  0  0  0  0  0  0  0  0  0  0
    3.7033    0.4188   -1.7287 S   0  0  0  0  0  0  0  0  0  0  0  0
   -1.9416   -0.5024    0.7256 C   0  0  0  0  0  0  0  0  0  0  0  0
   -1.7964   -1.0660   -0.5456 C   0  0  0  0  0  0  0  0  0  0  0  0
   -2.0012   -2.4320   -0.7314 C   0  0  0  0  0  0  0  0  0  0  0  0
   -2.3423   -3.2171    0.3578 C   0  0  0  0  0  0  0  0  0  0  0  0
   -2.4568   -2.5965    1.5870 C   0  0  0  0  0  0  0  0  0  0  0  0
   -2.2612   -1.2735    1.7878 N   0  0  0  0  0  0  0  0  0  0  0  0
   -2.4669    1.0992    2.8796 H   0  0  0  0  0  0  0  0  0  0  0  0
   -1.2263    2.2726    2.4193 H   0  0  0  0  0  0  0  0  0  0  0  0
   -0.7423    0.6275    2.7846 H   0  0  0  0  0  0  0  0  0  0  0  0
   -3.0515    1.2388   -0.7306 H   0  0  0  0  0  0  0  0  0  0  0  0
   -3.5137    1.9543    0.8039 H   0  0  0  0  0  0  0  0  0  0  0  0
   -1.5735    3.5769    0.5886 H   0  0  0  0  0  0  0  0  0  0  0  0
   -2.7709    3.6981   -0.6959 H   0  0  0  0  0  0  0  0  0  0  0  0
   -0.5331    3.8261   -1.6733 H   0  0  0  0  0  0  0  0  0  0  0  0
   -1.3096    2.3325   -2.2106 H   0  0  0  0  0  0  0  0  0  0  0  0
    0.0104    1.3963   -0.1035 H   0  0  0  0  0  0  0  0  0  0  0  0
    1.9345   -1.9209    1.9795 H   0  0  0  0  0  0  0  0  0  0  0  0
    5.6191   -3.3904    0.7923 H   0  0  0  0  0  0  0  0  0  0  0  0
    5.8354   -1.7268   -1.0758 H   0  0  0  0  0  0  0  0  0  0  0  0
   -1.4974   -0.4519   -1.3881 H   0  0  0  0  0  0  0  0  0  0  0  0
   -1.8828   -2.8742   -1.7159 H   0  0  0  0  0  0  0  0  0  0  0  0
   -2.5054   -4.2835    0.2553 H   0  0  0  0  0  0  0  0  0  0  0  0
   -2.7145   -3.1630    2.4771 H   0  0  0  0  0  0  0  0  0  0  0  0
  1  2  1  0
  2  3  1  0
  3  4  1  0
  4  5  1  0
  5  6  1  0
  6  7  1  0
  7  8  2  0
  7  9  1  0
  9 10  2  0
 10 11  1  0
 11 12  2  0
 12 13  1  0
 13 14  2  0
 14 15  1  0
 15 16  2  0
 16 17  1  0
  2 18  1  0
 18 19  2  0
 19 20  1  0
 20 21  2  0
 21 22  1  0
 22 23  2  0
 17  9  1  0
 23 18  1  0
 16 11  1  0
  1 24  1  0
  1 25  1  0
  1 26  1  0
  3 27  1  0
  3 28  1  0
  4 29  1  0
  4 30  1  0
  5 31  1  0
  5 32  1  0
  6 33  1  0
 12 34  1  0
 14 35  1  0
 15 36  1  0
 19 37  1  0
 20 38  1  0
 21 39  1  0
 22 40  1  0
M  END
$$$$
OCNT-2311479
     RDKit          3D

  0  0  0  0  0  0  0  0  0  0999 V3000
M  V30 BEGIN CTAB
M  V30 COUNTS 42 44 0 0 0
M  V30 BEGIN ATOM
M  V30 1 C 5.398685 1.838399 0.061976 0
M  V30 2 C 4.237232 0.900655 0.197379 0
M  V30 3 C 4.150339 -0.255485 -0.590550 0
M  V30 4 C 3.076775 -1.135667 -0.434864 0
M  V30 5 C 2.092829 -0.858870 0.518368 0
M  V30 6 S 0.714476 -1.954375 0.729203 0
M  V30 7 O 0.628749 -2.259867 2.140939 0
M  V30 8 O 0.802794 -3.002120 -0.265594 0
M  V30 9 N -0.596800 -0.956936 0.321584 0
M  V30 10 C -0.692004 -0.503057 -1.096895 0 CFG=1
M  V30 11 C -1.830976 -1.308573 -1.741447 0
M  V30 12 C -2.402643 -2.177456 -0.637170 0
M  V30 13 C -1.945669 -1.510058 0.652466 0 CFG=2
M  V30 14 C -2.890200 -0.371544 1.121774 0
M  V30 15 N -3.122335 0.756176 0.177431 0
M  V30 16 C -4.177965 1.618477 0.723478 0
M  V30 17 C -1.892922 1.543851 -0.022307 0
M  V30 18 C -0.955550 1.004203 -1.113186 0
M  V30 19 C 2.175063 0.276310 1.325404 0
M  V30 20 C 3.247265 1.142260 1.156516 0
M  V30 21 F 3.324515 2.232626 1.932535 0
M  V30 22 H 5.066583 2.879125 0.137046 0
M  V30 23 H 6.134276 1.639679 0.847484 0
M  V30 24 H 5.887990 1.723504 -0.910947 0
M  V30 25 H 4.918950 -0.477971 -1.328345 0
M  V30 26 H 3.018219 -2.029408 -1.052989 0
M  V30 27 H 0.232484 -0.693562 -1.652524 0
M  V30 28 H -2.602146 -0.665792 -2.179741 0
M  V30 29 H -1.450610 -1.935469 -2.556172 0
M  V30 30 H -3.489513 -2.283810 -0.707898 0
M  V30 31 H -1.971360 -3.183344 -0.708099 0
M  V30 32 H -1.893261 -2.248361 1.460126 0
M  V30 33 H -2.515235 0.019456 2.077991 0
M  V30 34 H -3.858338 -0.843195 1.338247 0
M  V30 35 H -3.895526 2.059810 1.686247 0
M  V30 36 H -4.411489 2.429665 0.024671 0
M  V30 37 H -5.106740 1.053090 0.859494 0
M  V30 38 H -1.345351 1.663179 0.922573 0
M  V30 39 H -2.151385 2.564999 -0.335142 0
M  V30 40 H -1.334624 1.295860 -2.101090 0
M  V30 41 H 0.004717 1.524321 -0.996714 0
M  V30 42 H 1.420703 0.489276 2.076885 0
M  V30 END ATOM
M  V30 BEGIN BOND
M  V30 1 1 1 2
M  V30 2 1 2 3
M  V30 3 2 3 4
M  V30 4 1 4 5
M  V30 5 1 5 6
M  V30 6 2 6 7
M  V30 7 2 6 8
M  V30 8 1 6 9
M  V30 9 1 9 10
M  V30 10 1 10 11
M  V30 11 1 11 12
M  V30 12 1 12 13
M  V30 13 1 13 14
M  V30 14 1 14 15
M  V30 15 1 15 16
M  V30 16 1 15 17
M  V30 17 1 17 18
M  V30 18 2 5 19
M  V30 19 1 19 20
M  V30 20 1 20 21
M  V30 21 2 20 2
M  V30 22 1 13 9
M  V30 23 1 18 10
M  V30 24 1 1 22
M  V30 25 1 1 23
M  V30 26 1 1 24
M  V30 27 1 3 25
M  V30 28 1 4 26
M  V30 29 1 10 27 CFG=3
M  V30 30 1 11 28
M  V30 31 1 11 29
M  V30 32 1 12 30
M  V30 33 1 12 31
M  V30 34 1 13 32 CFG=1
M  V30 35 1 14 33
M  V30 36 1 14 34
M  V30 37 1 16 35
M  V30 38 1 16 36
M  V30 39 1 16 37
M  V30 40 1 17 38
M  V30 41 1 17 39
M  V30 42 1 18 40
M  V30 43 1 18 41
M  V30 44 1 19 42
M  V30 END BOND
M  V30 BEGIN COLLECTION
M  V30 MDLV30/STERAC1 ATOMS=(2 10 13)
M  V30 END COLLECTION
M  V30 END CTAB
M  END
>  <_CXSMILES_Data>  (475) 
|&1:9,12|

$$$$
OCNT-2311515
     RDKit          3D

 50 52  0  0  0  0  0  0  0  0999 V2000
   -0.1163   -2.4845    2.2263 O   0  0  0  0  0  0  0  0  0  0  0  0
   -0.0712   -1.6458    1.3368 C   0  0  0  0  0  0  0  0  0  0  0  0
   -1.1678   -0.9859    0.8488 N   0  0  0  0  0  0  0  0  0  0  0  0
   -2.4883   -1.3854    1.2771 C   0  0  0  0  0  0  0  0  0  0  0  0
   -3.5196   -0.3567    0.8775 C   0  0  0  0  0  0  0  0  0  0  0  0
   -3.8128    0.6835    1.7808 C   0  0  0  0  0  0  0  0  0  0  0  0
   -4.7515    1.6203    1.4149 C   0  0  0  0  0  0  0  0  0  0  0  0
   -5.3909    1.5593    0.2026 C   0  0  0  0  0  0  0  0  0  0  0  0
   -5.1251    0.5663   -0.7185 C   0  0  0  0  0  0  0  0  0  0  0  0
   -4.1655   -0.4003   -0.3881 C   0  0  0  0  0  0  0  0  0  0  0  0
   -3.7817   -1.4267   -1.2109 O   0  0  0  0  0  0  0  0  0  0  0  0
   -4.2890   -1.4288   -2.5355 C   0  0  0  0  0  0  0  0  0  0  0  0
   -5.6091   -1.7318   -2.5080 F   0  0  0  0  0  0  0  0  0  0  0  0
   -3.6704   -2.4369   -3.2006 F   0  0  0  0  0  0  0  0  0  0  0  0
   -6.2842    2.5722    0.0364 O   0  0  0  0  0  0  0  0  0  0  0  0
   -6.1419    3.2691    1.2927 C   0  0  0  0  0  0  0  0  0  0  0  0
   -5.1574    2.6779    2.1653 O   0  0  0  0  0  0  0  0  0  0  0  0
    1.0873   -1.2152    0.7440 N   0  0  0  0  0  0  0  0  0  0  0  0
    2.3519   -1.8518    1.0523 C   0  0  0  0  0  0  0  0  0  0  0  0
    3.5703   -1.0558    0.5506 C   0  0  0  0  0  0  0  0  0  0  0  0
    3.6244   -1.0373   -1.0221 C   0  0  0  0  0  0  0  0  0  0  0  0
    4.9129   -0.5122   -1.7230 C   0  0  0  0  0  0  0  0  0  0  0  0
    5.0738    1.0215   -1.9351 C   0  0  0  0  0  0  0  0  0  0  0  0
    5.1857    1.9470   -0.6761 C   0  0  0  0  0  0  0  0  0  0  0  0
    4.4452    1.3741    0.5312 C   0  0  0  0  0  0  0  0  0  0  0  0
    5.4840    0.3722    0.5094 F   0  0  0  0  0  0  0  0  0  0  0  0
    3.3134    1.3217   -0.3699 F   0  0  0  0  0  0  0  0  0  0  0  0
    3.6602    0.3270    1.3167 C   0  0  0  0  0  0  0  0  0  0  0  0
   -1.0935   -0.6231   -0.0869 H   0  0  0  0  0  0  0  0  0  0  0  0
   -2.4911   -1.5237    2.3655 H   0  0  0  0  0  0  0  0  0  0  0  0
   -2.7125   -2.3671    0.8441 H   0  0  0  0  0  0  0  0  0  0  0  0
   -3.3171    0.7502    2.7446 H   0  0  0  0  0  0  0  0  0  0  0  0
   -5.6781    0.5674   -1.6499 H   0  0  0  0  0  0  0  0  0  0  0  0
   -4.1094   -0.4914   -3.0731 H   0  0  0  0  0  0  0  0  0  0  0  0
   -5.8511    4.3058    1.0871 H   0  0  0  0  0  0  0  0  0  0  0  0
   -7.1110    3.2701    1.8052 H   0  0  0  0  0  0  0  0  0  0  0  0
    0.9988   -0.7500   -0.1453 H   0  0  0  0  0  0  0  0  0  0  0  0
    2.3335   -2.8517    0.6029 H   0  0  0  0  0  0  0  0  0  0  0  0
    2.4166   -1.9899    2.1384 H   0  0  0  0  0  0  0  0  0  0  0  0
    4.4500   -1.6378    0.8637 H   0  0  0  0  0  0  0  0  0  0  0  0
    3.5182   -2.0836   -1.3427 H   0  0  0  0  0  0  0  0  0  0  0  0
    2.7508   -0.5240   -1.4401 H   0  0  0  0  0  0  0  0  0  0  0  0
    5.8031   -0.9277   -1.2365 H   0  0  0  0  0  0  0  0  0  0  0  0
    4.9120   -0.9499   -2.7313 H   0  0  0  0  0  0  0  0  0  0  0  0
    5.9598    1.1962   -2.5583 H   0  0  0  0  0  0  0  0  0  0  0  0
    4.2212    1.3647   -2.5366 H   0  0  0  0  0  0  0  0  0  0  0  0
    6.2474    2.1058   -0.4402 H   0  0  0  0  0  0  0  0  0  0  0  0
    4.7927    2.9398   -0.9314 H   0  0  0  0  0  0  0  0  0  0  0  0
    4.1350    0.1521    2.2921 H   0  0  0  0  0  0  0  0  0  0  0  0
    2.6586    0.7109    1.5535 H   0  0  0  0  0  0  0  0  0  0  0  0
  1  2  2  0
  2  3  1  0
  3  4  1  0
  4  5  1  0
  5  6  1  0
  6  7  2  0
  7  8  1  0
  8  9  2  0
  9 10  1  0
 10 11  1  0
 11 12  1  0
 12 13  1  0
 12 14  1  0
  8 15  1  0
 15 16  1  0
 16 17  1  0
  2 18  1  0
 18 19  1  0
 19 20  1  0
 20 21  1  0
 21 22  1  0
 22 23  1  0
 23 24  1  0
 24 25  1  0
 25 26  1  0
 25 27  1  0
 25 28  1  0
 10  5  2  0
 28 20  1  0
 17  7  1  0
  3 29  1  0
  4 30  1  0
  4 31  1  0
  6 32  1  0
  9 33  1  0
 12 34  1  0
 16 35  1  0
 16 36  1  0
 18 37  1  0
 19 38  1  0
 19 39  1  0
 20 40  1  0
 21 41  1  0
 21 42  1  0
 22 43  1  0
 22 44  1  0
 23 45  1  0
 23 46  1  0
 24 47  1  0
 24 48  1  0
 28 49  1  0
 28 50  1  0
M  END
$$$$
OCNT-2311523
     RDKit          3D

 37 40  0  0  0  0  0  0  0  0999 V2000
   -1.2715   -1.7474   -2.7909 O   0  0  0  0  0  0  0  0  0  0  0  0
   -1.5785   -0.3796   -2.4345 S   0  0  0  0  0  0  0  0  0  0  0  0
   -2.5032    0.4118   -3.2164 O   0  0  0  0  0  0  0  0  0  0  0  0
   -0.1408    0.5006   -2.3727 N   0  0  0  0  0  0  0  0  0  0  0  0
    0.8852    0.1027   -1.4669 C   0  0  0  0  0  0  0  0  0  0  0  0
    1.3847    0.9731   -0.5233 C   0  0  0  0  0  0  0  0  0  0  0  0
    2.3419    0.6486    0.3720 N   0  0  0  0  0  0  0  0  0  0  0  0
    2.8337   -0.6082    0.3253 C   0  0  0  0  0  0  0  0  0  0  0  0
    3.8968   -1.0029    1.3194 C   0  0  0  0  0  0  0  0  0  0  0  0
    5.1910   -1.6261    0.8422 C   0  0  0  0  0  0  0  0  0  0  0  0
    5.1959   -0.2303    1.3917 C   0  0  0  0  0  0  0  0  0  0  0  0
    2.4070   -1.5292   -0.5651 N   0  0  0  0  0  0  0  0  0  0  0  0
    1.4521   -1.1527   -1.4447 C   0  0  0  0  0  0  0  0  0  0  0  0
   -2.1313   -0.3504   -0.7497 C   0  0  0  0  0  0  0  0  0  0  0  0
   -1.9509   -1.4750    0.0665 C   0  0  0  0  0  0  0  0  0  0  0  0
   -2.3792   -1.4504    1.4021 C   0  0  0  0  0  0  0  0  0  0  0  0
   -2.9955   -0.3132    1.9290 C   0  0  0  0  0  0  0  0  0  0  0  0
   -3.1726    0.7846    1.1023 C   0  0  0  0  0  0  0  0  0  0  0  0
   -2.7563    0.7709   -0.2236 C   0  0  0  0  0  0  0  0  0  0  0  0
   -3.1273    2.0640   -0.8536 C   0  0  0  0  0  0  0  0  0  0  0  0
   -3.4584    2.9155    0.2689 O   0  0  0  0  0  0  0  0  0  0  0  0
   -3.8124    2.0907    1.4028 C   0  0  0  0  0  0  0  0  0  0  0  0
   -0.2715    1.4930   -2.5650 H   0  0  0  0  0  0  0  0  0  0  0  0
    1.0197    1.9920   -0.4392 H   0  0  0  0  0  0  0  0  0  0  0  0
    3.5074   -1.3751    2.2628 H   0  0  0  0  0  0  0  0  0  0  0  0
    5.3383   -1.7559   -0.2247 H   0  0  0  0  0  0  0  0  0  0  0  0
    5.6210   -2.4161    1.4472 H   0  0  0  0  0  0  0  0  0  0  0  0
    5.6308   -0.0674    2.3711 H   0  0  0  0  0  0  0  0  0  0  0  0
    5.3428    0.5940    0.7026 H   0  0  0  0  0  0  0  0  0  0  0  0
    1.1654   -1.9242   -2.1538 H   0  0  0  0  0  0  0  0  0  0  0  0
   -1.4760   -2.3750   -0.3208 H   0  0  0  0  0  0  0  0  0  0  0  0
   -2.2306   -2.3257    2.0313 H   0  0  0  0  0  0  0  0  0  0  0  0
   -3.3284   -0.2967    2.9627 H   0  0  0  0  0  0  0  0  0  0  0  0
   -2.3002    2.5292   -1.3961 H   0  0  0  0  0  0  0  0  0  0  0  0
   -4.0110    1.9690   -1.4920 H   0  0  0  0  0  0  0  0  0  0  0  0
   -3.4162    2.5553    2.3088 H   0  0  0  0  0  0  0  0  0  0  0  0
   -4.9018    2.0067    1.4536 H   0  0  0  0  0  0  0  0  0  0  0  0
  1  2  2  0
  2  3  2  0
  2  4  1  0
  4  5  1  0
  5  6  2  0
  6  7  1  0
  7  8  2  0
  8  9  1  0
  9 10  1  0
 10 11  1  0
  8 12  1  0
 12 13  2  0
  2 14  1  0
 14 15  2  0
 15 16  1  0
 16 17  2  0
 17 18  1  0
 18 19  2  0
 19 20  1  0
 20 21  1  0
 21 22  1  0
 13  5  1  0
 19 14  1  0
 11  9  1  0
 22 18  1  0
  4 23  1  0
  6 24  1  0
  9 25  1  0
 10 26  1  0
 10 27  1  0
 11 28  1  0
 11 29  1  0
 13 30  1  0
 15 31  1  0
 16 32  1  0
 17 33  1  0
 20 34  1  0
 20 35  1  0
 22 36  1  0
 22 37  1  0
M  END
$$$$
OCNT-2311525
     RDKit          3D

 51 53  0  0  0  0  0  0  0  0999 V2000
   -5.0610    1.9073    1.3229 C   0  0  0  0  0  0  0  0  0  0  0  0
   -3.8894    0.9902    0.9614 C   0  0  0  0  0  0  0  0  0  0  0  0
   -3.7693   -0.1279    1.9982 C   0  0  0  0  0  0  0  0  0  0  0  0
   -2.5983    1.8205    0.8387 C   0  0  0  0  0  0  0  0  0  0  0  0
   -1.3336    1.0379    0.4416 C   0  0  0  0  0  0  0  0  0  0  0  0
   -1.4174    0.1911   -0.8615 C   0  0  0  0  0  0  0  0  0  0  0  0
   -1.8541    1.1024   -2.0290 C   0  0  0  0  0  0  0  0  0  0  0  0
   -0.1220   -0.4844   -1.1478 N   0  0  0  0  0  0  0  0  0  0  0  0
   -0.0545   -1.0810   -2.4949 C   0  0  0  0  0  0  0  0  0  0  0  0
    1.0745   -2.1005   -2.7040 C   0  0  0  0  0  0  0  0  0  0  0  0
    2.2322   -1.8507   -1.7525 C   0  0  0  0  0  0  0  0  0  0  0  0
    1.7352   -1.9999   -0.3094 C   0  0  0  0  0  0  0  0  0  0  0  0
    2.7017   -1.5089    0.6530 N   0  0  0  0  0  0  0  0  0  0  0  0
    3.5237   -2.3108    1.4620 C   0  0  0  0  0  0  0  0  0  0  0  0
    3.5508   -3.5282    1.5322 O   0  0  0  0  0  0  0  0  0  0  0  0
    4.3382   -1.4432    2.2047 N   0  0  0  0  0  0  0  0  0  0  0  0
    4.0329   -0.1404    1.8383 C   0  0  0  0  0  0  0  0  0  0  0  0
    4.5671    1.0457    2.2786 C   0  0  0  0  0  0  0  0  0  0  0  0
    4.0403    2.2039    1.7067 C   0  0  0  0  0  0  0  0  0  0  0  0
    3.0291    2.0937    0.7416 C   0  0  0  0  0  0  0  0  0  0  0  0
    2.5067    0.9222    0.3036 N   0  0  0  0  0  0  0  0  0  0  0  0
    3.0271   -0.1653    0.8754 C   0  0  0  0  0  0  0  0  0  0  0  0
    0.2903   -1.4552   -0.1159 C   0  0  0  0  0  0  0  0  0  0  0  0
   -4.9045    2.3881    2.2954 H   0  0  0  0  0  0  0  0  0  0  0  0
   -5.1860    2.6929    0.5700 H   0  0  0  0  0  0  0  0  0  0  0  0
   -5.9986    1.3420    1.3724 H   0  0  0  0  0  0  0  0  0  0  0  0
   -4.1200    0.5341   -0.0081 H   0  0  0  0  0  0  0  0  0  0  0  0
   -3.5162    0.2708    2.9869 H   0  0  0  0  0  0  0  0  0  0  0  0
   -4.7148   -0.6763    2.0866 H   0  0  0  0  0  0  0  0  0  0  0  0
   -3.0008   -0.8539    1.7154 H   0  0  0  0  0  0  0  0  0  0  0  0
   -2.3965    2.3103    1.8007 H   0  0  0  0  0  0  0  0  0  0  0  0
   -2.7561    2.6387    0.1258 H   0  0  0  0  0  0  0  0  0  0  0  0
   -0.5087    1.7592    0.3461 H   0  0  0  0  0  0  0  0  0  0  0  0
   -1.0801    0.4064    1.2986 H   0  0  0  0  0  0  0  0  0  0  0  0
   -2.1871   -0.5818   -0.7365 H   0  0  0  0  0  0  0  0  0  0  0  0
   -2.8056    1.5996   -1.8223 H   0  0  0  0  0  0  0  0  0  0  0  0
   -2.0179    0.5405   -2.9546 H   0  0  0  0  0  0  0  0  0  0  0  0
   -1.1042    1.8773   -2.2261 H   0  0  0  0  0  0  0  0  0  0  0  0
    0.0956   -0.2747   -3.2228 H   0  0  0  0  0  0  0  0  0  0  0  0
   -0.9978   -1.5819   -2.7460 H   0  0  0  0  0  0  0  0  0  0  0  0
    1.4233   -2.0591   -3.7426 H   0  0  0  0  0  0  0  0  0  0  0  0
    0.6848   -3.1145   -2.5400 H   0  0  0  0  0  0  0  0  0  0  0  0
    3.0471   -2.5581   -1.9454 H   0  0  0  0  0  0  0  0  0  0  0  0
    2.6444   -0.8504   -1.9320 H   0  0  0  0  0  0  0  0  0  0  0  0
    1.6605   -3.0809   -0.1248 H   0  0  0  0  0  0  0  0  0  0  0  0
    5.0225   -1.7532    2.8742 H   0  0  0  0  0  0  0  0  0  0  0  0
    5.3497    1.0864    3.0254 H   0  0  0  0  0  0  0  0  0  0  0  0
    4.4030    3.1833    2.0026 H   0  0  0  0  0  0  0  0  0  0  0  0
    2.5972    2.9832    0.2869 H   0  0  0  0  0  0  0  0  0  0  0  0
    0.2261   -1.0443    0.8946 H   0  0  0  0  0  0  0  0  0  0  0  0
   -0.4096   -2.3024   -0.1391 H   0  0  0  0  0  0  0  0  0  0  0  0
  1  2  1  0
  2  3  1  0
  2  4  1  0
  4  5  1  0
  5  6  1  0
  6  7  1  0
  6  8  1  0
  8  9  1  0
  9 10  1  0
 10 11  1  0
 11 12  1  0
 12 13  1  0
 13 14  1  0
 14 15  2  0
 14 16  1  0
 16 17  1  0
 17 18  1  0
 18 19  2  0
 19 20  1  0
 20 21  2  0
 21 22  1  0
 12 23  1  0
 23  8  1  0
 22 13  1  0
 22 17  2  0
  1 24  1  0
  1 25  1  0
  1 26  1  0
  2 27  1  0
  3 28  1  0
  3 29  1  0
  3 30  1  0
  4 31  1  0
  4 32  1  0
  5 33  1  0
  5 34  1  0
  6 35  1  0
  7 36  1  0
  7 37  1  0
  7 38  1  0
  9 39  1  0
  9 40  1  0
 10 41  1  0
 10 42  1  0
 11 43  1  0
 11 44  1  0
 12 45  1  0
 16 46  1  0
 18 47  1  0
 19 48  1  0
 20 49  1  0
 23 50  1  0
 23 51  1  0
M  END
$$$$
OCNT-2311532
     RDKit          3D

 39 41  0  0  0  0  0  0  0  0999 V2000
   -5.8818    0.4737   -0.8215 C   0  0  0  0  0  0  0  0  0  0  0  0
   -4.6309   -0.3942   -0.7127 C   0  0  2  0  0  0  0  0  0  0  0  0
   -4.8800   -1.4097    0.2616 O   0  0  0  0  0  0  0  0  0  0  0  0
   -3.3447    0.3166   -0.3387 C   0  0  0  0  0  0  0  0  0  0  0  0
   -3.2280    1.7103   -0.2619 C   0  0  0  0  0  0  0  0  0  0  0  0
   -2.0087    2.3074    0.0628 C   0  0  0  0  0  0  0  0  0  0  0  0
   -0.8839    1.5210    0.3128 C   0  0  0  0  0  0  0  0  0  0  0  0
   -0.9551    0.1229    0.2434 C   0  0  0  0  0  0  0  0  0  0  0  0
    0.2270   -0.7119    0.5136 C   0  0  0  0  0  0  0  0  0  0  0  0
    0.1773   -1.7518    1.4524 C   0  0  0  0  0  0  0  0  0  0  0  0
    1.3043   -2.5262    1.7034 C   0  0  0  0  0  0  0  0  0  0  0  0
    1.2374   -3.5148    2.6049 F   0  0  0  0  0  0  0  0  0  0  0  0
    2.5023   -2.2947    1.0372 C   0  0  0  0  0  0  0  0  0  0  0  0
    2.5874   -1.2651    0.0936 C   0  0  0  0  0  0  0  0  0  0  0  0
    3.8768   -1.0059   -0.6436 C   0  0  0  0  0  0  0  0  0  0  0  0
    4.4329    0.2971   -0.3226 N   0  0  0  0  0  0  0  0  0  0  0  0
    4.5085    1.3767   -1.1594 C   0  0  0  0  0  0  0  0  0  0  0  0
    5.1476    2.3486   -0.4254 C   0  0  0  0  0  0  0  0  0  0  0  0
    5.4674    1.8836    0.8238 N   0  0  0  0  0  0  0  0  0  0  0  0
    5.0263    0.6462    0.8574 C   0  0  0  0  0  0  0  0  0  0  0  0
    1.4427   -0.4863   -0.1605 C   0  0  0  0  0  0  0  0  0  0  0  0
   -2.1929   -0.4571   -0.0871 C   0  0  0  0  0  0  0  0  0  0  0  0
   -6.7548   -0.1429   -1.0632 H   0  0  0  0  0  0  0  0  0  0  0  0
   -6.1047    0.9687    0.1306 H   0  0  0  0  0  0  0  0  0  0  0  0
   -5.7803    1.2358   -1.6005 H   0  0  0  0  0  0  0  0  0  0  0  0
   -4.4680   -0.8922   -1.6765 H   0  0  0  0  0  0  0  0  0  0  0  0
   -5.6759   -1.8907   -0.0185 H   0  0  0  0  0  0  0  0  0  0  0  0
   -4.0797    2.3592   -0.4460 H   0  0  0  0  0  0  0  0  0  0  0  0
   -1.9357    3.3902    0.1284 H   0  0  0  0  0  0  0  0  0  0  0  0
    0.0502    2.0109    0.5810 H   0  0  0  0  0  0  0  0  0  0  0  0
   -0.7345   -1.9599    2.0064 H   0  0  0  0  0  0  0  0  0  0  0  0
    3.3557   -2.9259    1.2684 H   0  0  0  0  0  0  0  0  0  0  0  0
    3.7076   -1.0562   -1.7254 H   0  0  0  0  0  0  0  0  0  0  0  0
    4.6422   -1.7504   -0.3950 H   0  0  0  0  0  0  0  0  0  0  0  0
    4.1184    1.3695   -2.1673 H   0  0  0  0  0  0  0  0  0  0  0  0
    5.3980    3.3564   -0.7305 H   0  0  0  0  0  0  0  0  0  0  0  0
    5.1081   -0.0286    1.6999 H   0  0  0  0  0  0  0  0  0  0  0  0
    1.4946    0.3124   -0.9009 H   0  0  0  0  0  0  0  0  0  0  0  0
   -2.2733   -1.5425   -0.1500 H   0  0  0  0  0  0  0  0  0  0  0  0
  1  2  1  0
  2  3  1  0
  2  4  1  0
  4  5  2  0
  5  6  1  0
  6  7  2  0
  7  8  1  0
  8  9  1  0
  9 10  1  0
 10 11  2  0
 11 12  1  0
 11 13  1  0
 13 14  2  0
 14 15  1  0
 15 16  1  0
 16 17  1  0
 17 18  2  0
 18 19  1  0
 19 20  2  0
 14 21  1  0
  8 22  2  0
 22  4  1  0
 21  9  2  0
 20 16  1  0
  1 23  1  0
  1 24  1  0
  1 25  1  0
  2 26  1  6
  3 27  1  0
  5 28  1  0
  6 29  1  0
  7 30  1  0
 10 31  1  0
 13 32  1  0
 15 33  1  0
 15 34  1  0
 17 35  1  0
 18 36  1  0
 20 37  1  0
 21 38  1  0
 22 39  1  0
M  END
$$$$
OCNT-2311552
     RDKit          3D

 44 47  0  0  0  0  0  0  0  0999 V2000
    0.8443   -3.0829    1.0664 C   0  0  0  0  0  0  0  0  0  0  0  0
    2.1136   -2.4058    0.7359 C   0  0  0  0  0  0  0  0  0  0  0  0
    2.5395   -1.0938    0.7227 C   0  0  0  0  0  0  0  0  0  0  0  0
    1.7784    0.0776    1.0877 C   0  0  0  0  0  0  0  0  0  0  0  0
    2.2330    0.9785    1.7859 O   0  0  0  0  0  0  0  0  0  0  0  0
    0.4918    0.0902    0.6167 N   0  0  0  0  0  0  0  0  0  0  0  0
   -0.3715    1.2236    0.8245 C   0  0  0  0  0  0  0  0  0  0  0  0
   -1.7372    0.8652    0.3469 C   0  0  0  0  0  0  0  0  0  0  0  0
   -2.1143   -0.2759   -0.2106 N   0  0  0  0  0  0  0  0  0  0  0  0
   -3.4479   -0.1289   -0.4634 C   0  0  0  0  0  0  0  0  0  0  0  0
   -3.8895    1.1080   -0.0607 C   0  0  0  0  0  0  0  0  0  0  0  0
   -5.2677    1.6335   -0.1858 C   0  0  0  0  0  0  0  0  0  0  0  0
   -6.2329    0.4621   -0.4694 C   0  0  0  0  0  0  0  0  0  0  0  0
   -5.6693   -0.5408   -1.5021 C   0  0  0  0  0  0  0  0  0  0  0  0
   -4.3302   -1.1660   -1.0543 C   0  0  0  0  0  0  0  0  0  0  0  0
   -2.7956    1.7404    0.4500 N   0  0  0  0  0  0  0  0  0  0  0  0
    3.9083   -1.1751    0.3277 C   0  0  0  0  0  0  0  0  0  0  0  0
    4.8464   -0.0796    0.0901 C   0  0  0  0  0  0  0  0  0  0  0  0
    6.1957   -0.2154    0.4050 C   0  0  0  0  0  0  0  0  0  0  0  0
    7.0502    0.8561    0.1613 C   0  0  0  0  0  0  0  0  0  0  0  0
    6.5370    2.0236   -0.3906 C   0  0  0  0  0  0  0  0  0  0  0  0
    5.1853    2.0700   -0.6857 C   0  0  0  0  0  0  0  0  0  0  0  0
    4.3309    1.0466   -0.4667 N   0  0  0  0  0  0  0  0  0  0  0  0
    4.2723   -2.4588    0.1517 N   0  0  0  0  0  0  0  0  0  0  0  0
    3.1479   -3.2156    0.3945 O   0  0  0  0  0  0  0  0  0  0  0  0
    0.0941   -2.8930    0.2920 H   0  0  0  0  0  0  0  0  0  0  0  0
    0.9818   -4.1674    1.1413 H   0  0  0  0  0  0  0  0  0  0  0  0
    0.4529   -2.7286    2.0243 H   0  0  0  0  0  0  0  0  0  0  0  0
    0.1693   -0.6027   -0.0487 H   0  0  0  0  0  0  0  0  0  0  0  0
   -0.3818    1.4797    1.8908 H   0  0  0  0  0  0  0  0  0  0  0  0
    0.0286    2.0727    0.2614 H   0  0  0  0  0  0  0  0  0  0  0  0
   -5.3066    2.3496   -1.0140 H   0  0  0  0  0  0  0  0  0  0  0  0
   -5.5763    2.1585    0.7253 H   0  0  0  0  0  0  0  0  0  0  0  0
   -6.4335   -0.0766    0.4669 H   0  0  0  0  0  0  0  0  0  0  0  0
   -7.1925    0.8585   -0.8196 H   0  0  0  0  0  0  0  0  0  0  0  0
   -6.4008   -1.3372   -1.6811 H   0  0  0  0  0  0  0  0  0  0  0  0
   -5.5236   -0.0186   -2.4565 H   0  0  0  0  0  0  0  0  0  0  0  0
   -3.8423   -1.6514   -1.9045 H   0  0  0  0  0  0  0  0  0  0  0  0
   -4.5241   -1.9377   -0.2985 H   0  0  0  0  0  0  0  0  0  0  0  0
   -2.7598    2.6727    0.8388 H   0  0  0  0  0  0  0  0  0  0  0  0
    6.5775   -1.1342    0.8400 H   0  0  0  0  0  0  0  0  0  0  0  0
    8.1044    0.7792    0.4063 H   0  0  0  0  0  0  0  0  0  0  0  0
    7.1757    2.8790   -0.5873 H   0  0  0  0  0  0  0  0  0  0  0  0
    4.7382    2.9607   -1.1173 H   0  0  0  0  0  0  0  0  0  0  0  0
  1  2  1  0
  2  3  2  0
  3  4  1  0
  4  5  2  0
  4  6  1  0
  6  7  1  0
  7  8  1  0
  8  9  2  0
  9 10  1  0
 10 11  2  0
 11 12  1  0
 12 13  1  0
 13 14  1  0
 14 15  1  0
 11 16  1  0
  3 17  1  0
 17 18  1  0
 18 19  2  0
 19 20  1  0
 20 21  2  0
 21 22  1  0
 22 23  2  0
 17 24  2  0
 24 25  1  0
 25  2  1  0
 16  8  1  0
 23 18  1  0
 15 10  1  0
  1 26  1  0
  1 27  1  0
  1 28  1  0
  6 29  1  0
  7 30  1  0
  7 31  1  0
 12 32  1  0
 12 33  1  0
 13 34  1  0
 13 35  1  0
 14 36  1  0
 14 37  1  0
 15 38  1  0
 15 39  1  0
 16 40  1  0
 19 41  1  0
 20 42  1  0
 21 43  1  0
 22 44  1  0
M  END
$$$$
OCNT-2311554
     RDKit          3D

 42 44  0  0  0  0  0  0  0  0999 V2000
   -2.8826   -1.2739    3.3499 C   0  0  0  0  0  0  0  0  0  0  0  0
   -3.3478   -0.6328    2.0937 C   0  0  0  0  0  0  0  0  0  0  0  0
   -2.9780    0.5417    1.4715 C   0  0  0  0  0  0  0  0  0  0  0  0
   -1.7626    1.6721    2.0268 S   0  0  0  0  0  0  0  0  0  0  0  0
   -0.2422    0.8057    1.5173 C   0  0  0  0  0  0  0  0  0  0  0  0
   -0.0241    0.8768    0.0038 C   0  0  0  0  0  0  0  0  0  0  0  0
    1.1457    0.1265   -0.4383 N   0  0  0  0  0  0  0  0  0  0  0  0
    2.4168    0.6036   -0.1696 C   0  0  0  0  0  0  0  0  0  0  0  0
    2.6173    1.6129    0.4918 O   0  0  0  0  0  0  0  0  0  0  0  0
    3.3710   -0.2240   -0.7288 N   0  0  0  0  0  0  0  0  0  0  0  0
    4.7290    0.0394   -0.6707 C   0  0  0  0  0  0  0  0  0  0  0  0
    5.4348    1.1242   -0.1953 C   0  0  0  0  0  0  0  0  0  0  0  0
    6.7880    0.8127   -0.4125 C   0  0  0  0  0  0  0  0  0  0  0  0
    6.9488   -0.3794   -0.9886 N   0  0  0  0  0  0  0  0  0  0  0  0
    5.6882   -0.8325   -1.1358 N   0  0  0  0  0  0  0  0  0  0  0  0
    5.4783   -2.1286   -1.7354 C   0  0  0  0  0  0  0  0  0  0  0  0
   -3.7668    0.7001    0.2963 C   0  0  0  0  0  0  0  0  0  0  0  0
   -3.8608    1.6781   -0.7172 C   0  0  0  0  0  0  0  0  0  0  0  0
   -4.7691    1.4998   -1.7668 C   0  0  0  0  0  0  0  0  0  0  0  0
   -5.5792    0.3684   -1.8188 C   0  0  0  0  0  0  0  0  0  0  0  0
   -5.5093   -0.6139   -0.8265 C   0  0  0  0  0  0  0  0  0  0  0  0
   -4.5958   -0.4196    0.2167 C   0  0  0  0  0  0  0  0  0  0  0  0
   -4.3269   -1.2038    1.3157 N   0  0  0  0  0  0  0  0  0  0  0  0
   -3.5626   -2.0706    3.6691 H   0  0  0  0  0  0  0  0  0  0  0  0
   -1.8903   -1.7131    3.2074 H   0  0  0  0  0  0  0  0  0  0  0  0
   -2.8247   -0.5419    4.1617 H   0  0  0  0  0  0  0  0  0  0  0  0
   -0.2760   -0.2363    1.8531 H   0  0  0  0  0  0  0  0  0  0  0  0
    0.5913    1.2776    2.0465 H   0  0  0  0  0  0  0  0  0  0  0  0
    0.0916    1.9155   -0.3278 H   0  0  0  0  0  0  0  0  0  0  0  0
   -0.8718    0.4396   -0.5330 H   0  0  0  0  0  0  0  0  0  0  0  0
    1.0533   -0.3100   -1.3435 H   0  0  0  0  0  0  0  0  0  0  0  0
    3.0544   -1.1167   -1.0735 H   0  0  0  0  0  0  0  0  0  0  0  0
    5.0339    2.0227    0.2521 H   0  0  0  0  0  0  0  0  0  0  0  0
    7.6614    1.4063   -0.1752 H   0  0  0  0  0  0  0  0  0  0  0  0
    5.0064   -2.7779   -0.9938 H   0  0  0  0  0  0  0  0  0  0  0  0
    6.4382   -2.5519   -2.0427 H   0  0  0  0  0  0  0  0  0  0  0  0
    4.8329   -2.0057   -2.6087 H   0  0  0  0  0  0  0  0  0  0  0  0
   -3.2380    2.5675   -0.6815 H   0  0  0  0  0  0  0  0  0  0  0  0
   -4.8441    2.2556   -2.5448 H   0  0  0  0  0  0  0  0  0  0  0  0
   -6.2814    0.2490   -2.6407 H   0  0  0  0  0  0  0  0  0  0  0  0
   -6.1477   -1.4905   -0.8673 H   0  0  0  0  0  0  0  0  0  0  0  0
   -4.7996   -2.0729    1.5217 H   0  0  0  0  0  0  0  0  0  0  0  0
  1  2  1  0
  2  3  2  0
  3  4  1  0
  4  5  1  0
  5  6  1  0
  6  7  1  0
  7  8  1  0
  8  9  2  0
  8 10  1  0
 10 11  1  0
 11 12  2  0
 12 13  1  0
 13 14  2  0
 14 15  1  0
 15 16  1  0
  3 17  1  0
 17 18  2  0
 18 19  1  0
 19 20  2  0
 20 21  1  0
 21 22  2  0
 22 23  1  0
 23  2  1  0
 15 11  1  0
 22 17  1  0
  1 24  1  0
  1 25  1  0
  1 26  1  0
  5 27  1  0
  5 28  1  0
  6 29  1  0
  6 30  1  0
  7 31  1  0
 10 32  1  0
 12 33  1  0
 13 34  1  0
 16 35  1  0
 16 36  1  0
 16 37  1  0
 18 38  1  0
 19 39  1  0
 20 40  1  0
 21 41  1  0
 23 42  1  0
M  END
$$$$
OCNT-2311559
     RDKit          3D

 43 45  0  0  0  0  0  0  0  0999 V2000
   -6.9885   -1.6330   -0.2701 C   0  0  0  0  0  0  0  0  0  0  0  0
   -5.8609   -1.3471   -1.2251 C   0  0  0  0  0  0  0  0  0  0  0  0
   -5.6551   -2.0377   -2.2176 O   0  0  0  0  0  0  0  0  0  0  0  0
   -5.0905   -0.2622   -0.8765 N   0  0  0  0  0  0  0  0  0  0  0  0
   -3.8953    0.0714   -1.6289 C   0  0  0  0  0  0  0  0  0  0  0  0
   -3.2936    1.4205   -1.2291 C   0  0  0  0  0  0  0  0  0  0  0  0
   -2.5518    1.3758    0.0851 C   0  0  0  0  0  0  0  0  0  0  0  0
   -1.1537    1.2425    0.1115 C   0  0  0  0  0  0  0  0  0  0  0  0
   -0.4437    1.1968    1.3254 C   0  0  0  0  0  0  0  0  0  0  0  0
    1.0113    1.0574    1.2956 C   0  0  0  0  0  0  0  0  0  0  0  0
    1.8547    1.3635    2.3430 C   0  0  0  0  0  0  0  0  0  0  0  0
    3.4798    1.0792    1.8892 S   0  0  0  0  0  0  0  0  0  0  0  0
    2.9602    0.5325    0.3356 C   0  0  0  0  0  0  0  0  0  0  0  0
    3.7805    0.1522   -0.6720 N   0  0  0  0  0  0  0  0  0  0  0  0
    5.0352   -0.4846   -0.6428 C   0  0  0  0  0  0  0  0  0  0  0  0
    5.8503   -0.3813   -1.7851 C   0  0  0  0  0  0  0  0  0  0  0  0
    7.1243   -0.9541   -1.8207 C   0  0  0  0  0  0  0  0  0  0  0  0
    7.5964   -1.6338   -0.7080 C   0  0  0  0  0  0  0  0  0  0  0  0
    8.8163   -2.1853   -0.7370 F   0  0  0  0  0  0  0  0  0  0  0  0
    6.8177   -1.7502    0.4345 C   0  0  0  0  0  0  0  0  0  0  0  0
    5.5433   -1.1737    0.4665 C   0  0  0  0  0  0  0  0  0  0  0  0
    1.6597    0.6148    0.1513 N   0  0  0  0  0  0  0  0  0  0  0  0
   -1.1636    1.2739    2.5271 C   0  0  0  0  0  0  0  0  0  0  0  0
   -2.5550    1.3996    2.5132 C   0  0  0  0  0  0  0  0  0  0  0  0
   -3.2328    1.4491    1.3005 C   0  0  0  0  0  0  0  0  0  0  0  0
   -4.5704    1.5461    1.3114 F   0  0  0  0  0  0  0  0  0  0  0  0
   -7.9007   -1.8262   -0.8414 H   0  0  0  0  0  0  0  0  0  0  0  0
   -6.7352   -2.5109    0.3299 H   0  0  0  0  0  0  0  0  0  0  0  0
   -7.1763   -0.7868    0.3967 H   0  0  0  0  0  0  0  0  0  0  0  0
   -5.1874    0.1143    0.0603 H   0  0  0  0  0  0  0  0  0  0  0  0
   -3.1749   -0.7445   -1.4976 H   0  0  0  0  0  0  0  0  0  0  0  0
   -4.1738    0.0977   -2.6890 H   0  0  0  0  0  0  0  0  0  0  0  0
   -2.5981    1.7424   -2.0147 H   0  0  0  0  0  0  0  0  0  0  0  0
   -4.0723    2.1923   -1.1813 H   0  0  0  0  0  0  0  0  0  0  0  0
   -0.6051    1.1752   -0.8281 H   0  0  0  0  0  0  0  0  0  0  0  0
    1.6223    1.7476    3.3248 H   0  0  0  0  0  0  0  0  0  0  0  0
    3.3087    0.0423   -1.5632 H   0  0  0  0  0  0  0  0  0  0  0  0
    5.4985    0.1644   -2.6581 H   0  0  0  0  0  0  0  0  0  0  0  0
    7.7477   -0.8680   -2.7046 H   0  0  0  0  0  0  0  0  0  0  0  0
    7.2009   -2.2916    1.2935 H   0  0  0  0  0  0  0  0  0  0  0  0
    4.9475   -1.3103    1.3638 H   0  0  0  0  0  0  0  0  0  0  0  0
   -0.6624    1.2213    3.4898 H   0  0  0  0  0  0  0  0  0  0  0  0
   -3.1141    1.4520    3.4425 H   0  0  0  0  0  0  0  0  0  0  0  0
  1  2  1  0
  2  3  2  0
  2  4  1  0
  4  5  1  0
  5  6  1  0
  6  7  1  0
  7  8  1  0
  8  9  2  0
  9 10  1  0
 10 11  2  0
 11 12  1  0
 12 13  1  0
 13 14  1  0
 14 15  1  0
 15 16  1  0
 16 17  2  0
 17 18  1  0
 18 19  1  0
 18 20  2  0
 20 21  1  0
 13 22  2  0
  9 23  1  0
 23 24  2  0
 24 25  1  0
 25 26  1  0
 25  7  2  0
 22 10  1  0
 21 15  2  0
  1 27  1  0
  1 28  1  0
  1 29  1  0
  4 30  1  0
  5 31  1  0
  5 32  1  0
  6 33  1  0
  6 34  1  0
  8 35  1  0
 11 36  1  0
 14 37  1  0
 16 38  1  0
 17 39  1  0
 20 40  1  0
 21 41  1  0
 23 42  1  0
 24 43  1  0
M  END
$$$$
OCNT-2311573
     RDKit          3D

 39 41  0  0  0  0  0  0  0  0999 V2000
   -1.2782    1.5678   -1.4241 C   0  0  0  0  0  0  0  0  0  0  0  0
   -0.4765    0.2626   -1.5263 C   0  0  0  0  0  0  0  0  0  0  0  0
   -1.1637   -0.9720   -0.8675 C   0  0  0  0  0  0  0  0  0  0  0  0
   -1.6314   -0.9105    0.5687 C   0  0  0  0  0  0  0  0  0  0  0  0
   -2.7980   -0.2179    0.9232 C   0  0  0  0  0  0  0  0  0  0  0  0
   -3.2285   -0.1796    2.2515 C   0  0  0  0  0  0  0  0  0  0  0  0
   -2.5056   -0.8436    3.2412 C   0  0  0  0  0  0  0  0  0  0  0  0
   -1.3593   -1.5535    2.8949 C   0  0  0  0  0  0  0  0  0  0  0  0
   -0.3724   -2.4531    4.2323 Br  0  0  0  0  0  0  0  0  0  0  0  0
   -0.9270   -1.5990    1.5693 C   0  0  0  0  0  0  0  0  0  0  0  0
   -0.3415   -0.0893   -3.0503 C   0  0  0  0  0  0  0  0  0  0  0  0
    0.9780    0.5262   -3.4746 C   0  0  0  0  0  0  0  0  0  0  0  0
    1.8506    0.2600   -2.2609 C   0  0  0  0  0  0  0  0  0  0  0  0
    0.9413    0.4774   -1.1321 N   0  0  0  0  0  0  0  0  0  0  0  0
    1.5037    0.4933    0.1213 C   0  0  0  0  0  0  0  0  0  0  0  0
    0.8819    1.0639    1.2141 C   0  0  0  0  0  0  0  0  0  0  0  0
    1.5436    1.0402    2.4245 C   0  0  0  0  0  0  0  0  0  0  0  0
    2.7602    0.5069    2.5925 N   0  0  0  0  0  0  0  0  0  0  0  0
    3.3039   -0.0073    1.4789 C   0  0  0  0  0  0  0  0  0  0  0  0
    4.6162   -0.5864    1.5951 C   0  0  0  0  0  0  0  0  0  0  0  0
    5.6783   -1.0554    1.6837 N   0  0  0  0  0  0  0  0  0  0  0  0
    2.7371   -0.0304    0.2573 N   0  0  0  0  0  0  0  0  0  0  0  0
   -0.7767    2.3861   -1.9537 H   0  0  0  0  0  0  0  0  0  0  0  0
   -1.4202    1.9045   -0.3964 H   0  0  0  0  0  0  0  0  0  0  0  0
   -2.2741    1.4495   -1.8662 H   0  0  0  0  0  0  0  0  0  0  0  0
   -2.0505   -1.2348   -1.4634 H   0  0  0  0  0  0  0  0  0  0  0  0
   -0.4943   -1.8387   -0.9687 H   0  0  0  0  0  0  0  0  0  0  0  0
   -3.3897    0.2920    0.1659 H   0  0  0  0  0  0  0  0  0  0  0  0
   -4.1337    0.3630    2.5135 H   0  0  0  0  0  0  0  0  0  0  0  0
   -2.8474   -0.8093    4.2722 H   0  0  0  0  0  0  0  0  0  0  0  0
   -0.0292   -2.1590    1.3136 H   0  0  0  0  0  0  0  0  0  0  0  0
   -0.2819   -1.1754   -3.2011 H   0  0  0  0  0  0  0  0  0  0  0  0
   -1.1803    0.2749   -3.6528 H   0  0  0  0  0  0  0  0  0  0  0  0
    1.3812    0.0783   -4.3870 H   0  0  0  0  0  0  0  0  0  0  0  0
    0.8632    1.6037   -3.6398 H   0  0  0  0  0  0  0  0  0  0  0  0
    2.7060    0.9450   -2.2494 H   0  0  0  0  0  0  0  0  0  0  0  0
    2.2139   -0.7752   -2.2711 H   0  0  0  0  0  0  0  0  0  0  0  0
   -0.0892    1.5285    1.1567 H   0  0  0  0  0  0  0  0  0  0  0  0
    1.0903    1.4665    3.3152 H   0  0  0  0  0  0  0  0  0  0  0  0
  1  2  1  0
  2  3  1  0
  3  4  1  0
  4  5  2  0
  5  6  1  0
  6  7  2  0
  7  8  1  0
  8  9  1  0
  8 10  2  0
  2 11  1  0
 11 12  1  0
 12 13  1  0
 13 14  1  0
 14 15  1  0
 15 16  1  0
 16 17  2  0
 17 18  1  0
 18 19  2  0
 19 20  1  0
 20 21  3  0
 19 22  1  0
 14  2  1  0
 22 15  2  0
 10  4  1  0
  1 23  1  0
  1 24  1  0
  1 25  1  0
  3 26  1  0
  3 27  1  0
  5 28  1  0
  6 29  1  0
  7 30  1  0
 10 31  1  0
 11 32  1  0
 11 33  1  0
 12 34  1  0
 12 35  1  0
 13 36  1  0
 13 37  1  0
 16 38  1  0
 17 39  1  0
M  END
$$$$
OCNT-2311582
     RDKit          3D

 36 38  0  0  0  0  0  0  0  0999 V2000
   -2.1269   -1.6100   -1.9645 O   0  0  0  0  0  0  0  0  0  0  0  0
   -2.0577   -0.6846   -1.1606 C   0  0  0  0  0  0  0  0  0  0  0  0
   -3.3045   -0.2887   -0.4863 C   0  0  0  0  0  0  0  0  0  0  0  0
   -3.7526    1.0256   -0.5174 C   0  0  0  0  0  0  0  0  0  0  0  0
   -4.8983    1.4407    0.0731 N   0  0  0  0  0  0  0  0  0  0  0  0
   -5.6419    0.4858    0.6857 C   0  0  0  0  0  0  0  0  0  0  0  0
   -6.7785    0.8931    1.2719 F   0  0  0  0  0  0  0  0  0  0  0  0
   -5.2879   -0.8594    0.7354 C   0  0  0  0  0  0  0  0  0  0  0  0
   -6.2775   -2.0222    1.5241 Cl  0  0  0  0  0  0  0  0  0  0  0  0
   -4.0979   -1.2555    0.1325 C   0  0  0  0  0  0  0  0  0  0  0  0
   -0.8819   -0.0080   -0.8689 N   0  0  0  0  0  0  0  0  0  0  0  0
    0.3220   -0.3551   -1.6403 C   0  0  0  0  0  0  0  0  0  0  0  0
    1.4034    0.7288   -1.5301 C   0  0  0  0  0  0  0  0  0  0  0  0
    1.8115    0.9664   -0.1246 N   0  0  0  0  0  0  0  0  0  0  0  0
    3.0013    0.3051    0.2431 C   0  0  0  0  0  0  0  0  0  0  0  0
    3.6748    0.7102    1.4023 C   0  0  0  0  0  0  0  0  0  0  0  0
    4.8494    0.0654    1.7895 C   0  0  0  0  0  0  0  0  0  0  0  0
    5.3250   -0.9694    1.0073 C   0  0  0  0  0  0  0  0  0  0  0  0
    6.4486   -1.6140    1.3431 F   0  0  0  0  0  0  0  0  0  0  0  0
    4.6191   -1.3192   -0.1258 C   0  0  0  0  0  0  0  0  0  0  0  0
    3.4755   -0.7059   -0.5194 N   0  0  0  0  0  0  0  0  0  0  0  0
    0.7469    0.7422    0.8836 C   0  0  0  0  0  0  0  0  0  0  0  0
   -0.6665    0.8840    0.2841 C   0  0  0  0  0  0  0  0  0  0  0  0
   -3.1971    1.8025   -1.0366 H   0  0  0  0  0  0  0  0  0  0  0  0
   -3.7888   -2.2977    0.1351 H   0  0  0  0  0  0  0  0  0  0  0  0
    0.0418   -0.5020   -2.6894 H   0  0  0  0  0  0  0  0  0  0  0  0
    0.6890   -1.3138   -1.2552 H   0  0  0  0  0  0  0  0  0  0  0  0
    0.9883    1.6738   -1.9050 H   0  0  0  0  0  0  0  0  0  0  0  0
    2.2496    0.5060   -2.1912 H   0  0  0  0  0  0  0  0  0  0  0  0
    3.2987    1.5406    1.9909 H   0  0  0  0  0  0  0  0  0  0  0  0
    5.3874    0.3694    2.6802 H   0  0  0  0  0  0  0  0  0  0  0  0
    4.9640   -2.1244   -0.7655 H   0  0  0  0  0  0  0  0  0  0  0  0
    0.8276   -0.2667    1.3127 H   0  0  0  0  0  0  0  0  0  0  0  0
    0.8590    1.4655    1.6997 H   0  0  0  0  0  0  0  0  0  0  0  0
   -1.4094    0.6827    1.0617 H   0  0  0  0  0  0  0  0  0  0  0  0
   -0.8157    1.9088   -0.0757 H   0  0  0  0  0  0  0  0  0  0  0  0
  1  2  2  0
  2  3  1  0
  3  4  1  0
  4  5  2  0
  5  6  1  0
  6  7  1  0
  6  8  2  0
  8  9  1  0
  8 10  1  0
  2 11  1  0
 11 12  1  0
 12 13  1  0
 13 14  1  0
 14 15  1  0
 15 16  2  0
 16 17  1  0
 17 18  2  0
 18 19  1  0
 18 20  1  0
 20 21  2  0
 14 22  1  0
 22 23  1  0
 10  3  2  0
 23 11  1  0
 21 15  1  0
  4 24  1  0
 10 25  1  0
 12 26  1  0
 12 27  1  0
 13 28  1  0
 13 29  1  0
 16 30  1  0
 17 31  1  0
 20 32  1  0
 22 33  1  0
 22 34  1  0
 23 35  1  0
 23 36  1  0
M  END
$$$$
OCNT-2311590
     RDKit          3D

 56 57  0  0  0  0  0  0  0  0999 V2000
    0.5648    2.2421    0.0223 C   0  0  0  0  0  0  0  0  0  0  0  0
   -0.5630    1.3040    0.4428 C   0  0  0  0  0  0  0  0  0  0  0  0
   -0.1254   -0.0643    0.7988 N   0  0  0  0  0  0  0  0  0  0  0  0
    0.7574   -0.0349    2.0075 C   0  0  0  0  0  0  0  0  0  0  0  0
    2.2437   -0.0171    1.6089 C   0  0  0  0  0  0  0  0  0  0  0  0
    3.1065    0.3399    2.4061 O   0  0  0  0  0  0  0  0  0  0  0  0
    2.4443   -0.4897    0.3255 N   0  0  0  0  0  0  0  0  0  0  0  0
    3.6484   -0.6573   -0.3769 C   0  0  0  0  0  0  0  0  0  0  0  0
    3.5526   -1.0871   -1.7057 C   0  0  0  0  0  0  0  0  0  0  0  0
    4.7021   -1.2802   -2.4709 C   0  0  0  0  0  0  0  0  0  0  0  0
    5.9546   -1.0447   -1.9087 C   0  0  0  0  0  0  0  0  0  0  0  0
    6.0673   -0.6159   -0.5845 C   0  0  0  0  0  0  0  0  0  0  0  0
    7.3538   -0.4231   -0.1574 O   0  0  0  0  0  0  0  0  0  0  0  0
    7.5227    0.0439    1.1761 C   0  0  0  0  0  0  0  0  0  0  0  0
    4.9108   -0.4248    0.1787 C   0  0  0  0  0  0  0  0  0  0  0  0
   -1.2947   -0.9379    1.0537 C   0  0  0  0  0  0  0  0  0  0  0  0
   -2.0664   -1.4982   -0.1729 C   0  0  0  0  0  0  0  0  0  0  0  0
   -1.3121   -1.4139   -1.5051 C   0  0  0  0  0  0  0  0  0  0  0  0
   -3.5365   -1.0269   -0.2967 C   0  0  0  0  0  0  0  0  0  0  0  0
   -3.7047    0.3938   -0.6503 N   0  0  0  0  0  0  0  0  0  0  0  0
   -4.1243    1.2079    0.5191 C   0  0  0  0  0  0  0  0  0  0  0  0
   -5.6139    1.6080    0.5499 C   0  0  0  0  0  0  0  0  0  0  0  0
   -6.4428    0.5422    0.0882 O   0  0  0  0  0  0  0  0  0  0  0  0
   -6.1516    0.2010   -1.2751 C   0  0  0  0  0  0  0  0  0  0  0  0
   -4.7147    0.5534   -1.7161 C   0  0  0  0  0  0  0  0  0  0  0  0
    1.1369    1.8245   -0.8122 H   0  0  0  0  0  0  0  0  0  0  0  0
    1.2485    2.4602    0.8475 H   0  0  0  0  0  0  0  0  0  0  0  0
    0.1448    3.1972   -0.3116 H   0  0  0  0  0  0  0  0  0  0  0  0
   -1.2442    1.2609   -0.4088 H   0  0  0  0  0  0  0  0  0  0  0  0
   -1.1176    1.7599    1.2726 H   0  0  0  0  0  0  0  0  0  0  0  0
    0.5383    0.8223    2.6543 H   0  0  0  0  0  0  0  0  0  0  0  0
    0.6433   -0.9425    2.6131 H   0  0  0  0  0  0  0  0  0  0  0  0
    1.5703   -0.6608   -0.1703 H   0  0  0  0  0  0  0  0  0  0  0  0
    2.5830   -1.2745   -2.1599 H   0  0  0  0  0  0  0  0  0  0  0  0
    4.6231   -1.6131   -3.5021 H   0  0  0  0  0  0  0  0  0  0  0  0
    6.8519   -1.1949   -2.5039 H   0  0  0  0  0  0  0  0  0  0  0  0
    7.1403   -0.6828    1.9006 H   0  0  0  0  0  0  0  0  0  0  0  0
    7.0567    1.0254    1.3134 H   0  0  0  0  0  0  0  0  0  0  0  0
    8.5960    0.1577    1.3558 H   0  0  0  0  0  0  0  0  0  0  0  0
    4.9900   -0.0980    1.2072 H   0  0  0  0  0  0  0  0  0  0  0  0
   -0.9175   -1.8398    1.5574 H   0  0  0  0  0  0  0  0  0  0  0  0
   -1.9752   -0.4807    1.7813 H   0  0  0  0  0  0  0  0  0  0  0  0
   -2.1523   -2.5791    0.0224 H   0  0  0  0  0  0  0  0  0  0  0  0
   -1.2161   -0.3887   -1.8711 H   0  0  0  0  0  0  0  0  0  0  0  0
   -0.3087   -1.8432   -1.4131 H   0  0  0  0  0  0  0  0  0  0  0  0
   -1.8398   -1.9853   -2.2770 H   0  0  0  0  0  0  0  0  0  0  0  0
   -3.9863   -1.6616   -1.0737 H   0  0  0  0  0  0  0  0  0  0  0  0
   -4.0859   -1.2875    0.6180 H   0  0  0  0  0  0  0  0  0  0  0  0
   -3.5329    2.1312    0.5232 H   0  0  0  0  0  0  0  0  0  0  0  0
   -3.8768    0.7034    1.4601 H   0  0  0  0  0  0  0  0  0  0  0  0
   -5.7994    2.4982   -0.0637 H   0  0  0  0  0  0  0  0  0  0  0  0
   -5.9114    1.8510    1.5751 H   0  0  0  0  0  0  0  0  0  0  0  0
   -6.3295   -0.8746   -1.3770 H   0  0  0  0  0  0  0  0  0  0  0  0
   -6.8744    0.7155   -1.9175 H   0  0  0  0  0  0  0  0  0  0  0  0
   -4.4417   -0.0227   -2.6090 H   0  0  0  0  0  0  0  0  0  0  0  0
   -4.6920    1.6022   -2.0418 H   0  0  0  0  0  0  0  0  0  0  0  0
  1  2  1  0
  2  3  1  0
  3  4  1  0
  4  5  1  0
  5  6  2  0
  5  7  1  0
  7  8  1  0
  8  9  2  0
  9 10  1  0
 10 11  2  0
 11 12  1  0
 12 13  1  0
 13 14  1  0
 12 15  2  0
  3 16  1  0
 16 17  1  0
 17 18  1  0
 17 19  1  0
 19 20  1  0
 20 21  1  0
 21 22  1  0
 22 23  1  0
 23 24  1  0
 24 25  1  0
 15  8  1  0
 25 20  1  0
  1 26  1  0
  1 27  1  0
  1 28  1  0
  2 29  1  0
  2 30  1  0
  4 31  1  0
  4 32  1  0
  7 33  1  0
  9 34  1  0
 10 35  1  0
 11 36  1  0
 14 37  1  0
 14 38  1  0
 14 39  1  0
 15 40  1  0
 16 41  1  0
 16 42  1  0
 17 43  1  0
 18 44  1  0
 18 45  1  0
 18 46  1  0
 19 47  1  0
 19 48  1  0
 21 49  1  0
 21 50  1  0
 22 51  1  0
 22 52  1  0
 24 53  1  0
 24 54  1  0
 25 55  1  0
 25 56  1  0
M  END
$$$$
OCNT-2311596
     RDKit          3D

 57 62  0  0  0  0  0  0  0  0999 V2000
   -2.7621    2.6254   -2.1374 O   0  0  0  0  0  0  0  0  0  0  0  0
   -2.8234    1.4942   -1.6479 C   0  0  0  0  0  0  0  0  0  0  0  0
   -2.1856    0.4144   -2.4138 C   0  0  0  0  0  0  0  0  0  0  0  0
   -2.7449    0.1002   -3.6594 C   0  0  0  0  0  0  0  0  0  0  0  0
   -2.2039   -0.9372   -4.4023 C   0  0  0  0  0  0  0  0  0  0  0  0
   -1.1242   -1.6137   -3.8678 C   0  0  0  0  0  0  0  0  0  0  0  0
   -0.5549   -1.3139   -2.6773 N   0  0  0  0  0  0  0  0  0  0  0  0
   -1.0565   -0.2808   -1.9507 C   0  0  0  0  0  0  0  0  0  0  0  0
   -0.4213    0.0287   -0.7436 N   0  0  0  0  0  0  0  0  0  0  0  0
    0.3778   -1.0503   -0.1642 C   0  0  0  0  0  0  0  0  0  0  0  0
    0.8725   -0.6260    1.2143 C   0  0  0  0  0  0  0  0  0  0  0  0
    1.7312    0.6476    1.1400 C   0  0  0  0  0  0  0  0  0  0  0  0
    3.1833    0.3568    1.3888 C   0  0  0  0  0  0  0  0  0  0  0  0
    3.8895    0.7808    2.4171 N   0  0  0  0  0  0  0  0  0  0  0  0
    5.1527    0.2732    2.2380 C   0  0  0  0  0  0  0  0  0  0  0  0
    6.2984    0.4150    3.0334 C   0  0  0  0  0  0  0  0  0  0  0  0
    7.4819   -0.2126    2.6237 C   0  0  0  0  0  0  0  0  0  0  0  0
    7.5227   -0.9639    1.4466 C   0  0  0  0  0  0  0  0  0  0  0  0
    6.3886   -1.1156    0.6397 C   0  0  0  0  0  0  0  0  0  0  0  0
    5.2232   -0.4810    1.0732 C   0  0  0  0  0  0  0  0  0  0  0  0
    3.9574   -0.4138    0.5519 N   0  0  0  0  0  0  0  0  0  0  0  0
    1.5387    1.4230   -0.1708 C   0  0  0  0  0  0  0  0  0  0  0  0
    0.0809    1.4039   -0.6177 C   0  0  0  0  0  0  0  0  0  0  0  0
   -3.4303    1.2433   -0.4290 N   0  0  0  0  0  0  0  0  0  0  0  0
   -3.8676    2.3650    0.4107 C   0  0  0  0  0  0  0  0  0  0  0  0
   -4.1998    1.7901    1.7885 C   0  0  0  0  0  0  0  0  0  0  0  0
   -4.2946    0.3285    1.4850 C   0  0  0  0  0  0  0  0  0  0  0  0
   -4.7426   -0.6717    2.3359 C   0  0  0  0  0  0  0  0  0  0  0  0
   -4.7251   -1.9867    1.8757 C   0  0  0  0  0  0  0  0  0  0  0  0
   -4.2639   -2.2776    0.5859 C   0  0  0  0  0  0  0  0  0  0  0  0
   -3.8066   -1.2595   -0.2601 C   0  0  0  0  0  0  0  0  0  0  0  0
   -3.8118    0.0444    0.2025 C   0  0  0  0  0  0  0  0  0  0  0  0
   -3.5994    0.6587   -4.0329 H   0  0  0  0  0  0  0  0  0  0  0  0
   -2.6160   -1.2145   -5.3656 H   0  0  0  0  0  0  0  0  0  0  0  0
   -0.6661   -2.4421   -4.3998 H   0  0  0  0  0  0  0  0  0  0  0  0
   -0.2380   -1.9505   -0.0461 H   0  0  0  0  0  0  0  0  0  0  0  0
    1.2308   -1.3084   -0.8039 H   0  0  0  0  0  0  0  0  0  0  0  0
    1.4080   -1.4550    1.6921 H   0  0  0  0  0  0  0  0  0  0  0  0
   -0.0022   -0.4198    1.8467 H   0  0  0  0  0  0  0  0  0  0  0  0
    1.4005    1.2994    1.9617 H   0  0  0  0  0  0  0  0  0  0  0  0
    6.2578    1.0005    3.9445 H   0  0  0  0  0  0  0  0  0  0  0  0
    8.3776   -0.1117    3.2318 H   0  0  0  0  0  0  0  0  0  0  0  0
    8.4547   -1.4413    1.1504 H   0  0  0  0  0  0  0  0  0  0  0  0
    6.4213   -1.6986   -0.2734 H   0  0  0  0  0  0  0  0  0  0  0  0
    3.6496   -0.8485   -0.3057 H   0  0  0  0  0  0  0  0  0  0  0  0
    1.8751    2.4596   -0.0409 H   0  0  0  0  0  0  0  0  0  0  0  0
    2.1586    1.0019   -0.9739 H   0  0  0  0  0  0  0  0  0  0  0  0
   -0.5307    1.9352    0.1208 H   0  0  0  0  0  0  0  0  0  0  0  0
    0.0110    1.9584   -1.5617 H   0  0  0  0  0  0  0  0  0  0  0  0
   -4.7551    2.8064   -0.0596 H   0  0  0  0  0  0  0  0  0  0  0  0
   -3.0915    3.1359    0.4609 H   0  0  0  0  0  0  0  0  0  0  0  0
   -5.1319    2.2025    2.1853 H   0  0  0  0  0  0  0  0  0  0  0  0
   -3.3831    1.9704    2.4943 H   0  0  0  0  0  0  0  0  0  0  0  0
   -5.0949   -0.4416    3.3362 H   0  0  0  0  0  0  0  0  0  0  0  0
   -5.0720   -2.7914    2.5192 H   0  0  0  0  0  0  0  0  0  0  0  0
   -4.2626   -3.3069    0.2353 H   0  0  0  0  0  0  0  0  0  0  0  0
   -3.4813   -1.5290   -1.2546 H   0  0  0  0  0  0  0  0  0  0  0  0
  1  2  2  0
  2  3  1  0
  3  4  1  0
  4  5  2  0
  5  6  1  0
  6  7  2  0
  7  8  1  0
  8  9  1  0
  9 10  1  0
 10 11  1  0
 11 12  1  0
 12 13  1  0
 13 14  2  0
 14 15  1  0
 15 16  2  0
 16 17  1  0
 17 18  2  0
 18 19  1  0
 19 20  2  0
 20 21  1  0
 12 22  1  0
 22 23  1  0
  2 24  1  0
 24 25  1  0
 25 26  1  0
 26 27  1  0
 27 28  2  0
 28 29  1  0
 29 30  2  0
 30 31  1  0
 31 32  2  0
  8  3  2  0
 23  9  1  0
 32 24  1  0
 21 13  1  0
 32 27  1  0
 20 15  1  0
  4 33  1  0
  5 34  1  0
  6 35  1  0
 10 36  1  0
 10 37  1  0
 11 38  1  0
 11 39  1  0
 12 40  1  0
 16 41  1  0
 17 42  1  0
 18 43  1  0
 19 44  1  0
 21 45  1  0
 22 46  1  0
 22 47  1  0
 23 48  1  0
 23 49  1  0
 25 50  1  0
 25 51  1  0
 26 52  1  0
 26 53  1  0
 28 54  1  0
 29 55  1  0
 30 56  1  0
 31 57  1  0
M  END
$$$$
OCNT-2311600
     RDKit          3D

 41 43  0  0  0  0  0  0  0  0999 V2000
   -6.0863    1.7830    0.0210 C   0  0  0  0  0  0  0  0  0  0  0  0
   -4.7677    1.1117   -0.0436 C   0  0  0  0  0  0  0  0  0  0  0  0
   -4.0928    0.4991   -1.0825 C   0  0  0  0  0  0  0  0  0  0  0  0
   -4.5414    0.3399   -2.4897 C   0  0  0  0  0  0  0  0  0  0  0  0
   -2.8574    0.0396   -0.5103 C   0  0  0  0  0  0  0  0  0  0  0  0
   -1.7989   -0.7290   -1.2180 C   0  0  0  0  0  0  0  0  0  0  0  0
   -2.0676   -1.3342   -2.2595 O   0  0  0  0  0  0  0  0  0  0  0  0
   -0.4961   -0.7665   -0.6946 N   0  0  0  0  0  0  0  0  0  0  0  0
    0.4691   -1.6760   -1.3036 C   0  0  0  0  0  0  0  0  0  0  0  0
    1.4804   -2.1704   -0.2776 C   0  0  0  0  0  0  0  0  0  0  0  0
    2.2610   -1.0117    0.3630 C   0  0  0  0  0  0  0  0  0  0  0  0
    3.5155   -0.9135   -0.3335 O   0  0  0  0  0  0  0  0  0  0  0  0
    4.5453   -0.3411    0.3817 C   0  0  0  0  0  0  0  0  0  0  0  0
    5.7829   -0.2536   -0.2427 C   0  0  0  0  0  0  0  0  0  0  0  0
    6.8702    0.2952    0.3547 N   0  0  0  0  0  0  0  0  0  0  0  0
    6.6598    0.7538    1.6084 C   0  0  0  0  0  0  0  0  0  0  0  0
    5.4248    0.6687    2.2320 C   0  0  0  0  0  0  0  0  0  0  0  0
    4.3401    0.1213    1.6350 N   0  0  0  0  0  0  0  0  0  0  0  0
    1.5103    0.3224    0.2587 C   0  0  0  0  0  0  0  0  0  0  0  0
    0.0016    0.1355    0.3443 C   0  0  0  0  0  0  0  0  0  0  0  0
   -2.8076    0.3506    0.8009 N   0  0  0  0  0  0  0  0  0  0  0  0
   -3.9573    0.9898    1.0454 N   0  0  0  0  0  0  0  0  0  0  0  0
   -6.8737    1.1142   -0.3415 H   0  0  0  0  0  0  0  0  0  0  0  0
   -6.0852    2.6834   -0.6018 H   0  0  0  0  0  0  0  0  0  0  0  0
   -6.3401    2.0787    1.0442 H   0  0  0  0  0  0  0  0  0  0  0  0
   -4.7685   -0.7097   -2.7014 H   0  0  0  0  0  0  0  0  0  0  0  0
   -5.4433    0.9266   -2.6910 H   0  0  0  0  0  0  0  0  0  0  0  0
   -3.7654    0.6781   -3.1838 H   0  0  0  0  0  0  0  0  0  0  0  0
   -0.0507   -2.5332   -1.7455 H   0  0  0  0  0  0  0  0  0  0  0  0
    0.9672   -1.1385   -2.1192 H   0  0  0  0  0  0  0  0  0  0  0  0
    0.9336   -2.7041    0.5108 H   0  0  0  0  0  0  0  0  0  0  0  0
    2.1613   -2.8912   -0.7447 H   0  0  0  0  0  0  0  0  0  0  0  0
    2.4221   -1.2912    1.4128 H   0  0  0  0  0  0  0  0  0  0  0  0
    5.9312   -0.6262   -1.2496 H   0  0  0  0  0  0  0  0  0  0  0  0
    7.5166    1.1962    2.1039 H   0  0  0  0  0  0  0  0  0  0  0  0
    5.2744    1.0427    3.2384 H   0  0  0  0  0  0  0  0  0  0  0  0
    1.7651    0.8208   -0.6864 H   0  0  0  0  0  0  0  0  0  0  0  0
    1.8421    1.0020    1.0520 H   0  0  0  0  0  0  0  0  0  0  0  0
   -0.4767    1.1145    0.2428 H   0  0  0  0  0  0  0  0  0  0  0  0
   -0.2678   -0.2937    1.3159 H   0  0  0  0  0  0  0  0  0  0  0  0
   -4.1303    1.3163    1.9903 H   0  0  0  0  0  0  0  0  0  0  0  0
  1  2  1  0
  2  3  2  0
  3  4  1  0
  3  5  1  0
  5  6  1  0
  6  7  2  0
  6  8  1  0
  8  9  1  0
  9 10  1  0
 10 11  1  0
 11 12  1  0
 12 13  1  0
 13 14  2  0
 14 15  1  0
 15 16  2  0
 16 17  1  0
 17 18  2  0
 11 19  1  0
 19 20  1  0
  5 21  2  0
 21 22  1  0
 22  2  1  0
 20  8  1  0
 18 13  1  0
  1 23  1  0
  1 24  1  0
  1 25  1  0
  4 26  1  0
  4 27  1  0
  4 28  1  0
  9 29  1  0
  9 30  1  0
 10 31  1  0
 10 32  1  0
 11 33  1  0
 14 34  1  0
 16 35  1  0
 17 36  1  0
 19 37  1  0
 19 38  1  0
 20 39  1  0
 20 40  1  0
 22 41  1  0
M  END
$$$$
OCNT-2311604
     RDKit          3D

 50 53  0  0  0  0  0  0  0  0999 V2000
    4.5951   -2.6897   -0.9268 C   0  0  0  0  0  0  0  0  0  0  0  0
    4.6257   -1.4614    0.0002 C   0  0  0  0  0  0  0  0  0  0  0  0
    5.7463   -0.5261   -0.4537 C   0  0  0  0  0  0  0  0  0  0  0  0
    6.8290   -0.2831    0.2628 N   0  0  0  0  0  0  0  0  0  0  0  0
    7.6452    0.6061   -0.4068 C   0  0  0  0  0  0  0  0  0  0  0  0
    7.1823    1.0355   -1.6302 C   0  0  0  0  0  0  0  0  0  0  0  0
    5.6697    0.3069   -1.9655 S   0  0  0  0  0  0  0  0  0  0  0  0
    3.3182   -0.7648    0.1233 N   0  0  0  0  0  0  0  0  0  0  0  0
    2.1800   -1.6541    0.3981 C   0  0  0  0  0  0  0  0  0  0  0  0
    0.8464   -0.8798    0.4974 C   0  0  0  0  0  0  0  0  0  0  0  0
    0.9058    0.2822    1.3884 N   0  0  0  0  0  0  0  0  0  0  0  0
   -0.1127    1.2238    1.5660 C   0  0  0  0  0  0  0  0  0  0  0  0
    0.0505    2.2192    2.2787 O   0  0  0  0  0  0  0  0  0  0  0  0
   -1.4414    1.0853    0.8914 C   0  0  0  0  0  0  0  0  0  0  0  0
   -2.2819    2.1802    0.7911 C   0  0  0  0  0  0  0  0  0  0  0  0
   -3.5276    2.0231    0.1785 C   0  0  0  0  0  0  0  0  0  0  0  0
   -3.9220    0.7833   -0.3107 C   0  0  0  0  0  0  0  0  0  0  0  0
   -5.1341    0.5979   -0.9359 N   0  0  0  0  0  0  0  0  0  0  0  0
   -5.5148   -0.7444   -1.3622 C   0  0  0  0  0  0  0  0  0  0  0  0
   -6.9332   -0.5460   -1.8869 C   0  0  0  0  0  0  0  0  0  0  0  0
   -7.4917    0.5043   -0.9396 C   0  0  0  0  0  0  0  0  0  0  0  0
   -6.3031    1.4345   -0.6894 C   0  0  0  0  0  0  0  0  0  0  0  0
   -3.0613   -0.2532   -0.1930 N   0  0  0  0  0  0  0  0  0  0  0  0
   -1.8249   -0.1121    0.4182 N   0  0  0  0  0  0  0  0  0  0  0  0
    2.1818    0.4760    2.0690 C   0  0  0  0  0  0  0  0  0  0  0  0
    3.3811    0.3515    1.1047 C   0  0  0  0  0  0  0  0  0  0  0  0
    5.6044   -3.0887   -1.0837 H   0  0  0  0  0  0  0  0  0  0  0  0
    4.1796   -2.4462   -1.9112 H   0  0  0  0  0  0  0  0  0  0  0  0
    3.9975   -3.5001   -0.4964 H   0  0  0  0  0  0  0  0  0  0  0  0
    4.9071   -1.8360    0.9954 H   0  0  0  0  0  0  0  0  0  0  0  0
    8.5791    0.9125    0.0483 H   0  0  0  0  0  0  0  0  0  0  0  0
    7.6458    1.7229   -2.3225 H   0  0  0  0  0  0  0  0  0  0  0  0
    2.0558   -2.3889   -0.4045 H   0  0  0  0  0  0  0  0  0  0  0  0
    2.3518   -2.2108    1.3286 H   0  0  0  0  0  0  0  0  0  0  0  0
    0.5530   -0.5265   -0.4980 H   0  0  0  0  0  0  0  0  0  0  0  0
    0.0787   -1.5632    0.8741 H   0  0  0  0  0  0  0  0  0  0  0  0
   -1.9795    3.1489    1.1763 H   0  0  0  0  0  0  0  0  0  0  0  0
   -4.1726    2.8893    0.0809 H   0  0  0  0  0  0  0  0  0  0  0  0
   -5.5219   -1.4377   -0.5118 H   0  0  0  0  0  0  0  0  0  0  0  0
   -4.8561   -1.1353   -2.1450 H   0  0  0  0  0  0  0  0  0  0  0  0
   -6.9077   -0.1518   -2.9100 H   0  0  0  0  0  0  0  0  0  0  0  0
   -7.5148   -1.4719   -1.8867 H   0  0  0  0  0  0  0  0  0  0  0  0
   -8.3564    1.0326   -1.3508 H   0  0  0  0  0  0  0  0  0  0  0  0
   -7.7983    0.0305    0.0010 H   0  0  0  0  0  0  0  0  0  0  0  0
   -6.3473    1.8277    0.3325 H   0  0  0  0  0  0  0  0  0  0  0  0
   -6.3120    2.2716   -1.3963 H   0  0  0  0  0  0  0  0  0  0  0  0
    2.2461   -0.2966    2.8455 H   0  0  0  0  0  0  0  0  0  0  0  0
    2.2255    1.4439    2.5784 H   0  0  0  0  0  0  0  0  0  0  0  0
    4.2825    0.2988    1.7282 H   0  0  0  0  0  0  0  0  0  0  0  0
    3.4516    1.2796    0.5242 H   0  0  0  0  0  0  0  0  0  0  0  0
  1  2  1  0
  2  3  1  0
  3  4  2  0
  4  5  1  0
  5  6  2  0
  6  7  1  0
  2  8  1  0
  8  9  1  0
  9 10  1  0
 10 11  1  0
 11 12  1  0
 12 13  2  0
 12 14  1  0
 14 15  2  0
 15 16  1  0
 16 17  2  0
 17 18  1  0
 18 19  1  0
 19 20  1  0
 20 21  1  0
 21 22  1  0
 17 23  1  0
 23 24  2  0
 11 25  1  0
 25 26  1  0
  7  3  1  0
 26  8  1  0
 24 14  1  0
 22 18  1  0
  1 27  1  0
  1 28  1  0
  1 29  1  0
  2 30  1  0
  5 31  1  0
  6 32  1  0
  9 33  1  0
  9 34  1  0
 10 35  1  0
 10 36  1  0
 15 37  1  0
 16 38  1  0
 19 39  1  0
 19 40  1  0
 20 41  1  0
 20 42  1  0
 21 43  1  0
 21 44  1  0
 22 45  1  0
 22 46  1  0
 25 47  1  0
 25 48  1  0
 26 49  1  0
 26 50  1  0
M  END
$$$$
OCNT-2311606
     RDKit          3D

 51 54  0  0  0  0  0  0  0  0999 V2000
    4.2106    2.2365    1.5482 O   0  0  0  0  0  0  0  0  0  0  0  0
    3.9056    1.2338    0.9035 C   0  0  0  0  0  0  0  0  0  0  0  0
    4.9997    0.4671    0.2645 C   0  0  0  0  0  0  0  0  0  0  0  0
    5.1860   -0.8890    0.5620 C   0  0  0  0  0  0  0  0  0  0  0  0
    6.2353   -1.5921   -0.0377 C   0  0  0  0  0  0  0  0  0  0  0  0
    7.0986   -0.9373   -0.9214 C   0  0  0  0  0  0  0  0  0  0  0  0
    6.9215    0.4204   -1.2024 C   0  0  0  0  0  0  0  0  0  0  0  0
    5.8772    1.1287   -0.6013 C   0  0  0  0  0  0  0  0  0  0  0  0
    2.5947    0.7811    0.7484 N   0  0  0  0  0  0  0  0  0  0  0  0
    2.1776   -0.1667   -0.2888 C   0  0  0  0  0  0  0  0  0  0  0  0
    0.7533    0.1059   -0.7596 C   0  0  0  0  0  0  0  0  0  0  0  0
   -0.2442   -0.0027    0.4078 C   0  0  0  0  0  0  0  0  0  0  0  0
   -1.5051    0.6438    0.0110 N   0  0  0  0  0  0  0  0  0  0  0  0
   -2.6816    0.1925    0.7781 C   0  0  0  0  0  0  0  0  0  0  0  0
   -3.7733    1.2769    0.6535 C   0  0  0  0  0  0  0  0  0  0  0  0
   -4.6393    1.1361   -0.6020 C   0  0  0  0  0  0  0  0  0  0  0  0
   -5.0313   -0.3211   -0.8895 C   0  0  0  0  0  0  0  0  0  0  0  0
   -5.6547   -0.9999    0.3402 C   0  0  0  0  0  0  0  0  0  0  0  0
   -4.4696   -1.5975    1.1153 C   0  0  0  0  0  0  0  0  0  0  0  0
   -3.2134   -1.1953    0.3169 C   0  0  0  0  0  0  0  0  0  0  0  0
   -3.7674   -1.1448   -1.1086 C   0  0  0  0  0  0  0  0  0  0  0  0
    0.3287    0.6014    1.7074 C   0  0  0  0  0  0  0  0  0  0  0  0
    1.5364    1.4955    1.4594 C   0  0  0  0  0  0  0  0  0  0  0  0
    4.5302   -1.3897    1.2685 H   0  0  0  0  0  0  0  0  0  0  0  0
    6.3889   -2.6456    0.1918 H   0  0  0  0  0  0  0  0  0  0  0  0
    7.9185   -1.4868   -1.3844 H   0  0  0  0  0  0  0  0  0  0  0  0
    7.6045    0.9288   -1.8806 H   0  0  0  0  0  0  0  0  0  0  0  0
    5.7502    2.1885   -0.7985 H   0  0  0  0  0  0  0  0  0  0  0  0
    2.2469   -1.1733    0.1394 H   0  0  0  0  0  0  0  0  0  0  0  0
    2.8600   -0.1117   -1.1438 H   0  0  0  0  0  0  0  0  0  0  0  0
    0.4788   -0.6023   -1.5511 H   0  0  0  0  0  0  0  0  0  0  0  0
    0.7140    1.1083   -1.2073 H   0  0  0  0  0  0  0  0  0  0  0  0
   -0.4173   -1.0729    0.5803 H   0  0  0  0  0  0  0  0  0  0  0  0
   -1.6742    0.5321   -0.9907 H   0  0  0  0  0  0  0  0  0  0  0  0
   -2.4146    0.1317    1.8395 H   0  0  0  0  0  0  0  0  0  0  0  0
   -4.4245    1.2184    1.5368 H   0  0  0  0  0  0  0  0  0  0  0  0
   -3.3369    2.2820    0.6901 H   0  0  0  0  0  0  0  0  0  0  0  0
   -5.5415    1.7471   -0.4826 H   0  0  0  0  0  0  0  0  0  0  0  0
   -4.0968    1.5396   -1.4668 H   0  0  0  0  0  0  0  0  0  0  0  0
   -5.6993   -0.3617   -1.7534 H   0  0  0  0  0  0  0  0  0  0  0  0
   -6.2428   -0.3107    0.9554 H   0  0  0  0  0  0  0  0  0  0  0  0
   -6.3261   -1.8051    0.0253 H   0  0  0  0  0  0  0  0  0  0  0  0
   -4.4401   -1.2584    2.1573 H   0  0  0  0  0  0  0  0  0  0  0  0
   -4.5659   -2.6894    1.1328 H   0  0  0  0  0  0  0  0  0  0  0  0
   -2.4369   -1.9603    0.4181 H   0  0  0  0  0  0  0  0  0  0  0  0
   -3.0884   -0.7052   -1.8438 H   0  0  0  0  0  0  0  0  0  0  0  0
   -4.0190   -2.1539   -1.4575 H   0  0  0  0  0  0  0  0  0  0  0  0
    0.6324   -0.2255    2.3649 H   0  0  0  0  0  0  0  0  0  0  0  0
   -0.4268    1.1659    2.2675 H   0  0  0  0  0  0  0  0  0  0  0  0
    1.2601    2.3693    0.8576 H   0  0  0  0  0  0  0  0  0  0  0  0
    1.9215    1.8672    2.4157 H   0  0  0  0  0  0  0  0  0  0  0  0
  1  2  2  0
  2  3  1  0
  3  4  2  0
  4  5  1  0
  5  6  2  0
  6  7  1  0
  7  8  2  0
  2  9  1  0
  9 10  1  0
 10 11  1  0
 11 12  1  0
 12 13  1  0
 13 14  1  0
 14 15  1  0
 15 16  1  0
 16 17  1  0
 17 18  1  0
 18 19  1  0
 19 20  1  0
 20 21  1  0
 12 22  1  0
 22 23  1  0
  8  3  1  0
 23  9  1  0
 20 14  1  0
 21 17  1  0
  4 24  1  0
  5 25  1  0
  6 26  1  0
  7 27  1  0
  8 28  1  0
 10 29  1  0
 10 30  1  0
 11 31  1  0
 11 32  1  0
 12 33  1  0
 13 34  1  0
 14 35  1  0
 15 36  1  0
 15 37  1  0
 16 38  1  0
 16 39  1  0
 17 40  1  0
 18 41  1  0
 18 42  1  0
 19 43  1  0
 19 44  1  0
 20 45  1  0
 21 46  1  0
 21 47  1  0
 22 48  1  0
 22 49  1  0
 23 50  1  0
 23 51  1  0
M  END
$$$$
OCNT-2311610
     RDKit          3D

 45 48  0  0  0  0  0  0  0  0999 V2000
    3.6588   -1.4503   -1.2008 O   0  0  0  0  0  0  0  0  0  0  0  0
    3.2099   -0.6839   -0.3468 C   0  0  0  0  0  0  0  0  0  0  0  0
    4.1153    0.1182    0.5854 C   0  0  0  0  0  0  0  0  0  0  0  0
    5.5091    0.2131    0.0517 C   0  0  0  0  0  0  0  0  0  0  0  0
    6.5532   -0.6849    0.1666 C   0  0  0  0  0  0  0  0  0  0  0  0
    7.7473   -0.2976   -0.4101 N   0  0  0  0  0  0  0  0  0  0  0  0
    7.5880    0.8736   -0.9848 C   0  0  0  0  0  0  0  0  0  0  0  0
    6.0339    1.5836   -0.8403 S   0  0  0  0  0  0  0  0  0  0  0  0
    1.8350   -0.5269   -0.1703 N   0  0  0  0  0  0  0  0  0  0  0  0
    1.2166    0.2385    0.9143 C   0  0  0  0  0  0  0  0  0  0  0  0
   -0.1464   -0.3310    1.2906 C   0  0  0  0  0  0  0  0  0  0  0  0
   -1.1334   -0.3074    0.0979 C   0  0  0  0  0  0  0  0  0  0  0  0
   -0.3741   -0.4246   -1.2504 C   0  0  0  0  0  0  0  0  0  0  0  0
    0.9343   -1.1893   -1.1111 C   0  0  0  0  0  0  0  0  0  0  0  0
   -2.1316   -1.5088    0.2197 C   0  0  0  0  0  0  0  0  0  0  0  0
   -2.9543   -1.5957    1.4391 N   0  0  0  0  0  0  0  0  0  0  0  0
   -3.5586   -0.3195    1.8264 C   0  0  0  0  0  0  0  0  0  0  0  0
   -4.0124    0.5079    0.6580 C   0  0  0  0  0  0  0  0  0  0  0  0
   -5.3719    0.6697    0.3609 C   0  0  0  0  0  0  0  0  0  0  0  0
   -5.7665    1.4590   -0.7214 C   0  0  0  0  0  0  0  0  0  0  0  0
   -4.8084    2.0952   -1.5103 C   0  0  0  0  0  0  0  0  0  0  0  0
   -3.4531    1.9335   -1.2264 C   0  0  0  0  0  0  0  0  0  0  0  0
   -3.0596    1.1227   -0.1640 C   0  0  0  0  0  0  0  0  0  0  0  0
   -1.7212    1.0233    0.0852 O   0  0  0  0  0  0  0  0  0  0  0  0
    4.1303   -0.3847    1.5592 H   0  0  0  0  0  0  0  0  0  0  0  0
    3.7061    1.1247    0.7255 H   0  0  0  0  0  0  0  0  0  0  0  0
    6.4987   -1.6441    0.6677 H   0  0  0  0  0  0  0  0  0  0  0  0
    8.3894    1.3694   -1.5164 H   0  0  0  0  0  0  0  0  0  0  0  0
    1.8654    0.2269    1.7948 H   0  0  0  0  0  0  0  0  0  0  0  0
    1.1289    1.2776    0.5771 H   0  0  0  0  0  0  0  0  0  0  0  0
    0.0029   -1.3604    1.6419 H   0  0  0  0  0  0  0  0  0  0  0  0
   -0.5447    0.2456    2.1331 H   0  0  0  0  0  0  0  0  0  0  0  0
   -0.1533    0.5774   -1.6443 H   0  0  0  0  0  0  0  0  0  0  0  0
   -1.0055   -0.9028   -2.0088 H   0  0  0  0  0  0  0  0  0  0  0  0
    1.4168   -1.2741   -2.0911 H   0  0  0  0  0  0  0  0  0  0  0  0
    0.7604   -2.2068   -0.7426 H   0  0  0  0  0  0  0  0  0  0  0  0
   -2.8030   -1.5215   -0.6500 H   0  0  0  0  0  0  0  0  0  0  0  0
   -1.5647   -2.4463    0.1573 H   0  0  0  0  0  0  0  0  0  0  0  0
   -3.7030   -2.2661    1.2640 H   0  0  0  0  0  0  0  0  0  0  0  0
   -4.4025   -0.5248    2.4965 H   0  0  0  0  0  0  0  0  0  0  0  0
   -2.8552    0.2621    2.4337 H   0  0  0  0  0  0  0  0  0  0  0  0
   -6.1310    0.1899    0.9741 H   0  0  0  0  0  0  0  0  0  0  0  0
   -6.8231    1.5860   -0.9441 H   0  0  0  0  0  0  0  0  0  0  0  0
   -5.1175    2.7200   -2.3443 H   0  0  0  0  0  0  0  0  0  0  0  0
   -2.7052    2.4337   -1.8350 H   0  0  0  0  0  0  0  0  0  0  0  0
  1  2  2  0
  2  3  1  0
  3  4  1  0
  4  5  2  0
  5  6  1  0
  6  7  2  0
  7  8  1  0
  2  9  1  0
  9 10  1  0
 10 11  1  0
 11 12  1  0
 12 13  1  0
 13 14  1  0
 12 15  1  0
 15 16  1  0
 16 17  1  0
 17 18  1  0
 18 19  2  0
 19 20  1  0
 20 21  2  0
 21 22  1  0
 22 23  2  0
 23 24  1  0
  8  4  1  0
 14  9  1  0
 23 18  1  0
 24 12  1  0
  3 25  1  0
  3 26  1  0
  5 27  1  0
  7 28  1  0
 10 29  1  0
 10 30  1  0
 11 31  1  0
 11 32  1  0
 13 33  1  0
 13 34  1  0
 14 35  1  0
 14 36  1  0
 15 37  1  0
 15 38  1  0
 16 39  1  0
 17 40  1  0
 17 41  1  0
 19 42  1  0
 20 43  1  0
 21 44  1  0
 22 45  1  0
M  END
$$$$
OCNT-2311617
     RDKit          3D

 48 51  0  0  0  0  0  0  0  0999 V2000
    5.2137    0.2844    0.3071 C   0  0  0  0  0  0  0  0  0  0  0  0
    4.1404    0.2026    1.2948 N   0  0  0  0  0  0  0  0  0  0  0  0
    3.4639   -1.0973    1.2773 C   0  0  0  0  0  0  0  0  0  0  0  0
    2.5328   -1.3033    0.0766 C   0  0  0  0  0  0  0  0  0  0  0  0
    1.4730   -0.1812   -0.0858 C   0  0  0  0  0  0  0  0  0  0  0  0
    2.2325    1.1804   -0.0232 C   0  0  0  0  0  0  0  0  0  0  0  0
    3.1839    1.3046    1.1737 C   0  0  0  0  0  0  0  0  0  0  0  0
    0.4245   -0.2728    1.0584 C   0  0  0  0  0  0  0  0  0  0  0  0
   -0.7728    0.6575    0.8707 C   0  0  0  0  0  0  0  0  0  0  0  0
   -1.3887    0.4603   -0.4444 N   0  0  0  0  0  0  0  0  0  0  0  0
   -2.7153    0.8442   -0.6121 C   0  0  0  0  0  0  0  0  0  0  0  0
   -3.0274    1.7662   -1.4786 N   0  0  0  0  0  0  0  0  0  0  0  0
   -4.3367    2.1547   -1.6141 C   0  0  0  0  0  0  0  0  0  0  0  0
   -5.3633    1.6978   -0.9679 N   0  0  0  0  0  0  0  0  0  0  0  0
   -5.0552    0.7272   -0.0963 N   0  0  0  0  0  0  0  0  0  0  0  0
   -5.9444    0.0488    0.6929 C   0  0  0  0  0  0  0  0  0  0  0  0
   -5.2317   -0.8959    1.3870 C   0  0  0  0  0  0  0  0  0  0  0  0
   -5.9053   -2.1466    2.6052 Br  0  0  0  0  0  0  0  0  0  0  0  0
   -3.8751   -0.7896    1.0261 C   0  0  0  0  0  0  0  0  0  0  0  0
   -3.7959    0.2526    0.1223 C   0  0  0  0  0  0  0  0  0  0  0  0
   -0.4607    0.6652   -1.5592 C   0  0  0  0  0  0  0  0  0  0  0  0
    0.7475   -0.2909   -1.4762 C   0  0  0  0  0  0  0  0  0  0  0  0
    0.3442   -1.7139   -1.9256 C   0  0  0  0  0  0  0  0  0  0  0  0
   -0.4084   -2.4183   -0.9550 O   0  0  0  0  0  0  0  0  0  0  0  0
    5.7515    1.2340    0.4059 H   0  0  0  0  0  0  0  0  0  0  0  0
    5.9518   -0.5072    0.4787 H   0  0  0  0  0  0  0  0  0  0  0  0
    4.8604    0.2008   -0.7253 H   0  0  0  0  0  0  0  0  0  0  0  0
    4.2044   -1.9066    1.3064 H   0  0  0  0  0  0  0  0  0  0  0  0
    2.8910   -1.2049    2.2066 H   0  0  0  0  0  0  0  0  0  0  0  0
    2.0450   -2.2787    0.1909 H   0  0  0  0  0  0  0  0  0  0  0  0
    3.1383   -1.3690   -0.8366 H   0  0  0  0  0  0  0  0  0  0  0  0
    2.8156    1.3130   -0.9441 H   0  0  0  0  0  0  0  0  0  0  0  0
    1.5339    2.0232    0.0054 H   0  0  0  0  0  0  0  0  0  0  0  0
    3.7182    2.2614    1.1146 H   0  0  0  0  0  0  0  0  0  0  0  0
    2.6017    1.3656    2.1009 H   0  0  0  0  0  0  0  0  0  0  0  0
    0.8785   -0.0523    2.0303 H   0  0  0  0  0  0  0  0  0  0  0  0
    0.0547   -1.3010    1.1438 H   0  0  0  0  0  0  0  0  0  0  0  0
   -1.4847    0.4634    1.6796 H   0  0  0  0  0  0  0  0  0  0  0  0
   -0.4714    1.7059    0.9803 H   0  0  0  0  0  0  0  0  0  0  0  0
   -4.5175    2.9503   -2.3568 H   0  0  0  0  0  0  0  0  0  0  0  0
   -6.9960    0.2938    0.6704 H   0  0  0  0  0  0  0  0  0  0  0  0
   -3.0475   -1.3963    1.3697 H   0  0  0  0  0  0  0  0  0  0  0  0
   -0.1215    1.7084   -1.5668 H   0  0  0  0  0  0  0  0  0  0  0  0
   -0.9732    0.5026   -2.5163 H   0  0  0  0  0  0  0  0  0  0  0  0
    1.4522    0.0488   -2.2494 H   0  0  0  0  0  0  0  0  0  0  0  0
   -0.2431   -1.6662   -2.8497 H   0  0  0  0  0  0  0  0  0  0  0  0
    1.2387   -2.3054   -2.1477 H   0  0  0  0  0  0  0  0  0  0  0  0
   -0.7565   -3.2200   -1.3812 H   0  0  0  0  0  0  0  0  0  0  0  0
  1  2  1  0
  2  3  1  0
  3  4  1  0
  4  5  1  0
  5  6  1  0
  6  7  1  0
  5  8  1  0
  8  9  1  0
  9 10  1  0
 10 11  1  0
 11 12  2  0
 12 13  1  0
 13 14  2  0
 14 15  1  0
 15 16  1  0
 16 17  2  0
 17 18  1  0
 17 19  1  0
 19 20  2  0
 10 21  1  0
 21 22  1  0
 22 23  1  0
 23 24  1  0
  7  2  1  0
 20 11  1  0
 22  5  1  0
 20 15  1  0
  1 25  1  0
  1 26  1  0
  1 27  1  0
  3 28  1  0
  3 29  1  0
  4 30  1  0
  4 31  1  0
  6 32  1  0
  6 33  1  0
  7 34  1  0
  7 35  1  0
  8 36  1  0
  8 37  1  0
  9 38  1  0
  9 39  1  0
 13 40  1  0
 16 41  1  0
 19 42  1  0
 21 43  1  0
 21 44  1  0
 22 45  1  0
 23 46  1  0
 23 47  1  0
 24 48  1  0
M  END
$$$$
OCNT-2311621
     RDKit          3D

 45 48  0  0  0  0  0  0  0  0999 V2000
    7.3355    1.9015    1.9170 C   0  0  0  0  0  0  0  0  0  0  0  0
    6.4685    0.8769    2.3875 O   0  0  0  0  0  0  0  0  0  0  0  0
    5.4056    0.5487    1.5946 C   0  0  0  0  0  0  0  0  0  0  0  0
    4.5850   -0.4547    2.1047 C   0  0  0  0  0  0  0  0  0  0  0  0
    3.4612   -0.8856    1.3924 C   0  0  0  0  0  0  0  0  0  0  0  0
    3.1270   -0.3355    0.1653 C   0  0  0  0  0  0  0  0  0  0  0  0
    2.0375   -0.7831   -0.4804 N   0  0  0  0  0  0  0  0  0  0  0  0
    1.7440   -0.2159   -1.6851 C   0  0  0  0  0  0  0  0  0  0  0  0
    0.5183   -0.7351   -2.3745 C   0  0  0  0  0  0  0  0  0  0  0  0
    0.1420   -0.2796   -3.4481 O   0  0  0  0  0  0  0  0  0  0  0  0
   -0.1298   -1.7391   -1.6893 N   0  0  0  0  0  0  0  0  0  0  0  0
   -1.4021   -2.2711   -2.1016 C   0  0  0  0  0  0  0  0  0  0  0  0
   -2.5294   -1.5960   -1.3651 C   0  0  0  0  0  0  0  0  0  0  0  0
   -3.0653   -2.1523   -0.1995 C   0  0  0  0  0  0  0  0  0  0  0  0
   -4.0972   -1.5057    0.4944 C   0  0  0  0  0  0  0  0  0  0  0  0
   -4.6118   -0.2794    0.0391 C   0  0  0  0  0  0  0  0  0  0  0  0
   -5.6620    0.3693    0.7540 N   0  0  0  0  0  0  0  0  0  0  0  0
   -6.2895    1.5621    0.4612 C   0  0  0  0  0  0  0  0  0  0  0  0
   -7.2311    1.7620    1.4423 C   0  0  0  0  0  0  0  0  0  0  0  0
   -7.2174    0.7378    2.3399 N   0  0  0  0  0  0  0  0  0  0  0  0
   -6.2780   -0.0753    1.9092 C   0  0  0  0  0  0  0  0  0  0  0  0
   -4.0610    0.2744   -1.1227 C   0  0  0  0  0  0  0  0  0  0  0  0
   -4.4817    1.4417   -1.6271 F   0  0  0  0  0  0  0  0  0  0  0  0
   -3.0339   -0.3710   -1.8138 C   0  0  0  0  0  0  0  0  0  0  0  0
    2.4952    0.7863   -2.2763 C   0  0  0  0  0  0  0  0  0  0  0  0
    3.6195    1.2394   -1.5968 C   0  0  0  0  0  0  0  0  0  0  0  0
    3.9576    0.6825   -0.3552 C   0  0  0  0  0  0  0  0  0  0  0  0
    5.0897    1.1171    0.3621 C   0  0  0  0  0  0  0  0  0  0  0  0
    6.8023    2.8521    1.8122 H   0  0  0  0  0  0  0  0  0  0  0  0
    7.8153    1.6109    0.9765 H   0  0  0  0  0  0  0  0  0  0  0  0
    8.1232    2.0419    2.6634 H   0  0  0  0  0  0  0  0  0  0  0  0
    4.8185   -0.9078    3.0654 H   0  0  0  0  0  0  0  0  0  0  0  0
    2.8359   -1.6700    1.8113 H   0  0  0  0  0  0  0  0  0  0  0  0
    0.2354   -1.9525   -0.7653 H   0  0  0  0  0  0  0  0  0  0  0  0
   -1.3941   -3.3454   -1.8875 H   0  0  0  0  0  0  0  0  0  0  0  0
   -1.5337   -2.1561   -3.1835 H   0  0  0  0  0  0  0  0  0  0  0  0
   -2.6822   -3.0974    0.1822 H   0  0  0  0  0  0  0  0  0  0  0  0
   -4.4669   -1.9971    1.3894 H   0  0  0  0  0  0  0  0  0  0  0  0
   -6.0412    2.1733   -0.3917 H   0  0  0  0  0  0  0  0  0  0  0  0
   -7.9163    2.5940    1.5427 H   0  0  0  0  0  0  0  0  0  0  0  0
   -6.0143   -0.9966    2.4072 H   0  0  0  0  0  0  0  0  0  0  0  0
   -2.6251    0.0996   -2.7063 H   0  0  0  0  0  0  0  0  0  0  0  0
    2.2134    1.2037   -3.2375 H   0  0  0  0  0  0  0  0  0  0  0  0
    4.2262    2.0259   -2.0394 H   0  0  0  0  0  0  0  0  0  0  0  0
    5.7073    1.9009   -0.0649 H   0  0  0  0  0  0  0  0  0  0  0  0
  1  2  1  0
  2  3  1  0
  3  4  2  0
  4  5  1  0
  5  6  2  0
  6  7  1  0
  7  8  2  0
  8  9  1  0
  9 10  2  0
  9 11  1  0
 11 12  1  0
 12 13  1  0
 13 14  1  0
 14 15  2  0
 15 16  1  0
 16 17  1  0
 17 18  1  0
 18 19  2  0
 19 20  1  0
 20 21  2  0
 16 22  2  0
 22 23  1  0
 22 24  1  0
  8 25  1  0
 25 26  2  0
 26 27  1  0
 27 28  2  0
 28  3  1  0
 27  6  1  0
 24 13  2  0
 21 17  1  0
  1 29  1  0
  1 30  1  0
  1 31  1  0
  4 32  1  0
  5 33  1  0
 11 34  1  0
 12 35  1  0
 12 36  1  0
 14 37  1  0
 15 38  1  0
 18 39  1  0
 19 40  1  0
 21 41  1  0
 24 42  1  0
 25 43  1  0
 26 44  1  0
 28 45  1  0
M  END
$$$$
OCNT-2311623
     RDKit          3D

 54 57  0  0  0  0  0  0  0  0999 V2000
    0.9527   -1.8305   -1.7606 O   0  0  0  0  0  0  0  0  0  0  0  0
    1.4343   -1.0425   -0.9449 C   0  0  0  0  0  0  0  0  0  0  0  0
    0.7116   -0.6657    0.3464 C   0  0  0  0  0  0  0  0  0  0  0  0
   -0.7673   -0.9773    0.3456 C   0  0  0  0  0  0  0  0  0  0  0  0
   -1.2302   -2.2437    0.7210 C   0  0  0  0  0  0  0  0  0  0  0  0
   -2.5970   -2.5217    0.7198 C   0  0  0  0  0  0  0  0  0  0  0  0
   -3.5155   -1.5435    0.3316 C   0  0  0  0  0  0  0  0  0  0  0  0
   -3.0683   -0.2859   -0.0705 C   0  0  0  0  0  0  0  0  0  0  0  0
   -3.8627    0.7561   -0.4645 O   0  0  0  0  0  0  0  0  0  0  0  0
   -5.1691    0.4415   -0.9564 C   0  0  0  0  0  0  0  0  0  0  0  0
   -6.2360    0.4600    0.1163 C   0  0  0  0  0  0  0  0  0  0  0  0
   -7.3924   -0.3195   -0.0392 C   0  0  0  0  0  0  0  0  0  0  0  0
   -8.4012   -0.2944    0.9256 C   0  0  0  0  0  0  0  0  0  0  0  0
   -8.2708    0.5173    2.0505 C   0  0  0  0  0  0  0  0  0  0  0  0
   -7.1345    1.3076    2.2095 C   0  0  0  0  0  0  0  0  0  0  0  0
   -6.1253    1.2840    1.2453 C   0  0  0  0  0  0  0  0  0  0  0  0
   -1.6986   -0.0057   -0.0509 C   0  0  0  0  0  0  0  0  0  0  0  0
    2.6872   -0.4640   -1.1507 N   0  0  0  0  0  0  0  0  0  0  0  0
    3.3682   -0.7135   -2.4199 C   0  0  0  0  0  0  0  0  0  0  0  0
    4.2625    0.4550   -2.8154 C   0  0  0  0  0  0  0  0  0  0  0  0
    5.3252    0.7586   -1.7577 C   0  0  0  0  0  0  0  0  0  0  0  0
    4.9114    0.3212   -0.3421 C   0  0  0  0  0  0  0  0  0  0  0  0
    5.6112    1.1402    0.7167 C   0  0  0  0  0  0  0  0  0  0  0  0
    5.2178    2.5186    0.7783 O   0  0  0  0  0  0  0  0  0  0  0  0
    5.9388    0.5194    2.0485 C   0  0  0  0  0  0  0  0  0  0  0  0
    7.0423    0.8508    1.0835 C   0  0  0  0  0  0  0  0  0  0  0  0
    3.3868    0.3678   -0.1643 C   0  0  0  0  0  0  0  0  0  0  0  0
    1.1906   -1.2000    1.1758 H   0  0  0  0  0  0  0  0  0  0  0  0
    0.8339    0.4071    0.5359 H   0  0  0  0  0  0  0  0  0  0  0  0
   -0.5286   -3.0223    1.0116 H   0  0  0  0  0  0  0  0  0  0  0  0
   -2.9492   -3.5044    1.0226 H   0  0  0  0  0  0  0  0  0  0  0  0
   -4.5709   -1.7906    0.3673 H   0  0  0  0  0  0  0  0  0  0  0  0
   -5.4236    1.2233   -1.6823 H   0  0  0  0  0  0  0  0  0  0  0  0
   -5.1658   -0.5038   -1.5145 H   0  0  0  0  0  0  0  0  0  0  0  0
   -7.5141   -0.9541   -0.9144 H   0  0  0  0  0  0  0  0  0  0  0  0
   -9.2903   -0.9065    0.7982 H   0  0  0  0  0  0  0  0  0  0  0  0
   -9.0558    0.5369    2.8017 H   0  0  0  0  0  0  0  0  0  0  0  0
   -7.0323    1.9446    3.0841 H   0  0  0  0  0  0  0  0  0  0  0  0
   -5.2454    1.9097    1.3825 H   0  0  0  0  0  0  0  0  0  0  0  0
   -1.3604    0.9811   -0.3588 H   0  0  0  0  0  0  0  0  0  0  0  0
    2.6334   -0.8980   -3.2111 H   0  0  0  0  0  0  0  0  0  0  0  0
    3.9595   -1.6291   -2.3002 H   0  0  0  0  0  0  0  0  0  0  0  0
    4.7451    0.2567   -3.7789 H   0  0  0  0  0  0  0  0  0  0  0  0
    3.6387    1.3476   -2.9539 H   0  0  0  0  0  0  0  0  0  0  0  0
    6.2590    0.2446   -2.0203 H   0  0  0  0  0  0  0  0  0  0  0  0
    5.5587    1.8295   -1.7964 H   0  0  0  0  0  0  0  0  0  0  0  0
    5.2173   -0.7294   -0.2293 H   0  0  0  0  0  0  0  0  0  0  0  0
    5.8068    3.0798    0.2439 H   0  0  0  0  0  0  0  0  0  0  0  0
    5.8343    1.1357    2.9345 H   0  0  0  0  0  0  0  0  0  0  0  0
    5.7039   -0.5260    2.2107 H   0  0  0  0  0  0  0  0  0  0  0  0
    7.6925    1.6815    1.3321 H   0  0  0  0  0  0  0  0  0  0  0  0
    7.5488    0.0265    0.5946 H   0  0  0  0  0  0  0  0  0  0  0  0
    3.0087    1.3904   -0.2837 H   0  0  0  0  0  0  0  0  0  0  0  0
    3.1244    0.0401    0.8466 H   0  0  0  0  0  0  0  0  0  0  0  0
  1  2  2  0
  2  3  1  0
  3  4  1  0
  4  5  2  0
  5  6  1  0
  6  7  2  0
  7  8  1  0
  8  9  1  0
  9 10  1  0
 10 11  1  0
 11 12  2  0
 12 13  1  0
 13 14  2  0
 14 15  1  0
 15 16  2  0
  8 17  2  0
  2 18  1  0
 18 19  1  0
 19 20  1  0
 20 21  1  0
 21 22  1  0
 22 23  1  0
 23 24  1  0
 23 25  1  0
 25 26  1  0
 22 27  1  0
 17  4  1  0
 27 18  1  0
 16 11  1  0
 26 23  1  0
  3 28  1  0
  3 29  1  0
  5 30  1  0
  6 31  1  0
  7 32  1  0
 10 33  1  0
 10 34  1  0
 12 35  1  0
 13 36  1  0
 14 37  1  0
 15 38  1  0
 16 39  1  0
 17 40  1  0
 19 41  1  0
 19 42  1  0
 20 43  1  0
 20 44  1  0
 21 45  1  0
 21 46  1  0
 22 47  1  0
 24 48  1  0
 25 49  1  0
 25 50  1  0
 26 51  1  0
 26 52  1  0
 27 53  1  0
 27 54  1  0
M  END
$$$$
OCNT-2311624
     RDKit          3D

 48 50  0  0  0  0  0  0  0  0999 V2000
   -6.7531    0.3511    1.2423 C   0  0  0  0  0  0  0  0  0  0  0  0
   -5.9757    0.4363    0.0309 N   0  0  0  0  0  0  0  0  0  0  0  0
   -5.1042   -0.4929   -0.4520 C   0  0  0  0  0  0  0  0  0  0  0  0
   -4.5983    0.0193   -1.6285 C   0  0  0  0  0  0  0  0  0  0  0  0
   -3.6009   -0.6014   -2.5477 C   0  0  0  0  0  0  0  0  0  0  0  0
   -2.1579   -0.2860   -2.1541 C   0  0  0  0  0  0  0  0  0  0  0  0
   -1.6510   -1.1408   -0.9999 C   0  0  0  0  0  0  0  0  0  0  0  0
   -2.2299   -2.1719   -0.6558 O   0  0  0  0  0  0  0  0  0  0  0  0
   -0.4758   -0.7202   -0.3831 N   0  0  0  0  0  0  0  0  0  0  0  0
    0.0053   -1.4619    0.7810 C   0  0  0  0  0  0  0  0  0  0  0  0
    0.7140   -0.5458    1.7732 C   0  0  0  0  0  0  0  0  0  0  0  0
    1.9157    0.1909    1.1464 C   0  0  0  0  0  0  0  0  0  0  0  0
    3.2423   -0.4917    1.5431 C   0  0  0  0  0  0  0  0  0  0  0  0
    4.4709    0.2713    1.1080 C   0  0  0  0  0  0  0  0  0  0  0  0
    5.2712   -0.2014    0.0567 C   0  0  0  0  0  0  0  0  0  0  0  0
    6.4041    0.5084   -0.3512 C   0  0  0  0  0  0  0  0  0  0  0  0
    6.7483    1.6973    0.2885 C   0  0  0  0  0  0  0  0  0  0  0  0
    5.9580    2.1653    1.3309 C   0  0  0  0  0  0  0  0  0  0  0  0
    6.2883    3.3081    1.9469 F   0  0  0  0  0  0  0  0  0  0  0  0
    4.8282    1.4670    1.7454 C   0  0  0  0  0  0  0  0  0  0  0  0
    1.7757    0.3078   -0.3841 C   0  0  0  0  0  0  0  0  0  0  0  0
    0.3193    0.4286   -0.8186 C   0  0  0  0  0  0  0  0  0  0  0  0
   -5.2443    1.2701   -1.7593 C   0  0  0  0  0  0  0  0  0  0  0  0
   -6.0761    1.5289   -0.7479 N   0  0  0  0  0  0  0  0  0  0  0  0
   -6.4723    1.1840    1.8916 H   0  0  0  0  0  0  0  0  0  0  0  0
   -6.5455   -0.5981    1.7424 H   0  0  0  0  0  0  0  0  0  0  0  0
   -7.8118    0.4094    0.9775 H   0  0  0  0  0  0  0  0  0  0  0  0
   -4.9087   -1.4232    0.0652 H   0  0  0  0  0  0  0  0  0  0  0  0
   -3.7697   -1.6835   -2.6043 H   0  0  0  0  0  0  0  0  0  0  0  0
   -3.7770   -0.2115   -3.5587 H   0  0  0  0  0  0  0  0  0  0  0  0
   -1.5093   -0.4979   -3.0125 H   0  0  0  0  0  0  0  0  0  0  0  0
   -2.0669    0.7760   -1.9013 H   0  0  0  0  0  0  0  0  0  0  0  0
   -0.8300   -1.9651    1.2799 H   0  0  0  0  0  0  0  0  0  0  0  0
    0.6867   -2.2398    0.4169 H   0  0  0  0  0  0  0  0  0  0  0  0
    1.0150   -1.1149    2.6601 H   0  0  0  0  0  0  0  0  0  0  0  0
   -0.0069    0.2060    2.1224 H   0  0  0  0  0  0  0  0  0  0  0  0
    1.9165    1.2070    1.5645 H   0  0  0  0  0  0  0  0  0  0  0  0
    3.2722   -1.5121    1.1391 H   0  0  0  0  0  0  0  0  0  0  0  0
    3.2907   -0.6046    2.6345 H   0  0  0  0  0  0  0  0  0  0  0  0
    5.0166   -1.1281   -0.4542 H   0  0  0  0  0  0  0  0  0  0  0  0
    7.0169    0.1325   -1.1667 H   0  0  0  0  0  0  0  0  0  0  0  0
    7.6250    2.2594   -0.0160 H   0  0  0  0  0  0  0  0  0  0  0  0
    4.2375    1.8640    2.5656 H   0  0  0  0  0  0  0  0  0  0  0  0
    2.2115   -0.5750   -0.8703 H   0  0  0  0  0  0  0  0  0  0  0  0
    2.3391    1.1769   -0.7435 H   0  0  0  0  0  0  0  0  0  0  0  0
    0.2735    0.5198   -1.9079 H   0  0  0  0  0  0  0  0  0  0  0  0
   -0.1380    1.3265   -0.3870 H   0  0  0  0  0  0  0  0  0  0  0  0
   -5.1391    2.0032   -2.5488 H   0  0  0  0  0  0  0  0  0  0  0  0
  1  2  1  0
  2  3  1  0
  3  4  2  0
  4  5  1  0
  5  6  1  0
  6  7  1  0
  7  8  2  0
  7  9  1  0
  9 10  1  0
 10 11  1  0
 11 12  1  0
 12 13  1  0
 13 14  1  0
 14 15  2  0
 15 16  1  0
 16 17  2  0
 17 18  1  0
 18 19  1  0
 18 20  2  0
 12 21  1  0
 21 22  1  0
  4 23  1  0
 23 24  2  0
 24  2  1  0
 22  9  1  0
 20 14  1  0
  1 25  1  0
  1 26  1  0
  1 27  1  0
  3 28  1  0
  5 29  1  0
  5 30  1  0
  6 31  1  0
  6 32  1  0
 10 33  1  0
 10 34  1  0
 11 35  1  0
 11 36  1  0
 12 37  1  0
 13 38  1  0
 13 39  1  0
 15 40  1  0
 16 41  1  0
 17 42  1  0
 20 43  1  0
 21 44  1  0
 21 45  1  0
 22 46  1  0
 22 47  1  0
 23 48  1  0
M  END
$$$$
OCNT-2311626
     RDKit          3D

 45 47  0  0  0  0  0  0  0  0999 V2000
    3.2329    0.6881   -5.0306 C   0  0  0  0  0  0  0  0  0  0  0  0
    4.0952    0.6195   -3.7788 C   0  0  0  0  0  0  0  0  0  0  0  0
    3.2854    0.5952   -2.5699 N   0  0  0  0  0  0  0  0  0  0  0  0
    2.9130    1.7691   -1.9676 C   0  0  0  0  0  0  0  0  0  0  0  0
    2.1700    1.8633   -0.9168 N   0  0  0  0  0  0  0  0  0  0  0  0
    1.7206    0.6875   -0.3665 C   0  0  0  0  0  0  0  0  0  0  0  0
    1.9942   -0.5280   -0.8681 C   0  0  0  0  0  0  0  0  0  0  0  0
    1.4936   -1.8008   -0.2530 C   0  0  0  0  0  0  0  0  0  0  0  0
    0.8657   -1.5699    1.1312 C   0  0  0  0  0  0  0  0  0  0  0  0
    0.0281   -0.3591    1.2164 N   0  0  0  0  0  0  0  0  0  0  0  0
   -1.1774   -0.4832    0.3858 C   0  0  0  0  0  0  0  0  0  0  0  0
   -2.2847    0.4286    0.8983 C   0  0  0  0  0  0  0  0  0  0  0  0
   -2.5778    0.3663    2.3886 C   0  0  0  0  0  0  0  0  0  0  0  0
   -3.3156   -1.2255    2.7695 S   0  0  0  0  0  0  0  0  0  0  0  0
   -3.7048   -1.0408    4.4911 C   0  0  0  0  0  0  0  0  0  0  0  0
   -2.3220   -2.2791    2.6838 O   0  0  0  0  0  0  0  0  0  0  0  0
   -4.5815   -1.3444    2.0685 O   0  0  0  0  0  0  0  0  0  0  0  0
   -2.4380    1.7863    0.2234 C   0  0  0  0  0  0  0  0  0  0  0  0
   -3.4441    0.7120   -0.0453 C   0  0  0  0  0  0  0  0  0  0  0  0
    0.8461    0.8219    0.8714 C   0  0  0  0  0  0  0  0  0  0  0  0
    2.8272   -0.6129   -2.0862 C   0  0  0  0  0  0  0  0  0  0  0  0
    3.0663   -1.7003   -2.6049 O   0  0  0  0  0  0  0  0  0  0  0  0
    2.6069    1.5865   -5.0275 H   0  0  0  0  0  0  0  0  0  0  0  0
    3.8624    0.7120   -5.9253 H   0  0  0  0  0  0  0  0  0  0  0  0
    2.5697   -0.1802   -5.1012 H   0  0  0  0  0  0  0  0  0  0  0  0
    4.7258   -0.2758   -3.8145 H   0  0  0  0  0  0  0  0  0  0  0  0
    4.7566    1.4929   -3.7464 H   0  0  0  0  0  0  0  0  0  0  0  0
    3.3019    2.6800   -2.4506 H   0  0  0  0  0  0  0  0  0  0  0  0
    2.3144   -2.5199   -0.1471 H   0  0  0  0  0  0  0  0  0  0  0  0
    0.7506   -2.2490   -0.9241 H   0  0  0  0  0  0  0  0  0  0  0  0
    1.6672   -1.4859    1.8781 H   0  0  0  0  0  0  0  0  0  0  0  0
    0.2911   -2.4557    1.4285 H   0  0  0  0  0  0  0  0  0  0  0  0
   -1.5617   -1.5094    0.4082 H   0  0  0  0  0  0  0  0  0  0  0  0
   -0.9642   -0.2787   -0.6716 H   0  0  0  0  0  0  0  0  0  0  0  0
   -1.6796    0.4849    2.9998 H   0  0  0  0  0  0  0  0  0  0  0  0
   -3.3065    1.1295    2.6826 H   0  0  0  0  0  0  0  0  0  0  0  0
   -2.7814   -0.8599    5.0444 H   0  0  0  0  0  0  0  0  0  0  0  0
   -4.1723   -1.9652    4.8369 H   0  0  0  0  0  0  0  0  0  0  0  0
   -4.3974   -0.2056    4.6104 H   0  0  0  0  0  0  0  0  0  0  0  0
   -2.7494    2.6373    0.8192 H   0  0  0  0  0  0  0  0  0  0  0  0
   -1.7649    2.0534   -0.5851 H   0  0  0  0  0  0  0  0  0  0  0  0
   -4.4412    0.8334    0.3653 H   0  0  0  0  0  0  0  0  0  0  0  0
   -3.4426    0.2405   -1.0229 H   0  0  0  0  0  0  0  0  0  0  0  0
    1.5099    1.0307    1.7215 H   0  0  0  0  0  0  0  0  0  0  0  0
    0.2122    1.7105    0.7838 H   0  0  0  0  0  0  0  0  0  0  0  0
  1  2  1  0
  2  3  1  0
  3  4  1  0
  4  5  2  0
  5  6  1  0
  6  7  2  0
  7  8  1  0
  8  9  1  0
  9 10  1  0
 10 11  1  0
 11 12  1  0
 12 13  1  0
 13 14  1  0
 14 15  1  0
 14 16  2  0
 14 17  2  0
 12 18  1  0
 18 19  1  0
 10 20  1  0
  7 21  1  0
 21 22  2  0
 21  3  1  0
 20  6  1  0
 19 12  1  0
  1 23  1  0
  1 24  1  0
  1 25  1  0
  2 26  1  0
  2 27  1  0
  4 28  1  0
  8 29  1  0
  8 30  1  0
  9 31  1  0
  9 32  1  0
 11 33  1  0
 11 34  1  0
 13 35  1  0
 13 36  1  0
 15 37  1  0
 15 38  1  0
 15 39  1  0
 18 40  1  0
 18 41  1  0
 19 42  1  0
 19 43  1  0
 20 44  1  0
 20 45  1  0
M  END
$$$$
OCNT-2311634
     RDKit          3D

 42 44  0  0  0  0  0  0  0  0999 V2000
   -3.0108    1.7179    0.7101 C   0  0  0  0  0  0  0  0  0  0  0  0
   -3.2384    0.2708    0.5889 N   0  0  0  0  0  0  0  0  0  0  0  0
   -4.6550   -0.0566    0.8375 C   0  0  0  0  0  0  0  0  0  0  0  0
   -5.6129    0.4065   -0.2655 C   0  0  0  0  0  0  0  0  0  0  0  0
   -5.1765   -0.0928   -1.6394 C   0  0  0  0  0  0  0  0  0  0  0  0
   -3.7043    0.2124   -1.9040 C   0  0  0  0  0  0  0  0  0  0  0  0
   -2.8294   -0.2749   -0.7422 C   0  0  0  0  0  0  0  0  0  0  0  0
   -1.3171   -0.0635   -0.9978 C   0  0  0  0  0  0  0  0  0  0  0  0
   -0.8783    0.2907   -2.0869 O   0  0  0  0  0  0  0  0  0  0  0  0
   -0.5725   -0.3769    0.1306 N   0  0  0  0  0  0  0  0  0  0  0  0
    0.8233   -0.3722    0.2839 C   0  0  0  0  0  0  0  0  0  0  0  0
    1.7199   -0.1417   -0.7567 C   0  0  0  0  0  0  0  0  0  0  0  0
    3.1011   -0.1602   -0.5192 C   0  0  0  0  0  0  0  0  0  0  0  0
    3.6155   -0.4058    0.7613 C   0  0  0  0  0  0  0  0  0  0  0  0
    5.0633   -0.4132    0.9648 C   0  0  0  0  0  0  0  0  0  0  0  0
    5.6884   -0.3054    2.1925 C   0  0  0  0  0  0  0  0  0  0  0  0
    7.3912   -0.3449    1.9914 S   0  0  0  0  0  0  0  0  0  0  0  0
    7.1764   -0.5035    0.2979 C   0  0  0  0  0  0  0  0  0  0  0  0
    8.2253   -0.5900   -0.5375 N   0  0  0  0  0  0  0  0  0  0  0  0
    5.9344   -0.5109   -0.1130 N   0  0  0  0  0  0  0  0  0  0  0  0
    2.7088   -0.6463    1.8008 C   0  0  0  0  0  0  0  0  0  0  0  0
    1.3278   -0.6294    1.5629 C   0  0  0  0  0  0  0  0  0  0  0  0
   -3.5572    2.3119   -0.0282 H   0  0  0  0  0  0  0  0  0  0  0  0
   -1.9483    1.9642    0.6182 H   0  0  0  0  0  0  0  0  0  0  0  0
   -3.3116    2.0609    1.7068 H   0  0  0  0  0  0  0  0  0  0  0  0
   -4.7418   -1.1452    0.9491 H   0  0  0  0  0  0  0  0  0  0  0  0
   -4.9730    0.3602    1.8012 H   0  0  0  0  0  0  0  0  0  0  0  0
   -6.6227    0.0391   -0.0489 H   0  0  0  0  0  0  0  0  0  0  0  0
   -5.6771    1.5009   -0.2768 H   0  0  0  0  0  0  0  0  0  0  0  0
   -5.7998    0.3596   -2.4187 H   0  0  0  0  0  0  0  0  0  0  0  0
   -5.3348   -1.1772   -1.6944 H   0  0  0  0  0  0  0  0  0  0  0  0
   -3.5682    1.2879   -2.0698 H   0  0  0  0  0  0  0  0  0  0  0  0
   -3.3994   -0.2787   -2.8363 H   0  0  0  0  0  0  0  0  0  0  0  0
   -2.9376   -1.3689   -0.6876 H   0  0  0  0  0  0  0  0  0  0  0  0
   -1.1391   -0.5334    0.9606 H   0  0  0  0  0  0  0  0  0  0  0  0
    1.3822    0.0504   -1.7703 H   0  0  0  0  0  0  0  0  0  0  0  0
    3.7763    0.0209   -1.3542 H   0  0  0  0  0  0  0  0  0  0  0  0
    5.2587   -0.1986    3.1769 H   0  0  0  0  0  0  0  0  0  0  0  0
    9.0992   -0.1863   -0.2248 H   0  0  0  0  0  0  0  0  0  0  0  0
    8.0083   -0.3898   -1.5077 H   0  0  0  0  0  0  0  0  0  0  0  0
    3.0512   -0.8644    2.8081 H   0  0  0  0  0  0  0  0  0  0  0  0
    0.6548   -0.8234    2.3944 H   0  0  0  0  0  0  0  0  0  0  0  0
  1  2  1  0
  2  3  1  0
  3  4  1  0
  4  5  1  0
  5  6  1  0
  6  7  1  0
  7  8  1  0
  8  9  2  0
  8 10  1  0
 10 11  1  0
 11 12  1  0
 12 13  2  0
 13 14  1  0
 14 15  1  0
 15 16  2  0
 16 17  1  0
 17 18  1  0
 18 19  1  0
 18 20  2  0
 14 21  2  0
 21 22  1  0
  7  2  1  0
 22 11  2  0
 20 15  1  0
  1 23  1  0
  1 24  1  0
  1 25  1  0
  3 26  1  0
  3 27  1  0
  4 28  1  0
  4 29  1  0
  5 30  1  0
  5 31  1  0
  6 32  1  0
  6 33  1  0
  7 34  1  0
 10 35  1  0
 12 36  1  0
 13 37  1  0
 16 38  1  0
 19 39  1  0
 19 40  1  0
 21 41  1  0
 22 42  1  0
M  END
$$$$
OCNT-2311636
     RDKit          3D

 61 65  0  0  0  0  0  0  0  0999 V2000
   -1.0913    2.0978    0.6810 C   0  0  0  0  0  0  0  0  0  0  0  0
    0.1703    1.2006    0.7492 C   0  0  0  0  0  0  0  0  0  0  0  0
    0.5381    1.0706    2.2516 C   0  0  0  0  0  0  0  0  0  0  0  0
    1.3511    1.8527   -0.0452 C   0  0  0  0  0  0  0  0  0  0  0  0
    1.8509    3.1926    0.4565 C   0  0  0  0  0  0  0  0  0  0  0  0
    2.9110    3.2611    1.3720 C   0  0  0  0  0  0  0  0  0  0  0  0
    3.3721    4.4954    1.8331 C   0  0  0  0  0  0  0  0  0  0  0  0
    2.7838    5.6743    1.3796 C   0  0  0  0  0  0  0  0  0  0  0  0
    1.7378    5.6202    0.4607 C   0  0  0  0  0  0  0  0  0  0  0  0
    1.2759    4.3866   -0.0015 C   0  0  0  0  0  0  0  0  0  0  0  0
   -0.1820   -0.2462    0.1797 C   0  0  0  0  0  0  0  0  0  0  0  0
    0.9882   -1.1501    0.2530 N   0  0  0  0  0  0  0  0  0  0  0  0
    0.7014   -2.5445   -0.0959 C   0  0  0  0  0  0  0  0  0  0  0  0
    1.9389   -3.4401    0.0653 C   0  0  0  0  0  0  0  0  0  0  0  0
    3.1108   -3.2233   -0.8561 C   0  0  0  0  0  0  0  0  0  0  0  0
    3.1461   -2.2740   -1.8746 C   0  0  0  0  0  0  0  0  0  0  0  0
    4.2144   -2.1119   -2.6976 N   0  0  0  0  0  0  0  0  0  0  0  0
    5.2591   -2.9338   -2.4649 C   0  0  0  0  0  0  0  0  0  0  0  0
    5.2407   -3.8794   -1.4584 C   0  0  0  0  0  0  0  0  0  0  0  0
    4.1759   -4.0463   -0.6402 N   0  0  0  0  0  0  0  0  0  0  0  0
   -0.7292   -0.1776   -1.2250 C   0  0  0  0  0  0  0  0  0  0  0  0
   -0.0109    0.0702   -2.3080 N   0  0  0  0  0  0  0  0  0  0  0  0
   -0.8916    0.3125   -3.3183 N   0  0  0  0  0  0  0  0  0  0  0  0
   -2.1373    0.2068   -2.8930 N   0  0  0  0  0  0  0  0  0  0  0  0
   -2.0671   -0.2210   -1.6076 N   0  0  0  0  0  0  0  0  0  0  0  0
   -3.2517   -0.6158   -0.9324 C   0  0  0  0  0  0  0  0  0  0  0  0
   -4.4938   -0.1003   -1.3857 C   0  0  0  0  0  0  0  0  0  0  0  0
   -5.6946   -0.4596   -0.7631 C   0  0  0  0  0  0  0  0  0  0  0  0
   -5.6292   -1.3442    0.2886 C   0  0  0  0  0  0  0  0  0  0  0  0
   -6.6852   -1.8123    1.0035 O   0  0  0  0  0  0  0  0  0  0  0  0
   -6.0201   -2.7055    1.9207 C   0  0  0  0  0  0  0  0  0  0  0  0
   -4.5864   -2.7390    1.7476 O   0  0  0  0  0  0  0  0  0  0  0  0
   -4.4324   -1.8666    0.7154 C   0  0  0  0  0  0  0  0  0  0  0  0
   -3.2287   -1.5331    0.1252 C   0  0  0  0  0  0  0  0  0  0  0  0
   -1.3447    2.3666   -0.3499 H   0  0  0  0  0  0  0  0  0  0  0  0
   -1.9572    1.5913    1.1227 H   0  0  0  0  0  0  0  0  0  0  0  0
   -0.9558    3.0325    1.2356 H   0  0  0  0  0  0  0  0  0  0  0  0
    1.5094    0.5868    2.3965 H   0  0  0  0  0  0  0  0  0  0  0  0
    0.5871    2.0490    2.7425 H   0  0  0  0  0  0  0  0  0  0  0  0
   -0.2141    0.4839    2.7918 H   0  0  0  0  0  0  0  0  0  0  0  0
    1.0670    1.9904   -1.0956 H   0  0  0  0  0  0  0  0  0  0  0  0
    2.2089    1.1674   -0.0696 H   0  0  0  0  0  0  0  0  0  0  0  0
    3.3891    2.3512    1.7279 H   0  0  0  0  0  0  0  0  0  0  0  0
    4.1950    4.5363    2.5418 H   0  0  0  0  0  0  0  0  0  0  0  0
    3.1459    6.6350    1.7356 H   0  0  0  0  0  0  0  0  0  0  0  0
    1.2849    6.5391    0.0975 H   0  0  0  0  0  0  0  0  0  0  0  0
    0.4669    4.3628   -0.7286 H   0  0  0  0  0  0  0  0  0  0  0  0
   -0.9303   -0.6460    0.8642 H   0  0  0  0  0  0  0  0  0  0  0  0
    1.4016   -1.1144    1.1837 H   0  0  0  0  0  0  0  0  0  0  0  0
   -0.0783   -2.9285    0.5720 H   0  0  0  0  0  0  0  0  0  0  0  0
    0.3274   -2.6294   -1.1222 H   0  0  0  0  0  0  0  0  0  0  0  0
    2.3025   -3.3625    1.0995 H   0  0  0  0  0  0  0  0  0  0  0  0
    1.6119   -4.4804   -0.0706 H   0  0  0  0  0  0  0  0  0  0  0  0
    2.3196   -1.5998   -2.0769 H   0  0  0  0  0  0  0  0  0  0  0  0
    6.1181   -2.8105   -3.1145 H   0  0  0  0  0  0  0  0  0  0  0  0
    6.0862   -4.5346   -1.2802 H   0  0  0  0  0  0  0  0  0  0  0  0
   -4.5379    0.6025   -2.2190 H   0  0  0  0  0  0  0  0  0  0  0  0
   -6.6450   -0.0574   -1.0992 H   0  0  0  0  0  0  0  0  0  0  0  0
   -6.4141   -3.7179    1.7740 H   0  0  0  0  0  0  0  0  0  0  0  0
   -6.2417   -2.3863    2.9458 H   0  0  0  0  0  0  0  0  0  0  0  0
   -2.3375   -2.0438    0.4619 H   0  0  0  0  0  0  0  0  0  0  0  0
  1  2  1  0
  2  3  1  0
  2  4  1  0
  4  5  1  0
  5  6  2  0
  6  7  1  0
  7  8  2  0
  8  9  1  0
  9 10  2  0
  2 11  1  0
 11 12  1  0
 12 13  1  0
 13 14  1  0
 14 15  1  0
 15 16  2  0
 16 17  1  0
 17 18  2  0
 18 19  1  0
 19 20  2  0
 11 21  1  0
 21 22  2  0
 22 23  1  0
 23 24  2  0
 24 25  1  0
 25 26  1  0
 26 27  1  0
 27 28  2  0
 28 29  1  0
 29 30  1  0
 30 31  1  0
 31 32  1  0
 32 33  1  0
 33 34  1  0
 10  5  1  0
 20 15  1  0
 25 21  1  0
 34 26  2  0
 33 29  2  0
  1 35  1  0
  1 36  1  0
  1 37  1  0
  3 38  1  0
  3 39  1  0
  3 40  1  0
  4 41  1  0
  4 42  1  0
  6 43  1  0
  7 44  1  0
  8 45  1  0
  9 46  1  0
 10 47  1  0
 11 48  1  0
 12 49  1  0
 13 50  1  0
 13 51  1  0
 14 52  1  0
 14 53  1  0
 16 54  1  0
 18 55  1  0
 19 56  1  0
 27 57  1  0
 28 58  1  0
 31 59  1  0
 31 60  1  0
 34 61  1  0
M  END
$$$$
OCNT-2311637
     RDKit          3D

 49 53  0  0  0  0  0  0  0  0999 V2000
    0.2693    2.7936   -2.1439 O   0  0  0  0  0  0  0  0  0  0  0  0
   -0.2133    1.7702   -1.6689 C   0  0  0  0  0  0  0  0  0  0  0  0
    0.5623    0.5214   -1.8213 C   0  0  0  0  0  0  0  0  0  0  0  0
    1.7732    0.4266   -1.1001 C   0  0  0  0  0  0  0  0  0  0  0  0
    2.4037   -0.7919   -1.3457 C   0  0  0  0  0  0  0  0  0  0  0  0
    3.5937   -1.2309   -0.8252 C   0  0  0  0  0  0  0  0  0  0  0  0
    4.5941   -0.7457    0.1148 C   0  0  0  0  0  0  0  0  0  0  0  0
    4.2195   -0.0577    1.2798 C   0  0  0  0  0  0  0  0  0  0  0  0
    5.1878    0.4053    2.1754 C   0  0  0  0  0  0  0  0  0  0  0  0
    6.5324    0.1785    1.9107 C   0  0  0  0  0  0  0  0  0  0  0  0
    7.4583    0.6220    2.7704 F   0  0  0  0  0  0  0  0  0  0  0  0
    6.9283   -0.5053    0.7691 C   0  0  0  0  0  0  0  0  0  0  0  0
    5.9606   -0.9685   -0.1261 C   0  0  0  0  0  0  0  0  0  0  0  0
    3.8462   -2.4649   -1.3598 O   0  0  0  0  0  0  0  0  0  0  0  0
    2.8303   -2.8439   -2.2183 N   0  0  0  0  0  0  0  0  0  0  0  0
    1.9436   -1.8374   -2.2323 C   0  0  0  0  0  0  0  0  0  0  0  0
    0.7421   -1.7028   -2.9510 C   0  0  0  0  0  0  0  0  0  0  0  0
    0.0704   -0.4828   -2.7183 C   0  0  0  0  0  0  0  0  0  0  0  0
   -1.4217    1.7262   -0.9837 N   0  0  0  0  0  0  0  0  0  0  0  0
   -2.3045    2.8913   -1.0703 C   0  0  0  0  0  0  0  0  0  0  0  0
   -3.1365    3.0667    0.2010 C   0  0  0  0  0  0  0  0  0  0  0  0
   -3.8491    1.8640    0.5235 O   0  0  0  0  0  0  0  0  0  0  0  0
   -2.9297    0.7838    0.7724 C   0  0  0  0  0  0  0  0  0  0  0  0
   -3.6994   -0.4578    1.1815 C   0  0  0  0  0  0  0  0  0  0  0  0
   -4.9615   -0.7481    0.6349 C   0  0  0  0  0  0  0  0  0  0  0  0
   -5.6439   -1.9096    1.0000 C   0  0  0  0  0  0  0  0  0  0  0  0
   -5.0656   -2.7867    1.9083 C   0  0  0  0  0  0  0  0  0  0  0  0
   -5.7197   -3.9021    2.2576 F   0  0  0  0  0  0  0  0  0  0  0  0
   -3.8172   -2.5249    2.4588 C   0  0  0  0  0  0  0  0  0  0  0  0
   -3.1330   -1.3633    2.0957 C   0  0  0  0  0  0  0  0  0  0  0  0
   -2.0653    0.5042   -0.4772 C   0  0  0  0  0  0  0  0  0  0  0  0
    2.1422    1.2216   -0.4666 H   0  0  0  0  0  0  0  0  0  0  0  0
    3.1715    0.1104    1.5148 H   0  0  0  0  0  0  0  0  0  0  0  0
    4.9015    0.9355    3.0783 H   0  0  0  0  0  0  0  0  0  0  0  0
    7.9839   -0.6748    0.5813 H   0  0  0  0  0  0  0  0  0  0  0  0
    6.2829   -1.5012   -1.0196 H   0  0  0  0  0  0  0  0  0  0  0  0
    0.3773   -2.4615   -3.6303 H   0  0  0  0  0  0  0  0  0  0  0  0
   -0.8584   -0.2927   -3.2575 H   0  0  0  0  0  0  0  0  0  0  0  0
   -2.9670    2.7100   -1.9252 H   0  0  0  0  0  0  0  0  0  0  0  0
   -1.7335    3.8025   -1.2741 H   0  0  0  0  0  0  0  0  0  0  0  0
   -2.5036    3.3471    1.0513 H   0  0  0  0  0  0  0  0  0  0  0  0
   -3.8738    3.8627    0.0573 H   0  0  0  0  0  0  0  0  0  0  0  0
   -2.2873    1.0904    1.6092 H   0  0  0  0  0  0  0  0  0  0  0  0
   -5.4227   -0.0620   -0.0736 H   0  0  0  0  0  0  0  0  0  0  0  0
   -6.6213   -2.1323    0.5844 H   0  0  0  0  0  0  0  0  0  0  0  0
   -3.3866   -3.2256    3.1671 H   0  0  0  0  0  0  0  0  0  0  0  0
   -2.1565   -1.1688    2.5345 H   0  0  0  0  0  0  0  0  0  0  0  0
   -1.3159   -0.2585   -0.2452 H   0  0  0  0  0  0  0  0  0  0  0  0
   -2.6879    0.1263   -1.2982 H   0  0  0  0  0  0  0  0  0  0  0  0
  1  2  2  0
  2  3  1  0
  3  4  2  0
  4  5  1  0
  5  6  2  0
  6  7  1  0
  7  8  1  0
  8  9  2  0
  9 10  1  0
 10 11  1  0
 10 12  2  0
 12 13  1  0
  6 14  1  0
 14 15  1  0
 15 16  2  0
 16 17  1  0
 17 18  2  0
  2 19  1  0
 19 20  1  0
 20 21  1  0
 21 22  1  0
 22 23  1  0
 23 24  1  0
 24 25  1  0
 25 26  2  0
 26 27  1  0
 27 28  1  0
 27 29  2  0
 29 30  1  0
 23 31  1  0
 18  3  1  0
 31 19  1  0
 16  5  1  0
 30 24  2  0
 13  7  2  0
  4 32  1  0
  8 33  1  0
  9 34  1  0
 12 35  1  0
 13 36  1  0
 17 37  1  0
 18 38  1  0
 20 39  1  0
 20 40  1  0
 21 41  1  0
 21 42  1  0
 23 43  1  0
 25 44  1  0
 26 45  1  0
 29 46  1  0
 30 47  1  0
 31 48  1  0
 31 49  1  0
M  END
$$$$
OCNT-2311638
     RDKit          3D

 48 51  0  0  0  0  0  0  0  0999 V2000
   -4.3951    2.9029   -0.3138 C   0  0  0  0  0  0  0  0  0  0  0  0
   -3.6487    1.6875   -0.2648 O   0  0  0  0  0  0  0  0  0  0  0  0
   -2.8235    1.5888    0.8196 C   0  0  0  0  0  0  0  0  0  0  0  0
   -2.7566    2.4282    1.7098 O   0  0  0  0  0  0  0  0  0  0  0  0
   -2.0491    0.3575    0.8283 C   0  0  0  0  0  0  0  0  0  0  0  0
   -2.3468   -0.8487    0.2106 C   0  0  0  0  0  0  0  0  0  0  0  0
   -3.4785   -1.2929   -0.6553 C   0  0  0  0  0  0  0  0  0  0  0  0
   -3.5886   -2.8200   -0.7230 C   0  0  0  0  0  0  0  0  0  0  0  0
   -2.2182   -3.4632   -0.9412 C   0  0  0  0  0  0  0  0  0  0  0  0
   -1.2723   -3.1112    0.2053 C   0  0  0  0  0  0  0  0  0  0  0  0
   -1.3298   -1.7001    0.5415 N   0  0  0  0  0  0  0  0  0  0  0  0
   -0.3800   -1.1465    1.3077 N   0  0  0  0  0  0  0  0  0  0  0  0
   -0.8076    0.1153    1.4905 C   0  0  0  0  0  0  0  0  0  0  0  0
    0.0191    1.0792    2.2836 C   0  0  0  0  0  0  0  0  0  0  0  0
    1.2243    1.4192    1.5491 N   0  0  0  0  0  0  0  0  0  0  0  0
    1.2137    2.3548    0.5422 C   0  0  0  0  0  0  0  0  0  0  0  0
    0.1890    2.9464    0.2166 O   0  0  0  0  0  0  0  0  0  0  0  0
    2.4864    2.6720   -0.0318 C   0  0  0  0  0  0  0  0  0  0  0  0
    2.9305    3.9462   -0.3320 C   0  0  0  0  0  0  0  0  0  0  0  0
    4.2355    3.9164   -0.6996 N   0  0  0  0  0  0  0  0  0  0  0  0
    4.6292    2.6540   -0.6687 N   0  0  0  0  0  0  0  0  0  0  0  0
    3.5517    1.8662   -0.3966 N   0  0  0  0  0  0  0  0  0  0  0  0
    3.6580    0.4566   -0.5543 C   0  0  0  0  0  0  0  0  0  0  0  0
    2.5294   -0.3592   -0.6864 C   0  0  0  0  0  0  0  0  0  0  0  0
    2.6788   -1.7410   -0.8405 C   0  0  0  0  0  0  0  0  0  0  0  0
    3.9472   -2.3156   -0.8781 C   0  0  0  0  0  0  0  0  0  0  0  0
    5.0759   -1.5083   -0.7768 C   0  0  0  0  0  0  0  0  0  0  0  0
    4.9353   -0.1274   -0.6232 C   0  0  0  0  0  0  0  0  0  0  0  0
   -4.9841    2.9027   -1.2354 H   0  0  0  0  0  0  0  0  0  0  0  0
   -5.0827    2.9632    0.5360 H   0  0  0  0  0  0  0  0  0  0  0  0
   -3.7250    3.7681   -0.3346 H   0  0  0  0  0  0  0  0  0  0  0  0
   -4.4260   -0.8849   -0.2864 H   0  0  0  0  0  0  0  0  0  0  0  0
   -3.3220   -0.8949   -1.6656 H   0  0  0  0  0  0  0  0  0  0  0  0
   -4.2712   -3.1039   -1.5318 H   0  0  0  0  0  0  0  0  0  0  0  0
   -4.0217   -3.2001    0.2117 H   0  0  0  0  0  0  0  0  0  0  0  0
   -2.3165   -4.5520   -1.0198 H   0  0  0  0  0  0  0  0  0  0  0  0
   -1.7982   -3.1065   -1.8910 H   0  0  0  0  0  0  0  0  0  0  0  0
   -1.5473   -3.6574    1.1153 H   0  0  0  0  0  0  0  0  0  0  0  0
   -0.2398   -3.3604   -0.0571 H   0  0  0  0  0  0  0  0  0  0  0  0
    0.3315    0.6173    3.2267 H   0  0  0  0  0  0  0  0  0  0  0  0
   -0.5191    1.9981    2.5257 H   0  0  0  0  0  0  0  0  0  0  0  0
    2.0497    0.8738    1.7523 H   0  0  0  0  0  0  0  0  0  0  0  0
    2.3853    4.8763   -0.2423 H   0  0  0  0  0  0  0  0  0  0  0  0
    1.5186    0.0380   -0.7092 H   0  0  0  0  0  0  0  0  0  0  0  0
    1.7978   -2.3695   -0.9386 H   0  0  0  0  0  0  0  0  0  0  0  0
    4.0554   -3.3910   -0.9966 H   0  0  0  0  0  0  0  0  0  0  0  0
    6.0682   -1.9511   -0.8184 H   0  0  0  0  0  0  0  0  0  0  0  0
    5.8381    0.4771   -0.5472 H   0  0  0  0  0  0  0  0  0  0  0  0
  1  2  1  0
  2  3  1  0
  3  4  2  0
  3  5  1  0
  5  6  2  0
  6  7  1  0
  7  8  1  0
  8  9  1  0
  9 10  1  0
 10 11  1  0
 11 12  1  0
 12 13  2  0
 13 14  1  0
 14 15  1  0
 15 16  1  0
 16 17  2  0
 16 18  1  0
 18 19  2  0
 19 20  1  0
 20 21  2  0
 21 22  1  0
 22 23  1  0
 23 24  2  0
 24 25  1  0
 25 26  2  0
 26 27  1  0
 27 28  2  0
 13  5  1  0
 22 18  1  0
 28 23  1  0
 11  6  1  0
  1 29  1  0
  1 30  1  0
  1 31  1  0
  7 32  1  0
  7 33  1  0
  8 34  1  0
  8 35  1  0
  9 36  1  0
  9 37  1  0
 10 38  1  0
 10 39  1  0
 14 40  1  0
 14 41  1  0
 15 42  1  0
 19 43  1  0
 24 44  1  0
 25 45  1  0
 26 46  1  0
 27 47  1  0
 28 48  1  0
M  END
$$$$
OCNT-2311652
     RDKit          3D

 50 52  0  0  0  0  0  0  0  0999 V2000
   -5.7707   -0.9763   -0.6693 C   0  0  0  0  0  0  0  0  0  0  0  0
   -4.5178   -0.1064   -0.5593 C   0  0  0  0  0  0  0  0  0  0  0  0
   -4.4892    0.9310   -1.6841 C   0  0  0  0  0  0  0  0  0  0  0  0
   -4.4314    0.5388    0.7997 C   0  0  0  0  0  0  0  0  0  0  0  0
   -3.5779    0.1986    1.8381 C   0  0  0  0  0  0  0  0  0  0  0  0
   -2.5393   -0.8046    1.9020 C   0  0  0  0  0  0  0  0  0  0  0  0
   -2.6405   -1.7949    2.6260 O   0  0  0  0  0  0  0  0  0  0  0  0
   -1.4100   -0.6149    1.0949 N   0  0  0  0  0  0  0  0  0  0  0  0
   -1.0786    0.6458    0.4260 C   0  0  0  0  0  0  0  0  0  0  0  0
    0.4280    0.8798    0.4014 C   0  0  0  0  0  0  0  0  0  0  0  0
    1.1741   -0.2423   -0.3474 C   0  0  0  0  0  0  0  0  0  0  0  0
    2.6518   -0.2651    0.0962 C   0  0  0  0  0  0  0  0  0  0  0  0
    3.5573   -1.0638   -0.8520 C   0  0  0  0  0  0  0  0  0  0  0  0
    5.0156   -1.1014   -0.3898 C   0  0  0  0  0  0  0  0  0  0  0  0
    5.6773    0.1842   -0.4461 N   0  0  0  0  0  0  0  0  0  0  0  0
    6.1730    0.7893   -1.5680 C   0  0  0  0  0  0  0  0  0  0  0  0
    6.7150    1.9718   -1.1208 C   0  0  0  0  0  0  0  0  0  0  0  0
    6.5681    2.0912    0.2384 N   0  0  0  0  0  0  0  0  0  0  0  0
    5.9499    0.9953    0.6184 C   0  0  0  0  0  0  0  0  0  0  0  0
    0.4700   -1.6035   -0.1738 C   0  0  0  0  0  0  0  0  0  0  0  0
   -0.3966   -1.6646    1.0803 C   0  0  0  0  0  0  0  0  0  0  0  0
   -3.9391    1.1290    3.2316 S   0  0  0  0  0  0  0  0  0  0  0  0
   -5.1551    1.9464    2.3483 C   0  0  0  0  0  0  0  0  0  0  0  0
   -5.3183    1.5677    1.1009 N   0  0  0  0  0  0  0  0  0  0  0  0
   -6.6851   -0.3786   -0.5739 H   0  0  0  0  0  0  0  0  0  0  0  0
   -5.7884   -1.7388    0.1170 H   0  0  0  0  0  0  0  0  0  0  0  0
   -5.8039   -1.4901   -1.6347 H   0  0  0  0  0  0  0  0  0  0  0  0
   -3.6507   -0.7634   -0.7000 H   0  0  0  0  0  0  0  0  0  0  0  0
   -3.5916    1.5572   -1.6197 H   0  0  0  0  0  0  0  0  0  0  0  0
   -4.4873    0.4399   -2.6643 H   0  0  0  0  0  0  0  0  0  0  0  0
   -5.3612    1.5952   -1.6437 H   0  0  0  0  0  0  0  0  0  0  0  0
   -1.4675    0.5869   -0.5963 H   0  0  0  0  0  0  0  0  0  0  0  0
   -1.5662    1.4866    0.9271 H   0  0  0  0  0  0  0  0  0  0  0  0
    0.7911    0.9482    1.4355 H   0  0  0  0  0  0  0  0  0  0  0  0
    0.6474    1.8436   -0.0727 H   0  0  0  0  0  0  0  0  0  0  0  0
    1.1526    0.0022   -1.4191 H   0  0  0  0  0  0  0  0  0  0  0  0
    2.7272   -0.6728    1.1122 H   0  0  0  0  0  0  0  0  0  0  0  0
    3.0163    0.7685    0.1408 H   0  0  0  0  0  0  0  0  0  0  0  0
    3.4953   -0.6359   -1.8596 H   0  0  0  0  0  0  0  0  0  0  0  0
    3.2046   -2.0972   -0.9253 H   0  0  0  0  0  0  0  0  0  0  0  0
    5.5907   -1.7806   -1.0316 H   0  0  0  0  0  0  0  0  0  0  0  0
    5.0906   -1.4794    0.6355 H   0  0  0  0  0  0  0  0  0  0  0  0
    6.1037    0.3501   -2.5533 H   0  0  0  0  0  0  0  0  0  0  0  0
    7.2060    2.7413   -1.7032 H   0  0  0  0  0  0  0  0  0  0  0  0
    5.6765    0.7482    1.6373 H   0  0  0  0  0  0  0  0  0  0  0  0
   -0.1774   -1.7675   -1.0459 H   0  0  0  0  0  0  0  0  0  0  0  0
    1.1829   -2.4331   -0.1629 H   0  0  0  0  0  0  0  0  0  0  0  0
    0.2185   -1.5450    1.9812 H   0  0  0  0  0  0  0  0  0  0  0  0
   -0.8846   -2.6442    1.1439 H   0  0  0  0  0  0  0  0  0  0  0  0
   -5.7549    2.7276    2.7973 H   0  0  0  0  0  0  0  0  0  0  0  0
  1  2  1  0
  2  3  1  0
  2  4  1  0
  4  5  2  0
  5  6  1  0
  6  7  2  0
  6  8  1  0
  8  9  1  0
  9 10  1  0
 10 11  1  0
 11 12  1  0
 12 13  1  0
 13 14  1  0
 14 15  1  0
 15 16  1  0
 16 17  2  0
 17 18  1  0
 18 19  2  0
 11 20  1  0
 20 21  1  0
  5 22  1  0
 22 23  1  0
 23 24  2  0
 24  4  1  0
 21  8  1  0
 19 15  1  0
  1 25  1  0
  1 26  1  0
  1 27  1  0
  2 28  1  0
  3 29  1  0
  3 30  1  0
  3 31  1  0
  9 32  1  0
  9 33  1  0
 10 34  1  0
 10 35  1  0
 11 36  1  0
 12 37  1  0
 12 38  1  0
 13 39  1  0
 13 40  1  0
 14 41  1  0
 14 42  1  0
 16 43  1  0
 17 44  1  0
 19 45  1  0
 20 46  1  0
 20 47  1  0
 21 48  1  0
 21 49  1  0
 23 50  1  0
M  END
$$$$
OCNT-2311653
     RDKit          3D

 41 43  0  0  0  0  0  0  0  0999 V2000
    2.0004   -2.7297   -1.0235 O   0  0  0  0  0  0  0  0  0  0  0  0
    1.5269   -1.6894   -1.4715 C   0  0  0  0  0  0  0  0  0  0  0  0
    2.3584   -0.6906   -2.2504 C   0  0  0  0  0  0  0  0  0  0  0  0
    2.8596    0.4323   -1.3805 C   0  0  0  0  0  0  0  0  0  0  0  0
    4.0651    0.3126   -0.6745 C   0  0  0  0  0  0  0  0  0  0  0  0
    4.5048    1.3556    0.1432 C   0  0  0  0  0  0  0  0  0  0  0  0
    3.7406    2.5127    0.2545 C   0  0  0  0  0  0  0  0  0  0  0  0
    4.1641    3.5096    1.0419 F   0  0  0  0  0  0  0  0  0  0  0  0
    2.5399    2.6462   -0.4267 C   0  0  0  0  0  0  0  0  0  0  0  0
    2.1050    1.6004   -1.2300 C   0  0  0  0  0  0  0  0  0  0  0  0
    0.9243    1.7120   -1.8569 F   0  0  0  0  0  0  0  0  0  0  0  0
    0.2081   -1.3246   -1.3142 N   0  0  0  0  0  0  0  0  0  0  0  0
   -0.6583   -2.0984   -0.4570 C   0  0  0  0  0  0  0  0  0  0  0  0
   -2.0818   -1.6005   -0.5360 C   0  0  0  0  0  0  0  0  0  0  0  0
   -2.9299   -2.1622   -1.5096 C   0  0  0  0  0  0  0  0  0  0  0  0
   -4.2454   -1.7256   -1.6538 C   0  0  0  0  0  0  0  0  0  0  0  0
   -4.7330   -0.7136   -0.8343 C   0  0  0  0  0  0  0  0  0  0  0  0
   -3.9023   -0.1367    0.1266 C   0  0  0  0  0  0  0  0  0  0  0  0
   -2.5709   -0.5630    0.2914 C   0  0  0  0  0  0  0  0  0  0  0  0
   -1.7445    0.0885    1.3123 C   0  0  0  0  0  0  0  0  0  0  0  0
   -1.0988    1.3046    1.0661 C   0  0  0  0  0  0  0  0  0  0  0  0
   -0.3230    1.8952    2.0608 C   0  0  0  0  0  0  0  0  0  0  0  0
   -0.2170    1.2507    3.2815 C   0  0  0  0  0  0  0  0  0  0  0  0
   -0.8289    0.0829    3.5664 N   0  0  0  0  0  0  0  0  0  0  0  0
   -1.5766   -0.4669    2.5800 C   0  0  0  0  0  0  0  0  0  0  0  0
    3.2022   -1.2224   -2.7068 H   0  0  0  0  0  0  0  0  0  0  0  0
    1.7700   -0.2982   -3.0889 H   0  0  0  0  0  0  0  0  0  0  0  0
    4.6600   -0.5961   -0.7477 H   0  0  0  0  0  0  0  0  0  0  0  0
    5.4351    1.2706    0.6969 H   0  0  0  0  0  0  0  0  0  0  0  0
    1.9492    3.5485   -0.3267 H   0  0  0  0  0  0  0  0  0  0  0  0
   -0.0341   -0.3532   -1.4682 H   0  0  0  0  0  0  0  0  0  0  0  0
   -0.6030   -3.1515   -0.7599 H   0  0  0  0  0  0  0  0  0  0  0  0
   -0.2661   -2.0604    0.5648 H   0  0  0  0  0  0  0  0  0  0  0  0
   -2.5601   -2.9480   -2.1654 H   0  0  0  0  0  0  0  0  0  0  0  0
   -4.8879   -2.1743   -2.4077 H   0  0  0  0  0  0  0  0  0  0  0  0
   -5.7587   -0.3702   -0.9427 H   0  0  0  0  0  0  0  0  0  0  0  0
   -4.3017    0.6571    0.7574 H   0  0  0  0  0  0  0  0  0  0  0  0
   -1.1995    1.7949    0.1012 H   0  0  0  0  0  0  0  0  0  0  0  0
    0.1853    2.8367    1.8902 H   0  0  0  0  0  0  0  0  0  0  0  0
    0.3781    1.6706    4.0870 H   0  0  0  0  0  0  0  0  0  0  0  0
   -2.0554   -1.4065    2.8465 H   0  0  0  0  0  0  0  0  0  0  0  0
  1  2  2  0
  2  3  1  0
  3  4  1  0
  4  5  1  0
  5  6  2  0
  6  7  1  0
  7  8  1  0
  7  9  2  0
  9 10  1  0
 10 11  1  0
  2 12  1  0
 12 13  1  0
 13 14  1  0
 14 15  2  0
 15 16  1  0
 16 17  2  0
 17 18  1  0
 18 19  2  0
 19 20  1  0
 20 21  1  0
 21 22  2  0
 22 23  1  0
 23 24  2  0
 24 25  1  0
 10  4  2  0
 19 14  1  0
 25 20  2  0
  3 26  1  0
  3 27  1  0
  5 28  1  0
  6 29  1  0
  9 30  1  0
 12 31  1  0
 13 32  1  0
 13 33  1  0
 15 34  1  0
 16 35  1  0
 17 36  1  0
 18 37  1  0
 21 38  1  0
 22 39  1  0
 23 40  1  0
 25 41  1  0
M  END
$$$$
OCNT-2311655
     RDKit          3D

 40 43  0  0  0  0  0  0  0  0999 V2000
    1.7422   -1.9613    1.1031 O   0  0  0  0  0  0  0  0  0  0  0  0
    1.4909   -0.9070    0.5270 C   0  0  0  0  0  0  0  0  0  0  0  0
    0.2250   -0.5480    0.0804 N   0  0  0  0  0  0  0  0  0  0  0  0
   -0.9866   -1.2534    0.2460 C   0  0  0  0  0  0  0  0  0  0  0  0
   -1.1159   -2.4281    0.9867 C   0  0  0  0  0  0  0  0  0  0  0  0
   -2.3571   -3.0597    1.1039 C   0  0  0  0  0  0  0  0  0  0  0  0
   -3.4821   -2.5225    0.4828 C   0  0  0  0  0  0  0  0  0  0  0  0
   -3.3800   -1.3418   -0.2626 C   0  0  0  0  0  0  0  0  0  0  0  0
   -4.5971   -0.7592   -0.9385 C   0  0  0  0  0  0  0  0  0  0  0  0
   -5.5675   -0.2592    0.0265 N   0  0  0  0  0  0  0  0  0  0  0  0
   -5.4729    0.8888    0.7651 C   0  0  0  0  0  0  0  0  0  0  0  0
   -6.6284    0.9616    1.5064 C   0  0  0  0  0  0  0  0  0  0  0  0
   -7.3635   -0.1784    1.1344 C   0  0  0  0  0  0  0  0  0  0  0  0
   -6.7284   -0.9200    0.2236 N   0  0  0  0  0  0  0  0  0  0  0  0
   -2.1261   -0.7159   -0.3732 C   0  0  0  0  0  0  0  0  0  0  0  0
    2.5228    0.0880    0.2253 C   0  0  0  0  0  0  0  0  0  0  0  0
    2.4132    1.4368   -0.0727 C   0  0  0  0  0  0  0  0  0  0  0  0
    3.6802    2.0488   -0.3120 C   0  0  0  0  0  0  0  0  0  0  0  0
    4.7197    1.1565   -0.1782 C   0  0  0  0  0  0  0  0  0  0  0  0
    6.2272    1.5441   -0.3807 C   0  0  0  0  0  0  0  0  0  0  0  0
    6.6005    2.7887   -0.7094 N   0  0  0  0  0  0  0  0  0  0  0  0
    7.9390    2.7155   -0.7858 N   0  0  0  0  0  0  0  0  0  0  0  0
    8.4330    1.4729   -0.5221 C   0  0  0  0  0  0  0  0  0  0  0  0
    7.3408    0.6833   -0.2533 C   0  0  0  0  0  0  0  0  0  0  0  0
    4.1721   -0.4002    0.2365 S   0  0  0  0  0  0  0  0  0  0  0  0
    0.1675    0.2896   -0.4792 H   0  0  0  0  0  0  0  0  0  0  0  0
   -0.2720   -2.8837    1.4951 H   0  0  0  0  0  0  0  0  0  0  0  0
   -2.4431   -3.9740    1.6864 H   0  0  0  0  0  0  0  0  0  0  0  0
   -4.4425   -3.0259    0.5899 H   0  0  0  0  0  0  0  0  0  0  0  0
   -5.0853   -1.5169   -1.5625 H   0  0  0  0  0  0  0  0  0  0  0  0
   -4.3337    0.0828   -1.5890 H   0  0  0  0  0  0  0  0  0  0  0  0
   -4.6068    1.5326    0.7102 H   0  0  0  0  0  0  0  0  0  0  0  0
   -6.9030    1.7285    2.2160 H   0  0  0  0  0  0  0  0  0  0  0  0
   -8.3361   -0.4977    1.4863 H   0  0  0  0  0  0  0  0  0  0  0  0
   -2.0445    0.2007   -0.9532 H   0  0  0  0  0  0  0  0  0  0  0  0
    1.4800    1.9843   -0.1051 H   0  0  0  0  0  0  0  0  0  0  0  0
    3.8255    3.0940   -0.5606 H   0  0  0  0  0  0  0  0  0  0  0  0
    8.4537    3.5570   -1.0243 H   0  0  0  0  0  0  0  0  0  0  0  0
    9.4931    1.2655   -0.5473 H   0  0  0  0  0  0  0  0  0  0  0  0
    7.3465   -0.3671    0.0008 H   0  0  0  0  0  0  0  0  0  0  0  0
  1  2  2  0
  2  3  1  0
  3  4  1  0
  4  5  1  0
  5  6  2  0
  6  7  1  0
  7  8  2  0
  8  9  1  0
  9 10  1  0
 10 11  1  0
 11 12  2  0
 12 13  1  0
 13 14  2  0
  8 15  1  0
  2 16  1  0
 16 17  2  0
 17 18  1  0
 18 19  2  0
 19 20  1  0
 20 21  2  0
 21 22  1  0
 22 23  1  0
 23 24  2  0
 19 25  1  0
 15  4  2  0
 25 16  1  0
 14 10  1  0
 24 20  1  0
  3 26  1  0
  5 27  1  0
  6 28  1  0
  7 29  1  0
  9 30  1  0
  9 31  1  0
 11 32  1  0
 12 33  1  0
 13 34  1  0
 15 35  1  0
 17 36  1  0
 18 37  1  0
 22 38  1  0
 23 39  1  0
 24 40  1  0
M  END
$$$$
OCNT-2311661
     RDKit          3D

 50 52  0  0  0  0  0  0  0  0999 V2000
   -3.7827   -2.0566   -0.0769 C   0  0  0  0  0  0  0  0  0  0  0  0
   -3.0120   -1.8329   -1.3965 C   0  0  0  0  0  0  0  0  0  0  0  0
   -3.9138   -2.3167   -2.5509 C   0  0  0  0  0  0  0  0  0  0  0  0
   -1.7126   -2.6610   -1.4031 C   0  0  0  0  0  0  0  0  0  0  0  0
   -0.7002   -2.2249   -0.3426 C   0  0  0  0  0  0  0  0  0  0  0  0
   -0.6487   -0.7020   -0.1099 C   0  0  0  0  0  0  0  0  0  0  0  0
    0.7224   -0.2884    0.1871 N   0  0  0  0  0  0  0  0  0  0  0  0
    1.3034   -0.5000    1.4194 C   0  0  0  0  0  0  0  0  0  0  0  0
    0.7383   -1.0704    2.3442 O   0  0  0  0  0  0  0  0  0  0  0  0
    2.7182    0.0322    1.5000 C   0  0  0  0  0  0  0  0  0  0  0  0
    3.3245   -0.1847    2.8851 C   0  0  0  0  0  0  0  0  0  0  0  0
    4.7797    0.1733    2.9362 C   0  0  0  0  0  0  0  0  0  0  0  0
    5.4637    1.2320    2.3657 C   0  0  0  0  0  0  0  0  0  0  0  0
    6.8257    1.2670    2.5923 N   0  0  0  0  0  0  0  0  0  0  0  0
    7.1605    0.2487    3.3543 C   0  0  0  0  0  0  0  0  0  0  0  0
    5.8855   -0.7928    3.8335 S   0  0  0  0  0  0  0  0  0  0  0  0
   -1.2358    0.0745   -1.3135 C   0  0  0  0  0  0  0  0  0  0  0  0
   -1.1243    1.5913   -1.2015 C   0  0  0  0  0  0  0  0  0  0  0  0
   -1.4579    2.2746   -0.0220 C   0  0  0  0  0  0  0  0  0  0  0  0
   -1.3556    3.6656    0.0487 C   0  0  0  0  0  0  0  0  0  0  0  0
   -0.9281    4.3932   -1.0594 C   0  0  0  0  0  0  0  0  0  0  0  0
   -0.6045    3.7307   -2.2406 C   0  0  0  0  0  0  0  0  0  0  0  0
   -0.7043    2.3395   -2.3128 C   0  0  0  0  0  0  0  0  0  0  0  0
   -2.7053   -0.3207   -1.5845 C   0  0  0  0  0  0  0  0  0  0  0  0
   -3.2408   -1.6685    0.7880 H   0  0  0  0  0  0  0  0  0  0  0  0
   -3.9679   -3.1224    0.0965 H   0  0  0  0  0  0  0  0  0  0  0  0
   -4.7550   -1.5542   -0.0997 H   0  0  0  0  0  0  0  0  0  0  0  0
   -4.8473   -1.7397   -2.5908 H   0  0  0  0  0  0  0  0  0  0  0  0
   -3.4124   -2.2058   -3.5221 H   0  0  0  0  0  0  0  0  0  0  0  0
   -4.1773   -3.3770   -2.4331 H   0  0  0  0  0  0  0  0  0  0  0  0
   -1.2377   -2.5763   -2.3907 H   0  0  0  0  0  0  0  0  0  0  0  0
   -1.9321   -3.7285   -1.2699 H   0  0  0  0  0  0  0  0  0  0  0  0
   -0.9331   -2.7182    0.6106 H   0  0  0  0  0  0  0  0  0  0  0  0
    0.2858   -2.6091   -0.6364 H   0  0  0  0  0  0  0  0  0  0  0  0
   -1.2425   -0.4811    0.7864 H   0  0  0  0  0  0  0  0  0  0  0  0
    1.2271    0.2443   -0.5127 H   0  0  0  0  0  0  0  0  0  0  0  0
    2.6980    1.1016    1.2565 H   0  0  0  0  0  0  0  0  0  0  0  0
    3.3171   -0.4799    0.7361 H   0  0  0  0  0  0  0  0  0  0  0  0
    2.7827    0.4163    3.6273 H   0  0  0  0  0  0  0  0  0  0  0  0
    3.1900   -1.2344    3.1777 H   0  0  0  0  0  0  0  0  0  0  0  0
    5.0191    2.0170    1.7659 H   0  0  0  0  0  0  0  0  0  0  0  0
    8.1803    0.0723    3.6644 H   0  0  0  0  0  0  0  0  0  0  0  0
   -0.6429   -0.2216   -2.1925 H   0  0  0  0  0  0  0  0  0  0  0  0
   -1.8056    1.7344    0.8561 H   0  0  0  0  0  0  0  0  0  0  0  0
   -1.6199    4.1804    0.9702 H   0  0  0  0  0  0  0  0  0  0  0  0
   -0.8556    5.4761   -1.0046 H   0  0  0  0  0  0  0  0  0  0  0  0
   -0.2818    4.2979   -3.1100 H   0  0  0  0  0  0  0  0  0  0  0  0
   -0.4576    1.8447   -3.2497 H   0  0  0  0  0  0  0  0  0  0  0  0
   -2.9454   -0.0094   -2.6130 H   0  0  0  0  0  0  0  0  0  0  0  0
   -3.3815    0.2692   -0.9477 H   0  0  0  0  0  0  0  0  0  0  0  0
  1  2  1  0
  2  3  1  0
  2  4  1  0
  4  5  1  0
  5  6  1  0
  6  7  1  0
  7  8  1  0
  8  9  2  0
  8 10  1  0
 10 11  1  0
 11 12  1  0
 12 13  2  0
 13 14  1  0
 14 15  2  0
 15 16  1  0
  6 17  1  0
 17 18  1  0
 18 19  2  0
 19 20  1  0
 20 21  2  0
 21 22  1  0
 22 23  2  0
 17 24  1  0
 24  2  1  0
 16 12  1  0
 23 18  1  0
  1 25  1  0
  1 26  1  0
  1 27  1  0
  3 28  1  0
  3 29  1  0
  3 30  1  0
  4 31  1  0
  4 32  1  0
  5 33  1  0
  5 34  1  0
  6 35  1  0
  7 36  1  0
 10 37  1  0
 10 38  1  0
 11 39  1  0
 11 40  1  0
 13 41  1  0
 15 42  1  0
 17 43  1  0
 19 44  1  0
 20 45  1  0
 21 46  1  0
 22 47  1  0
 23 48  1  0
 24 49  1  0
 24 50  1  0
M  END
$$$$
OCNT-2311662
     RDKit          3D

 61 65  0  0  0  0  0  0  0  0999 V2000
   -2.0523   -1.0095   -2.0756 C   0  0  0  0  0  0  0  0  0  0  0  0
   -2.7793    0.3376   -1.8425 C   0  0  0  0  0  0  0  0  0  0  0  0
   -3.6295    0.6081   -3.1121 C   0  0  0  0  0  0  0  0  0  0  0  0
   -1.6245    1.4000   -1.7916 C   0  0  0  0  0  0  0  0  0  0  0  0
   -1.4797    2.1940   -2.7294 O   0  0  0  0  0  0  0  0  0  0  0  0
   -0.7312    1.4283   -0.7184 N   0  0  0  0  0  0  0  0  0  0  0  0
   -0.8259    0.6478    0.5156 C   0  0  0  0  0  0  0  0  0  0  0  0
    0.5530    0.2018    0.9884 C   0  0  0  0  0  0  0  0  0  0  0  0
    1.4956    1.3908    1.2441 C   0  0  0  0  0  0  0  0  0  0  0  0
    2.9210    1.0411    0.8002 C   0  0  0  0  0  0  0  0  0  0  0  0
    3.4700    1.6254   -0.1261 O   0  0  0  0  0  0  0  0  0  0  0  0
    3.4700    0.0220    1.5645 N   0  0  0  0  0  0  0  0  0  0  0  0
    4.7583   -0.5426    1.4464 C   0  0  0  0  0  0  0  0  0  0  0  0
    5.0854   -1.5744    2.3563 C   0  0  0  0  0  0  0  0  0  0  0  0
    6.3393   -2.1948    2.3303 C   0  0  0  0  0  0  0  0  0  0  0  0
    7.2437   -1.7645    1.3881 C   0  0  0  0  0  0  0  0  0  0  0  0
    8.5036   -2.2440    1.2168 O   0  0  0  0  0  0  0  0  0  0  0  0
    8.9623   -1.4171    0.1275 C   0  0  0  0  0  0  0  0  0  0  0  0
    7.9665   -0.4893   -0.3428 O   0  0  0  0  0  0  0  0  0  0  0  0
    6.9340   -0.7662    0.4990 C   0  0  0  0  0  0  0  0  0  0  0  0
    5.7027   -0.1396    0.4988 C   0  0  0  0  0  0  0  0  0  0  0  0
    0.9950    2.6811    0.5770 C   0  0  0  0  0  0  0  0  0  0  0  0
    0.3568    2.4101   -0.7823 C   0  0  0  0  0  0  0  0  0  0  0  0
   -3.7658    0.4783   -0.6477 C   0  0  0  0  0  0  0  0  0  0  0  0
   -3.9660    1.7940   -0.1568 C   0  0  0  0  0  0  0  0  0  0  0  0
   -4.7552    2.0587    0.9543 C   0  0  0  0  0  0  0  0  0  0  0  0
   -5.3917    1.0149    1.6027 C   0  0  0  0  0  0  0  0  0  0  0  0
   -5.2900   -0.2935    1.1216 C   0  0  0  0  0  0  0  0  0  0  0  0
   -5.9976   -1.3030    1.7946 C   0  0  0  0  0  0  0  0  0  0  0  0
   -5.9841   -2.6164    1.3430 C   0  0  0  0  0  0  0  0  0  0  0  0
   -5.2748   -2.9294    0.1971 C   0  0  0  0  0  0  0  0  0  0  0  0
   -4.5614   -1.9326   -0.4777 C   0  0  0  0  0  0  0  0  0  0  0  0
   -4.5059   -0.5883   -0.0319 C   0  0  0  0  0  0  0  0  0  0  0  0
   -1.8052   -1.5364   -1.1523 H   0  0  0  0  0  0  0  0  0  0  0  0
   -1.1106   -0.8642   -2.6202 H   0  0  0  0  0  0  0  0  0  0  0  0
   -2.6387   -1.6895   -2.7025 H   0  0  0  0  0  0  0  0  0  0  0  0
   -4.4702   -0.0924   -3.1899 H   0  0  0  0  0  0  0  0  0  0  0  0
   -4.0470    1.6228   -3.1177 H   0  0  0  0  0  0  0  0  0  0  0  0
   -3.0276    0.5057   -4.0233 H   0  0  0  0  0  0  0  0  0  0  0  0
   -1.4611   -0.2260    0.4006 H   0  0  0  0  0  0  0  0  0  0  0  0
   -1.3003    1.2849    1.2723 H   0  0  0  0  0  0  0  0  0  0  0  0
    0.9803   -0.4748    0.2346 H   0  0  0  0  0  0  0  0  0  0  0  0
    0.4518   -0.3857    1.9100 H   0  0  0  0  0  0  0  0  0  0  0  0
    1.5465    1.5863    2.3248 H   0  0  0  0  0  0  0  0  0  0  0  0
    2.8953   -0.3489    2.3095 H   0  0  0  0  0  0  0  0  0  0  0  0
    4.3629   -1.9063    3.0971 H   0  0  0  0  0  0  0  0  0  0  0  0
    6.5929   -2.9863    3.0260 H   0  0  0  0  0  0  0  0  0  0  0  0
    9.2596   -2.0638   -0.7060 H   0  0  0  0  0  0  0  0  0  0  0  0
    9.8402   -0.8532    0.4617 H   0  0  0  0  0  0  0  0  0  0  0  0
    5.5140    0.6393   -0.2289 H   0  0  0  0  0  0  0  0  0  0  0  0
    1.8011    3.4167    0.4719 H   0  0  0  0  0  0  0  0  0  0  0  0
    0.2444    3.1456    1.2307 H   0  0  0  0  0  0  0  0  0  0  0  0
    1.0987    2.0236   -1.4898 H   0  0  0  0  0  0  0  0  0  0  0  0
   -0.0270    3.3512   -1.1915 H   0  0  0  0  0  0  0  0  0  0  0  0
   -3.4916    2.6475   -0.6408 H   0  0  0  0  0  0  0  0  0  0  0  0
   -4.8709    3.0775    1.3133 H   0  0  0  0  0  0  0  0  0  0  0  0
   -5.9988    1.2399    2.4772 H   0  0  0  0  0  0  0  0  0  0  0  0
   -6.5840   -1.0677    2.6804 H   0  0  0  0  0  0  0  0  0  0  0  0
   -6.5417   -3.3834    1.8708 H   0  0  0  0  0  0  0  0  0  0  0  0
   -5.2787   -3.9457   -0.1866 H   0  0  0  0  0  0  0  0  0  0  0  0
   -4.0766   -2.2452   -1.3922 H   0  0  0  0  0  0  0  0  0  0  0  0
  1  2  1  0
  2  3  1  0
  2  4  1  0
  4  5  2  0
  4  6  1  0
  6  7  1  0
  7  8  1  0
  8  9  1  0
  9 10  1  0
 10 11  2  0
 10 12  1  0
 12 13  1  0
 13 14  1  0
 14 15  2  0
 15 16  1  0
 16 17  1  0
 17 18  1  0
 18 19  1  0
 19 20  1  0
 20 21  1  0
  9 22  1  0
 22 23  1  0
  2 24  1  0
 24 25  2  0
 25 26  1  0
 26 27  2  0
 27 28  1  0
 28 29  2  0
 29 30  1  0
 30 31  2  0
 31 32  1  0
 32 33  2  0
 23  6  1  0
 33 24  1  0
 21 13  2  0
 33 28  1  0
 20 16  2  0
  1 34  1  0
  1 35  1  0
  1 36  1  0
  3 37  1  0
  3 38  1  0
  3 39  1  0
  7 40  1  0
  7 41  1  0
  8 42  1  0
  8 43  1  0
  9 44  1  0
 12 45  1  0
 14 46  1  0
 15 47  1  0
 18 48  1  0
 18 49  1  0
 21 50  1  0
 22 51  1  0
 22 52  1  0
 23 53  1  0
 23 54  1  0
 25 55  1  0
 26 56  1  0
 27 57  1  0
 29 58  1  0
 30 59  1  0
 31 60  1  0
 32 61  1  0
M  END
$$$$
OCNT-2311676
     RDKit          3D

 39 42  0  0  0  0  0  0  0  0999 V2000
   -2.1260    0.7832    1.5394 O   0  0  0  0  0  0  0  0  0  0  0  0
   -2.1289    0.4677    0.3570 C   0  0  0  0  0  0  0  0  0  0  0  0
   -1.0697   -0.0446   -0.3719 N   0  0  0  0  0  0  0  0  0  0  0  0
    0.2558   -0.2388    0.0690 C   0  0  0  0  0  0  0  0  0  0  0  0
    1.1402   -0.8661   -0.8158 C   0  0  0  0  0  0  0  0  0  0  0  0
    2.4740   -1.0881   -0.4578 C   0  0  0  0  0  0  0  0  0  0  0  0
    2.9539   -0.6761    0.7920 C   0  0  0  0  0  0  0  0  0  0  0  0
    4.3884   -0.9136    1.1928 C   0  0  0  0  0  0  0  0  0  0  0  0
    5.3225   -0.2256    0.3179 N   0  0  0  0  0  0  0  0  0  0  0  0
    6.2195   -0.8110   -0.5334 C   0  0  0  0  0  0  0  0  0  0  0  0
    6.9024    0.2382   -1.1033 C   0  0  0  0  0  0  0  0  0  0  0  0
    6.4498    1.4363   -0.6150 N   0  0  0  0  0  0  0  0  0  0  0  0
    5.5007    1.1269    0.2399 C   0  0  0  0  0  0  0  0  0  0  0  0
    2.0658   -0.0500    1.6755 C   0  0  0  0  0  0  0  0  0  0  0  0
    0.7303    0.1675    1.3157 C   0  0  0  0  0  0  0  0  0  0  0  0
   -3.3856    0.6062   -0.4150 C   0  0  0  0  0  0  0  0  0  0  0  0
   -3.3879    1.1414   -1.7093 C   0  0  0  0  0  0  0  0  0  0  0  0
   -4.5965    1.2456   -2.3810 C   0  0  0  0  0  0  0  0  0  0  0  0
   -5.8005    0.8681   -1.8990 N   0  0  0  0  0  0  0  0  0  0  0  0
   -5.7433    0.3814   -0.6462 C   0  0  0  0  0  0  0  0  0  0  0  0
   -4.6151    0.2235    0.1516 C   0  0  0  0  0  0  0  0  0  0  0  0
   -5.0665   -0.3282    1.3847 C   0  0  0  0  0  0  0  0  0  0  0  0
   -6.4343   -0.4854    1.3018 C   0  0  0  0  0  0  0  0  0  0  0  0
   -6.8307   -0.0488    0.0640 N   0  0  0  0  0  0  0  0  0  0  0  0
   -1.2745   -0.3801   -1.3043 H   0  0  0  0  0  0  0  0  0  0  0  0
    0.8074   -1.1938   -1.7973 H   0  0  0  0  0  0  0  0  0  0  0  0
    3.1360   -1.5783   -1.1693 H   0  0  0  0  0  0  0  0  0  0  0  0
    4.6105   -1.9865    1.1659 H   0  0  0  0  0  0  0  0  0  0  0  0
    4.5891   -0.5591    2.2107 H   0  0  0  0  0  0  0  0  0  0  0  0
    6.2988   -1.8813   -0.6604 H   0  0  0  0  0  0  0  0  0  0  0  0
    7.6980    0.1950   -1.8357 H   0  0  0  0  0  0  0  0  0  0  0  0
    4.9178    1.8328    0.8177 H   0  0  0  0  0  0  0  0  0  0  0  0
    2.3983    0.2817    2.6574 H   0  0  0  0  0  0  0  0  0  0  0  0
    0.0868    0.6655    2.0347 H   0  0  0  0  0  0  0  0  0  0  0  0
   -2.4772    1.4978   -2.1781 H   0  0  0  0  0  0  0  0  0  0  0  0
   -4.6281    1.6656   -3.3845 H   0  0  0  0  0  0  0  0  0  0  0  0
   -4.4515   -0.5742    2.2422 H   0  0  0  0  0  0  0  0  0  0  0  0
   -7.1550   -0.8629    2.0150 H   0  0  0  0  0  0  0  0  0  0  0  0
   -7.7747   -0.0318   -0.2935 H   0  0  0  0  0  0  0  0  0  0  0  0
  1  2  2  0
  2  3  1  0
  3  4  1  0
  4  5  1  0
  5  6  2  0
  6  7  1  0
  7  8  1  0
  8  9  1  0
  9 10  1  0
 10 11  2  0
 11 12  1  0
 12 13  2  0
  7 14  2  0
 14 15  1  0
  2 16  1  0
 16 17  2  0
 17 18  1  0
 18 19  2  0
 19 20  1  0
 20 21  2  0
 21 22  1  0
 22 23  2  0
 23 24  1  0
 15  4  2  0
 21 16  1  0
 13  9  1  0
 24 20  1  0
  3 25  1  0
  5 26  1  0
  6 27  1  0
  8 28  1  0
  8 29  1  0
 10 30  1  0
 11 31  1  0
 13 32  1  0
 14 33  1  0
 15 34  1  0
 17 35  1  0
 18 36  1  0
 22 37  1  0
 23 38  1  0
 24 39  1  0
M  END
$$$$
OCNT-2311683
     RDKit          3D

 50 52  0  0  0  0  0  0  0  0999 V2000
   -4.7326   -1.8638   -1.6769 C   0  0  0  0  0  0  0  0  0  0  0  0
   -4.5655   -0.4684   -1.1295 C   0  0  0  0  0  0  0  0  0  0  0  0
   -5.7027    0.2399   -0.7039 C   0  0  0  0  0  0  0  0  0  0  0  0
   -5.5902    1.5367   -0.2072 C   0  0  0  0  0  0  0  0  0  0  0  0
   -4.3392    2.1420   -0.1257 C   0  0  0  0  0  0  0  0  0  0  0  0
   -3.1844    1.4523   -0.5281 C   0  0  0  0  0  0  0  0  0  0  0  0
   -3.2944    0.1456   -1.0481 C   0  0  0  0  0  0  0  0  0  0  0  0
   -2.0377   -0.5965   -1.4579 C   0  0  0  0  0  0  0  0  0  0  0  0
   -0.7595    0.2674   -1.4487 C   0  0  0  0  0  0  0  0  0  0  0  0
   -0.6830    1.2563   -0.3545 N   0  0  0  0  0  0  0  0  0  0  0  0
   -0.5830    0.6246    0.9862 C   0  0  0  0  0  0  0  0  0  0  0  0
    0.8027    0.9347    1.6437 C   0  0  0  0  0  0  0  0  0  0  0  0
    0.7620    0.6196    3.1452 C   0  0  0  0  0  0  0  0  0  0  0  0
    1.0055    2.3568    1.5387 O   0  0  0  0  0  0  0  0  0  0  0  0
    1.9680    0.1805    0.9854 C   0  0  0  0  0  0  0  0  0  0  0  0
    1.9875   -1.2283    0.9569 C   0  0  0  0  0  0  0  0  0  0  0  0
    3.0468   -1.9252    0.3657 C   0  0  0  0  0  0  0  0  0  0  0  0
    4.1079   -1.2162   -0.1931 C   0  0  0  0  0  0  0  0  0  0  0  0
    5.4472   -2.0934   -0.9601 S   0  0  0  0  0  0  0  0  0  0  0  0
    6.5567   -2.4012    0.3902 C   0  0  0  0  0  0  0  0  0  0  0  0
    6.1035   -1.1819   -1.8833 O   0  0  0  0  0  0  0  0  0  0  0  0
    4.9278   -3.3688   -1.4201 O   0  0  0  0  0  0  0  0  0  0  0  0
    4.1126    0.1786   -0.1873 C   0  0  0  0  0  0  0  0  0  0  0  0
    3.0506    0.8677    0.4059 C   0  0  0  0  0  0  0  0  0  0  0  0
   -1.8442    2.1559   -0.4598 C   0  0  0  0  0  0  0  0  0  0  0  0
   -4.4294   -1.8927   -2.7287 H   0  0  0  0  0  0  0  0  0  0  0  0
   -4.1314   -2.5814   -1.1035 H   0  0  0  0  0  0  0  0  0  0  0  0
   -5.7788   -2.1913   -1.6214 H   0  0  0  0  0  0  0  0  0  0  0  0
   -6.6892   -0.2163   -0.7627 H   0  0  0  0  0  0  0  0  0  0  0  0
   -6.4803    2.0774    0.1118 H   0  0  0  0  0  0  0  0  0  0  0  0
   -4.2641    3.1619    0.2536 H   0  0  0  0  0  0  0  0  0  0  0  0
   -1.9056   -1.4392   -0.7728 H   0  0  0  0  0  0  0  0  0  0  0  0
   -2.1665   -1.0053   -2.4688 H   0  0  0  0  0  0  0  0  0  0  0  0
   -0.6982    0.8093   -2.4011 H   0  0  0  0  0  0  0  0  0  0  0  0
    0.1220   -0.3816   -1.4419 H   0  0  0  0  0  0  0  0  0  0  0  0
   -1.3617    1.0382    1.6441 H   0  0  0  0  0  0  0  0  0  0  0  0
   -0.7609   -0.4564    0.9589 H   0  0  0  0  0  0  0  0  0  0  0  0
    1.7153    0.8775    3.6273 H   0  0  0  0  0  0  0  0  0  0  0  0
   -0.0092    1.2177    3.6480 H   0  0  0  0  0  0  0  0  0  0  0  0
    0.5543   -0.4384    3.3415 H   0  0  0  0  0  0  0  0  0  0  0  0
    0.7281    2.5554    0.6200 H   0  0  0  0  0  0  0  0  0  0  0  0
    1.1726   -1.7966    1.3930 H   0  0  0  0  0  0  0  0  0  0  0  0
    3.0305   -3.0126    0.3461 H   0  0  0  0  0  0  0  0  0  0  0  0
    7.4148   -2.9560    0.0005 H   0  0  0  0  0  0  0  0  0  0  0  0
    6.0437   -3.0020    1.1442 H   0  0  0  0  0  0  0  0  0  0  0  0
    6.8870   -1.4449    0.8057 H   0  0  0  0  0  0  0  0  0  0  0  0
    4.9275    0.7402   -0.6409 H   0  0  0  0  0  0  0  0  0  0  0  0
    3.0782    1.9587    0.4093 H   0  0  0  0  0  0  0  0  0  0  0  0
   -1.7381    2.7534   -1.3721 H   0  0  0  0  0  0  0  0  0  0  0  0
   -1.8229    2.8735    0.3759 H   0  0  0  0  0  0  0  0  0  0  0  0
  1  2  1  0
  2  3  1  0
  3  4  2  0
  4  5  1  0
  5  6  2  0
  6  7  1  0
  7  8  1  0
  8  9  1  0
  9 10  1  0
 10 11  1  0
 11 12  1  0
 12 13  1  0
 12 14  1  0
 12 15  1  0
 15 16  1  0
 16 17  2  0
 17 18  1  0
 18 19  1  0
 19 20  1  0
 19 21  2  0
 19 22  2  0
 18 23  2  0
 23 24  1  0
 10 25  1  0
  7  2  2  0
 24 15  2  0
 25  6  1  0
  1 26  1  0
  1 27  1  0
  1 28  1  0
  3 29  1  0
  4 30  1  0
  5 31  1  0
  8 32  1  0
  8 33  1  0
  9 34  1  0
  9 35  1  0
 11 36  1  0
 11 37  1  0
 13 38  1  0
 13 39  1  0
 13 40  1  0
 14 41  1  0
 16 42  1  0
 17 43  1  0
 20 44  1  0
 20 45  1  0
 20 46  1  0
 23 47  1  0
 24 48  1  0
 25 49  1  0
 25 50  1  0
M  END
$$$$
OCNT-2311687
     RDKit          3D

 42 45  0  0  0  0  0  0  0  0999 V2000
    5.4966    1.2463    3.0587 O   0  0  0  0  0  0  0  0  0  0  0  0
    5.0420    0.8775    1.9811 C   0  0  0  0  0  0  0  0  0  0  0  0
    5.8495    0.5402    0.9196 N   0  0  0  0  0  0  0  0  0  0  0  0
    5.4228    0.1305   -0.3222 C   0  0  0  0  0  0  0  0  0  0  0  0
    6.1832   -0.1367   -1.2434 O   0  0  0  0  0  0  0  0  0  0  0  0
    3.9746    0.0467   -0.4608 C   0  0  0  0  0  0  0  0  0  0  0  0
    3.1898    0.3682    0.5600 C   0  0  0  0  0  0  0  0  0  0  0  0
    1.7573    0.2163    0.1902 C   0  0  0  0  0  0  0  0  0  0  0  0
    1.8105   -0.5298   -1.0960 N   0  0  0  0  0  0  0  0  0  0  0  0
    0.7774   -0.1175   -2.0554 C   0  0  0  0  0  0  0  0  0  0  0  0
   -0.6701   -0.4575   -1.6495 C   0  0  0  0  0  0  0  0  0  0  0  0
   -0.9256   -1.9172   -1.3140 C   0  0  0  0  0  0  0  0  0  0  0  0
   -2.1972   -1.8127   -0.5086 C   0  0  0  0  0  0  0  0  0  0  0  0
   -1.9633   -0.5376    0.2954 C   0  0  0  0  0  0  0  0  0  0  0  0
   -3.2485    0.1562    0.6842 C   0  0  0  0  0  0  0  0  0  0  0  0
   -4.0669   -0.4088    1.6762 C   0  0  0  0  0  0  0  0  0  0  0  0
   -5.2651    0.2041    2.0482 C   0  0  0  0  0  0  0  0  0  0  0  0
   -5.6620    1.3892    1.4336 C   0  0  0  0  0  0  0  0  0  0  0  0
   -4.8616    1.9618    0.4479 C   0  0  0  0  0  0  0  0  0  0  0  0
   -3.6632    1.3493    0.0750 C   0  0  0  0  0  0  0  0  0  0  0  0
   -1.1027    0.3020   -0.5046 O   0  0  0  0  0  0  0  0  0  0  0  0
    3.1877   -0.3633   -1.6382 C   0  0  0  0  0  0  0  0  0  0  0  0
    3.6901    0.7778    1.7558 N   0  0  0  0  0  0  0  0  0  0  0  0
    6.8438    0.6141    1.0645 H   0  0  0  0  0  0  0  0  0  0  0  0
    1.3066    1.2102    0.0866 H   0  0  0  0  0  0  0  0  0  0  0  0
    1.2096   -0.3660    0.9370 H   0  0  0  0  0  0  0  0  0  0  0  0
    0.8517    0.9623   -2.2387 H   0  0  0  0  0  0  0  0  0  0  0  0
    0.9722   -0.6239   -3.0094 H   0  0  0  0  0  0  0  0  0  0  0  0
   -1.3287   -0.1592   -2.4761 H   0  0  0  0  0  0  0  0  0  0  0  0
   -1.0271   -2.5456   -2.2031 H   0  0  0  0  0  0  0  0  0  0  0  0
   -0.1329   -2.3361   -0.6843 H   0  0  0  0  0  0  0  0  0  0  0  0
   -3.0538   -1.7044   -1.1864 H   0  0  0  0  0  0  0  0  0  0  0  0
   -2.3813   -2.6862    0.1242 H   0  0  0  0  0  0  0  0  0  0  0  0
   -1.3957   -0.7632    1.2071 H   0  0  0  0  0  0  0  0  0  0  0  0
   -3.7734   -1.3337    2.1683 H   0  0  0  0  0  0  0  0  0  0  0  0
   -5.8883   -0.2432    2.8182 H   0  0  0  0  0  0  0  0  0  0  0  0
   -6.5939    1.8675    1.7232 H   0  0  0  0  0  0  0  0  0  0  0  0
   -5.1682    2.8876   -0.0319 H   0  0  0  0  0  0  0  0  0  0  0  0
   -3.0518    1.8138   -0.6956 H   0  0  0  0  0  0  0  0  0  0  0  0
    3.2408    0.4147   -2.4089 H   0  0  0  0  0  0  0  0  0  0  0  0
    3.5347   -1.3133   -2.0556 H   0  0  0  0  0  0  0  0  0  0  0  0
    3.0802    1.0196    2.5277 H   0  0  0  0  0  0  0  0  0  0  0  0
  1  2  2  0
  2  3  1  0
  3  4  1  0
  4  5  2  0
  4  6  1  0
  6  7  2  0
  7  8  1  0
  8  9  1  0
  9 10  1  0
 10 11  1  0
 11 12  1  0
 12 13  1  0
 13 14  1  0
 14 15  1  0
 15 16  2  0
 16 17  1  0
 17 18  2  0
 18 19  1  0
 19 20  2  0
 14 21  1  0
  9 22  1  0
  7 23  1  0
 23  2  1  0
 22  6  1  0
 21 11  1  0
 20 15  1  0
  3 24  1  0
  8 25  1  0
  8 26  1  0
 10 27  1  0
 10 28  1  0
 11 29  1  0
 12 30  1  0
 12 31  1  0
 13 32  1  0
 13 33  1  0
 14 34  1  0
 16 35  1  0
 17 36  1  0
 18 37  1  0
 19 38  1  0
 20 39  1  0
 22 40  1  0
 22 41  1  0
 23 42  1  0
M  END
$$$$
OCNT-2311711
     RDKit          3D

 54 58  0  0  0  0  0  0  0  0999 V2000
    4.7552   -0.2414   -2.5291 O   0  0  0  0  0  0  0  0  0  0  0  0
    4.7144   -0.1381   -1.3075 C   0  0  0  0  0  0  0  0  0  0  0  0
    5.4052    0.9304   -0.6105 C   0  0  0  0  0  0  0  0  0  0  0  0
    5.4467    0.8945    0.7651 C   0  0  0  0  0  0  0  0  0  0  0  0
    4.9045   -0.0589    1.5626 N   0  0  0  0  0  0  0  0  0  0  0  0
    4.2501   -0.9715    0.9184 C   0  0  0  0  0  0  0  0  0  0  0  0
    4.0680   -1.0369   -0.4537 N   0  0  0  0  0  0  0  0  0  0  0  0
    3.2847   -2.1276   -1.0314 C   0  0  0  0  0  0  0  0  0  0  0  0
    1.8146   -2.1263   -0.5969 C   0  0  0  0  0  0  0  0  0  0  0  0
    1.0357   -0.9592   -1.1681 C   0  0  0  0  0  0  0  0  0  0  0  0
    1.4608   -0.3208   -2.1294 O   0  0  0  0  0  0  0  0  0  0  0  0
   -0.1772   -0.6580   -0.5819 N   0  0  0  0  0  0  0  0  0  0  0  0
   -0.8948    0.5399   -0.9979 C   0  0  0  0  0  0  0  0  0  0  0  0
   -1.6721    0.9669    0.2506 C   0  0  0  0  0  0  0  0  0  0  0  0
   -2.7823    1.9808    0.0943 C   0  0  0  0  0  0  0  0  0  0  0  0
   -3.4813    2.4062    1.2377 C   0  0  0  0  0  0  0  0  0  0  0  0
   -4.5075    3.3485    1.1465 C   0  0  0  0  0  0  0  0  0  0  0  0
   -4.8478    3.8884   -0.0900 C   0  0  0  0  0  0  0  0  0  0  0  0
   -4.1575    3.4901   -1.2311 C   0  0  0  0  0  0  0  0  0  0  0  0
   -3.1295    2.5473   -1.1400 C   0  0  0  0  0  0  0  0  0  0  0  0
   -2.0736   -0.3969    0.8607 C   0  0  0  0  0  0  0  0  0  0  0  0
   -3.3481   -1.0162    0.2657 C   0  0  0  0  0  0  0  0  0  0  0  0
   -3.6371   -2.3922    0.8665 C   0  0  0  0  0  0  0  0  0  0  0  0
   -2.3756   -3.1827    1.2063 C   0  0  0  0  0  0  0  0  0  0  0  0
   -1.1873   -2.7591    0.3532 C   0  0  0  0  0  0  0  0  0  0  0  0
   -0.8283   -1.2827    0.5783 C   0  0  0  0  0  0  0  0  0  0  0  0
    6.3001    2.2267    1.4065 S   0  0  0  0  0  0  0  0  0  0  0  0
    6.6205    2.8538   -0.1557 C   0  0  0  0  0  0  0  0  0  0  0  0
    6.0894    2.0601   -1.1489 C   0  0  0  0  0  0  0  0  0  0  0  0
    3.7763   -1.7926    1.4794 H   0  0  0  0  0  0  0  0  0  0  0  0
    3.7436   -3.0613   -0.6830 H   0  0  0  0  0  0  0  0  0  0  0  0
    3.3575   -2.1217   -2.1240 H   0  0  0  0  0  0  0  0  0  0  0  0
    1.3469   -3.0435   -0.9711 H   0  0  0  0  0  0  0  0  0  0  0  0
    1.7462   -2.1215    0.4939 H   0  0  0  0  0  0  0  0  0  0  0  0
   -1.5475    0.2495   -1.8290 H   0  0  0  0  0  0  0  0  0  0  0  0
   -0.2116    1.3222   -1.3461 H   0  0  0  0  0  0  0  0  0  0  0  0
   -0.9367    1.4252    0.9311 H   0  0  0  0  0  0  0  0  0  0  0  0
   -3.2269    2.0063    2.2169 H   0  0  0  0  0  0  0  0  0  0  0  0
   -5.0375    3.6635    2.0414 H   0  0  0  0  0  0  0  0  0  0  0  0
   -5.6449    4.6232   -0.1641 H   0  0  0  0  0  0  0  0  0  0  0  0
   -4.4161    3.9165   -2.1972 H   0  0  0  0  0  0  0  0  0  0  0  0
   -2.6109    2.2753   -2.0554 H   0  0  0  0  0  0  0  0  0  0  0  0
   -2.2179   -0.2981    1.9448 H   0  0  0  0  0  0  0  0  0  0  0  0
   -4.2185   -0.3729    0.4347 H   0  0  0  0  0  0  0  0  0  0  0  0
   -3.2472   -1.1183   -0.8220 H   0  0  0  0  0  0  0  0  0  0  0  0
   -4.2556   -2.9614    0.1618 H   0  0  0  0  0  0  0  0  0  0  0  0
   -4.2367   -2.2807    1.7784 H   0  0  0  0  0  0  0  0  0  0  0  0
   -2.5687   -4.2543    1.0842 H   0  0  0  0  0  0  0  0  0  0  0  0
   -2.1276   -3.0316    2.2646 H   0  0  0  0  0  0  0  0  0  0  0  0
   -1.4126   -2.9454   -0.7048 H   0  0  0  0  0  0  0  0  0  0  0  0
   -0.3309   -3.3940    0.6040 H   0  0  0  0  0  0  0  0  0  0  0  0
   -0.1331   -1.1947    1.4224 H   0  0  0  0  0  0  0  0  0  0  0  0
    7.1826    3.7707   -0.2677 H   0  0  0  0  0  0  0  0  0  0  0  0
    6.1779    2.2748   -2.2078 H   0  0  0  0  0  0  0  0  0  0  0  0
  1  2  2  0
  2  3  1  0
  3  4  2  0
  4  5  1  0
  5  6  2  0
  6  7  1  0
  7  8  1  0
  8  9  1  0
  9 10  1  0
 10 11  2  0
 10 12  1  0
 12 13  1  0
 13 14  1  0
 14 15  1  0
 15 16  2  0
 16 17  1  0
 17 18  2  0
 18 19  1  0
 19 20  2  0
 14 21  1  0
 21 22  1  0
 22 23  1  0
 23 24  1  0
 24 25  1  0
 25 26  1  0
  4 27  1  0
 27 28  1  0
 28 29  2  0
  7  2  1  0
 26 12  1  0
 29  3  1  0
 20 15  1  0
 26 21  1  0
  6 30  1  0
  8 31  1  0
  8 32  1  0
  9 33  1  0
  9 34  1  0
 13 35  1  0
 13 36  1  0
 14 37  1  0
 16 38  1  0
 17 39  1  0
 18 40  1  0
 19 41  1  0
 20 42  1  0
 21 43  1  0
 22 44  1  0
 22 45  1  0
 23 46  1  0
 23 47  1  0
 24 48  1  0
 24 49  1  0
 25 50  1  0
 25 51  1  0
 26 52  1  0
 28 53  1  0
 29 54  1  0
M  END
$$$$
OCNT-2311723
     RDKit          3D

  0  0  0  0  0  0  0  0  0  0999 V3000
M  V30 BEGIN CTAB
M  V30 COUNTS 44 47 0 0 0
M  V30 BEGIN ATOM
M  V30 1 C 5.837786 -1.851125 -2.368389 0
M  V30 2 C 4.573807 -1.251021 -1.846918 0
M  V30 3 C 4.224213 -1.036287 -0.527641 0
M  V30 4 C 2.935787 -0.437048 -0.449832 0
M  V30 5 C 2.367482 -0.216750 -1.663863 0
M  V30 6 C 1.102328 0.394530 -1.459216 0
M  V30 7 C 0.930255 0.522398 -0.083677 0
M  V30 8 C -0.198390 1.103372 0.635062 0
M  V30 9 O -0.214290 1.269019 1.851924 0
M  V30 10 N -1.287788 1.427182 -0.143868 0
M  V30 11 C -2.553437 1.773812 0.478434 0 CFG=1
M  V30 12 C -3.562535 2.419907 -0.461252 0
M  V30 13 O -4.859446 2.221069 0.122238 0
M  V30 14 C -4.756861 1.178082 1.108233 0
M  V30 15 C -3.346103 0.606094 1.063338 0 CFG=1
M  V30 16 N -3.306534 -0.637166 0.304193 0
M  V30 17 C -3.489674 -1.892458 0.820981 0
M  V30 18 C -3.348560 -2.767015 -0.229702 0
M  V30 19 C -3.069801 -1.950375 -1.338549 0
M  V30 20 N -3.030717 -0.654351 -1.019555 0
M  V30 21 N 2.065126 0.006227 0.524575 0
M  V30 22 C 2.354953 -0.108176 1.941072 0
M  V30 23 C 3.129572 1.067681 2.496530 0
M  V30 24 F 3.261734 0.944510 3.840726 0
M  V30 25 F 2.541995 2.256543 2.255792 0
M  V30 26 F 4.383285 1.116038 1.986973 0
M  V30 27 S 3.372090 -0.742466 -2.969195 0
M  V30 28 H 6.510418 -2.120600 -1.547303 0
M  V30 29 H 5.628038 -2.760408 -2.941273 0
M  V30 30 H 6.366242 -1.142604 -3.014633 0
M  V30 31 H 4.855788 -1.287217 0.315294 0
M  V30 32 H 0.418822 0.705970 -2.237516 0
M  V30 33 H -1.379000 0.897390 -1.007066 0
M  V30 34 H -2.348903 2.483679 1.292112 0
M  V30 35 H -3.381682 3.492404 -0.583397 0
M  V30 36 H -3.564332 1.967786 -1.458636 0
M  V30 37 H -4.947432 1.646035 2.080457 0
M  V30 38 H -5.545599 0.440675 0.927796 0
M  V30 39 H -2.989925 0.348171 2.068024 0
M  V30 40 H -3.703133 -2.053649 1.868594 0
M  V30 41 H -3.433132 -3.843865 -0.199906 0
M  V30 42 H -2.890494 -2.246406 -2.364494 0
M  V30 43 H 1.418769 -0.258905 2.483124 0
M  V30 44 H 2.929276 -1.030680 2.087404 0
M  V30 END ATOM
M  V30 BEGIN BOND
M  V30 1 1 1 2
M  V30 2 2 2 3
M  V30 3 1 3 4
M  V30 4 2 4 5
M  V30 5 1 5 6
M  V30 6 2 6 7
M  V30 7 1 7 8
M  V30 8 2 8 9
M  V30 9 1 8 10
M  V30 10 1 10 11
M  V30 11 1 11 12
M  V30 12 1 12 13
M  V30 13 1 13 14
M  V30 14 1 14 15
M  V30 15 1 15 16
M  V30 16 1 16 17
M  V30 17 2 17 18
M  V30 18 1 18 19
M  V30 19 2 19 20
M  V30 20 1 7 21
M  V30 21 1 21 22
M  V30 22 1 22 23
M  V30 23 1 23 24
M  V30 24 1 23 25
M  V30 25 1 23 26
M  V30 26 1 5 27
M  V30 27 1 27 2
M  V30 28 1 21 4
M  V30 29 1 15 11
M  V30 30 1 20 16
M  V30 31 1 1 28
M  V30 32 1 1 29
M  V30 33 1 1 30
M  V30 34 1 3 31
M  V30 35 1 6 32
M  V30 36 1 10 33
M  V30 37 1 11 34 CFG=1
M  V30 38 1 12 35
M  V30 39 1 12 36
M  V30 40 1 14 37
M  V30 41 1 14 38
M  V30 42 1 15 39 CFG=1
M  V30 43 1 17 40
M  V30 44 1 18 41
M  V30 45 1 19 42
M  V30 46 1 22 43
M  V30 47 1 22 44
M  V30 END BOND
M  V30 BEGIN COLLECTION
M  V30 MDLV30/STERAC1 ATOMS=(2 11 15)
M  V30 END COLLECTION
M  V30 END CTAB
M  END
>  <_CXSMILES_Data>  (509) 
|&1:10,14|

$$$$
OCNT-2311727
     RDKit          3D

 44 45  0  0  0  0  0  0  0  0999 V2000
   -4.7022    1.7846    0.9039 C   0  0  0  0  0  0  0  0  0  0  0  0
   -4.2358    1.4170   -0.5057 C   0  0  0  0  0  0  0  0  0  0  0  0
   -5.3300    0.6795   -1.2815 C   0  0  0  0  0  0  0  0  0  0  0  0
   -5.1682   -0.7945   -0.9125 C   0  0  0  0  0  0  0  0  0  0  0  0
   -3.7596   -0.9462   -0.3389 C   0  0  0  0  0  0  0  0  0  0  0  0
   -3.0736    0.4085   -0.5627 C   0  0  0  0  0  0  0  0  0  0  0  0
   -1.9323    0.6770    0.4200 C   0  0  0  0  0  0  0  0  0  0  0  0
   -0.7132   -0.1906    0.1592 C   0  0  0  0  0  0  0  0  0  0  0  0
   -0.4958   -0.7636   -0.9025 O   0  0  0  0  0  0  0  0  0  0  0  0
    0.1526   -0.2390    1.2326 N   0  0  0  0  0  0  0  0  0  0  0  0
    1.3950   -0.9865    1.1790 C   0  0  0  0  0  0  0  0  0  0  0  0
    2.5065   -0.1618    0.5314 C   0  0  0  0  0  0  0  0  0  0  0  0
    3.8863   -0.8465    0.5376 C   0  0  0  0  0  0  0  0  0  0  0  0
    4.2016   -1.1683    1.9213 O   0  0  0  0  0  0  0  0  0  0  0  0
    4.9447    0.1148    0.0688 C   0  0  0  0  0  0  0  0  0  0  0  0
    4.8264    1.2211   -0.6412 N   0  0  0  0  0  0  0  0  0  0  0  0
    6.1100    1.6915   -0.7434 C   0  0  0  0  0  0  0  0  0  0  0  0
    6.9679    0.8518   -0.0818 C   0  0  0  0  0  0  0  0  0  0  0  0
    6.2351   -0.1608    0.4575 O   0  0  0  0  0  0  0  0  0  0  0  0
    3.9354   -2.0968   -0.3616 C   0  0  0  0  0  0  0  0  0  0  0  0
    5.1701   -2.6622   -0.3475 F   0  0  0  0  0  0  0  0  0  0  0  0
    3.6271   -1.8319   -1.6479 F   0  0  0  0  0  0  0  0  0  0  0  0
    3.0812   -3.0563    0.0696 F   0  0  0  0  0  0  0  0  0  0  0  0
   -5.5863    2.4296    0.8568 H   0  0  0  0  0  0  0  0  0  0  0  0
   -4.9658    0.9028    1.4947 H   0  0  0  0  0  0  0  0  0  0  0  0
   -3.9245    2.3379    1.4402 H   0  0  0  0  0  0  0  0  0  0  0  0
   -3.9623    2.3422   -1.0254 H   0  0  0  0  0  0  0  0  0  0  0  0
   -6.3376    1.0497   -1.0663 H   0  0  0  0  0  0  0  0  0  0  0  0
   -5.1609    0.8002   -2.3586 H   0  0  0  0  0  0  0  0  0  0  0  0
   -5.9129   -1.0933   -0.1674 H   0  0  0  0  0  0  0  0  0  0  0  0
   -5.3122   -1.4315   -1.7900 H   0  0  0  0  0  0  0  0  0  0  0  0
   -3.8184   -1.1906    0.7297 H   0  0  0  0  0  0  0  0  0  0  0  0
   -3.2163   -1.7610   -0.8295 H   0  0  0  0  0  0  0  0  0  0  0  0
   -2.6757    0.4199   -1.5881 H   0  0  0  0  0  0  0  0  0  0  0  0
   -2.2649    0.5183    1.4537 H   0  0  0  0  0  0  0  0  0  0  0  0
   -1.6060    1.7209    0.3265 H   0  0  0  0  0  0  0  0  0  0  0  0
   -0.0546    0.2992    2.0626 H   0  0  0  0  0  0  0  0  0  0  0  0
    1.2098   -1.9099    0.6241 H   0  0  0  0  0  0  0  0  0  0  0  0
    1.6468   -1.2484    2.2112 H   0  0  0  0  0  0  0  0  0  0  0  0
    2.2221    0.1122   -0.4946 H   0  0  0  0  0  0  0  0  0  0  0  0
    2.5752    0.7854    1.0871 H   0  0  0  0  0  0  0  0  0  0  0  0
    5.1376   -1.4523    1.9299 H   0  0  0  0  0  0  0  0  0  0  0  0
    6.3451    2.5992   -1.2813 H   0  0  0  0  0  0  0  0  0  0  0  0
    8.0327    0.8288    0.0978 H   0  0  0  0  0  0  0  0  0  0  0  0
  1  2  1  0
  2  3  1  0
  3  4  1  0
  4  5  1  0
  5  6  1  0
  6  7  1  0
  7  8  1  0
  8  9  2  0
  8 10  1  0
 10 11  1  0
 11 12  1  0
 12 13  1  0
 13 14  1  0
 13 15  1  0
 15 16  2  0
 16 17  1  0
 17 18  2  0
 18 19  1  0
 13 20  1  0
 20 21  1  0
 20 22  1  0
 20 23  1  0
  6  2  1  0
 19 15  1  0
  1 24  1  0
  1 25  1  0
  1 26  1  0
  2 27  1  0
  3 28  1  0
  3 29  1  0
  4 30  1  0
  4 31  1  0
  5 32  1  0
  5 33  1  0
  6 34  1  0
  7 35  1  0
  7 36  1  0
 10 37  1  0
 11 38  1  0
 11 39  1  0
 12 40  1  0
 12 41  1  0
 14 42  1  0
 17 43  1  0
 18 44  1  0
M  END
$$$$
OCNT-2311745
     RDKit          3D

 48 50  0  0  0  0  0  0  0  0999 V2000
    5.1736    2.5682    0.9440 C   0  0  0  0  0  0  0  0  0  0  0  0
    5.1457    1.7562   -0.2299 O   0  0  0  0  0  0  0  0  0  0  0  0
    4.6509    0.4276    0.1371 N   0  0  0  0  0  0  0  0  0  0  0  0
    5.8286   -0.4344   -0.0100 C   0  0  0  0  0  0  0  0  0  0  0  0
    3.5891    0.1015   -0.8522 C   0  0  0  0  0  0  0  0  0  0  0  0
    3.0839   -1.3425   -0.6472 C   0  0  0  0  0  0  0  0  0  0  0  0
    1.7148   -1.5738   -1.2823 C   0  0  0  0  0  0  0  0  0  0  0  0
    0.7172   -0.6474   -0.7408 N   0  0  0  0  0  0  0  0  0  0  0  0
   -0.4979   -1.1564   -0.2835 C   0  0  0  0  0  0  0  0  0  0  0  0
   -1.1580   -2.1539   -0.9776 C   0  0  0  0  0  0  0  0  0  0  0  0
   -2.3626   -2.5872   -0.4733 C   0  0  0  0  0  0  0  0  0  0  0  0
   -2.9221   -2.0909    0.6387 N   0  0  0  0  0  0  0  0  0  0  0  0
   -2.2421   -1.0993    1.2425 C   0  0  0  0  0  0  0  0  0  0  0  0
   -2.8545   -0.4801    2.4755 C   0  0  0  0  0  0  0  0  0  0  0  0
   -3.3556    1.2672    2.2638 S   0  0  0  0  0  0  0  0  0  0  0  0
   -4.5676    1.0744    0.9714 C   0  0  0  0  0  0  0  0  0  0  0  0
   -5.8477    0.5922    1.2586 C   0  0  0  0  0  0  0  0  0  0  0  0
   -6.7899    0.4507    0.2375 C   0  0  0  0  0  0  0  0  0  0  0  0
   -6.4574    0.7951   -1.0721 C   0  0  0  0  0  0  0  0  0  0  0  0
   -5.1844    1.2840   -1.3620 C   0  0  0  0  0  0  0  0  0  0  0  0
   -4.2423    1.4270   -0.3417 C   0  0  0  0  0  0  0  0  0  0  0  0
   -1.0497   -0.6263    0.8235 N   0  0  0  0  0  0  0  0  0  0  0  0
    1.2150    0.5422   -0.0413 C   0  0  0  0  0  0  0  0  0  0  0  0
    2.4116    1.1006   -0.8029 C   0  0  0  0  0  0  0  0  0  0  0  0
    5.9143    2.1852    1.6530 H   0  0  0  0  0  0  0  0  0  0  0  0
    5.4630    3.5808    0.6507 H   0  0  0  0  0  0  0  0  0  0  0  0
    4.1871    2.6096    1.4162 H   0  0  0  0  0  0  0  0  0  0  0  0
    6.2121   -0.4418   -1.0366 H   0  0  0  0  0  0  0  0  0  0  0  0
    5.6059   -1.4626    0.2914 H   0  0  0  0  0  0  0  0  0  0  0  0
    6.6328   -0.0901    0.6500 H   0  0  0  0  0  0  0  0  0  0  0  0
    4.0239    0.1723   -1.8598 H   0  0  0  0  0  0  0  0  0  0  0  0
    3.7998   -2.0544   -1.0757 H   0  0  0  0  0  0  0  0  0  0  0  0
    3.0158   -1.5720    0.4254 H   0  0  0  0  0  0  0  0  0  0  0  0
    1.4446   -2.6225   -1.1085 H   0  0  0  0  0  0  0  0  0  0  0  0
    1.7770   -1.4303   -2.3677 H   0  0  0  0  0  0  0  0  0  0  0  0
   -0.7696   -2.5698   -1.8964 H   0  0  0  0  0  0  0  0  0  0  0  0
   -2.9309   -3.3653   -0.9733 H   0  0  0  0  0  0  0  0  0  0  0  0
   -3.7226   -1.0635    2.8012 H   0  0  0  0  0  0  0  0  0  0  0  0
   -2.1188   -0.5208    3.2857 H   0  0  0  0  0  0  0  0  0  0  0  0
   -6.1221    0.3252    2.2756 H   0  0  0  0  0  0  0  0  0  0  0  0
   -7.7829    0.0722    0.4649 H   0  0  0  0  0  0  0  0  0  0  0  0
   -7.1908    0.6835   -1.8665 H   0  0  0  0  0  0  0  0  0  0  0  0
   -4.9226    1.5535   -2.3816 H   0  0  0  0  0  0  0  0  0  0  0  0
   -3.2502    1.8045   -0.5798 H   0  0  0  0  0  0  0  0  0  0  0  0
    0.4393    1.3181   -0.0151 H   0  0  0  0  0  0  0  0  0  0  0  0
    1.4947    0.3071    0.9936 H   0  0  0  0  0  0  0  0  0  0  0  0
    2.6973    2.0662   -0.3750 H   0  0  0  0  0  0  0  0  0  0  0  0
    2.1040    1.3201   -1.8350 H   0  0  0  0  0  0  0  0  0  0  0  0
  1  2  1  0
  2  3  1  0
  3  4  1  0
  3  5  1  0
  5  6  1  0
  6  7  1  0
  7  8  1  0
  8  9  1  0
  9 10  1  0
 10 11  2  0
 11 12  1  0
 12 13  2  0
 13 14  1  0
 14 15  1  0
 15 16  1  0
 16 17  2  0
 17 18  1  0
 18 19  2  0
 19 20  1  0
 20 21  2  0
 13 22  1  0
  8 23  1  0
 23 24  1  0
 24  5  1  0
 22  9  2  0
 21 16  1  0
  1 25  1  0
  1 26  1  0
  1 27  1  0
  4 28  1  0
  4 29  1  0
  4 30  1  0
  5 31  1  0
  6 32  1  0
  6 33  1  0
  7 34  1  0
  7 35  1  0
 10 36  1  0
 11 37  1  0
 14 38  1  0
 14 39  1  0
 17 40  1  0
 18 41  1  0
 19 42  1  0
 20 43  1  0
 21 44  1  0
 23 45  1  0
 23 46  1  0
 24 47  1  0
 24 48  1  0
M  END
$$$$
OCNT-2311748
     RDKit          3D

 43 46  0  0  0  0  0  0  0  0999 V2000
   -4.4735    4.0644    0.0994 C   0  0  0  0  0  0  0  0  0  0  0  0
   -3.6389    2.8913    0.0072 N   0  0  0  0  0  0  0  0  0  0  0  0
   -2.3088    2.8109    0.2889 C   0  0  0  0  0  0  0  0  0  0  0  0
   -1.9567    1.5062    0.0529 C   0  0  0  0  0  0  0  0  0  0  0  0
   -0.7317    0.9520    0.2251 N   0  0  0  0  0  0  0  0  0  0  0  0
    0.3361    1.6129    0.9467 C   0  0  0  0  0  0  0  0  0  0  0  0
    1.5588    0.7759    1.0307 C   0  0  0  0  0  0  0  0  0  0  0  0
    2.5407    0.4788    0.1115 C   0  0  0  0  0  0  0  0  0  0  0  0
    3.4553   -0.3823    0.7792 C   0  0  0  0  0  0  0  0  0  0  0  0
    4.6823   -0.9941    0.2563 C   0  0  0  0  0  0  0  0  0  0  0  0
    5.4720   -1.8077    1.0753 C   0  0  0  0  0  0  0  0  0  0  0  0
    6.6236   -2.3691    0.5501 C   0  0  0  0  0  0  0  0  0  0  0  0
    7.0390   -2.1790   -0.7193 N   0  0  0  0  0  0  0  0  0  0  0  0
    6.2657   -1.3927   -1.4954 C   0  0  0  0  0  0  0  0  0  0  0  0
    5.0964   -0.7864   -1.0620 C   0  0  0  0  0  0  0  0  0  0  0  0
    3.0471   -0.5957    2.0423 N   0  0  0  0  0  0  0  0  0  0  0  0
    1.9081    0.0996    2.1613 N   0  0  0  0  0  0  0  0  0  0  0  0
   -3.1549    0.8636   -0.4008 C   0  0  0  0  0  0  0  0  0  0  0  0
   -3.3483   -0.5238   -0.8250 C   0  0  0  0  0  0  0  0  0  0  0  0
   -2.4025   -1.1688   -1.6341 C   0  0  0  0  0  0  0  0  0  0  0  0
   -2.5922   -2.4964   -2.0266 C   0  0  0  0  0  0  0  0  0  0  0  0
   -3.7322   -3.1882   -1.6204 C   0  0  0  0  0  0  0  0  0  0  0  0
   -4.6869   -2.5529   -0.8282 C   0  0  0  0  0  0  0  0  0  0  0  0
   -4.4977   -1.2258   -0.4355 C   0  0  0  0  0  0  0  0  0  0  0  0
   -4.1851    1.7292   -0.3840 N   0  0  0  0  0  0  0  0  0  0  0  0
   -4.8946    4.2665   -0.8886 H   0  0  0  0  0  0  0  0  0  0  0  0
   -3.8717    4.9149    0.4291 H   0  0  0  0  0  0  0  0  0  0  0  0
   -5.2677    3.8665    0.8235 H   0  0  0  0  0  0  0  0  0  0  0  0
   -1.7479    3.6692    0.6265 H   0  0  0  0  0  0  0  0  0  0  0  0
   -0.6492   -0.0623    0.2049 H   0  0  0  0  0  0  0  0  0  0  0  0
   -0.0036    1.8678    1.9589 H   0  0  0  0  0  0  0  0  0  0  0  0
    0.5945    2.5554    0.4474 H   0  0  0  0  0  0  0  0  0  0  0  0
    2.5818    0.8384   -0.9069 H   0  0  0  0  0  0  0  0  0  0  0  0
    5.1981   -2.0041    2.1071 H   0  0  0  0  0  0  0  0  0  0  0  0
    7.2604   -3.0060    1.1572 H   0  0  0  0  0  0  0  0  0  0  0  0
    6.6213   -1.2564   -2.5129 H   0  0  0  0  0  0  0  0  0  0  0  0
    4.5356   -0.1704   -1.7542 H   0  0  0  0  0  0  0  0  0  0  0  0
    1.4166    0.0628    3.0489 H   0  0  0  0  0  0  0  0  0  0  0  0
   -1.5204   -0.6360   -1.9817 H   0  0  0  0  0  0  0  0  0  0  0  0
   -1.8544   -2.9866   -2.6565 H   0  0  0  0  0  0  0  0  0  0  0  0
   -3.8815   -4.2196   -1.9291 H   0  0  0  0  0  0  0  0  0  0  0  0
   -5.5818   -3.0862   -0.5188 H   0  0  0  0  0  0  0  0  0  0  0  0
   -5.2514   -0.7355    0.1773 H   0  0  0  0  0  0  0  0  0  0  0  0
  1  2  1  0
  2  3  1  0
  3  4  2  0
  4  5  1  0
  5  6  1  0
  6  7  1  0
  7  8  2  0
  8  9  1  0
  9 10  1  0
 10 11  2  0
 11 12  1  0
 12 13  2  0
 13 14  1  0
 14 15  2  0
  9 16  2  0
 16 17  1  0
  4 18  1  0
 18 19  1  0
 19 20  2  0
 20 21  1  0
 21 22  2  0
 22 23  1  0
 23 24  2  0
 18 25  2  0
 25  2  1  0
 17  7  1  0
 24 19  1  0
 15 10  1  0
  1 26  1  0
  1 27  1  0
  1 28  1  0
  3 29  1  0
  5 30  1  0
  6 31  1  0
  6 32  1  0
  8 33  1  0
 11 34  1  0
 12 35  1  0
 14 36  1  0
 15 37  1  0
 17 38  1  0
 20 39  1  0
 21 40  1  0
 22 41  1  0
 23 42  1  0
 24 43  1  0
M  END
$$$$
OCNT-2311751
     RDKit          3D

 40 43  0  0  0  0  0  0  0  0999 V2000
    1.3899   -1.0917   -2.3473 O   0  0  0  0  0  0  0  0  0  0  0  0
    0.8131   -0.9982   -1.2728 C   0  0  0  0  0  0  0  0  0  0  0  0
    1.3183   -0.5292   -0.0921 N   0  0  0  0  0  0  0  0  0  0  0  0
    2.5695   -0.0482    0.1984 C   0  0  0  0  0  0  0  0  0  0  0  0
    2.7549    0.3467    1.4640 N   0  0  0  0  0  0  0  0  0  0  0  0
    4.0248    0.7658    1.5006 N   0  0  0  0  0  0  0  0  0  0  0  0
    4.6827    0.6646    0.3103 C   0  0  0  0  0  0  0  0  0  0  0  0
    5.9931    0.9945   -0.0442 C   0  0  0  0  0  0  0  0  0  0  0  0
    7.0882    1.6521    1.1033 Cl  0  0  0  0  0  0  0  0  0  0  0  0
    6.3917    0.7751   -1.3617 C   0  0  0  0  0  0  0  0  0  0  0  0
    5.4984    0.2416   -2.2857 C   0  0  0  0  0  0  0  0  0  0  0  0
    4.1855   -0.0839   -1.9110 C   0  0  0  0  0  0  0  0  0  0  0  0
    3.7548    0.1284   -0.5834 C   0  0  0  0  0  0  0  0  0  0  0  0
   -0.5916   -1.4055   -1.1204 C   0  0  0  0  0  0  0  0  0  0  0  0
   -1.3695   -1.9183   -2.1410 C   0  0  0  0  0  0  0  0  0  0  0  0
   -2.9429   -2.2704   -1.5684 S   0  0  0  0  0  0  0  0  0  0  0  0
   -2.4973   -1.7027   -0.0060 C   0  0  0  0  0  0  0  0  0  0  0  0
   -3.4829   -1.7321    1.1250 C   0  0  0  0  0  0  0  0  0  0  0  0
   -3.9914   -0.3630    1.5786 C   0  0  0  0  0  0  0  0  0  0  0  0
   -4.7460    0.4600    0.5339 C   0  0  0  0  0  0  0  0  0  0  0  0
   -4.4682    1.9125    0.9143 C   0  0  0  0  0  0  0  0  0  0  0  0
   -3.6944    1.8553    2.1553 N   0  0  0  0  0  0  0  0  0  0  0  0
   -2.9344    0.6058    2.0888 C   0  0  0  0  0  0  0  0  0  0  0  0
   -1.2503   -1.2952    0.1090 N   0  0  0  0  0  0  0  0  0  0  0  0
    0.6874   -0.5271    0.7024 H   0  0  0  0  0  0  0  0  0  0  0  0
    4.3963    1.1164    2.3770 H   0  0  0  0  0  0  0  0  0  0  0  0
    7.4039    1.0197   -1.6743 H   0  0  0  0  0  0  0  0  0  0  0  0
    5.8167    0.0726   -3.3124 H   0  0  0  0  0  0  0  0  0  0  0  0
    3.5236   -0.4979   -2.6639 H   0  0  0  0  0  0  0  0  0  0  0  0
   -1.0852   -2.0982   -3.1688 H   0  0  0  0  0  0  0  0  0  0  0  0
   -4.3444   -2.3587    0.8612 H   0  0  0  0  0  0  0  0  0  0  0  0
   -2.9985   -2.2281    1.9762 H   0  0  0  0  0  0  0  0  0  0  0  0
   -4.6919   -0.5534    2.4069 H   0  0  0  0  0  0  0  0  0  0  0  0
   -5.8173    0.2333    0.5662 H   0  0  0  0  0  0  0  0  0  0  0  0
   -4.3955    0.2751   -0.4856 H   0  0  0  0  0  0  0  0  0  0  0  0
   -3.8867    2.4034    0.1254 H   0  0  0  0  0  0  0  0  0  0  0  0
   -5.3931    2.4789    1.0580 H   0  0  0  0  0  0  0  0  0  0  0  0
   -3.0674    2.6553    2.2271 H   0  0  0  0  0  0  0  0  0  0  0  0
   -2.0896    0.7250    1.4038 H   0  0  0  0  0  0  0  0  0  0  0  0
   -2.5543    0.3196    3.0737 H   0  0  0  0  0  0  0  0  0  0  0  0
  1  2  2  0
  2  3  1  0
  3  4  1  0
  4  5  2  0
  5  6  1  0
  6  7  1  0
  7  8  2  0
  8  9  1  0
  8 10  1  0
 10 11  2  0
 11 12  1  0
 12 13  2  0
  2 14  1  0
 14 15  2  0
 15 16  1  0
 16 17  1  0
 17 18  1  0
 18 19  1  0
 19 20  1  0
 20 21  1  0
 21 22  1  0
 22 23  1  0
 17 24  2  0
 13  4  1  0
 24 14  1  0
 13  7  1  0
 23 19  1  0
  3 25  1  0
  6 26  1  0
 10 27  1  0
 11 28  1  0
 12 29  1  0
 15 30  1  0
 18 31  1  0
 18 32  1  0
 19 33  1  0
 20 34  1  0
 20 35  1  0
 21 36  1  0
 21 37  1  0
 22 38  1  0
 23 39  1  0
 23 40  1  0
M  END
$$$$
OCNT-2311754
     RDKit          3D

 48 50  0  0  0  0  0  0  0  0999 V2000
   -3.9998    2.8926    1.7763 C   0  0  0  0  0  0  0  0  0  0  0  0
   -3.4647    1.6442    1.2911 N   0  0  0  0  0  0  0  0  0  0  0  0
   -2.5346    0.8610    1.8933 C   0  0  0  0  0  0  0  0  0  0  0  0
   -2.3348   -0.2279    1.0632 C   0  0  0  0  0  0  0  0  0  0  0  0
   -1.4073   -1.3665    1.3278 C   0  0  0  0  0  0  0  0  0  0  0  0
   -0.0840   -1.1031    0.7644 N   0  0  0  0  0  0  0  0  0  0  0  0
    0.7276   -0.2132    1.5851 C   0  0  0  0  0  0  0  0  0  0  0  0
    2.0915   -0.0358    0.9750 C   0  0  0  0  0  0  0  0  0  0  0  0
    2.3878    1.0445    0.1416 C   0  0  0  0  0  0  0  0  0  0  0  0
    3.6610    1.1666   -0.4171 C   0  0  0  0  0  0  0  0  0  0  0  0
    4.6129    0.1923   -0.1285 C   0  0  0  0  0  0  0  0  0  0  0  0
    5.9229    0.2806   -0.6740 N   0  0  0  0  0  0  0  0  0  0  0  0
    6.4565    1.2431   -1.5038 C   0  0  0  0  0  0  0  0  0  0  0  0
    7.7580    0.8603   -1.7337 C   0  0  0  0  0  0  0  0  0  0  0  0
    8.0485   -0.3017   -1.0772 N   0  0  0  0  0  0  0  0  0  0  0  0
    6.9361   -0.6266   -0.4538 C   0  0  0  0  0  0  0  0  0  0  0  0
    4.3451   -0.8722    0.6710 N   0  0  0  0  0  0  0  0  0  0  0  0
    3.0993   -0.9666    1.1912 C   0  0  0  0  0  0  0  0  0  0  0  0
   -3.2394   -0.0067   -0.0320 C   0  0  0  0  0  0  0  0  0  0  0  0
   -3.5517   -0.8773   -1.2518 C   0  0  0  0  0  0  0  0  0  0  0  0
   -2.2703   -1.3128   -1.9873 C   0  0  0  0  0  0  0  0  0  0  0  0
   -4.4205   -0.1174   -2.2873 C   0  0  0  0  0  0  0  0  0  0  0  0
   -4.3430   -2.1269   -0.8172 C   0  0  0  0  0  0  0  0  0  0  0  0
   -3.9047    1.1489    0.1305 N   0  0  0  0  0  0  0  0  0  0  0  0
   -5.0779    2.7763    1.9125 H   0  0  0  0  0  0  0  0  0  0  0  0
   -3.5285    3.1449    2.7294 H   0  0  0  0  0  0  0  0  0  0  0  0
   -3.7865    3.6696    1.0379 H   0  0  0  0  0  0  0  0  0  0  0  0
   -2.0957    1.1249    2.8453 H   0  0  0  0  0  0  0  0  0  0  0  0
   -1.7992   -2.2825    0.8776 H   0  0  0  0  0  0  0  0  0  0  0  0
   -1.3422   -1.5733    2.4032 H   0  0  0  0  0  0  0  0  0  0  0  0
   -0.1883   -0.7020   -0.1660 H   0  0  0  0  0  0  0  0  0  0  0  0
    0.2631    0.7730    1.6945 H   0  0  0  0  0  0  0  0  0  0  0  0
    0.8453   -0.6207    2.5971 H   0  0  0  0  0  0  0  0  0  0  0  0
    1.6307    1.7937   -0.0790 H   0  0  0  0  0  0  0  0  0  0  0  0
    3.8671    2.0143   -1.0593 H   0  0  0  0  0  0  0  0  0  0  0  0
    5.9007    2.0963   -1.8591 H   0  0  0  0  0  0  0  0  0  0  0  0
    8.5006    1.3640   -2.3394 H   0  0  0  0  0  0  0  0  0  0  0  0
    6.7968   -1.5004    0.1701 H   0  0  0  0  0  0  0  0  0  0  0  0
    2.9271   -1.8465    1.8064 H   0  0  0  0  0  0  0  0  0  0  0  0
   -1.6309   -0.4522   -2.2155 H   0  0  0  0  0  0  0  0  0  0  0  0
   -1.6811   -2.0248   -1.4036 H   0  0  0  0  0  0  0  0  0  0  0  0
   -2.5070   -1.8120   -2.9345 H   0  0  0  0  0  0  0  0  0  0  0  0
   -3.9154    0.7889   -2.6423 H   0  0  0  0  0  0  0  0  0  0  0  0
   -4.6324   -0.7418   -3.1634 H   0  0  0  0  0  0  0  0  0  0  0  0
   -5.3865    0.1818   -1.8635 H   0  0  0  0  0  0  0  0  0  0  0  0
   -4.6041   -2.7510   -1.6797 H   0  0  0  0  0  0  0  0  0  0  0  0
   -3.7728   -2.7517   -0.1227 H   0  0  0  0  0  0  0  0  0  0  0  0
   -5.2754   -1.8481   -0.3120 H   0  0  0  0  0  0  0  0  0  0  0  0
  1  2  1  0
  2  3  1  0
  3  4  2  0
  4  5  1  0
  5  6  1  0
  6  7  1  0
  7  8  1  0
  8  9  2  0
  9 10  1  0
 10 11  2  0
 11 12  1  0
 12 13  1  0
 13 14  2  0
 14 15  1  0
 15 16  2  0
 11 17  1  0
 17 18  2  0
  4 19  1  0
 19 20  1  0
 20 21  1  0
 20 22  1  0
 20 23  1  0
 19 24  2  0
 24  2  1  0
 18  8  1  0
 16 12  1  0
  1 25  1  0
  1 26  1  0
  1 27  1  0
  3 28  1  0
  5 29  1  0
  5 30  1  0
  6 31  1  0
  7 32  1  0
  7 33  1  0
  9 34  1  0
 10 35  1  0
 13 36  1  0
 14 37  1  0
 16 38  1  0
 18 39  1  0
 21 40  1  0
 21 41  1  0
 21 42  1  0
 22 43  1  0
 22 44  1  0
 22 45  1  0
 23 46  1  0
 23 47  1  0
 23 48  1  0
M  END
$$$$
OCNT-2311760
     RDKit          3D

 42 45  0  0  0  0  0  0  0  0999 V2000
   -0.1741   -1.4753    2.1325 O   0  0  0  0  0  0  0  0  0  0  0  0
   -0.5264   -1.4265    0.9561 C   0  0  0  0  0  0  0  0  0  0  0  0
   -1.6283   -2.3207    0.4074 C   0  0  0  0  0  0  0  0  0  0  0  0
   -2.6181   -1.5893   -0.4473 C   0  0  0  0  0  0  0  0  0  0  0  0
   -2.9047   -1.8466   -1.7746 C   0  0  0  0  0  0  0  0  0  0  0  0
   -3.8690   -0.9666   -2.1870 N   0  0  0  0  0  0  0  0  0  0  0  0
   -4.2170   -0.1254   -1.1560 C   0  0  0  0  0  0  0  0  0  0  0  0
   -5.1472    0.9221   -1.1242 C   0  0  0  0  0  0  0  0  0  0  0  0
   -5.3002    1.6110    0.0814 C   0  0  0  0  0  0  0  0  0  0  0  0
   -4.5523    1.2563    1.1965 C   0  0  0  0  0  0  0  0  0  0  0  0
   -4.7217    1.9364    2.3387 F   0  0  0  0  0  0  0  0  0  0  0  0
   -3.6289    0.2118    1.1588 C   0  0  0  0  0  0  0  0  0  0  0  0
   -3.4546   -0.4971   -0.0466 C   0  0  0  0  0  0  0  0  0  0  0  0
    0.0922   -0.6121    0.0285 N   0  0  0  0  0  0  0  0  0  0  0  0
    1.0926    0.3635    0.4457 C   0  0  0  0  0  0  0  0  0  0  0  0
    2.4747   -0.2680    0.7707 C   0  0  0  0  0  0  0  0  0  0  0  0
    2.9523   -1.1671   -0.3192 N   0  0  0  0  0  0  0  0  0  0  0  0
    3.4986   -0.4346   -1.4729 C   0  0  0  0  0  0  0  0  0  0  0  0
    4.7553    0.3824   -1.1152 C   0  0  0  0  0  0  0  0  0  0  0  0
    4.5321    1.0980    0.1767 C   0  0  0  0  0  0  0  0  0  0  0  0
    3.5141    0.7899    1.0586 C   0  0  0  0  0  0  0  0  0  0  0  0
    3.5958    1.6054    2.2318 C   0  0  0  0  0  0  0  0  0  0  0  0
    4.6489    2.4938    2.1783 C   0  0  0  0  0  0  0  0  0  0  0  0
    5.5440    2.3451    0.7266 S   0  0  0  0  0  0  0  0  0  0  0  0
   -1.1514   -3.1317   -0.1553 H   0  0  0  0  0  0  0  0  0  0  0  0
   -2.1570   -2.7739    1.2544 H   0  0  0  0  0  0  0  0  0  0  0  0
   -2.5127   -2.5892   -2.4578 H   0  0  0  0  0  0  0  0  0  0  0  0
   -4.2761   -0.9376   -3.1122 H   0  0  0  0  0  0  0  0  0  0  0  0
   -5.7319    1.1924   -1.9976 H   0  0  0  0  0  0  0  0  0  0  0  0
   -6.0090    2.4304    0.1577 H   0  0  0  0  0  0  0  0  0  0  0  0
   -3.0635   -0.0364    2.0517 H   0  0  0  0  0  0  0  0  0  0  0  0
   -0.3999   -0.4382   -0.8402 H   0  0  0  0  0  0  0  0  0  0  0  0
    0.7064    0.8980    1.3223 H   0  0  0  0  0  0  0  0  0  0  0  0
    1.1773    1.0945   -0.3668 H   0  0  0  0  0  0  0  0  0  0  0  0
    2.3725   -0.8974    1.6630 H   0  0  0  0  0  0  0  0  0  0  0  0
    2.1491   -1.7219   -0.6141 H   0  0  0  0  0  0  0  0  0  0  0  0
    3.7597   -1.1540   -2.2574 H   0  0  0  0  0  0  0  0  0  0  0  0
    2.7309    0.2223   -1.8997 H   0  0  0  0  0  0  0  0  0  0  0  0
    5.6128   -0.2931   -1.0061 H   0  0  0  0  0  0  0  0  0  0  0  0
    4.9791    1.0851   -1.9255 H   0  0  0  0  0  0  0  0  0  0  0  0
    2.9154    1.5432    3.0731 H   0  0  0  0  0  0  0  0  0  0  0  0
    4.9403    3.2212    2.9232 H   0  0  0  0  0  0  0  0  0  0  0  0
  1  2  2  0
  2  3  1  0
  3  4  1  0
  4  5  2  0
  5  6  1  0
  6  7  1  0
  7  8  2  0
  8  9  1  0
  9 10  2  0
 10 11  1  0
 10 12  1  0
 12 13  2  0
  2 14  1  0
 14 15  1  0
 15 16  1  0
 16 17  1  0
 17 18  1  0
 18 19  1  0
 19 20  1  0
 20 21  2  0
 21 22  1  0
 22 23  2  0
 23 24  1  0
 13  4  1  0
 21 16  1  0
 13  7  1  0
 24 20  1  0
  3 25  1  0
  3 26  1  0
  5 27  1  0
  6 28  1  0
  8 29  1  0
  9 30  1  0
 12 31  1  0
 14 32  1  0
 15 33  1  0
 15 34  1  0
 16 35  1  0
 17 36  1  0
 18 37  1  0
 18 38  1  0
 19 39  1  0
 19 40  1  0
 22 41  1  0
 23 42  1  0
M  END
$$$$
OCNT-2311765
     RDKit          3D

  0  0  0  0  0  0  0  0  0  0999 V3000
M  V30 BEGIN CTAB
M  V30 COUNTS 41 43 0 0 0
M  V30 BEGIN ATOM
M  V30 1 C 6.362264 0.934063 1.381890 0
M  V30 2 O 5.018179 0.998054 0.922814 0
M  V30 3 C 4.372134 -0.190621 0.679857 0
M  V30 4 C 4.968384 -1.447683 0.801528 0
M  V30 5 C 4.228398 -2.595038 0.530956 0
M  V30 6 C 2.894323 -2.485970 0.137810 0
M  V30 7 C 2.270110 -1.255173 0.004552 0
M  V30 8 N 0.980589 -1.228929 -0.379359 0
M  V30 9 C 0.332468 -0.050072 -0.515940 0
M  V30 10 N -0.978582 -0.080331 -0.926387 0
M  V30 11 C -1.698945 -1.354723 -0.928760 0
M  V30 12 C -3.184715 -0.960792 -0.802949 0 CFG=2
M  V30 13 O -4.059795 -1.798641 -1.549324 0
M  V30 14 C -3.205475 0.457219 -1.374420 0 CFG=1
M  V30 15 C -4.472431 1.261510 -1.099072 0
M  V30 16 C -4.830647 1.468047 0.357289 0
M  V30 17 N -6.032764 2.086134 0.550969 0
M  V30 18 O -4.128508 1.157832 1.309915 0
M  V30 19 C -1.897184 1.049222 -0.845315 0
M  V30 20 C 1.001170 1.143064 -0.275735 0
M  V30 21 C 2.337035 1.124621 0.122740 0
M  V30 22 C 3.014206 -0.092979 0.276163 0
M  V30 23 H 7.015038 0.482352 0.627782 0
M  V30 24 H 6.707368 1.959347 1.548255 0
M  V30 25 H 6.429779 0.402151 2.336653 0
M  V30 26 H 6.004456 -1.568772 1.100380 0
M  V30 27 H 4.686633 -3.576380 0.622832 0
M  V30 28 H 2.323009 -3.386533 -0.074536 0
M  V30 29 H -1.431090 -2.003099 -0.086285 0
M  V30 30 H -1.507632 -1.901531 -1.859315 0
M  V30 31 H -3.488721 -0.991749 0.247707 0
M  V30 32 H -3.931339 -2.706371 -1.220728 0
M  V30 33 H -3.126569 0.379779 -2.470332 0
M  V30 34 H -4.372177 2.253994 -1.555675 0
M  V30 35 H -5.321564 0.762262 -1.582789 0
M  V30 36 H -6.350722 2.165863 1.508508 0
M  V30 37 H -6.726290 2.141743 -0.182846 0
M  V30 38 H -1.976057 1.400630 0.187593 0
M  V30 39 H -1.575069 1.881759 -1.480980 0
M  V30 40 H 0.505294 2.099051 -0.393056 0
M  V30 41 H 2.845439 2.066692 0.310753 0
M  V30 END ATOM
M  V30 BEGIN BOND
M  V30 1 1 1 2
M  V30 2 1 2 3
M  V30 3 1 3 4
M  V30 4 2 4 5
M  V30 5 1 5 6
M  V30 6 2 6 7
M  V30 7 1 7 8
M  V30 8 2 8 9
M  V30 9 1 9 10
M  V30 10 1 10 11
M  V30 11 1 11 12
M  V30 12 1 12 13
M  V30 13 1 12 14
M  V30 14 1 14 15
M  V30 15 1 15 16
M  V30 16 1 16 17
M  V30 17 2 16 18
M  V30 18 1 14 19
M  V30 19 1 9 20
M  V30 20 2 20 21
M  V30 21 1 21 22
M  V30 22 2 22 3
M  V30 23 1 22 7
M  V30 24 1 19 10
M  V30 25 1 1 23
M  V30 26 1 1 24
M  V30 27 1 1 25
M  V30 28 1 4 26
M  V30 29 1 5 27
M  V30 30 1 6 28
M  V30 31 1 11 29
M  V30 32 1 11 30
M  V30 33 1 12 31 CFG=1
M  V30 34 1 13 32
M  V30 35 1 14 33 CFG=3
M  V30 36 1 15 34
M  V30 37 1 15 35
M  V30 38 1 17 36
M  V30 39 1 17 37
M  V30 40 1 19 38
M  V30 41 1 19 39
M  V30 42 1 20 40
M  V30 43 1 21 41
M  V30 END BOND
M  V30 BEGIN COLLECTION
M  V30 MDLV30/STERAC1 ATOMS=(2 12 14)
M  V30 END COLLECTION
M  V30 END CTAB
M  END
>  <_CXSMILES_Data>  (516) 
|&1:11,13|

$$$$
OCNT-2311766
     RDKit          3D

 54 55  0  0  0  0  0  0  0  0999 V2000
    3.0830    1.2163   -1.0739 C   0  0  0  0  0  0  0  0  0  0  0  0
    2.8527    1.2167    0.4131 C   0  0  0  0  0  0  0  0  0  0  0  0
    3.0009    2.4281    1.1126 C   0  0  0  0  0  0  0  0  0  0  0  0
    2.8220    2.4894    2.4934 C   0  0  0  0  0  0  0  0  0  0  0  0
    2.5043    1.3365    3.1996 C   0  0  0  0  0  0  0  0  0  0  0  0
    2.3624    0.1261    2.5222 C   0  0  0  0  0  0  0  0  0  0  0  0
    2.5192    0.0461    1.1253 C   0  0  0  0  0  0  0  0  0  0  0  0
    2.3857   -1.3143    0.4632 C   0  0  0  0  0  0  0  0  0  0  0  0
    0.9783   -1.9603    0.5882 C   0  0  0  0  0  0  0  0  0  0  0  0
    1.1010   -3.4003    1.1174 C   0  0  0  0  0  0  0  0  0  0  0  0
    1.5881   -3.4137    2.4540 O   0  0  0  0  0  0  0  0  0  0  0  0
    0.2333   -2.0108   -0.7653 C   0  0  0  0  0  0  0  0  0  0  0  0
   -0.0907   -0.7186   -1.3431 N   0  0  0  0  0  0  0  0  0  0  0  0
   -1.1471    0.0716   -0.6903 C   0  0  0  0  0  0  0  0  0  0  0  0
   -2.5844   -0.2420   -1.1915 C   0  0  0  0  0  0  0  0  0  0  0  0
   -3.2021   -1.6022   -0.8153 C   0  0  0  0  0  0  0  0  0  0  0  0
   -3.2356   -1.8362    0.6951 C   0  0  0  0  0  0  0  0  0  0  0  0
   -4.6272   -1.6899   -1.3757 C   0  0  0  0  0  0  0  0  0  0  0  0
   -0.8863    1.5630   -0.9639 C   0  0  0  0  0  0  0  0  0  0  0  0
   -0.4938    2.4041    0.0766 C   0  0  0  0  0  0  0  0  0  0  0  0
   -0.2559    3.7487   -0.1951 C   0  0  0  0  0  0  0  0  0  0  0  0
   -0.4095    4.2199   -1.4923 C   0  0  0  0  0  0  0  0  0  0  0  0
   -0.7968    3.3219   -2.4717 C   0  0  0  0  0  0  0  0  0  0  0  0
   -1.0387    2.0134   -2.2412 N   0  0  0  0  0  0  0  0  0  0  0  0
    2.2113    0.8259   -1.6043 H   0  0  0  0  0  0  0  0  0  0  0  0
    3.2609    2.2285   -1.4530 H   0  0  0  0  0  0  0  0  0  0  0  0
    3.9633    0.6136   -1.3189 H   0  0  0  0  0  0  0  0  0  0  0  0
    3.2601    3.3386    0.5764 H   0  0  0  0  0  0  0  0  0  0  0  0
    2.9436    3.4339    3.0160 H   0  0  0  0  0  0  0  0  0  0  0  0
    2.3818    1.3737    4.2785 H   0  0  0  0  0  0  0  0  0  0  0  0
    2.1460   -0.7717    3.0967 H   0  0  0  0  0  0  0  0  0  0  0  0
    2.6828   -1.2693   -0.5896 H   0  0  0  0  0  0  0  0  0  0  0  0
    3.1470   -1.9544    0.9297 H   0  0  0  0  0  0  0  0  0  0  0  0
    0.3754   -1.4033    1.3150 H   0  0  0  0  0  0  0  0  0  0  0  0
    0.1299   -3.9075    1.1162 H   0  0  0  0  0  0  0  0  0  0  0  0
    1.7862   -3.9904    0.4993 H   0  0  0  0  0  0  0  0  0  0  0  0
    0.9152   -2.9887    3.0131 H   0  0  0  0  0  0  0  0  0  0  0  0
   -0.6601   -2.6303   -0.6730 H   0  0  0  0  0  0  0  0  0  0  0  0
    0.8727   -2.5389   -1.4846 H   0  0  0  0  0  0  0  0  0  0  0  0
   -0.3067   -0.7827   -2.3376 H   0  0  0  0  0  0  0  0  0  0  0  0
   -1.1121   -0.0635    0.3950 H   0  0  0  0  0  0  0  0  0  0  0  0
   -3.2567    0.5442   -0.8166 H   0  0  0  0  0  0  0  0  0  0  0  0
   -2.6119   -0.1484   -2.2867 H   0  0  0  0  0  0  0  0  0  0  0  0
   -2.6312   -2.4056   -1.2902 H   0  0  0  0  0  0  0  0  0  0  0  0
   -2.2285   -1.9046    1.1154 H   0  0  0  0  0  0  0  0  0  0  0  0
   -3.7474   -2.7756    0.9306 H   0  0  0  0  0  0  0  0  0  0  0  0
   -3.7642   -1.0263    1.2097 H   0  0  0  0  0  0  0  0  0  0  0  0
   -5.2764   -0.9245   -0.9361 H   0  0  0  0  0  0  0  0  0  0  0  0
   -5.0686   -2.6700   -1.1644 H   0  0  0  0  0  0  0  0  0  0  0  0
   -4.6275   -1.5525   -2.4624 H   0  0  0  0  0  0  0  0  0  0  0  0
   -0.3518    2.0195    1.0817 H   0  0  0  0  0  0  0  0  0  0  0  0
    0.0584    4.4171    0.6013 H   0  0  0  0  0  0  0  0  0  0  0  0
   -0.2266    5.2598   -1.7359 H   0  0  0  0  0  0  0  0  0  0  0  0
   -0.9275    3.6401   -3.5016 H   0  0  0  0  0  0  0  0  0  0  0  0
  1  2  1  0
  2  3  2  0
  3  4  1  0
  4  5  2  0
  5  6  1  0
  6  7  2  0
  7  8  1  0
  8  9  1  0
  9 10  1  0
 10 11  1  0
  9 12  1  0
 12 13  1  0
 13 14  1  0
 14 15  1  0
 15 16  1  0
 16 17  1  0
 16 18  1  0
 14 19  1  0
 19 20  2  0
 20 21  1  0
 21 22  2  0
 22 23  1  0
 23 24  2  0
  7  2  1  0
 24 19  1  0
  1 25  1  0
  1 26  1  0
  1 27  1  0
  3 28  1  0
  4 29  1  0
  5 30  1  0
  6 31  1  0
  8 32  1  0
  8 33  1  0
  9 34  1  0
 10 35  1  0
 10 36  1  0
 11 37  1  0
 12 38  1  0
 12 39  1  0
 13 40  1  0
 14 41  1  0
 15 42  1  0
 15 43  1  0
 16 44  1  0
 17 45  1  0
 17 46  1  0
 17 47  1  0
 18 48  1  0
 18 49  1  0
 18 50  1  0
 20 51  1  0
 21 52  1  0
 22 53  1  0
 23 54  1  0
M  END
$$$$
OCNT-2311769
     RDKit          3D

 46 48  0  0  0  0  0  0  0  0999 V2000
   -2.5807    3.3055    2.7572 C   0  0  0  0  0  0  0  0  0  0  0  0
   -3.4967    1.7419    2.8375 S   0  0  0  0  0  0  0  0  0  0  0  0
   -2.5662    0.7608    1.6749 C   0  0  0  0  0  0  0  0  0  0  0  0
   -2.2737    1.2125    0.3872 C   0  0  0  0  0  0  0  0  0  0  0  0
   -1.5360    0.4145   -0.4922 C   0  0  0  0  0  0  0  0  0  0  0  0
   -1.0800   -0.8568   -0.1057 C   0  0  0  0  0  0  0  0  0  0  0  0
   -0.2140   -1.6716   -1.0762 C   0  0  0  0  0  0  0  0  0  0  0  0
    1.1354   -2.1348   -0.4180 C   0  0  0  0  0  0  0  0  0  0  0  0
    1.8527   -1.0431    0.2701 N   0  0  0  0  0  0  0  0  0  0  0  0
    2.3951   -0.0551   -0.5476 C   0  0  0  0  0  0  0  0  0  0  0  0
    2.7384   -0.3465   -1.8229 N   0  0  0  0  0  0  0  0  0  0  0  0
    3.2436    0.6185   -2.6126 C   0  0  0  0  0  0  0  0  0  0  0  0
    3.4534    1.9023   -2.3038 N   0  0  0  0  0  0  0  0  0  0  0  0
    3.1204    2.1901   -1.0291 C   0  0  0  0  0  0  0  0  0  0  0  0
    2.6099    1.2593   -0.1361 C   0  0  0  0  0  0  0  0  0  0  0  0
    2.4386    1.9570    1.0328 N   0  0  0  0  0  0  0  0  0  0  0  0
    1.9831    1.4481    2.3048 C   0  0  0  0  0  0  0  0  0  0  0  0
    2.7496    3.2712    0.9427 N   0  0  0  0  0  0  0  0  0  0  0  0
    3.1814    3.3999   -0.3153 C   0  0  0  0  0  0  0  0  0  0  0  0
   -0.9228   -2.7692   -1.7847 N   0  0  0  0  0  0  0  0  0  0  0  0
   -1.9618   -2.2712   -2.6860 C   0  0  0  0  0  0  0  0  0  0  0  0
   -1.4460   -3.8382   -0.9430 C   0  0  0  0  0  0  0  0  0  0  0  0
   -1.4011   -1.3123    1.1818 C   0  0  0  0  0  0  0  0  0  0  0  0
   -2.1407   -0.5131    2.0594 C   0  0  0  0  0  0  0  0  0  0  0  0
   -1.5135    3.1356    2.9256 H   0  0  0  0  0  0  0  0  0  0  0  0
   -2.9522    3.9748    3.5380 H   0  0  0  0  0  0  0  0  0  0  0  0
   -2.7258    3.7945    1.7907 H   0  0  0  0  0  0  0  0  0  0  0  0
   -2.6208    2.1838    0.0448 H   0  0  0  0  0  0  0  0  0  0  0  0
   -1.3118    0.7986   -1.4862 H   0  0  0  0  0  0  0  0  0  0  0  0
    0.1009   -0.9757   -1.8664 H   0  0  0  0  0  0  0  0  0  0  0  0
    1.7798   -2.6151   -1.1656 H   0  0  0  0  0  0  0  0  0  0  0  0
    0.9416   -2.8992    0.3425 H   0  0  0  0  0  0  0  0  0  0  0  0
    1.3049   -0.6605    1.0290 H   0  0  0  0  0  0  0  0  0  0  0  0
    3.5060    0.3172   -3.6219 H   0  0  0  0  0  0  0  0  0  0  0  0
    2.1420    2.2046    3.0783 H   0  0  0  0  0  0  0  0  0  0  0  0
    0.9171    1.2240    2.2234 H   0  0  0  0  0  0  0  0  0  0  0  0
    2.5585    0.5536    2.5540 H   0  0  0  0  0  0  0  0  0  0  0  0
    3.5201    4.3647   -0.6666 H   0  0  0  0  0  0  0  0  0  0  0  0
   -1.5584   -1.5184   -3.3723 H   0  0  0  0  0  0  0  0  0  0  0  0
   -2.3438   -3.0848   -3.3133 H   0  0  0  0  0  0  0  0  0  0  0  0
   -2.8103   -1.8339   -2.1486 H   0  0  0  0  0  0  0  0  0  0  0  0
   -1.7979   -4.6680   -1.5675 H   0  0  0  0  0  0  0  0  0  0  0  0
   -0.6740   -4.2615   -0.2942 H   0  0  0  0  0  0  0  0  0  0  0  0
   -2.2890   -3.5161   -0.3234 H   0  0  0  0  0  0  0  0  0  0  0  0
   -1.0770   -2.2932    1.5214 H   0  0  0  0  0  0  0  0  0  0  0  0
   -2.3781   -0.8946    3.0505 H   0  0  0  0  0  0  0  0  0  0  0  0
  1  2  1  0
  2  3  1  0
  3  4  1  0
  4  5  2  0
  5  6  1  0
  6  7  1  0
  7  8  1  0
  8  9  1  0
  9 10  1  0
 10 11  1  0
 11 12  2  0
 12 13  1  0
 13 14  2  0
 14 15  1  0
 15 16  1  0
 16 17  1  0
 16 18  1  0
 18 19  2  0
  7 20  1  0
 20 21  1  0
 20 22  1  0
  6 23  2  0
 23 24  1  0
 24  3  2  0
 15 10  2  0
 19 14  1  0
  1 25  1  0
  1 26  1  0
  1 27  1  0
  4 28  1  0
  5 29  1  0
  7 30  1  0
  8 31  1  0
  8 32  1  0
  9 33  1  0
 12 34  1  0
 17 35  1  0
 17 36  1  0
 17 37  1  0
 19 38  1  0
 21 39  1  0
 21 40  1  0
 21 41  1  0
 22 42  1  0
 22 43  1  0
 22 44  1  0
 23 45  1  0
 24 46  1  0
M  END
$$$$
OCNT-2311777
     RDKit          3D

 52 55  0  0  0  0  0  0  0  0999 V2000
   -7.7195    2.6688    1.7339 C   0  0  0  0  0  0  0  0  0  0  0  0
   -6.7922    1.6925    1.0689 C   0  0  0  0  0  0  0  0  0  0  0  0
   -5.8560    0.9861    1.8305 C   0  0  0  0  0  0  0  0  0  0  0  0
   -4.9617    0.0907    1.2296 C   0  0  0  0  0  0  0  0  0  0  0  0
   -4.9964   -0.0947   -0.1667 C   0  0  0  0  0  0  0  0  0  0  0  0
   -4.2485   -0.9006   -1.0848 C   0  0  0  0  0  0  0  0  0  0  0  0
   -3.1303   -1.8373   -0.7506 C   0  0  0  0  0  0  0  0  0  0  0  0
   -1.7984   -1.1030   -0.6273 C   0  0  0  0  0  0  0  0  0  0  0  0
   -0.6583   -2.0459   -0.2895 C   0  0  0  0  0  0  0  0  0  0  0  0
   -0.8222   -3.2533   -0.1658 O   0  0  0  0  0  0  0  0  0  0  0  0
    0.5404   -1.3588   -0.1579 N   0  0  0  0  0  0  0  0  0  0  0  0
    1.8052   -1.8913    0.1706 C   0  0  0  0  0  0  0  0  0  0  0  0
    2.0346   -3.2401    0.4536 C   0  0  0  0  0  0  0  0  0  0  0  0
    3.3132   -3.6905    0.7998 C   0  0  0  0  0  0  0  0  0  0  0  0
    4.3797   -2.7972    0.8551 C   0  0  0  0  0  0  0  0  0  0  0  0
    4.1685   -1.4514    0.5489 C   0  0  0  0  0  0  0  0  0  0  0  0
    5.3244   -0.5179    0.6086 C   0  0  0  0  0  0  0  0  0  0  0  0
    6.1335   -0.6508    1.5174 O   0  0  0  0  0  0  0  0  0  0  0  0
    5.3738    0.4014   -0.4243 N   0  0  0  0  0  0  0  0  0  0  0  0
    6.3253    1.4295   -0.6021 C   0  0  0  0  0  0  0  0  0  0  0  0
    6.2423    2.1870   -1.7713 C   0  0  0  0  0  0  0  0  0  0  0  0
    7.1592    3.2076   -1.9681 C   0  0  0  0  0  0  0  0  0  0  0  0
    8.1329    3.5191   -1.0906 N   0  0  0  0  0  0  0  0  0  0  0  0
    8.1921    2.7734    0.0330 C   0  0  0  0  0  0  0  0  0  0  0  0
    7.3218    1.7332    0.3198 C   0  0  0  0  0  0  0  0  0  0  0  0
    2.8822   -0.9960    0.2220 C   0  0  0  0  0  0  0  0  0  0  0  0
   -4.7532   -0.6445   -2.3449 C   0  0  0  0  0  0  0  0  0  0  0  0
   -5.7633    0.2713   -2.2255 N   0  0  0  0  0  0  0  0  0  0  0  0
   -5.9294    0.6285   -0.9081 C   0  0  0  0  0  0  0  0  0  0  0  0
   -6.8307    1.5287   -0.3245 C   0  0  0  0  0  0  0  0  0  0  0  0
   -7.9697    2.3409    2.7484 H   0  0  0  0  0  0  0  0  0  0  0  0
   -7.2484    3.6552    1.7861 H   0  0  0  0  0  0  0  0  0  0  0  0
   -8.6602    2.7545    1.1798 H   0  0  0  0  0  0  0  0  0  0  0  0
   -5.8150    1.1223    2.9093 H   0  0  0  0  0  0  0  0  0  0  0  0
   -4.2503   -0.4560    1.8412 H   0  0  0  0  0  0  0  0  0  0  0  0
   -3.0595   -2.6121   -1.5249 H   0  0  0  0  0  0  0  0  0  0  0  0
   -3.3605   -2.3623    0.1851 H   0  0  0  0  0  0  0  0  0  0  0  0
   -1.5588   -0.5968   -1.5708 H   0  0  0  0  0  0  0  0  0  0  0  0
   -1.8582   -0.3397    0.1584 H   0  0  0  0  0  0  0  0  0  0  0  0
    0.4992   -0.3577   -0.3053 H   0  0  0  0  0  0  0  0  0  0  0  0
    1.2338   -3.9735    0.4305 H   0  0  0  0  0  0  0  0  0  0  0  0
    3.4701   -4.7414    1.0323 H   0  0  0  0  0  0  0  0  0  0  0  0
    5.3708   -3.1495    1.1338 H   0  0  0  0  0  0  0  0  0  0  0  0
    4.7060    0.2824   -1.1752 H   0  0  0  0  0  0  0  0  0  0  0  0
    5.4886    1.9983   -2.5266 H   0  0  0  0  0  0  0  0  0  0  0  0
    7.1328    3.8195   -2.8652 H   0  0  0  0  0  0  0  0  0  0  0  0
    8.9845    3.0412    0.7264 H   0  0  0  0  0  0  0  0  0  0  0  0
    7.4448    1.1955    1.2515 H   0  0  0  0  0  0  0  0  0  0  0  0
    2.7198    0.0623    0.0378 H   0  0  0  0  0  0  0  0  0  0  0  0
   -4.4823   -1.0411   -3.3144 H   0  0  0  0  0  0  0  0  0  0  0  0
   -6.3151    0.6343   -2.9901 H   0  0  0  0  0  0  0  0  0  0  0  0
   -7.5413    2.0795   -0.9330 H   0  0  0  0  0  0  0  0  0  0  0  0
  1  2  1  0
  2  3  2  0
  3  4  1  0
  4  5  2  0
  5  6  1  0
  6  7  1  0
  7  8  1  0
  8  9  1  0
  9 10  2  0
  9 11  1  0
 11 12  1  0
 12 13  2  0
 13 14  1  0
 14 15  2  0
 15 16  1  0
 16 17  1  0
 17 18  2  0
 17 19  1  0
 19 20  1  0
 20 21  2  0
 21 22  1  0
 22 23  2  0
 23 24  1  0
 24 25  2  0
 16 26  2  0
  6 27  2  0
 27 28  1  0
 28 29  1  0
 29 30  2  0
 30  2  1  0
 29  5  1  0
 26 12  1  0
 25 20  1  0
  1 31  1  0
  1 32  1  0
  1 33  1  0
  3 34  1  0
  4 35  1  0
  7 36  1  0
  7 37  1  0
  8 38  1  0
  8 39  1  0
 11 40  1  0
 13 41  1  0
 14 42  1  0
 15 43  1  0
 19 44  1  0
 21 45  1  0
 22 46  1  0
 24 47  1  0
 25 48  1  0
 26 49  1  0
 27 50  1  0
 28 51  1  0
 30 52  1  0
M  END
$$$$
OCNT-2311787
     RDKit          3D

 53 57  0  0  0  0  0  0  0  0999 V2000
    1.5298    2.4572    2.2399 C   0  0  0  0  0  0  0  0  0  0  0  0
    2.3166    1.7272    1.2126 C   0  0  0  0  0  0  0  0  0  0  0  0
    3.2307    0.8292    1.5923 N   0  0  0  0  0  0  0  0  0  0  0  0
    3.7610    0.3446    0.4423 N   0  0  0  0  0  0  0  0  0  0  0  0
    4.7866   -0.6428    0.4682 C   0  0  0  0  0  0  0  0  0  0  0  0
    5.3398   -1.1515   -0.7154 C   0  0  0  0  0  0  0  0  0  0  0  0
    6.3453   -2.1217   -0.6576 C   0  0  0  0  0  0  0  0  0  0  0  0
    6.8030   -2.5879    0.5737 C   0  0  0  0  0  0  0  0  0  0  0  0
    6.2584   -2.0865    1.7536 C   0  0  0  0  0  0  0  0  0  0  0  0
    5.2540   -1.1175    1.7040 C   0  0  0  0  0  0  0  0  0  0  0  0
    3.1698    0.9284   -0.6574 C   0  0  0  0  0  0  0  0  0  0  0  0
    2.2279    1.8284   -0.1985 C   0  0  0  0  0  0  0  0  0  0  0  0
    1.3257    2.6919   -1.0037 C   0  0  0  0  0  0  0  0  0  0  0  0
    0.1108    1.9525   -1.2534 N   0  0  0  0  0  0  0  0  0  0  0  0
   -1.0175    2.1492   -0.4915 C   0  0  0  0  0  0  0  0  0  0  0  0
   -1.1464    3.0242    0.3539 O   0  0  0  0  0  0  0  0  0  0  0  0
   -2.0879    1.1486   -0.6856 C   0  0  0  0  0  0  0  0  0  0  0  0
   -2.4628    0.4315    0.4517 C   0  0  0  0  0  0  0  0  0  0  0  0
   -3.4169   -0.5617    0.3230 C   0  0  0  0  0  0  0  0  0  0  0  0
   -3.8769   -1.3977    1.4514 C   0  0  0  0  0  0  0  0  0  0  0  0
   -5.1646   -1.9551    1.4499 C   0  0  0  0  0  0  0  0  0  0  0  0
   -5.5752   -2.7355    2.5193 C   0  0  0  0  0  0  0  0  0  0  0  0
   -4.8018   -3.0064    3.5890 N   0  0  0  0  0  0  0  0  0  0  0  0
   -3.5625   -2.4777    3.5823 C   0  0  0  0  0  0  0  0  0  0  0  0
   -3.0642   -1.6845    2.5580 C   0  0  0  0  0  0  0  0  0  0  0  0
   -3.9934   -0.8284   -0.8761 N   0  0  0  0  0  0  0  0  0  0  0  0
   -3.6513   -0.1177   -1.9646 C   0  0  0  0  0  0  0  0  0  0  0  0
   -4.2788   -0.4135   -3.1675 C   0  0  0  0  0  0  0  0  0  0  0  0
   -3.9963    0.2866   -4.3425 C   0  0  0  0  0  0  0  0  0  0  0  0
   -3.0675    1.3165   -4.3217 C   0  0  0  0  0  0  0  0  0  0  0  0
   -2.4209    1.6308   -3.1283 C   0  0  0  0  0  0  0  0  0  0  0  0
   -2.6921    0.9094   -1.9369 C   0  0  0  0  0  0  0  0  0  0  0  0
    1.3564    3.4946    1.9385 H   0  0  0  0  0  0  0  0  0  0  0  0
    0.5612    1.9704    2.3901 H   0  0  0  0  0  0  0  0  0  0  0  0
    2.0539    2.4756    3.2013 H   0  0  0  0  0  0  0  0  0  0  0  0
    5.0165   -0.8184   -1.6959 H   0  0  0  0  0  0  0  0  0  0  0  0
    6.7735   -2.5150   -1.5765 H   0  0  0  0  0  0  0  0  0  0  0  0
    7.5850   -3.3420    0.6142 H   0  0  0  0  0  0  0  0  0  0  0  0
    6.6140   -2.4477    2.7153 H   0  0  0  0  0  0  0  0  0  0  0  0
    4.8440   -0.7399    2.6393 H   0  0  0  0  0  0  0  0  0  0  0  0
    3.4546    0.6685   -1.6646 H   0  0  0  0  0  0  0  0  0  0  0  0
    1.1122    3.6380   -0.4972 H   0  0  0  0  0  0  0  0  0  0  0  0
    1.7752    2.9181   -1.9761 H   0  0  0  0  0  0  0  0  0  0  0  0
    0.1894    1.1011   -1.7947 H   0  0  0  0  0  0  0  0  0  0  0  0
   -2.0079    0.6643    1.4091 H   0  0  0  0  0  0  0  0  0  0  0  0
   -5.8466   -1.7816    0.6223 H   0  0  0  0  0  0  0  0  0  0  0  0
   -6.5683   -3.1750    2.5401 H   0  0  0  0  0  0  0  0  0  0  0  0
   -2.9530   -2.7174    4.4492 H   0  0  0  0  0  0  0  0  0  0  0  0
   -2.0457   -1.3188    2.6328 H   0  0  0  0  0  0  0  0  0  0  0  0
   -5.0173   -1.2125   -3.1901 H   0  0  0  0  0  0  0  0  0  0  0  0
   -4.5121    0.0299   -5.2644 H   0  0  0  0  0  0  0  0  0  0  0  0
   -2.8525    1.8791   -5.2268 H   0  0  0  0  0  0  0  0  0  0  0  0
   -1.7148    2.4588   -3.1303 H   0  0  0  0  0  0  0  0  0  0  0  0
  1  2  1  0
  2  3  2  0
  3  4  1  0
  4  5  1  0
  5  6  2  0
  6  7  1  0
  7  8  2  0
  8  9  1  0
  9 10  2  0
  4 11  1  0
 11 12  2  0
 12 13  1  0
 13 14  1  0
 14 15  1  0
 15 16  2  0
 15 17  1  0
 17 18  2  0
 18 19  1  0
 19 20  1  0
 20 21  2  0
 21 22  1  0
 22 23  2  0
 23 24  1  0
 24 25  2  0
 19 26  2  0
 26 27  1  0
 27 28  2  0
 28 29  1  0
 29 30  2  0
 30 31  1  0
 31 32  2  0
 12  2  1  0
 32 17  1  0
 10  5  1  0
 25 20  1  0
 32 27  1  0
  1 33  1  0
  1 34  1  0
  1 35  1  0
  6 36  1  0
  7 37  1  0
  8 38  1  0
  9 39  1  0
 10 40  1  0
 11 41  1  0
 13 42  1  0
 13 43  1  0
 14 44  1  0
 18 45  1  0
 21 46  1  0
 22 47  1  0
 24 48  1  0
 25 49  1  0
 28 50  1  0
 29 51  1  0
 30 52  1  0
 31 53  1  0
M  END
$$$$
OCNT-2311790
     RDKit          3D

 49 51  0  0  0  0  0  0  0  0999 V2000
    1.5688    3.7264    1.0515 C   0  0  0  0  0  0  0  0  0  0  0  0
    1.7951    2.2520    0.8920 C   0  0  0  0  0  0  0  0  0  0  0  0
    0.7414    1.3488    1.0317 C   0  0  0  0  0  0  0  0  0  0  0  0
    0.9633   -0.0281    0.8706 C   0  0  0  0  0  0  0  0  0  0  0  0
   -0.1854   -0.9621    1.0510 C   0  0  0  0  0  0  0  0  0  0  0  0
   -0.0266   -1.9613    1.7442 O   0  0  0  0  0  0  0  0  0  0  0  0
   -1.3320   -0.5828    0.3824 N   0  0  0  0  0  0  0  0  0  0  0  0
   -2.5703   -1.2628    0.3087 C   0  0  0  0  0  0  0  0  0  0  0  0
   -2.8112   -2.4842    0.9422 C   0  0  0  0  0  0  0  0  0  0  0  0
   -4.0266   -3.1414    0.7579 C   0  0  0  0  0  0  0  0  0  0  0  0
   -5.0002   -2.5843   -0.0637 C   0  0  0  0  0  0  0  0  0  0  0  0
   -4.7753   -1.3538   -0.6877 C   0  0  0  0  0  0  0  0  0  0  0  0
   -3.5784   -0.6549   -0.4900 C   0  0  0  0  0  0  0  0  0  0  0  0
   -3.3034    0.6121   -1.0518 N   0  0  0  0  0  0  0  0  0  0  0  0
   -4.2786    1.2775   -1.9485 C   0  0  0  0  0  0  0  0  0  0  0  0
   -5.3816    2.0822   -1.2460 C   0  0  0  0  0  0  0  0  0  0  0  0
   -6.2866    1.2943   -0.6299 F   0  0  0  0  0  0  0  0  0  0  0  0
   -4.8511    2.9130   -0.3171 F   0  0  0  0  0  0  0  0  0  0  0  0
   -6.0516    2.8483   -2.1381 F   0  0  0  0  0  0  0  0  0  0  0  0
    2.2549   -0.5312    0.5927 C   0  0  0  0  0  0  0  0  0  0  0  0
    2.4527   -1.9152    0.3915 N   0  0  0  0  0  0  0  0  0  0  0  0
    3.8188   -2.3839    0.5315 C   0  0  0  0  0  0  0  0  0  0  0  0
    4.7129   -1.5773   -0.3903 C   0  0  0  0  0  0  0  0  0  0  0  0
    4.7096   -0.1026    0.0365 C   0  0  0  0  0  0  0  0  0  0  0  0
    5.4132    0.7214   -1.0495 C   0  0  0  0  0  0  0  0  0  0  0  0
    3.3060    0.3884    0.3741 C   0  0  0  0  0  0  0  0  0  0  0  0
    3.0634    1.7654    0.5532 C   0  0  0  0  0  0  0  0  0  0  0  0
    0.6898    3.9256    1.6751 H   0  0  0  0  0  0  0  0  0  0  0  0
    2.4282    4.1994    1.5402 H   0  0  0  0  0  0  0  0  0  0  0  0
    1.4157    4.1895    0.0707 H   0  0  0  0  0  0  0  0  0  0  0  0
   -0.2476    1.7129    1.2988 H   0  0  0  0  0  0  0  0  0  0  0  0
   -1.2622    0.1915   -0.2687 H   0  0  0  0  0  0  0  0  0  0  0  0
   -2.0632   -2.9591    1.5680 H   0  0  0  0  0  0  0  0  0  0  0  0
   -4.2033   -4.0964    1.2461 H   0  0  0  0  0  0  0  0  0  0  0  0
   -5.9421   -3.1053   -0.2166 H   0  0  0  0  0  0  0  0  0  0  0  0
   -5.5744   -0.9623   -1.3073 H   0  0  0  0  0  0  0  0  0  0  0  0
   -3.0330    1.2396   -0.2891 H   0  0  0  0  0  0  0  0  0  0  0  0
   -3.6969    1.9884   -2.5474 H   0  0  0  0  0  0  0  0  0  0  0  0
   -4.7067    0.5719   -2.6687 H   0  0  0  0  0  0  0  0  0  0  0  0
    1.7795   -2.4533    0.9515 H   0  0  0  0  0  0  0  0  0  0  0  0
    4.1483   -2.3111    1.5751 H   0  0  0  0  0  0  0  0  0  0  0  0
    3.8582   -3.4415    0.2498 H   0  0  0  0  0  0  0  0  0  0  0  0
    5.7350   -1.9730   -0.3646 H   0  0  0  0  0  0  0  0  0  0  0  0
    4.3549   -1.6755   -1.4242 H   0  0  0  0  0  0  0  0  0  0  0  0
    5.2978   -0.0205    0.9611 H   0  0  0  0  0  0  0  0  0  0  0  0
    5.6084    1.7467   -0.7205 H   0  0  0  0  0  0  0  0  0  0  0  0
    6.3831    0.2796   -1.3043 H   0  0  0  0  0  0  0  0  0  0  0  0
    4.8116    0.7709   -1.9640 H   0  0  0  0  0  0  0  0  0  0  0  0
    3.8779    2.4781    0.4397 H   0  0  0  0  0  0  0  0  0  0  0  0
  1  2  1  0
  2  3  1  0
  3  4  2  0
  4  5  1  0
  5  6  2  0
  5  7  1  0
  7  8  1  0
  8  9  2  0
  9 10  1  0
 10 11  2  0
 11 12  1  0
 12 13  2  0
 13 14  1  0
 14 15  1  0
 15 16  1  0
 16 17  1  0
 16 18  1  0
 16 19  1  0
  4 20  1  0
 20 21  1  0
 21 22  1  0
 22 23  1  0
 23 24  1  0
 24 25  1  0
 24 26  1  0
 26 27  1  0
 27  2  2  0
 13  8  1  0
 26 20  2  0
  1 28  1  0
  1 29  1  0
  1 30  1  0
  3 31  1  0
  7 32  1  0
  9 33  1  0
 10 34  1  0
 11 35  1  0
 12 36  1  0
 14 37  1  0
 15 38  1  0
 15 39  1  0
 21 40  1  0
 22 41  1  0
 22 42  1  0
 23 43  1  0
 23 44  1  0
 24 45  1  0
 25 46  1  0
 25 47  1  0
 25 48  1  0
 27 49  1  0
M  END
$$$$
OCNT-2311800
     RDKit          3D

 46 49  0  0  0  0  0  0  0  0999 V2000
    6.1257    2.6441    0.9763 C   0  0  0  0  0  0  0  0  0  0  0  0
    4.8251    2.3627    1.4776 O   0  0  0  0  0  0  0  0  0  0  0  0
    4.1521    1.3235    0.8966 C   0  0  0  0  0  0  0  0  0  0  0  0
    2.8961    1.0599    1.4478 C   0  0  0  0  0  0  0  0  0  0  0  0
    2.0991    0.0247    0.9489 C   0  0  0  0  0  0  0  0  0  0  0  0
    2.5453   -0.7580   -0.1196 C   0  0  0  0  0  0  0  0  0  0  0  0
    1.7250   -1.8401   -0.6640 C   0  0  0  0  0  0  0  0  0  0  0  0
    2.2747   -3.0382   -0.9289 N   0  0  0  0  0  0  0  0  0  0  0  0
    1.2653   -3.7779   -1.3988 N   0  0  0  0  0  0  0  0  0  0  0  0
    0.0931   -3.0988   -1.5020 C   0  0  0  0  0  0  0  0  0  0  0  0
    0.3377   -1.8238   -1.0272 C   0  0  0  0  0  0  0  0  0  0  0  0
   -0.6270   -0.6812   -0.9856 C   0  0  0  0  0  0  0  0  0  0  0  0
   -1.2718   -0.5825    0.3292 N   0  0  0  0  0  0  0  0  0  0  0  0
   -2.1633   -1.7223    0.6213 C   0  0  0  0  0  0  0  0  0  0  0  0
   -3.1884   -1.3961    1.7131 C   0  0  0  0  0  0  0  0  0  0  0  0
   -4.0622   -0.3398    1.3017 O   0  0  0  0  0  0  0  0  0  0  0  0
   -3.4927    0.6552    0.4026 C   0  0  0  0  0  0  0  0  0  0  0  0
   -4.0730    0.6140   -1.0460 C   0  0  0  0  0  0  0  0  0  0  0  0
   -4.1802    2.1466   -1.0059 C   0  0  0  0  0  0  0  0  0  0  0  0
   -4.1707    2.0551    0.5283 C   0  0  0  0  0  0  0  0  0  0  0  0
   -1.9536    0.7158    0.5288 C   0  0  0  0  0  0  0  0  0  0  0  0
    3.8116   -0.4992   -0.6611 C   0  0  0  0  0  0  0  0  0  0  0  0
    4.6098    0.5369   -0.1599 C   0  0  0  0  0  0  0  0  0  0  0  0
    6.0861    2.9476   -0.0750 H   0  0  0  0  0  0  0  0  0  0  0  0
    6.5303    3.4837    1.5497 H   0  0  0  0  0  0  0  0  0  0  0  0
    6.7971    1.7906    1.1173 H   0  0  0  0  0  0  0  0  0  0  0  0
    2.5363    1.6596    2.2802 H   0  0  0  0  0  0  0  0  0  0  0  0
    1.1387   -0.1724    1.4174 H   0  0  0  0  0  0  0  0  0  0  0  0
    1.4559   -4.7427   -1.6476 H   0  0  0  0  0  0  0  0  0  0  0  0
   -0.7974   -3.5643   -1.8986 H   0  0  0  0  0  0  0  0  0  0  0  0
   -0.0658    0.2363   -1.2041 H   0  0  0  0  0  0  0  0  0  0  0  0
   -1.3674   -0.7864   -1.7875 H   0  0  0  0  0  0  0  0  0  0  0  0
   -1.5665   -2.5815    0.9457 H   0  0  0  0  0  0  0  0  0  0  0  0
   -2.7152   -2.0115   -0.2825 H   0  0  0  0  0  0  0  0  0  0  0  0
   -3.8068   -2.2746    1.9219 H   0  0  0  0  0  0  0  0  0  0  0  0
   -2.6975   -1.1004    2.6470 H   0  0  0  0  0  0  0  0  0  0  0  0
   -3.4242    0.2209   -1.8314 H   0  0  0  0  0  0  0  0  0  0  0  0
   -5.0434    0.1078   -1.1159 H   0  0  0  0  0  0  0  0  0  0  0  0
   -3.3073    2.6610   -1.4232 H   0  0  0  0  0  0  0  0  0  0  0  0
   -5.0848    2.5699   -1.4497 H   0  0  0  0  0  0  0  0  0  0  0  0
   -5.1729    2.0225    0.9723 H   0  0  0  0  0  0  0  0  0  0  0  0
   -3.5928    2.8327    1.0361 H   0  0  0  0  0  0  0  0  0  0  0  0
   -1.5351    1.4900   -0.1263 H   0  0  0  0  0  0  0  0  0  0  0  0
   -1.7089    1.0456    1.5475 H   0  0  0  0  0  0  0  0  0  0  0  0
    4.1837   -1.1109   -1.4808 H   0  0  0  0  0  0  0  0  0  0  0  0
    5.5804    0.6958   -0.6166 H   0  0  0  0  0  0  0  0  0  0  0  0
  1  2  1  0
  2  3  1  0
  3  4  1  0
  4  5  2  0
  5  6  1  0
  6  7  1  0
  7  8  2  0
  8  9  1  0
  9 10  1  0
 10 11  2  0
 11 12  1  0
 12 13  1  0
 13 14  1  0
 14 15  1  0
 15 16  1  0
 16 17  1  0
 17 18  1  0
 18 19  1  0
 19 20  1  0
 17 21  1  0
  6 22  2  0
 22 23  1  0
 23  3  2  0
 11  7  1  0
 21 13  1  0
 20 17  1  0
  1 24  1  0
  1 25  1  0
  1 26  1  0
  4 27  1  0
  5 28  1  0
  9 29  1  0
 10 30  1  0
 12 31  1  0
 12 32  1  0
 14 33  1  0
 14 34  1  0
 15 35  1  0
 15 36  1  0
 18 37  1  0
 18 38  1  0
 19 39  1  0
 19 40  1  0
 20 41  1  0
 20 42  1  0
 21 43  1  0
 21 44  1  0
 22 45  1  0
 23 46  1  0
M  END
$$$$
OCNT-2311801
     RDKit          3D

 50 53  0  0  0  0  0  0  0  0999 V2000
   -4.1700   -2.7391    0.7736 C   0  0  0  0  0  0  0  0  0  0  0  0
   -3.3400   -1.6195    0.4782 O   0  0  0  0  0  0  0  0  0  0  0  0
   -3.9439   -0.4019    0.2764 C   0  0  0  0  0  0  0  0  0  0  0  0
   -5.3207   -0.1917    0.4602 C   0  0  0  0  0  0  0  0  0  0  0  0
   -5.9096    1.0673    0.2460 C   0  0  0  0  0  0  0  0  0  0  0  0
   -7.2874    1.2756    0.4287 C   0  0  0  0  0  0  0  0  0  0  0  0
   -7.8558    2.5318    0.2112 C   0  0  0  0  0  0  0  0  0  0  0  0
   -7.0553    3.5958   -0.1915 C   0  0  0  0  0  0  0  0  0  0  0  0
   -5.6857    3.4047   -0.3766 C   0  0  0  0  0  0  0  0  0  0  0  0
   -5.1009    2.1460   -0.1609 C   0  0  0  0  0  0  0  0  0  0  0  0
   -3.7260    1.9376   -0.3407 C   0  0  0  0  0  0  0  0  0  0  0  0
   -3.1309    0.6782   -0.1258 C   0  0  0  0  0  0  0  0  0  0  0  0
   -1.6407    0.6053   -0.3575 C   0  0  0  0  0  0  0  0  0  0  0  0
   -1.0643    1.6097   -0.7667 O   0  0  0  0  0  0  0  0  0  0  0  0
   -1.0280   -0.6005   -0.0811 N   0  0  0  0  0  0  0  0  0  0  0  0
    0.3331   -0.9388   -0.2069 C   0  0  0  0  0  0  0  0  0  0  0  0
    1.3207   -0.0649   -0.6603 C   0  0  0  0  0  0  0  0  0  0  0  0
    2.6578   -0.4787   -0.7570 C   0  0  0  0  0  0  0  0  0  0  0  0
    3.0226   -1.7738   -0.3979 C   0  0  0  0  0  0  0  0  0  0  0  0
    4.2796   -2.3067   -0.4333 O   0  0  0  0  0  0  0  0  0  0  0  0
    5.3676   -1.4768   -0.8433 C   0  0  0  0  0  0  0  0  0  0  0  0
    5.9040   -0.6658    0.3317 C   0  0  0  0  0  0  0  0  0  0  0  0
    7.0428    0.1428   -0.0404 N   0  0  0  0  0  0  0  0  0  0  0  0
    8.3542   -0.2374    0.0011 C   0  0  0  0  0  0  0  0  0  0  0  0
    9.0528    0.8589   -0.4486 C   0  0  0  0  0  0  0  0  0  0  0  0
    8.1990    1.8875   -0.7537 N   0  0  0  0  0  0  0  0  0  0  0  0
    6.9958    1.4309   -0.4891 C   0  0  0  0  0  0  0  0  0  0  0  0
    2.0357   -2.6511    0.0531 C   0  0  0  0  0  0  0  0  0  0  0  0
    0.7027   -2.2395    0.1484 C   0  0  0  0  0  0  0  0  0  0  0  0
   -3.5254   -3.6208    0.8400 H   0  0  0  0  0  0  0  0  0  0  0  0
   -4.6643   -2.6159    1.7426 H   0  0  0  0  0  0  0  0  0  0  0  0
   -4.8952   -2.9173   -0.0270 H   0  0  0  0  0  0  0  0  0  0  0  0
   -5.9710   -1.0013    0.7779 H   0  0  0  0  0  0  0  0  0  0  0  0
   -7.9326    0.4581    0.7430 H   0  0  0  0  0  0  0  0  0  0  0  0
   -8.9231    2.6786    0.3560 H   0  0  0  0  0  0  0  0  0  0  0  0
   -7.4947    4.5753   -0.3620 H   0  0  0  0  0  0  0  0  0  0  0  0
   -5.0748    4.2486   -0.6915 H   0  0  0  0  0  0  0  0  0  0  0  0
   -3.1025    2.7750   -0.6542 H   0  0  0  0  0  0  0  0  0  0  0  0
   -1.6420   -1.3368    0.2519 H   0  0  0  0  0  0  0  0  0  0  0  0
    1.0848    0.9537   -0.9528 H   0  0  0  0  0  0  0  0  0  0  0  0
    3.3748    0.2487   -1.1207 H   0  0  0  0  0  0  0  0  0  0  0  0
    6.1542   -2.1571   -1.1929 H   0  0  0  0  0  0  0  0  0  0  0  0
    5.1154   -0.8604   -1.7141 H   0  0  0  0  0  0  0  0  0  0  0  0
    5.1388   -0.0003    0.7461 H   0  0  0  0  0  0  0  0  0  0  0  0
    6.2097   -1.3295    1.1493 H   0  0  0  0  0  0  0  0  0  0  0  0
    8.6750   -1.2155    0.3312 H   0  0  0  0  0  0  0  0  0  0  0  0
   10.1235    0.9632   -0.5678 H   0  0  0  0  0  0  0  0  0  0  0  0
    6.0734    1.9852   -0.6068 H   0  0  0  0  0  0  0  0  0  0  0  0
    2.3044   -3.6666    0.3339 H   0  0  0  0  0  0  0  0  0  0  0  0
   -0.0376   -2.9509    0.5041 H   0  0  0  0  0  0  0  0  0  0  0  0
  1  2  1  0
  2  3  1  0
  3  4  2  0
  4  5  1  0
  5  6  2  0
  6  7  1  0
  7  8  2  0
  8  9  1  0
  9 10  2  0
 10 11  1  0
 11 12  2  0
 12 13  1  0
 13 14  2  0
 13 15  1  0
 15 16  1  0
 16 17  1  0
 17 18  2  0
 18 19  1  0
 19 20  1  0
 20 21  1  0
 21 22  1  0
 22 23  1  0
 23 24  1  0
 24 25  2  0
 25 26  1  0
 26 27  2  0
 19 28  2  0
 28 29  1  0
 12  3  1  0
 29 16  2  0
 10  5  1  0
 27 23  1  0
  1 30  1  0
  1 31  1  0
  1 32  1  0
  4 33  1  0
  6 34  1  0
  7 35  1  0
  8 36  1  0
  9 37  1  0
 11 38  1  0
 15 39  1  0
 17 40  1  0
 18 41  1  0
 21 42  1  0
 21 43  1  0
 22 44  1  0
 22 45  1  0
 24 46  1  0
 25 47  1  0
 27 48  1  0
 28 49  1  0
 29 50  1  0
M  END
$$$$
OCNT-2311802
     RDKit          3D

 38 41  0  0  0  0  0  0  0  0999 V2000
    3.3266    2.8414   -0.0351 C   0  0  0  0  0  0  0  0  0  0  0  0
    3.9477    1.4973   -0.0423 C   0  0  0  0  0  0  0  0  0  0  0  0
    5.2548    1.3677   -0.3068 N   0  0  0  0  0  0  0  0  0  0  0  0
    5.5102    0.0050   -0.2611 O   0  0  0  0  0  0  0  0  0  0  0  0
    4.3638   -0.6694    0.0339 C   0  0  0  0  0  0  0  0  0  0  0  0
    4.2921   -2.0038    0.1378 N   0  0  0  0  0  0  0  0  0  0  0  0
    3.0474   -2.3956    0.4252 C   0  0  0  0  0  0  0  0  0  0  0  0
    1.9608   -1.6217    0.6170 N   0  0  0  0  0  0  0  0  0  0  0  0
    2.0751   -0.2737    0.5165 C   0  0  0  0  0  0  0  0  0  0  0  0
    0.9616    0.5440    0.7146 N   0  0  0  0  0  0  0  0  0  0  0  0
   -0.2102   -0.0658    1.3497 C   0  0  0  0  0  0  0  0  0  0  0  0
   -1.0980   -0.8473    0.3488 C   0  0  0  0  0  0  0  0  0  0  0  0
   -1.8474   -1.9400    1.1254 C   0  0  0  0  0  0  0  0  0  0  0  0
   -2.9400   -2.5229    0.2529 C   0  0  0  0  0  0  0  0  0  0  0  0
   -3.9360   -1.5404   -0.0307 O   0  0  0  0  0  0  0  0  0  0  0  0
   -3.4287   -0.3784   -0.5509 C   0  0  0  0  0  0  0  0  0  0  0  0
   -4.3490    0.4264   -1.2259 C   0  0  0  0  0  0  0  0  0  0  0  0
   -3.9360    1.6152   -1.8221 C   0  0  0  0  0  0  0  0  0  0  0  0
   -2.5999    1.9963   -1.7453 C   0  0  0  0  0  0  0  0  0  0  0  0
   -1.6831    1.2002   -1.0541 C   0  0  0  0  0  0  0  0  0  0  0  0
   -2.0889    0.0157   -0.4181 C   0  0  0  0  0  0  0  0  0  0  0  0
    3.3376    0.2408    0.1984 C   0  0  0  0  0  0  0  0  0  0  0  0
    4.0227    3.6098   -0.3875 H   0  0  0  0  0  0  0  0  0  0  0  0
    3.0126    3.1104    0.9784 H   0  0  0  0  0  0  0  0  0  0  0  0
    2.4481    2.8629   -0.6878 H   0  0  0  0  0  0  0  0  0  0  0  0
    2.8908   -3.4664    0.5183 H   0  0  0  0  0  0  0  0  0  0  0  0
    1.2112    1.4442    1.1080 H   0  0  0  0  0  0  0  0  0  0  0  0
    0.1162   -0.7065    2.1798 H   0  0  0  0  0  0  0  0  0  0  0  0
   -0.8007    0.7360    1.8116 H   0  0  0  0  0  0  0  0  0  0  0  0
   -0.4769   -1.3447   -0.4079 H   0  0  0  0  0  0  0  0  0  0  0  0
   -2.3019   -1.5117    2.0289 H   0  0  0  0  0  0  0  0  0  0  0  0
   -1.1501   -2.7240    1.4418 H   0  0  0  0  0  0  0  0  0  0  0  0
   -3.4363   -3.3427    0.7829 H   0  0  0  0  0  0  0  0  0  0  0  0
   -2.5461   -2.9329   -0.6856 H   0  0  0  0  0  0  0  0  0  0  0  0
   -5.3873    0.1143   -1.2991 H   0  0  0  0  0  0  0  0  0  0  0  0
   -4.6519    2.2334   -2.3564 H   0  0  0  0  0  0  0  0  0  0  0  0
   -2.2679    2.9125   -2.2266 H   0  0  0  0  0  0  0  0  0  0  0  0
   -0.6432    1.5145   -1.0265 H   0  0  0  0  0  0  0  0  0  0  0  0
  1  2  1  0
  2  3  2  0
  3  4  1  0
  4  5  1  0
  5  6  2  0
  6  7  1  0
  7  8  2  0
  8  9  1  0
  9 10  1  0
 10 11  1  0
 11 12  1  0
 12 13  1  0
 13 14  1  0
 14 15  1  0
 15 16  1  0
 16 17  2  0
 17 18  1  0
 18 19  2  0
 19 20  1  0
 20 21  2  0
  9 22  2  0
 22  2  1  0
 22  5  1  0
 21 12  1  0
 21 16  1  0
  1 23  1  0
  1 24  1  0
  1 25  1  0
  7 26  1  0
 10 27  1  0
 11 28  1  0
 11 29  1  0
 12 30  1  0
 13 31  1  0
 13 32  1  0
 14 33  1  0
 14 34  1  0
 17 35  1  0
 18 36  1  0
 19 37  1  0
 20 38  1  0
M  END
$$$$
OCNT-2311804
     RDKit          3D

 43 45  0  0  0  0  0  0  0  0999 V2000
   -5.9690    1.8752    0.7344 C   0  0  0  0  0  0  0  0  0  0  0  0
   -5.4123    1.0191   -0.3454 C   0  0  0  0  0  0  0  0  0  0  0  0
   -6.0590    0.7179   -1.4594 N   0  0  0  0  0  0  0  0  0  0  0  0
   -5.2180   -0.0798   -2.1799 C   0  0  0  0  0  0  0  0  0  0  0  0
   -4.0397   -0.2712   -1.5070 C   0  0  0  0  0  0  0  0  0  0  0  0
   -4.1526    0.4330   -0.3226 N   0  0  0  0  0  0  0  0  0  0  0  0
   -3.1449    0.5101    0.6848 C   0  0  0  0  0  0  0  0  0  0  0  0
   -3.3905    1.2317    1.7939 N   0  0  0  0  0  0  0  0  0  0  0  0
   -2.4117    1.2592    2.7126 C   0  0  0  0  0  0  0  0  0  0  0  0
   -1.2100    0.6125    2.5576 C   0  0  0  0  0  0  0  0  0  0  0  0
   -1.0266   -0.0864    1.3826 C   0  0  0  0  0  0  0  0  0  0  0  0
    0.1711   -0.7905    1.2135 N   0  0  0  0  0  0  0  0  0  0  0  0
    0.3617   -1.4102   -0.1003 C   0  0  0  0  0  0  0  0  0  0  0  0
    1.8339   -1.8655   -0.2351 C   0  0  0  0  0  0  0  0  0  0  0  0
    2.8172   -0.7853    0.0279 N   0  0  0  0  0  0  0  0  0  0  0  0
    4.1846   -1.3216    0.1426 C   0  0  0  0  0  0  0  0  0  0  0  0
    5.0227   -1.1473   -1.1216 C   0  0  0  0  0  0  0  0  0  0  0  0
    5.1626    0.3268   -1.4975 C   0  0  0  0  0  0  0  0  0  0  0  0
    3.9660    1.1572   -1.0368 C   0  0  0  0  0  0  0  0  0  0  0  0
    2.6997    0.3072   -0.9556 C   0  0  0  0  0  0  0  0  0  0  0  0
   -1.9920   -0.1551    0.4522 N   0  0  0  0  0  0  0  0  0  0  0  0
   -5.3582    2.7708    0.8818 H   0  0  0  0  0  0  0  0  0  0  0  0
   -6.0460    1.3227    1.6755 H   0  0  0  0  0  0  0  0  0  0  0  0
   -6.9777    2.2081    0.4675 H   0  0  0  0  0  0  0  0  0  0  0  0
   -5.5050   -0.4751   -3.1457 H   0  0  0  0  0  0  0  0  0  0  0  0
   -3.1487   -0.8319   -1.7506 H   0  0  0  0  0  0  0  0  0  0  0  0
   -2.6282    1.8308    3.6103 H   0  0  0  0  0  0  0  0  0  0  0  0
   -0.4505    0.6437    3.3271 H   0  0  0  0  0  0  0  0  0  0  0  0
    0.9790   -0.2047    1.4299 H   0  0  0  0  0  0  0  0  0  0  0  0
   -0.2955   -2.2819   -0.2019 H   0  0  0  0  0  0  0  0  0  0  0  0
    0.1268   -0.7090   -0.9106 H   0  0  0  0  0  0  0  0  0  0  0  0
    1.9939   -2.3060   -1.2271 H   0  0  0  0  0  0  0  0  0  0  0  0
    1.9865   -2.6653    0.5017 H   0  0  0  0  0  0  0  0  0  0  0  0
    4.1826   -2.3770    0.4413 H   0  0  0  0  0  0  0  0  0  0  0  0
    4.6799   -0.7902    0.9657 H   0  0  0  0  0  0  0  0  0  0  0  0
    4.5542   -1.6953   -1.9491 H   0  0  0  0  0  0  0  0  0  0  0  0
    6.0170   -1.5867   -0.9818 H   0  0  0  0  0  0  0  0  0  0  0  0
    6.0759    0.7436   -1.0565 H   0  0  0  0  0  0  0  0  0  0  0  0
    5.2811    0.4066   -2.5847 H   0  0  0  0  0  0  0  0  0  0  0  0
    3.8156    1.9993   -1.7220 H   0  0  0  0  0  0  0  0  0  0  0  0
    4.1778    1.5928   -0.0517 H   0  0  0  0  0  0  0  0  0  0  0  0
    2.4843   -0.0874   -1.9576 H   0  0  0  0  0  0  0  0  0  0  0  0
    1.8619    0.9552   -0.6745 H   0  0  0  0  0  0  0  0  0  0  0  0
  1  2  1  0
  2  3  2  0
  3  4  1  0
  4  5  2  0
  5  6  1  0
  6  7  1  0
  7  8  2  0
  8  9  1  0
  9 10  2  0
 10 11  1  0
 11 12  1  0
 12 13  1  0
 13 14  1  0
 14 15  1  0
 15 16  1  0
 16 17  1  0
 17 18  1  0
 18 19  1  0
 19 20  1  0
 11 21  2  0
  6  2  1  0
 21  7  1  0
 20 15  1  0
  1 22  1  0
  1 23  1  0
  1 24  1  0
  4 25  1  0
  5 26  1  0
  9 27  1  0
 10 28  1  0
 12 29  1  0
 13 30  1  0
 13 31  1  0
 14 32  1  0
 14 33  1  0
 16 34  1  0
 16 35  1  0
 17 36  1  0
 17 37  1  0
 18 38  1  0
 18 39  1  0
 19 40  1  0
 19 41  1  0
 20 42  1  0
 20 43  1  0
M  END
$$$$
OCNT-2311805
     RDKit          3D

 56 58  0  0  0  0  0  0  0  0999 V2000
   -7.2401   -0.6394    1.0883 C   0  0  0  0  0  0  0  0  0  0  0  0
   -6.3379   -0.6866   -0.1654 C   0  0  0  0  0  0  0  0  0  0  0  0
   -6.5818   -2.0474   -0.8528 C   0  0  0  0  0  0  0  0  0  0  0  0
   -6.8031    0.4470   -1.1048 C   0  0  0  0  0  0  0  0  0  0  0  0
   -4.8392   -0.5215    0.1399 C   0  0  0  0  0  0  0  0  0  0  0  0
   -4.3453   -0.3465    1.4420 C   0  0  0  0  0  0  0  0  0  0  0  0
   -2.9745   -0.2008    1.6880 C   0  0  0  0  0  0  0  0  0  0  0  0
   -2.0469   -0.2299    0.6407 C   0  0  0  0  0  0  0  0  0  0  0  0
   -0.5657   -0.0311    0.8891 C   0  0  0  0  0  0  0  0  0  0  0  0
   -0.2066   -0.7205    2.0884 O   0  0  0  0  0  0  0  0  0  0  0  0
   -0.2329    1.4763    1.0006 C   0  0  0  0  0  0  0  0  0  0  0  0
    1.1443    1.8207    0.6499 N   0  0  0  0  0  0  0  0  0  0  0  0
    2.2342    1.3328    1.3322 C   0  0  0  0  0  0  0  0  0  0  0  0
    2.1395    0.4946    2.2227 O   0  0  0  0  0  0  0  0  0  0  0  0
    3.5473    1.9615    0.9070 C   0  0  0  0  0  0  0  0  0  0  0  0
    4.7600    1.1120    1.2888 C   0  0  0  0  0  0  0  0  0  0  0  0
    4.9752   -0.0475    0.3417 C   0  0  0  0  0  0  0  0  0  0  0  0
    4.4857   -1.3051    0.7009 C   0  0  0  0  0  0  0  0  0  0  0  0
    4.5954   -2.4137   -0.0583 N   0  0  0  0  0  0  0  0  0  0  0  0
    5.2236   -2.2703   -1.2436 C   0  0  0  0  0  0  0  0  0  0  0  0
    5.7526   -1.0720   -1.7230 C   0  0  0  0  0  0  0  0  0  0  0  0
    6.3915   -1.0011   -2.9743 C   0  0  0  0  0  0  0  0  0  0  0  0
    6.9139    0.2037   -3.4383 C   0  0  0  0  0  0  0  0  0  0  0  0
    6.8035    1.3470   -2.6574 C   0  0  0  0  0  0  0  0  0  0  0  0
    6.1703    1.2863   -1.4123 C   0  0  0  0  0  0  0  0  0  0  0  0
    5.6286    0.0786   -0.9123 C   0  0  0  0  0  0  0  0  0  0  0  0
   -2.5259   -0.4037   -0.6619 C   0  0  0  0  0  0  0  0  0  0  0  0
   -3.8965   -0.5476   -0.9054 C   0  0  0  0  0  0  0  0  0  0  0  0
   -6.9958   -1.4438    1.7919 H   0  0  0  0  0  0  0  0  0  0  0  0
   -7.1474    0.3167    1.6168 H   0  0  0  0  0  0  0  0  0  0  0  0
   -8.2967   -0.7572    0.8191 H   0  0  0  0  0  0  0  0  0  0  0  0
   -7.6500   -2.2107   -1.0387 H   0  0  0  0  0  0  0  0  0  0  0  0
   -6.2208   -2.8752   -0.2303 H   0  0  0  0  0  0  0  0  0  0  0  0
   -6.0740   -2.1188   -1.8213 H   0  0  0  0  0  0  0  0  0  0  0  0
   -7.8773    0.3738   -1.3110 H   0  0  0  0  0  0  0  0  0  0  0  0
   -6.2893    0.4206   -2.0720 H   0  0  0  0  0  0  0  0  0  0  0  0
   -6.6149    1.4310   -0.6593 H   0  0  0  0  0  0  0  0  0  0  0  0
   -5.0075   -0.3243    2.3030 H   0  0  0  0  0  0  0  0  0  0  0  0
   -2.6303   -0.0766    2.7138 H   0  0  0  0  0  0  0  0  0  0  0  0
    0.0046   -0.4921    0.0740 H   0  0  0  0  0  0  0  0  0  0  0  0
    0.7239   -0.4706    2.2787 H   0  0  0  0  0  0  0  0  0  0  0  0
   -0.8586    2.0646    0.3194 H   0  0  0  0  0  0  0  0  0  0  0  0
   -0.4034    1.8336    2.0230 H   0  0  0  0  0  0  0  0  0  0  0  0
    1.2798    2.6003    0.0182 H   0  0  0  0  0  0  0  0  0  0  0  0
    3.6110    2.9249    1.4273 H   0  0  0  0  0  0  0  0  0  0  0  0
    3.5275    2.1647   -0.1696 H   0  0  0  0  0  0  0  0  0  0  0  0
    5.6600    1.7381    1.3001 H   0  0  0  0  0  0  0  0  0  0  0  0
    4.6692    0.7395    2.3174 H   0  0  0  0  0  0  0  0  0  0  0  0
    3.9673   -1.4593    1.6458 H   0  0  0  0  0  0  0  0  0  0  0  0
    5.2916   -3.1871   -1.8238 H   0  0  0  0  0  0  0  0  0  0  0  0
    6.4861   -1.8897   -3.5951 H   0  0  0  0  0  0  0  0  0  0  0  0
    7.4077    0.2476   -4.4055 H   0  0  0  0  0  0  0  0  0  0  0  0
    7.2127    2.2893   -3.0128 H   0  0  0  0  0  0  0  0  0  0  0  0
    6.1107    2.2049   -0.8349 H   0  0  0  0  0  0  0  0  0  0  0  0
   -1.8363   -0.4336   -1.5025 H   0  0  0  0  0  0  0  0  0  0  0  0
   -4.2190   -0.6857   -1.9352 H   0  0  0  0  0  0  0  0  0  0  0  0
  1  2  1  0
  2  3  1  0
  2  4  1  0
  2  5  1  0
  5  6  1  0
  6  7  2  0
  7  8  1  0
  8  9  1  0
  9 10  1  0
  9 11  1  0
 11 12  1  0
 12 13  1  0
 13 14  2  0
 13 15  1  0
 15 16  1  0
 16 17  1  0
 17 18  1  0
 18 19  2  0
 19 20  1  0
 20 21  2  0
 21 22  1  0
 22 23  2  0
 23 24  1  0
 24 25  2  0
 25 26  1  0
  8 27  2  0
 27 28  1  0
 28  5  2  0
 26 17  2  0
 26 21  1  0
  1 29  1  0
  1 30  1  0
  1 31  1  0
  3 32  1  0
  3 33  1  0
  3 34  1  0
  4 35  1  0
  4 36  1  0
  4 37  1  0
  6 38  1  0
  7 39  1  0
  9 40  1  0
 10 41  1  0
 11 42  1  0
 11 43  1  0
 12 44  1  0
 15 45  1  0
 15 46  1  0
 16 47  1  0
 16 48  1  0
 18 49  1  0
 20 50  1  0
 22 51  1  0
 23 52  1  0
 24 53  1  0
 25 54  1  0
 27 55  1  0
 28 56  1  0
M  END
$$$$
OCNT-2311808
     RDKit          3D

 54 58  0  0  0  0  0  0  0  0999 V2000
    3.0407   -1.4661    1.0311 O   0  0  0  0  0  0  0  0  0  0  0  0
    2.9480   -0.2462    0.9515 C   0  0  0  0  0  0  0  0  0  0  0  0
    2.3852    0.4742   -0.0875 N   0  0  0  0  0  0  0  0  0  0  0  0
    1.8872   -0.0346   -1.3020 C   0  0  0  0  0  0  0  0  0  0  0  0
    1.9869   -1.3768   -1.6822 C   0  0  0  0  0  0  0  0  0  0  0  0
    1.4426   -1.8163   -2.8919 C   0  0  0  0  0  0  0  0  0  0  0  0
    0.7739   -0.9077   -3.7123 C   0  0  0  0  0  0  0  0  0  0  0  0
   -0.0713   -1.4951   -5.1683 S   0  0  0  0  0  0  0  0  0  0  0  0
   -0.3461   -0.3563   -6.0170 O   0  0  0  0  0  0  0  0  0  0  0  0
    0.6523   -2.6490   -5.6571 O   0  0  0  0  0  0  0  0  0  0  0  0
   -1.5328   -2.0802   -4.5246 N   0  0  0  0  0  0  0  0  0  0  0  0
   -2.2726   -1.2008   -3.6805 C   0  0  0  0  0  0  0  0  0  0  0  0
   -3.0387   -0.1853   -4.2449 C   0  0  0  0  0  0  0  0  0  0  0  0
   -3.6627    0.7490   -3.4229 C   0  0  0  0  0  0  0  0  0  0  0  0
   -3.4791    0.6924   -2.0423 C   0  0  0  0  0  0  0  0  0  0  0  0
   -2.6643   -0.2936   -1.4589 C   0  0  0  0  0  0  0  0  0  0  0  0
   -2.4104   -0.2500   -0.0188 C   0  0  0  0  0  0  0  0  0  0  0  0
   -3.1392    0.3694    0.8889 N   0  0  0  0  0  0  0  0  0  0  0  0
   -2.4653    0.1415    2.0665 C   0  0  0  0  0  0  0  0  0  0  0  0
   -2.9972    0.6754    3.4266 C   0  0  0  0  0  0  0  0  0  0  0  0
   -3.8726   -0.2306    4.2551 C   0  0  0  0  0  0  0  0  0  0  0  0
   -2.4954    0.1165    4.7326 C   0  0  0  0  0  0  0  0  0  0  0  0
   -1.3315   -0.5576    1.9418 N   0  0  0  0  0  0  0  0  0  0  0  0
   -1.3276   -0.8106    0.6188 N   0  0  0  0  0  0  0  0  0  0  0  0
   -2.0945   -1.2662   -2.2910 C   0  0  0  0  0  0  0  0  0  0  0  0
    0.7119    0.4464   -3.3734 C   0  0  0  0  0  0  0  0  0  0  0  0
    1.2662    0.8767   -2.1671 C   0  0  0  0  0  0  0  0  0  0  0  0
    3.4880    0.5698    2.0772 C   0  0  0  0  0  0  0  0  0  0  0  0
    2.8453    1.7362    2.5194 C   0  0  0  0  0  0  0  0  0  0  0  0
    3.3953    2.4786    3.5687 C   0  0  0  0  0  0  0  0  0  0  0  0
    4.5717    2.0458    4.1764 C   0  0  0  0  0  0  0  0  0  0  0  0
    5.0992    2.7634    5.1772 F   0  0  0  0  0  0  0  0  0  0  0  0
    5.2069    0.8792    3.7623 C   0  0  0  0  0  0  0  0  0  0  0  0
    4.6604    0.1354    2.7144 C   0  0  0  0  0  0  0  0  0  0  0  0
    2.3653    1.4807    0.0089 H   0  0  0  0  0  0  0  0  0  0  0  0
    2.4961   -2.1094   -1.0604 H   0  0  0  0  0  0  0  0  0  0  0  0
    1.5279   -2.8637   -3.1723 H   0  0  0  0  0  0  0  0  0  0  0  0
   -1.4429   -3.0505   -4.2244 H   0  0  0  0  0  0  0  0  0  0  0  0
   -3.1556   -0.1169   -5.3245 H   0  0  0  0  0  0  0  0  0  0  0  0
   -4.2830    1.5327   -3.8586 H   0  0  0  0  0  0  0  0  0  0  0  0
   -3.9603    1.4399   -1.4150 H   0  0  0  0  0  0  0  0  0  0  0  0
   -3.2605    1.7192    3.4036 H   0  0  0  0  0  0  0  0  0  0  0  0
   -4.0425   -1.2464    3.9051 H   0  0  0  0  0  0  0  0  0  0  0  0
   -4.7211    0.2193    4.7609 H   0  0  0  0  0  0  0  0  0  0  0  0
   -2.4024    0.7957    5.5695 H   0  0  0  0  0  0  0  0  0  0  0  0
   -1.7329   -0.6583    4.7017 H   0  0  0  0  0  0  0  0  0  0  0  0
   -0.5446   -1.3260    0.2223 H   0  0  0  0  0  0  0  0  0  0  0  0
   -1.4853   -2.0625   -1.8753 H   0  0  0  0  0  0  0  0  0  0  0  0
    0.2053    1.1613   -4.0211 H   0  0  0  0  0  0  0  0  0  0  0  0
    1.1820    1.9293   -1.9062 H   0  0  0  0  0  0  0  0  0  0  0  0
    1.9098    2.0680    2.0798 H   0  0  0  0  0  0  0  0  0  0  0  0
    2.9129    3.3860    3.9226 H   0  0  0  0  0  0  0  0  0  0  0  0
    6.1209    0.5578    4.2562 H   0  0  0  0  0  0  0  0  0  0  0  0
    5.1502   -0.7831    2.3922 H   0  0  0  0  0  0  0  0  0  0  0  0
  1  2  2  0
  2  3  1  0
  3  4  1  0
  4  5  1  0
  5  6  2  0
  6  7  1  0
  7  8  1  0
  8  9  2  0
  8 10  2  0
  8 11  1  0
 11 12  1  0
 12 13  2  0
 13 14  1  0
 14 15  2  0
 15 16  1  0
 16 17  1  0
 17 18  2  0
 18 19  1  0
 19 20  1  0
 20 21  1  0
 21 22  1  0
 19 23  2  0
 23 24  1  0
 16 25  2  0
  7 26  2  0
 26 27  1  0
  2 28  1  0
 28 29  1  0
 29 30  2  0
 30 31  1  0
 31 32  1  0
 31 33  2  0
 33 34  1  0
 27  4  2  0
 34 28  2  0
 25 12  1  0
 24 17  1  0
 22 20  1  0
  3 35  1  0
  5 36  1  0
  6 37  1  0
 11 38  1  0
 13 39  1  0
 14 40  1  0
 15 41  1  0
 20 42  1  0
 21 43  1  0
 21 44  1  0
 22 45  1  0
 22 46  1  0
 24 47  1  0
 25 48  1  0
 26 49  1  0
 27 50  1  0
 29 51  1  0
 30 52  1  0
 33 53  1  0
 34 54  1  0
M  END
$$$$
OCNT-2311816
     RDKit          3D

 47 50  0  0  0  0  0  0  0  0999 V2000
    5.6988   -3.0128    1.0662 C   0  0  0  0  0  0  0  0  0  0  0  0
    4.5509   -2.4361    0.4556 O   0  0  0  0  0  0  0  0  0  0  0  0
    4.3084   -1.1146    0.7059 C   0  0  0  0  0  0  0  0  0  0  0  0
    5.1110   -0.2640    1.4738 C   0  0  0  0  0  0  0  0  0  0  0  0
    4.7515    1.0768    1.6507 C   0  0  0  0  0  0  0  0  0  0  0  0
    3.5844    1.5544    1.0559 C   0  0  0  0  0  0  0  0  0  0  0  0
    3.1749    2.9443    1.2095 C   0  0  0  0  0  0  0  0  0  0  0  0
    2.0983    3.4450    0.6929 N   0  0  0  0  0  0  0  0  0  0  0  0
    1.2776    2.6136   -0.0383 N   0  0  0  0  0  0  0  0  0  0  0  0
    0.0825    3.2197   -0.6147 C   0  0  0  0  0  0  0  0  0  0  0  0
   -1.1549    2.7409    0.1426 C   0  0  0  0  0  0  0  0  0  0  0  0
   -1.5478    3.2550    1.1873 O   0  0  0  0  0  0  0  0  0  0  0  0
   -1.7562    1.6306   -0.4195 N   0  0  0  0  0  0  0  0  0  0  0  0
   -2.7806    0.9059    0.3021 C   0  0  0  0  0  0  0  0  0  0  0  0
   -3.2739   -0.2133   -0.6028 C   0  0  0  0  0  0  0  0  0  0  0  0
   -4.2361    0.1583   -1.7555 C   0  0  0  0  0  0  0  0  0  0  0  0
   -5.2740   -0.8353   -1.2080 C   0  0  0  0  0  0  0  0  0  0  0  0
   -4.3372   -1.1683   -0.0235 C   0  0  0  0  0  0  0  0  0  0  0  0
   -3.6625   -2.5232    0.0082 C   0  0  0  0  0  0  0  0  0  0  0  0
   -2.6824   -2.4606   -1.1428 C   0  0  0  0  0  0  0  0  0  0  0  0
   -2.1904   -1.0816   -1.1473 N   0  0  0  0  0  0  0  0  0  0  0  0
    1.5522    1.2720   -0.3036 C   0  0  0  0  0  0  0  0  0  0  0  0
    0.8256    0.5443   -0.9796 O   0  0  0  0  0  0  0  0  0  0  0  0
    2.7807    0.7222    0.2953 C   0  0  0  0  0  0  0  0  0  0  0  0
    3.1423   -0.6162    0.1159 C   0  0  0  0  0  0  0  0  0  0  0  0
    6.6171   -2.5300    0.7162 H   0  0  0  0  0  0  0  0  0  0  0  0
    5.7420   -4.0647    0.7682 H   0  0  0  0  0  0  0  0  0  0  0  0
    5.6238   -2.9765    2.1579 H   0  0  0  0  0  0  0  0  0  0  0  0
    6.0237   -0.6145    1.9463 H   0  0  0  0  0  0  0  0  0  0  0  0
    5.3834    1.7298    2.2479 H   0  0  0  0  0  0  0  0  0  0  0  0
    3.8247    3.6105    1.8012 H   0  0  0  0  0  0  0  0  0  0  0  0
    0.0093    2.9444   -1.6728 H   0  0  0  0  0  0  0  0  0  0  0  0
    0.1394    4.3113   -0.5505 H   0  0  0  0  0  0  0  0  0  0  0  0
   -1.1752    1.0752   -1.0497 H   0  0  0  0  0  0  0  0  0  0  0  0
   -3.5824    1.5961    0.5854 H   0  0  0  0  0  0  0  0  0  0  0  0
   -2.3310    0.5079    1.2190 H   0  0  0  0  0  0  0  0  0  0  0  0
   -4.5883    1.1957   -1.7351 H   0  0  0  0  0  0  0  0  0  0  0  0
   -3.8916   -0.0580   -2.7724 H   0  0  0  0  0  0  0  0  0  0  0  0
   -6.2199   -0.3686   -0.9112 H   0  0  0  0  0  0  0  0  0  0  0  0
   -5.4947   -1.6735   -1.8756 H   0  0  0  0  0  0  0  0  0  0  0  0
   -4.7643   -0.8709    0.9414 H   0  0  0  0  0  0  0  0  0  0  0  0
   -3.1267   -2.6541    0.9559 H   0  0  0  0  0  0  0  0  0  0  0  0
   -4.3755   -3.3459   -0.0987 H   0  0  0  0  0  0  0  0  0  0  0  0
   -3.1810   -2.6711   -2.0954 H   0  0  0  0  0  0  0  0  0  0  0  0
   -1.8671   -3.1815   -1.0286 H   0  0  0  0  0  0  0  0  0  0  0  0
   -1.3262   -1.0421   -0.6014 H   0  0  0  0  0  0  0  0  0  0  0  0
    2.5176   -1.2761   -0.4829 H   0  0  0  0  0  0  0  0  0  0  0  0
  1  2  1  0
  2  3  1  0
  3  4  1  0
  4  5  2  0
  5  6  1  0
  6  7  1  0
  7  8  2  0
  8  9  1  0
  9 10  1  0
 10 11  1  0
 11 12  2  0
 11 13  1  0
 13 14  1  0
 14 15  1  0
 15 16  1  0
 16 17  1  0
 17 18  1  0
 18 19  1  0
 19 20  1  0
 20 21  1  0
  9 22  1  0
 22 23  2  0
 22 24  1  0
 24 25  1  0
 25  3  2  0
 24  6  2  0
 18 15  1  0
 21 15  1  0
  1 26  1  0
  1 27  1  0
  1 28  1  0
  4 29  1  0
  5 30  1  0
  7 31  1  0
 10 32  1  0
 10 33  1  0
 13 34  1  0
 14 35  1  0
 14 36  1  0
 16 37  1  0
 16 38  1  0
 17 39  1  0
 17 40  1  0
 18 41  1  0
 19 42  1  0
 19 43  1  0
 20 44  1  0
 20 45  1  0
 21 46  1  0
 25 47  1  0
M  END
$$$$
OCNT-2311822
     RDKit          3D

 48 51  0  0  0  0  0  0  0  0999 V2000
    2.9832    1.6599    1.5431 C   0  0  0  0  0  0  0  0  0  0  0  0
    3.6848    1.1635    0.3569 N   0  0  0  0  0  0  0  0  0  0  0  0
    4.3368    2.2815   -0.3306 C   0  0  0  0  0  0  0  0  0  0  0  0
    4.6844    0.1330    0.7116 C   0  0  0  0  0  0  0  0  0  0  0  0
    4.0783   -1.2575    0.9969 C   0  0  0  0  0  0  0  0  0  0  0  0
    3.5894   -1.9175   -0.1902 N   0  0  0  0  0  0  0  0  0  0  0  0
    4.3762   -2.5740   -1.1145 C   0  0  0  0  0  0  0  0  0  0  0  0
    5.5854   -2.7485   -1.0335 O   0  0  0  0  0  0  0  0  0  0  0  0
    3.6097   -3.0331   -2.1947 O   0  0  0  0  0  0  0  0  0  0  0  0
    2.3443   -2.5715   -1.8756 C   0  0  0  0  0  0  0  0  0  0  0  0
    1.2120   -2.7581   -2.6339 C   0  0  0  0  0  0  0  0  0  0  0  0
    0.0145   -2.2095   -2.1541 C   0  0  0  0  0  0  0  0  0  0  0  0
   -0.0354   -1.4617   -0.9541 C   0  0  0  0  0  0  0  0  0  0  0  0
   -1.2246   -0.9524   -0.4193 N   0  0  0  0  0  0  0  0  0  0  0  0
   -2.3680   -0.7199   -1.2896 C   0  0  0  0  0  0  0  0  0  0  0  0
   -3.4288    0.0346   -0.5197 C   0  0  0  0  0  0  0  0  0  0  0  0
   -3.6232    1.4018   -0.7294 C   0  0  0  0  0  0  0  0  0  0  0  0
   -4.5935    2.0970   -0.0011 C   0  0  0  0  0  0  0  0  0  0  0  0
   -4.7777    3.4413   -0.2198 O   0  0  0  0  0  0  0  0  0  0  0  0
   -5.3910    1.4386    0.9641 C   0  0  0  0  0  0  0  0  0  0  0  0
   -6.4326    1.9337    1.8214 C   0  0  0  0  0  0  0  0  0  0  0  0
   -6.9674    0.9621    2.6336 C   0  0  0  0  0  0  0  0  0  0  0  0
   -6.2295   -0.5541    2.3823 S   0  0  0  0  0  0  0  0  0  0  0  0
   -5.1771    0.0738    1.1696 C   0  0  0  0  0  0  0  0  0  0  0  0
   -4.2027   -0.6375    0.4416 C   0  0  0  0  0  0  0  0  0  0  0  0
    1.1398   -1.3351   -0.1921 C   0  0  0  0  0  0  0  0  0  0  0  0
    2.3056   -1.8861   -0.6819 C   0  0  0  0  0  0  0  0  0  0  0  0
    2.4516    0.8550    2.0593 H   0  0  0  0  0  0  0  0  0  0  0  0
    3.6647    2.1338    2.2590 H   0  0  0  0  0  0  0  0  0  0  0  0
    2.2227    2.3951    1.2562 H   0  0  0  0  0  0  0  0  0  0  0  0
    3.5999    3.0402   -0.6173 H   0  0  0  0  0  0  0  0  0  0  0  0
    5.1023    2.7595    0.2913 H   0  0  0  0  0  0  0  0  0  0  0  0
    4.8078    1.9403   -1.2593 H   0  0  0  0  0  0  0  0  0  0  0  0
    5.3979    0.0161   -0.1151 H   0  0  0  0  0  0  0  0  0  0  0  0
    5.2699    0.4585    1.5814 H   0  0  0  0  0  0  0  0  0  0  0  0
    3.2911   -1.2207    1.7564 H   0  0  0  0  0  0  0  0  0  0  0  0
    4.8771   -1.8881    1.4071 H   0  0  0  0  0  0  0  0  0  0  0  0
    1.2431   -3.3160   -3.5627 H   0  0  0  0  0  0  0  0  0  0  0  0
   -0.8853   -2.3801   -2.7387 H   0  0  0  0  0  0  0  0  0  0  0  0
   -1.0554   -0.1761    0.2166 H   0  0  0  0  0  0  0  0  0  0  0  0
   -2.0733   -0.1413   -2.1741 H   0  0  0  0  0  0  0  0  0  0  0  0
   -2.7948   -1.6679   -1.6390 H   0  0  0  0  0  0  0  0  0  0  0  0
   -3.0130    1.9235   -1.4621 H   0  0  0  0  0  0  0  0  0  0  0  0
   -4.1646    3.7362   -0.9121 H   0  0  0  0  0  0  0  0  0  0  0  0
   -6.7623    2.9656    1.8282 H   0  0  0  0  0  0  0  0  0  0  0  0
   -7.7568    1.0715    3.3643 H   0  0  0  0  0  0  0  0  0  0  0  0
   -4.0460   -1.6976    0.6301 H   0  0  0  0  0  0  0  0  0  0  0  0
    1.1304   -0.8121    0.7559 H   0  0  0  0  0  0  0  0  0  0  0  0
  1  2  1  0
  2  3  1  0
  2  4  1  0
  4  5  1  0
  5  6  1  0
  6  7  1  0
  7  8  2  0
  7  9  1  0
  9 10  1  0
 10 11  1  0
 11 12  2  0
 12 13  1  0
 13 14  1  0
 14 15  1  0
 15 16  1  0
 16 17  2  0
 17 18  1  0
 18 19  1  0
 18 20  2  0
 20 21  1  0
 21 22  2  0
 22 23  1  0
 23 24  1  0
 24 25  2  0
 13 26  2  0
 26 27  1  0
 27  6  1  0
 27 10  2  0
 25 16  1  0
 24 20  1  0
  1 28  1  0
  1 29  1  0
  1 30  1  0
  3 31  1  0
  3 32  1  0
  3 33  1  0
  4 34  1  0
  4 35  1  0
  5 36  1  0
  5 37  1  0
 11 38  1  0
 12 39  1  0
 14 40  1  0
 15 41  1  0
 15 42  1  0
 17 43  1  0
 19 44  1  0
 21 45  1  0
 22 46  1  0
 25 47  1  0
 26 48  1  0
M  END
$$$$
OCNT-2311831
     RDKit          3D

 59 60  0  0  0  0  0  0  0  0999 V2000
   -6.2504    4.2867   -1.1822 C   0  0  0  0  0  0  0  0  0  0  0  0
   -5.8752    3.1912   -0.3563 O   0  0  0  0  0  0  0  0  0  0  0  0
   -4.6680    2.6048   -0.6159 C   0  0  0  0  0  0  0  0  0  0  0  0
   -3.7485    3.0157   -1.5759 C   0  0  0  0  0  0  0  0  0  0  0  0
   -2.5328    2.3364   -1.7146 C   0  0  0  0  0  0  0  0  0  0  0  0
   -2.2219    1.2262   -0.9109 C   0  0  0  0  0  0  0  0  0  0  0  0
   -0.8793    0.5940   -1.1276 C   0  0  0  0  0  0  0  0  0  0  0  0
   -0.1594    0.9779   -2.0452 O   0  0  0  0  0  0  0  0  0  0  0  0
   -0.4999   -0.3974   -0.2546 N   0  0  0  0  0  0  0  0  0  0  0  0
    0.7789   -1.0858   -0.3254 C   0  0  0  0  0  0  0  0  0  0  0  0
    1.8434   -0.6349    0.7430 C   0  0  0  0  0  0  0  0  0  0  0  0
    1.1740   -0.7617    2.1394 C   0  0  0  0  0  0  0  0  0  0  0  0
    2.1815    0.8525    0.5152 C   0  0  0  0  0  0  0  0  0  0  0  0
    3.0327   -1.5394    0.7698 N   0  0  0  0  0  0  0  0  0  0  0  0
    4.2021   -1.0945    1.5602 C   0  0  0  0  0  0  0  0  0  0  0  0
    5.2753   -0.2744    0.7953 C   0  0  0  0  0  0  0  0  0  0  0  0
    5.6956   -0.9036   -0.4683 N   0  0  0  0  0  0  0  0  0  0  0  0
    6.6182   -0.0418   -1.2016 C   0  0  0  0  0  0  0  0  0  0  0  0
    4.5126   -1.2263   -1.2844 C   0  0  0  0  0  0  0  0  0  0  0  0
    3.5142   -2.1069   -0.5034 C   0  0  0  0  0  0  0  0  0  0  0  0
   -3.1746    0.7873    0.0237 C   0  0  0  0  0  0  0  0  0  0  0  0
   -2.8999   -0.2892    0.8309 O   0  0  0  0  0  0  0  0  0  0  0  0
   -3.8780   -1.3455    0.7872 C   0  0  0  0  0  0  0  0  0  0  0  0
   -3.6385   -2.2069    2.0244 C   0  0  0  0  0  0  0  0  0  0  0  0
   -3.7024   -2.1820   -0.4786 C   0  0  0  0  0  0  0  0  0  0  0  0
   -4.3704    1.5000    0.1865 C   0  0  0  0  0  0  0  0  0  0  0  0
   -5.5526    5.1221   -1.0714 H   0  0  0  0  0  0  0  0  0  0  0  0
   -6.3366    3.9783   -2.2286 H   0  0  0  0  0  0  0  0  0  0  0  0
   -7.2357    4.6307   -0.8544 H   0  0  0  0  0  0  0  0  0  0  0  0
   -3.9314    3.8675   -2.2223 H   0  0  0  0  0  0  0  0  0  0  0  0
   -1.8168    2.6886   -2.4571 H   0  0  0  0  0  0  0  0  0  0  0  0
   -1.1417   -0.6458    0.4920 H   0  0  0  0  0  0  0  0  0  0  0  0
    1.1772   -0.9508   -1.3371 H   0  0  0  0  0  0  0  0  0  0  0  0
    0.5463   -2.1497   -0.1929 H   0  0  0  0  0  0  0  0  0  0  0  0
    0.8633   -1.7949    2.3351 H   0  0  0  0  0  0  0  0  0  0  0  0
    1.8381   -0.4541    2.9535 H   0  0  0  0  0  0  0  0  0  0  0  0
    0.2842   -0.1277    2.2215 H   0  0  0  0  0  0  0  0  0  0  0  0
    2.6527    1.0171   -0.4576 H   0  0  0  0  0  0  0  0  0  0  0  0
    1.2805    1.4754    0.5475 H   0  0  0  0  0  0  0  0  0  0  0  0
    2.8390    1.2498    1.2951 H   0  0  0  0  0  0  0  0  0  0  0  0
    4.6916   -2.0035    1.9356 H   0  0  0  0  0  0  0  0  0  0  0  0
    3.9078   -0.5469    2.4604 H   0  0  0  0  0  0  0  0  0  0  0  0
    6.1490   -0.1722    1.4505 H   0  0  0  0  0  0  0  0  0  0  0  0
    4.9037    0.7382    0.6069 H   0  0  0  0  0  0  0  0  0  0  0  0
    7.5093    0.1664   -0.5986 H   0  0  0  0  0  0  0  0  0  0  0  0
    6.1614    0.9143   -1.4821 H   0  0  0  0  0  0  0  0  0  0  0  0
    6.9646   -0.5390   -2.1140 H   0  0  0  0  0  0  0  0  0  0  0  0
    4.0130   -0.3162   -1.6373 H   0  0  0  0  0  0  0  0  0  0  0  0
    4.8321   -1.7837   -2.1733 H   0  0  0  0  0  0  0  0  0  0  0  0
    2.7020   -2.4217   -1.1643 H   0  0  0  0  0  0  0  0  0  0  0  0
    4.0251   -3.0499   -0.2588 H   0  0  0  0  0  0  0  0  0  0  0  0
   -4.9024   -0.9609    0.8401 H   0  0  0  0  0  0  0  0  0  0  0  0
   -3.7491   -1.6061    2.9347 H   0  0  0  0  0  0  0  0  0  0  0  0
   -2.6181   -2.6063    2.0320 H   0  0  0  0  0  0  0  0  0  0  0  0
   -4.3437   -3.0434    2.0700 H   0  0  0  0  0  0  0  0  0  0  0  0
   -4.3834   -3.0389   -0.4812 H   0  0  0  0  0  0  0  0  0  0  0  0
   -3.9041   -1.5840   -1.3748 H   0  0  0  0  0  0  0  0  0  0  0  0
   -2.6744   -2.5508   -0.5685 H   0  0  0  0  0  0  0  0  0  0  0  0
   -5.0806    1.2156    0.9579 H   0  0  0  0  0  0  0  0  0  0  0  0
  1  2  1  0
  2  3  1  0
  3  4  1  0
  4  5  2  0
  5  6  1  0
  6  7  1  0
  7  8  2  0
  7  9  1  0
  9 10  1  0
 10 11  1  0
 11 12  1  0
 11 13  1  0
 11 14  1  0
 14 15  1  0
 15 16  1  0
 16 17  1  0
 17 18  1  0
 17 19  1  0
 19 20  1  0
  6 21  2  0
 21 22  1  0
 22 23  1  0
 23 24  1  0
 23 25  1  0
 21 26  1  0
 26  3  2  0
 20 14  1  0
  1 27  1  0
  1 28  1  0
  1 29  1  0
  4 30  1  0
  5 31  1  0
  9 32  1  0
 10 33  1  0
 10 34  1  0
 12 35  1  0
 12 36  1  0
 12 37  1  0
 13 38  1  0
 13 39  1  0
 13 40  1  0
 15 41  1  0
 15 42  1  0
 16 43  1  0
 16 44  1  0
 18 45  1  0
 18 46  1  0
 18 47  1  0
 19 48  1  0
 19 49  1  0
 20 50  1  0
 20 51  1  0
 23 52  1  0
 24 53  1  0
 24 54  1  0
 24 55  1  0
 25 56  1  0
 25 57  1  0
 25 58  1  0
 26 59  1  0
M  END
$$$$
OCNT-2311835
     RDKit          3D

 47 50  0  0  0  0  0  0  0  0999 V2000
   -6.3776   -2.0730   -2.3334 C   0  0  0  0  0  0  0  0  0  0  0  0
   -5.0809   -1.7511   -2.7064 C   0  0  0  0  0  0  0  0  0  0  0  0
   -4.2463   -1.0744   -1.8122 C   0  0  0  0  0  0  0  0  0  0  0  0
   -4.6771   -0.7025   -0.5146 C   0  0  0  0  0  0  0  0  0  0  0  0
   -6.0163   -1.0215   -0.1654 C   0  0  0  0  0  0  0  0  0  0  0  0
   -6.8427   -1.7068   -1.0725 C   0  0  0  0  0  0  0  0  0  0  0  0
   -6.5221   -0.6412    1.0827 C   0  0  0  0  0  0  0  0  0  0  0  0
   -5.7326    0.0664    1.9806 C   0  0  0  0  0  0  0  0  0  0  0  0
   -4.4149    0.3799    1.6533 C   0  0  0  0  0  0  0  0  0  0  0  0
   -3.8439   -0.0298    0.4370 C   0  0  0  0  0  0  0  0  0  0  0  0
   -2.5183    0.3066    0.0938 N   0  0  0  0  0  0  0  0  0  0  0  0
   -1.5874    0.7717    1.1124 C   0  0  0  0  0  0  0  0  0  0  0  0
   -0.2165    0.9232    0.4950 C   0  0  0  0  0  0  0  0  0  0  0  0
    0.8199    0.0351    0.8190 C   0  0  0  0  0  0  0  0  0  0  0  0
    2.0886    0.1616    0.2425 C   0  0  0  0  0  0  0  0  0  0  0  0
    2.9923   -0.7730    0.6651 O   0  0  0  0  0  0  0  0  0  0  0  0
    4.3184   -0.7372    0.1361 C   0  0  0  0  0  0  0  0  0  0  0  0
    5.1943    0.2199    0.9375 C   0  0  0  0  0  0  0  0  0  0  0  0
    6.5514    0.2587    0.4419 N   0  0  0  0  0  0  0  0  0  0  0  0
    7.0453    1.1198   -0.4966 C   0  0  0  0  0  0  0  0  0  0  0  0
    8.3675    0.7667   -0.6364 C   0  0  0  0  0  0  0  0  0  0  0  0
    8.6818   -0.2781    0.1939 N   0  0  0  0  0  0  0  0  0  0  0  0
    7.5711   -0.5574    0.8376 C   0  0  0  0  0  0  0  0  0  0  0  0
    2.3219    1.1869   -0.6733 C   0  0  0  0  0  0  0  0  0  0  0  0
    1.2955    2.0738   -1.0102 C   0  0  0  0  0  0  0  0  0  0  0  0
    0.0340    1.9425   -0.4318 C   0  0  0  0  0  0  0  0  0  0  0  0
   -7.0312   -2.5983   -3.0244 H   0  0  0  0  0  0  0  0  0  0  0  0
   -4.7139   -2.0186   -3.6937 H   0  0  0  0  0  0  0  0  0  0  0  0
   -3.2464   -0.8216   -2.1547 H   0  0  0  0  0  0  0  0  0  0  0  0
   -7.8671   -1.9556   -0.8030 H   0  0  0  0  0  0  0  0  0  0  0  0
   -7.5477   -0.8763    1.3588 H   0  0  0  0  0  0  0  0  0  0  0  0
   -6.1440    0.3798    2.9364 H   0  0  0  0  0  0  0  0  0  0  0  0
   -3.8432    0.9465    2.3812 H   0  0  0  0  0  0  0  0  0  0  0  0
   -2.1002   -0.4227   -0.4780 H   0  0  0  0  0  0  0  0  0  0  0  0
   -1.8943    1.7458    1.5123 H   0  0  0  0  0  0  0  0  0  0  0  0
   -1.5417    0.0620    1.9477 H   0  0  0  0  0  0  0  0  0  0  0  0
    0.6428   -0.7718    1.5277 H   0  0  0  0  0  0  0  0  0  0  0  0
    4.7166   -1.7542    0.2411 H   0  0  0  0  0  0  0  0  0  0  0  0
    4.3313   -0.5354   -0.9415 H   0  0  0  0  0  0  0  0  0  0  0  0
    4.7995    1.2416    0.9168 H   0  0  0  0  0  0  0  0  0  0  0  0
    5.2234   -0.0770    1.9927 H   0  0  0  0  0  0  0  0  0  0  0  0
    6.4462    1.8839   -0.9713 H   0  0  0  0  0  0  0  0  0  0  0  0
    9.1097    1.2092   -1.2883 H   0  0  0  0  0  0  0  0  0  0  0  0
    7.4554   -1.3317    1.5854 H   0  0  0  0  0  0  0  0  0  0  0  0
    3.2841    1.3301   -1.1517 H   0  0  0  0  0  0  0  0  0  0  0  0
    1.4778    2.8672   -1.7311 H   0  0  0  0  0  0  0  0  0  0  0  0
   -0.7623    2.6302   -0.7120 H   0  0  0  0  0  0  0  0  0  0  0  0
  1  2  2  0
  2  3  1  0
  3  4  2  0
  4  5  1  0
  5  6  2  0
  5  7  1  0
  7  8  2  0
  8  9  1  0
  9 10  2  0
 10 11  1  0
 11 12  1  0
 12 13  1  0
 13 14  1  0
 14 15  2  0
 15 16  1  0
 16 17  1  0
 17 18  1  0
 18 19  1  0
 19 20  1  0
 20 21  2  0
 21 22  1  0
 22 23  2  0
 15 24  1  0
 24 25  2  0
 25 26  1  0
  6  1  1  0
 26 13  2  0
 10  4  1  0
 23 19  1  0
  1 27  1  0
  2 28  1  0
  3 29  1  0
  6 30  1  0
  7 31  1  0
  8 32  1  0
  9 33  1  0
 11 34  1  0
 12 35  1  0
 12 36  1  0
 14 37  1  0
 17 38  1  0
 17 39  1  0
 18 40  1  0
 18 41  1  0
 20 42  1  0
 21 43  1  0
 23 44  1  0
 24 45  1  0
 25 46  1  0
 26 47  1  0
M  END
$$$$
OCNT-2311840
     RDKit          3D

 46 48  0  0  0  0  0  0  0  0999 V2000
   -2.6143    0.8346    3.1002 O   0  0  0  0  0  0  0  0  0  0  0  0
   -2.4960    0.8369    1.8785 C   0  0  0  0  0  0  0  0  0  0  0  0
   -3.4041    1.6495    0.9756 C   0  0  0  0  0  0  0  0  0  0  0  0
   -4.5810    0.8493    0.4860 C   0  0  0  0  0  0  0  0  0  0  0  0
   -5.8236    0.9161    1.1327 C   0  0  0  0  0  0  0  0  0  0  0  0
   -6.9022    0.1507    0.6765 C   0  0  0  0  0  0  0  0  0  0  0  0
   -6.7478   -0.6929   -0.4245 C   0  0  0  0  0  0  0  0  0  0  0  0
   -5.5136   -0.7699   -1.0595 C   0  0  0  0  0  0  0  0  0  0  0  0
   -5.3634   -1.5890   -2.1094 F   0  0  0  0  0  0  0  0  0  0  0  0
   -4.4401   -0.0102   -0.6078 C   0  0  0  0  0  0  0  0  0  0  0  0
   -3.2485   -0.1100   -1.2184 F   0  0  0  0  0  0  0  0  0  0  0  0
   -1.5380    0.1049    1.2083 N   0  0  0  0  0  0  0  0  0  0  0  0
   -0.6592   -0.8231    1.9155 C   0  0  0  0  0  0  0  0  0  0  0  0
    0.4517   -0.0792    2.6642 C   0  0  0  0  0  0  0  0  0  0  0  0
    1.4852    0.1922    1.5774 C   0  0  0  0  0  0  0  0  0  0  0  0
    1.3336   -0.9119    0.6408 N   0  0  0  0  0  0  0  0  0  0  0  0
    2.1521   -1.2258   -0.4182 C   0  0  0  0  0  0  0  0  0  0  0  0
    1.9311   -2.1883   -1.1508 O   0  0  0  0  0  0  0  0  0  0  0  0
    3.3456   -0.3201   -0.6284 C   0  0  0  0  0  0  0  0  0  0  0  0
    4.1218   -0.7268   -1.8741 C   0  0  0  0  0  0  0  0  0  0  0  0
    5.2808    0.1185   -2.0784 N   0  0  0  0  0  0  0  0  0  0  0  0
    5.3045    1.3138   -2.7395 C   0  0  0  0  0  0  0  0  0  0  0  0
    6.6105    1.7369   -2.6550 C   0  0  0  0  0  0  0  0  0  0  0  0
    7.3722    0.8291   -1.9650 N   0  0  0  0  0  0  0  0  0  0  0  0
    6.5470   -0.1406   -1.6399 C   0  0  0  0  0  0  0  0  0  0  0  0
    0.1487   -1.7004    0.9496 C   0  0  0  0  0  0  0  0  0  0  0  0
   -3.7402    2.5333    1.5311 H   0  0  0  0  0  0  0  0  0  0  0  0
   -2.8297    2.0376    0.1247 H   0  0  0  0  0  0  0  0  0  0  0  0
   -5.9580    1.5593    2.0016 H   0  0  0  0  0  0  0  0  0  0  0  0
   -7.8624    0.2091    1.1852 H   0  0  0  0  0  0  0  0  0  0  0  0
   -7.5771   -1.2931   -0.7848 H   0  0  0  0  0  0  0  0  0  0  0  0
   -1.6456   -0.0067    0.2039 H   0  0  0  0  0  0  0  0  0  0  0  0
   -1.2776   -1.4261    2.5888 H   0  0  0  0  0  0  0  0  0  0  0  0
    0.1301    0.8394    3.1630 H   0  0  0  0  0  0  0  0  0  0  0  0
    0.8864   -0.7436    3.4212 H   0  0  0  0  0  0  0  0  0  0  0  0
    2.5043    0.2357    1.9713 H   0  0  0  0  0  0  0  0  0  0  0  0
    1.2693    1.1221    1.0407 H   0  0  0  0  0  0  0  0  0  0  0  0
    2.9962    0.7140   -0.7263 H   0  0  0  0  0  0  0  0  0  0  0  0
    3.9947   -0.3838    0.2522 H   0  0  0  0  0  0  0  0  0  0  0  0
    4.4755   -1.7624   -1.8043 H   0  0  0  0  0  0  0  0  0  0  0  0
    3.4982   -0.6534   -2.7730 H   0  0  0  0  0  0  0  0  0  0  0  0
    4.4292    1.7512   -3.1983 H   0  0  0  0  0  0  0  0  0  0  0  0
    7.0434    2.6452   -3.0539 H   0  0  0  0  0  0  0  0  0  0  0  0
    6.8124   -1.0360   -1.0922 H   0  0  0  0  0  0  0  0  0  0  0  0
   -0.3928   -1.9700    0.0371 H   0  0  0  0  0  0  0  0  0  0  0  0
    0.4908   -2.6164    1.4447 H   0  0  0  0  0  0  0  0  0  0  0  0
  1  2  2  0
  2  3  1  0
  3  4  1  0
  4  5  2  0
  5  6  1  0
  6  7  2  0
  7  8  1  0
  8  9  1  0
  8 10  2  0
 10 11  1  0
  2 12  1  0
 12 13  1  0
 13 14  1  0
 14 15  1  0
 15 16  1  0
 16 17  1  0
 17 18  2  0
 17 19  1  0
 19 20  1  0
 20 21  1  0
 21 22  1  0
 22 23  2  0
 23 24  1  0
 24 25  2  0
 16 26  1  0
 10  4  1  0
 26 13  1  0
 25 21  1  0
  3 27  1  0
  3 28  1  0
  5 29  1  0
  6 30  1  0
  7 31  1  0
 12 32  1  0
 13 33  1  0
 14 34  1  0
 14 35  1  0
 15 36  1  0
 15 37  1  0
 19 38  1  0
 19 39  1  0
 20 40  1  0
 20 41  1  0
 22 42  1  0
 23 43  1  0
 25 44  1  0
 26 45  1  0
 26 46  1  0
M  END
$$$$
OCNT-2311844
     RDKit          3D

 46 48  0  0  0  0  0  0  0  0999 V2000
   -4.3904   -1.2067    0.1721 C   0  0  0  0  0  0  0  0  0  0  0  0
   -3.5665    0.0818    0.2971 C   0  0  2  0  0  0  0  0  0  0  0  0
   -3.7553    1.0106   -0.9224 C   0  0  0  0  0  0  0  0  0  0  0  0
   -3.0724    0.6301   -2.1173 O   0  0  0  0  0  0  0  0  0  0  0  0
   -2.0771   -0.3778   -1.9428 C   0  0  0  0  0  0  0  0  0  0  0  0
   -1.2529   -0.2693   -0.6218 C   0  0  1  0  0  0  0  0  0  0  0  0
   -0.2751   -1.4867   -0.5934 C   0  0  0  0  0  0  0  0  0  0  0  0
   -0.9439   -2.7391   -0.7326 O   0  0  0  0  0  0  0  0  0  0  0  0
   -0.3854    1.0333   -0.7272 C   0  0  0  0  0  0  0  0  0  0  0  0
    0.2928    1.3146    0.5540 N   0  0  0  0  0  0  0  0  0  0  0  0
    1.5436    2.4284    0.5736 S   0  0  0  0  0  0  0  0  0  0  0  0
    1.2833    3.4085   -0.4564 O   0  0  0  0  0  0  0  0  0  0  0  0
    1.7472    2.8037    1.9541 O   0  0  0  0  0  0  0  0  0  0  0  0
    2.9280    1.4358    0.0843 C   0  0  0  0  0  0  0  0  0  0  0  0
    3.6200    1.7578   -1.1006 C   0  0  0  0  0  0  0  0  0  0  0  0
    4.6987    0.9806   -1.5284 C   0  0  0  0  0  0  0  0  0  0  0  0
    5.1088   -0.1287   -0.7903 C   0  0  0  0  0  0  0  0  0  0  0  0
    6.1404   -0.8711   -1.2099 F   0  0  0  0  0  0  0  0  0  0  0  0
    4.4138   -0.4272    0.3793 C   0  0  0  0  0  0  0  0  0  0  0  0
    3.3357    0.3211    0.8464 C   0  0  0  0  0  0  0  0  0  0  0  0
    2.9320   -0.3128    2.0555 C   0  0  0  0  0  0  0  0  0  0  0  0
    3.7708   -1.3877    2.2361 C   0  0  0  0  0  0  0  0  0  0  0  0
    4.6703   -1.4661    1.2228 O   0  0  0  0  0  0  0  0  0  0  0  0
   -2.1397   -0.1377    0.5784 N   0  0  0  0  0  0  0  0  0  0  0  0
   -1.8508   -0.8876    1.7865 C   0  0  0  0  0  0  0  0  0  0  0  0
   -4.0142   -1.8870   -0.5942 H   0  0  0  0  0  0  0  0  0  0  0  0
   -4.4064   -1.7553    1.1200 H   0  0  0  0  0  0  0  0  0  0  0  0
   -5.4311   -0.9713   -0.0769 H   0  0  0  0  0  0  0  0  0  0  0  0
   -3.9887    0.6286    1.1515 H   0  0  0  0  0  0  0  0  0  0  0  0
   -4.8181    1.1124   -1.1686 H   0  0  0  0  0  0  0  0  0  0  0  0
   -3.4046    2.0178   -0.6662 H   0  0  0  0  0  0  0  0  0  0  0  0
   -1.4076   -0.3087   -2.8090 H   0  0  0  0  0  0  0  0  0  0  0  0
   -2.5746   -1.3476   -2.0353 H   0  0  0  0  0  0  0  0  0  0  0  0
    0.4336   -1.4209   -1.4272 H   0  0  0  0  0  0  0  0  0  0  0  0
    0.3274   -1.5184    0.3194 H   0  0  0  0  0  0  0  0  0  0  0  0
   -1.7127   -2.7346   -0.1391 H   0  0  0  0  0  0  0  0  0  0  0  0
    0.3548    0.9271   -1.5287 H   0  0  0  0  0  0  0  0  0  0  0  0
   -1.0178    1.8959   -0.9652 H   0  0  0  0  0  0  0  0  0  0  0  0
   -0.3325    1.4033    1.3573 H   0  0  0  0  0  0  0  0  0  0  0  0
    3.3195    2.6189   -1.6967 H   0  0  0  0  0  0  0  0  0  0  0  0
    5.2301    1.2328   -2.4425 H   0  0  0  0  0  0  0  0  0  0  0  0
    2.1318   -0.0161    2.7197 H   0  0  0  0  0  0  0  0  0  0  0  0
    3.8576   -2.1520    2.9964 H   0  0  0  0  0  0  0  0  0  0  0  0
   -2.4371   -0.4956    2.6258 H   0  0  0  0  0  0  0  0  0  0  0  0
   -2.0816   -1.9520    1.6967 H   0  0  0  0  0  0  0  0  0  0  0  0
   -0.8040   -0.7850    2.0882 H   0  0  0  0  0  0  0  0  0  0  0  0
  1  2  1  0
  2  3  1  0
  3  4  1  0
  4  5  1  0
  5  6  1  0
  6  7  1  1
  7  8  1  0
  6  9  1  0
  9 10  1  0
 10 11  1  0
 11 12  2  0
 11 13  2  0
 11 14  1  0
 14 15  1  0
 15 16  2  0
 16 17  1  0
 17 18  1  0
 17 19  2  0
 19 20  1  0
 20 21  1  0
 21 22  2  0
 22 23  1  0
  6 24  1  0
 24 25  1  0
 24  2  1  0
 20 14  2  0
 23 19  1  0
  1 26  1  0
  1 27  1  0
  1 28  1  0
  2 29  1  1
  3 30  1  0
  3 31  1  0
  5 32  1  0
  5 33  1  0
  7 34  1  0
  7 35  1  0
  8 36  1  0
  9 37  1  0
  9 38  1  0
 10 39  1  0
 15 40  1  0
 16 41  1  0
 21 42  1  0
 22 43  1  0
 25 44  1  0
 25 45  1  0
 25 46  1  0
M  END
$$$$
OCNT-2311856
     RDKit          3D

 42 44  0  0  0  0  0  0  0  0999 V2000
    3.6349    0.5129    2.6590 C   0  0  0  0  0  0  0  0  0  0  0  0
    3.4807   -0.0413    1.3310 N   0  0  0  0  0  0  0  0  0  0  0  0
    2.7616   -1.1703    1.0337 C   0  0  0  0  0  0  0  0  0  0  0  0
    2.7938   -1.3643   -0.3363 C   0  0  0  0  0  0  0  0  0  0  0  0
    2.1218   -2.4523   -1.1046 C   0  0  0  0  0  0  0  0  0  0  0  0
    1.0484   -1.9133   -1.9473 N   0  0  0  0  0  0  0  0  0  0  0  0
   -0.1419   -1.5132   -1.1796 C   0  0  0  0  0  0  0  0  0  0  0  0
   -0.2145    0.0025   -0.9375 C   0  0  0  0  0  0  0  0  0  0  0  0
   -1.4715    0.3994   -0.2164 C   0  0  0  0  0  0  0  0  0  0  0  0
   -1.6310    0.5438    1.1558 C   0  0  0  0  0  0  0  0  0  0  0  0
   -0.6890    0.3601    2.2855 C   0  0  0  0  0  0  0  0  0  0  0  0
   -1.2813    0.6405    3.4767 F   0  0  0  0  0  0  0  0  0  0  0  0
   -0.2387   -0.9162    2.3671 F   0  0  0  0  0  0  0  0  0  0  0  0
    0.3979    1.1645    2.1920 F   0  0  0  0  0  0  0  0  0  0  0  0
   -2.9320    0.9203    1.3857 N   0  0  0  0  0  0  0  0  0  0  0  0
   -3.6250    1.0168    0.2041 C   0  0  0  0  0  0  0  0  0  0  0  0
   -4.9615    1.3610   -0.0309 C   0  0  0  0  0  0  0  0  0  0  0  0
   -5.4016    1.3806   -1.3574 C   0  0  0  0  0  0  0  0  0  0  0  0
   -4.5376    1.0688   -2.4039 C   0  0  0  0  0  0  0  0  0  0  0  0
   -3.2044    0.7270   -2.1499 C   0  0  0  0  0  0  0  0  0  0  0  0
   -2.7353    0.6991   -0.8205 C   0  0  0  0  0  0  0  0  0  0  0  0
    3.6046   -0.3180   -0.8678 C   0  0  0  0  0  0  0  0  0  0  0  0
    4.0124    0.4833    0.1793 C   0  0  0  0  0  0  0  0  0  0  0  0
    4.8255    1.6497    0.1065 C   0  0  0  0  0  0  0  0  0  0  0  0
    5.4901    2.6001    0.0772 N   0  0  0  0  0  0  0  0  0  0  0  0
    4.6964    0.4964    2.9187 H   0  0  0  0  0  0  0  0  0  0  0  0
    3.0688   -0.0898    3.3739 H   0  0  0  0  0  0  0  0  0  0  0  0
    3.2504    1.5360    2.6549 H   0  0  0  0  0  0  0  0  0  0  0  0
    2.2609   -1.7355    1.8104 H   0  0  0  0  0  0  0  0  0  0  0  0
    1.7482   -3.2427   -0.4427 H   0  0  0  0  0  0  0  0  0  0  0  0
    2.8683   -2.9214   -1.7571 H   0  0  0  0  0  0  0  0  0  0  0  0
    0.7713   -2.6609   -2.5830 H   0  0  0  0  0  0  0  0  0  0  0  0
   -0.2291   -2.0703   -0.2381 H   0  0  0  0  0  0  0  0  0  0  0  0
   -1.0211   -1.8033   -1.7702 H   0  0  0  0  0  0  0  0  0  0  0  0
    0.6452    0.3511   -0.3585 H   0  0  0  0  0  0  0  0  0  0  0  0
   -0.1678    0.5318   -1.8979 H   0  0  0  0  0  0  0  0  0  0  0  0
   -3.3295    1.1005    2.2992 H   0  0  0  0  0  0  0  0  0  0  0  0
   -5.6376    1.6066    0.7815 H   0  0  0  0  0  0  0  0  0  0  0  0
   -6.4340    1.6453   -1.5747 H   0  0  0  0  0  0  0  0  0  0  0  0
   -4.8991    1.0923   -3.4291 H   0  0  0  0  0  0  0  0  0  0  0  0
   -2.5393    0.4881   -2.9748 H   0  0  0  0  0  0  0  0  0  0  0  0
    3.8416   -0.1658   -1.9142 H   0  0  0  0  0  0  0  0  0  0  0  0
  1  2  1  0
  2  3  1  0
  3  4  2  0
  4  5  1  0
  5  6  1  0
  6  7  1  0
  7  8  1  0
  8  9  1  0
  9 10  2  0
 10 11  1  0
 11 12  1  0
 11 13  1  0
 11 14  1  0
 10 15  1  0
 15 16  1  0
 16 17  2  0
 17 18  1  0
 18 19  2  0
 19 20  1  0
 20 21  2  0
  4 22  1  0
 22 23  2  0
 23 24  1  0
 24 25  3  0
 23  2  1  0
 21  9  1  0
 21 16  1  0
  1 26  1  0
  1 27  1  0
  1 28  1  0
  3 29  1  0
  5 30  1  0
  5 31  1  0
  6 32  1  0
  7 33  1  0
  7 34  1  0
  8 35  1  0
  8 36  1  0
 15 37  1  0
 17 38  1  0
 18 39  1  0
 19 40  1  0
 20 41  1  0
 22 42  1  0
M  END
$$$$
OCNT-2311864
     RDKit          3D

 43 45  0  0  0  0  0  0  0  0999 V2000
   -0.2549   -2.3021   -3.5750 N   0  0  0  0  0  0  0  0  0  0  0  0
    0.0644   -1.6076   -2.7001 C   0  0  0  0  0  0  0  0  0  0  0  0
    0.5329   -0.7585   -1.6394 C   0  0  0  0  0  0  0  0  0  0  0  0
    1.8907   -0.4076   -1.6164 C   0  0  0  0  0  0  0  0  0  0  0  0
    2.3786    0.4066   -0.5920 C   0  0  0  0  0  0  0  0  0  0  0  0
    4.0965    0.8495   -0.5836 S   0  0  0  0  0  0  0  0  0  0  0  0
    4.4782    1.1269   -1.9481 O   0  0  0  0  0  0  0  0  0  0  0  0
    4.3247    1.7821    0.4942 O   0  0  0  0  0  0  0  0  0  0  0  0
    4.8127   -0.6125   -0.1779 N   0  0  0  0  0  0  0  0  0  0  0  0
    5.0659   -0.8961    1.2621 C   0  0  0  0  0  0  0  0  0  0  0  0
    6.4503   -0.4553    1.7504 C   0  0  0  0  0  0  0  0  0  0  0  0
    7.4162   -1.0190    0.9850 F   0  0  0  0  0  0  0  0  0  0  0  0
    6.6541   -0.8644    3.0236 F   0  0  0  0  0  0  0  0  0  0  0  0
    6.6246    0.8778    1.7132 F   0  0  0  0  0  0  0  0  0  0  0  0
    1.5254    0.8904    0.3985 C   0  0  0  0  0  0  0  0  0  0  0  0
    0.1733    0.5405    0.3701 C   0  0  0  0  0  0  0  0  0  0  0  0
   -0.3466   -0.2891   -0.6407 C   0  0  0  0  0  0  0  0  0  0  0  0
   -1.6994   -0.6405   -0.6733 N   0  0  0  0  0  0  0  0  0  0  0  0
   -2.1803   -1.4608    0.4489 C   0  0  0  0  0  0  0  0  0  0  0  0
   -3.6958   -1.2898    0.3913 C   0  0  0  0  0  0  0  0  0  0  0  0
   -3.8353    0.1808    0.0194 C   0  0  0  0  0  0  0  0  0  0  0  0
   -3.9708    1.1651    1.2236 C   0  0  0  0  0  0  0  0  0  0  0  0
   -4.9613    1.9767    0.3655 C   0  0  0  0  0  0  0  0  0  0  0  0
   -5.2359    0.6848   -0.4292 C   0  0  0  0  0  0  0  0  0  0  0  0
   -2.6496    0.4650   -0.9172 C   0  0  0  0  0  0  0  0  0  0  0  0
    2.5622   -0.7668   -2.3952 H   0  0  0  0  0  0  0  0  0  0  0  0
    5.5365   -0.8952   -0.8435 H   0  0  0  0  0  0  0  0  0  0  0  0
    4.2799   -0.4593    1.8867 H   0  0  0  0  0  0  0  0  0  0  0  0
    4.9864   -1.9825    1.3850 H   0  0  0  0  0  0  0  0  0  0  0  0
    1.8948    1.5414    1.1882 H   0  0  0  0  0  0  0  0  0  0  0  0
   -0.4833    0.9292    1.1457 H   0  0  0  0  0  0  0  0  0  0  0  0
   -1.8058   -1.0958    1.4131 H   0  0  0  0  0  0  0  0  0  0  0  0
   -1.8898   -2.5098    0.3311 H   0  0  0  0  0  0  0  0  0  0  0  0
   -4.1128   -1.9223   -0.4018 H   0  0  0  0  0  0  0  0  0  0  0  0
   -4.1814   -1.5561    1.3345 H   0  0  0  0  0  0  0  0  0  0  0  0
   -3.0657    1.6973    1.5289 H   0  0  0  0  0  0  0  0  0  0  0  0
   -4.4338    0.7280    2.1167 H   0  0  0  0  0  0  0  0  0  0  0  0
   -5.8176    2.3974    0.8986 H   0  0  0  0  0  0  0  0  0  0  0  0
   -4.4880    2.7678   -0.2271 H   0  0  0  0  0  0  0  0  0  0  0  0
   -6.0712    0.0977   -0.0290 H   0  0  0  0  0  0  0  0  0  0  0  0
   -5.3846    0.8164   -1.5042 H   0  0  0  0  0  0  0  0  0  0  0  0
   -2.9645    0.4108   -1.9657 H   0  0  0  0  0  0  0  0  0  0  0  0
   -2.2200    1.4588   -0.7452 H   0  0  0  0  0  0  0  0  0  0  0  0
  1  2  3  0
  2  3  1  0
  3  4  1  0
  4  5  2  0
  5  6  1  0
  6  7  2  0
  6  8  2  0
  6  9  1  0
  9 10  1  0
 10 11  1  0
 11 12  1  0
 11 13  1  0
 11 14  1  0
  5 15  1  0
 15 16  2  0
 16 17  1  0
 17 18  1  0
 18 19  1  0
 19 20  1  0
 20 21  1  0
 21 22  1  0
 22 23  1  0
 23 24  1  0
 21 25  1  0
 17  3  2  0
 25 18  1  0
 24 21  1  0
  4 26  1  0
  9 27  1  0
 10 28  1  0
 10 29  1  0
 15 30  1  0
 16 31  1  0
 19 32  1  0
 19 33  1  0
 20 34  1  0
 20 35  1  0
 22 36  1  0
 22 37  1  0
 23 38  1  0
 23 39  1  0
 24 40  1  0
 24 41  1  0
 25 42  1  0
 25 43  1  0
M  END
$$$$
OCNT-2311870
     RDKit          3D

 45 47  0  0  0  0  0  0  0  0999 V2000
   -5.6412    1.8275   -2.4542 C   0  0  0  0  0  0  0  0  0  0  0  0
   -4.2608    1.8993   -2.1207 O   0  0  0  0  0  0  0  0  0  0  0  0
   -3.8250    1.0844   -1.1131 C   0  0  0  0  0  0  0  0  0  0  0  0
   -4.6125    0.2099   -0.3693 C   0  0  0  0  0  0  0  0  0  0  0  0
   -4.0322   -0.5796    0.6278 C   0  0  0  0  0  0  0  0  0  0  0  0
   -2.6567   -0.5113    0.8930 C   0  0  0  0  0  0  0  0  0  0  0  0
   -2.0851   -1.3652    1.9976 C   0  0  0  0  0  0  0  0  0  0  0  0
   -0.5651   -1.4877    1.9386 C   0  0  0  0  0  0  0  0  0  0  0  0
    0.0691   -0.1174    1.7275 C   0  0  0  0  0  0  0  0  0  0  0  0
   -0.3648    0.5048    0.3905 C   0  0  1  0  0  0  0  0  0  0  0  0
    0.3542   -0.1567   -0.6988 N   0  0  0  0  0  0  0  0  0  0  0  0
    1.5399    0.6234   -1.5583 S   0  0  0  0  0  0  0  0  0  0  0  0
    1.8678   -0.2007   -2.7020 O   0  0  0  0  0  0  0  0  0  0  0  0
    1.1532    2.0082   -1.7176 O   0  0  0  0  0  0  0  0  0  0  0  0
    2.9334    0.5544   -0.4693 C   0  0  0  0  0  0  0  0  0  0  0  0
    3.4520    1.7476    0.0438 C   0  0  0  0  0  0  0  0  0  0  0  0
    4.5513    1.6966    0.8908 C   0  0  0  0  0  0  0  0  0  0  0  0
    5.0485    2.8337    1.3925 F   0  0  0  0  0  0  0  0  0  0  0  0
    5.1396    0.4844    1.2338 C   0  0  0  0  0  0  0  0  0  0  0  0
    4.6242   -0.7047    0.7167 C   0  0  0  0  0  0  0  0  0  0  0  0
    3.5316   -0.6723   -0.1554 C   0  0  0  0  0  0  0  0  0  0  0  0
    2.9956   -1.8540   -0.5864 O   0  0  0  0  0  0  0  0  0  0  0  0
    3.7841   -2.4387   -1.6225 C   0  0  0  0  0  0  0  0  0  0  0  0
    4.8963   -2.9843   -1.0662 F   0  0  0  0  0  0  0  0  0  0  0  0
    3.0688   -3.4701   -2.1369 F   0  0  0  0  0  0  0  0  0  0  0  0
   -1.8596    0.3886    0.1636 C   0  0  0  0  0  0  0  0  0  0  0  0
   -2.4572    1.1695   -0.8418 C   0  0  0  0  0  0  0  0  0  0  0  0
   -6.2666    2.1516   -1.6156 H   0  0  0  0  0  0  0  0  0  0  0  0
   -5.9168    0.8218   -2.7880 H   0  0  0  0  0  0  0  0  0  0  0  0
   -5.8197    2.5137   -3.2878 H   0  0  0  0  0  0  0  0  0  0  0  0
   -5.6800    0.1154   -0.5369 H   0  0  0  0  0  0  0  0  0  0  0  0
   -4.6659   -1.2548    1.1993 H   0  0  0  0  0  0  0  0  0  0  0  0
   -2.3763   -0.9184    2.9565 H   0  0  0  0  0  0  0  0  0  0  0  0
   -2.5209   -2.3703    1.9554 H   0  0  0  0  0  0  0  0  0  0  0  0
   -0.1976   -1.9323    2.8713 H   0  0  0  0  0  0  0  0  0  0  0  0
   -0.2739   -2.1648    1.1271 H   0  0  0  0  0  0  0  0  0  0  0  0
    1.1596   -0.2034    1.7847 H   0  0  0  0  0  0  0  0  0  0  0  0
   -0.2372    0.5435    2.5499 H   0  0  0  0  0  0  0  0  0  0  0  0
   -0.1047    1.5690    0.4360 H   0  0  0  0  0  0  0  0  0  0  0  0
   -0.0376   -1.0005   -1.1142 H   0  0  0  0  0  0  0  0  0  0  0  0
    3.0158    2.7127   -0.2010 H   0  0  0  0  0  0  0  0  0  0  0  0
    5.9895    0.4726    1.9088 H   0  0  0  0  0  0  0  0  0  0  0  0
    5.0691   -1.6537    1.0075 H   0  0  0  0  0  0  0  0  0  0  0  0
    4.0598   -1.7449   -2.4241 H   0  0  0  0  0  0  0  0  0  0  0  0
   -1.8463    1.8536   -1.4301 H   0  0  0  0  0  0  0  0  0  0  0  0
  1  2  1  0
  2  3  1  0
  3  4  1  0
  4  5  2  0
  5  6  1  0
  6  7  1  0
  7  8  1  0
  8  9  1  0
  9 10  1  0
 10 11  1  0
 11 12  1  0
 12 13  2  0
 12 14  2  0
 12 15  1  0
 15 16  1  0
 16 17  2  0
 17 18  1  0
 17 19  1  0
 19 20  2  0
 20 21  1  0
 21 22  1  0
 22 23  1  0
 23 24  1  0
 23 25  1  0
 10 26  1  0
 26 27  1  0
 27  3  2  0
 26  6  2  0
 21 15  2  0
  1 28  1  0
  1 29  1  0
  1 30  1  0
  4 31  1  0
  5 32  1  0
  7 33  1  0
  7 34  1  0
  8 35  1  0
  8 36  1  0
  9 37  1  0
  9 38  1  0
 10 39  1  1
 11 40  1  0
 16 41  1  0
 19 42  1  0
 20 43  1  0
 23 44  1  0
 27 45  1  0
M  END
$$$$
OCNT-2311871
     RDKit          3D

 52 54  0  0  0  0  0  0  0  0999 V2000
   -6.3790    0.8710   -1.7380 C   0  0  0  0  0  0  0  0  0  0  0  0
   -4.9671    0.5826   -1.3271 C   0  0  0  0  0  0  0  0  0  0  0  0
   -4.4662   -0.7110   -1.3649 C   0  0  0  0  0  0  0  0  0  0  0  0
   -3.1604   -0.9778   -0.9400 C   0  0  0  0  0  0  0  0  0  0  0  0
   -2.2997    0.0252   -0.4379 C   0  0  0  0  0  0  0  0  0  0  0  0
   -0.8602   -0.3616    0.0145 C   0  0  0  0  0  0  0  0  0  0  0  0
    0.1177    0.0845   -1.1107 C   0  0  0  0  0  0  0  0  0  0  0  0
    1.5307   -0.0119   -0.7756 N   0  0  0  0  0  0  0  0  0  0  0  0
    2.3391   -1.0293   -1.2441 C   0  0  0  0  0  0  0  0  0  0  0  0
    1.9173   -1.9300   -1.9647 O   0  0  0  0  0  0  0  0  0  0  0  0
    3.8105   -0.9654   -0.7972 C   0  0  2  0  0  0  0  0  0  0  0  0
    3.9226   -0.6786    0.6679 N   0  0  0  0  0  0  0  0  0  0  0  0
    4.4673    0.6780    0.8085 C   0  0  0  0  0  0  0  0  0  0  0  0
    5.3991    0.7927   -0.3893 C   0  0  1  0  0  0  0  0  0  0  0  0
    6.5907    0.0185   -0.1680 O   0  0  0  0  0  0  0  0  0  0  0  0
    4.5850    0.1500   -1.5146 C   0  0  1  0  0  0  0  0  0  0  0  0
    5.4553   -0.3432   -2.5300 O   0  0  0  0  0  0  0  0  0  0  0  0
   -0.6497   -1.8778    0.3207 C   0  0  0  0  0  0  0  0  0  0  0  0
   -1.3196   -2.1188    1.6717 C   0  0  0  0  0  0  0  0  0  0  0  0
   -1.2487   -0.7774    2.3938 C   0  0  0  0  0  0  0  0  0  0  0  0
   -0.5205    0.1670    1.4343 C   0  0  0  0  0  0  0  0  0  0  0  0
   -2.8071    1.3526   -0.4346 C   0  0  0  0  0  0  0  0  0  0  0  0
   -2.0567    2.5778    0.0221 C   0  0  0  0  0  0  0  0  0  0  0  0
   -4.1381    1.5979   -0.8506 C   0  0  0  0  0  0  0  0  0  0  0  0
   -6.6997    0.1926   -2.5357 H   0  0  0  0  0  0  0  0  0  0  0  0
   -6.4744    1.8917   -2.1231 H   0  0  0  0  0  0  0  0  0  0  0  0
   -7.0499    0.7526   -0.8814 H   0  0  0  0  0  0  0  0  0  0  0  0
   -5.0833   -1.5308   -1.7262 H   0  0  0  0  0  0  0  0  0  0  0  0
   -2.8444   -2.0134   -1.0192 H   0  0  0  0  0  0  0  0  0  0  0  0
   -0.0364    1.1299   -1.3903 H   0  0  0  0  0  0  0  0  0  0  0  0
   -0.0775   -0.5020   -2.0174 H   0  0  0  0  0  0  0  0  0  0  0  0
    1.9274    0.7104   -0.1948 H   0  0  0  0  0  0  0  0  0  0  0  0
    4.2543   -1.9500   -0.9853 H   0  0  0  0  0  0  0  0  0  0  0  0
    3.0242   -0.7969    1.1366 H   0  0  0  0  0  0  0  0  0  0  0  0
    4.9976    0.7720    1.7605 H   0  0  0  0  0  0  0  0  0  0  0  0
    3.6720    1.4282    0.7628 H   0  0  0  0  0  0  0  0  0  0  0  0
    5.6979    1.8191   -0.6177 H   0  0  0  0  0  0  0  0  0  0  0  0
    6.3085   -0.7659    0.3461 H   0  0  0  0  0  0  0  0  0  0  0  0
    3.9085    0.8858   -1.9638 H   0  0  0  0  0  0  0  0  0  0  0  0
    6.3173   -0.5030   -2.0918 H   0  0  0  0  0  0  0  0  0  0  0  0
   -0.9933   -2.5664   -0.4543 H   0  0  0  0  0  0  0  0  0  0  0  0
    0.4185   -2.0961    0.4494 H   0  0  0  0  0  0  0  0  0  0  0  0
   -0.8078   -2.9082    2.2316 H   0  0  0  0  0  0  0  0  0  0  0  0
   -2.3629   -2.4286    1.5482 H   0  0  0  0  0  0  0  0  0  0  0  0
   -0.7218   -0.8566    3.3500 H   0  0  0  0  0  0  0  0  0  0  0  0
   -2.2598   -0.4099    2.6035 H   0  0  0  0  0  0  0  0  0  0  0  0
   -0.7876    1.1996    1.6468 H   0  0  0  0  0  0  0  0  0  0  0  0
    0.5562    0.0859    1.6313 H   0  0  0  0  0  0  0  0  0  0  0  0
   -0.9767    2.4911   -0.0965 H   0  0  0  0  0  0  0  0  0  0  0  0
   -2.3485    3.4510   -0.5734 H   0  0  0  0  0  0  0  0  0  0  0  0
   -2.2905    2.7887    1.0705 H   0  0  0  0  0  0  0  0  0  0  0  0
   -4.5302    2.6141   -0.8085 H   0  0  0  0  0  0  0  0  0  0  0  0
  1  2  1  0
  2  3  1  0
  3  4  2  0
  4  5  1  0
  5  6  1  0
  6  7  1  0
  7  8  1  0
  8  9  1  0
  9 10  2  0
  9 11  1  0
 11 12  1  0
 12 13  1  0
 13 14  1  0
 14 15  1  0
 14 16  1  0
 16 17  1  0
  6 18  1  0
 18 19  1  0
 19 20  1  0
 20 21  1  0
  5 22  2  0
 22 23  1  0
 22 24  1  0
 24  2  2  0
 21  6  1  0
 16 11  1  0
  1 25  1  0
  1 26  1  0
  1 27  1  0
  3 28  1  0
  4 29  1  0
  7 30  1  0
  7 31  1  0
  8 32  1  0
 11 33  1  1
 12 34  1  0
 13 35  1  0
 13 36  1  0
 14 37  1  6
 15 38  1  0
 16 39  1  6
 17 40  1  0
 18 41  1  0
 18 42  1  0
 19 43  1  0
 19 44  1  0
 20 45  1  0
 20 46  1  0
 21 47  1  0
 21 48  1  0
 23 49  1  0
 23 50  1  0
 23 51  1  0
 24 52  1  0
M  END
$$$$
OCNT-2311875
     RDKit          3D

 52 54  0  0  0  0  0  0  0  0999 V2000
   -5.5063    0.1374    0.7551 C   0  0  0  0  0  0  0  0  0  0  0  0
   -4.2006    0.3754   -0.0114 C   0  0  0  0  0  0  0  0  0  0  0  0
   -3.6961    1.7971    0.2810 C   0  0  0  0  0  0  0  0  0  0  0  0
   -3.1437   -0.6839    0.3572 C   0  0  0  0  0  0  0  0  0  0  0  0
   -2.5256   -1.1022   -0.9803 C   0  0  0  0  0  0  0  0  0  0  0  0
   -2.0113   -2.5464   -0.9613 C   0  0  0  0  0  0  0  0  0  0  0  0
   -1.3770   -0.1681   -1.4010 C   0  0  0  0  0  0  0  0  0  0  0  0
   -1.3784    0.4636   -2.4538 O   0  0  0  0  0  0  0  0  0  0  0  0
   -0.3379   -0.0936   -0.5021 N   0  0  0  0  0  0  0  0  0  0  0  0
    0.8570    0.6761   -0.7771 C   0  0  0  0  0  0  0  0  0  0  0  0
    1.4931    1.1398    0.5129 C   0  0  0  0  0  0  0  0  0  0  0  0
    0.8032    2.1090    1.2717 C   0  0  0  0  0  0  0  0  0  0  0  0
    1.3064    2.5601    2.4875 C   0  0  0  0  0  0  0  0  0  0  0  0
    2.5076    2.0504    2.9607 C   0  0  0  0  0  0  0  0  0  0  0  0
    3.2005    1.0889    2.2192 C   0  0  0  0  0  0  0  0  0  0  0  0
    2.7102    0.6079    0.9920 C   0  0  0  0  0  0  0  0  0  0  0  0
    3.4123   -0.3284    0.2312 N   0  0  0  0  0  0  0  0  0  0  0  0
    4.0603   -1.4693    0.8881 C   0  0  0  0  0  0  0  0  0  0  0  0
    5.0870   -1.9241   -0.1429 C   0  0  0  0  0  0  0  0  0  0  0  0
    5.5957   -0.6002   -0.6888 C   0  0  0  0  0  0  0  0  0  0  0  0
    4.3374    0.2656   -0.7553 C   0  0  0  0  0  0  0  0  0  0  0  0
   -3.7243   -0.9649   -1.9180 C   0  0  0  0  0  0  0  0  0  0  0  0
   -4.4631    0.2232   -1.4584 N   0  0  0  0  0  0  0  0  0  0  0  0
   -5.3459    0.2265    1.8357 H   0  0  0  0  0  0  0  0  0  0  0  0
   -5.9131   -0.8617    0.5620 H   0  0  0  0  0  0  0  0  0  0  0  0
   -6.2745    0.8665    0.4716 H   0  0  0  0  0  0  0  0  0  0  0  0
   -3.4654    1.9237    1.3445 H   0  0  0  0  0  0  0  0  0  0  0  0
   -2.7862    2.0299   -0.2813 H   0  0  0  0  0  0  0  0  0  0  0  0
   -4.4497    2.5471    0.0138 H   0  0  0  0  0  0  0  0  0  0  0  0
   -3.6243   -1.5536    0.8258 H   0  0  0  0  0  0  0  0  0  0  0  0
   -2.4105   -0.3004    1.0751 H   0  0  0  0  0  0  0  0  0  0  0  0
   -1.2495   -2.6983   -0.1880 H   0  0  0  0  0  0  0  0  0  0  0  0
   -1.5621   -2.8153   -1.9244 H   0  0  0  0  0  0  0  0  0  0  0  0
   -2.8213   -3.2575   -0.7622 H   0  0  0  0  0  0  0  0  0  0  0  0
   -0.2703   -0.7649    0.2489 H   0  0  0  0  0  0  0  0  0  0  0  0
    1.5134    0.0355   -1.3727 H   0  0  0  0  0  0  0  0  0  0  0  0
    0.6113    1.5463   -1.3981 H   0  0  0  0  0  0  0  0  0  0  0  0
   -0.1410    2.5083    0.9064 H   0  0  0  0  0  0  0  0  0  0  0  0
    0.7642    3.3092    3.0589 H   0  0  0  0  0  0  0  0  0  0  0  0
    2.9159    2.4066    3.9022 H   0  0  0  0  0  0  0  0  0  0  0  0
    4.1529    0.7427    2.6086 H   0  0  0  0  0  0  0  0  0  0  0  0
    3.3371   -2.2601    1.1111 H   0  0  0  0  0  0  0  0  0  0  0  0
    4.5792   -1.1958    1.8128 H   0  0  0  0  0  0  0  0  0  0  0  0
    5.8801   -2.5367    0.2949 H   0  0  0  0  0  0  0  0  0  0  0  0
    4.6000   -2.5004   -0.9386 H   0  0  0  0  0  0  0  0  0  0  0  0
    6.3169   -0.1599    0.0116 H   0  0  0  0  0  0  0  0  0  0  0  0
    6.0850   -0.6991   -1.6625 H   0  0  0  0  0  0  0  0  0  0  0  0
    4.5831    1.3164   -0.5551 H   0  0  0  0  0  0  0  0  0  0  0  0
    3.8862    0.2004   -1.7520 H   0  0  0  0  0  0  0  0  0  0  0  0
   -3.4492   -0.8665   -2.9738 H   0  0  0  0  0  0  0  0  0  0  0  0
   -4.3934   -1.8307   -1.8380 H   0  0  0  0  0  0  0  0  0  0  0  0
   -4.0752    1.0282   -1.9602 H   0  0  0  0  0  0  0  0  0  0  0  0
  1  2  1  0
  2  3  1  0
  2  4  1  0
  4  5  1  0
  5  6  1  0
  5  7  1  0
  7  8  2  0
  7  9  1  0
  9 10  1  0
 10 11  1  0
 11 12  2  0
 12 13  1  0
 13 14  2  0
 14 15  1  0
 15 16  2  0
 16 17  1  0
 17 18  1  0
 18 19  1  0
 19 20  1  0
 20 21  1  0
  5 22  1  0
 22 23  1  0
 23  2  1  0
 16 11  1  0
 21 17  1  0
  1 24  1  0
  1 25  1  0
  1 26  1  0
  3 27  1  0
  3 28  1  0
  3 29  1  0
  4 30  1  0
  4 31  1  0
  6 32  1  0
  6 33  1  0
  6 34  1  0
  9 35  1  0
 10 36  1  0
 10 37  1  0
 12 38  1  0
 13 39  1  0
 14 40  1  0
 15 41  1  0
 18 42  1  0
 18 43  1  0
 19 44  1  0
 19 45  1  0
 20 46  1  0
 20 47  1  0
 21 48  1  0
 21 49  1  0
 22 50  1  0
 22 51  1  0
 23 52  1  0
M  END
$$$$
OCNT-2311890
     RDKit          3D

 38 40  0  0  0  0  0  0  0  0999 V2000
   -4.8835   -1.9422    1.3300 C   0  0  0  0  0  0  0  0  0  0  0  0
   -4.0167   -0.8564    0.7587 C   0  0  0  0  0  0  0  0  0  0  0  0
   -2.6318   -1.0479    0.6493 C   0  0  0  0  0  0  0  0  0  0  0  0
   -1.7954   -0.0546    0.1211 C   0  0  0  0  0  0  0  0  0  0  0  0
   -0.3517   -0.3086    0.0363 C   0  0  0  0  0  0  0  0  0  0  0  0
    0.2368   -1.4850    0.1733 N   0  0  0  0  0  0  0  0  0  0  0  0
    1.5813   -1.2668    0.0252 C   0  0  0  0  0  0  0  0  0  0  0  0
    2.6477   -2.1781    0.0589 C   0  0  0  0  0  0  0  0  0  0  0  0
    3.9518   -1.6969   -0.1156 C   0  0  0  0  0  0  0  0  0  0  0  0
    4.1769   -0.3278   -0.3049 C   0  0  0  0  0  0  0  0  0  0  0  0
    5.8492    0.2462   -0.5219 S   0  0  0  0  0  0  0  0  0  0  0  0
    6.4641    0.3441    1.1390 C   0  0  0  0  0  0  0  0  0  0  0  0
    5.7843    1.5945   -1.0543 O   0  0  0  0  0  0  0  0  0  0  0  0
    6.5786   -0.7955   -1.2187 O   0  0  0  0  0  0  0  0  0  0  0  0
    3.1258    0.6006   -0.3589 C   0  0  0  0  0  0  0  0  0  0  0  0
    1.8410    0.0804   -0.1860 C   0  0  0  0  0  0  0  0  0  0  0  0
    0.6002    0.6643   -0.1783 N   0  0  0  0  0  0  0  0  0  0  0  0
   -2.3785    1.1457   -0.3139 C   0  0  0  0  0  0  0  0  0  0  0  0
   -3.7654    1.3662   -0.2179 C   0  0  0  0  0  0  0  0  0  0  0  0
   -4.3345    2.6697   -0.7018 C   0  0  0  0  0  0  0  0  0  0  0  0
   -4.5702    0.3530    0.3214 C   0  0  0  0  0  0  0  0  0  0  0  0
   -5.9260    0.4942    0.4428 O   0  0  0  0  0  0  0  0  0  0  0  0
   -5.6067   -2.2824    0.5820 H   0  0  0  0  0  0  0  0  0  0  0  0
   -4.2907   -2.8098    1.6385 H   0  0  0  0  0  0  0  0  0  0  0  0
   -5.4179   -1.5763    2.2127 H   0  0  0  0  0  0  0  0  0  0  0  0
   -2.1919   -1.9881    0.9818 H   0  0  0  0  0  0  0  0  0  0  0  0
    2.4528   -3.2348    0.2089 H   0  0  0  0  0  0  0  0  0  0  0  0
    4.7809   -2.4021   -0.1097 H   0  0  0  0  0  0  0  0  0  0  0  0
    5.8491    1.0459    1.7056 H   0  0  0  0  0  0  0  0  0  0  0  0
    7.4946    0.7035    1.0977 H   0  0  0  0  0  0  0  0  0  0  0  0
    6.4365   -0.6493    1.5907 H   0  0  0  0  0  0  0  0  0  0  0  0
    3.2965    1.6584   -0.5319 H   0  0  0  0  0  0  0  0  0  0  0  0
    0.4167    1.6486   -0.2942 H   0  0  0  0  0  0  0  0  0  0  0  0
   -1.7613    1.9256   -0.7514 H   0  0  0  0  0  0  0  0  0  0  0  0
   -5.0270    2.4952   -1.5315 H   0  0  0  0  0  0  0  0  0  0  0  0
   -3.5514    3.3458   -1.0609 H   0  0  0  0  0  0  0  0  0  0  0  0
   -4.8595    3.1797    0.1123 H   0  0  0  0  0  0  0  0  0  0  0  0
   -6.2044    1.3410    0.0641 H   0  0  0  0  0  0  0  0  0  0  0  0
  1  2  1  0
  2  3  1  0
  3  4  2  0
  4  5  1  0
  5  6  2  0
  6  7  1  0
  7  8  2  0
  8  9  1  0
  9 10  2  0
 10 11  1  0
 11 12  1  0
 11 13  2  0
 11 14  2  0
 10 15  1  0
 15 16  2  0
 16 17  1  0
  4 18  1  0
 18 19  2  0
 19 20  1  0
 19 21  1  0
 21 22  1  0
 21  2  2  0
 17  5  1  0
 16  7  1  0
  1 23  1  0
  1 24  1  0
  1 25  1  0
  3 26  1  0
  8 27  1  0
  9 28  1  0
 12 29  1  0
 12 30  1  0
 12 31  1  0
 15 32  1  0
 17 33  1  0
 18 34  1  0
 20 35  1  0
 20 36  1  0
 20 37  1  0
 22 38  1  0
M  END
$$$$
OCNT-2311899
     RDKit          3D

 44 47  0  0  0  0  0  0  0  0999 V2000
   -5.0893    3.1809    1.9309 C   0  0  0  0  0  0  0  0  0  0  0  0
   -5.5638    2.2715    0.9435 O   0  0  0  0  0  0  0  0  0  0  0  0
   -4.6095    1.3531    0.5546 C   0  0  0  0  0  0  0  0  0  0  0  0
   -4.9991    0.4278   -0.3952 C   0  0  0  0  0  0  0  0  0  0  0  0
   -4.0675   -0.5175   -0.8178 C   0  0  0  0  0  0  0  0  0  0  0  0
   -2.7702   -0.5216   -0.2863 C   0  0  0  0  0  0  0  0  0  0  0  0
   -1.7699   -1.5589   -0.7620 C   0  0  0  0  0  0  0  0  0  0  0  0
   -0.5720   -0.9725   -1.5217 C   0  0  0  0  0  0  0  0  0  0  0  0
    0.5756   -0.5099   -0.6310 C   0  0  0  0  0  0  0  0  0  0  0  0
    0.9436   -1.5089    0.3736 N   0  0  0  0  0  0  0  0  0  0  0  0
    2.2286   -1.6446    0.8980 C   0  0  0  0  0  0  0  0  0  0  0  0
    2.4989   -2.3902    1.8391 O   0  0  0  0  0  0  0  0  0  0  0  0
    3.3302   -0.9070    0.2494 C   0  0  0  0  0  0  0  0  0  0  0  0
    4.2419   -1.6108   -0.4400 C   0  0  0  0  0  0  0  0  0  0  0  0
    5.3374   -1.0797   -1.0807 N   0  0  0  0  0  0  0  0  0  0  0  0
    5.4834    0.1943   -0.9451 C   0  0  0  0  0  0  0  0  0  0  0  0
    6.7958    1.1298   -1.6398 S   0  0  0  0  0  0  0  0  0  0  0  0
    6.1496    2.5957   -0.9537 C   0  0  0  0  0  0  0  0  0  0  0  0
    5.0273    2.3627   -0.2634 C   0  0  0  0  0  0  0  0  0  0  0  0
    4.6444    1.0378   -0.2480 N   0  0  0  0  0  0  0  0  0  0  0  0
    3.5149    0.5558    0.3799 C   0  0  0  0  0  0  0  0  0  0  0  0
    2.7022    1.2554    0.9796 O   0  0  0  0  0  0  0  0  0  0  0  0
   -0.1513   -2.0523    1.1738 C   0  0  0  0  0  0  0  0  0  0  0  0
   -1.3161   -2.5442    0.3237 C   0  0  0  0  0  0  0  0  0  0  0  0
   -2.4918    0.4571    0.6639 C   0  0  0  0  0  0  0  0  0  0  0  0
   -3.3751    1.3893    1.0932 N   0  0  0  0  0  0  0  0  0  0  0  0
   -5.9094    3.8623    2.1772 H   0  0  0  0  0  0  0  0  0  0  0  0
   -4.8054    2.6570    2.8504 H   0  0  0  0  0  0  0  0  0  0  0  0
   -4.2591    3.7851    1.5487 H   0  0  0  0  0  0  0  0  0  0  0  0
   -6.0055    0.4419   -0.7973 H   0  0  0  0  0  0  0  0  0  0  0  0
   -4.3672   -1.2492   -1.5647 H   0  0  0  0  0  0  0  0  0  0  0  0
   -2.3095   -2.1710   -1.5003 H   0  0  0  0  0  0  0  0  0  0  0  0
   -0.1780   -1.7614   -2.1777 H   0  0  0  0  0  0  0  0  0  0  0  0
   -0.8857   -0.1530   -2.1795 H   0  0  0  0  0  0  0  0  0  0  0  0
    1.4307   -0.2832   -1.2744 H   0  0  0  0  0  0  0  0  0  0  0  0
    0.3217    0.4148   -0.1047 H   0  0  0  0  0  0  0  0  0  0  0  0
    4.1458   -2.6931   -0.5196 H   0  0  0  0  0  0  0  0  0  0  0  0
    6.6186    3.5613   -1.0869 H   0  0  0  0  0  0  0  0  0  0  0  0
    4.4313    3.1025    0.2570 H   0  0  0  0  0  0  0  0  0  0  0  0
    0.2037   -2.8857    1.7905 H   0  0  0  0  0  0  0  0  0  0  0  0
   -0.4687   -1.2706    1.8711 H   0  0  0  0  0  0  0  0  0  0  0  0
   -2.1541   -2.8308    0.9704 H   0  0  0  0  0  0  0  0  0  0  0  0
   -0.9864   -3.4635   -0.1804 H   0  0  0  0  0  0  0  0  0  0  0  0
   -1.5209    0.5434    1.1387 H   0  0  0  0  0  0  0  0  0  0  0  0
  1  2  1  0
  2  3  1  0
  3  4  2  0
  4  5  1  0
  5  6  2  0
  6  7  1  0
  7  8  1  0
  8  9  1  0
  9 10  1  0
 10 11  1  0
 11 12  2  0
 11 13  1  0
 13 14  2  0
 14 15  1  0
 15 16  2  0
 16 17  1  0
 17 18  1  0
 18 19  2  0
 19 20  1  0
 20 21  1  0
 21 22  2  0
 10 23  1  0
 23 24  1  0
  6 25  1  0
 25 26  2  0
 26  3  1  0
 24  7  1  0
 21 13  1  0
 20 16  1  0
  1 27  1  0
  1 28  1  0
  1 29  1  0
  4 30  1  0
  5 31  1  0
  7 32  1  0
  8 33  1  0
  8 34  1  0
  9 35  1  0
  9 36  1  0
 14 37  1  0
 18 38  1  0
 19 39  1  0
 23 40  1  0
 23 41  1  0
 24 42  1  0
 24 43  1  0
 25 44  1  0
M  END
$$$$
OCNT-2311901
     RDKit          3D

 37 39  0  0  0  0  0  0  0  0999 V2000
    4.1765    2.6387    1.6650 C   0  0  0  0  0  0  0  0  0  0  0  0
    3.2209    1.8383    0.8711 C   0  0  0  0  0  0  0  0  0  0  0  0
    2.1991    2.2596    0.0531 C   0  0  0  0  0  0  0  0  0  0  0  0
    1.6350    1.1125   -0.4277 N   0  0  0  0  0  0  0  0  0  0  0  0
    2.2919    0.0331    0.1168 C   0  0  0  0  0  0  0  0  0  0  0  0
    2.0031   -1.3714   -0.2166 C   0  0  0  0  0  0  0  0  0  0  0  0
    3.0973   -2.2598   -0.1435 C   0  0  0  0  0  0  0  0  0  0  0  0
    3.0095   -3.5761   -0.5974 C   0  0  0  0  0  0  0  0  0  0  0  0
    1.8223   -4.0327   -1.1506 C   0  0  0  0  0  0  0  0  0  0  0  0
    0.7173   -3.1837   -1.2131 C   0  0  0  0  0  0  0  0  0  0  0  0
    0.7764   -1.8691   -0.7103 C   0  0  0  0  0  0  0  0  0  0  0  0
   -0.4479   -1.1534   -0.7689 N   0  0  0  0  0  0  0  0  0  0  0  0
   -0.9692   -0.4179    0.2846 C   0  0  0  0  0  0  0  0  0  0  0  0
   -0.4279   -0.2500    1.3685 O   0  0  0  0  0  0  0  0  0  0  0  0
   -2.2979    0.1464    0.0150 C   0  0  0  0  0  0  0  0  0  0  0  0
   -2.9845    0.1996   -1.1888 C   0  0  0  0  0  0  0  0  0  0  0  0
   -4.1886    0.8266   -0.9815 N   0  0  0  0  0  0  0  0  0  0  0  0
   -4.2986    1.1954    0.3361 C   0  0  0  0  0  0  0  0  0  0  0  0
   -5.5009    1.9001    0.8441 C   0  0  0  0  0  0  0  0  0  0  0  0
   -5.1918    3.0942    1.4021 F   0  0  0  0  0  0  0  0  0  0  0  0
   -6.1574    1.1713    1.7776 F   0  0  0  0  0  0  0  0  0  0  0  0
   -6.3845    2.1474   -0.1583 F   0  0  0  0  0  0  0  0  0  0  0  0
   -3.1410    0.7903    0.9716 C   0  0  0  0  0  0  0  0  0  0  0  0
    3.2860    0.4654    0.8771 N   0  0  0  0  0  0  0  0  0  0  0  0
    5.1928    2.5049    1.2818 H   0  0  0  0  0  0  0  0  0  0  0  0
    4.1581    2.3246    2.7132 H   0  0  0  0  0  0  0  0  0  0  0  0
    3.9326    3.7049    1.6243 H   0  0  0  0  0  0  0  0  0  0  0  0
    1.8342    3.2400   -0.2155 H   0  0  0  0  0  0  0  0  0  0  0  0
    0.8590    1.0485   -1.0679 H   0  0  0  0  0  0  0  0  0  0  0  0
    4.0499   -1.9046    0.2508 H   0  0  0  0  0  0  0  0  0  0  0  0
    3.8751   -4.2301   -0.5319 H   0  0  0  0  0  0  0  0  0  0  0  0
    1.7500   -5.0532   -1.5176 H   0  0  0  0  0  0  0  0  0  0  0  0
   -0.2086   -3.5829   -1.6206 H   0  0  0  0  0  0  0  0  0  0  0  0
   -1.1616   -1.5597   -1.3594 H   0  0  0  0  0  0  0  0  0  0  0  0
   -2.7254   -0.1384   -2.1836 H   0  0  0  0  0  0  0  0  0  0  0  0
   -4.8909    1.0044   -1.6921 H   0  0  0  0  0  0  0  0  0  0  0  0
   -2.9104    0.9367    2.0221 H   0  0  0  0  0  0  0  0  0  0  0  0
  1  2  1  0
  2  3  2  0
  3  4  1  0
  4  5  1  0
  5  6  1  0
  6  7  2  0
  7  8  1  0
  8  9  2  0
  9 10  1  0
 10 11  2  0
 11 12  1  0
 12 13  1  0
 13 14  2  0
 13 15  1  0
 15 16  2  0
 16 17  1  0
 17 18  1  0
 18 19  1  0
 19 20  1  0
 19 21  1  0
 19 22  1  0
 18 23  2  0
  5 24  2  0
 24  2  1  0
 11  6  1  0
 23 15  1  0
  1 25  1  0
  1 26  1  0
  1 27  1  0
  3 28  1  0
  4 29  1  0
  7 30  1  0
  8 31  1  0
  9 32  1  0
 10 33  1  0
 12 34  1  0
 16 35  1  0
 17 36  1  0
 23 37  1  0
M  END
$$$$
OCNT-2311905
     RDKit          3D

 43 46  0  0  0  0  0  0  0  0999 V2000
   -3.4571    2.5697   -2.0531 C   0  0  0  0  0  0  0  0  0  0  0  0
   -2.6569    2.5696   -0.9123 C   0  0  0  0  0  0  0  0  0  0  0  0
   -2.5623    1.4211   -0.1256 C   0  0  0  0  0  0  0  0  0  0  0  0
   -3.2664    0.2603   -0.4750 C   0  0  0  0  0  0  0  0  0  0  0  0
   -3.1481   -0.9891    0.3697 C   0  0  0  0  0  0  0  0  0  0  0  0
   -2.2934   -2.1029   -0.2860 C   0  0  0  0  0  0  0  0  0  0  0  0
   -0.8037   -1.6892   -0.4603 C   0  0  0  0  0  0  0  0  0  0  0  0
   -0.0963   -1.6611    0.8330 N   0  0  0  0  0  0  0  0  0  0  0  0
    1.1321   -1.0519    0.9106 C   0  0  0  0  0  0  0  0  0  0  0  0
    2.1176   -1.4583    1.6874 N   0  0  0  0  0  0  0  0  0  0  0  0
    3.2444   -0.6678    1.6136 N   0  0  0  0  0  0  0  0  0  0  0  0
    3.1025    0.3438    0.7797 C   0  0  0  0  0  0  0  0  0  0  0  0
    4.1222    1.3694    0.4984 C   0  0  0  0  0  0  0  0  0  0  0  0
    4.1542    2.1271   -0.6731 C   0  0  0  0  0  0  0  0  0  0  0  0
    5.1658    3.0722   -0.8424 C   0  0  0  0  0  0  0  0  0  0  0  0
    6.1189    3.2377    0.1538 C   0  0  0  0  0  0  0  0  0  0  0  0
    6.0234    2.4463    1.2839 C   0  0  0  0  0  0  0  0  0  0  0  0
    5.0549    1.5249    1.4740 N   0  0  0  0  0  0  0  0  0  0  0  0
    1.5502    0.3839    0.0383 S   0  0  0  0  0  0  0  0  0  0  0  0
   -0.2338   -2.9087    1.6108 C   0  0  0  0  0  0  0  0  0  0  0  0
   -1.7123   -3.3339    1.7324 C   0  0  0  0  0  0  0  0  0  0  0  0
   -2.4348   -3.3931    0.4450 N   0  0  0  0  0  0  0  0  0  0  0  0
   -4.0713    0.2723   -1.6220 C   0  0  0  0  0  0  0  0  0  0  0  0
   -4.1647    1.4222   -2.4074 C   0  0  0  0  0  0  0  0  0  0  0  0
   -3.5341    3.4660   -2.6629 H   0  0  0  0  0  0  0  0  0  0  0  0
   -2.1090    3.4654   -0.6318 H   0  0  0  0  0  0  0  0  0  0  0  0
   -1.9333    1.4359    0.7626 H   0  0  0  0  0  0  0  0  0  0  0  0
   -4.1644   -1.3642    0.5532 H   0  0  0  0  0  0  0  0  0  0  0  0
   -2.7506   -0.7193    1.3559 H   0  0  0  0  0  0  0  0  0  0  0  0
   -2.6958   -2.2814   -1.2917 H   0  0  0  0  0  0  0  0  0  0  0  0
   -0.3077   -2.4189   -1.1150 H   0  0  0  0  0  0  0  0  0  0  0  0
   -0.7597   -0.7270   -0.9785 H   0  0  0  0  0  0  0  0  0  0  0  0
    3.4209    1.9930   -1.4610 H   0  0  0  0  0  0  0  0  0  0  0  0
    5.2095    3.6716   -1.7478 H   0  0  0  0  0  0  0  0  0  0  0  0
    6.9185    3.9629    0.0519 H   0  0  0  0  0  0  0  0  0  0  0  0
    6.7442    2.5314    2.0924 H   0  0  0  0  0  0  0  0  0  0  0  0
    0.3383   -3.7092    1.1238 H   0  0  0  0  0  0  0  0  0  0  0  0
    0.1609   -2.7813    2.6266 H   0  0  0  0  0  0  0  0  0  0  0  0
   -1.7591   -4.3248    2.1986 H   0  0  0  0  0  0  0  0  0  0  0  0
   -2.2378   -2.6556    2.4145 H   0  0  0  0  0  0  0  0  0  0  0  0
   -1.9957   -4.1207   -0.1209 H   0  0  0  0  0  0  0  0  0  0  0  0
   -4.6358   -0.6131   -1.9065 H   0  0  0  0  0  0  0  0  0  0  0  0
   -4.7943    1.4246   -3.2934 H   0  0  0  0  0  0  0  0  0  0  0  0
  1  2  2  0
  2  3  1  0
  3  4  2  0
  4  5  1  0
  5  6  1  0
  6  7  1  0
  7  8  1  0
  8  9  1  0
  9 10  2  0
 10 11  1  0
 11 12  2  0
 12 13  1  0
 13 14  2  0
 14 15  1  0
 15 16  2  0
 16 17  1  0
 17 18  2  0
 12 19  1  0
  8 20  1  0
 20 21  1  0
 21 22  1  0
  4 23  1  0
 23 24  2  0
 24  1  1  0
 22  6  1  0
 19  9  1  0
 18 13  1  0
  1 25  1  0
  2 26  1  0
  3 27  1  0
  5 28  1  0
  5 29  1  0
  6 30  1  0
  7 31  1  0
  7 32  1  0
 14 33  1  0
 15 34  1  0
 16 35  1  0
 17 36  1  0
 20 37  1  0
 20 38  1  0
 21 39  1  0
 21 40  1  0
 22 41  1  0
 23 42  1  0
 24 43  1  0
M  END
$$$$
OCNT-2311907
     RDKit          3D

 38 40  0  0  0  0  0  0  0  0999 V2000
    5.1991   -2.1908    1.0575 C   0  0  0  0  0  0  0  0  0  0  0  0
    4.1257   -1.2278    1.0006 N   0  0  0  0  0  0  0  0  0  0  0  0
    2.7905   -1.4134    1.3728 C   0  0  0  0  0  0  0  0  0  0  0  0
    2.0542   -0.3490    0.9761 C   0  0  0  0  0  0  0  0  0  0  0  0
    0.6185   -0.0499    1.1778 C   0  0  0  0  0  0  0  0  0  0  0  0
   -0.1706   -0.4408    0.0087 N   0  0  0  0  0  0  0  0  0  0  0  0
   -1.5743   -0.0485    0.1665 C   0  0  0  0  0  0  0  0  0  0  0  0
   -2.3831   -0.4466   -1.0751 C   0  0  0  0  0  0  0  0  0  0  0  0
   -3.8369   -0.0619   -0.9404 C   0  0  0  0  0  0  0  0  0  0  0  0
   -4.2706    1.2147   -1.3251 C   0  0  0  0  0  0  0  0  0  0  0  0
   -5.6105    1.5808   -1.1840 C   0  0  0  0  0  0  0  0  0  0  0  0
   -6.5300    0.6768   -0.6532 C   0  0  0  0  0  0  0  0  0  0  0  0
   -6.1032   -0.5912   -0.2646 C   0  0  0  0  0  0  0  0  0  0  0  0
   -7.3468   -1.8174    0.4603 Br  0  0  0  0  0  0  0  0  0  0  0  0
   -4.7657   -0.9641   -0.4029 C   0  0  0  0  0  0  0  0  0  0  0  0
    2.9369    0.5231    0.3424 N   0  0  0  0  0  0  0  0  0  0  0  0
    2.9104    1.7357   -0.2457 N   0  0  0  0  0  0  0  0  0  0  0  0
    4.1782    1.9033   -0.6577 C   0  0  0  0  0  0  0  0  0  0  0  0
    5.0301    0.8251   -0.3172 C   0  0  0  0  0  0  0  0  0  0  0  0
    6.4141    0.6748   -0.5864 C   0  0  0  0  0  0  0  0  0  0  0  0
    7.5466    0.5482   -0.8068 N   0  0  0  0  0  0  0  0  0  0  0  0
    4.2046   -0.0342    0.3441 C   0  0  0  0  0  0  0  0  0  0  0  0
    5.3450   -2.6627    0.0802 H   0  0  0  0  0  0  0  0  0  0  0  0
    6.1381   -1.7160    1.3610 H   0  0  0  0  0  0  0  0  0  0  0  0
    4.9792   -2.9788    1.7859 H   0  0  0  0  0  0  0  0  0  0  0  0
    2.4815   -2.3047    1.8997 H   0  0  0  0  0  0  0  0  0  0  0  0
    0.2547   -0.5881    2.0622 H   0  0  0  0  0  0  0  0  0  0  0  0
    0.4969    1.0204    1.3859 H   0  0  0  0  0  0  0  0  0  0  0  0
   -0.1102   -1.4506   -0.1151 H   0  0  0  0  0  0  0  0  0  0  0  0
   -2.0010   -0.5291    1.0559 H   0  0  0  0  0  0  0  0  0  0  0  0
   -1.6430    1.0369    0.3115 H   0  0  0  0  0  0  0  0  0  0  0  0
   -2.3094   -1.5285   -1.2469 H   0  0  0  0  0  0  0  0  0  0  0  0
   -1.9642    0.0299   -1.9712 H   0  0  0  0  0  0  0  0  0  0  0  0
   -3.5640    1.9323   -1.7386 H   0  0  0  0  0  0  0  0  0  0  0  0
   -5.9366    2.5723   -1.4880 H   0  0  0  0  0  0  0  0  0  0  0  0
   -7.5709    0.9696   -0.5468 H   0  0  0  0  0  0  0  0  0  0  0  0
   -4.4442   -1.9560   -0.0945 H   0  0  0  0  0  0  0  0  0  0  0  0
    4.4307    2.8129   -1.1891 H   0  0  0  0  0  0  0  0  0  0  0  0
  1  2  1  0
  2  3  1  0
  3  4  2  0
  4  5  1  0
  5  6  1  0
  6  7  1  0
  7  8  1  0
  8  9  1  0
  9 10  2  0
 10 11  1  0
 11 12  2  0
 12 13  1  0
 13 14  1  0
 13 15  2  0
  4 16  1  0
 16 17  1  0
 17 18  2  0
 18 19  1  0
 19 20  1  0
 20 21  3  0
 19 22  2  0
 22  2  1  0
 15  9  1  0
 22 16  1  0
  1 23  1  0
  1 24  1  0
  1 25  1  0
  3 26  1  0
  5 27  1  0
  5 28  1  0
  6 29  1  0
  7 30  1  0
  7 31  1  0
  8 32  1  0
  8 33  1  0
 10 34  1  0
 11 35  1  0
 12 36  1  0
 15 37  1  0
 18 38  1  0
M  END
$$$$
OCNT-2311908
     RDKit          3D

 35 37  0  0  0  0  0  0  0  0999 V2000
   -0.1027   -1.5711    0.7269 C   0  0  0  0  0  0  0  0  0  0  0  0
   -0.5226   -0.2802    0.1738 N   0  0  0  0  0  0  0  0  0  0  0  0
    0.3552    0.8092    0.1237 C   0  0  0  0  0  0  0  0  0  0  0  0
    0.0557    2.0000    0.1029 O   0  0  0  0  0  0  0  0  0  0  0  0
    1.8118    0.5206    0.1030 C   0  0  0  0  0  0  0  0  0  0  0  0
    2.3535   -0.3441   -0.8531 C   0  0  0  0  0  0  0  0  0  0  0  0
    3.7280   -0.5747   -0.8697 C   0  0  0  0  0  0  0  0  0  0  0  0
    4.5608    0.0609    0.0581 C   0  0  0  0  0  0  0  0  0  0  0  0
    4.0237    0.9359    1.0064 C   0  0  0  0  0  0  0  0  0  0  0  0
    4.7274    1.6276    1.9517 O   0  0  0  0  0  0  0  0  0  0  0  0
    6.0706    1.2299    2.1683 C   0  0  0  0  0  0  0  0  0  0  0  0
    6.8289    1.6164    1.1133 F   0  0  0  0  0  0  0  0  0  0  0  0
    6.5277    1.9141    3.2472 F   0  0  0  0  0  0  0  0  0  0  0  0
    2.6471    1.1757    1.0140 C   0  0  0  0  0  0  0  0  0  0  0  0
   -1.8640   -0.1574   -0.2139 C   0  0  0  0  0  0  0  0  0  0  0  0
   -2.7329   -1.1351   -0.0600 N   0  0  0  0  0  0  0  0  0  0  0  0
   -3.9708   -0.7653   -0.5563 C   0  0  0  0  0  0  0  0  0  0  0  0
   -5.1408   -1.5514   -0.5356 C   0  0  0  0  0  0  0  0  0  0  0  0
   -6.3270   -1.0468   -1.0792 C   0  0  0  0  0  0  0  0  0  0  0  0
   -6.3588    0.2254   -1.6418 C   0  0  0  0  0  0  0  0  0  0  0  0
   -5.2106    1.0229   -1.6763 C   0  0  0  0  0  0  0  0  0  0  0  0
   -4.0263    0.5053   -1.1263 C   0  0  0  0  0  0  0  0  0  0  0  0
   -2.4703    1.2227   -1.0219 S   0  0  0  0  0  0  0  0  0  0  0  0
   -0.8636   -1.9466    1.4194 H   0  0  0  0  0  0  0  0  0  0  0  0
    0.0266   -2.2814   -0.0953 H   0  0  0  0  0  0  0  0  0  0  0  0
    0.8289   -1.4907    1.2925 H   0  0  0  0  0  0  0  0  0  0  0  0
    1.7172   -0.8188   -1.5961 H   0  0  0  0  0  0  0  0  0  0  0  0
    4.1581   -1.2357   -1.6193 H   0  0  0  0  0  0  0  0  0  0  0  0
    5.6288   -0.1264   -0.0134 H   0  0  0  0  0  0  0  0  0  0  0  0
    6.1812    0.1566    2.3580 H   0  0  0  0  0  0  0  0  0  0  0  0
    2.2221    1.8777    1.7293 H   0  0  0  0  0  0  0  0  0  0  0  0
   -5.1120   -2.5430   -0.0954 H   0  0  0  0  0  0  0  0  0  0  0  0
   -7.2285   -1.6548   -1.0600 H   0  0  0  0  0  0  0  0  0  0  0  0
   -7.2877    0.6069   -2.0609 H   0  0  0  0  0  0  0  0  0  0  0  0
   -5.2348    2.0157   -2.1154 H   0  0  0  0  0  0  0  0  0  0  0  0
  1  2  1  0
  2  3  1  0
  3  4  2  0
  3  5  1  0
  5  6  2  0
  6  7  1  0
  7  8  2  0
  8  9  1  0
  9 10  1  0
 10 11  1  0
 11 12  1  0
 11 13  1  0
  9 14  2  0
  2 15  1  0
 15 16  2  0
 16 17  1  0
 17 18  2  0
 18 19  1  0
 19 20  2  0
 20 21  1  0
 21 22  2  0
 22 23  1  0
 14  5  1  0
 23 15  1  0
 22 17  1  0
  1 24  1  0
  1 25  1  0
  1 26  1  0
  6 27  1  0
  7 28  1  0
  8 29  1  0
 11 30  1  0
 14 31  1  0
 18 32  1  0
 19 33  1  0
 20 34  1  0
 21 35  1  0
M  END
$$$$
OCNT-2311909
     RDKit          3D

 45 47  0  0  0  0  0  0  0  0999 V2000
   -5.5272    1.7717    2.0499 C   0  0  0  0  0  0  0  0  0  0  0  0
   -4.5399    1.4155    0.9797 C   0  0  0  0  0  0  0  0  0  0  0  0
   -3.2050    1.2022    1.3060 C   0  0  0  0  0  0  0  0  0  0  0  0
   -2.3007    0.8663    0.2945 C   0  0  0  0  0  0  0  0  0  0  0  0
   -0.8470    0.6202    0.6135 C   0  0  0  0  0  0  0  0  0  0  0  0
   -0.6953   -0.6048    1.3946 N   0  0  0  0  0  0  0  0  0  0  0  0
    0.7015   -0.8959    1.7377 C   0  0  0  0  0  0  0  0  0  0  0  0
    0.7219   -2.0031    2.7980 C   0  0  0  0  0  0  0  0  0  0  0  0
    1.5433   -1.2775    0.5279 C   0  0  0  0  0  0  0  0  0  0  0  0
    1.2654   -2.4273   -0.2285 C   0  0  0  0  0  0  0  0  0  0  0  0
    2.0394   -2.7514   -1.3421 C   0  0  0  0  0  0  0  0  0  0  0  0
    3.1020   -1.9310   -1.7192 C   0  0  0  0  0  0  0  0  0  0  0  0
    3.3999   -0.7764   -0.9821 C   0  0  0  0  0  0  0  0  0  0  0  0
    4.4887    0.0478   -1.3869 N   0  0  0  0  0  0  0  0  0  0  0  0
    4.9435    1.2117   -0.7996 C   0  0  0  0  0  0  0  0  0  0  0  0
    6.0135    1.6523   -1.5419 C   0  0  0  0  0  0  0  0  0  0  0  0
    6.1459    0.7027   -2.5626 C   0  0  0  0  0  0  0  0  0  0  0  0
    5.2347   -0.2662   -2.4804 N   0  0  0  0  0  0  0  0  0  0  0  0
    2.6184   -0.4549    0.1388 C   0  0  0  0  0  0  0  0  0  0  0  0
   -2.7806    0.7489   -1.0123 C   0  0  0  0  0  0  0  0  0  0  0  0
   -4.1301    0.9798   -1.2616 C   0  0  0  0  0  0  0  0  0  0  0  0
   -4.6673    0.8624   -2.6564 C   0  0  0  0  0  0  0  0  0  0  0  0
   -5.0077    1.3120   -0.2864 N   0  0  0  0  0  0  0  0  0  0  0  0
   -6.5274    1.9107    1.6271 H   0  0  0  0  0  0  0  0  0  0  0  0
   -5.2326    2.7042    2.5413 H   0  0  0  0  0  0  0  0  0  0  0  0
   -5.5805    0.9727    2.7960 H   0  0  0  0  0  0  0  0  0  0  0  0
   -2.8695    1.2847    2.3356 H   0  0  0  0  0  0  0  0  0  0  0  0
   -0.2781    0.5684   -0.3222 H   0  0  0  0  0  0  0  0  0  0  0  0
   -0.4658    1.4837    1.1728 H   0  0  0  0  0  0  0  0  0  0  0  0
   -1.0934   -1.3837    0.8735 H   0  0  0  0  0  0  0  0  0  0  0  0
    1.1348   -0.0074    2.2158 H   0  0  0  0  0  0  0  0  0  0  0  0
    0.1894   -1.6841    3.7015 H   0  0  0  0  0  0  0  0  0  0  0  0
    1.7508   -2.2456    3.0877 H   0  0  0  0  0  0  0  0  0  0  0  0
    0.2503   -2.9276    2.4457 H   0  0  0  0  0  0  0  0  0  0  0  0
    0.4407   -3.0825    0.0434 H   0  0  0  0  0  0  0  0  0  0  0  0
    1.8159   -3.6454   -1.9192 H   0  0  0  0  0  0  0  0  0  0  0  0
    3.6915   -2.2058   -2.5925 H   0  0  0  0  0  0  0  0  0  0  0  0
    4.4850    1.6299    0.0823 H   0  0  0  0  0  0  0  0  0  0  0  0
    6.6118    2.5350   -1.3674 H   0  0  0  0  0  0  0  0  0  0  0  0
    6.8699    0.6734   -3.3671 H   0  0  0  0  0  0  0  0  0  0  0  0
    2.8224    0.4343    0.7280 H   0  0  0  0  0  0  0  0  0  0  0  0
   -2.1148    0.4808   -1.8269 H   0  0  0  0  0  0  0  0  0  0  0  0
   -4.5131   -0.1521   -3.0367 H   0  0  0  0  0  0  0  0  0  0  0  0
   -5.7409    1.0758   -2.6800 H   0  0  0  0  0  0  0  0  0  0  0  0
   -4.1637    1.5752   -3.3168 H   0  0  0  0  0  0  0  0  0  0  0  0
  1  2  1  0
  2  3  1  0
  3  4  2  0
  4  5  1  0
  5  6  1  0
  6  7  1  0
  7  8  1  0
  7  9  1  0
  9 10  2  0
 10 11  1  0
 11 12  2  0
 12 13  1  0
 13 14  1  0
 14 15  1  0
 15 16  2  0
 16 17  1  0
 17 18  2  0
 13 19  2  0
  4 20  1  0
 20 21  2  0
 21 22  1  0
 21 23  1  0
 23  2  2  0
 19  9  1  0
 18 14  1  0
  1 24  1  0
  1 25  1  0
  1 26  1  0
  3 27  1  0
  5 28  1  0
  5 29  1  0
  6 30  1  0
  7 31  1  0
  8 32  1  0
  8 33  1  0
  8 34  1  0
 10 35  1  0
 11 36  1  0
 12 37  1  0
 15 38  1  0
 16 39  1  0
 17 40  1  0
 19 41  1  0
 20 42  1  0
 22 43  1  0
 22 44  1  0
 22 45  1  0
M  END
$$$$
OCNT-2311912
     RDKit          3D

 43 44  0  0  0  0  0  0  0  0999 V2000
    6.5912   -0.4058    0.6641 C   0  0  0  0  0  0  0  0  0  0  0  0
    5.5410    0.5097    0.3833 O   0  0  0  0  0  0  0  0  0  0  0  0
    4.2598    0.0227    0.3909 C   0  0  0  0  0  0  0  0  0  0  0  0
    3.2275    0.9708    0.2836 C   0  0  0  0  0  0  0  0  0  0  0  0
    3.5334    2.3128    0.2110 O   0  0  0  0  0  0  0  0  0  0  0  0
    3.8782    2.6712   -1.1273 C   0  0  0  0  0  0  0  0  0  0  0  0
    1.8785    0.5748    0.3272 C   0  0  0  0  0  0  0  0  0  0  0  0
    0.6324    1.7816    0.2303 Cl  0  0  0  0  0  0  0  0  0  0  0  0
    1.5455   -0.7870    0.4370 C   0  0  0  0  0  0  0  0  0  0  0  0
    0.1170   -1.2839    0.4607 C   0  0  0  0  0  0  0  0  0  0  0  0
   -0.4772   -1.3903   -0.9458 C   0  0  0  0  0  0  0  0  0  0  0  0
   -1.8750   -1.8102   -0.8803 N   0  0  0  0  0  0  0  0  0  0  0  0
   -2.7993   -0.9401   -0.6621 C   0  0  0  0  0  0  0  0  0  0  0  0
   -4.0740   -1.4158   -0.6303 N   0  0  0  0  0  0  0  0  0  0  0  0
   -5.0101   -1.0347    0.4111 C   0  0  0  0  0  0  0  0  0  0  0  0
   -5.7147    0.2705    0.0663 C   0  0  0  0  0  0  0  0  0  0  0  0
   -4.7881    1.4832    0.1124 C   0  0  0  0  0  0  0  0  0  0  0  0
   -3.6278    1.3835   -0.8691 C   0  0  0  0  0  0  0  0  0  0  0  0
   -2.6573    0.3955   -0.4375 N   0  0  0  0  0  0  0  0  0  0  0  0
    2.5850   -1.7281    0.5056 C   0  0  0  0  0  0  0  0  0  0  0  0
    3.9254   -1.3287    0.4881 C   0  0  0  0  0  0  0  0  0  0  0  0
    6.6858   -1.1500   -0.1333 H   0  0  0  0  0  0  0  0  0  0  0  0
    6.4522   -0.8847    1.6391 H   0  0  0  0  0  0  0  0  0  0  0  0
    7.5268    0.1604    0.7021 H   0  0  0  0  0  0  0  0  0  0  0  0
    3.9527    3.7620   -1.1711 H   0  0  0  0  0  0  0  0  0  0  0  0
    4.8499    2.2568   -1.4137 H   0  0  0  0  0  0  0  0  0  0  0  0
    3.1079    2.3572   -1.8408 H   0  0  0  0  0  0  0  0  0  0  0  0
   -0.4888   -0.6380    1.1068 H   0  0  0  0  0  0  0  0  0  0  0  0
    0.0755   -2.2691    0.9446 H   0  0  0  0  0  0  0  0  0  0  0  0
    0.0736   -2.1512   -1.5129 H   0  0  0  0  0  0  0  0  0  0  0  0
   -0.3601   -0.4669   -1.5247 H   0  0  0  0  0  0  0  0  0  0  0  0
   -4.0281   -2.4244   -0.7477 H   0  0  0  0  0  0  0  0  0  0  0  0
   -5.7670   -1.8234    0.4930 H   0  0  0  0  0  0  0  0  0  0  0  0
   -4.5099   -0.9739    1.3850 H   0  0  0  0  0  0  0  0  0  0  0  0
   -6.5306    0.4310    0.7814 H   0  0  0  0  0  0  0  0  0  0  0  0
   -6.1736    0.1975   -0.9277 H   0  0  0  0  0  0  0  0  0  0  0  0
   -5.3778    2.3759   -0.1284 H   0  0  0  0  0  0  0  0  0  0  0  0
   -4.4084    1.6185    1.1328 H   0  0  0  0  0  0  0  0  0  0  0  0
   -3.1254    2.3571   -0.9079 H   0  0  0  0  0  0  0  0  0  0  0  0
   -3.9781    1.1698   -1.8858 H   0  0  0  0  0  0  0  0  0  0  0  0
   -1.7068    0.7365   -0.5153 H   0  0  0  0  0  0  0  0  0  0  0  0
    2.3553   -2.7904    0.5803 H   0  0  0  0  0  0  0  0  0  0  0  0
    4.6835   -2.1027    0.5524 H   0  0  0  0  0  0  0  0  0  0  0  0
  1  2  1  0
  2  3  1  0
  3  4  2  0
  4  5  1  0
  5  6  1  0
  4  7  1  0
  7  8  1  0
  7  9  2  0
  9 10  1  0
 10 11  1  0
 11 12  1  0
 12 13  2  3
 13 14  1  0
 14 15  1  0
 15 16  1  0
 16 17  1  0
 17 18  1  0
 18 19  1  0
  9 20  1  0
 20 21  2  0
 21  3  1  0
 19 13  1  0
  1 22  1  0
  1 23  1  0
  1 24  1  0
  6 25  1  0
  6 26  1  0
  6 27  1  0
 10 28  1  0
 10 29  1  0
 11 30  1  0
 11 31  1  0
 14 32  1  0
 15 33  1  0
 15 34  1  0
 16 35  1  0
 16 36  1  0
 17 37  1  0
 17 38  1  0
 18 39  1  0
 18 40  1  0
 19 41  1  0
 20 42  1  0
 21 43  1  0
M  END
$$$$
OCNT-2311913
     RDKit          3D

 40 42  0  0  0  0  0  0  0  0999 V2000
   -4.7731    3.3729   -0.5712 C   0  0  0  0  0  0  0  0  0  0  0  0
   -5.1371    1.9998   -0.6609 O   0  0  0  0  0  0  0  0  0  0  0  0
   -4.1529    1.0813   -0.4236 C   0  0  0  0  0  0  0  0  0  0  0  0
   -4.5768   -0.2482   -0.4579 C   0  0  0  0  0  0  0  0  0  0  0  0
   -3.6783   -1.2897   -0.2243 C   0  0  0  0  0  0  0  0  0  0  0  0
   -2.3406   -1.0047    0.0596 C   0  0  0  0  0  0  0  0  0  0  0  0
   -1.4721   -2.0419    0.2766 O   0  0  0  0  0  0  0  0  0  0  0  0
   -1.6694   -2.6280    1.5660 C   0  0  0  0  0  0  0  0  0  0  0  0
   -1.7193   -1.6888    2.5313 F   0  0  0  0  0  0  0  0  0  0  0  0
   -2.8001   -3.3635    1.5872 F   0  0  0  0  0  0  0  0  0  0  0  0
   -0.6272   -3.4483    1.8189 F   0  0  0  0  0  0  0  0  0  0  0  0
   -1.8873    0.3244    0.0511 C   0  0  0  0  0  0  0  0  0  0  0  0
   -0.4629    0.7213    0.2895 C   0  0  0  0  0  0  0  0  0  0  0  0
   -0.2484    1.8389    0.7444 O   0  0  0  0  0  0  0  0  0  0  0  0
    0.4867   -0.2186   -0.0654 N   0  0  0  0  0  0  0  0  0  0  0  0
    1.8944   -0.1323    0.0601 C   0  0  0  0  0  0  0  0  0  0  0  0
    2.5287    0.9907    0.6107 C   0  0  0  0  0  0  0  0  0  0  0  0
    3.9060    0.9944    0.7005 C   0  0  0  0  0  0  0  0  0  0  0  0
    4.6638   -0.0634    0.2701 C   0  0  0  0  0  0  0  0  0  0  0  0
    4.0869   -1.1872   -0.2748 C   0  0  0  0  0  0  0  0  0  0  0  0
    2.6831   -1.2342   -0.3867 C   0  0  0  0  0  0  0  0  0  0  0  0
    2.0668   -2.4744   -0.9805 C   0  0  0  0  0  0  0  0  0  0  0  0
    5.9957    0.1405    0.4486 O   0  0  0  0  0  0  0  0  0  0  0  0
    5.9894    1.4545    1.0446 C   0  0  0  0  0  0  0  0  0  0  0  0
    4.6662    2.0032    1.2069 O   0  0  0  0  0  0  0  0  0  0  0  0
   -2.8099    1.3634   -0.1728 C   0  0  0  0  0  0  0  0  0  0  0  0
   -4.0408    3.6364   -1.3415 H   0  0  0  0  0  0  0  0  0  0  0  0
   -5.6731    3.9690   -0.7498 H   0  0  0  0  0  0  0  0  0  0  0  0
   -4.4028    3.6196    0.4294 H   0  0  0  0  0  0  0  0  0  0  0  0
   -5.6207   -0.4732   -0.6677 H   0  0  0  0  0  0  0  0  0  0  0  0
   -4.0366   -2.3157   -0.2674 H   0  0  0  0  0  0  0  0  0  0  0  0
    0.1293   -1.0714   -0.4760 H   0  0  0  0  0  0  0  0  0  0  0  0
    1.9872    1.8561    0.9711 H   0  0  0  0  0  0  0  0  0  0  0  0
    4.7135   -2.0095   -0.6046 H   0  0  0  0  0  0  0  0  0  0  0  0
    1.4181   -2.9637   -0.2470 H   0  0  0  0  0  0  0  0  0  0  0  0
    1.4889   -2.2214   -1.8752 H   0  0  0  0  0  0  0  0  0  0  0  0
    2.8295   -3.2013   -1.2800 H   0  0  0  0  0  0  0  0  0  0  0  0
    6.4682    1.3952    2.0288 H   0  0  0  0  0  0  0  0  0  0  0  0
    6.5741    2.1301    0.4095 H   0  0  0  0  0  0  0  0  0  0  0  0
   -2.4471    2.3878   -0.1552 H   0  0  0  0  0  0  0  0  0  0  0  0
  1  2  1  0
  2  3  1  0
  3  4  1  0
  4  5  2  0
  5  6  1  0
  6  7  1  0
  7  8  1  0
  8  9  1  0
  8 10  1  0
  8 11  1  0
  6 12  2  0
 12 13  1  0
 13 14  2  0
 13 15  1  0
 15 16  1  0
 16 17  1  0
 17 18  2  0
 18 19  1  0
 19 20  2  0
 20 21  1  0
 21 22  1  0
 19 23  1  0
 23 24  1  0
 24 25  1  0
 12 26  1  0
 26  3  2  0
 21 16  2  0
 25 18  1  0
  1 27  1  0
  1 28  1  0
  1 29  1  0
  4 30  1  0
  5 31  1  0
 15 32  1  0
 17 33  1  0
 20 34  1  0
 22 35  1  0
 22 36  1  0
 22 37  1  0
 24 38  1  0
 24 39  1  0
 26 40  1  0
M  END
$$$$
OCNT-2311914
     RDKit          3D

 53 56  0  0  0  0  0  0  0  0999 V2000
   -5.5631    1.9458   -2.0724 C   0  0  0  0  0  0  0  0  0  0  0  0
   -5.0067    1.2604   -0.9119 N   0  0  0  0  0  0  0  0  0  0  0  0
   -5.8709    1.2245    0.2730 C   0  0  0  0  0  0  0  0  0  0  0  0
   -5.3535    0.2136    1.2816 C   0  0  0  0  0  0  0  0  0  0  0  0
   -3.9729    0.6427    1.7453 C   0  0  0  0  0  0  0  0  0  0  0  0
   -3.0815    0.9973    0.5797 C   0  0  0  0  0  0  0  0  0  0  0  0
   -1.6929    1.0492    0.8072 C   0  0  0  0  0  0  0  0  0  0  0  0
   -0.8058    1.3859   -0.2193 C   0  0  0  0  0  0  0  0  0  0  0  0
    0.6765    1.4427    0.0404 C   0  0  0  0  0  0  0  0  0  0  0  0
    1.2652    0.1005    0.4505 C   0  0  0  0  0  0  0  0  0  0  0  0
    1.5938   -0.1187    1.6138 O   0  0  0  0  0  0  0  0  0  0  0  0
    1.3936   -0.7808   -0.6040 N   0  0  0  0  0  0  0  0  0  0  0  0
    2.0066   -2.0599   -0.6565 C   0  0  0  0  0  0  0  0  0  0  0  0
    1.7632   -2.7731   -1.8468 C   0  0  0  0  0  0  0  0  0  0  0  0
    2.3045   -4.0429   -2.0640 C   0  0  0  0  0  0  0  0  0  0  0  0
    3.1090   -4.6256   -1.0959 C   0  0  0  0  0  0  0  0  0  0  0  0
    3.3732   -3.9349    0.0845 C   0  0  0  0  0  0  0  0  0  0  0  0
    2.8333   -2.6602    0.3161 C   0  0  0  0  0  0  0  0  0  0  0  0
    3.2354   -2.0241    1.5325 N   0  0  0  0  0  0  0  0  0  0  0  0
    4.7780   -1.3185    1.5756 S   0  0  0  0  0  0  0  0  0  0  0  0
    4.9407   -0.7538    2.9017 O   0  0  0  0  0  0  0  0  0  0  0  0
    5.7657   -2.2248    1.0278 O   0  0  0  0  0  0  0  0  0  0  0  0
    4.7652    0.1208    0.5135 C   0  0  0  0  0  0  0  0  0  0  0  0
    4.4655    1.4451    0.7791 C   0  0  0  0  0  0  0  0  0  0  0  0
    4.5690    2.2736   -0.3794 C   0  0  0  0  0  0  0  0  0  0  0  0
    4.9444    1.5524   -1.4904 C   0  0  0  0  0  0  0  0  0  0  0  0
    5.1725   -0.1067   -1.1331 S   0  0  0  0  0  0  0  0  0  0  0  0
   -1.3281    1.6823   -1.4800 C   0  0  0  0  0  0  0  0  0  0  0  0
   -2.7105    1.6400   -1.7043 C   0  0  0  0  0  0  0  0  0  0  0  0
   -3.6241    1.3177   -0.6851 C   0  0  0  0  0  0  0  0  0  0  0  0
   -5.2051    1.4997   -3.0073 H   0  0  0  0  0  0  0  0  0  0  0  0
   -6.6543    1.8565   -2.0895 H   0  0  0  0  0  0  0  0  0  0  0  0
   -5.3187    3.0124   -2.0552 H   0  0  0  0  0  0  0  0  0  0  0  0
   -6.8856    0.9302   -0.0205 H   0  0  0  0  0  0  0  0  0  0  0  0
   -5.9377    2.2256    0.7196 H   0  0  0  0  0  0  0  0  0  0  0  0
   -6.0315    0.1440    2.1395 H   0  0  0  0  0  0  0  0  0  0  0  0
   -5.3045   -0.7819    0.8201 H   0  0  0  0  0  0  0  0  0  0  0  0
   -4.0537    1.5242    2.3957 H   0  0  0  0  0  0  0  0  0  0  0  0
   -3.5266   -0.1675    2.3353 H   0  0  0  0  0  0  0  0  0  0  0  0
   -1.3098    0.8228    1.8012 H   0  0  0  0  0  0  0  0  0  0  0  0
    1.2174    1.7991   -0.8456 H   0  0  0  0  0  0  0  0  0  0  0  0
    0.8787    2.1722    0.8331 H   0  0  0  0  0  0  0  0  0  0  0  0
    0.8879   -0.5149   -1.4407 H   0  0  0  0  0  0  0  0  0  0  0  0
    1.1370   -2.3517   -2.6302 H   0  0  0  0  0  0  0  0  0  0  0  0
    2.0980   -4.5736   -2.9903 H   0  0  0  0  0  0  0  0  0  0  0  0
    3.5403   -5.6108   -1.2564 H   0  0  0  0  0  0  0  0  0  0  0  0
    4.0183   -4.3938    0.8319 H   0  0  0  0  0  0  0  0  0  0  0  0
    2.5470   -1.3422    1.8828 H   0  0  0  0  0  0  0  0  0  0  0  0
    4.1893    1.7900    1.7694 H   0  0  0  0  0  0  0  0  0  0  0  0
    4.3852    3.3405   -0.3921 H   0  0  0  0  0  0  0  0  0  0  0  0
    5.1127    1.9196   -2.4943 H   0  0  0  0  0  0  0  0  0  0  0  0
   -0.6741    1.9590   -2.3060 H   0  0  0  0  0  0  0  0  0  0  0  0
   -3.0553    1.8707   -2.7094 H   0  0  0  0  0  0  0  0  0  0  0  0
  1  2  1  0
  2  3  1  0
  3  4  1  0
  4  5  1  0
  5  6  1  0
  6  7  1  0
  7  8  2  0
  8  9  1  0
  9 10  1  0
 10 11  2  0
 10 12  1  0
 12 13  1  0
 13 14  2  0
 14 15  1  0
 15 16  2  0
 16 17  1  0
 17 18  2  0
 18 19  1  0
 19 20  1  0
 20 21  2  0
 20 22  2  0
 20 23  1  0
 23 24  2  0
 24 25  1  0
 25 26  2  0
 26 27  1  0
  8 28  1  0
 28 29  2  0
 29 30  1  0
 30  2  1  0
 30  6  2  0
 18 13  1  0
 27 23  1  0
  1 31  1  0
  1 32  1  0
  1 33  1  0
  3 34  1  0
  3 35  1  0
  4 36  1  0
  4 37  1  0
  5 38  1  0
  5 39  1  0
  7 40  1  0
  9 41  1  0
  9 42  1  0
 12 43  1  0
 14 44  1  0
 15 45  1  0
 16 46  1  0
 17 47  1  0
 19 48  1  0
 24 49  1  0
 25 50  1  0
 26 51  1  0
 28 52  1  0
 29 53  1  0
M  END
$$$$
OCNT-2311918
     RDKit          3D

 49 51  0  0  0  0  0  0  0  0999 V2000
    6.8199    1.0209   -0.6860 C   0  0  0  0  0  0  0  0  0  0  0  0
    5.7226    0.2362    0.0287 C   0  0  0  0  0  0  0  0  0  0  0  0
    5.2263   -0.9244   -0.8404 C   0  0  0  0  0  0  0  0  0  0  0  0
    4.0996   -1.6869   -0.1499 C   0  0  0  0  0  0  0  0  0  0  0  0
    3.0136   -0.8044    0.2727 N   0  0  0  0  0  0  0  0  0  0  0  0
    1.7126   -1.2533    0.1004 C   0  0  0  0  0  0  0  0  0  0  0  0
    1.4241   -2.2292   -0.5876 O   0  0  0  0  0  0  0  0  0  0  0  0
    0.7523   -0.5161    0.7491 N   0  0  0  0  0  0  0  0  0  0  0  0
   -0.6512   -0.8834    0.6491 C   0  0  0  0  0  0  0  0  0  0  0  0
   -1.2622   -0.5180   -0.7106 C   0  0  0  0  0  0  0  0  0  0  0  0
   -1.3625    0.9879   -0.9434 C   0  0  0  0  0  0  0  0  0  0  0  0
   -2.6229    1.3965   -0.1787 C   0  0  0  0  0  0  0  0  0  0  0  0
   -3.4511    0.1835   -0.1471 N   0  0  0  0  0  0  0  0  0  0  0  0
   -4.8385    0.2343   -0.0634 C   0  0  0  0  0  0  0  0  0  0  0  0
   -5.6180   -0.7452   -0.7196 C   0  0  0  0  0  0  0  0  0  0  0  0
   -7.0192   -0.7507   -0.6931 C   0  0  0  0  0  0  0  0  0  0  0  0
   -7.7042    0.2251    0.0116 C   0  0  0  0  0  0  0  0  0  0  0  0
   -6.9826    1.1917    0.7002 C   0  0  0  0  0  0  0  0  0  0  0  0
   -5.5751    1.1953    0.6757 C   0  0  0  0  0  0  0  0  0  0  0  0
   -4.8441    2.4057    1.6841 Cl  0  0  0  0  0  0  0  0  0  0  0  0
   -2.7338   -0.9312   -0.7796 C   0  0  0  0  0  0  0  0  0  0  0  0
    3.4103    0.3692    1.0530 C   0  0  0  0  0  0  0  0  0  0  0  0
    4.5438    1.1472    0.3868 C   0  0  0  0  0  0  0  0  0  0  0  0
    7.6698    0.3719   -0.9218 H   0  0  0  0  0  0  0  0  0  0  0  0
    7.1863    1.8374   -0.0549 H   0  0  0  0  0  0  0  0  0  0  0  0
    6.4552    1.4549   -1.6231 H   0  0  0  0  0  0  0  0  0  0  0  0
    6.1450   -0.1733    0.9558 H   0  0  0  0  0  0  0  0  0  0  0  0
    6.0511   -1.6123   -1.0602 H   0  0  0  0  0  0  0  0  0  0  0  0
    4.8635   -0.5384   -1.8019 H   0  0  0  0  0  0  0  0  0  0  0  0
    4.4771   -2.1832    0.7526 H   0  0  0  0  0  0  0  0  0  0  0  0
    3.7351   -2.4736   -0.8183 H   0  0  0  0  0  0  0  0  0  0  0  0
    1.0391   -0.1967    1.6606 H   0  0  0  0  0  0  0  0  0  0  0  0
   -0.7347   -1.9624    0.8259 H   0  0  0  0  0  0  0  0  0  0  0  0
   -1.1678   -0.3770    1.4716 H   0  0  0  0  0  0  0  0  0  0  0  0
   -0.6926   -0.9955   -1.5151 H   0  0  0  0  0  0  0  0  0  0  0  0
   -0.4812    1.5501   -0.6215 H   0  0  0  0  0  0  0  0  0  0  0  0
   -1.5075    1.1832   -2.0136 H   0  0  0  0  0  0  0  0  0  0  0  0
   -3.1112    2.2340   -0.6889 H   0  0  0  0  0  0  0  0  0  0  0  0
   -2.3427    1.6906    0.8377 H   0  0  0  0  0  0  0  0  0  0  0  0
   -5.1448   -1.5374   -1.2934 H   0  0  0  0  0  0  0  0  0  0  0  0
   -7.5659   -1.5236   -1.2277 H   0  0  0  0  0  0  0  0  0  0  0  0
   -8.7901    0.2264    0.0383 H   0  0  0  0  0  0  0  0  0  0  0  0
   -7.5201    1.9415    1.2761 H   0  0  0  0  0  0  0  0  0  0  0  0
   -3.0269   -1.0243   -1.8330 H   0  0  0  0  0  0  0  0  0  0  0  0
   -2.9206   -1.8818   -0.2685 H   0  0  0  0  0  0  0  0  0  0  0  0
    3.7207    0.0104    2.0414 H   0  0  0  0  0  0  0  0  0  0  0  0
    2.5683    1.0518    1.1976 H   0  0  0  0  0  0  0  0  0  0  0  0
    4.8752    1.9509    1.0547 H   0  0  0  0  0  0  0  0  0  0  0  0
    4.1602    1.6256   -0.5241 H   0  0  0  0  0  0  0  0  0  0  0  0
  1  2  1  0
  2  3  1  0
  3  4  1  0
  4  5  1  0
  5  6  1  0
  6  7  2  0
  6  8  1  0
  8  9  1  0
  9 10  1  0
 10 11  1  0
 11 12  1  0
 12 13  1  0
 13 14  1  0
 14 15  2  0
 15 16  1  0
 16 17  2  0
 17 18  1  0
 18 19  2  0
 19 20  1  0
 13 21  1  0
  5 22  1  0
 22 23  1  0
 23  2  1  0
 21 10  1  0
 19 14  1  0
  1 24  1  0
  1 25  1  0
  1 26  1  0
  2 27  1  0
  3 28  1  0
  3 29  1  0
  4 30  1  0
  4 31  1  0
  8 32  1  0
  9 33  1  0
  9 34  1  0
 10 35  1  0
 11 36  1  0
 11 37  1  0
 12 38  1  0
 12 39  1  0
 15 40  1  0
 16 41  1  0
 17 42  1  0
 18 43  1  0
 21 44  1  0
 21 45  1  0
 22 46  1  0
 22 47  1  0
 23 48  1  0
 23 49  1  0
M  END
$$$$
OCNT-2311929
     RDKit          3D

 47 48  0  0  0  0  0  0  0  0999 V2000
   -4.0188    0.0074    1.8981 C   0  0  0  0  0  0  0  0  0  0  0  0
   -3.9489   -0.3725    0.3993 C   0  0  0  0  0  0  0  0  0  0  0  0
   -5.3154   -0.9953    0.0312 C   0  0  0  0  0  0  0  0  0  0  0  0
   -2.8494   -1.4613    0.2303 C   0  0  0  0  0  0  0  0  0  0  0  0
   -1.5034   -0.9692    0.4797 N   0  0  0  0  0  0  0  0  0  0  0  0
   -0.4709   -1.8475    0.7401 C   0  0  0  0  0  0  0  0  0  0  0  0
   -0.6346   -3.0474    0.9283 O   0  0  0  0  0  0  0  0  0  0  0  0
    0.8800   -1.1619    0.7943 C   0  0  0  0  0  0  0  0  0  0  0  0
    2.0213   -2.1596    0.9913 C   0  0  0  0  0  0  0  0  0  0  0  0
    3.3762   -1.4663    1.1047 C   0  0  0  0  0  0  0  0  0  0  0  0
    3.6121   -0.7298   -0.0937 O   0  0  0  0  0  0  0  0  0  0  0  0
    4.7157    0.0825   -0.1472 C   0  0  0  0  0  0  0  0  0  0  0  0
    5.7534    0.0536    0.7921 C   0  0  0  0  0  0  0  0  0  0  0  0
    6.8509    0.9070    0.6615 C   0  0  0  0  0  0  0  0  0  0  0  0
    6.9233    1.7938   -0.4103 C   0  0  0  0  0  0  0  0  0  0  0  0
    5.8984    1.8304   -1.3591 C   0  0  0  0  0  0  0  0  0  0  0  0
    6.0640    2.9584   -2.6605 Cl  0  0  0  0  0  0  0  0  0  0  0  0
    4.7929    0.9762   -1.2343 C   0  0  0  0  0  0  0  0  0  0  0  0
    3.5051    1.0142   -2.4019 Cl  0  0  0  0  0  0  0  0  0  0  0  0
   -3.6795    0.8209   -0.5283 C   0  0  0  0  0  0  0  0  0  0  0  0
   -3.5110    2.1258   -0.0641 C   0  0  0  0  0  0  0  0  0  0  0  0
   -3.2422    3.1973   -0.8480 N   0  0  0  0  0  0  0  0  0  0  0  0
   -3.1431    2.9762   -2.1731 C   0  0  0  0  0  0  0  0  0  0  0  0
   -3.2975    1.7311   -2.7503 C   0  0  0  0  0  0  0  0  0  0  0  0
   -3.5677    0.6474   -1.9179 C   0  0  0  0  0  0  0  0  0  0  0  0
   -4.8309    0.7173    2.0951 H   0  0  0  0  0  0  0  0  0  0  0  0
   -4.2059   -0.8762    2.5199 H   0  0  0  0  0  0  0  0  0  0  0  0
   -3.0845    0.4589    2.2507 H   0  0  0  0  0  0  0  0  0  0  0  0
   -5.3290   -1.3855   -0.9926 H   0  0  0  0  0  0  0  0  0  0  0  0
   -6.1216   -0.2565    0.1119 H   0  0  0  0  0  0  0  0  0  0  0  0
   -5.5611   -1.8309    0.6971 H   0  0  0  0  0  0  0  0  0  0  0  0
   -3.0445   -2.3044    0.9053 H   0  0  0  0  0  0  0  0  0  0  0  0
   -2.8465   -1.8741   -0.7858 H   0  0  0  0  0  0  0  0  0  0  0  0
   -1.2501   -0.0778    0.0669 H   0  0  0  0  0  0  0  0  0  0  0  0
    1.0191   -0.6068   -0.1406 H   0  0  0  0  0  0  0  0  0  0  0  0
    0.8633   -0.4434    1.6222 H   0  0  0  0  0  0  0  0  0  0  0  0
    1.8479   -2.7605    1.8918 H   0  0  0  0  0  0  0  0  0  0  0  0
    2.0371   -2.8499    0.1385 H   0  0  0  0  0  0  0  0  0  0  0  0
    4.1523   -2.2300    1.2306 H   0  0  0  0  0  0  0  0  0  0  0  0
    3.3711   -0.7958    1.9727 H   0  0  0  0  0  0  0  0  0  0  0  0
    5.7426   -0.6305    1.6353 H   0  0  0  0  0  0  0  0  0  0  0  0
    7.6531    0.8769    1.3959 H   0  0  0  0  0  0  0  0  0  0  0  0
    7.7830    2.4536   -0.5031 H   0  0  0  0  0  0  0  0  0  0  0  0
   -3.5801    2.3808    0.9892 H   0  0  0  0  0  0  0  0  0  0  0  0
   -2.9301    3.8534   -2.7769 H   0  0  0  0  0  0  0  0  0  0  0  0
   -3.2090    1.6041   -3.8235 H   0  0  0  0  0  0  0  0  0  0  0  0
   -3.6874   -0.3339   -2.3714 H   0  0  0  0  0  0  0  0  0  0  0  0
  1  2  1  0
  2  3  1  0
  2  4  1  0
  4  5  1  0
  5  6  1  0
  6  7  2  0
  6  8  1  0
  8  9  1  0
  9 10  1  0
 10 11  1  0
 11 12  1  0
 12 13  2  0
 13 14  1  0
 14 15  2  0
 15 16  1  0
 16 17  1  0
 16 18  2  0
 18 19  1  0
  2 20  1  0
 20 21  2  0
 21 22  1  0
 22 23  2  0
 23 24  1  0
 24 25  2  0
 18 12  1  0
 25 20  1  0
  1 26  1  0
  1 27  1  0
  1 28  1  0
  3 29  1  0
  3 30  1  0
  3 31  1  0
  4 32  1  0
  4 33  1  0
  5 34  1  0
  8 35  1  0
  8 36  1  0
  9 37  1  0
  9 38  1  0
 10 39  1  0
 10 40  1  0
 13 41  1  0
 14 42  1  0
 15 43  1  0
 21 44  1  0
 23 45  1  0
 24 46  1  0
 25 47  1  0
M  END
$$$$
OCNT-2311931
     RDKit          3D

 52 53  0  0  0  0  0  0  0  0999 V2000
    6.6827    2.1339   -0.0529 C   0  0  0  0  0  0  0  0  0  0  0  0
    5.5777    1.6454    0.8679 C   0  0  0  0  0  0  0  0  0  0  0  0
    4.5189    1.0423    0.1249 O   0  0  0  0  0  0  0  0  0  0  0  0
    4.6166   -0.2689   -0.2579 C   0  0  0  0  0  0  0  0  0  0  0  0
    5.6634   -1.1301    0.0817 C   0  0  0  0  0  0  0  0  0  0  0  0
    5.6443   -2.4589   -0.3468 C   0  0  0  0  0  0  0  0  0  0  0  0
    6.9403   -3.5095    0.0808 Cl  0  0  0  0  0  0  0  0  0  0  0  0
    4.5891   -2.9464   -1.1099 C   0  0  0  0  0  0  0  0  0  0  0  0
    3.5425   -2.0943   -1.4557 C   0  0  0  0  0  0  0  0  0  0  0  0
    3.5504   -0.7498   -1.0454 C   0  0  0  0  0  0  0  0  0  0  0  0
    2.3948    0.1411   -1.4336 C   0  0  0  0  0  0  0  0  0  0  0  0
    1.4602    0.2779   -0.3401 N   0  0  0  0  0  0  0  0  0  0  0  0
    0.2496    0.8772   -0.5708 C   0  0  0  0  0  0  0  0  0  0  0  0
   -0.1501    1.2283   -1.6712 O   0  0  0  0  0  0  0  0  0  0  0  0
   -0.4551    1.0241    0.5967 N   0  0  0  0  0  0  0  0  0  0  0  0
   -1.8131    1.5366    0.5921 C   0  0  0  0  0  0  0  0  0  0  0  0
   -2.8650    0.4804    0.1780 C   0  0  0  0  0  0  0  0  0  0  0  0
   -2.9920   -0.5916    1.2737 C   0  0  0  0  0  0  0  0  0  0  0  0
   -3.5257   -1.9355    0.7927 C   0  0  0  0  0  0  0  0  0  0  0  0
   -4.6790   -1.9040   -0.2006 C   0  0  0  0  0  0  0  0  0  0  0  0
   -5.6843   -0.7733    0.0015 C   0  0  0  0  0  0  0  0  0  0  0  0
   -5.2788    0.4450   -0.7059 N   0  0  0  0  0  0  0  0  0  0  0  0
   -6.4422    1.3129   -0.9214 C   0  0  0  0  0  0  0  0  0  0  0  0
   -4.2080    1.2124   -0.0540 C   0  0  0  0  0  0  0  0  0  0  0  0
    7.4486    2.6708    0.5142 H   0  0  0  0  0  0  0  0  0  0  0  0
    6.2756    2.8045   -0.8170 H   0  0  0  0  0  0  0  0  0  0  0  0
    7.1607    1.3041   -0.5819 H   0  0  0  0  0  0  0  0  0  0  0  0
    5.9501    0.9962    1.6674 H   0  0  0  0  0  0  0  0  0  0  0  0
    5.1413    2.5157    1.3714 H   0  0  0  0  0  0  0  0  0  0  0  0
    6.5066   -0.7992    0.6766 H   0  0  0  0  0  0  0  0  0  0  0  0
    4.5737   -3.9825   -1.4369 H   0  0  0  0  0  0  0  0  0  0  0  0
    2.7149   -2.4809   -2.0480 H   0  0  0  0  0  0  0  0  0  0  0  0
    2.7479    1.1381   -1.7227 H   0  0  0  0  0  0  0  0  0  0  0  0
    1.8685   -0.2648   -2.3062 H   0  0  0  0  0  0  0  0  0  0  0  0
    1.8817    0.5341    0.5402 H   0  0  0  0  0  0  0  0  0  0  0  0
   -0.1931    0.3894    1.3360 H   0  0  0  0  0  0  0  0  0  0  0  0
   -1.8393    2.3910   -0.0944 H   0  0  0  0  0  0  0  0  0  0  0  0
   -2.0182    1.9127    1.6008 H   0  0  0  0  0  0  0  0  0  0  0  0
   -2.5381    0.0148   -0.7607 H   0  0  0  0  0  0  0  0  0  0  0  0
   -3.6303   -0.2162    2.0842 H   0  0  0  0  0  0  0  0  0  0  0  0
   -2.0200   -0.7885    1.7409 H   0  0  0  0  0  0  0  0  0  0  0  0
   -3.8348   -2.5092    1.6760 H   0  0  0  0  0  0  0  0  0  0  0  0
   -2.7041   -2.5076    0.3429 H   0  0  0  0  0  0  0  0  0  0  0  0
   -4.2805   -1.8683   -1.2235 H   0  0  0  0  0  0  0  0  0  0  0  0
   -5.2067   -2.8643   -0.1320 H   0  0  0  0  0  0  0  0  0  0  0  0
   -6.6278   -1.1315   -0.4319 H   0  0  0  0  0  0  0  0  0  0  0  0
   -5.8855   -0.5882    1.0638 H   0  0  0  0  0  0  0  0  0  0  0  0
   -6.8868    1.6448    0.0239 H   0  0  0  0  0  0  0  0  0  0  0  0
   -6.1652    2.1988   -1.5041 H   0  0  0  0  0  0  0  0  0  0  0  0
   -7.2121    0.7927   -1.5026 H   0  0  0  0  0  0  0  0  0  0  0  0
   -3.9972    2.0779   -0.6966 H   0  0  0  0  0  0  0  0  0  0  0  0
   -4.5666    1.6203    0.9015 H   0  0  0  0  0  0  0  0  0  0  0  0
  1  2  1  0
  2  3  1  0
  3  4  1  0
  4  5  1  0
  5  6  2  0
  6  7  1  0
  6  8  1  0
  8  9  2  0
  9 10  1  0
 10 11  1  0
 11 12  1  0
 12 13  1  0
 13 14  2  0
 13 15  1  0
 15 16  1  0
 16 17  1  0
 17 18  1  0
 18 19  1  0
 19 20  1  0
 20 21  1  0
 21 22  1  0
 22 23  1  0
 22 24  1  0
 10  4  2  0
 24 17  1  0
  1 25  1  0
  1 26  1  0
  1 27  1  0
  2 28  1  0
  2 29  1  0
  5 30  1  0
  8 31  1  0
  9 32  1  0
 11 33  1  0
 11 34  1  0
 12 35  1  0
 15 36  1  0
 16 37  1  0
 16 38  1  0
 17 39  1  0
 18 40  1  0
 18 41  1  0
 19 42  1  0
 19 43  1  0
 20 44  1  0
 20 45  1  0
 21 46  1  0
 21 47  1  0
 23 48  1  0
 23 49  1  0
 23 50  1  0
 24 51  1  0
 24 52  1  0
M  END
$$$$
OCNT-2311937
     RDKit          3D

 47 49  0  0  0  0  0  0  0  0999 V2000
    2.7835    1.7621    0.6988 C   0  0  0  0  0  0  0  0  0  0  0  0
    2.7927    0.4437   -0.0714 C   0  0  1  0  0  0  0  0  0  0  0  0
    1.4497    0.1932   -0.7854 C   0  0  0  0  0  0  0  0  0  0  0  0
    0.3806   -0.2145    0.1113 N   0  0  0  0  0  0  0  0  0  0  0  0
   -0.5391    0.6810    0.6104 C   0  0  0  0  0  0  0  0  0  0  0  0
   -0.4841    1.8880    0.4040 O   0  0  0  0  0  0  0  0  0  0  0  0
   -1.5845    0.0345    1.4993 C   0  0  0  0  0  0  0  0  0  0  0  0
   -2.8370    0.8970    1.6589 C   0  0  0  0  0  0  0  0  0  0  0  0
   -3.7532    0.8188    0.4578 C   0  0  0  0  0  0  0  0  0  0  0  0
   -3.6706    1.8198   -0.5126 C   0  0  0  0  0  0  0  0  0  0  0  0
   -4.4194    1.8631   -1.6332 N   0  0  0  0  0  0  0  0  0  0  0  0
   -5.2975    0.8537   -1.8071 C   0  0  0  0  0  0  0  0  0  0  0  0
   -5.4730   -0.2092   -0.9211 C   0  0  0  0  0  0  0  0  0  0  0  0
   -6.4074   -1.2295   -1.1759 C   0  0  0  0  0  0  0  0  0  0  0  0
   -6.5693   -2.2846   -0.2811 C   0  0  0  0  0  0  0  0  0  0  0  0
   -5.8007   -2.3298    0.8750 C   0  0  0  0  0  0  0  0  0  0  0  0
   -4.8697   -1.3202    1.1370 C   0  0  0  0  0  0  0  0  0  0  0  0
   -4.6806   -0.2353    0.2486 C   0  0  0  0  0  0  0  0  0  0  0  0
    3.7961    0.5015   -1.0974 O   0  0  0  0  0  0  0  0  0  0  0  0
    5.0554    0.0486   -0.8256 C   0  0  0  0  0  0  0  0  0  0  0  0
    5.8760   -0.0848   -1.9507 C   0  0  0  0  0  0  0  0  0  0  0  0
    7.1928   -0.5339   -1.8258 C   0  0  0  0  0  0  0  0  0  0  0  0
    7.6947   -0.8456   -0.5662 C   0  0  0  0  0  0  0  0  0  0  0  0
    9.3146   -1.3995   -0.4014 Cl  0  0  0  0  0  0  0  0  0  0  0  0
    6.8911   -0.7067    0.5634 C   0  0  0  0  0  0  0  0  0  0  0  0
    5.5718   -0.2568    0.4341 C   0  0  0  0  0  0  0  0  0  0  0  0
    3.7685    1.9804    1.1231 H   0  0  0  0  0  0  0  0  0  0  0  0
    2.0603    1.7421    1.5187 H   0  0  0  0  0  0  0  0  0  0  0  0
    2.5409    2.5998    0.0355 H   0  0  0  0  0  0  0  0  0  0  0  0
    2.9665   -0.3995    0.6079 H   0  0  0  0  0  0  0  0  0  0  0  0
    1.5686   -0.6192   -1.5123 H   0  0  0  0  0  0  0  0  0  0  0  0
    1.1443    1.0774   -1.3575 H   0  0  0  0  0  0  0  0  0  0  0  0
    0.2555   -1.2037    0.2845 H   0  0  0  0  0  0  0  0  0  0  0  0
   -1.1160   -0.0973    2.4823 H   0  0  0  0  0  0  0  0  0  0  0  0
   -1.8351   -0.9600    1.1135 H   0  0  0  0  0  0  0  0  0  0  0  0
   -2.5695    1.9436    1.8535 H   0  0  0  0  0  0  0  0  0  0  0  0
   -3.3892    0.5828    2.5525 H   0  0  0  0  0  0  0  0  0  0  0  0
   -2.9670    2.6446   -0.4114 H   0  0  0  0  0  0  0  0  0  0  0  0
   -5.8813    0.9257   -2.7213 H   0  0  0  0  0  0  0  0  0  0  0  0
   -7.0166   -1.2053   -2.0772 H   0  0  0  0  0  0  0  0  0  0  0  0
   -7.2951   -3.0672   -0.4863 H   0  0  0  0  0  0  0  0  0  0  0  0
   -5.9249   -3.1493    1.5786 H   0  0  0  0  0  0  0  0  0  0  0  0
   -4.2930   -1.3955    2.0550 H   0  0  0  0  0  0  0  0  0  0  0  0
    5.4846    0.1630   -2.9349 H   0  0  0  0  0  0  0  0  0  0  0  0
    7.8150   -0.6340   -2.7106 H   0  0  0  0  0  0  0  0  0  0  0  0
    7.2853   -0.9404    1.5489 H   0  0  0  0  0  0  0  0  0  0  0  0
    4.9854   -0.1426    1.3393 H   0  0  0  0  0  0  0  0  0  0  0  0
  1  2  1  0
  2  3  1  0
  3  4  1  0
  4  5  1  0
  5  6  2  0
  5  7  1  0
  7  8  1  0
  8  9  1  0
  9 10  1  0
 10 11  2  0
 11 12  1  0
 12 13  2  0
 13 14  1  0
 14 15  2  0
 15 16  1  0
 16 17  2  0
 17 18  1  0
  2 19  1  0
 19 20  1  0
 20 21  1  0
 21 22  2  0
 22 23  1  0
 23 24  1  0
 23 25  2  0
 25 26  1  0
 18  9  2  0
 26 20  2  0
 18 13  1  0
  1 27  1  0
  1 28  1  0
  1 29  1  0
  2 30  1  1
  3 31  1  0
  3 32  1  0
  4 33  1  0
  7 34  1  0
  7 35  1  0
  8 36  1  0
  8 37  1  0
 10 38  1  0
 12 39  1  0
 14 40  1  0
 15 41  1  0
 16 42  1  0
 17 43  1  0
 21 44  1  0
 22 45  1  0
 25 46  1  0
 26 47  1  0
M  END
$$$$
OCNT-2311956
     RDKit          3D

 50 53  0  0  0  0  0  0  0  0999 V2000
    5.7905   -0.4052    2.9990 C   0  0  0  0  0  0  0  0  0  0  0  0
    5.3585    0.5895    1.9304 C   0  0  0  0  0  0  0  0  0  0  0  0
    5.8584    0.2249    0.5306 C   0  0  0  0  0  0  0  0  0  0  0  0
    5.2291   -1.0099   -0.0271 C   0  0  0  0  0  0  0  0  0  0  0  0
    5.9083   -2.1647   -0.0429 N   0  0  0  0  0  0  0  0  0  0  0  0
    5.0563   -3.0325   -0.6117 N   0  0  0  0  0  0  0  0  0  0  0  0
    3.8479   -2.4901   -0.9585 C   0  0  0  0  0  0  0  0  0  0  0  0
    2.7185   -3.0488   -1.5646 C   0  0  0  0  0  0  0  0  0  0  0  0
    1.6290   -2.1979   -1.7902 C   0  0  0  0  0  0  0  0  0  0  0  0
    1.6741   -0.8483   -1.4141 C   0  0  0  0  0  0  0  0  0  0  0  0
    0.5237    0.0676   -1.6457 C   0  0  0  0  0  0  0  0  0  0  0  0
    0.7151    1.2628   -1.8316 O   0  0  0  0  0  0  0  0  0  0  0  0
   -0.7318   -0.4982   -1.5874 N   0  0  0  0  0  0  0  0  0  0  0  0
   -1.9361    0.2819   -1.8225 C   0  0  0  0  0  0  0  0  0  0  0  0
   -2.1789    1.3750   -0.7704 C   0  0  0  0  0  0  0  0  0  0  0  0
   -3.5963    1.7195   -0.6483 N   0  0  0  0  0  0  0  0  0  0  0  0
   -4.1087    2.6930   -1.4987 C   0  0  0  0  0  0  0  0  0  0  0  0
   -3.4511    3.2518   -2.3760 O   0  0  0  0  0  0  0  0  0  0  0  0
   -5.5484    3.0946   -1.2102 C   0  0  0  0  0  0  0  0  0  0  0  0
   -6.4407    2.0971   -0.7563 O   0  0  0  0  0  0  0  0  0  0  0  0
   -5.8627    1.2088    0.1089 C   0  0  0  0  0  0  0  0  0  0  0  0
   -6.7619    0.4697    0.8831 C   0  0  0  0  0  0  0  0  0  0  0  0
   -6.2941   -0.4908    1.7743 C   0  0  0  0  0  0  0  0  0  0  0  0
   -4.9265   -0.7206    1.8801 C   0  0  0  0  0  0  0  0  0  0  0  0
   -4.0260    0.0070    1.0932 C   0  0  0  0  0  0  0  0  0  0  0  0
   -4.4794    0.9857    0.1961 C   0  0  0  0  0  0  0  0  0  0  0  0
    2.8301   -0.3096   -0.8245 C   0  0  0  0  0  0  0  0  0  0  0  0
    3.9305   -1.1530   -0.5888 C   0  0  0  0  0  0  0  0  0  0  0  0
    5.4719   -0.0570    3.9868 H   0  0  0  0  0  0  0  0  0  0  0  0
    6.8793   -0.5166    3.0146 H   0  0  0  0  0  0  0  0  0  0  0  0
    5.3440   -1.3904    2.8336 H   0  0  0  0  0  0  0  0  0  0  0  0
    5.7562    1.5764    2.1957 H   0  0  0  0  0  0  0  0  0  0  0  0
    4.2654    0.6750    1.9379 H   0  0  0  0  0  0  0  0  0  0  0  0
    5.6433    1.0607   -0.1474 H   0  0  0  0  0  0  0  0  0  0  0  0
    6.9506    0.1184    0.5447 H   0  0  0  0  0  0  0  0  0  0  0  0
    5.3633   -3.9898   -0.7378 H   0  0  0  0  0  0  0  0  0  0  0  0
    2.6869   -4.0922   -1.8622 H   0  0  0  0  0  0  0  0  0  0  0  0
    0.7559   -2.6037   -2.2952 H   0  0  0  0  0  0  0  0  0  0  0  0
   -0.8382   -1.4608   -1.2995 H   0  0  0  0  0  0  0  0  0  0  0  0
   -2.7634   -0.4359   -1.8418 H   0  0  0  0  0  0  0  0  0  0  0  0
   -1.8655    0.7312   -2.8198 H   0  0  0  0  0  0  0  0  0  0  0  0
   -1.7705    1.1033    0.2076 H   0  0  0  0  0  0  0  0  0  0  0  0
   -1.6250    2.2763   -1.0625 H   0  0  0  0  0  0  0  0  0  0  0  0
   -5.5313    3.9142   -0.4814 H   0  0  0  0  0  0  0  0  0  0  0  0
   -5.9682    3.4939   -2.1403 H   0  0  0  0  0  0  0  0  0  0  0  0
   -7.8302    0.6478    0.7884 H   0  0  0  0  0  0  0  0  0  0  0  0
   -6.9946   -1.0595    2.3804 H   0  0  0  0  0  0  0  0  0  0  0  0
   -4.5558   -1.4712    2.5745 H   0  0  0  0  0  0  0  0  0  0  0  0
   -2.9727   -0.2215    1.2137 H   0  0  0  0  0  0  0  0  0  0  0  0
    2.8711    0.7421   -0.5523 H   0  0  0  0  0  0  0  0  0  0  0  0
  1  2  1  0
  2  3  1  0
  3  4  1  0
  4  5  2  0
  5  6  1  0
  6  7  1  0
  7  8  2  0
  8  9  1  0
  9 10  2  0
 10 11  1  0
 11 12  2  0
 11 13  1  0
 13 14  1  0
 14 15  1  0
 15 16  1  0
 16 17  1  0
 17 18  2  0
 17 19  1  0
 19 20  1  0
 20 21  1  0
 21 22  2  0
 22 23  1  0
 23 24  2  0
 24 25  1  0
 25 26  2  0
 10 27  1  0
 27 28  2  0
 28  4  1  0
 28  7  1  0
 26 16  1  0
 26 21  1  0
  1 29  1  0
  1 30  1  0
  1 31  1  0
  2 32  1  0
  2 33  1  0
  3 34  1  0
  3 35  1  0
  6 36  1  0
  8 37  1  0
  9 38  1  0
 13 39  1  0
 14 40  1  0
 14 41  1  0
 15 42  1  0
 15 43  1  0
 19 44  1  0
 19 45  1  0
 22 46  1  0
 23 47  1  0
 24 48  1  0
 25 49  1  0
 27 50  1  0
M  END
$$$$
OCNT-2311962
     RDKit          3D

  0  0  0  0  0  0  0  0  0  0999 V3000
M  V30 BEGIN CTAB
M  V30 COUNTS 47 50 0 0 0
M  V30 BEGIN ATOM
M  V30 1 O -1.415179 -0.532301 -1.067717 0
M  V30 2 C -1.629838 -0.363155 0.133201 0
M  V30 3 N -0.616961 -0.062916 1.025719 0
M  V30 4 C 0.708448 0.316415 0.567241 0 CFG=2
M  V30 5 C 1.468636 -0.795893 -0.151654 0
M  V30 6 C 2.907676 -0.272885 -0.161367 0
M  V30 7 C 3.927710 -1.387088 -0.395929 0
M  V30 8 N 5.282382 -0.891597 -0.532720 0
M  V30 9 C 5.827332 -0.330262 -1.652892 0
M  V30 10 C 7.120827 -0.022393 -1.300007 0
M  V30 11 N 7.373100 -0.393647 -0.003761 0
M  V30 12 C 6.251649 -0.924937 0.428181 0
M  V30 13 C 3.065780 0.466857 1.179254 0
M  V30 14 C 1.650672 0.630896 1.739601 0 CFG=1
M  V30 15 O 1.419555 1.936949 2.243606 0
M  V30 16 C -3.036688 -0.446928 0.802675 0
M  V30 17 C -4.155800 -1.206667 0.022078 0
M  V30 18 C -4.707612 0.137047 -0.371259 0
M  V30 19 C -3.924372 0.833366 0.718040 0
M  V30 20 C -6.196095 0.348785 -0.448420 0
M  V30 21 C -5.920791 1.296628 -1.651258 0
M  V30 22 F -6.752443 1.156977 -2.707149 0
M  V30 23 F -5.892679 2.614840 -1.343229 0
M  V30 24 C -4.528072 0.620639 -1.792521 0
M  V30 25 H -0.907607 0.336357 1.910486 0
M  V30 26 H 0.591557 1.193620 -0.081991 0
M  V30 27 H 1.391708 -1.741725 0.400354 0
M  V30 28 H 1.102817 -0.971493 -1.167747 0
M  V30 29 H 2.994192 0.470732 -0.966484 0
M  V30 30 H 3.694498 -1.933384 -1.318270 0
M  V30 31 H 3.916714 -2.113838 0.425309 0
M  V30 32 H 5.274741 -0.195222 -2.572305 0
M  V30 33 H 7.883886 0.443543 -1.910299 0
M  V30 34 H 6.093004 -1.337628 1.415958 0
M  V30 35 H 3.564856 1.431604 1.031744 0
M  V30 36 H 3.672177 -0.103064 1.892006 0
M  V30 37 H 1.493640 -0.079140 2.561392 0
M  V30 38 H 2.132227 2.142726 2.874111 0
M  V30 39 H -2.955227 -0.821475 1.833814 0
M  V30 40 H -3.817675 -1.852255 -0.793838 0
M  V30 41 H -4.812634 -1.793849 0.675159 0
M  V30 42 H -4.488070 1.023859 1.638520 0
M  V30 43 H -3.403852 1.753575 0.434753 0
M  V30 44 H -6.772414 -0.541297 -0.723193 0
M  V30 45 H -6.668908 0.822719 0.415906 0
M  V30 46 H -4.508620 -0.170910 -2.549975 0
M  V30 47 H -3.698246 1.307815 -1.979461 0
M  V30 END ATOM
M  V30 BEGIN BOND
M  V30 1 2 1 2
M  V30 2 1 2 3
M  V30 3 1 3 4
M  V30 4 1 4 5
M  V30 5 1 5 6
M  V30 6 1 6 7
M  V30 7 1 7 8
M  V30 8 1 8 9
M  V30 9 2 9 10
M  V30 10 1 10 11
M  V30 11 2 11 12
M  V30 12 1 6 13
M  V30 13 1 13 14
M  V30 14 1 14 15
M  V30 15 1 2 16
M  V30 16 1 16 17
M  V30 17 1 17 18
M  V30 18 1 18 19
M  V30 19 1 18 20
M  V30 20 1 20 21
M  V30 21 1 21 22
M  V30 22 1 21 23
M  V30 23 1 21 24
M  V30 24 1 14 4
M  V30 25 1 19 16
M  V30 26 1 12 8
M  V30 27 1 24 18
M  V30 28 1 3 25
M  V30 29 1 4 26 CFG=3
M  V30 30 1 5 27
M  V30 31 1 5 28
M  V30 32 1 6 29
M  V30 33 1 7 30
M  V30 34 1 7 31
M  V30 35 1 9 32
M  V30 36 1 10 33
M  V30 37 1 12 34
M  V30 38 1 13 35
M  V30 39 1 13 36
M  V30 40 1 14 37 CFG=1
M  V30 41 1 15 38
M  V30 42 1 16 39
M  V30 43 1 17 40
M  V30 44 1 17 41
M  V30 45 1 19 42
M  V30 46 1 19 43
M  V30 47 1 20 44
M  V30 48 1 20 45
M  V30 49 1 24 46
M  V30 50 1 24 47
M  V30 END BOND
M  V30 BEGIN COLLECTION
M  V30 MDLV30/STERAC1 ATOMS=(2 4 14)
M  V30 END COLLECTION
M  V30 END CTAB
M  END
>  <_CXSMILES_Data>  (554) 
|&1:3,13|

$$$$
OCNT-2311967
     RDKit          3D

 43 45  0  0  0  0  0  0  0  0999 V2000
    3.4941    0.0361   -2.6075 O   0  0  0  0  0  0  0  0  0  0  0  0
    3.0919   -0.2890   -1.2716 C   0  0  1  0  0  0  0  0  0  0  0  0
    2.4408   -1.6850   -1.2430 C   0  0  0  0  0  0  0  0  0  0  0  0
    1.0893   -1.6430   -1.7207 O   0  0  0  0  0  0  0  0  0  0  0  0
    0.0966   -1.2834   -0.8538 C   0  0  0  0  0  0  0  0  0  0  0  0
   -1.1743   -1.2118   -1.4292 C   0  0  0  0  0  0  0  0  0  0  0  0
   -2.2930   -0.8531   -0.6686 C   0  0  0  0  0  0  0  0  0  0  0  0
   -2.1492   -0.5684    0.6865 C   0  0  0  0  0  0  0  0  0  0  0  0
   -3.1461   -0.1950    1.5437 O   0  0  0  0  0  0  0  0  0  0  0  0
   -4.5006   -0.4257    1.1440 C   0  0  0  0  0  0  0  0  0  0  0  0
   -5.0990    0.7198    0.3712 C   0  0  0  0  0  0  0  0  0  0  0  0
   -4.6623    2.0397    0.5152 C   0  0  0  0  0  0  0  0  0  0  0  0
   -5.2787    3.0562   -0.2090 C   0  0  0  0  0  0  0  0  0  0  0  0
   -6.3262    2.7205   -1.0496 C   0  0  0  0  0  0  0  0  0  0  0  0
   -6.7892    1.4620   -1.2042 N   0  0  0  0  0  0  0  0  0  0  0  0
   -6.1704    0.4957   -0.4888 C   0  0  0  0  0  0  0  0  0  0  0  0
   -0.8774   -0.6281    1.2607 C   0  0  0  0  0  0  0  0  0  0  0  0
    0.2412   -0.9877    0.4996 C   0  0  0  0  0  0  0  0  0  0  0  0
    4.3008   -0.2065   -0.3620 C   0  0  0  0  0  0  0  0  0  0  0  0
    5.4815   -0.9042   -0.6664 C   0  0  0  0  0  0  0  0  0  0  0  0
    6.5885   -0.8319    0.1820 C   0  0  0  0  0  0  0  0  0  0  0  0
    6.5221   -0.0638    1.3416 C   0  0  0  0  0  0  0  0  0  0  0  0
    7.8849    0.0259    2.3878 Cl  0  0  0  0  0  0  0  0  0  0  0  0
    5.3586    0.6337    1.6593 C   0  0  0  0  0  0  0  0  0  0  0  0
    4.2511    0.5630    0.8104 C   0  0  0  0  0  0  0  0  0  0  0  0
    4.0793    0.8108   -2.5480 H   0  0  0  0  0  0  0  0  0  0  0  0
    2.3619    0.4771   -0.9880 H   0  0  0  0  0  0  0  0  0  0  0  0
    2.9784   -2.3490   -1.9313 H   0  0  0  0  0  0  0  0  0  0  0  0
    2.4915   -2.1664   -0.2595 H   0  0  0  0  0  0  0  0  0  0  0  0
   -1.2953   -1.4301   -2.4883 H   0  0  0  0  0  0  0  0  0  0  0  0
   -3.2501   -0.7910   -1.1747 H   0  0  0  0  0  0  0  0  0  0  0  0
   -4.5968   -1.3794    0.6095 H   0  0  0  0  0  0  0  0  0  0  0  0
   -5.0800   -0.5350    2.0688 H   0  0  0  0  0  0  0  0  0  0  0  0
   -3.8398    2.2804    1.1849 H   0  0  0  0  0  0  0  0  0  0  0  0
   -4.9496    4.0852   -0.1183 H   0  0  0  0  0  0  0  0  0  0  0  0
   -6.8381    3.4781   -1.6360 H   0  0  0  0  0  0  0  0  0  0  0  0
   -6.5792   -0.5010   -0.6351 H   0  0  0  0  0  0  0  0  0  0  0  0
   -0.7551   -0.3985    2.3167 H   0  0  0  0  0  0  0  0  0  0  0  0
    1.1999   -1.0252    1.0034 H   0  0  0  0  0  0  0  0  0  0  0  0
    5.5439   -1.5058   -1.5726 H   0  0  0  0  0  0  0  0  0  0  0  0
    7.4961   -1.3750   -0.0681 H   0  0  0  0  0  0  0  0  0  0  0  0
    5.3078    1.2337    2.5641 H   0  0  0  0  0  0  0  0  0  0  0  0
    3.3502    1.1152    1.0725 H   0  0  0  0  0  0  0  0  0  0  0  0
  1  2  1  0
  2  3  1  0
  3  4  1  0
  4  5  1  0
  5  6  1  0
  6  7  2  0
  7  8  1  0
  8  9  1  0
  9 10  1  0
 10 11  1  0
 11 12  1  0
 12 13  2  0
 13 14  1  0
 14 15  2  0
 15 16  1  0
  8 17  2  0
 17 18  1  0
  2 19  1  0
 19 20  1  0
 20 21  2  0
 21 22  1  0
 22 23  1  0
 22 24  2  0
 24 25  1  0
 18  5  2  0
 25 19  2  0
 16 11  2  0
  1 26  1  0
  2 27  1  1
  3 28  1  0
  3 29  1  0
  6 30  1  0
  7 31  1  0
 10 32  1  0
 10 33  1  0
 12 34  1  0
 13 35  1  0
 14 36  1  0
 16 37  1  0
 17 38  1  0
 18 39  1  0
 20 40  1  0
 21 41  1  0
 24 42  1  0
 25 43  1  0
M  END
$$$$
OCNT-2311971
     RDKit          3D

 38 40  0  0  0  0  0  0  0  0999 V2000
   -2.1055    2.6672   -1.2478 C   0  0  0  0  0  0  0  0  0  0  0  0
   -1.4024    1.5158   -0.7974 O   0  0  0  0  0  0  0  0  0  0  0  0
   -2.1549    0.4857   -0.2786 C   0  0  0  0  0  0  0  0  0  0  0  0
   -3.5486    0.4949   -0.1540 C   0  0  0  0  0  0  0  0  0  0  0  0
   -4.2208   -0.6025    0.4026 C   0  0  0  0  0  0  0  0  0  0  0  0
   -5.7181   -0.6047    0.5042 C   0  0  0  0  0  0  0  0  0  0  0  0
   -3.4845   -1.7190    0.8101 C   0  0  0  0  0  0  0  0  0  0  0  0
   -2.0927   -1.7368    0.6890 C   0  0  0  0  0  0  0  0  0  0  0  0
   -1.4207   -0.6414    0.1472 C   0  0  0  0  0  0  0  0  0  0  0  0
   -0.0180   -0.5838   -0.0037 N   0  0  0  0  0  0  0  0  0  0  0  0
    0.9158   -1.5417    0.3233 C   0  0  0  0  0  0  0  0  0  0  0  0
    0.7167   -2.6653    0.7649 O   0  0  0  0  0  0  0  0  0  0  0  0
    2.3142   -1.1325    0.0424 C   0  0  0  0  0  0  0  0  0  0  0  0
    3.0220   -1.9301   -0.8686 C   0  0  0  0  0  0  0  0  0  0  0  0
    4.3226   -1.5916   -1.2250 C   0  0  0  0  0  0  0  0  0  0  0  0
    4.9188   -0.4609   -0.6692 C   0  0  0  0  0  0  0  0  0  0  0  0
    4.2277    0.3348    0.2639 C   0  0  0  0  0  0  0  0  0  0  0  0
    4.8153    1.4617    0.8447 C   0  0  0  0  0  0  0  0  0  0  0  0
    4.2180    2.2587    1.7590 N   0  0  0  0  0  0  0  0  0  0  0  0
    2.9726    1.9129    2.1332 C   0  0  0  0  0  0  0  0  0  0  0  0
    2.2909    0.8200    1.6215 C   0  0  0  0  0  0  0  0  0  0  0  0
    2.9098    0.0053    0.6481 C   0  0  0  0  0  0  0  0  0  0  0  0
   -2.7836    2.4191   -2.0708 H   0  0  0  0  0  0  0  0  0  0  0  0
   -1.3679    3.3801   -1.6288 H   0  0  0  0  0  0  0  0  0  0  0  0
   -2.6398    3.1509   -0.4235 H   0  0  0  0  0  0  0  0  0  0  0  0
   -4.1384    1.3449   -0.4812 H   0  0  0  0  0  0  0  0  0  0  0  0
   -6.0530   -1.2279    1.3401 H   0  0  0  0  0  0  0  0  0  0  0  0
   -6.0983    0.4068    0.6816 H   0  0  0  0  0  0  0  0  0  0  0  0
   -6.1551   -0.9908   -0.4218 H   0  0  0  0  0  0  0  0  0  0  0  0
   -3.9873   -2.5890    1.2278 H   0  0  0  0  0  0  0  0  0  0  0  0
   -1.5613   -2.6220    1.0237 H   0  0  0  0  0  0  0  0  0  0  0  0
    0.3079    0.2807   -0.4278 H   0  0  0  0  0  0  0  0  0  0  0  0
    2.5518   -2.8113   -1.3013 H   0  0  0  0  0  0  0  0  0  0  0  0
    4.8711   -2.2067   -1.9343 H   0  0  0  0  0  0  0  0  0  0  0  0
    5.9373   -0.2082   -0.9595 H   0  0  0  0  0  0  0  0  0  0  0  0
    5.8262    1.7657    0.5835 H   0  0  0  0  0  0  0  0  0  0  0  0
    2.5175    2.5537    2.8834 H   0  0  0  0  0  0  0  0  0  0  0  0
    1.2945    0.6073    1.9976 H   0  0  0  0  0  0  0  0  0  0  0  0
  1  2  1  0
  2  3  1  0
  3  4  1  0
  4  5  2  0
  5  6  1  0
  5  7  1  0
  7  8  2  0
  8  9  1  0
  9 10  1  0
 10 11  1  0
 11 12  2  0
 11 13  1  0
 13 14  2  0
 14 15  1  0
 15 16  2  0
 16 17  1  0
 17 18  2  0
 18 19  1  0
 19 20  2  0
 20 21  1  0
 21 22  2  0
  9  3  2  0
 22 13  1  0
 22 17  1  0
  1 23  1  0
  1 24  1  0
  1 25  1  0
  4 26  1  0
  6 27  1  0
  6 28  1  0
  6 29  1  0
  7 30  1  0
  8 31  1  0
 10 32  1  0
 14 33  1  0
 15 34  1  0
 16 35  1  0
 18 36  1  0
 20 37  1  0
 21 38  1  0
M  END
$$$$
OCNT-2311975
     RDKit          3D

 41 43  0  0  0  0  0  0  0  0999 V2000
    7.0976   -1.9841    1.3512 C   0  0  0  0  0  0  0  0  0  0  0  0
    6.4124   -2.4903   -0.2490 S   0  0  0  0  0  0  0  0  0  0  0  0
    5.2368   -1.1767   -0.5147 C   0  0  0  0  0  0  0  0  0  0  0  0
    3.9021   -1.5022   -0.7708 C   0  0  0  0  0  0  0  0  0  0  0  0
    2.9501   -0.4990   -0.9948 C   0  0  0  0  0  0  0  0  0  0  0  0
    3.3280    0.8423   -0.9746 C   0  0  0  0  0  0  0  0  0  0  0  0
    2.5128    1.9208   -1.1698 O   0  0  0  0  0  0  0  0  0  0  0  0
    1.1395    1.6954   -1.4792 C   0  0  0  0  0  0  0  0  0  0  0  0
    0.2972    1.5488   -0.2158 C   0  0  0  0  0  0  0  0  0  0  0  0
   -1.0729    1.3521   -0.5951 O   0  0  0  0  0  0  0  0  0  0  0  0
   -1.9214    1.1868    0.4522 C   0  0  0  0  0  0  0  0  0  0  0  0
   -1.6101    1.1932    1.6301 O   0  0  0  0  0  0  0  0  0  0  0  0
   -3.2906    0.9656   -0.0607 C   0  0  0  0  0  0  0  0  0  0  0  0
   -3.7181    1.7229   -1.1483 C   0  0  0  0  0  0  0  0  0  0  0  0
   -4.9478    1.6334   -1.7008 N   0  0  0  0  0  0  0  0  0  0  0  0
   -5.7939    0.7457   -1.1336 C   0  0  0  0  0  0  0  0  0  0  0  0
   -5.4819   -0.0662   -0.0398 C   0  0  0  0  0  0  0  0  0  0  0  0
   -6.4217   -0.9691    0.4892 C   0  0  0  0  0  0  0  0  0  0  0  0
   -6.0979   -1.7782    1.5759 C   0  0  0  0  0  0  0  0  0  0  0  0
   -4.8331   -1.6948    2.1438 C   0  0  0  0  0  0  0  0  0  0  0  0
   -3.8911   -0.8012    1.6267 C   0  0  0  0  0  0  0  0  0  0  0  0
   -4.1893    0.0396    0.5256 C   0  0  0  0  0  0  0  0  0  0  0  0
    4.6651    1.1663   -0.7314 C   0  0  0  0  0  0  0  0  0  0  0  0
    5.6162    0.1662   -0.5080 C   0  0  0  0  0  0  0  0  0  0  0  0
    6.2983   -1.8411    2.0837 H   0  0  0  0  0  0  0  0  0  0  0  0
    7.6745   -1.0608    1.2551 H   0  0  0  0  0  0  0  0  0  0  0  0
    7.7657   -2.7689    1.7163 H   0  0  0  0  0  0  0  0  0  0  0  0
    3.5876   -2.5435   -0.7951 H   0  0  0  0  0  0  0  0  0  0  0  0
    1.9278   -0.8101   -1.1788 H   0  0  0  0  0  0  0  0  0  0  0  0
    0.7896    2.5809   -2.0244 H   0  0  0  0  0  0  0  0  0  0  0  0
    0.9920    0.8668   -2.1822 H   0  0  0  0  0  0  0  0  0  0  0  0
    0.6426    0.6973    0.3812 H   0  0  0  0  0  0  0  0  0  0  0  0
    0.3894    2.4546    0.3959 H   0  0  0  0  0  0  0  0  0  0  0  0
   -3.0700    2.4567   -1.6213 H   0  0  0  0  0  0  0  0  0  0  0  0
   -6.7740    0.7020   -1.6038 H   0  0  0  0  0  0  0  0  0  0  0  0
   -7.4167   -1.0482    0.0551 H   0  0  0  0  0  0  0  0  0  0  0  0
   -6.8317   -2.4720    1.9783 H   0  0  0  0  0  0  0  0  0  0  0  0
   -4.5737   -2.3226    2.9930 H   0  0  0  0  0  0  0  0  0  0  0  0
   -2.9134   -0.7705    2.1048 H   0  0  0  0  0  0  0  0  0  0  0  0
    4.9728    2.2094   -0.7225 H   0  0  0  0  0  0  0  0  0  0  0  0
    6.6511    0.4528   -0.3436 H   0  0  0  0  0  0  0  0  0  0  0  0
  1  2  1  0
  2  3  1  0
  3  4  1  0
  4  5  2  0
  5  6  1  0
  6  7  1  0
  7  8  1  0
  8  9  1  0
  9 10  1  0
 10 11  1  0
 11 12  2  0
 11 13  1  0
 13 14  1  0
 14 15  2  0
 15 16  1  0
 16 17  2  0
 17 18  1  0
 18 19  2  0
 19 20  1  0
 20 21  2  0
 21 22  1  0
  6 23  2  0
 23 24  1  0
 24  3  2  0
 22 13  2  0
 22 17  1  0
  1 25  1  0
  1 26  1  0
  1 27  1  0
  4 28  1  0
  5 29  1  0
  8 30  1  0
  8 31  1  0
  9 32  1  0
  9 33  1  0
 14 34  1  0
 16 35  1  0
 18 36  1  0
 19 37  1  0
 20 38  1  0
 21 39  1  0
 23 40  1  0
 24 41  1  0
M  END
$$$$
OCNT-2311986
     RDKit          3D

 48 51  0  0  0  0  0  0  0  0999 V2000
    8.2832    1.6709    0.6988 C   0  0  0  0  0  0  0  0  0  0  0  0
    7.0243    1.0519    0.1749 C   0  0  0  0  0  0  0  0  0  0  0  0
    6.9297    0.6325   -1.1555 C   0  0  0  0  0  0  0  0  0  0  0  0
    5.7366    0.0875   -1.6474 C   0  0  0  0  0  0  0  0  0  0  0  0
    4.5983   -0.0531   -0.8299 C   0  0  0  0  0  0  0  0  0  0  0  0
    3.3255   -0.6271   -1.3262 C   0  0  0  0  0  0  0  0  0  0  0  0
    3.2429   -1.4814   -2.4230 C   0  0  0  0  0  0  0  0  0  0  0  0
    1.9980   -1.9600   -2.8189 C   0  0  0  0  0  0  0  0  0  0  0  0
    0.8659   -1.5822   -2.1066 C   0  0  0  0  0  0  0  0  0  0  0  0
    1.0141   -0.7423   -1.0112 C   0  0  0  0  0  0  0  0  0  0  0  0
   -0.1415   -0.3968   -0.3061 N   0  0  0  0  0  0  0  0  0  0  0  0
   -0.1970    0.3853    0.8302 C   0  0  0  0  0  0  0  0  0  0  0  0
    0.7521    0.8971    1.4114 O   0  0  0  0  0  0  0  0  0  0  0  0
   -1.5485    0.5454    1.3142 C   0  0  0  0  0  0  0  0  0  0  0  0
   -2.0621    1.1960    2.4098 C   0  0  0  0  0  0  0  0  0  0  0  0
   -3.4248    1.0440    2.4513 N   0  0  0  0  0  0  0  0  0  0  0  0
   -3.7060    0.3222    1.3879 C   0  0  0  0  0  0  0  0  0  0  0  0
   -4.9076   -0.1200    0.9687 N   0  0  0  0  0  0  0  0  0  0  0  0
   -5.0877   -0.7622   -0.3310 C   0  0  0  0  0  0  0  0  0  0  0  0
   -6.3670   -1.6308   -0.3269 C   0  0  0  0  0  0  0  0  0  0  0  0
   -7.6158   -0.9421    0.0641 N   0  0  0  0  0  0  0  0  0  0  0  0
   -7.3444    0.3296    0.7533 C   0  0  0  0  0  0  0  0  0  0  0  0
   -6.1075    0.3232    1.6806 C   0  0  0  0  0  0  0  0  0  0  0  0
   -2.6073   -0.0185    0.6429 O   0  0  0  0  0  0  0  0  0  0  0  0
    2.2133   -0.2745   -0.6313 N   0  0  0  0  0  0  0  0  0  0  0  0
    4.7101    0.3981    0.5006 C   0  0  0  0  0  0  0  0  0  0  0  0
    5.8997    0.9426    0.9969 C   0  0  0  0  0  0  0  0  0  0  0  0
    8.2071    2.7611    0.6627 H   0  0  0  0  0  0  0  0  0  0  0  0
    8.4644    1.3642    1.7330 H   0  0  0  0  0  0  0  0  0  0  0  0
    9.1506    1.3592    0.1084 H   0  0  0  0  0  0  0  0  0  0  0  0
    7.7812    0.7313   -1.8257 H   0  0  0  0  0  0  0  0  0  0  0  0
    5.7109   -0.2035   -2.6958 H   0  0  0  0  0  0  0  0  0  0  0  0
    4.1278   -1.7931   -2.9667 H   0  0  0  0  0  0  0  0  0  0  0  0
    1.9147   -2.6252   -3.6730 H   0  0  0  0  0  0  0  0  0  0  0  0
   -0.1066   -1.9530   -2.4095 H   0  0  0  0  0  0  0  0  0  0  0  0
   -1.0228   -0.7613   -0.6386 H   0  0  0  0  0  0  0  0  0  0  0  0
   -1.5203    1.7525    3.1631 H   0  0  0  0  0  0  0  0  0  0  0  0
   -5.1542    0.0030   -1.1164 H   0  0  0  0  0  0  0  0  0  0  0  0
   -4.2400   -1.4177   -0.5753 H   0  0  0  0  0  0  0  0  0  0  0  0
   -6.2110   -2.4698    0.3660 H   0  0  0  0  0  0  0  0  0  0  0  0
   -6.5080   -2.0670   -1.3202 H   0  0  0  0  0  0  0  0  0  0  0  0
   -8.1347   -1.5572    0.6892 H   0  0  0  0  0  0  0  0  0  0  0  0
   -8.2328    0.6140    1.3284 H   0  0  0  0  0  0  0  0  0  0  0  0
   -7.2117    1.1063   -0.0112 H   0  0  0  0  0  0  0  0  0  0  0  0
   -5.9817    1.3365    2.0839 H   0  0  0  0  0  0  0  0  0  0  0  0
   -6.2892   -0.3527    2.5250 H   0  0  0  0  0  0  0  0  0  0  0  0
    3.8486    0.3334    1.1705 H   0  0  0  0  0  0  0  0  0  0  0  0
    5.9310    1.2845    2.0306 H   0  0  0  0  0  0  0  0  0  0  0  0
  1  2  1  0
  2  3  1  0
  3  4  2  0
  4  5  1  0
  5  6  1  0
  6  7  1  0
  7  8  2  0
  8  9  1  0
  9 10  2  0
 10 11  1  0
 11 12  1  0
 12 13  2  0
 12 14  1  0
 14 15  2  0
 15 16  1  0
 16 17  2  0
 17 18  1  0
 18 19  1  0
 19 20  1  0
 20 21  1  0
 21 22  1  0
 22 23  1  0
 17 24  1  0
 10 25  1  0
  5 26  2  0
 26 27  1  0
 27  2  2  0
 25  6  2  0
 24 14  1  0
 23 18  1  0
  1 28  1  0
  1 29  1  0
  1 30  1  0
  3 31  1  0
  4 32  1  0
  7 33  1  0
  8 34  1  0
  9 35  1  0
 11 36  1  0
 15 37  1  0
 19 38  1  0
 19 39  1  0
 20 40  1  0
 20 41  1  0
 21 42  1  0
 22 43  1  0
 22 44  1  0
 23 45  1  0
 23 46  1  0
 26 47  1  0
 27 48  1  0
M  END
$$$$
OCNT-2311990
     RDKit          3D

 54 57  0  0  0  0  0  0  0  0999 V2000
   -0.7047    1.3258   -1.6180 O   0  0  0  0  0  0  0  0  0  0  0  0
   -0.3636    0.2113   -1.9930 C   0  0  0  0  0  0  0  0  0  0  0  0
   -1.1859   -0.8697   -2.2272 N   0  0  0  0  0  0  0  0  0  0  0  0
   -2.5512   -0.9817   -1.8943 C   0  0  0  0  0  0  0  0  0  0  0  0
   -3.2665   -2.0551   -2.4347 C   0  0  0  0  0  0  0  0  0  0  0  0
   -4.6155   -2.2326   -2.1246 C   0  0  0  0  0  0  0  0  0  0  0  0
   -5.2593   -1.3496   -1.2572 C   0  0  0  0  0  0  0  0  0  0  0  0
   -4.5577   -0.2839   -0.6793 C   0  0  0  0  0  0  0  0  0  0  0  0
   -5.1955    0.7178    0.2630 C   0  0  0  0  0  0  0  0  0  0  0  0
   -6.3629    0.2274    0.9950 N   0  0  0  0  0  0  0  0  0  0  0  0
   -7.6322    0.5255    0.5420 C   0  0  0  0  0  0  0  0  0  0  0  0
   -8.7100    0.1081    1.2016 C   0  0  0  0  0  0  0  0  0  0  0  0
   -8.4178   -0.6755    2.4106 C   0  0  0  0  0  0  0  0  0  0  0  0
   -7.2474   -0.9670    2.8575 N   0  0  0  0  0  0  0  0  0  0  0  0
   -6.1460   -0.5167    2.1659 C   0  0  0  0  0  0  0  0  0  0  0  0
   -5.0131   -0.7622    2.5720 O   0  0  0  0  0  0  0  0  0  0  0  0
   -3.2034   -0.1053   -1.0233 C   0  0  0  0  0  0  0  0  0  0  0  0
    0.9577   -0.1119   -2.2549 N   0  0  0  0  0  0  0  0  0  0  0  0
    2.0287    0.8731   -2.0113 C   0  0  0  0  0  0  0  0  0  0  0  0
    3.4615    0.3354   -2.2333 C   0  0  0  0  0  0  0  0  0  0  0  0
    3.8885    1.1652   -0.9888 C   0  0  0  0  0  0  0  0  0  0  0  0
    5.0194    0.6439   -0.0043 C   0  0  0  0  0  0  0  0  0  0  0  0
    5.3515   -0.7115    0.1554 C   0  0  0  0  0  0  0  0  0  0  0  0
    6.3488   -1.1349    1.0426 C   0  0  0  0  0  0  0  0  0  0  0  0
    7.0483   -0.2157    1.8212 C   0  0  0  0  0  0  0  0  0  0  0  0
    7.9882   -0.7626    2.6467 O   0  0  0  0  0  0  0  0  0  0  0  0
    8.5579    0.0809    3.6356 C   0  0  0  0  0  0  0  0  0  0  0  0
    9.3036    1.0557    3.0728 F   0  0  0  0  0  0  0  0  0  0  0  0
    9.3660   -0.6629    4.4260 F   0  0  0  0  0  0  0  0  0  0  0  0
    7.6081    0.6333    4.4190 F   0  0  0  0  0  0  0  0  0  0  0  0
    6.7466    1.1334    1.6864 C   0  0  0  0  0  0  0  0  0  0  0  0
    5.7496    1.5470    0.7911 C   0  0  0  0  0  0  0  0  0  0  0  0
    2.4118    1.0444   -0.5234 C   0  0  0  0  0  0  0  0  0  0  0  0
   -0.8124   -1.5735   -2.8451 H   0  0  0  0  0  0  0  0  0  0  0  0
   -2.7876   -2.7633   -3.1049 H   0  0  0  0  0  0  0  0  0  0  0  0
   -5.1650   -3.0677   -2.5514 H   0  0  0  0  0  0  0  0  0  0  0  0
   -6.3071   -1.5202   -1.0256 H   0  0  0  0  0  0  0  0  0  0  0  0
   -5.4762    1.6091   -0.3134 H   0  0  0  0  0  0  0  0  0  0  0  0
   -4.4496    1.0407    1.0013 H   0  0  0  0  0  0  0  0  0  0  0  0
   -7.7154    1.1113   -0.3712 H   0  0  0  0  0  0  0  0  0  0  0  0
   -9.7295    0.3058    0.9056 H   0  0  0  0  0  0  0  0  0  0  0  0
   -9.3004   -1.0328    2.9652 H   0  0  0  0  0  0  0  0  0  0  0  0
   -2.6618    0.7212   -0.5691 H   0  0  0  0  0  0  0  0  0  0  0  0
    1.1685   -1.0943   -2.1490 H   0  0  0  0  0  0  0  0  0  0  0  0
    1.8453    1.8210   -2.5327 H   0  0  0  0  0  0  0  0  0  0  0  0
    3.9319    0.6366   -3.1735 H   0  0  0  0  0  0  0  0  0  0  0  0
    3.5519   -0.7510   -2.1323 H   0  0  0  0  0  0  0  0  0  0  0  0
    4.1118    2.2009   -1.2951 H   0  0  0  0  0  0  0  0  0  0  0  0
    4.8231   -1.4692   -0.4167 H   0  0  0  0  0  0  0  0  0  0  0  0
    6.5693   -2.1948    1.1305 H   0  0  0  0  0  0  0  0  0  0  0  0
    7.2610    1.9029    2.2543 H   0  0  0  0  0  0  0  0  0  0  0  0
    5.5311    2.6126    0.7151 H   0  0  0  0  0  0  0  0  0  0  0  0
    2.2056    0.1695    0.1052 H   0  0  0  0  0  0  0  0  0  0  0  0
    2.0023    1.9318   -0.0340 H   0  0  0  0  0  0  0  0  0  0  0  0
  1  2  2  0
  2  3  1  0
  3  4  1  0
  4  5  1  0
  5  6  2  0
  6  7  1  0
  7  8  2  0
  8  9  1  0
  9 10  1  0
 10 11  1  0
 11 12  2  0
 12 13  1  0
 13 14  2  0
 14 15  1  0
 15 16  2  0
  8 17  1  0
  2 18  1  0
 18 19  1  0
 19 20  1  0
 20 21  1  0
 21 22  1  0
 22 23  1  0
 23 24  2  0
 24 25  1  0
 25 26  1  0
 26 27  1  0
 27 28  1  0
 27 29  1  0
 27 30  1  0
 25 31  2  0
 31 32  1  0
 21 33  1  0
 17  4  2  0
 33 19  1  0
 15 10  1  0
 32 22  2  0
  3 34  1  0
  5 35  1  0
  6 36  1  0
  7 37  1  0
  9 38  1  0
  9 39  1  0
 11 40  1  0
 12 41  1  0
 13 42  1  0
 17 43  1  0
 18 44  1  0
 19 45  1  0
 20 46  1  0
 20 47  1  0
 21 48  1  0
 23 49  1  0
 24 50  1  0
 31 51  1  0
 32 52  1  0
 33 53  1  0
 33 54  1  0
M  END
$$$$
OCNT-2311994
     RDKit          3D

 41 43  0  0  0  0  0  0  0  0999 V2000
    6.7883   -1.2540   -0.2174 C   0  0  0  0  0  0  0  0  0  0  0  0
    5.5320   -1.0560   -0.9789 C   0  0  0  0  0  0  0  0  0  0  0  0
    5.5548   -1.1199   -2.3163 N   0  0  0  0  0  0  0  0  0  0  0  0
    4.2503   -0.9001   -2.7263 O   0  0  0  0  0  0  0  0  0  0  0  0
    3.4523   -0.7032   -1.6415 C   0  0  0  0  0  0  0  0  0  0  0  0
    2.1325   -0.4647   -1.7227 N   0  0  0  0  0  0  0  0  0  0  0  0
    1.5290   -0.2878   -0.5407 C   0  0  0  0  0  0  0  0  0  0  0  0
    0.1508   -0.0626   -0.5988 N   0  0  0  0  0  0  0  0  0  0  0  0
   -0.2676    1.2207   -0.0246 C   0  0  0  0  0  0  0  0  0  0  0  0
   -1.7315    1.4818   -0.3245 C   0  0  0  0  0  0  0  0  0  0  0  0
   -2.7146    0.6314    0.1950 C   0  0  0  0  0  0  0  0  0  0  0  0
   -4.0739    0.8476   -0.0743 C   0  0  0  0  0  0  0  0  0  0  0  0
   -5.0769    0.0195    0.4482 N   0  0  0  0  0  0  0  0  0  0  0  0
   -6.4453    0.1615   -0.0479 C   0  0  0  0  0  0  0  0  0  0  0  0
   -4.7090   -1.3262    0.8917 C   0  0  0  0  0  0  0  0  0  0  0  0
   -4.3610    1.9699   -0.8600 C   0  0  0  0  0  0  0  0  0  0  0  0
   -3.3322    2.7673   -1.3454 C   0  0  0  0  0  0  0  0  0  0  0  0
   -2.0274    2.5474   -1.1017 N   0  0  0  0  0  0  0  0  0  0  0  0
    2.1919   -0.3669    0.6839 C   0  0  0  0  0  0  0  0  0  0  0  0
    3.5769   -0.6191    0.7466 C   0  0  0  0  0  0  0  0  0  0  0  0
    4.2807   -0.7067    2.0670 C   0  0  0  0  0  0  0  0  0  0  0  0
    5.3046    0.1835    2.1684 F   0  0  0  0  0  0  0  0  0  0  0  0
    3.4706   -0.4640    3.1336 F   0  0  0  0  0  0  0  0  0  0  0  0
    4.8268   -1.9334    2.2838 F   0  0  0  0  0  0  0  0  0  0  0  0
    4.2227   -0.7910   -0.4921 C   0  0  0  0  0  0  0  0  0  0  0  0
    6.6823   -2.0819    0.4901 H   0  0  0  0  0  0  0  0  0  0  0  0
    7.0442   -0.3480    0.3402 H   0  0  0  0  0  0  0  0  0  0  0  0
    7.6288   -1.4876   -0.8796 H   0  0  0  0  0  0  0  0  0  0  0  0
   -0.0669   -0.0680   -1.5985 H   0  0  0  0  0  0  0  0  0  0  0  0
   -0.1362    1.2291    1.0640 H   0  0  0  0  0  0  0  0  0  0  0  0
    0.3326    2.0395   -0.4424 H   0  0  0  0  0  0  0  0  0  0  0  0
   -2.3860   -0.1994    0.8095 H   0  0  0  0  0  0  0  0  0  0  0  0
   -7.1265   -0.5221    0.4713 H   0  0  0  0  0  0  0  0  0  0  0  0
   -6.5011   -0.0627   -1.1189 H   0  0  0  0  0  0  0  0  0  0  0  0
   -6.8330    1.1688    0.1387 H   0  0  0  0  0  0  0  0  0  0  0  0
   -4.2495   -1.8978    0.0777 H   0  0  0  0  0  0  0  0  0  0  0  0
   -5.5872   -1.8859    1.2331 H   0  0  0  0  0  0  0  0  0  0  0  0
   -4.0265   -1.2888    1.7473 H   0  0  0  0  0  0  0  0  0  0  0  0
   -5.3751    2.2495   -1.1168 H   0  0  0  0  0  0  0  0  0  0  0  0
   -3.5483    3.6345   -1.9630 H   0  0  0  0  0  0  0  0  0  0  0  0
    1.6239   -0.2544    1.6053 H   0  0  0  0  0  0  0  0  0  0  0  0
  1  2  1  0
  2  3  2  0
  3  4  1  0
  4  5  1  0
  5  6  2  0
  6  7  1  0
  7  8  1  0
  8  9  1  0
  9 10  1  0
 10 11  2  0
 11 12  1  0
 12 13  1  0
 13 14  1  0
 13 15  1  0
 12 16  2  0
 16 17  1  0
 17 18  2  0
  7 19  2  0
 19 20  1  0
 20 21  1  0
 21 22  1  0
 21 23  1  0
 21 24  1  0
 20 25  2  0
 25  2  1  0
 25  5  1  0
 18 10  1  0
  1 26  1  0
  1 27  1  0
  1 28  1  0
  8 29  1  0
  9 30  1  0
  9 31  1  0
 11 32  1  0
 14 33  1  0
 14 34  1  0
 14 35  1  0
 15 36  1  0
 15 37  1  0
 15 38  1  0
 16 39  1  0
 17 40  1  0
 19 41  1  0
M  END
$$$$
OCNT-2311998
     RDKit          3D

 38 40  0  0  0  0  0  0  0  0999 V2000
   -2.8916   -2.1770    0.7310 C   0  0  0  0  0  0  0  0  0  0  0  0
   -2.0859   -0.9592    0.2712 C   0  0  0  0  0  0  0  0  0  0  0  0
   -0.9284   -0.7060    1.2468 C   0  0  0  0  0  0  0  0  0  0  0  0
   -0.9401    0.1575    2.1193 O   0  0  0  0  0  0  0  0  0  0  0  0
    0.1319   -1.5784    1.0812 N   0  0  0  0  0  0  0  0  0  0  0  0
    1.3639   -1.4193    1.8209 C   0  0  0  0  0  0  0  0  0  0  0  0
    2.3874   -0.6827    0.9921 C   0  0  0  0  0  0  0  0  0  0  0  0
    2.3534    0.7213    0.9241 C   0  0  0  0  0  0  0  0  0  0  0  0
    3.2701    1.4427    0.1439 C   0  0  0  0  0  0  0  0  0  0  0  0
    4.2362    0.7327   -0.5876 C   0  0  0  0  0  0  0  0  0  0  0  0
    5.3003    1.0722   -1.4641 C   0  0  0  0  0  0  0  0  0  0  0  0
    5.8749   -0.1151   -1.8562 C   0  0  0  0  0  0  0  0  0  0  0  0
    5.2373   -1.1687   -1.2820 O   0  0  0  0  0  0  0  0  0  0  0  0
    4.2412   -0.6544   -0.5083 C   0  0  0  0  0  0  0  0  0  0  0  0
    3.3463   -1.4003    0.2564 C   0  0  0  0  0  0  0  0  0  0  0  0
   -2.9710    0.2579    0.0438 C   0  0  0  0  0  0  0  0  0  0  0  0
   -3.0043    0.8720   -1.2192 C   0  0  0  0  0  0  0  0  0  0  0  0
   -3.8171    1.9848   -1.4511 C   0  0  0  0  0  0  0  0  0  0  0  0
   -4.6015    2.4952   -0.4202 C   0  0  0  0  0  0  0  0  0  0  0  0
   -5.6994    4.0018   -0.7334 Br  0  0  0  0  0  0  0  0  0  0  0  0
   -4.5793    1.9050    0.8402 C   0  0  0  0  0  0  0  0  0  0  0  0
   -3.7675    0.7915    1.0700 C   0  0  0  0  0  0  0  0  0  0  0  0
   -3.7235   -2.3803    0.0478 H   0  0  0  0  0  0  0  0  0  0  0  0
   -3.3057   -2.0338    1.7353 H   0  0  0  0  0  0  0  0  0  0  0  0
   -2.2613   -3.0722    0.7684 H   0  0  0  0  0  0  0  0  0  0  0  0
   -1.6316   -1.2206   -0.6950 H   0  0  0  0  0  0  0  0  0  0  0  0
    0.1671   -2.1516    0.2497 H   0  0  0  0  0  0  0  0  0  0  0  0
    1.1895   -0.8942    2.7667 H   0  0  0  0  0  0  0  0  0  0  0  0
    1.7253   -2.4233    2.0696 H   0  0  0  0  0  0  0  0  0  0  0  0
    1.5957    1.2700    1.4854 H   0  0  0  0  0  0  0  0  0  0  0  0
    3.2252    2.5271    0.1087 H   0  0  0  0  0  0  0  0  0  0  0  0
    5.6090    2.0610   -1.7711 H   0  0  0  0  0  0  0  0  0  0  0  0
    6.7012   -0.3685   -2.5056 H   0  0  0  0  0  0  0  0  0  0  0  0
    3.4034   -2.4821    0.2728 H   0  0  0  0  0  0  0  0  0  0  0  0
   -2.3966    0.4903   -2.0369 H   0  0  0  0  0  0  0  0  0  0  0  0
   -3.8280    2.4450   -2.4354 H   0  0  0  0  0  0  0  0  0  0  0  0
   -5.1806    2.3045    1.6522 H   0  0  0  0  0  0  0  0  0  0  0  0
   -3.7459    0.3552    2.0671 H   0  0  0  0  0  0  0  0  0  0  0  0
  1  2  1  0
  2  3  1  0
  3  4  2  0
  3  5  1  0
  5  6  1  0
  6  7  1  0
  7  8  2  0
  8  9  1  0
  9 10  2  0
 10 11  1  0
 11 12  2  0
 12 13  1  0
 13 14  1  0
 14 15  2  0
  2 16  1  0
 16 17  1  0
 17 18  2  0
 18 19  1  0
 19 20  1  0
 19 21  2  0
 21 22  1  0
 15  7  1  0
 22 16  2  0
 14 10  1  0
  1 23  1  0
  1 24  1  0
  1 25  1  0
  2 26  1  0
  5 27  1  0
  6 28  1  0
  6 29  1  0
  8 30  1  0
  9 31  1  0
 11 32  1  0
 12 33  1  0
 15 34  1  0
 17 35  1  0
 18 36  1  0
 21 37  1  0
 22 38  1  0
M  END
$$$$
OCNT-2312000
     RDKit          3D

 39 42  0  0  0  0  0  0  0  0999 V2000
    1.0693   -0.5059    2.9157 O   0  0  0  0  0  0  0  0  0  0  0  0
    0.5852    0.4784    2.3535 C   0  0  0  0  0  0  0  0  0  0  0  0
    1.4395    1.6680    1.9677 C   0  0  0  0  0  0  0  0  0  0  0  0
    2.1780    1.3918    0.7094 C   0  0  0  0  0  0  0  0  0  0  0  0
    1.9276    2.1050   -0.3970 N   0  0  0  0  0  0  0  0  0  0  0  0
    2.7808    1.6024   -1.3648 O   0  0  0  0  0  0  0  0  0  0  0  0
    3.5283    0.5919   -0.8394 C   0  0  0  0  0  0  0  0  0  0  0  0
    4.5728   -0.2122   -1.6608 C   0  0  0  0  0  0  0  0  0  0  0  0
    4.6762   -1.7041   -1.4796 C   0  0  0  0  0  0  0  0  0  0  0  0
    5.7832   -0.8112   -0.9966 C   0  0  0  0  0  0  0  0  0  0  0  0
    3.1859    0.4254    0.4801 C   0  0  0  0  0  0  0  0  0  0  0  0
   -0.7483    0.5587    2.0348 N   0  0  0  0  0  0  0  0  0  0  0  0
   -1.6599   -0.5728    1.9119 C   0  0  0  0  0  0  0  0  0  0  0  0
   -2.6448    0.4119    1.2307 C   0  0  0  0  0  0  0  0  0  0  0  0
   -3.5260   -0.1040   -0.0033 C   0  0  0  0  0  0  0  0  0  0  0  0
   -3.4274    0.5004   -1.2792 C   0  0  0  0  0  0  0  0  0  0  0  0
   -4.1822    0.0745   -2.3771 C   0  0  0  0  0  0  0  0  0  0  0  0
   -5.0781   -0.9765   -2.2381 C   0  0  0  0  0  0  0  0  0  0  0  0
   -5.2213   -1.5942   -1.0009 C   0  0  0  0  0  0  0  0  0  0  0  0
   -4.4652   -1.1576    0.0966 C   0  0  0  0  0  0  0  0  0  0  0  0
   -4.7805   -2.0413    1.7522 Br  0  0  0  0  0  0  0  0  0  0  0  0
   -1.4036    1.3089    0.9745 C   0  0  0  0  0  0  0  0  0  0  0  0
    0.8257    2.5720    1.8809 H   0  0  0  0  0  0  0  0  0  0  0  0
    2.1485    1.8520    2.7845 H   0  0  0  0  0  0  0  0  0  0  0  0
    4.7099    0.1672   -2.6699 H   0  0  0  0  0  0  0  0  0  0  0  0
    4.8675   -2.3134   -2.3570 H   0  0  0  0  0  0  0  0  0  0  0  0
    4.0577   -2.1921   -0.7351 H   0  0  0  0  0  0  0  0  0  0  0  0
    6.7130   -0.8112   -1.5546 H   0  0  0  0  0  0  0  0  0  0  0  0
    5.9175   -0.6988    0.0723 H   0  0  0  0  0  0  0  0  0  0  0  0
    3.5866   -0.2941    1.1798 H   0  0  0  0  0  0  0  0  0  0  0  0
   -1.2622   -1.3709    1.2776 H   0  0  0  0  0  0  0  0  0  0  0  0
   -1.9789   -0.9756    2.8766 H   0  0  0  0  0  0  0  0  0  0  0  0
   -3.3076    0.8863    1.9731 H   0  0  0  0  0  0  0  0  0  0  0  0
   -2.7449    1.3347   -1.4336 H   0  0  0  0  0  0  0  0  0  0  0  0
   -4.0700    0.5721   -3.3380 H   0  0  0  0  0  0  0  0  0  0  0  0
   -5.6667   -1.3110   -3.0882 H   0  0  0  0  0  0  0  0  0  0  0  0
   -5.9319   -2.4100   -0.8925 H   0  0  0  0  0  0  0  0  0  0  0  0
   -1.5501    2.3673    1.1993 H   0  0  0  0  0  0  0  0  0  0  0  0
   -0.9038    1.1882    0.0087 H   0  0  0  0  0  0  0  0  0  0  0  0
  1  2  2  0
  2  3  1  0
  3  4  1  0
  4  5  2  0
  5  6  1  0
  6  7  1  0
  7  8  1  0
  8  9  1  0
  9 10  1  0
  7 11  2  0
  2 12  1  0
 12 13  1  0
 13 14  1  0
 14 15  1  0
 15 16  2  0
 16 17  1  0
 17 18  2  0
 18 19  1  0
 19 20  2  0
 20 21  1  0
 14 22  1  0
 11  4  1  0
 22 12  1  0
 10  8  1  0
 20 15  1  0
  3 23  1  0
  3 24  1  0
  8 25  1  0
  9 26  1  0
  9 27  1  0
 10 28  1  0
 10 29  1  0
 11 30  1  0
 13 31  1  0
 13 32  1  0
 14 33  1  0
 16 34  1  0
 17 35  1  0
 18 36  1  0
 19 37  1  0
 22 38  1  0
 22 39  1  0
M  END
$$$$
OCNT-2312008
     RDKit          3D

 46 48  0  0  0  0  0  0  0  0999 V2000
   -4.2244    2.3653   -0.6544 C   0  0  0  0  0  0  0  0  0  0  0  0
   -3.7231    1.4598    0.3195 O   0  0  0  0  0  0  0  0  0  0  0  0
   -3.2558    0.1730   -0.1532 C   0  0  0  0  0  0  0  0  0  0  0  0
   -2.0205    0.3311   -1.0918 C   0  0  0  0  0  0  0  0  0  0  0  0
   -1.0397    1.2659   -0.5223 N   0  0  0  0  0  0  0  0  0  0  0  0
    0.1807    0.7876   -0.0393 C   0  0  0  0  0  0  0  0  0  0  0  0
    0.7657    1.4187    1.0688 C   0  0  0  0  0  0  0  0  0  0  0  0
    2.0096    1.0149    1.5627 C   0  0  0  0  0  0  0  0  0  0  0  0
    2.7109   -0.0011    0.9219 C   0  0  0  0  0  0  0  0  0  0  0  0
    3.9159   -0.3769    1.4676 O   0  0  0  0  0  0  0  0  0  0  0  0
    4.9863   -0.5019    0.6112 C   0  0  0  0  0  0  0  0  0  0  0  0
    5.8137   -1.6112    0.7949 C   0  0  0  0  0  0  0  0  0  0  0  0
    6.9374   -1.7841   -0.0158 C   0  0  0  0  0  0  0  0  0  0  0  0
    7.2351   -0.8373   -0.9957 C   0  0  0  0  0  0  0  0  0  0  0  0
    8.6196   -1.0498   -1.9949 Cl  0  0  0  0  0  0  0  0  0  0  0  0
    6.4234    0.2839   -1.1675 C   0  0  0  0  0  0  0  0  0  0  0  0
    5.2994    0.4575   -0.3566 C   0  0  0  0  0  0  0  0  0  0  0  0
    2.1593   -0.6308   -0.1924 C   0  0  0  0  0  0  0  0  0  0  0  0
    0.9129   -0.2199   -0.6788 C   0  0  0  0  0  0  0  0  0  0  0  0
   -2.8492   -0.6094    1.1151 C   0  0  0  0  0  0  0  0  0  0  0  0
   -4.0698   -0.9714    1.9529 C   0  0  0  0  0  0  0  0  0  0  0  0
   -5.0063   -1.7201    1.1786 O   0  0  0  0  0  0  0  0  0  0  0  0
   -5.5011   -0.9640    0.0757 C   0  0  0  0  0  0  0  0  0  0  0  0
   -4.3636   -0.6198   -0.8756 C   0  0  0  0  0  0  0  0  0  0  0  0
   -5.1559    1.9969   -1.0907 H   0  0  0  0  0  0  0  0  0  0  0  0
   -4.4476    3.3086   -0.1475 H   0  0  0  0  0  0  0  0  0  0  0  0
   -3.4906    2.5715   -1.4365 H   0  0  0  0  0  0  0  0  0  0  0  0
   -2.3413    0.7561   -2.0498 H   0  0  0  0  0  0  0  0  0  0  0  0
   -1.6040   -0.6551   -1.3225 H   0  0  0  0  0  0  0  0  0  0  0  0
   -1.4989    1.8903    0.1437 H   0  0  0  0  0  0  0  0  0  0  0  0
    0.2466    2.2319    1.5702 H   0  0  0  0  0  0  0  0  0  0  0  0
    2.4319    1.5032    2.4362 H   0  0  0  0  0  0  0  0  0  0  0  0
    5.5807   -2.3414    1.5654 H   0  0  0  0  0  0  0  0  0  0  0  0
    7.5752   -2.6525    0.1241 H   0  0  0  0  0  0  0  0  0  0  0  0
    6.6619    1.0269   -1.9236 H   0  0  0  0  0  0  0  0  0  0  0  0
    4.6802    1.3419   -0.4818 H   0  0  0  0  0  0  0  0  0  0  0  0
    2.6907   -1.4333   -0.6956 H   0  0  0  0  0  0  0  0  0  0  0  0
    0.5375   -0.6924   -1.5813 H   0  0  0  0  0  0  0  0  0  0  0  0
   -2.1655   -0.0222    1.7384 H   0  0  0  0  0  0  0  0  0  0  0  0
   -2.3360   -1.5346    0.8241 H   0  0  0  0  0  0  0  0  0  0  0  0
   -3.7648   -1.5967    2.7981 H   0  0  0  0  0  0  0  0  0  0  0  0
   -4.5608   -0.0820    2.3650 H   0  0  0  0  0  0  0  0  0  0  0  0
   -6.0174   -0.0688    0.4408 H   0  0  0  0  0  0  0  0  0  0  0  0
   -6.2418   -1.5815   -0.4425 H   0  0  0  0  0  0  0  0  0  0  0  0
   -3.9366   -1.5556   -1.2599 H   0  0  0  0  0  0  0  0  0  0  0  0
   -4.7600   -0.0711   -1.7356 H   0  0  0  0  0  0  0  0  0  0  0  0
  1  2  1  0
  2  3  1  0
  3  4  1  0
  4  5  1  0
  5  6  1  0
  6  7  1  0
  7  8  2  0
  8  9  1  0
  9 10  1  0
 10 11  1  0
 11 12  1  0
 12 13  2  0
 13 14  1  0
 14 15  1  0
 14 16  2  0
 16 17  1  0
  9 18  2  0
 18 19  1  0
  3 20  1  0
 20 21  1  0
 21 22  1  0
 22 23  1  0
 23 24  1  0
 24  3  1  0
 19  6  2  0
 17 11  2  0
  1 25  1  0
  1 26  1  0
  1 27  1  0
  4 28  1  0
  4 29  1  0
  5 30  1  0
  7 31  1  0
  8 32  1  0
 12 33  1  0
 13 34  1  0
 16 35  1  0
 17 36  1  0
 18 37  1  0
 19 38  1  0
 20 39  1  0
 20 40  1  0
 21 41  1  0
 21 42  1  0
 23 43  1  0
 23 44  1  0
 24 45  1  0
 24 46  1  0
M  END
$$$$
OCNT-2312014
     RDKit          3D

 41 43  0  0  0  0  0  0  0  0999 V2000
    7.7153    1.0892    1.2627 C   0  0  0  0  0  0  0  0  0  0  0  0
    6.8022    0.0423    0.7398 C   0  0  0  0  0  0  0  0  0  0  0  0
    7.1235   -1.2672    0.4503 C   0  0  0  0  0  0  0  0  0  0  0  0
    5.7452   -2.0946   -0.1310 S   0  0  0  0  0  0  0  0  0  0  0  0
    4.8032   -0.6590    0.0380 C   0  0  0  0  0  0  0  0  0  0  0  0
    3.3680   -0.6080   -0.3149 C   0  0  0  0  0  0  0  0  0  0  0  0
    2.7041    0.6320   -0.2619 C   0  0  0  0  0  0  0  0  0  0  0  0
    1.3455    0.7509   -0.5801 C   0  0  0  0  0  0  0  0  0  0  0  0
    0.6157   -0.3810   -0.9514 C   0  0  0  0  0  0  0  0  0  0  0  0
   -0.8306   -0.3150   -1.2982 C   0  0  0  0  0  0  0  0  0  0  0  0
   -1.3168   -1.1383   -2.0634 O   0  0  0  0  0  0  0  0  0  0  0  0
   -1.5641    0.6798   -0.6841 N   0  0  0  0  0  0  0  0  0  0  0  0
   -3.0020    0.7832   -0.8747 C   0  0  0  0  0  0  0  0  0  0  0  0
   -3.8165   -0.2157   -0.0298 C   0  0  0  0  0  0  0  0  0  0  0  0
   -3.5227   -0.0795    1.4677 C   0  0  0  0  0  0  0  0  0  0  0  0
   -5.2888   -0.0595   -0.2966 C   0  0  0  0  0  0  0  0  0  0  0  0
   -6.0769   -0.9561   -0.8541 N   0  0  0  0  0  0  0  0  0  0  0  0
   -7.3235   -0.3911   -0.8969 C   0  0  0  0  0  0  0  0  0  0  0  0
   -7.3026    0.8686   -0.3523 C   0  0  0  0  0  0  0  0  0  0  0  0
   -6.0058    1.0688    0.0293 N   0  0  0  0  0  0  0  0  0  0  0  0
    1.2619   -1.6187   -1.0251 C   0  0  0  0  0  0  0  0  0  0  0  0
    2.6215   -1.7315   -0.7054 C   0  0  0  0  0  0  0  0  0  0  0  0
    5.4804    0.3777    0.5000 N   0  0  0  0  0  0  0  0  0  0  0  0
    8.6909    0.6713    1.5309 H   0  0  0  0  0  0  0  0  0  0  0  0
    7.2872    1.5544    2.1563 H   0  0  0  0  0  0  0  0  0  0  0  0
    7.8703    1.8661    0.5075 H   0  0  0  0  0  0  0  0  0  0  0  0
    8.0778   -1.7643    0.5492 H   0  0  0  0  0  0  0  0  0  0  0  0
    3.2568    1.5276    0.0226 H   0  0  0  0  0  0  0  0  0  0  0  0
    0.8898    1.7363   -0.5596 H   0  0  0  0  0  0  0  0  0  0  0  0
   -1.1471    1.1950    0.0788 H   0  0  0  0  0  0  0  0  0  0  0  0
   -3.2723    1.8162   -0.6261 H   0  0  0  0  0  0  0  0  0  0  0  0
   -3.2193    0.6371   -1.9402 H   0  0  0  0  0  0  0  0  0  0  0  0
   -3.5322   -1.2344   -0.3253 H   0  0  0  0  0  0  0  0  0  0  0  0
   -4.1493   -0.7620    2.0532 H   0  0  0  0  0  0  0  0  0  0  0  0
   -2.4778   -0.3215    1.6881 H   0  0  0  0  0  0  0  0  0  0  0  0
   -3.7146    0.9381    1.8261 H   0  0  0  0  0  0  0  0  0  0  0  0
   -8.1674   -0.9231   -1.3165 H   0  0  0  0  0  0  0  0  0  0  0  0
   -8.0720    1.6128   -0.2067 H   0  0  0  0  0  0  0  0  0  0  0  0
   -5.6382    1.8960    0.4776 H   0  0  0  0  0  0  0  0  0  0  0  0
    0.7074   -2.5051   -1.3304 H   0  0  0  0  0  0  0  0  0  0  0  0
    3.0737   -2.7181   -0.7714 H   0  0  0  0  0  0  0  0  0  0  0  0
  1  2  1  0
  2  3  2  0
  3  4  1  0
  4  5  1  0
  5  6  1  0
  6  7  1  0
  7  8  2  0
  8  9  1  0
  9 10  1  0
 10 11  2  0
 10 12  1  0
 12 13  1  0
 13 14  1  0
 14 15  1  0
 14 16  1  0
 16 17  2  0
 17 18  1  0
 18 19  2  0
 19 20  1  0
  9 21  2  0
 21 22  1  0
  5 23  2  0
 23  2  1  0
 22  6  2  0
 20 16  1  0
  1 24  1  0
  1 25  1  0
  1 26  1  0
  3 27  1  0
  7 28  1  0
  8 29  1  0
 12 30  1  0
 13 31  1  0
 13 32  1  0
 14 33  1  0
 15 34  1  0
 15 35  1  0
 15 36  1  0
 18 37  1  0
 19 38  1  0
 20 39  1  0
 21 40  1  0
 22 41  1  0
M  END
$$$$
OCNT-2312015
     RDKit          3D

 51 53  0  0  0  0  0  0  0  0999 V2000
   -6.4222    0.8832   -3.3893 N   0  0  0  0  0  0  0  0  0  0  0  0
   -6.1092    0.3343   -2.4150 C   0  0  0  0  0  0  0  0  0  0  0  0
   -5.7180   -0.3781   -1.2351 C   0  0  0  0  0  0  0  0  0  0  0  0
   -6.3228   -1.6070   -0.9395 C   0  0  0  0  0  0  0  0  0  0  0  0
   -5.9619   -2.3110    0.2125 C   0  0  0  0  0  0  0  0  0  0  0  0
   -5.0013   -1.7886    1.0782 C   0  0  0  0  0  0  0  0  0  0  0  0
   -4.3949   -0.5663    0.7906 C   0  0  0  0  0  0  0  0  0  0  0  0
   -4.7393    0.1258   -0.3720 C   0  0  0  0  0  0  0  0  0  0  0  0
   -4.1391    1.3369   -0.5906 O   0  0  0  0  0  0  0  0  0  0  0  0
   -3.0102    1.2126   -1.4717 C   0  0  0  0  0  0  0  0  0  0  0  0
   -1.7651    1.8505   -0.8254 C   0  0  0  0  0  0  0  0  0  0  0  0
   -1.2399    1.1131    0.3449 N   0  0  0  0  0  0  0  0  0  0  0  0
   -0.2916    1.9461    1.1158 C   0  0  0  0  0  0  0  0  0  0  0  0
    1.0910    2.1306    0.4472 C   0  0  0  0  0  0  0  0  0  0  0  0
    1.7776    0.8684    0.0982 N   0  0  0  0  0  0  0  0  0  0  0  0
    2.3163    0.1924    1.2917 C   0  0  0  0  0  0  0  0  0  0  0  0
    3.7720   -0.2828    1.1047 C   0  0  0  0  0  0  0  0  0  0  0  0
    3.9565   -1.3141   -0.0101 C   0  0  0  0  0  0  0  0  0  0  0  0
    5.4004   -1.8195   -0.0483 C   0  0  0  0  0  0  0  0  0  0  0  0
    6.3452   -0.8841    0.4761 O   0  0  0  0  0  0  0  0  0  0  0  0
    6.0128    0.4615    0.1529 C   0  0  0  0  0  0  0  0  0  0  0  0
    4.7518    0.8884    0.8996 C   0  0  0  0  0  0  0  0  0  0  0  0
    0.8396    0.0077   -0.6557 C   0  0  0  0  0  0  0  0  0  0  0  0
   -0.5680   -0.1503   -0.0231 C   0  0  0  0  0  0  0  0  0  0  0  0
   -7.0827   -2.0203   -1.6005 H   0  0  0  0  0  0  0  0  0  0  0  0
   -6.4370   -3.2627    0.4398 H   0  0  0  0  0  0  0  0  0  0  0  0
   -4.7283   -2.3294    1.9812 H   0  0  0  0  0  0  0  0  0  0  0  0
   -3.6522   -0.1505    1.4681 H   0  0  0  0  0  0  0  0  0  0  0  0
   -2.8182    0.1798   -1.7880 H   0  0  0  0  0  0  0  0  0  0  0  0
   -3.2563    1.7796   -2.3775 H   0  0  0  0  0  0  0  0  0  0  0  0
   -0.9933    1.9795   -1.5923 H   0  0  0  0  0  0  0  0  0  0  0  0
   -2.0640    2.8544   -0.4966 H   0  0  0  0  0  0  0  0  0  0  0  0
   -0.1537    1.4789    2.0996 H   0  0  0  0  0  0  0  0  0  0  0  0
   -0.7320    2.9290    1.3240 H   0  0  0  0  0  0  0  0  0  0  0  0
    1.7328    2.7447    1.0915 H   0  0  0  0  0  0  0  0  0  0  0  0
    0.9706    2.7168   -0.4729 H   0  0  0  0  0  0  0  0  0  0  0  0
    2.3145    0.8693    2.1569 H   0  0  0  0  0  0  0  0  0  0  0  0
    1.6958   -0.6607    1.5923 H   0  0  0  0  0  0  0  0  0  0  0  0
    4.0544   -0.7782    2.0456 H   0  0  0  0  0  0  0  0  0  0  0  0
    3.2717   -2.1616    0.1052 H   0  0  0  0  0  0  0  0  0  0  0  0
    3.7259   -0.8553   -0.9800 H   0  0  0  0  0  0  0  0  0  0  0  0
    5.4915   -2.7303    0.5529 H   0  0  0  0  0  0  0  0  0  0  0  0
    5.6881   -2.0798   -1.0730 H   0  0  0  0  0  0  0  0  0  0  0  0
    5.8848    0.5561   -0.9324 H   0  0  0  0  0  0  0  0  0  0  0  0
    6.8523    1.1040    0.4373 H   0  0  0  0  0  0  0  0  0  0  0  0
    4.2976    1.7302    0.3657 H   0  0  0  0  0  0  0  0  0  0  0  0
    5.0300    1.2728    1.8894 H   0  0  0  0  0  0  0  0  0  0  0  0
    1.2722   -0.9868   -0.8131 H   0  0  0  0  0  0  0  0  0  0  0  0
    0.7303    0.4339   -1.6610 H   0  0  0  0  0  0  0  0  0  0  0  0
   -1.1959   -0.7508   -0.6896 H   0  0  0  0  0  0  0  0  0  0  0  0
   -0.4787   -0.7519    0.8906 H   0  0  0  0  0  0  0  0  0  0  0  0
  1  2  3  0
  2  3  1  0
  3  4  2  0
  4  5  1  0
  5  6  2  0
  6  7  1  0
  7  8  2  0
  8  9  1  0
  9 10  1  0
 10 11  1  0
 11 12  1  0
 12 13  1  0
 13 14  1  0
 14 15  1  0
 15 16  1  0
 16 17  1  0
 17 18  1  0
 18 19  1  0
 19 20  1  0
 20 21  1  0
 21 22  1  0
 15 23  1  0
 23 24  1  0
  8  3  1  0
 24 12  1  0
 22 17  1  0
  4 25  1  0
  5 26  1  0
  6 27  1  0
  7 28  1  0
 10 29  1  0
 10 30  1  0
 11 31  1  0
 11 32  1  0
 13 33  1  0
 13 34  1  0
 14 35  1  0
 14 36  1  0
 16 37  1  0
 16 38  1  0
 17 39  1  0
 18 40  1  0
 18 41  1  0
 19 42  1  0
 19 43  1  0
 21 44  1  0
 21 45  1  0
 22 46  1  0
 22 47  1  0
 23 48  1  0
 23 49  1  0
 24 50  1  0
 24 51  1  0
M  END
$$$$
OCNT-2312016
     RDKit          3D

 51 54  0  0  0  0  0  0  0  0999 V2000
    0.0943   -0.3141    1.7654 C   0  0  0  0  0  0  0  0  0  0  0  0
   -0.4858   -0.4629    0.3347 C   0  0  0  0  0  0  0  0  0  0  0  0
   -0.0115   -1.8465   -0.1774 C   0  0  0  0  0  0  0  0  0  0  0  0
    0.0939    0.6712   -0.5763 C   0  0  0  0  0  0  0  0  0  0  0  0
    1.5494    0.7413   -0.6213 N   0  0  0  0  0  0  0  0  0  0  0  0
    2.2653    0.2693   -1.7000 C   0  0  0  0  0  0  0  0  0  0  0  0
    1.7774   -0.3082   -2.6618 O   0  0  0  0  0  0  0  0  0  0  0  0
    3.7113    0.5755   -1.6899 C   0  0  0  0  0  0  0  0  0  0  0  0
    4.2018    1.2776   -2.7885 C   0  0  0  0  0  0  0  0  0  0  0  0
    5.5336    1.6241   -2.7780 C   0  0  0  0  0  0  0  0  0  0  0  0
    6.3764    1.3200   -1.7674 N   0  0  0  0  0  0  0  0  0  0  0  0
    5.9077    0.6118   -0.7244 C   0  0  0  0  0  0  0  0  0  0  0  0
    6.7820    0.2793    0.2938 C   0  0  0  0  0  0  0  0  0  0  0  0
    6.3285   -0.4620    1.3688 C   0  0  0  0  0  0  0  0  0  0  0  0
    5.0620   -0.8991    1.4861 N   0  0  0  0  0  0  0  0  0  0  0  0
    4.2190   -0.5761    0.4817 C   0  0  0  0  0  0  0  0  0  0  0  0
    4.5705    0.1963   -0.6352 C   0  0  0  0  0  0  0  0  0  0  0  0
   -1.9847   -0.4738    0.3902 N   0  0  0  0  0  0  0  0  0  0  0  0
   -2.6439   -0.5551   -0.9271 C   0  0  0  0  0  0  0  0  0  0  0  0
   -4.1203   -0.9443   -0.7720 C   0  0  0  0  0  0  0  0  0  0  0  0
   -4.8378   -0.0595    0.2103 C   0  0  0  0  0  0  0  0  0  0  0  0
   -6.2376    0.0011    0.2182 C   0  0  0  0  0  0  0  0  0  0  0  0
   -6.9022    0.7999    1.1477 C   0  0  0  0  0  0  0  0  0  0  0  0
   -6.1745    1.5368    2.0786 C   0  0  0  0  0  0  0  0  0  0  0  0
   -4.7807    1.4717    2.0841 C   0  0  0  0  0  0  0  0  0  0  0  0
   -4.0994    0.6647    1.1596 C   0  0  0  0  0  0  0  0  0  0  0  0
   -2.5824    0.6339    1.1667 C   0  0  0  0  0  0  0  0  0  0  0  0
    1.1723   -0.5059    1.7872 H   0  0  0  0  0  0  0  0  0  0  0  0
   -0.0530    0.6957    2.1640 H   0  0  0  0  0  0  0  0  0  0  0  0
   -0.3677   -1.0288    2.4570 H   0  0  0  0  0  0  0  0  0  0  0  0
    1.0667   -1.9802   -0.0369 H   0  0  0  0  0  0  0  0  0  0  0  0
   -0.5052   -2.6598    0.3680 H   0  0  0  0  0  0  0  0  0  0  0  0
   -0.2075   -1.9869   -1.2449 H   0  0  0  0  0  0  0  0  0  0  0  0
   -0.2340    1.6523   -0.2160 H   0  0  0  0  0  0  0  0  0  0  0  0
   -0.2760    0.5654   -1.6019 H   0  0  0  0  0  0  0  0  0  0  0  0
    2.0152    1.3084    0.0770 H   0  0  0  0  0  0  0  0  0  0  0  0
    3.5602    1.5506   -3.6198 H   0  0  0  0  0  0  0  0  0  0  0  0
    5.9777    2.1769   -3.6015 H   0  0  0  0  0  0  0  0  0  0  0  0
    7.8186    0.5950    0.2449 H   0  0  0  0  0  0  0  0  0  0  0  0
    6.9953   -0.7360    2.1815 H   0  0  0  0  0  0  0  0  0  0  0  0
    3.2202   -0.9845    0.6026 H   0  0  0  0  0  0  0  0  0  0  0  0
   -2.5694    0.4032   -1.4580 H   0  0  0  0  0  0  0  0  0  0  0  0
   -2.1851   -1.3130   -1.5684 H   0  0  0  0  0  0  0  0  0  0  0  0
   -4.6058   -0.8819   -1.7532 H   0  0  0  0  0  0  0  0  0  0  0  0
   -4.1955   -1.9822   -0.4243 H   0  0  0  0  0  0  0  0  0  0  0  0
   -6.8152   -0.5762   -0.4999 H   0  0  0  0  0  0  0  0  0  0  0  0
   -7.9880    0.8445    1.1472 H   0  0  0  0  0  0  0  0  0  0  0  0
   -6.6925    2.1597    2.8029 H   0  0  0  0  0  0  0  0  0  0  0  0
   -4.2259    2.0516    2.8181 H   0  0  0  0  0  0  0  0  0  0  0  0
   -2.2823    0.5400    2.2161 H   0  0  0  0  0  0  0  0  0  0  0  0
   -2.2355    1.6039    0.7917 H   0  0  0  0  0  0  0  0  0  0  0  0
  1  2  1  0
  2  3  1  0
  2  4  1  0
  4  5  1  0
  5  6  1  0
  6  7  2  0
  6  8  1  0
  8  9  2  0
  9 10  1  0
 10 11  2  0
 11 12  1  0
 12 13  2  0
 13 14  1  0
 14 15  2  0
 15 16  1  0
 16 17  2  0
  2 18  1  0
 18 19  1  0
 19 20  1  0
 20 21  1  0
 21 22  2  0
 22 23  1  0
 23 24  2  0
 24 25  1  0
 25 26  2  0
 26 27  1  0
 17  8  1  0
 27 18  1  0
 17 12  1  0
 26 21  1  0
  1 28  1  0
  1 29  1  0
  1 30  1  0
  3 31  1  0
  3 32  1  0
  3 33  1  0
  4 34  1  0
  4 35  1  0
  5 36  1  0
  9 37  1  0
 10 38  1  0
 13 39  1  0
 14 40  1  0
 16 41  1  0
 19 42  1  0
 19 43  1  0
 20 44  1  0
 20 45  1  0
 22 46  1  0
 23 47  1  0
 24 48  1  0
 25 49  1  0
 27 50  1  0
 27 51  1  0
M  END
$$$$
OCNT-2312020
     RDKit          3D

 41 44  0  0  0  0  0  0  0  0999 V2000
    1.1537    1.2514   -1.7490 O   0  0  0  0  0  0  0  0  0  0  0  0
    1.5982    0.2339   -1.2317 C   0  0  0  0  0  0  0  0  0  0  0  0
    0.9593   -0.9857   -1.2765 N   0  0  0  0  0  0  0  0  0  0  0  0
   -0.3066   -1.1670   -1.9697 C   0  0  0  0  0  0  0  0  0  0  0  0
   -1.5323   -1.0316   -1.0384 C   0  0  0  0  0  0  0  0  0  0  0  0
   -1.7401    0.4274   -0.5789 C   0  0  0  0  0  0  0  0  0  0  0  0
   -3.0789    0.6445    0.0875 C   0  0  0  0  0  0  0  0  0  0  0  0
   -3.3195    1.8269    0.8001 C   0  0  0  0  0  0  0  0  0  0  0  0
   -4.5599    2.0499    1.3963 C   0  0  0  0  0  0  0  0  0  0  0  0
   -5.5692    1.0970    1.2819 C   0  0  0  0  0  0  0  0  0  0  0  0
   -5.3418   -0.0787    0.5657 C   0  0  0  0  0  0  0  0  0  0  0  0
   -4.1027   -0.3097   -0.0489 C   0  0  0  0  0  0  0  0  0  0  0  0
   -3.8614   -1.6017   -0.7912 C   0  0  0  0  0  0  0  0  0  0  0  0
   -2.7381   -1.5334   -1.7355 N   0  0  0  0  0  0  0  0  0  0  0  0
    2.9069    0.2730   -0.5252 C   0  0  0  0  0  0  0  0  0  0  0  0
    3.8546    1.2116   -0.9545 C   0  0  0  0  0  0  0  0  0  0  0  0
    5.0987    1.3064   -0.3295 C   0  0  0  0  0  0  0  0  0  0  0  0
    6.2654    2.4469   -0.8594 Cl  0  0  0  0  0  0  0  0  0  0  0  0
    5.3577    0.4454    0.7370 C   0  0  0  0  0  0  0  0  0  0  0  0
    6.4537    0.2940    1.5448 N   0  0  0  0  0  0  0  0  0  0  0  0
    6.3118   -0.6568    2.4858 N   0  0  0  0  0  0  0  0  0  0  0  0
    5.0793   -1.1244    2.2747 C   0  0  0  0  0  0  0  0  0  0  0  0
    4.4314   -0.4847    1.1945 C   0  0  0  0  0  0  0  0  0  0  0  0
    3.1779   -0.5779    0.5623 C   0  0  0  0  0  0  0  0  0  0  0  0
    1.4297   -1.8180   -0.9487 H   0  0  0  0  0  0  0  0  0  0  0  0
   -0.2713   -2.1785   -2.3916 H   0  0  0  0  0  0  0  0  0  0  0  0
   -0.3718   -0.4638   -2.8083 H   0  0  0  0  0  0  0  0  0  0  0  0
   -1.3537   -1.6640   -0.1570 H   0  0  0  0  0  0  0  0  0  0  0  0
   -1.6827    1.1063   -1.4392 H   0  0  0  0  0  0  0  0  0  0  0  0
   -0.9460    0.7008    0.1259 H   0  0  0  0  0  0  0  0  0  0  0  0
   -2.5396    2.5798    0.8904 H   0  0  0  0  0  0  0  0  0  0  0  0
   -4.7387    2.9681    1.9496 H   0  0  0  0  0  0  0  0  0  0  0  0
   -6.5344    1.2698    1.7504 H   0  0  0  0  0  0  0  0  0  0  0  0
   -6.1383   -0.8152    0.4878 H   0  0  0  0  0  0  0  0  0  0  0  0
   -4.7594   -1.8703   -1.3596 H   0  0  0  0  0  0  0  0  0  0  0  0
   -3.6845   -2.4047   -0.0653 H   0  0  0  0  0  0  0  0  0  0  0  0
   -2.9910   -0.8631   -2.4639 H   0  0  0  0  0  0  0  0  0  0  0  0
    3.6181    1.8735   -1.7866 H   0  0  0  0  0  0  0  0  0  0  0  0
    7.3253    0.8120    1.5038 H   0  0  0  0  0  0  0  0  0  0  0  0
    4.7029   -1.9129    2.9141 H   0  0  0  0  0  0  0  0  0  0  0  0
    2.4376   -1.2766    0.9378 H   0  0  0  0  0  0  0  0  0  0  0  0
  1  2  2  0
  2  3  1  0
  3  4  1  0
  4  5  1  0
  5  6  1  0
  6  7  1  0
  7  8  2  0
  8  9  1  0
  9 10  2  0
 10 11  1  0
 11 12  2  0
 12 13  1  0
 13 14  1  0
  2 15  1  0
 15 16  2  0
 16 17  1  0
 17 18  1  0
 17 19  2  0
 19 20  1  0
 20 21  1  0
 21 22  2  0
 22 23  1  0
 23 24  2  0
 14  5  1  0
 24 15  1  0
 12  7  1  0
 23 19  1  0
  3 25  1  0
  4 26  1  0
  4 27  1  0
  5 28  1  0
  6 29  1  0
  6 30  1  0
  8 31  1  0
  9 32  1  0
 10 33  1  0
 11 34  1  0
 13 35  1  0
 13 36  1  0
 14 37  1  0
 16 38  1  0
 20 39  1  0
 22 40  1  0
 24 41  1  0
M  END
$$$$
OCNT-2312021
     RDKit          3D

 42 45  0  0  0  0  0  0  0  0999 V2000
    3.2053   -2.6233    0.5881 C   0  0  0  0  0  0  0  0  0  0  0  0
    2.3267   -2.1362   -0.4493 N   0  0  0  0  0  0  0  0  0  0  0  0
    2.4453   -2.3489   -1.7933 C   0  0  0  0  0  0  0  0  0  0  0  0
    1.4186   -1.6478   -2.3782 C   0  0  0  0  0  0  0  0  0  0  0  0
    0.7117   -1.0555   -1.2979 C   0  0  0  0  0  0  0  0  0  0  0  0
   -0.5143   -0.1704   -1.3814 C   0  0  0  0  0  0  0  0  0  0  0  0
   -0.4657    1.1883   -0.8171 N   0  0  0  0  0  0  0  0  0  0  0  0
   -0.5959    1.3199    0.6355 C   0  0  0  0  0  0  0  0  0  0  0  0
   -1.9999    0.9944    1.0537 C   0  0  0  0  0  0  0  0  0  0  0  0
   -2.3190    1.0886    2.5019 C   0  0  0  0  0  0  0  0  0  0  0  0
   -1.3367    1.3930    3.4157 F   0  0  0  0  0  0  0  0  0  0  0  0
   -3.4745    1.7069    2.9174 F   0  0  0  0  0  0  0  0  0  0  0  0
   -2.3647   -0.2317    1.8487 C   0  0  0  0  0  0  0  0  0  0  0  0
   -1.5340   -1.4095    2.1890 C   0  0  0  0  0  0  0  0  0  0  0  0
   -2.8710   -2.0727    2.5831 C   0  0  0  0  0  0  0  0  0  0  0  0
   -3.5764   -1.0627    1.6580 C   0  0  0  0  0  0  0  0  0  0  0  0
    0.5178    1.9843   -1.4069 C   0  0  0  0  0  0  0  0  0  0  0  0
    0.7977    1.8008   -2.7171 N   0  0  0  0  0  0  0  0  0  0  0  0
    1.7391    2.5928   -3.2835 C   0  0  0  0  0  0  0  0  0  0  0  0
    2.3962    3.5793   -2.6028 C   0  0  0  0  0  0  0  0  0  0  0  0
    3.3196    4.3541   -3.1756 F   0  0  0  0  0  0  0  0  0  0  0  0
    2.0414    3.7248   -1.2902 C   0  0  0  0  0  0  0  0  0  0  0  0
    1.1142    2.9492   -0.6811 N   0  0  0  0  0  0  0  0  0  0  0  0
    1.2595   -1.3889   -0.1158 N   0  0  0  0  0  0  0  0  0  0  0  0
    3.8561   -3.3983    0.1721 H   0  0  0  0  0  0  0  0  0  0  0  0
    3.8036   -1.7846    0.9525 H   0  0  0  0  0  0  0  0  0  0  0  0
    2.5940   -3.0450    1.3933 H   0  0  0  0  0  0  0  0  0  0  0  0
    3.2459   -2.9332   -2.2179 H   0  0  0  0  0  0  0  0  0  0  0  0
    1.2227   -1.5432   -3.4377 H   0  0  0  0  0  0  0  0  0  0  0  0
   -1.3357   -0.7214   -0.9037 H   0  0  0  0  0  0  0  0  0  0  0  0
   -0.8302   -0.1088   -2.4316 H   0  0  0  0  0  0  0  0  0  0  0  0
    0.1419    0.7049    1.1618 H   0  0  0  0  0  0  0  0  0  0  0  0
   -0.4352    2.3572    0.9591 H   0  0  0  0  0  0  0  0  0  0  0  0
   -2.7373    1.4249    0.3877 H   0  0  0  0  0  0  0  0  0  0  0  0
   -1.0511   -1.8936    1.3315 H   0  0  0  0  0  0  0  0  0  0  0  0
   -0.8171   -1.3153    3.0093 H   0  0  0  0  0  0  0  0  0  0  0  0
   -2.9798   -3.1287    2.3048 H   0  0  0  0  0  0  0  0  0  0  0  0
   -3.1246   -1.9596    3.6450 H   0  0  0  0  0  0  0  0  0  0  0  0
   -3.7189   -1.4083    0.6258 H   0  0  0  0  0  0  0  0  0  0  0  0
   -4.5225   -0.6660    2.0409 H   0  0  0  0  0  0  0  0  0  0  0  0
    1.9421    2.4101   -4.3325 H   0  0  0  0  0  0  0  0  0  0  0  0
    2.5054    4.4801   -0.6611 H   0  0  0  0  0  0  0  0  0  0  0  0
  1  2  1  0
  2  3  1  0
  3  4  2  0
  4  5  1  0
  5  6  1  0
  6  7  1  0
  7  8  1  0
  8  9  1  0
  9 10  1  0
 10 11  1  0
 10 12  1  0
 10 13  1  0
 13 14  1  0
 14 15  1  0
 15 16  1  0
  7 17  1  0
 17 18  2  0
 18 19  1  0
 19 20  2  0
 20 21  1  0
 20 22  1  0
 22 23  2  0
  5 24  2  0
 24  2  1  0
 13  9  1  0
 23 17  1  0
 16 13  1  0
  1 25  1  0
  1 26  1  0
  1 27  1  0
  3 28  1  0
  4 29  1  0
  6 30  1  0
  6 31  1  0
  8 32  1  0
  8 33  1  0
  9 34  1  0
 14 35  1  0
 14 36  1  0
 15 37  1  0
 15 38  1  0
 16 39  1  0
 16 40  1  0
 19 41  1  0
 22 42  1  0
M  END
$$$$
OCNT-2312024
     RDKit          3D

 48 52  0  0  0  0  0  0  0  0999 V2000
    5.9816    2.0708    1.5883 N   0  0  0  0  0  0  0  0  0  0  0  0
    5.7567    1.4072    0.6636 C   0  0  0  0  0  0  0  0  0  0  0  0
    5.4643    0.5705   -0.4850 C   0  0  0  0  0  0  0  0  0  0  0  0
    4.6870   -0.7427   -0.1642 C   0  0  0  0  0  0  0  0  0  0  0  0
    3.4359   -0.0437   -0.6469 C   0  0  0  0  0  0  0  0  0  0  0  0
    4.2424    1.0214   -1.3420 C   0  0  0  0  0  0  0  0  0  0  0  0
    2.4056   -0.8327   -1.4079 C   0  0  0  0  0  0  0  0  0  0  0  0
    1.5581   -0.8590   -0.0899 C   0  0  0  0  0  0  0  0  0  0  0  0
    0.0230   -0.6690   -0.2411 C   0  0  0  0  0  0  0  0  0  0  0  0
   -0.5538   -0.9403   -1.2990 O   0  0  0  0  0  0  0  0  0  0  0  0
   -0.6518   -0.1428    0.8795 N   0  0  0  0  0  0  0  0  0  0  0  0
   -0.3097   -0.7446    2.1824 C   0  0  0  0  0  0  0  0  0  0  0  0
   -0.9560   -2.1447    2.3455 C   0  0  0  0  0  0  0  0  0  0  0  0
   -2.2842   -2.2158    1.6338 C   0  0  0  0  0  0  0  0  0  0  0  0
   -2.8190   -1.1986    0.8470 C   0  0  0  0  0  0  0  0  0  0  0  0
   -4.0029   -1.6582    0.1853 C   0  0  0  0  0  0  0  0  0  0  0  0
   -4.3434   -2.9460    0.5419 C   0  0  0  0  0  0  0  0  0  0  0  0
   -3.2309   -3.6268    1.6459 S   0  0  0  0  0  0  0  0  0  0  0  0
   -2.1006    0.1390    0.7940 C   0  0  0  0  0  0  0  0  0  0  0  0
   -2.6751    1.1139   -0.2212 C   0  0  0  0  0  0  0  0  0  0  0  0
   -1.9397    1.6899   -1.2672 C   0  0  0  0  0  0  0  0  0  0  0  0
   -2.5122    2.6297   -2.1331 C   0  0  0  0  0  0  0  0  0  0  0  0
   -3.8292    3.0395   -1.9559 C   0  0  0  0  0  0  0  0  0  0  0  0
   -4.5726    2.5199   -0.9040 C   0  0  0  0  0  0  0  0  0  0  0  0
   -3.9982    1.5806   -0.0432 C   0  0  0  0  0  0  0  0  0  0  0  0
    2.4081    0.3677    0.3813 C   0  0  0  0  0  0  0  0  0  0  0  0
    6.3609    0.3920   -1.0914 H   0  0  0  0  0  0  0  0  0  0  0  0
    4.6932   -1.0705    0.8803 H   0  0  0  0  0  0  0  0  0  0  0  0
    5.0033   -1.5875   -0.7881 H   0  0  0  0  0  0  0  0  0  0  0  0
    4.3856    0.8477   -2.4154 H   0  0  0  0  0  0  0  0  0  0  0  0
    3.9064    2.0541   -1.2053 H   0  0  0  0  0  0  0  0  0  0  0  0
    2.7149   -1.8138   -1.7796 H   0  0  0  0  0  0  0  0  0  0  0  0
    1.9381   -0.2790   -2.2308 H   0  0  0  0  0  0  0  0  0  0  0  0
    1.7879   -1.7679    0.4861 H   0  0  0  0  0  0  0  0  0  0  0  0
    0.7716   -0.8216    2.3196 H   0  0  0  0  0  0  0  0  0  0  0  0
   -0.6714   -0.0700    2.9685 H   0  0  0  0  0  0  0  0  0  0  0  0
   -0.2877   -2.8937    1.9017 H   0  0  0  0  0  0  0  0  0  0  0  0
   -1.0616   -2.3826    3.4095 H   0  0  0  0  0  0  0  0  0  0  0  0
   -4.5843   -1.0838   -0.5255 H   0  0  0  0  0  0  0  0  0  0  0  0
   -5.1881   -3.5249    0.1949 H   0  0  0  0  0  0  0  0  0  0  0  0
   -2.3248    0.6409    1.7496 H   0  0  0  0  0  0  0  0  0  0  0  0
   -0.9003    1.4298   -1.4365 H   0  0  0  0  0  0  0  0  0  0  0  0
   -1.9194    3.0428   -2.9453 H   0  0  0  0  0  0  0  0  0  0  0  0
   -4.2691    3.7689   -2.6301 H   0  0  0  0  0  0  0  0  0  0  0  0
   -5.5971    2.8466   -0.7472 H   0  0  0  0  0  0  0  0  0  0  0  0
   -4.5997    1.2083    0.7854 H   0  0  0  0  0  0  0  0  0  0  0  0
    2.7258    0.3433    1.4275 H   0  0  0  0  0  0  0  0  0  0  0  0
    1.9327    1.3359    0.1840 H   0  0  0  0  0  0  0  0  0  0  0  0
  1  2  3  0
  2  3  1  0
  3  4  1  0
  4  5  1  0
  5  6  1  0
  5  7  1  0
  7  8  1  0
  8  9  1  0
  9 10  2  0
  9 11  1  0
 11 12  1  0
 12 13  1  0
 13 14  1  0
 14 15  2  0
 15 16  1  0
 16 17  2  0
 17 18  1  0
 15 19  1  0
 19 20  1  0
 20 21  2  0
 21 22  1  0
 22 23  2  0
 23 24  1  0
 24 25  2  0
  8 26  1  0
  6  3  1  0
 19 11  1  0
 25 20  1  0
 26  5  1  0
 18 14  1  0
  3 27  1  0
  4 28  1  0
  4 29  1  0
  6 30  1  0
  6 31  1  0
  7 32  1  0
  7 33  1  0
  8 34  1  0
 12 35  1  0
 12 36  1  0
 13 37  1  0
 13 38  1  0
 16 39  1  0
 17 40  1  0
 19 41  1  0
 21 42  1  0
 22 43  1  0
 23 44  1  0
 24 45  1  0
 25 46  1  0
 26 47  1  0
 26 48  1  0
M  END
$$$$
OCNT-2312038
     RDKit          3D

 36 38  0  0  0  0  0  0  0  0999 V2000
   -0.1424   -1.9803   -2.2763 O   0  0  0  0  0  0  0  0  0  0  0  0
    0.2302   -1.7368   -1.1325 C   0  0  0  0  0  0  0  0  0  0  0  0
    1.4884   -1.2290   -0.9105 N   0  0  0  0  0  0  0  0  0  0  0  0
    2.1716   -1.4576    0.3654 C   0  0  0  0  0  0  0  0  0  0  0  0
    3.4512   -0.6262    0.5114 C   0  0  0  0  0  0  0  0  0  0  0  0
    3.2018    0.8446    0.3457 C   0  0  0  0  0  0  0  0  0  0  0  0
    2.6270    1.6060    1.2512 N   0  0  0  0  0  0  0  0  0  0  0  0
    2.5313    2.9010    0.7847 C   0  0  0  0  0  0  0  0  0  0  0  0
    3.0433    3.1174   -0.4752 C   0  0  0  0  0  0  0  0  0  0  0  0
    3.6696    1.6519   -1.1029 S   0  0  0  0  0  0  0  0  0  0  0  0
    1.2366   -1.2622    1.5778 C   0  0  0  0  0  0  0  0  0  0  0  0
    1.6220   -1.1770    2.7394 O   0  0  0  0  0  0  0  0  0  0  0  0
   -0.1101   -1.3481    1.3038 N   0  0  0  0  0  0  0  0  0  0  0  0
   -0.5748   -2.0929    0.1352 C   0  0  0  0  0  0  0  0  0  0  0  0
   -2.0895   -1.9457   -0.0963 C   0  0  0  0  0  0  0  0  0  0  0  0
   -2.5715   -0.5219   -0.2838 C   0  0  0  0  0  0  0  0  0  0  0  0
   -2.9650    0.2519    0.8182 C   0  0  0  0  0  0  0  0  0  0  0  0
   -3.3912    1.5700    0.6395 C   0  0  0  0  0  0  0  0  0  0  0  0
   -3.8688    2.5011    2.0062 Cl  0  0  0  0  0  0  0  0  0  0  0  0
   -3.4352    2.1376   -0.6299 C   0  0  0  0  0  0  0  0  0  0  0  0
   -3.0495    1.3733   -1.7268 C   0  0  0  0  0  0  0  0  0  0  0  0
   -3.0998    2.0622   -3.3034 Cl  0  0  0  0  0  0  0  0  0  0  0  0
   -2.6225    0.0538   -1.5621 C   0  0  0  0  0  0  0  0  0  0  0  0
    2.0363   -1.1417   -1.7584 H   0  0  0  0  0  0  0  0  0  0  0  0
    2.4434   -2.5217    0.3746 H   0  0  0  0  0  0  0  0  0  0  0  0
    3.9070   -0.7940    1.4949 H   0  0  0  0  0  0  0  0  0  0  0  0
    4.1853   -0.9674   -0.2299 H   0  0  0  0  0  0  0  0  0  0  0  0
    2.0741    3.6565    1.4121 H   0  0  0  0  0  0  0  0  0  0  0  0
    3.0786    4.0387   -1.0382 H   0  0  0  0  0  0  0  0  0  0  0  0
   -0.6676   -1.3648    2.1487 H   0  0  0  0  0  0  0  0  0  0  0  0
   -0.3555   -3.1495    0.3391 H   0  0  0  0  0  0  0  0  0  0  0  0
   -2.3979   -2.5411   -0.9655 H   0  0  0  0  0  0  0  0  0  0  0  0
   -2.6254   -2.3792    0.7590 H   0  0  0  0  0  0  0  0  0  0  0  0
   -2.9391   -0.1678    1.8211 H   0  0  0  0  0  0  0  0  0  0  0  0
   -3.7663    3.1631   -0.7632 H   0  0  0  0  0  0  0  0  0  0  0  0
   -2.3255   -0.5242   -2.4362 H   0  0  0  0  0  0  0  0  0  0  0  0
  1  2  2  0
  2  3  1  0
  3  4  1  0
  4  5  1  0
  5  6  1  0
  6  7  2  0
  7  8  1  0
  8  9  2  0
  9 10  1  0
  4 11  1  0
 11 12  2  0
 11 13  1  0
 13 14  1  0
 14 15  1  0
 15 16  1  0
 16 17  2  0
 17 18  1  0
 18 19  1  0
 18 20  2  0
 20 21  1  0
 21 22  1  0
 21 23  2  0
 14  2  1  0
 23 16  1  0
 10  6  1  0
  3 24  1  0
  4 25  1  0
  5 26  1  0
  5 27  1  0
  8 28  1  0
  9 29  1  0
 13 30  1  0
 14 31  1  0
 15 32  1  0
 15 33  1  0
 17 34  1  0
 20 35  1  0
 23 36  1  0
M  END
$$$$
OCNT-2312044
     RDKit          3D

 39 41  0  0  0  0  0  0  0  0999 V2000
   -4.0187   -3.2354   -2.4938 N   0  0  0  0  0  0  0  0  0  0  0  0
   -3.7507   -2.3770   -1.7575 C   0  0  0  0  0  0  0  0  0  0  0  0
   -3.4715   -1.3060   -0.8411 C   0  0  0  0  0  0  0  0  0  0  0  0
   -4.5030   -0.6129   -0.2277 C   0  0  0  0  0  0  0  0  0  0  0  0
   -4.1728    0.4184    0.6525 C   0  0  0  0  0  0  0  0  0  0  0  0
   -5.2375    1.1920    1.3801 C   0  0  0  0  0  0  0  0  0  0  0  0
   -6.4167    1.2321    0.7008 F   0  0  0  0  0  0  0  0  0  0  0  0
   -4.8925    2.4890    1.6050 F   0  0  0  0  0  0  0  0  0  0  0  0
   -5.5224    0.6577    2.5973 F   0  0  0  0  0  0  0  0  0  0  0  0
   -2.8179    0.6907    0.8772 C   0  0  0  0  0  0  0  0  0  0  0  0
   -1.8324   -0.0449    0.2181 C   0  0  0  0  0  0  0  0  0  0  0  0
   -0.4737    0.2595    0.4736 N   0  0  0  0  0  0  0  0  0  0  0  0
   -0.1091    1.5286   -0.1778 C   0  0  0  0  0  0  0  0  0  0  0  0
    1.2830    2.0221    0.2147 C   0  0  0  0  0  0  0  0  0  0  0  0
    2.4028    1.2326   -0.4649 C   0  0  0  0  0  0  0  0  0  0  0  0
    2.8232   -0.0057    0.1967 N   0  0  0  0  0  0  0  0  0  0  0  0
    3.6372   -0.8536   -0.6928 C   0  0  0  0  0  0  0  0  0  0  0  0
    5.0795   -0.4961   -0.9328 C   0  0  0  0  0  0  0  0  0  0  0  0
    4.7358   -1.6952   -0.1011 C   0  0  0  0  0  0  0  0  0  0  0  0
    1.7627   -0.7560    0.8869 C   0  0  0  0  0  0  0  0  0  0  0  0
    0.4089   -0.8872    0.1628 C   0  0  0  0  0  0  0  0  0  0  0  0
   -2.1602   -1.0380   -0.6324 N   0  0  0  0  0  0  0  0  0  0  0  0
   -5.5410   -0.8696   -0.4255 H   0  0  0  0  0  0  0  0  0  0  0  0
   -2.5248    1.4655    1.5828 H   0  0  0  0  0  0  0  0  0  0  0  0
   -0.1851    1.4363   -1.2699 H   0  0  0  0  0  0  0  0  0  0  0  0
   -0.8117    2.3175    0.1208 H   0  0  0  0  0  0  0  0  0  0  0  0
    1.4096    2.0394    1.3037 H   0  0  0  0  0  0  0  0  0  0  0  0
    1.3675    3.0646   -0.1191 H   0  0  0  0  0  0  0  0  0  0  0  0
    2.1149    1.0334   -1.5059 H   0  0  0  0  0  0  0  0  0  0  0  0
    3.2838    1.8851   -0.5151 H   0  0  0  0  0  0  0  0  0  0  0  0
    3.1023   -1.2852   -1.5377 H   0  0  0  0  0  0  0  0  0  0  0  0
    5.4836   -0.6627   -1.9240 H   0  0  0  0  0  0  0  0  0  0  0  0
    5.4910    0.3673   -0.4232 H   0  0  0  0  0  0  0  0  0  0  0  0
    4.9132   -1.6356    0.9665 H   0  0  0  0  0  0  0  0  0  0  0  0
    4.9059   -2.6767   -0.5266 H   0  0  0  0  0  0  0  0  0  0  0  0
    2.1328   -1.7668    1.1049 H   0  0  0  0  0  0  0  0  0  0  0  0
    1.6062   -0.3007    1.8735 H   0  0  0  0  0  0  0  0  0  0  0  0
   -0.0467   -1.8117    0.5447 H   0  0  0  0  0  0  0  0  0  0  0  0
    0.5446   -1.0146   -0.9192 H   0  0  0  0  0  0  0  0  0  0  0  0
  1  2  3  0
  2  3  1  0
  3  4  1  0
  4  5  2  0
  5  6  1  0
  6  7  1  0
  6  8  1  0
  6  9  1  0
  5 10  1  0
 10 11  2  0
 11 12  1  0
 12 13  1  0
 13 14  1  0
 14 15  1  0
 15 16  1  0
 16 17  1  0
 17 18  1  0
 18 19  1  0
 16 20  1  0
 20 21  1  0
 11 22  1  0
 22  3  2  0
 21 12  1  0
 19 17  1  0
  4 23  1  0
 10 24  1  0
 13 25  1  0
 13 26  1  0
 14 27  1  0
 14 28  1  0
 15 29  1  0
 15 30  1  0
 17 31  1  0
 18 32  1  0
 18 33  1  0
 19 34  1  0
 19 35  1  0
 20 36  1  0
 20 37  1  0
 21 38  1  0
 21 39  1  0
M  END
$$$$
OCNT-2312049
     RDKit          3D

 50 52  0  0  0  0  0  0  0  0999 V2000
   -3.6221   -3.7150   -1.6311 C   0  0  0  0  0  0  0  0  0  0  0  0
   -2.1085   -3.6671   -1.5050 C   0  0  0  0  0  0  0  0  0  0  0  0
   -1.6894   -2.9793   -0.2365 C   0  0  0  0  0  0  0  0  0  0  0  0
   -1.4990   -3.7377    0.8514 N   0  0  0  0  0  0  0  0  0  0  0  0
   -1.1597   -3.0712    1.9619 C   0  0  0  0  0  0  0  0  0  0  0  0
   -1.0067   -1.7020    2.0188 C   0  0  0  0  0  0  0  0  0  0  0  0
   -1.2107   -0.9807    0.8560 C   0  0  0  0  0  0  0  0  0  0  0  0
   -1.1106    0.4175    0.7858 N   0  0  0  0  0  0  0  0  0  0  0  0
   -0.5869    0.8752   -0.5231 C   0  0  0  0  0  0  0  0  0  0  0  0
    0.8778    0.6836   -0.7775 C   0  0  0  0  0  0  0  0  0  0  0  0
    1.5479   -0.4098   -1.2848 C   0  0  0  0  0  0  0  0  0  0  0  0
    2.8565   -0.0356   -1.2648 N   0  0  0  0  0  0  0  0  0  0  0  0
    4.0098   -0.8187   -1.6786 C   0  0  0  0  0  0  0  0  0  0  0  0
    4.7584   -0.1514   -2.8316 C   0  0  0  0  0  0  0  0  0  0  0  0
    4.9417   -1.1066   -0.5023 C   0  0  0  0  0  0  0  0  0  0  0  0
    3.0004    1.2119   -0.7822 N   0  0  0  0  0  0  0  0  0  0  0  0
    1.7911    1.6642   -0.4795 N   0  0  0  0  0  0  0  0  0  0  0  0
   -0.7105    1.1897    1.9767 C   0  0  0  0  0  0  0  0  0  0  0  0
   -1.1924    2.6555    2.0377 C   0  0  0  0  0  0  0  0  0  0  0  0
   -0.4940    3.6656    1.1757 C   0  0  0  0  0  0  0  0  0  0  0  0
   -1.3529    4.5580    0.6707 C   0  0  0  0  0  0  0  0  0  0  0  0
   -2.7565    4.2835    1.0996 C   0  0  0  0  0  0  0  0  0  0  0  0
   -2.6703    2.8666    1.6709 C   0  0  0  0  0  0  0  0  0  0  0  0
   -1.5565   -1.6390   -0.2704 N   0  0  0  0  0  0  0  0  0  0  0  0
   -3.9093   -4.2265   -2.5550 H   0  0  0  0  0  0  0  0  0  0  0  0
   -4.0732   -4.2528   -0.7900 H   0  0  0  0  0  0  0  0  0  0  0  0
   -4.0496   -2.7069   -1.6541 H   0  0  0  0  0  0  0  0  0  0  0  0
   -1.6803   -3.1380   -2.3641 H   0  0  0  0  0  0  0  0  0  0  0  0
   -1.7030   -4.6850   -1.5198 H   0  0  0  0  0  0  0  0  0  0  0  0
   -1.0057   -3.6858    2.8438 H   0  0  0  0  0  0  0  0  0  0  0  0
   -0.7171   -1.2556    2.9575 H   0  0  0  0  0  0  0  0  0  0  0  0
   -0.8156    1.9360   -0.6532 H   0  0  0  0  0  0  0  0  0  0  0  0
   -1.1491    0.4183   -1.3496 H   0  0  0  0  0  0  0  0  0  0  0  0
    1.2079   -1.3772   -1.6230 H   0  0  0  0  0  0  0  0  0  0  0  0
    3.6153   -1.7767   -2.0408 H   0  0  0  0  0  0  0  0  0  0  0  0
    5.1970    0.8057   -2.5280 H   0  0  0  0  0  0  0  0  0  0  0  0
    5.5691   -0.7945   -3.1900 H   0  0  0  0  0  0  0  0  0  0  0  0
    4.0849    0.0443   -3.6734 H   0  0  0  0  0  0  0  0  0  0  0  0
    5.3837   -0.1869   -0.1032 H   0  0  0  0  0  0  0  0  0  0  0  0
    5.7590   -1.7680   -0.8088 H   0  0  0  0  0  0  0  0  0  0  0  0
    4.3996   -1.5959    0.3146 H   0  0  0  0  0  0  0  0  0  0  0  0
    0.3779    1.1435    2.1072 H   0  0  0  0  0  0  0  0  0  0  0  0
   -1.1587    0.7374    2.8688 H   0  0  0  0  0  0  0  0  0  0  0  0
   -1.0368    2.9905    3.0739 H   0  0  0  0  0  0  0  0  0  0  0  0
    0.5777    3.6909    1.0240 H   0  0  0  0  0  0  0  0  0  0  0  0
   -1.0703    5.3975    0.0500 H   0  0  0  0  0  0  0  0  0  0  0  0
   -3.4542    4.3265    0.2581 H   0  0  0  0  0  0  0  0  0  0  0  0
   -3.0705    5.0065    1.8593 H   0  0  0  0  0  0  0  0  0  0  0  0
   -3.0102    2.1537    0.9105 H   0  0  0  0  0  0  0  0  0  0  0  0
   -3.3253    2.7420    2.5400 H   0  0  0  0  0  0  0  0  0  0  0  0
  1  2  1  0
  2  3  1  0
  3  4  2  0
  4  5  1  0
  5  6  2  0
  6  7  1  0
  7  8  1  0
  8  9  1  0
  9 10  1  0
 10 11  2  0
 11 12  1  0
 12 13  1  0
 13 14  1  0
 13 15  1  0
 12 16  1  0
 16 17  2  0
  8 18  1  0
 18 19  1  0
 19 20  1  0
 20 21  2  0
 21 22  1  0
 22 23  1  0
  7 24  2  0
 24  3  1  0
 17 10  1  0
 23 19  1  0
  1 25  1  0
  1 26  1  0
  1 27  1  0
  2 28  1  0
  2 29  1  0
  5 30  1  0
  6 31  1  0
  9 32  1  0
  9 33  1  0
 11 34  1  0
 13 35  1  0
 14 36  1  0
 14 37  1  0
 14 38  1  0
 15 39  1  0
 15 40  1  0
 15 41  1  0
 18 42  1  0
 18 43  1  0
 19 44  1  0
 20 45  1  0
 21 46  1  0
 22 47  1  0
 22 48  1  0
 23 49  1  0
 23 50  1  0
M  END
$$$$
OCNT-2312062
     RDKit          3D

 47 51  0  0  0  0  0  0  0  0999 V2000
    0.6603    1.4994    2.7480 N   0  0  0  0  0  0  0  0  0  0  0  0
   -0.4014    1.2153    2.3726 C   0  0  0  0  0  0  0  0  0  0  0  0
   -1.7325    0.9040    1.9546 C   0  0  0  0  0  0  0  0  0  0  0  0
   -2.7652    1.2348    2.8169 C   0  0  0  0  0  0  0  0  0  0  0  0
   -4.0666    1.0081    2.5591 N   0  0  0  0  0  0  0  0  0  0  0  0
   -4.3759    0.4259    1.3884 C   0  0  0  0  0  0  0  0  0  0  0  0
   -5.7061    0.1780    1.0832 C   0  0  0  0  0  0  0  0  0  0  0  0
   -6.1728   -0.3961   -0.0534 N   0  0  0  0  0  0  0  0  0  0  0  0
   -5.2432   -0.7482   -0.9526 C   0  0  0  0  0  0  0  0  0  0  0  0
   -3.8849   -0.5515   -0.7590 C   0  0  0  0  0  0  0  0  0  0  0  0
   -3.4089    0.0445    0.4292 C   0  0  0  0  0  0  0  0  0  0  0  0
   -2.0302    0.2883    0.7221 C   0  0  0  0  0  0  0  0  0  0  0  0
   -1.0032   -0.0521   -0.1304 N   0  0  0  0  0  0  0  0  0  0  0  0
   -0.5369    0.7368   -1.2638 C   0  0  0  0  0  0  0  0  0  0  0  0
   -0.6733   -0.2420   -2.4411 C   0  0  0  0  0  0  0  0  0  0  0  0
   -0.6042   -1.6419   -1.8069 C   0  0  0  0  0  0  0  0  0  0  0  0
   -0.4469   -1.3888   -0.2976 C   0  0  0  0  0  0  0  0  0  0  0  0
    1.0369   -1.2844    0.1092 C   0  0  0  0  0  0  0  0  0  0  0  0
    1.8197   -0.1728   -0.6558 C   0  0  0  0  0  0  0  0  0  0  0  0
    2.1892   -0.7096   -1.9458 O   0  0  0  0  0  0  0  0  0  0  0  0
    3.1579    0.1060    0.0495 C   0  0  0  0  0  0  0  0  0  0  0  0
    3.5051    1.3519    0.5947 C   0  0  0  0  0  0  0  0  0  0  0  0
    4.7407    1.5476    1.2249 C   0  0  0  0  0  0  0  0  0  0  0  0
    5.6519    0.5013    1.3164 C   0  0  0  0  0  0  0  0  0  0  0  0
    7.1691    0.7482    2.0876 Cl  0  0  0  0  0  0  0  0  0  0  0  0
    5.3395   -0.7430    0.7836 C   0  0  0  0  0  0  0  0  0  0  0  0
    4.1048   -0.9369    0.1579 C   0  0  0  0  0  0  0  0  0  0  0  0
    0.9377    1.0796   -0.9553 C   0  0  0  0  0  0  0  0  0  0  0  0
   -2.5720    1.7098    3.7770 H   0  0  0  0  0  0  0  0  0  0  0  0
   -6.4786    0.4563    1.7963 H   0  0  0  0  0  0  0  0  0  0  0  0
   -5.6206   -1.2058   -1.8628 H   0  0  0  0  0  0  0  0  0  0  0  0
   -3.2125   -0.8635   -1.5416 H   0  0  0  0  0  0  0  0  0  0  0  0
   -1.1199    1.6499   -1.4270 H   0  0  0  0  0  0  0  0  0  0  0  0
   -1.6436   -0.1100   -2.9328 H   0  0  0  0  0  0  0  0  0  0  0  0
    0.0851   -0.0889   -3.2148 H   0  0  0  0  0  0  0  0  0  0  0  0
   -1.5337   -2.1853   -2.0086 H   0  0  0  0  0  0  0  0  0  0  0  0
    0.2011   -2.2550   -2.2233 H   0  0  0  0  0  0  0  0  0  0  0  0
   -0.9593   -2.1525    0.2977 H   0  0  0  0  0  0  0  0  0  0  0  0
    1.0816   -1.0848    1.1877 H   0  0  0  0  0  0  0  0  0  0  0  0
    1.5061   -2.2631   -0.0540 H   0  0  0  0  0  0  0  0  0  0  0  0
    2.9938   -0.2426   -2.2354 H   0  0  0  0  0  0  0  0  0  0  0  0
    2.8282    2.2006    0.5647 H   0  0  0  0  0  0  0  0  0  0  0  0
    4.9769    2.5206    1.6484 H   0  0  0  0  0  0  0  0  0  0  0  0
    6.0457   -1.5659    0.8514 H   0  0  0  0  0  0  0  0  0  0  0  0
    3.8828   -1.9200   -0.2557 H   0  0  0  0  0  0  0  0  0  0  0  0
    0.9191    1.7541   -0.0951 H   0  0  0  0  0  0  0  0  0  0  0  0
    1.3589    1.6439   -1.7971 H   0  0  0  0  0  0  0  0  0  0  0  0
  1  2  3  0
  2  3  1  0
  3  4  1  0
  4  5  2  0
  5  6  1  0
  6  7  2  0
  7  8  1  0
  8  9  2  0
  9 10  1  0
 10 11  2  0
 11 12  1  0
 12 13  1  0
 13 14  1  0
 14 15  1  0
 15 16  1  0
 16 17  1  0
 17 18  1  0
 18 19  1  0
 19 20  1  0
 19 21  1  0
 21 22  1  0
 22 23  2  0
 23 24  1  0
 24 25  1  0
 24 26  2  0
 26 27  1  0
 19 28  1  0
 12  3  2  0
 17 13  1  0
 27 21  2  0
 11  6  1  0
 28 14  1  0
  4 29  1  0
  7 30  1  0
  9 31  1  0
 10 32  1  0
 14 33  1  0
 15 34  1  0
 15 35  1  0
 16 36  1  0
 16 37  1  0
 17 38  1  0
 18 39  1  0
 18 40  1  0
 20 41  1  0
 22 42  1  0
 23 43  1  0
 26 44  1  0
 27 45  1  0
 28 46  1  0
 28 47  1  0
M  END
$$$$
OCNT-2312063
     RDKit          3D

 54 58  0  0  0  0  0  0  0  0999 V2000
   -8.3056   -0.4113    2.2183 O   0  0  0  0  0  0  0  0  0  0  0  0
   -7.1736   -0.7243    1.8671 C   0  0  0  0  0  0  0  0  0  0  0  0
   -6.3284   -1.4483    2.6711 N   0  0  0  0  0  0  0  0  0  0  0  0
   -5.0619   -1.8335    2.3632 N   0  0  0  0  0  0  0  0  0  0  0  0
   -4.5791   -1.5026    1.2006 C   0  0  0  0  0  0  0  0  0  0  0  0
   -3.1533   -1.9437    0.8953 C   0  0  0  0  0  0  0  0  0  0  0  0
   -2.1380   -0.8279    1.0068 C   0  0  0  0  0  0  0  0  0  0  0  0
   -2.0973    0.0046    2.1372 C   0  0  0  0  0  0  0  0  0  0  0  0
   -1.1645    1.0412    2.2242 C   0  0  0  0  0  0  0  0  0  0  0  0
   -0.2508    1.2397    1.1941 C   0  0  0  0  0  0  0  0  0  0  0  0
    0.6133    2.2600    1.2894 F   0  0  0  0  0  0  0  0  0  0  0  0
   -0.2443    0.3939    0.0894 C   0  0  0  0  0  0  0  0  0  0  0  0
    0.7000    0.5900   -1.0249 C   0  0  0  0  0  0  0  0  0  0  0  0
    0.2209    0.7271   -2.1491 O   0  0  0  0  0  0  0  0  0  0  0  0
    2.0658    0.5679   -0.7760 N   0  0  0  0  0  0  0  0  0  0  0  0
    2.9823    0.8111   -1.8909 C   0  0  0  0  0  0  0  0  0  0  0  0
    4.3518    1.3589   -1.4473 C   0  0  0  0  0  0  0  0  0  0  0  0
    4.9629    0.5541   -0.3729 N   0  0  0  0  0  0  0  0  0  0  0  0
    6.3179    0.2427   -0.4479 C   0  0  0  0  0  0  0  0  0  0  0  0
    7.2403    1.1725   -0.8982 C   0  0  0  0  0  0  0  0  0  0  0  0
    8.5654    0.7942   -0.9228 C   0  0  0  0  0  0  0  0  0  0  0  0
    8.9977   -0.4137   -0.5345 N   0  0  0  0  0  0  0  0  0  0  0  0
    8.0406   -1.2402   -0.0987 C   0  0  0  0  0  0  0  0  0  0  0  0
    6.7274   -0.9704   -0.0309 N   0  0  0  0  0  0  0  0  0  0  0  0
    4.1030   -0.4428    0.2825 C   0  0  0  0  0  0  0  0  0  0  0  0
    2.6824    0.1166    0.4808 C   0  0  0  0  0  0  0  0  0  0  0  0
   -1.1937   -0.6314   -0.0127 C   0  0  0  0  0  0  0  0  0  0  0  0
   -5.3496   -0.7217    0.1982 C   0  0  0  0  0  0  0  0  0  0  0  0
   -4.8445   -0.3559   -1.0551 C   0  0  0  0  0  0  0  0  0  0  0  0
   -5.6327    0.3886   -1.9388 C   0  0  0  0  0  0  0  0  0  0  0  0
   -6.9256    0.7676   -1.5806 C   0  0  0  0  0  0  0  0  0  0  0  0
   -7.4347    0.4029   -0.3359 C   0  0  0  0  0  0  0  0  0  0  0  0
   -6.6431   -0.3396    0.5493 C   0  0  0  0  0  0  0  0  0  0  0  0
   -6.6796   -1.7245    3.5831 H   0  0  0  0  0  0  0  0  0  0  0  0
   -3.1327   -2.4005   -0.1012 H   0  0  0  0  0  0  0  0  0  0  0  0
   -2.8665   -2.7377    1.5968 H   0  0  0  0  0  0  0  0  0  0  0  0
   -2.8017   -0.1407    2.9563 H   0  0  0  0  0  0  0  0  0  0  0  0
   -1.1512    1.6994    3.0883 H   0  0  0  0  0  0  0  0  0  0  0  0
    3.1145   -0.1492   -2.4051 H   0  0  0  0  0  0  0  0  0  0  0  0
    2.5228    1.5020   -2.6065 H   0  0  0  0  0  0  0  0  0  0  0  0
    4.9905    1.4094   -2.3375 H   0  0  0  0  0  0  0  0  0  0  0  0
    4.2254    2.3810   -1.0704 H   0  0  0  0  0  0  0  0  0  0  0  0
    6.9532    2.1708   -1.1971 H   0  0  0  0  0  0  0  0  0  0  0  0
    9.3367    1.4781   -1.2620 H   0  0  0  0  0  0  0  0  0  0  0  0
    8.3544   -2.2235    0.2329 H   0  0  0  0  0  0  0  0  0  0  0  0
    4.0535   -1.3553   -0.3257 H   0  0  0  0  0  0  0  0  0  0  0  0
    4.5023   -0.7077    1.2694 H   0  0  0  0  0  0  0  0  0  0  0  0
    2.7256    0.9873    1.1447 H   0  0  0  0  0  0  0  0  0  0  0  0
    2.0506   -0.6440    0.9506 H   0  0  0  0  0  0  0  0  0  0  0  0
   -1.1918   -1.2669   -0.8972 H   0  0  0  0  0  0  0  0  0  0  0  0
   -3.8436   -0.6269   -1.3751 H   0  0  0  0  0  0  0  0  0  0  0  0
   -5.2336    0.6771   -2.9092 H   0  0  0  0  0  0  0  0  0  0  0  0
   -7.5359    1.3475   -2.2695 H   0  0  0  0  0  0  0  0  0  0  0  0
   -8.4438    0.6983   -0.0548 H   0  0  0  0  0  0  0  0  0  0  0  0
  1  2  2  0
  2  3  1  0
  3  4  1  0
  4  5  2  0
  5  6  1  0
  6  7  1  0
  7  8  1  0
  8  9  2  0
  9 10  1  0
 10 11  1  0
 10 12  2  0
 12 13  1  0
 13 14  2  0
 13 15  1  0
 15 16  1  0
 16 17  1  0
 17 18  1  0
 18 19  1  0
 19 20  1  0
 20 21  2  0
 21 22  1  0
 22 23  2  0
 23 24  1  0
 18 25  1  0
 25 26  1  0
 12 27  1  0
  5 28  1  0
 28 29  2  0
 29 30  1  0
 30 31  2  0
 31 32  1  0
 32 33  2  0
 33  2  1  0
 27  7  2  0
 33 28  1  0
 26 15  1  0
 24 19  2  0
  3 34  1  0
  6 35  1  0
  6 36  1  0
  8 37  1  0
  9 38  1  0
 16 39  1  0
 16 40  1  0
 17 41  1  0
 17 42  1  0
 20 43  1  0
 21 44  1  0
 23 45  1  0
 25 46  1  0
 25 47  1  0
 26 48  1  0
 26 49  1  0
 27 50  1  0
 29 51  1  0
 30 52  1  0
 31 53  1  0
 32 54  1  0
M  END
$$$$
OCNT-2312068
     RDKit          3D

 52 55  0  0  0  0  0  0  0  0999 V2000
   -7.3700    2.3063   -0.9700 C   0  0  0  0  0  0  0  0  0  0  0  0
   -6.5984    1.3740   -0.2068 O   0  0  0  0  0  0  0  0  0  0  0  0
   -5.8678    0.4505   -0.9059 C   0  0  0  0  0  0  0  0  0  0  0  0
   -5.8598    0.2895   -2.2931 C   0  0  0  0  0  0  0  0  0  0  0  0
   -5.0516   -0.6912   -2.8802 C   0  0  0  0  0  0  0  0  0  0  0  0
   -4.2486   -1.5181   -2.0854 C   0  0  0  0  0  0  0  0  0  0  0  0
   -4.2544   -1.3770   -0.6922 C   0  0  0  0  0  0  0  0  0  0  0  0
   -3.3691   -2.2272    0.1857 C   0  0  0  0  0  0  0  0  0  0  0  0
   -2.1916   -1.4895    0.5656 N   0  0  0  0  0  0  0  0  0  0  0  0
   -1.5393   -1.6884    1.7693 C   0  0  0  0  0  0  0  0  0  0  0  0
   -1.9370   -2.4449    2.6589 O   0  0  0  0  0  0  0  0  0  0  0  0
   -0.2965   -0.8067    1.9368 C   0  0  0  0  0  0  0  0  0  0  0  0
    0.4321   -0.6816    0.6534 N   0  0  0  0  0  0  0  0  0  0  0  0
    1.1325   -1.9348    0.2829 C   0  0  0  0  0  0  0  0  0  0  0  0
    2.2518   -1.4659   -0.5977 C   0  0  0  0  0  0  0  0  0  0  0  0
    2.0308   -0.4774   -1.7155 C   0  0  0  0  0  0  0  0  0  0  0  0
    2.4757   -0.0160   -0.3279 C   0  0  0  0  0  0  0  0  0  0  0  0
    3.8643    0.5627   -0.1755 C   0  0  0  0  0  0  0  0  0  0  0  0
    4.2696    1.6809   -0.9235 C   0  0  0  0  0  0  0  0  0  0  0  0
    5.5461    2.2364   -0.7747 C   0  0  0  0  0  0  0  0  0  0  0  0
    6.4613    1.6823    0.1298 C   0  0  0  0  0  0  0  0  0  0  0  0
    7.8196    2.2911    0.3225 C   0  0  0  0  0  0  0  0  0  0  0  0
    6.0678    0.5822    0.8979 C   0  0  0  0  0  0  0  0  0  0  0  0
    4.7906    0.0304    0.7408 C   0  0  0  0  0  0  0  0  0  0  0  0
    1.4479    0.3909    0.7154 C   0  0  0  0  0  0  0  0  0  0  0  0
   -5.0681   -0.3860   -0.1148 C   0  0  0  0  0  0  0  0  0  0  0  0
   -7.8412    3.0100   -0.2752 H   0  0  0  0  0  0  0  0  0  0  0  0
   -8.1732    1.8009   -1.5134 H   0  0  0  0  0  0  0  0  0  0  0  0
   -6.7323    2.8868   -1.6522 H   0  0  0  0  0  0  0  0  0  0  0  0
   -6.4691    0.9104   -2.9477 H   0  0  0  0  0  0  0  0  0  0  0  0
   -5.0484   -0.8077   -3.9630 H   0  0  0  0  0  0  0  0  0  0  0  0
   -3.6183   -2.2673   -2.5625 H   0  0  0  0  0  0  0  0  0  0  0  0
   -3.9176   -2.5642    1.0759 H   0  0  0  0  0  0  0  0  0  0  0  0
   -3.0370   -3.1291   -0.3507 H   0  0  0  0  0  0  0  0  0  0  0  0
   -1.6812   -0.9522   -0.1310 H   0  0  0  0  0  0  0  0  0  0  0  0
    0.3411   -1.2284    2.7310 H   0  0  0  0  0  0  0  0  0  0  0  0
   -0.6593    0.1818    2.2697 H   0  0  0  0  0  0  0  0  0  0  0  0
    1.5551   -2.4453    1.1597 H   0  0  0  0  0  0  0  0  0  0  0  0
    0.4695   -2.6209   -0.2551 H   0  0  0  0  0  0  0  0  0  0  0  0
    3.0823   -2.1557   -0.6624 H   0  0  0  0  0  0  0  0  0  0  0  0
    1.0161   -0.2565   -2.0348 H   0  0  0  0  0  0  0  0  0  0  0  0
    2.7555   -0.4748   -2.5275 H   0  0  0  0  0  0  0  0  0  0  0  0
    3.5780    2.1294   -1.6389 H   0  0  0  0  0  0  0  0  0  0  0  0
    5.8169    3.1071   -1.3705 H   0  0  0  0  0  0  0  0  0  0  0  0
    8.5748    1.5121    0.4964 H   0  0  0  0  0  0  0  0  0  0  0  0
    8.1321    2.8532   -0.5691 H   0  0  0  0  0  0  0  0  0  0  0  0
    7.8056    2.9712    1.1851 H   0  0  0  0  0  0  0  0  0  0  0  0
    6.7527    0.1474    1.6273 H   0  0  0  0  0  0  0  0  0  0  0  0
    4.5105   -0.8240    1.3525 H   0  0  0  0  0  0  0  0  0  0  0  0
    1.9193    0.4306    1.7093 H   0  0  0  0  0  0  0  0  0  0  0  0
    0.9986    1.3665    0.4885 H   0  0  0  0  0  0  0  0  0  0  0  0
   -5.0686   -0.2538    0.9669 H   0  0  0  0  0  0  0  0  0  0  0  0
  1  2  1  0
  2  3  1  0
  3  4  1  0
  4  5  2  0
  5  6  1  0
  6  7  2  0
  7  8  1  0
  8  9  1  0
  9 10  1  0
 10 11  2  0
 10 12  1  0
 12 13  1  0
 13 14  1  0
 14 15  1  0
 15 16  1  0
 16 17  1  0
 17 18  1  0
 18 19  1  0
 19 20  2  0
 20 21  1  0
 21 22  1  0
 21 23  2  0
 23 24  1  0
 17 25  1  0
  7 26  1  0
 26  3  2  0
 25 13  1  0
 17 15  1  0
 24 18  2  0
  1 27  1  0
  1 28  1  0
  1 29  1  0
  4 30  1  0
  5 31  1  0
  6 32  1  0
  8 33  1  0
  8 34  1  0
  9 35  1  0
 12 36  1  0
 12 37  1  0
 14 38  1  0
 14 39  1  0
 15 40  1  0
 16 41  1  0
 16 42  1  0
 19 43  1  0
 20 44  1  0
 22 45  1  0
 22 46  1  0
 22 47  1  0
 23 48  1  0
 24 49  1  0
 25 50  1  0
 25 51  1  0
 26 52  1  0
M  END
$$$$
OCNT-2312069
     RDKit          3D

 40 43  0  0  0  0  0  0  0  0999 V2000
   -4.0378    2.4164   -1.3257 O   0  0  0  0  0  0  0  0  0  0  0  0
   -3.4218    1.3186   -0.6263 C   0  0  2  0  0  0  0  0  0  0  0  0
   -2.7017    1.6871    0.6860 C   0  0  0  0  0  0  0  0  0  0  0  0
   -1.5727    0.6614    0.3062 C   0  0  1  0  0  0  0  0  0  0  0  0
   -0.1591    1.2319    0.5566 C   0  0  0  0  0  0  0  0  0  0  0  0
    0.8627    0.4523   -0.1289 N   0  0  0  0  0  0  0  0  0  0  0  0
    2.1369    0.8963   -0.4889 C   0  0  0  0  0  0  0  0  0  0  0  0
    2.4551    2.1590   -0.8212 C   0  0  0  0  0  0  0  0  0  0  0  0
    3.8660    2.4123   -1.2145 C   0  0  0  0  0  0  0  0  0  0  0  0
    4.8223    1.5366   -1.2658 N   0  0  0  0  0  0  0  0  0  0  0  0
    4.4770    0.2604   -0.9126 C   0  0  0  0  0  0  0  0  0  0  0  0
    5.1846   -0.9143   -0.8447 C   0  0  0  0  0  0  0  0  0  0  0  0
    6.9911   -1.2051   -1.2215 Br  0  0  0  0  0  0  0  0  0  0  0  0
    4.2849   -1.8977   -0.4288 C   0  0  0  0  0  0  0  0  0  0  0  0
    3.0570   -1.4116   -0.2325 N   0  0  0  0  0  0  0  0  0  0  0  0
    3.1710   -0.0802   -0.5365 N   0  0  0  0  0  0  0  0  0  0  0  0
   -1.7099   -0.8176    0.9558 C   0  0  0  0  0  0  0  0  0  0  0  0
   -2.0661   -1.0082    2.3085 C   0  0  0  0  0  0  0  0  0  0  0  0
   -2.1898   -2.2799    2.8790 C   0  0  0  0  0  0  0  0  0  0  0  0
   -1.9490   -3.4110    2.1106 C   0  0  0  0  0  0  0  0  0  0  0  0
   -1.5762   -3.2655    0.7801 C   0  0  0  0  0  0  0  0  0  0  0  0
   -1.4593   -1.9903    0.2169 C   0  0  0  0  0  0  0  0  0  0  0  0
   -2.0570    0.8568   -1.1731 C   0  0  0  0  0  0  0  0  0  0  0  0
   -4.8580    2.5991   -0.8353 H   0  0  0  0  0  0  0  0  0  0  0  0
   -4.1323    0.4872   -0.5101 H   0  0  0  0  0  0  0  0  0  0  0  0
   -2.3786    2.7338    0.7289 H   0  0  0  0  0  0  0  0  0  0  0  0
   -3.2743    1.4822    1.5942 H   0  0  0  0  0  0  0  0  0  0  0  0
   -0.1251    2.2739    0.2186 H   0  0  0  0  0  0  0  0  0  0  0  0
    0.0568    1.2438    1.6335 H   0  0  0  0  0  0  0  0  0  0  0  0
    0.9101   -0.5256    0.1945 H   0  0  0  0  0  0  0  0  0  0  0  0
    1.7560    2.9802   -0.8522 H   0  0  0  0  0  0  0  0  0  0  0  0
    4.0889    3.4564   -1.4993 H   0  0  0  0  0  0  0  0  0  0  0  0
    4.4659   -2.9511   -0.2547 H   0  0  0  0  0  0  0  0  0  0  0  0
   -2.2531   -0.1426    2.9398 H   0  0  0  0  0  0  0  0  0  0  0  0
   -2.4722   -2.3807    3.9230 H   0  0  0  0  0  0  0  0  0  0  0  0
   -2.0495   -4.4044    2.5455 H   0  0  0  0  0  0  0  0  0  0  0  0
   -1.3684   -4.1459    0.1776 H   0  0  0  0  0  0  0  0  0  0  0  0
   -1.1515   -1.9138   -0.8244 H   0  0  0  0  0  0  0  0  0  0  0  0
   -2.0965   -0.0381   -1.8038 H   0  0  0  0  0  0  0  0  0  0  0  0
   -1.5263    1.6377   -1.7323 H   0  0  0  0  0  0  0  0  0  0  0  0
  1  2  1  0
  2  3  1  0
  3  4  1  0
  4  5  1  6
  5  6  1  0
  6  7  1  0
  7  8  2  0
  8  9  1  0
  9 10  2  0
 10 11  1  0
 11 12  2  0
 12 13  1  0
 12 14  1  0
 14 15  2  0
 15 16  1  0
  4 17  1  0
 17 18  2  0
 18 19  1  0
 19 20  2  0
 20 21  1  0
 21 22  2  0
  4 23  1  0
 23  2  1  0
 16  7  1  0
 22 17  1  0
 16 11  1  0
  1 24  1  0
  2 25  1  1
  3 26  1  0
  3 27  1  0
  5 28  1  0
  5 29  1  0
  6 30  1  0
  8 31  1  0
  9 32  1  0
 14 33  1  0
 18 34  1  0
 19 35  1  0
 20 36  1  0
 21 37  1  0
 22 38  1  0
 23 39  1  0
 23 40  1  0
M  END
$$$$
OCNT-2312089
     RDKit          3D

 45 49  0  0  0  0  0  0  0  0999 V2000
   -0.1828   -3.6592    1.9350 C   0  0  0  0  0  0  0  0  0  0  0  0
   -0.9404   -2.4883    1.4148 C   0  0  0  0  0  0  0  0  0  0  0  0
   -0.4978   -1.2274    1.0635 C   0  0  0  0  0  0  0  0  0  0  0  0
    0.8740   -0.7234    1.1200 C   0  0  0  0  0  0  0  0  0  0  0  0
    1.3365    0.5324    0.8016 C   0  0  0  0  0  0  0  0  0  0  0  0
    2.6766    0.4507    1.0244 N   0  0  0  0  0  0  0  0  0  0  0  0
    3.6708    1.4866    0.8526 C   0  0  0  0  0  0  0  0  0  0  0  0
    4.7130    1.2110   -0.2465 C   0  0  0  0  0  0  0  0  0  0  0  0
    4.1134    0.9502   -1.6339 C   0  0  0  0  0  0  0  0  0  0  0  0
    4.6751   -0.3964   -2.0542 C   0  0  0  0  0  0  0  0  0  0  0  0
    5.9602   -0.5020   -1.2630 C   0  0  0  0  0  0  0  0  0  0  0  0
    5.6111    0.0699    0.0405 N   0  0  0  0  0  0  0  0  0  0  0  0
    3.0273   -0.7707    1.4715 N   0  0  0  0  0  0  0  0  0  0  0  0
    1.9229   -1.5051    1.5242 N   0  0  0  0  0  0  0  0  0  0  0  0
   -1.4815   -0.3617    0.6078 N   0  0  0  0  0  0  0  0  0  0  0  0
   -2.6628   -0.9499    0.6146 C   0  0  0  0  0  0  0  0  0  0  0  0
   -3.9097   -0.2860    0.1762 C   0  0  0  0  0  0  0  0  0  0  0  0
   -5.1949   -0.8651    0.3278 C   0  0  0  0  0  0  0  0  0  0  0  0
   -6.3535   -0.2018   -0.1008 C   0  0  0  0  0  0  0  0  0  0  0  0
   -6.2073    1.0390   -0.6762 C   0  0  0  0  0  0  0  0  0  0  0  0
   -7.2129    1.8226   -1.1469 O   0  0  0  0  0  0  0  0  0  0  0  0
   -6.4685    2.9667   -1.6148 C   0  0  0  0  0  0  0  0  0  0  0  0
   -5.0445    2.8433   -1.4176 O   0  0  0  0  0  0  0  0  0  0  0  0
   -4.9729    1.6190   -0.8295 C   0  0  0  0  0  0  0  0  0  0  0  0
   -3.8168    0.9888   -0.4166 C   0  0  0  0  0  0  0  0  0  0  0  0
   -2.6329   -2.5828    1.1644 S   0  0  0  0  0  0  0  0  0  0  0  0
    0.3192   -3.4027    2.8737 H   0  0  0  0  0  0  0  0  0  0  0  0
    0.5744   -3.9760    1.2103 H   0  0  0  0  0  0  0  0  0  0  0  0
   -0.8316   -4.5191    2.1323 H   0  0  0  0  0  0  0  0  0  0  0  0
    0.8381    1.4230    0.4495 H   0  0  0  0  0  0  0  0  0  0  0  0
    4.1610    1.6215    1.8243 H   0  0  0  0  0  0  0  0  0  0  0  0
    3.1376    2.4174    0.6255 H   0  0  0  0  0  0  0  0  0  0  0  0
    5.3471    2.1051   -0.3123 H   0  0  0  0  0  0  0  0  0  0  0  0
    4.4586    1.7232   -2.3316 H   0  0  0  0  0  0  0  0  0  0  0  0
    3.0202    0.9485   -1.6623 H   0  0  0  0  0  0  0  0  0  0  0  0
    3.9820   -1.1966   -1.7665 H   0  0  0  0  0  0  0  0  0  0  0  0
    4.8393   -0.4581   -3.1340 H   0  0  0  0  0  0  0  0  0  0  0  0
    6.3072   -1.5352   -1.1702 H   0  0  0  0  0  0  0  0  0  0  0  0
    6.7588    0.0888   -1.7258 H   0  0  0  0  0  0  0  0  0  0  0  0
    5.0792   -0.6390    0.5632 H   0  0  0  0  0  0  0  0  0  0  0  0
   -5.3184   -1.8431    0.7874 H   0  0  0  0  0  0  0  0  0  0  0  0
   -7.3336   -0.6501    0.0181 H   0  0  0  0  0  0  0  0  0  0  0  0
   -6.8207    3.8565   -1.0804 H   0  0  0  0  0  0  0  0  0  0  0  0
   -6.6642    3.0986   -2.6851 H   0  0  0  0  0  0  0  0  0  0  0  0
   -2.8560    1.4767   -0.5526 H   0  0  0  0  0  0  0  0  0  0  0  0
  1  2  1  0
  2  3  2  0
  3  4  1  0
  4  5  2  0
  5  6  1  0
  6  7  1  0
  7  8  1  0
  8  9  1  0
  9 10  1  0
 10 11  1  0
 11 12  1  0
  6 13  1  0
 13 14  2  0
  3 15  1  0
 15 16  2  0
 16 17  1  0
 17 18  1  0
 18 19  2  0
 19 20  1  0
 20 21  1  0
 21 22  1  0
 22 23  1  0
 23 24  1  0
 24 25  1  0
 16 26  1  0
 26  2  1  0
 14  4  1  0
 25 17  2  0
 12  8  1  0
 24 20  2  0
  1 27  1  0
  1 28  1  0
  1 29  1  0
  5 30  1  0
  7 31  1  0
  7 32  1  0
  8 33  1  0
  9 34  1  0
  9 35  1  0
 10 36  1  0
 10 37  1  0
 11 38  1  0
 11 39  1  0
 12 40  1  0
 18 41  1  0
 19 42  1  0
 22 43  1  0
 22 44  1  0
 25 45  1  0
M  END
$$$$
OCNT-2312094
     RDKit          3D

 47 50  0  0  0  0  0  0  0  0999 V2000
    7.9119   -1.0251   -0.3418 C   0  0  0  0  0  0  0  0  0  0  0  0
    7.8884    0.1111   -1.1511 C   0  0  0  0  0  0  0  0  0  0  0  0
    6.6698    0.6975   -1.4942 C   0  0  0  0  0  0  0  0  0  0  0  0
    5.4767    0.1549   -1.0143 C   0  0  0  0  0  0  0  0  0  0  0  0
    4.3104    0.7720   -1.4085 O   0  0  0  0  0  0  0  0  0  0  0  0
    3.3514    0.9343   -0.4288 C   0  0  0  0  0  0  0  0  0  0  0  0
    3.5916    1.7598    0.6440 C   0  0  0  0  0  0  0  0  0  0  0  0
    2.5494    1.8733    1.5234 C   0  0  0  0  0  0  0  0  0  0  0  0
    1.3723    1.2430    1.3600 N   0  0  0  0  0  0  0  0  0  0  0  0
    1.2337    0.4711    0.2731 C   0  0  0  0  0  0  0  0  0  0  0  0
    0.0508   -0.2165    0.0343 N   0  0  0  0  0  0  0  0  0  0  0  0
   -1.1771    0.4606    0.4486 C   0  0  0  0  0  0  0  0  0  0  0  0
   -1.4669    0.1948    1.9323 C   0  0  0  0  0  0  0  0  0  0  0  0
   -2.9536    0.0196    2.1985 C   0  0  0  0  0  0  0  0  0  0  0  0
   -3.7048    0.9296    1.4028 O   0  0  0  0  0  0  0  0  0  0  0  0
   -3.6476    0.6488   -0.0054 C   0  0  0  0  0  0  0  0  0  0  0  0
   -4.8888   -0.0884   -0.4929 C   0  0  0  0  0  0  0  0  0  0  0  0
   -5.0195   -0.4300   -1.8505 C   0  0  0  0  0  0  0  0  0  0  0  0
   -6.1552   -1.0953   -2.3189 C   0  0  0  0  0  0  0  0  0  0  0  0
   -7.1848   -1.4212   -1.4405 C   0  0  0  0  0  0  0  0  0  0  0  0
   -7.0819   -1.0761   -0.0958 C   0  0  0  0  0  0  0  0  0  0  0  0
   -5.9461   -0.4110    0.3727 C   0  0  0  0  0  0  0  0  0  0  0  0
   -2.3369   -0.0474   -0.4113 C   0  0  0  0  0  0  0  0  0  0  0  0
    2.1853    0.3014   -0.6477 N   0  0  0  0  0  0  0  0  0  0  0  0
    5.4971   -0.9975   -0.2238 C   0  0  0  0  0  0  0  0  0  0  0  0
    6.7177   -1.5818    0.1176 C   0  0  0  0  0  0  0  0  0  0  0  0
    8.8613   -1.4849   -0.0785 H   0  0  0  0  0  0  0  0  0  0  0  0
    8.8188    0.5351   -1.5199 H   0  0  0  0  0  0  0  0  0  0  0  0
    6.6512    1.5758   -2.1335 H   0  0  0  0  0  0  0  0  0  0  0  0
    4.5279    2.2789    0.7838 H   0  0  0  0  0  0  0  0  0  0  0  0
    2.6247    2.4927    2.4119 H   0  0  0  0  0  0  0  0  0  0  0  0
    0.1030   -0.4747   -0.9468 H   0  0  0  0  0  0  0  0  0  0  0  0
   -1.0930    1.5433    0.2760 H   0  0  0  0  0  0  0  0  0  0  0  0
   -0.9272   -0.6809    2.3127 H   0  0  0  0  0  0  0  0  0  0  0  0
   -1.1041    1.0539    2.5108 H   0  0  0  0  0  0  0  0  0  0  0  0
   -3.2800   -1.0083    2.0000 H   0  0  0  0  0  0  0  0  0  0  0  0
   -3.1707    0.2265    3.2514 H   0  0  0  0  0  0  0  0  0  0  0  0
   -3.6740    1.6365   -0.4840 H   0  0  0  0  0  0  0  0  0  0  0  0
   -4.2377   -0.1755   -2.5627 H   0  0  0  0  0  0  0  0  0  0  0  0
   -6.2372   -1.3547   -3.3712 H   0  0  0  0  0  0  0  0  0  0  0  0
   -8.0694   -1.9368   -1.8041 H   0  0  0  0  0  0  0  0  0  0  0  0
   -7.8879   -1.3192    0.5916 H   0  0  0  0  0  0  0  0  0  0  0  0
   -5.8987   -0.1413    1.4257 H   0  0  0  0  0  0  0  0  0  0  0  0
   -2.1313    0.1220   -1.4759 H   0  0  0  0  0  0  0  0  0  0  0  0
   -2.4271   -1.1369   -0.2942 H   0  0  0  0  0  0  0  0  0  0  0  0
    4.5719   -1.4556    0.1172 H   0  0  0  0  0  0  0  0  0  0  0  0
    6.7364   -2.4774    0.7335 H   0  0  0  0  0  0  0  0  0  0  0  0
  1  2  2  0
  2  3  1  0
  3  4  2  0
  4  5  1  0
  5  6  1  0
  6  7  1  0
  7  8  2  0
  8  9  1  0
  9 10  2  0
 10 11  1  0
 11 12  1  0
 12 13  1  0
 13 14  1  0
 14 15  1  0
 15 16  1  0
 16 17  1  0
 17 18  2  0
 18 19  1  0
 19 20  2  0
 20 21  1  0
 21 22  2  0
 16 23  1  0
 10 24  1  0
  4 25  1  0
 25 26  2  0
 26  1  1  0
 24  6  2  0
 23 12  1  0
 22 17  1  0
  1 27  1  0
  2 28  1  0
  3 29  1  0
  7 30  1  0
  8 31  1  0
 11 32  1  0
 12 33  1  0
 13 34  1  0
 13 35  1  0
 14 36  1  0
 14 37  1  0
 16 38  1  0
 18 39  1  0
 19 40  1  0
 20 41  1  0
 21 42  1  0
 22 43  1  0
 23 44  1  0
 23 45  1  0
 25 46  1  0
 26 47  1  0
M  END
$$$$
OCNT-2312095
     RDKit          3D

 46 49  0  0  0  0  0  0  0  0999 V2000
   -2.1832    1.9661   -0.7791 C   0  0  0  0  0  0  0  0  0  0  0  0
   -2.0977    0.5342   -0.9155 N   0  0  0  0  0  0  0  0  0  0  0  0
   -3.1535   -0.3466   -0.8708 C   0  0  0  0  0  0  0  0  0  0  0  0
   -4.5581    0.0007   -0.5083 C   0  0  0  0  0  0  0  0  0  0  0  0
   -4.7042    0.4811    0.9114 C   0  0  0  0  0  0  0  0  0  0  0  0
   -5.2922    1.6777    1.2805 C   0  0  0  0  0  0  0  0  0  0  0  0
   -5.2987    1.9219    2.9730 S   0  0  0  0  0  0  0  0  0  0  0  0
   -4.5309    0.4208    3.2476 C   0  0  0  0  0  0  0  0  0  0  0  0
   -4.2718   -0.2471    2.0720 C   0  0  0  0  0  0  0  0  0  0  0  0
   -2.7242   -1.5371   -1.2327 N   0  0  0  0  0  0  0  0  0  0  0  0
   -1.3835   -1.4385   -1.5007 N   0  0  0  0  0  0  0  0  0  0  0  0
   -0.9869   -0.2100   -1.2412 C   0  0  0  0  0  0  0  0  0  0  0  0
    0.2705    0.3157   -1.3432 N   0  0  0  0  0  0  0  0  0  0  0  0
    1.1910   -0.3627   -2.2680 C   0  0  0  0  0  0  0  0  0  0  0  0
    1.6989   -1.7170   -1.7671 C   0  0  0  0  0  0  0  0  0  0  0  0
    3.1561   -1.7097   -1.3109 C   0  0  0  0  0  0  0  0  0  0  0  0
    3.6526   -0.9386   -0.1052 C   0  0  0  0  0  0  0  0  0  0  0  0
    5.0628   -0.9444    0.0406 C   0  0  0  0  0  0  0  0  0  0  0  0
    5.7050   -0.3161    1.1044 C   0  0  0  0  0  0  0  0  0  0  0  0
    4.9504    0.3372    2.0615 C   0  0  0  0  0  0  0  0  0  0  0  0
    3.5617    0.3572    1.9461 C   0  0  0  0  0  0  0  0  0  0  0  0
    2.8905   -0.2763    0.8746 C   0  0  0  0  0  0  0  0  0  0  0  0
    1.3818   -0.1537    0.8641 C   0  0  0  0  0  0  0  0  0  0  0  0
    0.8937    0.8973   -0.1450 C   0  0  0  0  0  0  0  0  0  0  0  0
   -1.3412    2.4450   -1.2866 H   0  0  0  0  0  0  0  0  0  0  0  0
   -3.1066    2.3176   -1.2463 H   0  0  0  0  0  0  0  0  0  0  0  0
   -2.1778    2.2136    0.2857 H   0  0  0  0  0  0  0  0  0  0  0  0
   -5.1935   -0.8856   -0.6391 H   0  0  0  0  0  0  0  0  0  0  0  0
   -4.9377    0.7558   -1.2083 H   0  0  0  0  0  0  0  0  0  0  0  0
   -5.7233    2.4329    0.6353 H   0  0  0  0  0  0  0  0  0  0  0  0
   -4.3109    0.0951    4.2568 H   0  0  0  0  0  0  0  0  0  0  0  0
   -3.7899   -1.2187    2.0392 H   0  0  0  0  0  0  0  0  0  0  0  0
    2.0269    0.3086   -2.5038 H   0  0  0  0  0  0  0  0  0  0  0  0
    0.6692   -0.5111   -3.2243 H   0  0  0  0  0  0  0  0  0  0  0  0
    1.6556   -2.4055   -2.6237 H   0  0  0  0  0  0  0  0  0  0  0  0
    1.0571   -2.1752   -1.0119 H   0  0  0  0  0  0  0  0  0  0  0  0
    3.7545   -1.3808   -2.1740 H   0  0  0  0  0  0  0  0  0  0  0  0
    3.4313   -2.7611   -1.1351 H   0  0  0  0  0  0  0  0  0  0  0  0
    5.6798   -1.4611   -0.6946 H   0  0  0  0  0  0  0  0  0  0  0  0
    6.7887   -0.3455    1.1827 H   0  0  0  0  0  0  0  0  0  0  0  0
    5.4365    0.8274    2.8982 H   0  0  0  0  0  0  0  0  0  0  0  0
    2.9934    0.8779    2.7148 H   0  0  0  0  0  0  0  0  0  0  0  0
    0.9156   -1.1350    0.7517 H   0  0  0  0  0  0  0  0  0  0  0  0
    1.0521    0.1762    1.8612 H   0  0  0  0  0  0  0  0  0  0  0  0
    0.1779    1.5559    0.3651 H   0  0  0  0  0  0  0  0  0  0  0  0
    1.7121    1.5615   -0.4620 H   0  0  0  0  0  0  0  0  0  0  0  0
  1  2  1  0
  2  3  1  0
  3  4  1  0
  4  5  1  0
  5  6  2  0
  6  7  1  0
  7  8  1  0
  8  9  2  0
  3 10  2  0
 10 11  1  0
 11 12  2  0
 12 13  1  0
 13 14  1  0
 14 15  1  0
 15 16  1  0
 16 17  1  0
 17 18  2  0
 18 19  1  0
 19 20  2  0
 20 21  1  0
 21 22  2  0
 22 23  1  0
 23 24  1  0
 12  2  1  0
 24 13  1  0
  9  5  1  0
 22 17  1  0
  1 25  1  0
  1 26  1  0
  1 27  1  0
  4 28  1  0
  4 29  1  0
  6 30  1  0
  8 31  1  0
  9 32  1  0
 14 33  1  0
 14 34  1  0
 15 35  1  0
 15 36  1  0
 16 37  1  0
 16 38  1  0
 18 39  1  0
 19 40  1  0
 20 41  1  0
 21 42  1  0
 23 43  1  0
 23 44  1  0
 24 45  1  0
 24 46  1  0
M  END
$$$$
OCNT-2312098
     RDKit          3D

 49 52  0  0  0  0  0  0  0  0999 V2000
    5.9821    2.3198   -0.8631 C   0  0  0  0  0  0  0  0  0  0  0  0
    6.1502    1.9850    0.9113 S   0  0  0  0  0  0  0  0  0  0  0  0
    5.1121    0.5459    1.0623 C   0  0  0  0  0  0  0  0  0  0  0  0
    5.6247   -0.6018    1.6601 C   0  0  0  0  0  0  0  0  0  0  0  0
    4.8259   -1.7433    1.7924 C   0  0  0  0  0  0  0  0  0  0  0  0
    3.5088   -1.7723    1.3541 C   0  0  0  0  0  0  0  0  0  0  0  0
    2.8077   -2.8996    1.5012 N   0  0  0  0  0  0  0  0  0  0  0  0
    1.5451   -2.8814    1.0629 C   0  0  0  0  0  0  0  0  0  0  0  0
    0.9118   -1.8418    0.5046 N   0  0  0  0  0  0  0  0  0  0  0  0
    1.6277   -0.7077    0.3641 C   0  0  0  0  0  0  0  0  0  0  0  0
    0.9822    0.4250   -0.1831 N   0  0  0  0  0  0  0  0  0  0  0  0
    0.4220    1.2896    0.8634 C   0  0  0  0  0  0  0  0  0  0  0  0
   -0.8770    0.7285    1.4464 C   0  0  0  0  0  0  0  0  0  0  0  0
   -1.8380    0.1748    0.3653 C   0  0  0  0  0  0  0  0  0  0  0  0
   -1.8543   -1.2588    0.4869 O   0  0  0  0  0  0  0  0  0  0  0  0
   -3.2756    0.6813    0.6583 C   0  0  0  0  0  0  0  0  0  0  0  0
   -4.3253    0.3142   -0.3656 C   0  0  0  0  0  0  0  0  0  0  0  0
   -4.8694   -0.9764   -0.4063 C   0  0  0  0  0  0  0  0  0  0  0  0
   -5.8379   -1.3083   -1.3573 C   0  0  0  0  0  0  0  0  0  0  0  0
   -6.2729   -0.3554   -2.2784 C   0  0  0  0  0  0  0  0  0  0  0  0
   -5.7359    0.9300   -2.2506 C   0  0  0  0  0  0  0  0  0  0  0  0
   -4.7708    1.2532   -1.3008 C   0  0  0  0  0  0  0  0  0  0  0  0
   -4.2572    2.4924   -1.3004 F   0  0  0  0  0  0  0  0  0  0  0  0
   -1.3639    0.5485   -1.0466 C   0  0  0  0  0  0  0  0  0  0  0  0
    0.0827    0.1288   -1.3101 C   0  0  0  0  0  0  0  0  0  0  0  0
    2.9716   -0.6152    0.7765 C   0  0  0  0  0  0  0  0  0  0  0  0
    3.7856    0.5383    0.6316 C   0  0  0  0  0  0  0  0  0  0  0  0
    6.2251    1.4280   -1.4475 H   0  0  0  0  0  0  0  0  0  0  0  0
    6.6772    3.1165   -1.1417 H   0  0  0  0  0  0  0  0  0  0  0  0
    4.9686    2.6503   -1.1045 H   0  0  0  0  0  0  0  0  0  0  0  0
    6.6500   -0.6279    2.0226 H   0  0  0  0  0  0  0  0  0  0  0  0
    5.2478   -2.6351    2.2513 H   0  0  0  0  0  0  0  0  0  0  0  0
    0.9760   -3.7984    1.1754 H   0  0  0  0  0  0  0  0  0  0  0  0
    0.2265    2.2762    0.4235 H   0  0  0  0  0  0  0  0  0  0  0  0
    1.1423    1.4712    1.6712 H   0  0  0  0  0  0  0  0  0  0  0  0
   -1.3490    1.5379    2.0173 H   0  0  0  0  0  0  0  0  0  0  0  0
   -0.6403   -0.0544    2.1784 H   0  0  0  0  0  0  0  0  0  0  0  0
   -0.9197   -1.5601    0.4557 H   0  0  0  0  0  0  0  0  0  0  0  0
   -3.6101    0.2864    1.6278 H   0  0  0  0  0  0  0  0  0  0  0  0
   -3.2638    1.7737    0.7692 H   0  0  0  0  0  0  0  0  0  0  0  0
   -4.5306   -1.7325    0.3002 H   0  0  0  0  0  0  0  0  0  0  0  0
   -6.2497   -2.3145   -1.3792 H   0  0  0  0  0  0  0  0  0  0  0  0
   -7.0258   -0.6164   -3.0174 H   0  0  0  0  0  0  0  0  0  0  0  0
   -6.0603    1.6816   -2.9627 H   0  0  0  0  0  0  0  0  0  0  0  0
   -1.9859    0.0683   -1.8113 H   0  0  0  0  0  0  0  0  0  0  0  0
   -1.4586    1.6325   -1.1921 H   0  0  0  0  0  0  0  0  0  0  0  0
    0.4486    0.6860   -2.1815 H   0  0  0  0  0  0  0  0  0  0  0  0
    0.1127   -0.9257   -1.6133 H   0  0  0  0  0  0  0  0  0  0  0  0
    3.3571    1.4297    0.1792 H   0  0  0  0  0  0  0  0  0  0  0  0
  1  2  1  0
  2  3  1  0
  3  4  1  0
  4  5  2  0
  5  6  1  0
  6  7  2  0
  7  8  1  0
  8  9  2  0
  9 10  1  0
 10 11  1  0
 11 12  1  0
 12 13  1  0
 13 14  1  0
 14 15  1  0
 14 16  1  0
 16 17  1  0
 17 18  2  0
 18 19  1  0
 19 20  2  0
 20 21  1  0
 21 22  2  0
 22 23  1  0
 14 24  1  0
 24 25  1  0
 10 26  2  0
 26 27  1  0
 27  3  2  0
 26  6  1  0
 25 11  1  0
 22 17  1  0
  1 28  1  0
  1 29  1  0
  1 30  1  0
  4 31  1  0
  5 32  1  0
  8 33  1  0
 12 34  1  0
 12 35  1  0
 13 36  1  0
 13 37  1  0
 15 38  1  0
 16 39  1  0
 16 40  1  0
 18 41  1  0
 19 42  1  0
 20 43  1  0
 21 44  1  0
 24 45  1  0
 24 46  1  0
 25 47  1  0
 25 48  1  0
 27 49  1  0
M  END
$$$$
OCNT-2312102
     RDKit          3D

 60 65  0  0  0  0  0  0  0  0999 V2000
    7.3865   -3.0674    0.2100 C   0  0  0  0  0  0  0  0  0  0  0  0
    7.2708   -1.6987   -0.0236 C   0  0  0  0  0  0  0  0  0  0  0  0
    6.1561   -1.1966   -0.6961 C   0  0  0  0  0  0  0  0  0  0  0  0
    5.1426   -2.0601   -1.1401 C   0  0  0  0  0  0  0  0  0  0  0  0
    3.9393   -1.5153   -1.8693 C   0  0  0  0  0  0  0  0  0  0  0  0
    3.1079   -0.6892   -1.0028 N   0  0  0  0  0  0  0  0  0  0  0  0
    2.2990   -1.1210    0.0052 C   0  0  0  0  0  0  0  0  0  0  0  0
    1.6715   -0.0008    0.5191 C   0  0  0  0  0  0  0  0  0  0  0  0
    0.6852    0.0340    1.6434 C   0  0  0  0  0  0  0  0  0  0  0  0
   -0.7121   -0.1324    1.2343 N   0  0  0  0  0  0  0  0  0  0  0  0
   -1.0279   -1.4580    0.7002 C   0  0  0  0  0  0  0  0  0  0  0  0
   -2.4573   -1.5879    0.2556 C   0  0  0  0  0  0  0  0  0  0  0  0
   -3.2778   -0.5352    0.0856 C   0  0  0  0  0  0  0  0  0  0  0  0
   -4.6284   -0.6403   -0.3724 C   0  0  0  0  0  0  0  0  0  0  0  0
   -5.0083   -1.3634   -1.4886 C   0  0  0  0  0  0  0  0  0  0  0  0
   -6.3646   -1.2315   -1.6357 N   0  0  0  0  0  0  0  0  0  0  0  0
   -6.8675   -0.4503   -0.6331 C   0  0  0  0  0  0  0  0  0  0  0  0
   -8.1711   -0.1418   -0.4998 N   0  0  0  0  0  0  0  0  0  0  0  0
   -8.4184    0.6344    0.5792 C   0  0  0  0  0  0  0  0  0  0  0  0
   -7.4699    1.0878    1.4861 C   0  0  0  0  0  0  0  0  0  0  0  0
   -6.1322    0.7364    1.2985 C   0  0  0  0  0  0  0  0  0  0  0  0
   -5.8099   -0.0622    0.1859 C   0  0  0  0  0  0  0  0  0  0  0  0
   -2.7692    0.8692    0.3109 C   0  0  0  0  0  0  0  0  0  0  0  0
   -1.2313    0.9341    0.3754 C   0  0  0  0  0  0  0  0  0  0  0  0
    2.2117    1.0846   -0.2456 C   0  0  0  0  0  0  0  0  0  0  0  0
    1.9457    2.5101   -0.1244 C   0  0  0  0  0  0  0  0  0  0  0  0
    2.0915    3.1901    1.0860 C   0  0  0  0  0  0  0  0  0  0  0  0
    1.8088    4.5536    1.1487 C   0  0  0  0  0  0  0  0  0  0  0  0
    1.3918    5.1942   -0.0076 C   0  0  0  0  0  0  0  0  0  0  0  0
    1.2494    4.5751   -1.1987 N   0  0  0  0  0  0  0  0  0  0  0  0
    1.5427    3.2502   -1.2313 C   0  0  0  0  0  0  0  0  0  0  0  0
    3.0485    0.6395   -1.1960 N   0  0  0  0  0  0  0  0  0  0  0  0
    5.2713   -3.4362   -0.9007 C   0  0  0  0  0  0  0  0  0  0  0  0
    6.3882   -3.9356   -0.2283 C   0  0  0  0  0  0  0  0  0  0  0  0
    8.2556   -3.4573    0.7334 H   0  0  0  0  0  0  0  0  0  0  0  0
    8.0486   -1.0203    0.3182 H   0  0  0  0  0  0  0  0  0  0  0  0
    6.0773   -0.1237   -0.8689 H   0  0  0  0  0  0  0  0  0  0  0  0
    4.2562   -0.9112   -2.7276 H   0  0  0  0  0  0  0  0  0  0  0  0
    3.2982   -2.3190   -2.2497 H   0  0  0  0  0  0  0  0  0  0  0  0
    2.2336   -2.1668    0.2715 H   0  0  0  0  0  0  0  0  0  0  0  0
    0.9405   -0.7519    2.3668 H   0  0  0  0  0  0  0  0  0  0  0  0
    0.7801    0.9672    2.2082 H   0  0  0  0  0  0  0  0  0  0  0  0
   -0.4011   -1.7141   -0.1610 H   0  0  0  0  0  0  0  0  0  0  0  0
   -0.8463   -2.2084    1.4788 H   0  0  0  0  0  0  0  0  0  0  0  0
   -2.8131   -2.5959    0.0624 H   0  0  0  0  0  0  0  0  0  0  0  0
   -4.4331   -1.9476   -2.1942 H   0  0  0  0  0  0  0  0  0  0  0  0
   -6.9342   -1.6393   -2.3620 H   0  0  0  0  0  0  0  0  0  0  0  0
   -9.4651    0.8992    0.7105 H   0  0  0  0  0  0  0  0  0  0  0  0
   -7.7661    1.7026    2.3290 H   0  0  0  0  0  0  0  0  0  0  0  0
   -5.3712    1.0644    1.9977 H   0  0  0  0  0  0  0  0  0  0  0  0
   -3.1733    1.2525    1.2553 H   0  0  0  0  0  0  0  0  0  0  0  0
   -3.1077    1.5384   -0.4898 H   0  0  0  0  0  0  0  0  0  0  0  0
   -0.9579    1.9183    0.7744 H   0  0  0  0  0  0  0  0  0  0  0  0
   -0.8183    0.8627   -0.6392 H   0  0  0  0  0  0  0  0  0  0  0  0
    2.4389    2.6735    1.9762 H   0  0  0  0  0  0  0  0  0  0  0  0
    1.9170    5.1044    2.0764 H   0  0  0  0  0  0  0  0  0  0  0  0
    1.1598    6.2555   -0.0072 H   0  0  0  0  0  0  0  0  0  0  0  0
    1.4333    2.7821   -2.2066 H   0  0  0  0  0  0  0  0  0  0  0  0
    4.5047   -4.1316   -1.2355 H   0  0  0  0  0  0  0  0  0  0  0  0
    6.4810   -5.0033   -0.0466 H   0  0  0  0  0  0  0  0  0  0  0  0
  1  2  2  0
  2  3  1  0
  3  4  2  0
  4  5  1  0
  5  6  1  0
  6  7  1  0
  7  8  2  0
  8  9  1  0
  9 10  1  0
 10 11  1  0
 11 12  1  0
 12 13  2  0
 13 14  1  0
 14 15  2  0
 15 16  1  0
 16 17  1  0
 17 18  1  0
 18 19  2  0
 19 20  1  0
 20 21  2  0
 21 22  1  0
 13 23  1  0
 23 24  1  0
  8 25  1  0
 25 26  1  0
 26 27  1  0
 27 28  2  0
 28 29  1  0
 29 30  2  0
 30 31  1  0
 25 32  2  0
  4 33  1  0
 33 34  2  0
 34  1  1  0
 32  6  1  0
 24 10  1  0
 31 26  2  0
 22 14  1  0
 22 17  2  0
  1 35  1  0
  2 36  1  0
  3 37  1  0
  5 38  1  0
  5 39  1  0
  7 40  1  0
  9 41  1  0
  9 42  1  0
 11 43  1  0
 11 44  1  0
 12 45  1  0
 15 46  1  0
 16 47  1  0
 19 48  1  0
 20 49  1  0
 21 50  1  0
 23 51  1  0
 23 52  1  0
 24 53  1  0
 24 54  1  0
 27 55  1  0
 28 56  1  0
 29 57  1  0
 31 58  1  0
 33 59  1  0
 34 60  1  0
M  END
$$$$
OCNT-2312103
     RDKit          3D

 38 40  0  0  0  0  0  0  0  0999 V2000
   -3.3467    2.5232   -0.7544 O   0  0  0  0  0  0  0  0  0  0  0  0
   -3.5448    1.3483   -0.4659 C   0  0  0  0  0  0  0  0  0  0  0  0
   -2.6446    0.6021    0.2721 N   0  0  0  0  0  0  0  0  0  0  0  0
   -1.4623    1.2437    0.8270 C   0  0  0  0  0  0  0  0  0  0  0  0
   -0.4024    0.2166    1.2519 C   0  0  0  0  0  0  0  0  0  0  0  0
    0.7549    0.8786    1.8544 N   0  0  0  0  0  0  0  0  0  0  0  0
    1.7634   -0.0671    2.3417 C   0  0  0  0  0  0  0  0  0  0  0  0
    2.5303   -0.7565    1.2355 C   0  0  0  0  0  0  0  0  0  0  0  0
    2.2350   -2.1003    0.9180 C   0  0  0  0  0  0  0  0  0  0  0  0
    2.9040   -2.7768   -0.1007 C   0  0  0  0  0  0  0  0  0  0  0  0
    3.8963   -2.1447   -0.8495 C   0  0  0  0  0  0  0  0  0  0  0  0
    4.1924   -0.8145   -0.5362 C   0  0  0  0  0  0  0  0  0  0  0  0
    3.5419   -0.1113    0.4793 C   0  0  0  0  0  0  0  0  0  0  0  0
    4.1114    1.1966    0.5007 C   0  0  0  0  0  0  0  0  0  0  0  0
    5.0709    1.2596   -0.4827 C   0  0  0  0  0  0  0  0  0  0  0  0
    5.1119    0.0404   -1.1026 N   0  0  0  0  0  0  0  0  0  0  0  0
   -4.7436    0.6432   -0.8390 C   0  0  0  0  0  0  0  0  0  0  0  0
   -5.9741    1.1511   -1.2114 C   0  0  0  0  0  0  0  0  0  0  0  0
   -6.7752    0.0275   -1.4762 C   0  0  0  0  0  0  0  0  0  0  0  0
   -6.1096   -1.1165   -1.3071 N   0  0  0  0  0  0  0  0  0  0  0  0
   -4.8759   -0.7135   -0.9614 N   0  0  0  0  0  0  0  0  0  0  0  0
   -3.0319   -0.1559    0.8159 H   0  0  0  0  0  0  0  0  0  0  0  0
   -1.0470    1.9316    0.0810 H   0  0  0  0  0  0  0  0  0  0  0  0
   -1.7910    1.8402    1.6863 H   0  0  0  0  0  0  0  0  0  0  0  0
   -0.8517   -0.4788    1.9716 H   0  0  0  0  0  0  0  0  0  0  0  0
   -0.1092   -0.3661    0.3710 H   0  0  0  0  0  0  0  0  0  0  0  0
    1.1948    1.4885    1.1634 H   0  0  0  0  0  0  0  0  0  0  0  0
    1.3091   -0.7995    3.0206 H   0  0  0  0  0  0  0  0  0  0  0  0
    2.4809    0.4894    2.9572 H   0  0  0  0  0  0  0  0  0  0  0  0
    1.4656   -2.6288    1.4779 H   0  0  0  0  0  0  0  0  0  0  0  0
    2.6497   -3.8122   -0.3159 H   0  0  0  0  0  0  0  0  0  0  0  0
    4.4162   -2.6718   -1.6427 H   0  0  0  0  0  0  0  0  0  0  0  0
    3.8462    2.0051    1.1695 H   0  0  0  0  0  0  0  0  0  0  0  0
    5.7261    2.0629   -0.7917 H   0  0  0  0  0  0  0  0  0  0  0  0
    5.7270   -0.2054   -1.8658 H   0  0  0  0  0  0  0  0  0  0  0  0
   -6.2463    2.1962   -1.2701 H   0  0  0  0  0  0  0  0  0  0  0  0
   -7.8124   -0.0053   -1.7852 H   0  0  0  0  0  0  0  0  0  0  0  0
   -4.1593   -1.4201   -0.8379 H   0  0  0  0  0  0  0  0  0  0  0  0
  1  2  2  0
  2  3  1  0
  3  4  1  0
  4  5  1  0
  5  6  1  0
  6  7  1  0
  7  8  1  0
  8  9  1  0
  9 10  2  0
 10 11  1  0
 11 12  2  0
 12 13  1  0
 13 14  1  0
 14 15  2  0
 15 16  1  0
  2 17  1  0
 17 18  2  0
 18 19  1  0
 19 20  2  0
 20 21  1  0
 13  8  2  0
 21 17  1  0
 16 12  1  0
  3 22  1  0
  4 23  1  0
  4 24  1  0
  5 25  1  0
  5 26  1  0
  6 27  1  0
  7 28  1  0
  7 29  1  0
  9 30  1  0
 10 31  1  0
 11 32  1  0
 14 33  1  0
 15 34  1  0
 16 35  1  0
 18 36  1  0
 19 37  1  0
 21 38  1  0
M  END
$$$$
OCNT-2312104
     RDKit          3D

 52 56  0  0  0  0  0  0  0  0999 V2000
   -0.7270   -0.4226   -2.7468 O   0  0  0  0  0  0  0  0  0  0  0  0
   -0.7901   -1.1837   -1.7851 C   0  0  0  0  0  0  0  0  0  0  0  0
    0.1693   -2.1415   -1.5484 N   0  0  0  0  0  0  0  0  0  0  0  0
    1.3707   -2.2315   -2.3432 C   0  0  0  0  0  0  0  0  0  0  0  0
    2.5194   -1.5353   -1.6601 C   0  0  0  0  0  0  0  0  0  0  0  0
    2.6796   -0.1499   -1.7828 C   0  0  0  0  0  0  0  0  0  0  0  0
    3.7303    0.5052   -1.1334 C   0  0  0  0  0  0  0  0  0  0  0  0
    4.6448   -0.2034   -0.3387 C   0  0  0  0  0  0  0  0  0  0  0  0
    5.7503    0.4870    0.3437 C   0  0  0  0  0  0  0  0  0  0  0  0
    6.6425    1.3011   -0.3639 C   0  0  0  0  0  0  0  0  0  0  0  0
    7.6704    1.9295    0.3221 C   0  0  0  0  0  0  0  0  0  0  0  0
    7.8703    1.8093    1.6505 N   0  0  0  0  0  0  0  0  0  0  0  0
    7.0025    1.0246    2.3213 C   0  0  0  0  0  0  0  0  0  0  0  0
    5.9471    0.3534    1.7232 C   0  0  0  0  0  0  0  0  0  0  0  0
    4.4705   -1.5910   -0.2138 C   0  0  0  0  0  0  0  0  0  0  0  0
    3.4207   -2.2499   -0.8627 C   0  0  0  0  0  0  0  0  0  0  0  0
   -1.8616   -1.1398   -0.8029 C   0  0  0  0  0  0  0  0  0  0  0  0
   -2.2179   -2.0604    0.1805 C   0  0  0  0  0  0  0  0  0  0  0  0
   -3.3620   -1.5811    0.8676 C   0  0  0  0  0  0  0  0  0  0  0  0
   -3.6912   -0.3829    0.2882 C   0  0  0  0  0  0  0  0  0  0  0  0
   -2.7771   -0.1130   -0.6949 N   0  0  0  0  0  0  0  0  0  0  0  0
   -2.8506    1.1043   -1.4883 C   0  0  0  0  0  0  0  0  0  0  0  0
   -3.7701    2.1459   -0.8327 C   0  0  0  0  0  0  0  0  0  0  0  0
   -5.0703    1.5931   -0.4082 N   0  0  0  0  0  0  0  0  0  0  0  0
   -4.8533    0.5743    0.6359 C   0  0  0  0  0  0  0  0  0  0  0  0
   -4.8455    1.2377    2.0295 C   0  0  0  0  0  0  0  0  0  0  0  0
   -6.3748    1.0317    2.0897 C   0  0  0  0  0  0  0  0  0  0  0  0
   -6.2192   -0.0519    1.0006 C   0  0  0  0  0  0  0  0  0  0  0  0
    0.1737   -2.5983   -0.6499 H   0  0  0  0  0  0  0  0  0  0  0  0
    1.5949   -3.2963   -2.4722 H   0  0  0  0  0  0  0  0  0  0  0  0
    1.2119   -1.8127   -3.3433 H   0  0  0  0  0  0  0  0  0  0  0  0
    1.9788    0.4295   -2.3826 H   0  0  0  0  0  0  0  0  0  0  0  0
    3.8196    1.5844   -1.2423 H   0  0  0  0  0  0  0  0  0  0  0  0
    6.5502    1.4376   -1.4366 H   0  0  0  0  0  0  0  0  0  0  0  0
    8.3823    2.5642   -0.1979 H   0  0  0  0  0  0  0  0  0  0  0  0
    7.1800    0.9464    3.3901 H   0  0  0  0  0  0  0  0  0  0  0  0
    5.2829   -0.2529    2.3304 H   0  0  0  0  0  0  0  0  0  0  0  0
    5.1650   -2.1763    0.3860 H   0  0  0  0  0  0  0  0  0  0  0  0
    3.3180   -3.3260   -0.7426 H   0  0  0  0  0  0  0  0  0  0  0  0
   -1.7239   -3.0024    0.3783 H   0  0  0  0  0  0  0  0  0  0  0  0
   -3.8825   -2.0693    1.6813 H   0  0  0  0  0  0  0  0  0  0  0  0
   -3.2286    0.8158   -2.4753 H   0  0  0  0  0  0  0  0  0  0  0  0
   -1.8412    1.5162   -1.5812 H   0  0  0  0  0  0  0  0  0  0  0  0
   -3.9520    2.9583   -1.5453 H   0  0  0  0  0  0  0  0  0  0  0  0
   -3.2640    2.6031    0.0270 H   0  0  0  0  0  0  0  0  0  0  0  0
   -5.5352    1.2027   -1.2283 H   0  0  0  0  0  0  0  0  0  0  0  0
   -4.5146    2.2786    2.0969 H   0  0  0  0  0  0  0  0  0  0  0  0
   -4.3120    0.6651    2.7988 H   0  0  0  0  0  0  0  0  0  0  0  0
   -6.7671    0.6848    3.0492 H   0  0  0  0  0  0  0  0  0  0  0  0
   -6.9522    1.9051    1.7660 H   0  0  0  0  0  0  0  0  0  0  0  0
   -6.1667   -1.0629    1.4228 H   0  0  0  0  0  0  0  0  0  0  0  0
   -6.9956   -0.0541    0.2286 H   0  0  0  0  0  0  0  0  0  0  0  0
  1  2  2  0
  2  3  1  0
  3  4  1  0
  4  5  1  0
  5  6  1  0
  6  7  2  0
  7  8  1  0
  8  9  1  0
  9 10  2  0
 10 11  1  0
 11 12  2  0
 12 13  1  0
 13 14  2  0
  8 15  2  0
 15 16  1  0
  2 17  1  0
 17 18  2  0
 18 19  1  0
 19 20  2  0
 20 21  1  0
 21 22  1  0
 22 23  1  0
 23 24  1  0
 24 25  1  0
 25 26  1  0
 26 27  1  0
 27 28  1  0
 16  5  2  0
 21 17  1  0
 28 25  1  0
 14  9  1  0
 25 20  1  0
  3 29  1  0
  4 30  1  0
  4 31  1  0
  6 32  1  0
  7 33  1  0
 10 34  1  0
 11 35  1  0
 13 36  1  0
 14 37  1  0
 15 38  1  0
 16 39  1  0
 18 40  1  0
 19 41  1  0
 22 42  1  0
 22 43  1  0
 23 44  1  0
 23 45  1  0
 24 46  1  0
 26 47  1  0
 26 48  1  0
 27 49  1  0
 27 50  1  0
 28 51  1  0
 28 52  1  0
M  END
$$$$
OCNT-2312108
     RDKit          3D

 46 49  0  0  0  0  0  0  0  0999 V2000
   -6.3181   -0.1099   -0.2949 C   0  0  0  0  0  0  0  0  0  0  0  0
   -5.7701    0.6254   -1.5145 C   0  0  0  0  0  0  0  0  0  0  0  0
   -6.8809    1.4410   -2.1733 C   0  0  0  0  0  0  0  0  0  0  0  0
   -4.7617    1.5579   -1.1099 O   0  0  0  0  0  0  0  0  0  0  0  0
   -3.4617    1.1461   -1.0365 C   0  0  0  0  0  0  0  0  0  0  0  0
   -2.5511    2.1595   -0.7627 C   0  0  0  0  0  0  0  0  0  0  0  0
   -1.1892    1.8743   -0.6612 C   0  0  0  0  0  0  0  0  0  0  0  0
   -0.6990    0.5589   -0.8354 C   0  0  0  0  0  0  0  0  0  0  0  0
   -1.6395   -0.4685   -1.0855 C   0  0  0  0  0  0  0  0  0  0  0  0
   -2.9911   -0.1566   -1.1866 C   0  0  0  0  0  0  0  0  0  0  0  0
   -1.2913   -1.7551   -1.2231 N   0  0  0  0  0  0  0  0  0  0  0  0
    0.0087   -2.0720   -1.0869 C   0  0  0  0  0  0  0  0  0  0  0  0
    1.0094   -1.1488   -0.8518 C   0  0  0  0  0  0  0  0  0  0  0  0
    0.6824    0.2051   -0.7652 C   0  0  0  0  0  0  0  0  0  0  0  0
    1.6486    1.1955   -0.4969 N   0  0  0  0  0  0  0  0  0  0  0  0
    3.0817    0.9315   -0.6010 C   0  0  0  0  0  0  0  0  0  0  0  0
    3.6551    0.2580    0.6302 C   0  0  0  0  0  0  0  0  0  0  0  0
    3.1284    0.5196    1.9265 C   0  0  0  0  0  0  0  0  0  0  0  0
    3.6664   -0.0712    3.0767 C   0  0  0  0  0  0  0  0  0  0  0  0
    4.7396   -0.9068    2.8941 C   0  0  0  0  0  0  0  0  0  0  0  0
    5.4777   -1.6253    3.8277 N   0  0  0  0  0  0  0  0  0  0  0  0
    6.4845   -2.3336    3.1569 C   0  0  0  0  0  0  0  0  0  0  0  0
    7.3178   -3.0665    3.6581 O   0  0  0  0  0  0  0  0  0  0  0  0
    6.3469   -2.0336    1.7935 N   0  0  0  0  0  0  0  0  0  0  0  0
    5.2767   -1.1604    1.6347 C   0  0  0  0  0  0  0  0  0  0  0  0
    4.7673   -0.5946    0.4892 C   0  0  0  0  0  0  0  0  0  0  0  0
   -7.1290   -0.7895   -0.5748 H   0  0  0  0  0  0  0  0  0  0  0  0
   -5.5369   -0.6942    0.2008 H   0  0  0  0  0  0  0  0  0  0  0  0
   -6.6966    0.5984    0.4507 H   0  0  0  0  0  0  0  0  0  0  0  0
   -5.3961   -0.0780   -2.2670 H   0  0  0  0  0  0  0  0  0  0  0  0
   -7.7006    0.7987   -2.5096 H   0  0  0  0  0  0  0  0  0  0  0  0
   -6.4891    1.9874   -3.0382 H   0  0  0  0  0  0  0  0  0  0  0  0
   -7.2820    2.1916   -1.4830 H   0  0  0  0  0  0  0  0  0  0  0  0
   -2.9020    3.1792   -0.6230 H   0  0  0  0  0  0  0  0  0  0  0  0
   -0.5170    2.6939   -0.4248 H   0  0  0  0  0  0  0  0  0  0  0  0
   -3.6683   -0.9834   -1.3728 H   0  0  0  0  0  0  0  0  0  0  0  0
    0.2372   -3.1306   -1.1721 H   0  0  0  0  0  0  0  0  0  0  0  0
    2.0231   -1.5120   -0.7469 H   0  0  0  0  0  0  0  0  0  0  0  0
    1.4050    2.0645   -0.9647 H   0  0  0  0  0  0  0  0  0  0  0  0
    3.3022    0.3597   -1.5108 H   0  0  0  0  0  0  0  0  0  0  0  0
    3.5978    1.8940   -0.7063 H   0  0  0  0  0  0  0  0  0  0  0  0
    2.2742    1.1885    2.0320 H   0  0  0  0  0  0  0  0  0  0  0  0
    3.2496    0.1273    4.0563 H   0  0  0  0  0  0  0  0  0  0  0  0
    5.3392   -1.6542    4.8242 H   0  0  0  0  0  0  0  0  0  0  0  0
    6.9450   -2.4096    1.0769 H   0  0  0  0  0  0  0  0  0  0  0  0
    5.2068   -0.8017   -0.4797 H   0  0  0  0  0  0  0  0  0  0  0  0
  1  2  1  0
  2  3  1  0
  2  4  1  0
  4  5  1  0
  5  6  2  0
  6  7  1  0
  7  8  2  0
  8  9  1  0
  9 10  2  0
  9 11  1  0
 11 12  2  0
 12 13  1  0
 13 14  2  0
 14 15  1  0
 15 16  1  0
 16 17  1  0
 17 18  1  0
 18 19  2  0
 19 20  1  0
 20 21  1  0
 21 22  1  0
 22 23  2  0
 22 24  1  0
 24 25  1  0
 25 26  1  0
 10  5  1  0
 26 17  2  0
 14  8  1  0
 25 20  2  0
  1 27  1  0
  1 28  1  0
  1 29  1  0
  2 30  1  0
  3 31  1  0
  3 32  1  0
  3 33  1  0
  6 34  1  0
  7 35  1  0
 10 36  1  0
 12 37  1  0
 13 38  1  0
 15 39  1  0
 16 40  1  0
 16 41  1  0
 18 42  1  0
 19 43  1  0
 21 44  1  0
 24 45  1  0
 26 46  1  0
M  END
$$$$
OCNT-2312110
     RDKit          3D

 38 41  0  0  0  0  0  0  0  0999 V2000
    8.4981    0.9998   -2.7508 F   0  0  0  0  0  0  0  0  0  0  0  0
    7.3414    0.7438   -2.1268 C   0  0  0  0  0  0  0  0  0  0  0  0
    6.3578    0.0179   -2.7817 C   0  0  0  0  0  0  0  0  0  0  0  0
    5.1528   -0.2467   -2.1282 C   0  0  0  0  0  0  0  0  0  0  0  0
    4.9243    0.2076   -0.8125 C   0  0  0  0  0  0  0  0  0  0  0  0
    3.6456   -0.1237   -0.1938 C   0  0  0  0  0  0  0  0  0  0  0  0
    3.4752   -0.4257    1.1013 N   0  0  0  0  0  0  0  0  0  0  0  0
    2.1158   -0.7020    1.2023 O   0  0  0  0  0  0  0  0  0  0  0  0
    1.5860   -0.5709   -0.0532 C   0  0  0  0  0  0  0  0  0  0  0  0
    0.0839   -0.8063   -0.3716 C   0  0  0  0  0  0  0  0  0  0  0  0
   -0.8847   -1.1591    0.5405 C   0  0  0  0  0  0  0  0  0  0  0  0
   -2.0185   -1.2412   -0.2121 N   0  0  0  0  0  0  0  0  0  0  0  0
   -3.3558   -1.5784    0.2262 C   0  0  0  0  0  0  0  0  0  0  0  0
   -4.3281   -0.3987    0.1320 C   0  0  2  0  0  0  0  0  0  0  0  0
   -3.9542    0.7848    1.0183 C   0  0  0  0  0  0  0  0  0  0  0  0
   -5.2665    1.5302    1.2212 C   0  0  0  0  0  0  0  0  0  0  0  0
   -6.3510    0.5661    0.7627 C   0  0  0  0  0  0  0  0  0  0  0  0
   -5.6872   -0.7347    0.6103 N   0  0  0  0  0  0  0  0  0  0  0  0
   -1.7713   -0.9697   -1.5049 N   0  0  0  0  0  0  0  0  0  0  0  0
   -0.4773   -0.6928   -1.6137 N   0  0  0  0  0  0  0  0  0  0  0  0
    2.4945   -0.2312   -0.9430 N   0  0  0  0  0  0  0  0  0  0  0  0
    5.9335    0.9548   -0.1777 C   0  0  0  0  0  0  0  0  0  0  0  0
    5.7599    1.6449    1.4002 Cl  0  0  0  0  0  0  0  0  0  0  0  0
    7.1412    1.2163   -0.8368 C   0  0  0  0  0  0  0  0  0  0  0  0
    6.5305   -0.3366   -3.7934 H   0  0  0  0  0  0  0  0  0  0  0  0
    4.3856   -0.8172   -2.6519 H   0  0  0  0  0  0  0  0  0  0  0  0
   -0.8627   -1.3468    1.6036 H   0  0  0  0  0  0  0  0  0  0  0  0
   -3.2835   -1.9485    1.2562 H   0  0  0  0  0  0  0  0  0  0  0  0
   -3.6955   -2.4129   -0.3991 H   0  0  0  0  0  0  0  0  0  0  0  0
   -4.4002   -0.0676   -0.9131 H   0  0  0  0  0  0  0  0  0  0  0  0
   -3.5697    0.4489    1.9896 H   0  0  0  0  0  0  0  0  0  0  0  0
   -3.1943    1.4250    0.5589 H   0  0  0  0  0  0  0  0  0  0  0  0
   -5.2925    2.4497    0.6263 H   0  0  0  0  0  0  0  0  0  0  0  0
   -5.3895    1.8052    2.2743 H   0  0  0  0  0  0  0  0  0  0  0  0
   -7.1790    0.5091    1.4760 H   0  0  0  0  0  0  0  0  0  0  0  0
   -6.7637    0.8831   -0.2020 H   0  0  0  0  0  0  0  0  0  0  0  0
   -5.6285   -1.1701    1.5322 H   0  0  0  0  0  0  0  0  0  0  0  0
    7.9274    1.7935   -0.3593 H   0  0  0  0  0  0  0  0  0  0  0  0
  1  2  1  0
  2  3  1  0
  3  4  2  0
  4  5  1  0
  5  6  1  0
  6  7  2  0
  7  8  1  0
  8  9  1  0
  9 10  1  0
 10 11  2  0
 11 12  1  0
 12 13  1  0
 13 14  1  0
 14 15  1  0
 15 16  1  0
 16 17  1  0
 17 18  1  0
 12 19  1  0
 19 20  2  0
  9 21  2  0
  5 22  2  0
 22 23  1  0
 22 24  1  0
 24  2  2  0
 21  6  1  0
 20 10  1  0
 18 14  1  0
  3 25  1  0
  4 26  1  0
 11 27  1  0
 13 28  1  0
 13 29  1  0
 14 30  1  6
 15 31  1  0
 15 32  1  0
 16 33  1  0
 16 34  1  0
 17 35  1  0
 17 36  1  0
 18 37  1  0
 24 38  1  0
M  END
$$$$
OCNT-2312113
     RDKit          3D

 40 42  0  0  0  0  0  0  0  0999 V2000
    5.0532    2.4443   -0.2531 C   0  0  0  0  0  0  0  0  0  0  0  0
    3.9521    1.4275   -0.3655 C   0  0  0  0  0  0  0  0  0  0  0  0
    3.2371    1.3120   -1.5641 C   0  0  0  0  0  0  0  0  0  0  0  0
    2.2076    0.3744   -1.6926 C   0  0  0  0  0  0  0  0  0  0  0  0
    1.8602   -0.4759   -0.6305 C   0  0  0  0  0  0  0  0  0  0  0  0
    0.7972   -1.4034   -0.8147 N   0  0  0  0  0  0  0  0  0  0  0  0
    0.9818   -2.4783   -1.6497 C   0  0  0  0  0  0  0  0  0  0  0  0
    0.5519   -3.6297   -1.2399 N   0  0  0  0  0  0  0  0  0  0  0  0
    0.0165   -3.3577    0.0037 C   0  0  0  0  0  0  0  0  0  0  0  0
   -0.6338   -4.1425    0.6784 O   0  0  0  0  0  0  0  0  0  0  0  0
    0.2706   -2.0239    0.3407 N   0  0  0  0  0  0  0  0  0  0  0  0
   -0.6737   -1.2835    1.1598 C   0  0  0  0  0  0  0  0  0  0  0  0
   -1.9777   -0.9512    0.4244 C   0  0  0  0  0  0  0  0  0  0  0  0
   -3.0087   -0.2535    1.3311 C   0  0  0  0  0  0  0  0  0  0  0  0
   -4.3155   -0.0018    0.5827 C   0  0  0  0  0  0  0  0  0  0  0  0
   -4.1600    1.3874   -0.0251 C   0  0  0  0  0  0  0  0  0  0  0  0
   -2.9652    1.9931    0.5803 N   0  0  0  0  0  0  0  0  0  0  0  0
   -2.6273    1.1641    1.7406 C   0  0  0  0  0  0  0  0  0  0  0  0
    2.5799   -0.3574    0.5670 C   0  0  0  0  0  0  0  0  0  0  0  0
    3.6110    0.5809    0.6982 C   0  0  0  0  0  0  0  0  0  0  0  0
    4.4428    0.6553    2.2113 Cl  0  0  0  0  0  0  0  0  0  0  0  0
    5.1720    3.0107   -1.1830 H   0  0  0  0  0  0  0  0  0  0  0  0
    6.0084    1.9515   -0.0456 H   0  0  0  0  0  0  0  0  0  0  0  0
    4.8297    3.1630    0.5418 H   0  0  0  0  0  0  0  0  0  0  0  0
    3.4729    1.9554   -2.4101 H   0  0  0  0  0  0  0  0  0  0  0  0
    1.6639    0.3225   -2.6344 H   0  0  0  0  0  0  0  0  0  0  0  0
    1.5107   -2.2995   -2.5992 H   0  0  0  0  0  0  0  0  0  0  0  0
   -0.1766   -0.3740    1.5086 H   0  0  0  0  0  0  0  0  0  0  0  0
   -0.8971   -1.8941    2.0425 H   0  0  0  0  0  0  0  0  0  0  0  0
   -2.4191   -1.8816    0.0443 H   0  0  0  0  0  0  0  0  0  0  0  0
   -1.7581   -0.3394   -0.4590 H   0  0  0  0  0  0  0  0  0  0  0  0
   -3.1905   -0.8800    2.2122 H   0  0  0  0  0  0  0  0  0  0  0  0
   -5.1476    0.0074    1.2981 H   0  0  0  0  0  0  0  0  0  0  0  0
   -4.5350   -0.7632   -0.1724 H   0  0  0  0  0  0  0  0  0  0  0  0
   -4.0367    1.3278   -1.1119 H   0  0  0  0  0  0  0  0  0  0  0  0
   -5.0435    2.0019    0.1762 H   0  0  0  0  0  0  0  0  0  0  0  0
   -2.2018    1.9510   -0.0948 H   0  0  0  0  0  0  0  0  0  0  0  0
   -3.2309    1.4881    2.5974 H   0  0  0  0  0  0  0  0  0  0  0  0
   -1.5771    1.2800    2.0193 H   0  0  0  0  0  0  0  0  0  0  0  0
    2.3565   -1.0079    1.4091 H   0  0  0  0  0  0  0  0  0  0  0  0
  1  2  1  0
  2  3  1  0
  3  4  2  0
  4  5  1  0
  5  6  1  0
  6  7  1  0
  7  8  2  0
  8  9  1  0
  9 10  2  0
  9 11  1  0
 11 12  1  0
 12 13  1  0
 13 14  1  0
 14 15  1  0
 15 16  1  0
 16 17  1  0
 17 18  1  0
  5 19  2  0
 19 20  1  0
 20 21  1  0
 20  2  2  0
 11  6  1  0
 18 14  1  0
  1 22  1  0
  1 23  1  0
  1 24  1  0
  3 25  1  0
  4 26  1  0
  7 27  1  0
 12 28  1  0
 12 29  1  0
 13 30  1  0
 13 31  1  0
 14 32  1  0
 15 33  1  0
 15 34  1  0
 16 35  1  0
 16 36  1  0
 17 37  1  0
 18 38  1  0
 18 39  1  0
 19 40  1  0
M  END
$$$$
OCNT-2312118
     RDKit          3D

 47 50  0  0  0  0  0  0  0  0999 V2000
   -0.5643    1.0537    2.6303 O   0  0  0  0  0  0  0  0  0  0  0  0
    0.3133    0.5727    1.9211 C   0  0  0  0  0  0  0  0  0  0  0  0
    1.4094    1.3151    1.5389 N   0  0  0  0  0  0  0  0  0  0  0  0
    2.4336    0.8424    0.7539 C   0  0  0  0  0  0  0  0  0  0  0  0
    3.5409    1.7529    0.4326 C   0  0  0  0  0  0  0  0  0  0  0  0
    3.8703    2.0437   -0.8928 C   0  0  0  0  0  0  0  0  0  0  0  0
    4.9142    2.9205   -1.1365 C   0  0  0  0  0  0  0  0  0  0  0  0
    5.6400    3.5113   -0.1641 N   0  0  0  0  0  0  0  0  0  0  0  0
    5.3056    3.2163    1.1095 C   0  0  0  0  0  0  0  0  0  0  0  0
    4.2759    2.3572    1.4553 C   0  0  0  0  0  0  0  0  0  0  0  0
    2.4060   -0.4294    0.3220 C   0  0  0  0  0  0  0  0  0  0  0  0
    1.2976   -1.2894    0.6748 C   0  0  0  0  0  0  0  0  0  0  0  0
    0.2676   -0.8229    1.4042 C   0  0  0  0  0  0  0  0  0  0  0  0
   -0.8222   -1.7481    1.7745 C   0  0  0  0  0  0  0  0  0  0  0  0
   -0.7521   -2.3110    2.8692 O   0  0  0  0  0  0  0  0  0  0  0  0
   -1.8503   -2.0073    0.8549 N   0  0  0  0  0  0  0  0  0  0  0  0
   -2.5987   -3.2319    1.1737 C   0  0  0  0  0  0  0  0  0  0  0  0
   -3.8636   -3.4629    0.3435 C   0  0  0  0  0  0  0  0  0  0  0  0
   -3.5826   -3.3880   -1.0949 N   0  0  0  0  0  0  0  0  0  0  0  0
   -3.0884   -2.0350   -1.3849 C   0  0  0  0  0  0  0  0  0  0  0  0
   -1.8100   -1.6187   -0.5836 C   0  0  0  0  0  0  0  0  0  0  0  0
   -1.6261   -0.1237   -0.8239 C   0  0  0  0  0  0  0  0  0  0  0  0
   -2.3745    0.8293   -0.1132 C   0  0  0  0  0  0  0  0  0  0  0  0
   -2.2006    2.1942   -0.3517 C   0  0  0  0  0  0  0  0  0  0  0  0
   -1.2857    2.6256   -1.3108 C   0  0  0  0  0  0  0  0  0  0  0  0
   -0.5515    1.6887   -2.0326 C   0  0  0  0  0  0  0  0  0  0  0  0
    0.5790    2.2162   -3.2177 Cl  0  0  0  0  0  0  0  0  0  0  0  0
   -0.7212    0.3233   -1.8016 C   0  0  0  0  0  0  0  0  0  0  0  0
    1.4204    2.2735    1.8641 H   0  0  0  0  0  0  0  0  0  0  0  0
    3.3235    1.6113   -1.7235 H   0  0  0  0  0  0  0  0  0  0  0  0
    5.2012    3.1804   -2.1516 H   0  0  0  0  0  0  0  0  0  0  0  0
    5.9075    3.7042    1.8711 H   0  0  0  0  0  0  0  0  0  0  0  0
    4.0642    2.1582    2.5008 H   0  0  0  0  0  0  0  0  0  0  0  0
    3.2042   -0.8506   -0.2821 H   0  0  0  0  0  0  0  0  0  0  0  0
    1.3285   -2.3203    0.3358 H   0  0  0  0  0  0  0  0  0  0  0  0
   -1.9082   -4.0734    1.0264 H   0  0  0  0  0  0  0  0  0  0  0  0
   -2.8733   -3.2219    2.2354 H   0  0  0  0  0  0  0  0  0  0  0  0
   -4.2696   -4.4534    0.5757 H   0  0  0  0  0  0  0  0  0  0  0  0
   -4.6323   -2.7288    0.6156 H   0  0  0  0  0  0  0  0  0  0  0  0
   -4.4491   -3.5430   -1.6107 H   0  0  0  0  0  0  0  0  0  0  0  0
   -2.8734   -1.9677   -2.4589 H   0  0  0  0  0  0  0  0  0  0  0  0
   -3.9071   -1.3266   -1.1966 H   0  0  0  0  0  0  0  0  0  0  0  0
   -0.9564   -2.1672   -1.0039 H   0  0  0  0  0  0  0  0  0  0  0  0
   -3.0804    0.5140    0.6547 H   0  0  0  0  0  0  0  0  0  0  0  0
   -2.7708    2.9197    0.2239 H   0  0  0  0  0  0  0  0  0  0  0  0
   -1.1507    3.6893   -1.4867 H   0  0  0  0  0  0  0  0  0  0  0  0
   -0.1402   -0.3927   -2.3783 H   0  0  0  0  0  0  0  0  0  0  0  0
  1  2  2  0
  2  3  1  0
  3  4  1  0
  4  5  1  0
  5  6  2  0
  6  7  1  0
  7  8  2  0
  8  9  1  0
  9 10  2  0
  4 11  2  0
 11 12  1  0
 12 13  2  0
 13 14  1  0
 14 15  2  0
 14 16  1  0
 16 17  1  0
 17 18  1  0
 18 19  1  0
 19 20  1  0
 20 21  1  0
 21 22  1  0
 22 23  2  0
 23 24  1  0
 24 25  2  0
 25 26  1  0
 26 27  1  0
 26 28  2  0
 13  2  1  0
 21 16  1  0
 28 22  1  0
 10  5  1  0
  3 29  1  0
  6 30  1  0
  7 31  1  0
  9 32  1  0
 10 33  1  0
 11 34  1  0
 12 35  1  0
 17 36  1  0
 17 37  1  0
 18 38  1  0
 18 39  1  0
 19 40  1  0
 20 41  1  0
 20 42  1  0
 21 43  1  0
 23 44  1  0
 24 45  1  0
 25 46  1  0
 28 47  1  0
M  END
$$$$
OCNT-2312136
     RDKit          3D

 40 42  0  0  0  0  0  0  0  0999 V2000
   -1.9682   -1.2886   -1.4357 C   0  0  0  0  0  0  0  0  0  0  0  0
   -2.2024    0.1171   -0.8375 C   0  0  0  0  0  0  0  0  0  0  0  0
   -1.9052    1.1582   -1.9415 C   0  0  0  0  0  0  0  0  0  0  0  0
   -1.3340    0.3746    0.3346 N   0  0  0  0  0  0  0  0  0  0  0  0
    0.1086    0.1966    0.1474 C   0  0  0  0  0  0  0  0  0  0  0  0
    0.8512    0.4587    1.4629 C   0  0  0  0  0  0  0  0  0  0  0  0
    2.3143    0.2831    1.2816 C   0  0  0  0  0  0  0  0  0  0  0  0
    3.1942    1.1480    0.8128 N   0  0  0  0  0  0  0  0  0  0  0  0
    4.3809    0.4602    0.8607 C   0  0  0  0  0  0  0  0  0  0  0  0
    5.6793    0.8405    0.5000 C   0  0  0  0  0  0  0  0  0  0  0  0
    6.7013   -0.1036    0.6676 C   0  0  0  0  0  0  0  0  0  0  0  0
    8.4732    0.3665    0.1927 Br  0  0  0  0  0  0  0  0  0  0  0  0
    6.4472   -1.3846    1.1762 C   0  0  0  0  0  0  0  0  0  0  0  0
    5.1519   -1.7744    1.5397 C   0  0  0  0  0  0  0  0  0  0  0  0
    4.1641   -0.8142    1.3605 C   0  0  0  0  0  0  0  0  0  0  0  0
    2.8332   -0.9360    1.6322 O   0  0  0  0  0  0  0  0  0  0  0  0
   -3.6613    0.1777   -0.3378 C   0  0  0  0  0  0  0  0  0  0  0  0
   -4.0579   -0.6255    0.7470 C   0  0  0  0  0  0  0  0  0  0  0  0
   -5.3685   -0.5750    1.1974 C   0  0  0  0  0  0  0  0  0  0  0  0
   -6.3175    0.2110    0.6527 N   0  0  0  0  0  0  0  0  0  0  0  0
   -5.9318    0.9805   -0.3847 C   0  0  0  0  0  0  0  0  0  0  0  0
   -4.6432    1.0001   -0.9052 C   0  0  0  0  0  0  0  0  0  0  0  0
   -2.7247   -1.5227   -2.1951 H   0  0  0  0  0  0  0  0  0  0  0  0
   -2.0210   -2.0749   -0.6736 H   0  0  0  0  0  0  0  0  0  0  0  0
   -0.9904   -1.3682   -1.9237 H   0  0  0  0  0  0  0  0  0  0  0  0
   -2.0484    2.1836   -1.5804 H   0  0  0  0  0  0  0  0  0  0  0  0
   -2.5554    1.0143   -2.8128 H   0  0  0  0  0  0  0  0  0  0  0  0
   -0.8786    1.0798   -2.3156 H   0  0  0  0  0  0  0  0  0  0  0  0
   -1.5244    1.3197    0.6710 H   0  0  0  0  0  0  0  0  0  0  0  0
    0.3313   -0.8262   -0.1764 H   0  0  0  0  0  0  0  0  0  0  0  0
    0.4899    0.8810   -0.6181 H   0  0  0  0  0  0  0  0  0  0  0  0
    0.6570    1.4811    1.8093 H   0  0  0  0  0  0  0  0  0  0  0  0
    0.4892   -0.2199    2.2449 H   0  0  0  0  0  0  0  0  0  0  0  0
    5.8689    1.8326    0.1076 H   0  0  0  0  0  0  0  0  0  0  0  0
    7.2623   -2.0962    1.2952 H   0  0  0  0  0  0  0  0  0  0  0  0
    4.9294   -2.7574    1.9352 H   0  0  0  0  0  0  0  0  0  0  0  0
   -3.3478   -1.2793    1.2450 H   0  0  0  0  0  0  0  0  0  0  0  0
   -5.6941   -1.1847    2.0351 H   0  0  0  0  0  0  0  0  0  0  0  0
   -6.7117    1.6078   -0.8073 H   0  0  0  0  0  0  0  0  0  0  0  0
   -4.4411    1.6584   -1.7416 H   0  0  0  0  0  0  0  0  0  0  0  0
  1  2  1  0
  2  3  1  0
  2  4  1  0
  4  5  1  0
  5  6  1  0
  6  7  1  0
  7  8  2  0
  8  9  1  0
  9 10  2  0
 10 11  1  0
 11 12  1  0
 11 13  2  0
 13 14  1  0
 14 15  2  0
 15 16  1  0
  2 17  1  0
 17 18  2  0
 18 19  1  0
 19 20  2  0
 20 21  1  0
 21 22  2  0
 16  7  1  0
 22 17  1  0
 15  9  1  0
  1 23  1  0
  1 24  1  0
  1 25  1  0
  3 26  1  0
  3 27  1  0
  3 28  1  0
  4 29  1  0
  5 30  1  0
  5 31  1  0
  6 32  1  0
  6 33  1  0
 10 34  1  0
 13 35  1  0
 14 36  1  0
 18 37  1  0
 19 38  1  0
 21 39  1  0
 22 40  1  0
M  END
$$$$
OCNT-2312140
     RDKit          3D

 37 40  0  0  0  0  0  0  0  0999 V2000
    5.6763    1.7078    1.1271 C   0  0  0  0  0  0  0  0  0  0  0  0
    5.1775    0.5206    0.3594 C   0  0  0  0  0  0  0  0  0  0  0  0
    3.8014    0.2820    0.2112 C   0  0  0  0  0  0  0  0  0  0  0  0
    3.3486   -0.8505   -0.4867 C   0  0  0  0  0  0  0  0  0  0  0  0
    1.9605   -1.1027   -0.6521 N   0  0  0  0  0  0  0  0  0  0  0  0
    0.8886   -0.3616   -0.2094 C   0  0  0  0  0  0  0  0  0  0  0  0
   -0.2162   -1.0555   -0.6419 C   0  0  0  0  0  0  0  0  0  0  0  0
   -1.7045   -0.6576   -0.4120 C   0  0  0  0  0  0  0  0  0  0  0  0
   -2.1284    0.4658    0.2693 C   0  0  0  0  0  0  0  0  0  0  0  0
   -3.5554    0.5624    0.3170 C   0  0  0  0  0  0  0  0  0  0  0  0
   -4.1422   -0.5009   -0.3416 C   0  0  0  0  0  0  0  0  0  0  0  0
   -5.6208   -0.7005   -0.4422 C   0  0  0  0  0  0  0  0  0  0  0  0
   -6.3417    0.5818    0.0279 C   0  0  0  0  0  0  0  0  0  0  0  0
   -5.7302    1.1800    1.2335 N   0  0  0  0  0  0  0  0  0  0  0  0
   -4.3637    1.6559    0.9511 C   0  0  0  0  0  0  0  0  0  0  0  0
   -3.0145   -1.5884   -0.9916 S   0  0  0  0  0  0  0  0  0  0  0  0
    0.1839   -2.1696   -1.3178 N   0  0  0  0  0  0  0  0  0  0  0  0
    1.5098   -2.1928   -1.3207 N   0  0  0  0  0  0  0  0  0  0  0  0
    4.2817   -1.7501   -1.0281 C   0  0  0  0  0  0  0  0  0  0  0  0
    5.6491   -1.5209   -0.8692 C   0  0  0  0  0  0  0  0  0  0  0  0
    6.0842   -0.3967   -0.1770 C   0  0  0  0  0  0  0  0  0  0  0  0
    7.4014   -0.1988   -0.0264 F   0  0  0  0  0  0  0  0  0  0  0  0
    5.9345    1.4118    2.1485 H   0  0  0  0  0  0  0  0  0  0  0  0
    6.5602    2.1381    0.6448 H   0  0  0  0  0  0  0  0  0  0  0  0
    4.9173    2.4958    1.1734 H   0  0  0  0  0  0  0  0  0  0  0  0
    3.1082    0.9944    0.6492 H   0  0  0  0  0  0  0  0  0  0  0  0
    0.9925    0.5532    0.3487 H   0  0  0  0  0  0  0  0  0  0  0  0
   -1.4595    1.1917    0.7138 H   0  0  0  0  0  0  0  0  0  0  0  0
   -5.9125   -1.5396    0.2013 H   0  0  0  0  0  0  0  0  0  0  0  0
   -5.9209   -0.9376   -1.4687 H   0  0  0  0  0  0  0  0  0  0  0  0
   -7.3902    0.3452    0.2411 H   0  0  0  0  0  0  0  0  0  0  0  0
   -6.3510    1.3265   -0.7786 H   0  0  0  0  0  0  0  0  0  0  0  0
   -5.6657    0.4594    1.9532 H   0  0  0  0  0  0  0  0  0  0  0  0
   -3.8984    1.9764    1.8896 H   0  0  0  0  0  0  0  0  0  0  0  0
   -4.4003    2.5266    0.2863 H   0  0  0  0  0  0  0  0  0  0  0  0
    3.9629   -2.6373   -1.5737 H   0  0  0  0  0  0  0  0  0  0  0  0
    6.3773   -2.2141   -1.2791 H   0  0  0  0  0  0  0  0  0  0  0  0
  1  2  1  0
  2  3  1  0
  3  4  2  0
  4  5  1  0
  5  6  1  0
  6  7  2  0
  7  8  1  0
  8  9  2  0
  9 10  1  0
 10 11  2  0
 11 12  1  0
 12 13  1  0
 13 14  1  0
 14 15  1  0
 11 16  1  0
  7 17  1  0
 17 18  2  0
  4 19  1  0
 19 20  2  0
 20 21  1  0
 21 22  1  0
 21  2  2  0
 18  5  1  0
 16  8  1  0
 15 10  1  0
  1 23  1  0
  1 24  1  0
  1 25  1  0
  3 26  1  0
  6 27  1  0
  9 28  1  0
 12 29  1  0
 12 30  1  0
 13 31  1  0
 13 32  1  0
 14 33  1  0
 15 34  1  0
 15 35  1  0
 19 36  1  0
 20 37  1  0
M  END
$$$$
OCNT-2312148
     RDKit          3D

 48 51  0  0  0  0  0  0  0  0999 V2000
    0.6154    2.0855    2.0412 O   0  0  0  0  0  0  0  0  0  0  0  0
    0.7391    0.9510    1.5878 C   0  0  0  0  0  0  0  0  0  0  0  0
    2.0128    0.6261    0.9103 C   0  0  0  0  0  0  0  0  0  0  0  0
    2.4168    1.4061   -0.1761 C   0  0  0  0  0  0  0  0  0  0  0  0
    3.6359    1.1395   -0.8093 C   0  0  0  0  0  0  0  0  0  0  0  0
    4.4633    0.1002   -0.3553 C   0  0  0  0  0  0  0  0  0  0  0  0
    5.7344   -0.2074   -0.9897 C   0  0  0  0  0  0  0  0  0  0  0  0
    6.4855    0.6313   -1.7884 C   0  0  0  0  0  0  0  0  0  0  0  0
    7.5979   -0.0922   -2.1195 N   0  0  0  0  0  0  0  0  0  0  0  0
    7.4863   -1.3182   -1.5272 C   0  0  0  0  0  0  0  0  0  0  0  0
    6.3754   -1.4180   -0.8377 N   0  0  0  0  0  0  0  0  0  0  0  0
    4.0503   -0.6608    0.7482 C   0  0  0  0  0  0  0  0  0  0  0  0
    2.8392   -0.3910    1.3905 C   0  0  0  0  0  0  0  0  0  0  0  0
   -0.2524   -0.0192    1.6615 N   0  0  0  0  0  0  0  0  0  0  0  0
   -0.2575   -1.2682    0.8839 C   0  0  0  0  0  0  0  0  0  0  0  0
   -1.4517   -2.1734    1.2355 C   0  0  0  0  0  0  0  0  0  0  0  0
   -2.7616   -1.5310    1.1317 N   0  0  0  0  0  0  0  0  0  0  0  0
   -2.7530   -0.0922    1.4995 C   0  0  0  0  0  0  0  0  0  0  0  0
   -2.8774    0.8435    0.2663 C   0  0  0  0  0  0  0  0  0  0  0  0
   -4.1755    0.6997   -0.4977 C   0  0  0  0  0  0  0  0  0  0  0  0
   -5.3684    1.2266    0.0189 C   0  0  0  0  0  0  0  0  0  0  0  0
   -6.5675    1.0956   -0.6868 C   0  0  0  0  0  0  0  0  0  0  0  0
   -6.5870    0.4356   -1.9132 C   0  0  0  0  0  0  0  0  0  0  0  0
   -5.4079   -0.0905   -2.4376 C   0  0  0  0  0  0  0  0  0  0  0  0
   -4.2053    0.0399   -1.7330 C   0  0  0  0  0  0  0  0  0  0  0  0
   -1.5129    0.3115    2.3359 C   0  0  0  0  0  0  0  0  0  0  0  0
    1.7877    2.2236   -0.5240 H   0  0  0  0  0  0  0  0  0  0  0  0
    3.9262    1.7510   -1.6560 H   0  0  0  0  0  0  0  0  0  0  0  0
    6.3471    1.6487   -2.1278 H   0  0  0  0  0  0  0  0  0  0  0  0
    8.3707    0.2213   -2.6933 H   0  0  0  0  0  0  0  0  0  0  0  0
    8.2388   -2.0876   -1.6304 H   0  0  0  0  0  0  0  0  0  0  0  0
    4.6864   -1.4631    1.1206 H   0  0  0  0  0  0  0  0  0  0  0  0
    2.5512   -0.9677    2.2604 H   0  0  0  0  0  0  0  0  0  0  0  0
    0.6712   -1.8196    1.0536 H   0  0  0  0  0  0  0  0  0  0  0  0
   -0.2897   -0.9908   -0.1785 H   0  0  0  0  0  0  0  0  0  0  0  0
   -1.3391   -2.5188    2.2683 H   0  0  0  0  0  0  0  0  0  0  0  0
   -1.4342   -3.0721    0.6129 H   0  0  0  0  0  0  0  0  0  0  0  0
   -3.1570   -1.6462    0.2013 H   0  0  0  0  0  0  0  0  0  0  0  0
   -3.6364    0.0689    2.1321 H   0  0  0  0  0  0  0  0  0  0  0  0
   -2.0342    0.6892   -0.4192 H   0  0  0  0  0  0  0  0  0  0  0  0
   -2.7994    1.8904    0.5914 H   0  0  0  0  0  0  0  0  0  0  0  0
   -5.3699    1.7473    0.9730 H   0  0  0  0  0  0  0  0  0  0  0  0
   -7.4850    1.5075   -0.2771 H   0  0  0  0  0  0  0  0  0  0  0  0
   -7.5201    0.3328   -2.4597 H   0  0  0  0  0  0  0  0  0  0  0  0
   -5.4233   -0.6041   -3.3948 H   0  0  0  0  0  0  0  0  0  0  0  0
   -3.2931   -0.3737   -2.1587 H   0  0  0  0  0  0  0  0  0  0  0  0
   -1.5599    1.3747    2.5959 H   0  0  0  0  0  0  0  0  0  0  0  0
   -1.5122   -0.2415    3.2827 H   0  0  0  0  0  0  0  0  0  0  0  0
  1  2  2  0
  2  3  1  0
  3  4  1  0
  4  5  2  0
  5  6  1  0
  6  7  1  0
  7  8  2  0
  8  9  1  0
  9 10  1  0
 10 11  2  0
  6 12  2  0
 12 13  1  0
  2 14  1  0
 14 15  1  0
 15 16  1  0
 16 17  1  0
 17 18  1  0
 18 19  1  0
 19 20  1  0
 20 21  2  0
 21 22  1  0
 22 23  2  0
 23 24  1  0
 24 25  2  0
 18 26  1  0
 13  3  2  0
 26 14  1  0
 11  7  1  0
 25 20  1  0
  4 27  1  0
  5 28  1  0
  8 29  1  0
  9 30  1  0
 10 31  1  0
 12 32  1  0
 13 33  1  0
 15 34  1  0
 15 35  1  0
 16 36  1  0
 16 37  1  0
 17 38  1  0
 18 39  1  0
 19 40  1  0
 19 41  1  0
 21 42  1  0
 22 43  1  0
 23 44  1  0
 24 45  1  0
 25 46  1  0
 26 47  1  0
 26 48  1  0
M  END
$$$$
OCNT-2312150
     RDKit          3D

 41 44  0  0  0  0  0  0  0  0999 V2000
    8.7510    1.1529    1.3165 F   0  0  0  0  0  0  0  0  0  0  0  0
    7.7782    0.3241    0.9137 C   0  0  0  0  0  0  0  0  0  0  0  0
    6.5046    0.8387    0.6749 C   0  0  0  0  0  0  0  0  0  0  0  0
    5.4698   -0.0107    0.2525 C   0  0  0  0  0  0  0  0  0  0  0  0
    4.1298    0.5051   -0.0031 C   0  0  0  0  0  0  0  0  0  0  0  0
    3.7812    1.7927    0.1387 N   0  0  0  0  0  0  0  0  0  0  0  0
    2.4337    1.8091   -0.2095 O   0  0  0  0  0  0  0  0  0  0  0  0
    2.0866    0.5232   -0.5315 C   0  0  0  0  0  0  0  0  0  0  0  0
    0.6426    0.1200   -0.9791 C   0  0  0  0  0  0  0  0  0  0  0  0
    0.2980   -1.1345   -1.2940 N   0  0  0  0  0  0  0  0  0  0  0  0
   -1.0416   -1.0787   -1.6380 O   0  0  0  0  0  0  0  0  0  0  0  0
   -1.4885    0.2005   -1.5156 C   0  0  0  0  0  0  0  0  0  0  0  0
   -2.9173    0.4409   -1.8443 C   0  0  0  0  0  0  0  0  0  0  0  0
   -3.8211    0.4532   -0.5939 C   0  0  0  0  0  0  0  0  0  0  0  0
   -3.9401   -0.9382    0.0492 C   0  0  0  0  0  0  0  0  0  0  0  0
   -4.7968   -0.9022    1.3161 C   0  0  0  0  0  0  0  0  0  0  0  0
   -5.8498    0.2020    1.2777 C   0  0  0  0  0  0  0  0  0  0  0  0
   -6.2579    0.5247   -0.1532 C   0  0  0  0  0  0  0  0  0  0  0  0
   -5.1427    0.9882   -0.9804 N   0  0  0  0  0  0  0  0  0  0  0  0
   -0.4525    1.0034   -1.1036 C   0  0  0  0  0  0  0  0  0  0  0  0
    3.1022   -0.3079   -0.4163 N   0  0  0  0  0  0  0  0  0  0  0  0
    5.7443   -1.3765    0.0775 C   0  0  0  0  0  0  0  0  0  0  0  0
    7.0245   -1.8709    0.3216 C   0  0  0  0  0  0  0  0  0  0  0  0
    7.2642   -3.1778    0.1485 F   0  0  0  0  0  0  0  0  0  0  0  0
    8.0426   -1.0264    0.7390 C   0  0  0  0  0  0  0  0  0  0  0  0
    9.2705   -1.5104    0.9715 F   0  0  0  0  0  0  0  0  0  0  0  0
    6.3381    1.9031    0.8235 H   0  0  0  0  0  0  0  0  0  0  0  0
   -3.2692   -0.3124   -2.5608 H   0  0  0  0  0  0  0  0  0  0  0  0
   -2.9837    1.4101   -2.3567 H   0  0  0  0  0  0  0  0  0  0  0  0
   -3.3874    1.1355    0.1507 H   0  0  0  0  0  0  0  0  0  0  0  0
   -2.9558   -1.3457    0.3052 H   0  0  0  0  0  0  0  0  0  0  0  0
   -4.3861   -1.6390   -0.6693 H   0  0  0  0  0  0  0  0  0  0  0  0
   -4.1597   -0.7548    2.1964 H   0  0  0  0  0  0  0  0  0  0  0  0
   -5.2793   -1.8784    1.4456 H   0  0  0  0  0  0  0  0  0  0  0  0
   -6.7241   -0.0999    1.8654 H   0  0  0  0  0  0  0  0  0  0  0  0
   -5.4508    1.1058    1.7559 H   0  0  0  0  0  0  0  0  0  0  0  0
   -6.6963   -0.3653   -0.6206 H   0  0  0  0  0  0  0  0  0  0  0  0
   -7.0425    1.2896   -0.1526 H   0  0  0  0  0  0  0  0  0  0  0  0
   -5.1071    2.0078   -0.9660 H   0  0  0  0  0  0  0  0  0  0  0  0
   -0.4819    2.0671   -0.9211 H   0  0  0  0  0  0  0  0  0  0  0  0
    4.9701   -2.0682   -0.2489 H   0  0  0  0  0  0  0  0  0  0  0  0
  1  2  1  0
  2  3  2  0
  3  4  1  0
  4  5  1  0
  5  6  2  0
  6  7  1  0
  7  8  1  0
  8  9  1  0
  9 10  2  0
 10 11  1  0
 11 12  1  0
 12 13  1  0
 13 14  1  0
 14 15  1  0
 15 16  1  0
 16 17  1  0
 17 18  1  0
 18 19  1  0
 12 20  2  0
  8 21  2  0
  4 22  2  0
 22 23  1  0
 23 24  1  0
 23 25  2  0
 25 26  1  0
 25  2  1  0
 21  5  1  0
 20  9  1  0
 19 14  1  0
  3 27  1  0
 13 28  1  0
 13 29  1  0
 14 30  1  0
 15 31  1  0
 15 32  1  0
 16 33  1  0
 16 34  1  0
 17 35  1  0
 17 36  1  0
 18 37  1  0
 18 38  1  0
 19 39  1  0
 20 40  1  0
 22 41  1  0
M  END
$$$$
OCNT-2312156
     RDKit          3D

 40 43  0  0  0  0  0  0  0  0999 V2000
   -0.1075    1.1046    0.0326 O   0  0  0  0  0  0  0  0  0  0  0  0
   -0.1363   -0.0183   -0.4562 C   0  0  0  0  0  0  0  0  0  0  0  0
    0.9537   -0.8346   -0.6468 N   0  0  0  0  0  0  0  0  0  0  0  0
    2.2256   -0.4645   -0.3186 C   0  0  0  0  0  0  0  0  0  0  0  0
    2.6714    0.6620    0.1732 N   0  0  0  0  0  0  0  0  0  0  0  0
    4.0411    0.5757    0.3404 C   0  0  0  0  0  0  0  0  0  0  0  0
    4.6029   -0.6259   -0.0307 C   0  0  0  0  0  0  0  0  0  0  0  0
    6.1115   -1.0123    0.0415 C   0  0  0  0  0  0  0  0  0  0  0  0
    7.0363   -0.3316    1.0155 C   0  0  0  0  0  0  0  0  0  0  0  0
    7.1481   -0.0385   -0.4540 C   0  0  0  0  0  0  0  0  0  0  0  0
    3.3920   -1.6810   -0.6104 S   0  0  0  0  0  0  0  0  0  0  0  0
   -1.3871   -0.6384   -0.8927 C   0  0  0  0  0  0  0  0  0  0  0  0
   -1.5831   -1.5563   -1.9209 C   0  0  0  0  0  0  0  0  0  0  0  0
   -2.9653   -1.8113   -2.0419 C   0  0  0  0  0  0  0  0  0  0  0  0
   -3.5974   -1.0503   -1.0907 C   0  0  0  0  0  0  0  0  0  0  0  0
   -2.6445   -0.3738   -0.3628 N   0  0  0  0  0  0  0  0  0  0  0  0
   -2.9366    0.5046    0.7676 C   0  0  0  0  0  0  0  0  0  0  0  0
   -3.9330   -0.0737    1.7952 C   0  0  0  0  0  0  0  0  0  0  0  0
   -4.8808    1.0741    2.1189 C   0  0  0  0  0  0  0  0  0  0  0  0
   -4.9600    1.8510    0.8170 C   0  0  0  0  0  0  0  0  0  0  0  0
   -3.5201    1.8553    0.3213 C   0  0  0  0  0  0  0  0  0  0  0  0
    0.8318   -1.7698   -0.9971 H   0  0  0  0  0  0  0  0  0  0  0  0
    4.5727    1.4312    0.7376 H   0  0  0  0  0  0  0  0  0  0  0  0
    6.3085   -2.0652   -0.1460 H   0  0  0  0  0  0  0  0  0  0  0  0
    6.6520    0.4455    1.6647 H   0  0  0  0  0  0  0  0  0  0  0  0
    7.8156   -0.9312    1.4734 H   0  0  0  0  0  0  0  0  0  0  0  0
    8.0015   -0.4395   -0.9893 H   0  0  0  0  0  0  0  0  0  0  0  0
    6.8309    0.9367   -0.8053 H   0  0  0  0  0  0  0  0  0  0  0  0
   -0.8138   -1.9655   -2.5632 H   0  0  0  0  0  0  0  0  0  0  0  0
   -3.4518   -2.4556   -2.7631 H   0  0  0  0  0  0  0  0  0  0  0  0
   -4.6521   -0.9399   -0.8747 H   0  0  0  0  0  0  0  0  0  0  0  0
   -1.9987    0.6745    1.3033 H   0  0  0  0  0  0  0  0  0  0  0  0
   -3.4178   -0.4242    2.6967 H   0  0  0  0  0  0  0  0  0  0  0  0
   -4.5014   -0.9254    1.4071 H   0  0  0  0  0  0  0  0  0  0  0  0
   -4.4547    1.7028    2.9102 H   0  0  0  0  0  0  0  0  0  0  0  0
   -5.8603    0.7209    2.4545 H   0  0  0  0  0  0  0  0  0  0  0  0
   -5.3535    2.8619    0.9583 H   0  0  0  0  0  0  0  0  0  0  0  0
   -5.6063    1.3293    0.1015 H   0  0  0  0  0  0  0  0  0  0  0  0
   -3.4636    2.0306   -0.7582 H   0  0  0  0  0  0  0  0  0  0  0  0
   -2.9699    2.6661    0.8146 H   0  0  0  0  0  0  0  0  0  0  0  0
  1  2  2  0
  2  3  1  0
  3  4  1  0
  4  5  2  0
  5  6  1  0
  6  7  2  0
  7  8  1  0
  8  9  1  0
  9 10  1  0
  7 11  1  0
  2 12  1  0
 12 13  2  0
 13 14  1  0
 14 15  2  0
 15 16  1  0
 16 17  1  0
 17 18  1  0
 18 19  1  0
 19 20  1  0
 20 21  1  0
 11  4  1  0
 16 12  1  0
 21 17  1  0
 10  8  1  0
  3 22  1  0
  6 23  1  0
  8 24  1  0
  9 25  1  0
  9 26  1  0
 10 27  1  0
 10 28  1  0
 13 29  1  0
 14 30  1  0
 15 31  1  0
 17 32  1  0
 18 33  1  0
 18 34  1  0
 19 35  1  0
 19 36  1  0
 20 37  1  0
 20 38  1  0
 21 39  1  0
 21 40  1  0
M  END
$$$$
OCNT-2312165
     RDKit          3D

 42 44  0  0  0  0  0  0  0  0999 V2000
   -5.8057    1.0686   -1.1009 C   0  0  0  0  0  0  0  0  0  0  0  0
   -4.5805    0.6480   -0.2967 C   0  0  0  0  0  0  0  0  0  0  0  0
   -4.8038    1.0119    1.0631 O   0  0  0  0  0  0  0  0  0  0  0  0
   -3.3193    1.3546   -0.8106 C   0  0  0  0  0  0  0  0  0  0  0  0
   -1.9654    0.7801   -0.3410 C   0  0  0  0  0  0  0  0  0  0  0  0
   -1.6672   -0.5990   -0.9488 C   0  0  0  0  0  0  0  0  0  0  0  0
   -0.2926   -1.1114   -0.5041 C   0  0  0  0  0  0  0  0  0  0  0  0
   -0.2008   -1.1520    0.9573 N   0  0  0  0  0  0  0  0  0  0  0  0
    1.0058   -1.8348    1.4482 C   0  0  0  0  0  0  0  0  0  0  0  0
    2.3220   -1.1775    1.1237 C   0  0  0  0  0  0  0  0  0  0  0  0
    2.9667   -0.1607    1.8047 C   0  0  0  0  0  0  0  0  0  0  0  0
    4.2130    0.1909    1.2083 C   0  0  0  0  0  0  0  0  0  0  0  0
    4.4898   -0.5825    0.1031 C   0  0  0  0  0  0  0  0  0  0  0  0
    5.7794   -0.4395   -0.7663 C   0  0  0  0  0  0  0  0  0  0  0  0
    6.7467    0.4599   -0.5175 N   0  0  0  0  0  0  0  0  0  0  0  0
    7.5899    0.1721   -1.5201 N   0  0  0  0  0  0  0  0  0  0  0  0
    7.2146   -0.8139   -2.3422 N   0  0  0  0  0  0  0  0  0  0  0  0
    6.0452   -1.2180   -1.8653 N   0  0  0  0  0  0  0  0  0  0  0  0
    3.2639   -1.7232   -0.2054 S   0  0  0  0  0  0  0  0  0  0  0  0
   -0.4195    0.1656    1.5598 C   0  0  0  0  0  0  0  0  0  0  0  0
   -1.8012    0.7095    1.1819 C   0  0  0  0  0  0  0  0  0  0  0  0
   -6.7066    0.5842   -0.7087 H   0  0  0  0  0  0  0  0  0  0  0  0
   -5.7004    0.8007   -2.1566 H   0  0  0  0  0  0  0  0  0  0  0  0
   -5.9718    2.1491   -1.0261 H   0  0  0  0  0  0  0  0  0  0  0  0
   -4.4715   -0.4393   -0.3488 H   0  0  0  0  0  0  0  0  0  0  0  0
   -5.5661    0.4985    1.3810 H   0  0  0  0  0  0  0  0  0  0  0  0
   -3.3573    2.4086   -0.5041 H   0  0  0  0  0  0  0  0  0  0  0  0
   -3.3205    1.3451   -1.9083 H   0  0  0  0  0  0  0  0  0  0  0  0
   -1.1974    1.4702   -0.7205 H   0  0  0  0  0  0  0  0  0  0  0  0
   -1.6924   -0.5394   -2.0434 H   0  0  0  0  0  0  0  0  0  0  0  0
   -2.4322   -1.3256   -0.6503 H   0  0  0  0  0  0  0  0  0  0  0  0
    0.4840   -0.4679   -0.9352 H   0  0  0  0  0  0  0  0  0  0  0  0
   -0.1563   -2.1174   -0.9189 H   0  0  0  0  0  0  0  0  0  0  0  0
    1.0012   -2.8686    1.0777 H   0  0  0  0  0  0  0  0  0  0  0  0
    0.9304   -1.9367    2.5394 H   0  0  0  0  0  0  0  0  0  0  0  0
    2.5581    0.3150    2.6884 H   0  0  0  0  0  0  0  0  0  0  0  0
    4.8726    0.9686    1.5749 H   0  0  0  0  0  0  0  0  0  0  0  0
    8.4651    0.6713   -1.6526 H   0  0  0  0  0  0  0  0  0  0  0  0
   -0.3707    0.0924    2.6529 H   0  0  0  0  0  0  0  0  0  0  0  0
    0.3461    0.8838    1.2425 H   0  0  0  0  0  0  0  0  0  0  0  0
   -2.5613    0.0538    1.6223 H   0  0  0  0  0  0  0  0  0  0  0  0
   -1.9341    1.7051    1.6209 H   0  0  0  0  0  0  0  0  0  0  0  0
  1  2  1  0
  2  3  1  0
  2  4  1  0
  4  5  1  0
  5  6  1  0
  6  7  1  0
  7  8  1  0
  8  9  1  0
  9 10  1  0
 10 11  2  0
 11 12  1  0
 12 13  2  0
 13 14  1  0
 14 15  2  0
 15 16  1  0
 16 17  1  0
 17 18  2  0
 13 19  1  0
  8 20  1  0
 20 21  1  0
 21  5  1  0
 19 10  1  0
 18 14  1  0
  1 22  1  0
  1 23  1  0
  1 24  1  0
  2 25  1  0
  3 26  1  0
  4 27  1  0
  4 28  1  0
  5 29  1  0
  6 30  1  0
  6 31  1  0
  7 32  1  0
  7 33  1  0
  9 34  1  0
  9 35  1  0
 11 36  1  0
 12 37  1  0
 16 38  1  0
 20 39  1  0
 20 40  1  0
 21 41  1  0
 21 42  1  0
M  END
$$$$
OCNT-2312180
     RDKit          3D

 57 58  0  0  0  0  0  0  0  0999 V2000
   -3.6544    4.3295   -2.4024 C   0  0  0  0  0  0  0  0  0  0  0  0
   -3.3993    3.1018   -1.5785 C   0  0  0  0  0  0  0  0  0  0  0  0
   -2.2112    2.3819   -1.7222 C   0  0  0  0  0  0  0  0  0  0  0  0
   -1.9724    1.2535   -0.9371 C   0  0  0  0  0  0  0  0  0  0  0  0
   -2.9110    0.8432    0.0115 C   0  0  0  0  0  0  0  0  0  0  0  0
   -2.6454   -0.3351    0.7667 N   0  0  0  0  0  0  0  0  0  0  0  0
   -3.0490   -1.8294    0.0855 S   0  0  0  0  0  0  0  0  0  0  0  0
   -3.0288   -2.7816    1.1746 O   0  0  0  0  0  0  0  0  0  0  0  0
   -4.2165   -1.6783   -0.7544 O   0  0  0  0  0  0  0  0  0  0  0  0
   -1.6477   -2.1876   -0.9406 C   0  0  0  0  0  0  0  0  0  0  0  0
   -1.8189   -2.3594   -2.3114 C   0  0  0  0  0  0  0  0  0  0  0  0
   -0.7048   -2.6178   -3.1040 C   0  0  0  0  0  0  0  0  0  0  0  0
    0.5798   -2.7089   -2.5348 C   0  0  0  0  0  0  0  0  0  0  0  0
    1.7454   -2.9671   -3.4536 C   0  0  0  0  0  0  0  0  0  0  0  0
    0.7421   -2.5634   -1.1379 C   0  0  0  0  0  0  0  0  0  0  0  0
    2.0745   -2.5324   -0.6080 N   0  0  0  0  0  0  0  0  0  0  0  0
    2.4660   -2.8464    0.9896 S   0  0  0  0  0  0  0  0  0  0  0  0
    3.8525   -3.2654    0.9632 O   0  0  0  0  0  0  0  0  0  0  0  0
    1.4554   -3.6825    1.5952 O   0  0  0  0  0  0  0  0  0  0  0  0
    2.4142   -1.2297    1.7384 C   0  0  0  0  0  0  0  0  0  0  0  0
    3.3920   -0.2727    1.0876 C   0  0  0  0  0  0  0  0  0  0  0  0
    3.2780    1.0250    1.6778 O   0  0  0  0  0  0  0  0  0  0  0  0
    4.1164    1.2280    2.8185 C   0  0  0  0  0  0  0  0  0  0  0  0
    5.5079    1.6607    2.3693 C   0  0  0  0  0  0  0  0  0  0  0  0
    3.4707    2.3190    3.6618 C   0  0  0  0  0  0  0  0  0  0  0  0
   -0.3796   -2.2809   -0.3532 C   0  0  0  0  0  0  0  0  0  0  0  0
   -4.1052    1.5586    0.1833 C   0  0  0  0  0  0  0  0  0  0  0  0
   -5.1606    1.1310    1.1624 C   0  0  0  0  0  0  0  0  0  0  0  0
   -4.3341    2.6890   -0.6195 C   0  0  0  0  0  0  0  0  0  0  0  0
   -4.7077    4.3851   -2.6950 H   0  0  0  0  0  0  0  0  0  0  0  0
   -3.3929    5.2247   -1.8308 H   0  0  0  0  0  0  0  0  0  0  0  0
   -3.0617    4.3178   -3.3229 H   0  0  0  0  0  0  0  0  0  0  0  0
   -1.4650    2.6902   -2.4520 H   0  0  0  0  0  0  0  0  0  0  0  0
   -1.0396    0.7126   -1.0638 H   0  0  0  0  0  0  0  0  0  0  0  0
   -2.8803   -0.3197    1.7577 H   0  0  0  0  0  0  0  0  0  0  0  0
   -2.8041   -2.2855   -2.7680 H   0  0  0  0  0  0  0  0  0  0  0  0
   -0.8425   -2.7415   -4.1771 H   0  0  0  0  0  0  0  0  0  0  0  0
    1.4249   -3.0692   -4.4957 H   0  0  0  0  0  0  0  0  0  0  0  0
    2.4567   -2.1361   -3.4093 H   0  0  0  0  0  0  0  0  0  0  0  0
    2.2488   -3.8984   -3.1747 H   0  0  0  0  0  0  0  0  0  0  0  0
    2.8187   -2.8707   -1.2178 H   0  0  0  0  0  0  0  0  0  0  0  0
    1.3908   -0.8476    1.6880 H   0  0  0  0  0  0  0  0  0  0  0  0
    2.6468   -1.3660    2.7998 H   0  0  0  0  0  0  0  0  0  0  0  0
    3.1473   -0.1508    0.0285 H   0  0  0  0  0  0  0  0  0  0  0  0
    4.4217   -0.6397    1.1358 H   0  0  0  0  0  0  0  0  0  0  0  0
    4.1793    0.3120    3.4166 H   0  0  0  0  0  0  0  0  0  0  0  0
    6.1432    1.9003    3.2286 H   0  0  0  0  0  0  0  0  0  0  0  0
    6.0009    0.8717    1.7911 H   0  0  0  0  0  0  0  0  0  0  0  0
    5.4523    2.5400    1.7164 H   0  0  0  0  0  0  0  0  0  0  0  0
    2.4688    2.0101    3.9783 H   0  0  0  0  0  0  0  0  0  0  0  0
    4.0641    2.5380    4.5533 H   0  0  0  0  0  0  0  0  0  0  0  0
    3.3468    3.2426    3.0850 H   0  0  0  0  0  0  0  0  0  0  0  0
   -0.3035   -2.1340    0.7191 H   0  0  0  0  0  0  0  0  0  0  0  0
   -5.9289    1.9019    1.2828 H   0  0  0  0  0  0  0  0  0  0  0  0
   -4.7296    0.9571    2.1516 H   0  0  0  0  0  0  0  0  0  0  0  0
   -5.6537    0.2178    0.8155 H   0  0  0  0  0  0  0  0  0  0  0  0
   -5.2577    3.2548   -0.5020 H   0  0  0  0  0  0  0  0  0  0  0  0
  1  2  1  0
  2  3  1  0
  3  4  2  0
  4  5  1  0
  5  6  1  0
  6  7  1  0
  7  8  2  0
  7  9  2  0
  7 10  1  0
 10 11  1  0
 11 12  2  0
 12 13  1  0
 13 14  1  0
 13 15  2  0
 15 16  1  0
 16 17  1  0
 17 18  2  0
 17 19  2  0
 17 20  1  0
 20 21  1  0
 21 22  1  0
 22 23  1  0
 23 24  1  0
 23 25  1  0
 15 26  1  0
  5 27  2  0
 27 28  1  0
 27 29  1  0
 29  2  2  0
 26 10  2  0
  1 30  1  0
  1 31  1  0
  1 32  1  0
  3 33  1  0
  4 34  1  0
  6 35  1  0
 11 36  1  0
 12 37  1  0
 14 38  1  0
 14 39  1  0
 14 40  1  0
 16 41  1  0
 20 42  1  0
 20 43  1  0
 21 44  1  0
 21 45  1  0
 23 46  1  0
 24 47  1  0
 24 48  1  0
 24 49  1  0
 25 50  1  0
 25 51  1  0
 25 52  1  0
 26 53  1  0
 28 54  1  0
 28 55  1  0
 28 56  1  0
 29 57  1  0
M  END
$$$$
OCNT-2312204
     RDKit          3D

 48 50  0  0  0  0  0  0  0  0999 V2000
   -4.1327    4.6362   -0.9948 C   0  0  0  0  0  0  0  0  0  0  0  0
   -3.2862    4.3449    0.1104 O   0  0  0  0  0  0  0  0  0  0  0  0
   -2.8060    3.0688    0.2011 C   0  0  0  0  0  0  0  0  0  0  0  0
   -3.0789    2.0227   -0.6764 C   0  0  0  0  0  0  0  0  0  0  0  0
   -2.5175    0.7563   -0.4617 C   0  0  0  0  0  0  0  0  0  0  0  0
   -1.6624    0.5179    0.6204 C   0  0  0  0  0  0  0  0  0  0  0  0
   -1.1130   -0.7810    0.8420 N   0  0  0  0  0  0  0  0  0  0  0  0
   -2.0429   -1.9207    0.8011 C   0  0  0  0  0  0  0  0  0  0  0  0
   -1.9601   -2.6568   -0.5105 C   0  0  0  0  0  0  0  0  0  0  0  0
   -0.8527   -3.1903   -1.1440 C   0  0  0  0  0  0  0  0  0  0  0  0
   -1.1792   -3.8322   -2.3729 C   0  0  0  0  0  0  0  0  0  0  0  0
   -2.5297   -3.7909   -2.6317 C   0  0  0  0  0  0  0  0  0  0  0  0
   -3.3954   -2.9920   -1.3944 S   0  0  0  0  0  0  0  0  0  0  0  0
    0.1857   -1.0241    1.2981 C   0  0  0  0  0  0  0  0  0  0  0  0
    0.5095   -2.0959    1.8168 O   0  0  0  0  0  0  0  0  0  0  0  0
    1.2320    0.0686    1.0718 C   0  0  0  0  0  0  0  0  0  0  0  0
    2.6630   -0.4884    0.9257 C   0  0  0  0  0  0  0  0  0  0  0  0
    2.7894   -1.3743   -0.3296 C   0  0  0  0  0  0  0  0  0  0  0  0
    4.2037   -1.3411   -0.8989 C   0  0  0  0  0  0  0  0  0  0  0  0
    4.5948   -0.0001   -1.3364 N   0  0  0  0  0  0  0  0  0  0  0  0
    4.0451    1.0808   -0.5184 C   0  0  0  0  0  0  0  0  0  0  0  0
    3.6999    0.6518    0.9049 C   0  0  0  0  0  0  0  0  0  0  0  0
   -1.4106    1.5701    1.5070 C   0  0  0  0  0  0  0  0  0  0  0  0
   -1.9736    2.8331    1.2948 C   0  0  0  0  0  0  0  0  0  0  0  0
   -5.0479    4.0359   -0.9597 H   0  0  0  0  0  0  0  0  0  0  0  0
   -3.6045    4.4979   -1.9440 H   0  0  0  0  0  0  0  0  0  0  0  0
   -4.4224    5.6891   -0.9255 H   0  0  0  0  0  0  0  0  0  0  0  0
   -3.7202    2.1532   -1.5419 H   0  0  0  0  0  0  0  0  0  0  0  0
   -2.7329   -0.0237   -1.1854 H   0  0  0  0  0  0  0  0  0  0  0  0
   -1.7994   -2.6227    1.6082 H   0  0  0  0  0  0  0  0  0  0  0  0
   -3.0607   -1.5668    1.0085 H   0  0  0  0  0  0  0  0  0  0  0  0
    0.1513   -3.1268   -0.7419 H   0  0  0  0  0  0  0  0  0  0  0  0
   -0.4593   -4.3075   -3.0279 H   0  0  0  0  0  0  0  0  0  0  0  0
   -3.0529   -4.2021   -3.4841 H   0  0  0  0  0  0  0  0  0  0  0  0
    1.2090    0.7267    1.9465 H   0  0  0  0  0  0  0  0  0  0  0  0
    0.9827    0.6558    0.1816 H   0  0  0  0  0  0  0  0  0  0  0  0
    2.8831   -1.1046    1.8079 H   0  0  0  0  0  0  0  0  0  0  0  0
    2.0833   -1.0516   -1.1061 H   0  0  0  0  0  0  0  0  0  0  0  0
    2.5222   -2.4073   -0.0780 H   0  0  0  0  0  0  0  0  0  0  0  0
    4.9124   -1.7044   -0.1443 H   0  0  0  0  0  0  0  0  0  0  0  0
    4.2743   -2.0218   -1.7540 H   0  0  0  0  0  0  0  0  0  0  0  0
    5.6126    0.0578   -1.3562 H   0  0  0  0  0  0  0  0  0  0  0  0
    4.7639    1.9077   -0.4909 H   0  0  0  0  0  0  0  0  0  0  0  0
    3.1470    1.4705   -1.0122 H   0  0  0  0  0  0  0  0  0  0  0  0
    4.6172    0.3089    1.4025 H   0  0  0  0  0  0  0  0  0  0  0  0
    3.3486    1.5148    1.4824 H   0  0  0  0  0  0  0  0  0  0  0  0
   -0.8186    1.4205    2.4050 H   0  0  0  0  0  0  0  0  0  0  0  0
   -1.7706    3.6372    1.9984 H   0  0  0  0  0  0  0  0  0  0  0  0
  1  2  1  0
  2  3  1  0
  3  4  1  0
  4  5  2  0
  5  6  1  0
  6  7  1  0
  7  8  1  0
  8  9  1  0
  9 10  2  0
 10 11  1  0
 11 12  2  0
 12 13  1  0
  7 14  1  0
 14 15  2  0
 14 16  1  0
 16 17  1  0
 17 18  1  0
 18 19  1  0
 19 20  1  0
 20 21  1  0
 21 22  1  0
  6 23  2  0
 23 24  1  0
 24  3  2  0
 13  9  1  0
 22 17  1  0
  1 25  1  0
  1 26  1  0
  1 27  1  0
  4 28  1  0
  5 29  1  0
  8 30  1  0
  8 31  1  0
 10 32  1  0
 11 33  1  0
 12 34  1  0
 16 35  1  0
 16 36  1  0
 17 37  1  0
 18 38  1  0
 18 39  1  0
 19 40  1  0
 19 41  1  0
 20 42  1  0
 21 43  1  0
 21 44  1  0
 22 45  1  0
 22 46  1  0
 23 47  1  0
 24 48  1  0
M  END
$$$$
OCNT-2312206
     RDKit          3D

 49 52  0  0  0  0  0  0  0  0999 V2000
   -2.4327   -1.9890   -4.4096 C   0  0  0  0  0  0  0  0  0  0  0  0
   -2.4832   -1.4911   -3.0138 C   0  0  0  0  0  0  0  0  0  0  0  0
   -3.5535   -1.7230   -2.2460 N   0  0  0  0  0  0  0  0  0  0  0  0
   -3.2202   -1.1105   -1.0812 N   0  0  0  0  0  0  0  0  0  0  0  0
   -4.0647   -1.1205    0.0513 C   0  0  0  0  0  0  0  0  0  0  0  0
   -3.8408   -0.5443    1.2812 C   0  0  0  0  0  0  0  0  0  0  0  0
   -4.9361   -0.8561    2.0341 N   0  0  0  0  0  0  0  0  0  0  0  0
   -5.1725   -0.4948    3.4125 C   0  0  0  0  0  0  0  0  0  0  0  0
   -5.8542   -1.5841    1.3708 N   0  0  0  0  0  0  0  0  0  0  0  0
   -5.3193   -1.7396    0.1545 C   0  0  0  0  0  0  0  0  0  0  0  0
   -2.0044   -0.5021   -1.0659 N   0  0  0  0  0  0  0  0  0  0  0  0
   -1.5085   -0.7590   -2.2885 C   0  0  0  0  0  0  0  0  0  0  0  0
   -0.2039   -0.2935   -2.7985 C   0  0  0  0  0  0  0  0  0  0  0  0
   -0.0303   -0.2372   -4.0173 O   0  0  0  0  0  0  0  0  0  0  0  0
    0.8303    0.0701   -1.9081 N   0  0  0  0  0  0  0  0  0  0  0  0
    1.9871    0.7574   -2.4767 C   0  0  0  0  0  0  0  0  0  0  0  0
    0.7995   -0.1821   -0.4453 C   0  0  0  0  0  0  0  0  0  0  0  0
    0.2760    1.0179    0.3469 C   0  0  0  0  0  0  0  0  0  0  0  0
    1.5205    1.8187    0.7317 C   0  0  0  0  0  0  0  0  0  0  0  0
    2.6239    0.8610    0.6843 N   0  0  0  0  0  0  0  0  0  0  0  0
    3.8679    1.0962    1.2284 C   0  0  0  0  0  0  0  0  0  0  0  0
    4.8465    0.0969    1.3070 C   0  0  0  0  0  0  0  0  0  0  0  0
    6.0961    0.3840    1.8430 C   0  0  0  0  0  0  0  0  0  0  0  0
    6.4537    1.5937    2.3112 N   0  0  0  0  0  0  0  0  0  0  0  0
    5.5126    2.5555    2.2329 C   0  0  0  0  0  0  0  0  0  0  0  0
    4.2405    2.3566    1.7097 C   0  0  0  0  0  0  0  0  0  0  0  0
    2.1599   -0.4528    0.2381 C   0  0  0  0  0  0  0  0  0  0  0  0
   -2.3256   -1.1599   -5.1122 H   0  0  0  0  0  0  0  0  0  0  0  0
   -1.5865   -2.6709   -4.5421 H   0  0  0  0  0  0  0  0  0  0  0  0
   -3.3439   -2.5340   -4.6728 H   0  0  0  0  0  0  0  0  0  0  0  0
   -3.0126    0.0349    1.6713 H   0  0  0  0  0  0  0  0  0  0  0  0
   -4.4528    0.2684    3.7135 H   0  0  0  0  0  0  0  0  0  0  0  0
   -6.1882   -0.0978    3.5026 H   0  0  0  0  0  0  0  0  0  0  0  0
   -5.0548   -1.3857    4.0272 H   0  0  0  0  0  0  0  0  0  0  0  0
   -5.8653   -2.3032   -0.5971 H   0  0  0  0  0  0  0  0  0  0  0  0
    2.8930    0.1788   -2.2900 H   0  0  0  0  0  0  0  0  0  0  0  0
    1.9007    0.8911   -3.5580 H   0  0  0  0  0  0  0  0  0  0  0  0
    2.0742    1.7508   -2.0326 H   0  0  0  0  0  0  0  0  0  0  0  0
    0.1826   -1.0697   -0.2800 H   0  0  0  0  0  0  0  0  0  0  0  0
   -0.2116    0.6603    1.2631 H   0  0  0  0  0  0  0  0  0  0  0  0
   -0.4469    1.6355   -0.1978 H   0  0  0  0  0  0  0  0  0  0  0  0
    1.3843    2.2521    1.7295 H   0  0  0  0  0  0  0  0  0  0  0  0
    1.6937    2.6326    0.0198 H   0  0  0  0  0  0  0  0  0  0  0  0
    4.6625   -0.9108    0.9541 H   0  0  0  0  0  0  0  0  0  0  0  0
    6.8649   -0.3841    1.9050 H   0  0  0  0  0  0  0  0  0  0  0  0
    5.8126    3.5288    2.6086 H   0  0  0  0  0  0  0  0  0  0  0  0
    3.5611    3.2018    1.6796 H   0  0  0  0  0  0  0  0  0  0  0  0
    2.0082   -1.0914    1.1167 H   0  0  0  0  0  0  0  0  0  0  0  0
    2.8599   -0.9562   -0.4369 H   0  0  0  0  0  0  0  0  0  0  0  0
  1  2  1  0
  2  3  2  0
  3  4  1  0
  4  5  1  0
  5  6  2  0
  6  7  1  0
  7  8  1  0
  7  9  1  0
  9 10  2  0
  4 11  1  0
 11 12  2  0
 12 13  1  0
 13 14  2  0
 13 15  1  0
 15 16  1  0
 15 17  1  0
 17 18  1  0
 18 19  1  0
 19 20  1  0
 20 21  1  0
 21 22  2  0
 22 23  1  0
 23 24  2  0
 24 25  1  0
 25 26  2  0
 20 27  1  0
 12  2  1  0
 27 17  1  0
 10  5  1  0
 26 21  1  0
  1 28  1  0
  1 29  1  0
  1 30  1  0
  6 31  1  0
  8 32  1  0
  8 33  1  0
  8 34  1  0
 10 35  1  0
 16 36  1  0
 16 37  1  0
 16 38  1  0
 17 39  1  0
 18 40  1  0
 18 41  1  0
 19 42  1  0
 19 43  1  0
 22 44  1  0
 23 45  1  0
 25 46  1  0
 26 47  1  0
 27 48  1  0
 27 49  1  0
M  END
$$$$
OCNT-2312208
     RDKit          3D

 36 39  0  0  0  0  0  0  0  0999 V2000
   -4.4126    1.0359   -0.2582 C   0  0  0  0  0  0  0  0  0  0  0  0
   -4.3265    0.1633    0.8892 N   0  0  0  0  0  0  0  0  0  0  0  0
   -4.7997    0.4633    2.1372 C   0  0  0  0  0  0  0  0  0  0  0  0
   -4.5017   -0.6314    2.9097 C   0  0  0  0  0  0  0  0  0  0  0  0
   -3.8609   -1.5860    2.1667 N   0  0  0  0  0  0  0  0  0  0  0  0
   -3.7583   -1.0908    0.9456 C   0  0  0  0  0  0  0  0  0  0  0  0
   -3.1266   -1.7892   -0.2106 C   0  0  0  0  0  0  0  0  0  0  0  0
   -1.8664   -1.1671   -0.5638 N   0  0  0  0  0  0  0  0  0  0  0  0
   -0.6800   -1.2198    0.1096 C   0  0  0  0  0  0  0  0  0  0  0  0
    0.1748   -0.4623   -0.6598 C   0  0  0  0  0  0  0  0  0  0  0  0
    1.5752   -0.1723   -0.4008 C   0  0  0  0  0  0  0  0  0  0  0  0
    2.2099   -0.5770    0.7807 C   0  0  0  0  0  0  0  0  0  0  0  0
    3.5593   -0.2825    1.0029 C   0  0  0  0  0  0  0  0  0  0  0  0
    4.3013    0.4254    0.0436 C   0  0  0  0  0  0  0  0  0  0  0  0
    5.6508    0.7476    0.2109 C   0  0  0  0  0  0  0  0  0  0  0  0
    6.3955    1.4278   -0.6915 N   0  0  0  0  0  0  0  0  0  0  0  0
    5.7678    1.8100   -1.8223 C   0  0  0  0  0  0  0  0  0  0  0  0
    4.4345    1.5457   -2.0939 C   0  0  0  0  0  0  0  0  0  0  0  0
    3.6799    0.8407   -1.1484 C   0  0  0  0  0  0  0  0  0  0  0  0
    2.3221    0.5369   -1.3562 C   0  0  0  0  0  0  0  0  0  0  0  0
   -0.5106    0.0017   -1.7576 N   0  0  0  0  0  0  0  0  0  0  0  0
   -1.7587   -0.4410   -1.6920 N   0  0  0  0  0  0  0  0  0  0  0  0
   -5.1871    1.7871   -0.0809 H   0  0  0  0  0  0  0  0  0  0  0  0
   -4.6793    0.4480   -1.1390 H   0  0  0  0  0  0  0  0  0  0  0  0
   -3.4452    1.5255   -0.3900 H   0  0  0  0  0  0  0  0  0  0  0  0
   -5.2904    1.3986    2.3684 H   0  0  0  0  0  0  0  0  0  0  0  0
   -4.7140   -0.7821    3.9604 H   0  0  0  0  0  0  0  0  0  0  0  0
   -3.7804   -1.7866   -1.0888 H   0  0  0  0  0  0  0  0  0  0  0  0
   -2.9089   -2.8331    0.0412 H   0  0  0  0  0  0  0  0  0  0  0  0
   -0.5723   -1.7603    1.0384 H   0  0  0  0  0  0  0  0  0  0  0  0
    1.6694   -1.1227    1.5498 H   0  0  0  0  0  0  0  0  0  0  0  0
    4.0263   -0.6082    1.9299 H   0  0  0  0  0  0  0  0  0  0  0  0
    6.1908    0.4569    1.1084 H   0  0  0  0  0  0  0  0  0  0  0  0
    6.3842    2.3543   -2.5323 H   0  0  0  0  0  0  0  0  0  0  0  0
    3.9974    1.8855   -3.0270 H   0  0  0  0  0  0  0  0  0  0  0  0
    1.8403    0.8577   -2.2794 H   0  0  0  0  0  0  0  0  0  0  0  0
  1  2  1  0
  2  3  1  0
  3  4  2  0
  4  5  1  0
  5  6  2  0
  6  7  1  0
  7  8  1  0
  8  9  1  0
  9 10  2  0
 10 11  1  0
 11 12  1  0
 12 13  2  0
 13 14  1  0
 14 15  2  0
 15 16  1  0
 16 17  2  0
 17 18  1  0
 18 19  2  0
 19 20  1  0
 10 21  1  0
 21 22  2  0
  6  2  1  0
 22  8  1  0
 20 11  2  0
 19 14  1  0
  1 23  1  0
  1 24  1  0
  1 25  1  0
  3 26  1  0
  4 27  1  0
  7 28  1  0
  7 29  1  0
  9 30  1  0
 12 31  1  0
 13 32  1  0
 15 33  1  0
 17 34  1  0
 18 35  1  0
 20 36  1  0
M  END
$$$$
OCNT-2312209
     RDKit          3D

 38 40  0  0  0  0  0  0  0  0999 V2000
   -2.6186    0.1493   -2.9398 O   0  0  0  0  0  0  0  0  0  0  0  0
   -3.0862    0.3112   -1.8173 C   0  0  0  0  0  0  0  0  0  0  0  0
   -2.3798    0.0275   -0.6645 N   0  0  0  0  0  0  0  0  0  0  0  0
   -0.9799   -0.3524   -0.7369 C   0  0  0  0  0  0  0  0  0  0  0  0
   -0.5014   -1.0166    0.5585 C   0  0  0  0  0  0  0  0  0  0  0  0
   -0.3470   -0.0328    1.7194 C   0  0  0  0  0  0  0  0  0  0  0  0
    1.0266    0.5978    1.4941 C   0  0  0  0  0  0  0  0  0  0  0  0
    1.7799   -0.4358    0.7899 N   0  0  0  0  0  0  0  0  0  0  0  0
    3.1466   -0.4136    0.6319 C   0  0  0  0  0  0  0  0  0  0  0  0
    3.9090    0.7256    0.9485 C   0  0  0  0  0  0  0  0  0  0  0  0
    5.2993    0.7576    0.7863 C   0  0  0  0  0  0  0  0  0  0  0  0
    5.9549   -0.3597    0.2980 C   0  0  0  0  0  0  0  0  0  0  0  0
    7.2845   -0.3348    0.1412 F   0  0  0  0  0  0  0  0  0  0  0  0
    5.2451   -1.5021   -0.0308 C   0  0  0  0  0  0  0  0  0  0  0  0
    3.8549   -1.5226    0.1351 C   0  0  0  0  0  0  0  0  0  0  0  0
    0.9263   -1.5580    0.4041 C   0  0  0  0  0  0  0  0  0  0  0  0
   -4.4329    0.8495   -1.6025 C   0  0  0  0  0  0  0  0  0  0  0  0
   -5.1619    1.4102   -2.6390 C   0  0  0  0  0  0  0  0  0  0  0  0
   -6.6999    1.9760   -2.1560 S   0  0  0  0  0  0  0  0  0  0  0  0
   -6.4408    1.4619   -0.5493 C   0  0  0  0  0  0  0  0  0  0  0  0
   -5.2034    0.8769   -0.3870 C   0  0  0  0  0  0  0  0  0  0  0  0
   -2.7146    0.4479    0.1893 H   0  0  0  0  0  0  0  0  0  0  0  0
   -0.8611   -1.0459   -1.5779 H   0  0  0  0  0  0  0  0  0  0  0  0
   -0.4068    0.5503   -0.9763 H   0  0  0  0  0  0  0  0  0  0  0  0
   -1.1933   -1.8255    0.8213 H   0  0  0  0  0  0  0  0  0  0  0  0
   -1.1396    0.7177    1.7835 H   0  0  0  0  0  0  0  0  0  0  0  0
   -0.3398   -0.5889    2.6657 H   0  0  0  0  0  0  0  0  0  0  0  0
    1.4762    0.8665    2.4563 H   0  0  0  0  0  0  0  0  0  0  0  0
    0.9431    1.4960    0.8720 H   0  0  0  0  0  0  0  0  0  0  0  0
    3.4286    1.6255    1.3217 H   0  0  0  0  0  0  0  0  0  0  0  0
    5.8650    1.6489    1.0358 H   0  0  0  0  0  0  0  0  0  0  0  0
    5.7692   -2.3714   -0.4135 H   0  0  0  0  0  0  0  0  0  0  0  0
    3.3347   -2.4388   -0.1289 H   0  0  0  0  0  0  0  0  0  0  0  0
    1.0862   -2.3949    1.0946 H   0  0  0  0  0  0  0  0  0  0  0  0
    1.1182   -1.9001   -0.6187 H   0  0  0  0  0  0  0  0  0  0  0  0
   -4.8507    1.5179   -3.6707 H   0  0  0  0  0  0  0  0  0  0  0  0
   -7.2099    1.6060    0.1975 H   0  0  0  0  0  0  0  0  0  0  0  0
   -4.8807    0.4739    0.5646 H   0  0  0  0  0  0  0  0  0  0  0  0
  1  2  2  0
  2  3  1  0
  3  4  1  0
  4  5  1  0
  5  6  1  0
  6  7  1  0
  7  8  1  0
  8  9  1  0
  9 10  1  0
 10 11  2  0
 11 12  1  0
 12 13  1  0
 12 14  2  0
 14 15  1  0
  8 16  1  0
  2 17  1  0
 17 18  2  0
 18 19  1  0
 19 20  1  0
 20 21  2  0
 16  5  1  0
 21 17  1  0
 15  9  2  0
  3 22  1  0
  4 23  1  0
  4 24  1  0
  5 25  1  0
  6 26  1  0
  6 27  1  0
  7 28  1  0
  7 29  1  0
 10 30  1  0
 11 31  1  0
 14 32  1  0
 15 33  1  0
 16 34  1  0
 16 35  1  0
 18 36  1  0
 20 37  1  0
 21 38  1  0
M  END
$$$$
OCNT-2312226
     RDKit          3D

 47 50  0  0  0  0  0  0  0  0999 V2000
   -1.8883    2.5483    0.6002 C   0  0  0  0  0  0  0  0  0  0  0  0
   -2.0475    1.7601   -0.7177 C   0  0  0  0  0  0  0  0  0  0  0  0
   -3.4851    1.9882   -1.2328 C   0  0  0  0  0  0  0  0  0  0  0  0
   -1.0711    2.3431   -1.7820 C   0  0  0  0  0  0  0  0  0  0  0  0
    0.3324    1.8954   -1.5836 C   0  0  0  0  0  0  0  0  0  0  0  0
    1.4305    2.4318   -2.0655 N   0  0  0  0  0  0  0  0  0  0  0  0
    2.4924    1.6645   -1.6494 N   0  0  0  0  0  0  0  0  0  0  0  0
    2.0258    0.6711   -0.9205 C   0  0  0  0  0  0  0  0  0  0  0  0
    2.8136   -0.3965   -0.2492 C   0  0  0  0  0  0  0  0  0  0  0  0
    4.3159   -0.2049   -0.4453 C   0  0  0  0  0  0  0  0  0  0  0  0
    5.0737   -1.2382    0.2322 N   0  0  0  0  0  0  0  0  0  0  0  0
    5.4435   -2.4453   -0.2896 C   0  0  0  0  0  0  0  0  0  0  0  0
    6.1140   -3.0790    0.7307 C   0  0  0  0  0  0  0  0  0  0  0  0
    6.1586   -2.2869    1.8492 N   0  0  0  0  0  0  0  0  0  0  0  0
    5.5372   -1.1785    1.5147 C   0  0  0  0  0  0  0  0  0  0  0  0
    0.6637    0.7811   -0.8659 N   0  0  0  0  0  0  0  0  0  0  0  0
   -0.2783   -0.0395   -0.1379 C   0  0  0  0  0  0  0  0  0  0  0  0
   -1.7404    0.2245   -0.5652 C   0  0  0  0  0  0  0  0  0  0  0  0
   -2.7218   -0.5657    0.2913 C   0  0  0  0  0  0  0  0  0  0  0  0
   -2.6969   -0.5343    1.6937 C   0  0  0  0  0  0  0  0  0  0  0  0
   -3.6120   -1.2784    2.4426 C   0  0  0  0  0  0  0  0  0  0  0  0
   -4.5656   -2.0650    1.8025 C   0  0  0  0  0  0  0  0  0  0  0  0
   -4.6068   -2.1073    0.4123 C   0  0  0  0  0  0  0  0  0  0  0  0
   -3.6930   -1.3640   -0.3373 C   0  0  0  0  0  0  0  0  0  0  0  0
   -2.0221    3.6231    0.4285 H   0  0  0  0  0  0  0  0  0  0  0  0
   -2.6390    2.2540    1.3400 H   0  0  0  0  0  0  0  0  0  0  0  0
   -0.9003    2.4149    1.0506 H   0  0  0  0  0  0  0  0  0  0  0  0
   -4.2342    1.6846   -0.4939 H   0  0  0  0  0  0  0  0  0  0  0  0
   -3.6588    3.0477   -1.4541 H   0  0  0  0  0  0  0  0  0  0  0  0
   -3.6711    1.4237   -2.1534 H   0  0  0  0  0  0  0  0  0  0  0  0
   -1.1105    3.4393   -1.7824 H   0  0  0  0  0  0  0  0  0  0  0  0
   -1.3793    2.0192   -2.7850 H   0  0  0  0  0  0  0  0  0  0  0  0
    2.5774   -0.4008    0.8223 H   0  0  0  0  0  0  0  0  0  0  0  0
    2.5102   -1.3732   -0.6465 H   0  0  0  0  0  0  0  0  0  0  0  0
    4.5883   -0.2398   -1.5072 H   0  0  0  0  0  0  0  0  0  0  0  0
    4.6511    0.7620   -0.0507 H   0  0  0  0  0  0  0  0  0  0  0  0
    5.2122   -2.7456   -1.3020 H   0  0  0  0  0  0  0  0  0  0  0  0
    6.5671   -4.0619    0.7197 H   0  0  0  0  0  0  0  0  0  0  0  0
    5.3939   -0.3188    2.1567 H   0  0  0  0  0  0  0  0  0  0  0  0
   -0.0171   -1.0888   -0.3194 H   0  0  0  0  0  0  0  0  0  0  0  0
   -0.1069    0.1718    0.9230 H   0  0  0  0  0  0  0  0  0  0  0  0
   -1.8181   -0.1946   -1.5820 H   0  0  0  0  0  0  0  0  0  0  0  0
   -1.9739    0.0735    2.2318 H   0  0  0  0  0  0  0  0  0  0  0  0
   -3.5821   -1.2414    3.5289 H   0  0  0  0  0  0  0  0  0  0  0  0
   -5.2776   -2.6421    2.3868 H   0  0  0  0  0  0  0  0  0  0  0  0
   -5.3524   -2.7183   -0.0904 H   0  0  0  0  0  0  0  0  0  0  0  0
   -3.7513   -1.4134   -1.4230 H   0  0  0  0  0  0  0  0  0  0  0  0
  1  2  1  0
  2  3  1  0
  2  4  1  0
  4  5  1  0
  5  6  2  0
  6  7  1  0
  7  8  2  0
  8  9  1  0
  9 10  1  0
 10 11  1  0
 11 12  1  0
 12 13  2  0
 13 14  1  0
 14 15  2  0
  8 16  1  0
 16 17  1  0
 17 18  1  0
 18 19  1  0
 19 20  2  0
 20 21  1  0
 21 22  2  0
 22 23  1  0
 23 24  2  0
 18  2  1  0
 24 19  1  0
 16  5  1  0
 15 11  1  0
  1 25  1  0
  1 26  1  0
  1 27  1  0
  3 28  1  0
  3 29  1  0
  3 30  1  0
  4 31  1  0
  4 32  1  0
  9 33  1  0
  9 34  1  0
 10 35  1  0
 10 36  1  0
 12 37  1  0
 13 38  1  0
 15 39  1  0
 17 40  1  0
 17 41  1  0
 18 42  1  0
 20 43  1  0
 21 44  1  0
 22 45  1  0
 23 46  1  0
 24 47  1  0
M  END
$$$$
OCNT-2312229
     RDKit          3D

 51 52  0  0  0  0  0  0  0  0999 V2000
    6.5705   -1.9128   -1.0843 C   0  0  0  0  0  0  0  0  0  0  0  0
    6.0205   -0.5913   -0.9074 N   0  0  0  0  0  0  0  0  0  0  0  0
    5.4908   -0.1965    0.3042 C   0  0  0  0  0  0  0  0  0  0  0  0
    5.4750   -0.9505    1.2751 O   0  0  0  0  0  0  0  0  0  0  0  0
    4.8731    1.2143    0.3394 C   0  0  0  0  0  0  0  0  0  0  0  0
    4.5518    1.5997    1.7961 C   0  0  0  0  0  0  0  0  0  0  0  0
    5.8862    2.2422   -0.2018 C   0  0  0  0  0  0  0  0  0  0  0  0
    3.6016    1.2376   -0.5398 C   0  0  0  0  0  0  0  0  0  0  0  0
    2.5166    0.4055   -0.0471 N   0  0  0  0  0  0  0  0  0  0  0  0
    1.4637    0.9377    0.6535 C   0  0  0  0  0  0  0  0  0  0  0  0
    1.3145    2.1322    0.8685 O   0  0  0  0  0  0  0  0  0  0  0  0
    0.6094   -0.0426    1.0821 N   0  0  0  0  0  0  0  0  0  0  0  0
   -0.6225    0.2899    1.7619 C   0  0  0  0  0  0  0  0  0  0  0  0
   -1.7816    0.3290    0.7988 C   0  0  0  0  0  0  0  0  0  0  0  0
   -2.0165    1.4711    0.0189 C   0  0  0  0  0  0  0  0  0  0  0  0
   -3.0647    1.5003   -0.9030 C   0  0  0  0  0  0  0  0  0  0  0  0
   -3.8926    0.3888   -1.0542 C   0  0  0  0  0  0  0  0  0  0  0  0
   -3.6772   -0.7466   -0.2701 C   0  0  0  0  0  0  0  0  0  0  0  0
   -4.4310   -1.8920   -0.3938 O   0  0  0  0  0  0  0  0  0  0  0  0
   -5.7979   -1.7441   -0.4407 C   0  0  0  0  0  0  0  0  0  0  0  0
   -6.5027   -0.9976    0.5084 C   0  0  0  0  0  0  0  0  0  0  0  0
   -7.8958   -0.9150    0.4311 C   0  0  0  0  0  0  0  0  0  0  0  0
   -8.5854   -1.5889   -0.5800 C   0  0  0  0  0  0  0  0  0  0  0  0
   -7.8829   -2.3512   -1.5137 C   0  0  0  0  0  0  0  0  0  0  0  0
   -6.4952   -2.4300   -1.4344 C   0  0  0  0  0  0  0  0  0  0  0  0
   -5.8349   -3.1711   -2.3368 F   0  0  0  0  0  0  0  0  0  0  0  0
   -2.6149   -0.7868    0.6356 C   0  0  0  0  0  0  0  0  0  0  0  0
    7.1812   -2.1882   -0.2199 H   0  0  0  0  0  0  0  0  0  0  0  0
    5.7462   -2.6234   -1.1908 H   0  0  0  0  0  0  0  0  0  0  0  0
    7.1824   -1.9170   -1.9894 H   0  0  0  0  0  0  0  0  0  0  0  0
    5.9047   -0.0136   -1.7284 H   0  0  0  0  0  0  0  0  0  0  0  0
    3.8882    0.8735    2.2776 H   0  0  0  0  0  0  0  0  0  0  0  0
    5.4662    1.6414    2.4003 H   0  0  0  0  0  0  0  0  0  0  0  0
    4.0715    2.5832    1.8496 H   0  0  0  0  0  0  0  0  0  0  0  0
    6.8497    2.1525    0.3131 H   0  0  0  0  0  0  0  0  0  0  0  0
    5.5228    3.2667   -0.0611 H   0  0  0  0  0  0  0  0  0  0  0  0
    6.0742    2.1113   -1.2731 H   0  0  0  0  0  0  0  0  0  0  0  0
    3.2399    2.2673   -0.6488 H   0  0  0  0  0  0  0  0  0  0  0  0
    3.8201    0.8717   -1.5491 H   0  0  0  0  0  0  0  0  0  0  0  0
    2.7233   -0.5650    0.1493 H   0  0  0  0  0  0  0  0  0  0  0  0
    0.5975   -0.8826    0.5249 H   0  0  0  0  0  0  0  0  0  0  0  0
   -0.5317    1.2467    2.2888 H   0  0  0  0  0  0  0  0  0  0  0  0
   -0.7889   -0.4822    2.5212 H   0  0  0  0  0  0  0  0  0  0  0  0
   -1.3675    2.3409    0.1185 H   0  0  0  0  0  0  0  0  0  0  0  0
   -3.2264    2.3868   -1.5108 H   0  0  0  0  0  0  0  0  0  0  0  0
   -4.6901    0.4129   -1.7913 H   0  0  0  0  0  0  0  0  0  0  0  0
   -5.9773   -0.4843    1.3096 H   0  0  0  0  0  0  0  0  0  0  0  0
   -8.4438   -0.3284    1.1650 H   0  0  0  0  0  0  0  0  0  0  0  0
   -9.6694   -1.5242   -0.6356 H   0  0  0  0  0  0  0  0  0  0  0  0
   -8.4054   -2.8860   -2.3004 H   0  0  0  0  0  0  0  0  0  0  0  0
   -2.4452   -1.6915    1.2143 H   0  0  0  0  0  0  0  0  0  0  0  0
  1  2  1  0
  2  3  1  0
  3  4  2  0
  3  5  1  0
  5  6  1  0
  5  7  1  0
  5  8  1  0
  8  9  1  0
  9 10  1  0
 10 11  2  0
 10 12  1  0
 12 13  1  0
 13 14  1  0
 14 15  2  0
 15 16  1  0
 16 17  2  0
 17 18  1  0
 18 19  1  0
 19 20  1  0
 20 21  2  0
 21 22  1  0
 22 23  2  0
 23 24  1  0
 24 25  2  0
 25 26  1  0
 18 27  2  0
 27 14  1  0
 25 20  1  0
  1 28  1  0
  1 29  1  0
  1 30  1  0
  2 31  1  0
  6 32  1  0
  6 33  1  0
  6 34  1  0
  7 35  1  0
  7 36  1  0
  7 37  1  0
  8 38  1  0
  8 39  1  0
  9 40  1  0
 12 41  1  0
 13 42  1  0
 13 43  1  0
 15 44  1  0
 16 45  1  0
 17 46  1  0
 21 47  1  0
 22 48  1  0
 23 49  1  0
 24 50  1  0
 27 51  1  0
M  END
$$$$
OCNT-2312240
     RDKit          3D

 50 53  0  0  0  0  0  0  0  0999 V2000
   -3.0014    2.1145   -0.4668 O   0  0  0  0  0  0  0  0  0  0  0  0
   -3.1195    0.7113   -0.2016 C   0  0  0  0  0  0  0  0  0  0  0  0
   -4.5672    0.3983    0.1358 C   0  0  0  0  0  0  0  0  0  0  0  0
   -5.2703   -0.5729   -0.5923 C   0  0  0  0  0  0  0  0  0  0  0  0
   -6.5999   -0.8661   -0.2834 C   0  0  0  0  0  0  0  0  0  0  0  0
   -7.2417   -0.1924    0.7538 C   0  0  0  0  0  0  0  0  0  0  0  0
   -6.5563    0.7762    1.4836 C   0  0  0  0  0  0  0  0  0  0  0  0
   -5.2273    1.0709    1.1770 C   0  0  0  0  0  0  0  0  0  0  0  0
   -2.1258    0.2867    0.9221 C   0  0  0  0  0  0  0  0  0  0  0  0
   -2.1371   -1.2252    1.1810 C   0  0  0  0  0  0  0  0  0  0  0  0
   -0.7732   -1.5442    1.7764 C   0  0  0  0  0  0  0  0  0  0  0  0
   -0.0230   -0.2226    1.7862 C   0  0  0  0  0  0  0  0  0  0  0  0
   -0.6808    0.6304    0.7799 N   0  0  0  0  0  0  0  0  0  0  0  0
   -0.1574    0.4023   -0.5778 C   0  0  0  0  0  0  0  0  0  0  0  0
    1.2510    0.8868   -0.6843 C   0  0  0  0  0  0  0  0  0  0  0  0
    1.7372    2.1705   -0.6029 C   0  0  0  0  0  0  0  0  0  0  0  0
    3.0893    2.1231   -0.7476 O   0  0  0  0  0  0  0  0  0  0  0  0
    3.3682    0.7886   -0.9062 C   0  0  0  0  0  0  0  0  0  0  0  0
    4.7778    0.4246   -1.0645 C   0  0  0  0  0  0  0  0  0  0  0  0
    5.7139    1.4197   -1.4143 C   0  0  0  0  0  0  0  0  0  0  0  0
    7.0653    1.1199   -1.5943 C   0  0  0  0  0  0  0  0  0  0  0  0
    7.5110   -0.1840   -1.4293 C   0  0  0  0  0  0  0  0  0  0  0  0
    6.6058   -1.1847   -1.0804 C   0  0  0  0  0  0  0  0  0  0  0  0
    5.2353   -0.9003   -0.8881 C   0  0  0  0  0  0  0  0  0  0  0  0
    4.3105   -2.0324   -0.4917 C   0  0  0  0  0  0  0  0  0  0  0  0
    3.6030   -1.7918    0.6464 F   0  0  0  0  0  0  0  0  0  0  0  0
    4.9946   -3.1903   -0.2282 F   0  0  0  0  0  0  0  0  0  0  0  0
    3.4209   -2.3753   -1.4625 F   0  0  0  0  0  0  0  0  0  0  0  0
    2.3017    0.0166   -0.8895 N   0  0  0  0  0  0  0  0  0  0  0  0
   -3.8611    2.4204   -0.8024 H   0  0  0  0  0  0  0  0  0  0  0  0
   -2.8596    0.2003   -1.1361 H   0  0  0  0  0  0  0  0  0  0  0  0
   -4.7884   -1.1120   -1.4053 H   0  0  0  0  0  0  0  0  0  0  0  0
   -7.1358   -1.6217   -0.8523 H   0  0  0  0  0  0  0  0  0  0  0  0
   -8.2768   -0.4221    0.9933 H   0  0  0  0  0  0  0  0  0  0  0  0
   -7.0565    1.3031    2.2923 H   0  0  0  0  0  0  0  0  0  0  0  0
   -4.7057    1.8330    1.7540 H   0  0  0  0  0  0  0  0  0  0  0  0
   -2.4422    0.7936    1.8455 H   0  0  0  0  0  0  0  0  0  0  0  0
   -2.2715   -1.7938    0.2530 H   0  0  0  0  0  0  0  0  0  0  0  0
   -2.9420   -1.5087    1.8676 H   0  0  0  0  0  0  0  0  0  0  0  0
   -0.2570   -2.2814    1.1508 H   0  0  0  0  0  0  0  0  0  0  0  0
   -0.8602   -1.9615    2.7847 H   0  0  0  0  0  0  0  0  0  0  0  0
   -0.1423    0.2541    2.7677 H   0  0  0  0  0  0  0  0  0  0  0  0
    1.0537   -0.3579    1.6439 H   0  0  0  0  0  0  0  0  0  0  0  0
   -0.7333    0.9749   -1.3132 H   0  0  0  0  0  0  0  0  0  0  0  0
   -0.2155   -0.6526   -0.8716 H   0  0  0  0  0  0  0  0  0  0  0  0
    1.2936    3.1424   -0.4457 H   0  0  0  0  0  0  0  0  0  0  0  0
    5.3916    2.4504   -1.5588 H   0  0  0  0  0  0  0  0  0  0  0  0
    7.7649    1.9067   -1.8660 H   0  0  0  0  0  0  0  0  0  0  0  0
    8.5623   -0.4238   -1.5702 H   0  0  0  0  0  0  0  0  0  0  0  0
    6.9773   -2.2016   -0.9526 H   0  0  0  0  0  0  0  0  0  0  0  0
  1  2  1  0
  2  3  1  0
  3  4  2  0
  4  5  1  0
  5  6  2  0
  6  7  1  0
  7  8  2  0
  2  9  1  0
  9 10  1  0
 10 11  1  0
 11 12  1  0
 12 13  1  0
 13 14  1  0
 14 15  1  0
 15 16  2  0
 16 17  1  0
 17 18  1  0
 18 19  1  0
 19 20  2  0
 20 21  1  0
 21 22  2  0
 22 23  1  0
 23 24  2  0
 24 25  1  0
 25 26  1  0
 25 27  1  0
 25 28  1  0
 18 29  2  0
  8  3  1  0
 13  9  1  0
 29 15  1  0
 24 19  1  0
  1 30  1  0
  2 31  1  0
  4 32  1  0
  5 33  1  0
  6 34  1  0
  7 35  1  0
  8 36  1  0
  9 37  1  0
 10 38  1  0
 10 39  1  0
 11 40  1  0
 11 41  1  0
 12 42  1  0
 12 43  1  0
 14 44  1  0
 14 45  1  0
 16 46  1  0
 20 47  1  0
 21 48  1  0
 22 49  1  0
 23 50  1  0
M  END
$$$$
OCNT-2312247
     RDKit          3D

 48 50  0  0  0  0  0  0  0  0999 V2000
   -5.4646   -2.5928    1.6010 C   0  0  0  0  0  0  0  0  0  0  0  0
   -4.5178   -1.5107    1.1176 C   0  0  0  0  0  0  0  0  0  0  0  0
   -5.0676   -0.9413   -0.0656 O   0  0  0  0  0  0  0  0  0  0  0  0
   -4.4524    0.2607   -0.5718 C   0  0  0  0  0  0  0  0  0  0  0  0
   -2.9729    0.0842   -0.6944 C   0  0  0  0  0  0  0  0  0  0  0  0
   -2.3257   -0.6115   -1.6055 N   0  0  0  0  0  0  0  0  0  0  0  0
   -0.9804   -0.5122   -1.3411 N   0  0  0  0  0  0  0  0  0  0  0  0
   -0.8120    0.2349   -0.2731 C   0  0  0  0  0  0  0  0  0  0  0  0
    0.2892    0.6370    0.3987 N   0  0  0  0  0  0  0  0  0  0  0  0
    1.6362    0.3288    0.1086 C   0  0  0  0  0  0  0  0  0  0  0  0
    2.6391    0.8663    0.9334 C   0  0  0  0  0  0  0  0  0  0  0  0
    3.9988    0.6038    0.7084 C   0  0  0  0  0  0  0  0  0  0  0  0
    4.3878   -0.2091   -0.3505 C   0  0  0  0  0  0  0  0  0  0  0  0
    5.6649   -0.5464   -0.6938 O   0  0  0  0  0  0  0  0  0  0  0  0
    6.7437   -0.1832    0.1728 C   0  0  0  0  0  0  0  0  0  0  0  0
    7.2701    1.1986   -0.2041 C   0  0  0  0  0  0  0  0  0  0  0  0
    7.8379   -1.2299   -0.0268 C   0  0  0  0  0  0  0  0  0  0  0  0
    3.4032   -0.7434   -1.1803 C   0  0  0  0  0  0  0  0  0  0  0  0
    2.0459   -0.4806   -0.9536 C   0  0  0  0  0  0  0  0  0  0  0  0
   -2.0496    0.6280    0.1622 N   0  0  0  0  0  0  0  0  0  0  0  0
   -4.9062    1.4692    0.2340 C   0  0  0  0  0  0  0  0  0  0  0  0
   -6.2952    1.7096   -0.3164 C   0  0  0  0  0  0  0  0  0  0  0  0
   -6.2078    1.4618   -1.7203 O   0  0  0  0  0  0  0  0  0  0  0  0
   -5.0890    0.5707   -1.9407 C   0  0  0  0  0  0  0  0  0  0  0  0
   -5.6013   -3.3586    0.8302 H   0  0  0  0  0  0  0  0  0  0  0  0
   -6.4536   -2.1726    1.8121 H   0  0  0  0  0  0  0  0  0  0  0  0
   -5.0823   -3.0691    2.5081 H   0  0  0  0  0  0  0  0  0  0  0  0
   -3.5436   -1.9599    0.8998 H   0  0  0  0  0  0  0  0  0  0  0  0
   -4.3994   -0.7541    1.8988 H   0  0  0  0  0  0  0  0  0  0  0  0
    0.1973    1.2363    1.2086 H   0  0  0  0  0  0  0  0  0  0  0  0
    2.3762    1.5075    1.7709 H   0  0  0  0  0  0  0  0  0  0  0  0
    4.7200    1.0613    1.3759 H   0  0  0  0  0  0  0  0  0  0  0  0
    6.4492   -0.2201    1.2278 H   0  0  0  0  0  0  0  0  0  0  0  0
    6.4991    1.9648   -0.0783 H   0  0  0  0  0  0  0  0  0  0  0  0
    7.5691    1.2287   -1.2579 H   0  0  0  0  0  0  0  0  0  0  0  0
    8.1316    1.4747    0.4119 H   0  0  0  0  0  0  0  0  0  0  0  0
    8.7089   -1.0202    0.6016 H   0  0  0  0  0  0  0  0  0  0  0  0
    8.1600   -1.2696   -1.0734 H   0  0  0  0  0  0  0  0  0  0  0  0
    7.4598   -2.2272    0.2234 H   0  0  0  0  0  0  0  0  0  0  0  0
    3.6882   -1.3767   -2.0174 H   0  0  0  0  0  0  0  0  0  0  0  0
    1.3267   -0.9283   -1.6334 H   0  0  0  0  0  0  0  0  0  0  0  0
   -2.2359    1.2047    0.9654 H   0  0  0  0  0  0  0  0  0  0  0  0
   -4.9299    1.3229    1.3168 H   0  0  0  0  0  0  0  0  0  0  0  0
   -4.2797    2.3437    0.0169 H   0  0  0  0  0  0  0  0  0  0  0  0
   -6.6422    2.7323   -0.1444 H   0  0  0  0  0  0  0  0  0  0  0  0
   -7.0268    1.0159    0.1124 H   0  0  0  0  0  0  0  0  0  0  0  0
   -5.4622   -0.3260   -2.4463 H   0  0  0  0  0  0  0  0  0  0  0  0
   -4.4049    1.0971   -2.6157 H   0  0  0  0  0  0  0  0  0  0  0  0
  1  2  1  0
  2  3  1  0
  3  4  1  0
  4  5  1  0
  5  6  2  0
  6  7  1  0
  7  8  2  0
  8  9  1  0
  9 10  1  0
 10 11  1  0
 11 12  2  0
 12 13  1  0
 13 14  1  0
 14 15  1  0
 15 16  1  0
 15 17  1  0
 13 18  2  0
 18 19  1  0
  8 20  1  0
  4 21  1  0
 21 22  1  0
 22 23  1  0
 23 24  1  0
 24  4  1  0
 20  5  1  0
 19 10  2  0
  1 25  1  0
  1 26  1  0
  1 27  1  0
  2 28  1  0
  2 29  1  0
  9 30  1  0
 11 31  1  0
 12 32  1  0
 15 33  1  0
 16 34  1  0
 16 35  1  0
 16 36  1  0
 17 37  1  0
 17 38  1  0
 17 39  1  0
 18 40  1  0
 19 41  1  0
 20 42  1  0
 21 43  1  0
 21 44  1  0
 22 45  1  0
 22 46  1  0
 24 47  1  0
 24 48  1  0
M  END
$$$$
OCNT-2312258
     RDKit          3D

 55 57  0  0  0  0  0  0  0  0999 V2000
    8.4439   -1.3108   -2.3448 C   0  0  0  0  0  0  0  0  0  0  0  0
    7.3577   -0.4146   -2.1093 O   0  0  0  0  0  0  0  0  0  0  0  0
    6.8260   -0.5019   -0.8565 C   0  0  0  0  0  0  0  0  0  0  0  0
    7.2242   -1.2482    0.0259 O   0  0  0  0  0  0  0  0  0  0  0  0
    5.6982    0.4964   -0.7164 C   0  0  0  0  0  0  0  0  0  0  0  0
    4.6922    0.1229    0.3909 C   0  0  2  0  0  0  0  0  0  0  0  0
    3.9690   -1.2023    0.0637 C   0  0  0  0  0  0  0  0  0  0  0  0
    2.5851   -1.2627    0.7028 C   0  0  0  0  0  0  0  0  0  0  0  0
    1.6598   -0.1705    0.1354 C   0  0  1  0  0  0  0  0  0  0  0  0
    0.4981    0.0902    1.1077 C   0  0  0  0  0  0  0  0  0  0  0  0
   -0.5689    0.8377    0.4681 N   0  0  0  0  0  0  0  0  0  0  0  0
   -1.3600    1.7215    1.1789 C   0  0  0  0  0  0  0  0  0  0  0  0
   -1.1587    2.0259    2.3508 O   0  0  0  0  0  0  0  0  0  0  0  0
   -2.5071    2.3028    0.3706 C   0  0  0  0  0  0  0  0  0  0  0  0
   -3.7860    1.5195    0.5337 C   0  0  0  0  0  0  0  0  0  0  0  0
   -4.5704    1.6893    1.6831 C   0  0  0  0  0  0  0  0  0  0  0  0
   -5.7518    0.9649    1.8456 C   0  0  0  0  0  0  0  0  0  0  0  0
   -6.1544    0.0537    0.8706 C   0  0  0  0  0  0  0  0  0  0  0  0
   -7.3311   -0.6047    1.1140 O   0  0  0  0  0  0  0  0  0  0  0  0
   -7.5499   -1.7579    0.2948 C   0  0  0  0  0  0  0  0  0  0  0  0
   -7.2843   -1.4717   -1.1747 C   0  0  0  0  0  0  0  0  0  0  0  0
   -5.8192   -1.1004   -1.3479 C   0  0  0  0  0  0  0  0  0  0  0  0
   -5.3913   -0.1230   -0.2901 C   0  0  0  0  0  0  0  0  0  0  0  0
   -4.2009    0.6045   -0.4465 C   0  0  0  0  0  0  0  0  0  0  0  0
    2.4287    1.1261   -0.2013 C   0  0  0  0  0  0  0  0  0  0  0  0
    3.6971    1.2768    0.6341 C   0  0  0  0  0  0  0  0  0  0  0  0
    9.2769   -1.0888   -1.6704 H   0  0  0  0  0  0  0  0  0  0  0  0
    8.7844   -1.1676   -3.3753 H   0  0  0  0  0  0  0  0  0  0  0  0
    8.1154   -2.3485   -2.2301 H   0  0  0  0  0  0  0  0  0  0  0  0
    6.1610    1.4671   -0.4966 H   0  0  0  0  0  0  0  0  0  0  0  0
    5.1742    0.5795   -1.6781 H   0  0  0  0  0  0  0  0  0  0  0  0
    5.2528   -0.0161    1.3267 H   0  0  0  0  0  0  0  0  0  0  0  0
    4.5721   -2.0467    0.4184 H   0  0  0  0  0  0  0  0  0  0  0  0
    3.8651   -1.3291   -1.0226 H   0  0  0  0  0  0  0  0  0  0  0  0
    2.6854   -1.1593    1.7918 H   0  0  0  0  0  0  0  0  0  0  0  0
    2.1356   -2.2482    0.5242 H   0  0  0  0  0  0  0  0  0  0  0  0
    1.2350   -0.5454   -0.8069 H   0  0  0  0  0  0  0  0  0  0  0  0
    0.0536   -0.8563    1.4366 H   0  0  0  0  0  0  0  0  0  0  0  0
    0.8483    0.6203    2.0008 H   0  0  0  0  0  0  0  0  0  0  0  0
   -0.9542    0.4561   -0.3866 H   0  0  0  0  0  0  0  0  0  0  0  0
   -2.6589    3.3434    0.6859 H   0  0  0  0  0  0  0  0  0  0  0  0
   -2.2235    2.3558   -0.6875 H   0  0  0  0  0  0  0  0  0  0  0  0
   -4.2617    2.3845    2.4624 H   0  0  0  0  0  0  0  0  0  0  0  0
   -6.3553    1.1053    2.7393 H   0  0  0  0  0  0  0  0  0  0  0  0
   -6.9308   -2.5856    0.6660 H   0  0  0  0  0  0  0  0  0  0  0  0
   -8.5963   -2.0533    0.4271 H   0  0  0  0  0  0  0  0  0  0  0  0
   -7.9123   -0.6325   -1.5031 H   0  0  0  0  0  0  0  0  0  0  0  0
   -7.5328   -2.3408   -1.7934 H   0  0  0  0  0  0  0  0  0  0  0  0
   -5.1959   -1.9989   -1.2634 H   0  0  0  0  0  0  0  0  0  0  0  0
   -5.6679   -0.6762   -2.3471 H   0  0  0  0  0  0  0  0  0  0  0  0
   -3.6034    0.4597   -1.3450 H   0  0  0  0  0  0  0  0  0  0  0  0
    1.7941    2.0100   -0.0695 H   0  0  0  0  0  0  0  0  0  0  0  0
    2.7063    1.1086   -1.2641 H   0  0  0  0  0  0  0  0  0  0  0  0
    4.1673    2.2472    0.4312 H   0  0  0  0  0  0  0  0  0  0  0  0
    3.4192    1.2919    1.6972 H   0  0  0  0  0  0  0  0  0  0  0  0
  1  2  1  0
  2  3  1  0
  3  4  2  0
  3  5  1  0
  5  6  1  0
  6  7  1  0
  7  8  1  0
  8  9  1  0
  9 10  1  0
 10 11  1  0
 11 12  1  0
 12 13  2  0
 12 14  1  0
 14 15  1  0
 15 16  1  0
 16 17  2  0
 17 18  1  0
 18 19  1  0
 19 20  1  0
 20 21  1  0
 21 22  1  0
 22 23  1  0
 23 24  1  0
  9 25  1  0
 25 26  1  0
 26  6  1  0
 24 15  2  0
 23 18  2  0
  1 27  1  0
  1 28  1  0
  1 29  1  0
  5 30  1  0
  5 31  1  0
  6 32  1  1
  7 33  1  0
  7 34  1  0
  8 35  1  0
  8 36  1  0
  9 37  1  6
 10 38  1  0
 10 39  1  0
 11 40  1  0
 14 41  1  0
 14 42  1  0
 16 43  1  0
 17 44  1  0
 20 45  1  0
 20 46  1  0
 21 47  1  0
 21 48  1  0
 22 49  1  0
 22 50  1  0
 24 51  1  0
 25 52  1  0
 25 53  1  0
 26 54  1  0
 26 55  1  0
M  END
$$$$
OCNT-2312272
     RDKit          3D

 44 47  0  0  0  0  0  0  0  0999 V2000
   -4.5447   -2.8414   -0.3961 C   0  0  0  0  0  0  0  0  0  0  0  0
   -4.8631   -1.5357    0.1238 N   0  0  0  0  0  0  0  0  0  0  0  0
   -6.0955   -1.3046    0.6338 N   0  0  0  0  0  0  0  0  0  0  0  0
   -6.0391   -0.0223    1.0086 C   0  0  0  0  0  0  0  0  0  0  0  0
   -4.7843    0.5671    0.7492 C   0  0  0  0  0  0  0  0  0  0  0  0
   -4.1744    1.8131    0.9114 C   0  0  0  0  0  0  0  0  0  0  0  0
   -2.8419    1.9372    0.4809 C   0  0  0  0  0  0  0  0  0  0  0  0
   -2.2230    3.2250    0.5904 C   0  0  0  0  0  0  0  0  0  0  0  0
   -1.7527    4.2795    0.7158 N   0  0  0  0  0  0  0  0  0  0  0  0
   -2.1624    0.8321   -0.0778 C   0  0  0  0  0  0  0  0  0  0  0  0
   -0.8249    0.9487   -0.4986 N   0  0  0  0  0  0  0  0  0  0  0  0
   -0.4248    0.0040   -1.5497 C   0  0  0  0  0  0  0  0  0  0  0  0
    1.0574    0.1923   -1.8481 C   0  0  0  0  0  0  0  0  0  0  0  0
    1.8974   -0.2176   -0.6263 C   0  0  0  0  0  0  0  0  0  0  0  0
    3.1708    0.5148   -0.6421 N   0  0  0  0  0  0  0  0  0  0  0  0
    4.3487   -0.0386   -0.1333 C   0  0  0  0  0  0  0  0  0  0  0  0
    4.3910   -1.1201    0.7457 C   0  0  0  0  0  0  0  0  0  0  0  0
    5.6163   -1.5449    1.2434 C   0  0  0  0  0  0  0  0  0  0  0  0
    6.7942   -0.9605    0.9490 N   0  0  0  0  0  0  0  0  0  0  0  0
    6.7366    0.1100    0.1335 C   0  0  0  0  0  0  0  0  0  0  0  0
    5.5596    0.6029   -0.4112 C   0  0  0  0  0  0  0  0  0  0  0  0
    1.1506    0.0344    0.6936 C   0  0  0  0  0  0  0  0  0  0  0  0
    0.1573    1.1867    0.5783 C   0  0  0  0  0  0  0  0  0  0  0  0
   -2.7623   -0.3706   -0.2544 N   0  0  0  0  0  0  0  0  0  0  0  0
   -4.0365   -0.4448    0.1717 C   0  0  0  0  0  0  0  0  0  0  0  0
   -4.6512   -3.5686    0.4127 H   0  0  0  0  0  0  0  0  0  0  0  0
   -5.2411   -3.0676   -1.2075 H   0  0  0  0  0  0  0  0  0  0  0  0
   -3.5199   -2.8552   -0.7738 H   0  0  0  0  0  0  0  0  0  0  0  0
   -6.9156    0.4295    1.4552 H   0  0  0  0  0  0  0  0  0  0  0  0
   -4.7138    2.6519    1.3413 H   0  0  0  0  0  0  0  0  0  0  0  0
   -1.0023    0.2048   -2.4602 H   0  0  0  0  0  0  0  0  0  0  0  0
   -0.6032   -1.0396   -1.2589 H   0  0  0  0  0  0  0  0  0  0  0  0
    1.2424    1.2395   -2.1229 H   0  0  0  0  0  0  0  0  0  0  0  0
    1.3514   -0.4127   -2.7142 H   0  0  0  0  0  0  0  0  0  0  0  0
    2.0908   -1.2944   -0.7188 H   0  0  0  0  0  0  0  0  0  0  0  0
    3.3385    1.0375   -1.4997 H   0  0  0  0  0  0  0  0  0  0  0  0
    3.4975   -1.6440    1.0597 H   0  0  0  0  0  0  0  0  0  0  0  0
    5.6776   -2.3917    1.9209 H   0  0  0  0  0  0  0  0  0  0  0  0
    7.6901    0.5859   -0.0760 H   0  0  0  0  0  0  0  0  0  0  0  0
    5.5954    1.4832   -1.0435 H   0  0  0  0  0  0  0  0  0  0  0  0
    0.5982   -0.8758    0.9635 H   0  0  0  0  0  0  0  0  0  0  0  0
    1.8432    0.2317    1.5197 H   0  0  0  0  0  0  0  0  0  0  0  0
    0.6956    2.1161    0.3562 H   0  0  0  0  0  0  0  0  0  0  0  0
   -0.3238    1.3232    1.5550 H   0  0  0  0  0  0  0  0  0  0  0  0
  1  2  1  0
  2  3  1  0
  3  4  2  0
  4  5  1  0
  5  6  1  0
  6  7  2  0
  7  8  1  0
  8  9  3  0
  7 10  1  0
 10 11  1  0
 11 12  1  0
 12 13  1  0
 13 14  1  0
 14 15  1  0
 15 16  1  0
 16 17  2  0
 17 18  1  0
 18 19  2  0
 19 20  1  0
 20 21  2  0
 14 22  1  0
 22 23  1  0
 10 24  2  0
 24 25  1  0
 25  2  1  0
 25  5  2  0
 23 11  1  0
 21 16  1  0
  1 26  1  0
  1 27  1  0
  1 28  1  0
  4 29  1  0
  6 30  1  0
 12 31  1  0
 12 32  1  0
 13 33  1  0
 13 34  1  0
 14 35  1  0
 15 36  1  0
 17 37  1  0
 18 38  1  0
 20 39  1  0
 21 40  1  0
 22 41  1  0
 22 42  1  0
 23 43  1  0
 23 44  1  0
M  END
$$$$
OCNT-2312280
     RDKit          3D

 48 50  0  0  0  0  0  0  0  0999 V2000
    5.5002    1.8007   -0.6633 C   0  0  0  0  0  0  0  0  0  0  0  0
    4.2465    2.1882    0.1044 C   0  0  0  0  0  0  0  0  0  0  0  0
    4.1417    1.5517    1.4855 C   0  0  0  0  0  0  0  0  0  0  0  0
    3.8234   -0.2081    1.5051 S   0  0  0  0  0  0  0  0  0  0  0  0
    4.9422   -0.8938    0.8938 O   0  0  0  0  0  0  0  0  0  0  0  0
    3.3858   -0.5579    2.8402 O   0  0  0  0  0  0  0  0  0  0  0  0
    2.4751   -0.3234    0.4715 N   0  0  0  0  0  0  0  0  0  0  0  0
    1.8206   -1.6167    0.4734 C   0  0  0  0  0  0  0  0  0  0  0  0
    2.5290   -2.7360    0.0196 C   0  0  0  0  0  0  0  0  0  0  0  0
    1.9443   -4.0020    0.0421 C   0  0  0  0  0  0  0  0  0  0  0  0
    0.6453   -4.1604    0.5153 C   0  0  0  0  0  0  0  0  0  0  0  0
   -0.0842   -3.0485    0.9428 C   0  0  0  0  0  0  0  0  0  0  0  0
    0.4823   -1.7628    0.9004 C   0  0  0  0  0  0  0  0  0  0  0  0
   -0.3123   -0.5597    1.3075 C   0  0  0  0  0  0  0  0  0  0  0  0
    0.2605    0.5029    1.5443 O   0  0  0  0  0  0  0  0  0  0  0  0
   -1.6845   -0.6906    1.3385 N   0  0  0  0  0  0  0  0  0  0  0  0
   -2.5475    0.4512    1.5481 C   0  0  0  0  0  0  0  0  0  0  0  0
   -2.9289    1.0860    0.2434 C   0  0  0  0  0  0  0  0  0  0  0  0
   -2.3231    2.2743   -0.1932 C   0  0  0  0  0  0  0  0  0  0  0  0
   -2.6818    2.8620   -1.4189 C   0  0  0  0  0  0  0  0  0  0  0  0
   -3.6479    2.2716   -2.2359 C   0  0  0  0  0  0  0  0  0  0  0  0
   -4.2218    1.0864   -1.8132 C   0  0  0  0  0  0  0  0  0  0  0  0
   -3.8636    0.5089   -0.6025 C   0  0  0  0  0  0  0  0  0  0  0  0
   -4.5309   -0.6645   -0.3431 O   0  0  0  0  0  0  0  0  0  0  0  0
   -5.1526   -0.9919   -1.6087 C   0  0  0  0  0  0  0  0  0  0  0  0
   -5.2890    0.2800   -2.4449 C   0  0  0  0  0  0  0  0  0  0  0  0
    5.5896    2.4143   -1.5660 H   0  0  0  0  0  0  0  0  0  0  0  0
    6.3987    1.9579   -0.0588 H   0  0  0  0  0  0  0  0  0  0  0  0
    5.4703    0.7555   -0.9825 H   0  0  0  0  0  0  0  0  0  0  0  0
    3.3643    1.9611   -0.5025 H   0  0  0  0  0  0  0  0  0  0  0  0
    4.2593    3.2765    0.2380 H   0  0  0  0  0  0  0  0  0  0  0  0
    5.0588    1.7119    2.0620 H   0  0  0  0  0  0  0  0  0  0  0  0
    3.3164    2.0148    2.0382 H   0  0  0  0  0  0  0  0  0  0  0  0
    1.7915    0.3945    0.7688 H   0  0  0  0  0  0  0  0  0  0  0  0
    3.5478   -2.6332   -0.3480 H   0  0  0  0  0  0  0  0  0  0  0  0
    2.5126   -4.8653   -0.2961 H   0  0  0  0  0  0  0  0  0  0  0  0
    0.2006   -5.1519    0.5554 H   0  0  0  0  0  0  0  0  0  0  0  0
   -1.0857   -3.2144    1.3287 H   0  0  0  0  0  0  0  0  0  0  0  0
   -2.1201   -1.4680    0.8626 H   0  0  0  0  0  0  0  0  0  0  0  0
   -2.0569    1.1759    2.2079 H   0  0  0  0  0  0  0  0  0  0  0  0
   -3.4437    0.0971    2.0691 H   0  0  0  0  0  0  0  0  0  0  0  0
   -1.5608    2.7516    0.4207 H   0  0  0  0  0  0  0  0  0  0  0  0
   -2.2038    3.7885   -1.7284 H   0  0  0  0  0  0  0  0  0  0  0  0
   -3.9355    2.7343   -3.1744 H   0  0  0  0  0  0  0  0  0  0  0  0
   -4.5133   -1.7288   -2.1122 H   0  0  0  0  0  0  0  0  0  0  0  0
   -6.1250   -1.4602   -1.4243 H   0  0  0  0  0  0  0  0  0  0  0  0
   -5.1298    0.0871   -3.5086 H   0  0  0  0  0  0  0  0  0  0  0  0
   -6.2637    0.7532   -2.2893 H   0  0  0  0  0  0  0  0  0  0  0  0
  1  2  1  0
  2  3  1  0
  3  4  1  0
  4  5  2  0
  4  6  2  0
  4  7  1  0
  7  8  1  0
  8  9  2  0
  9 10  1  0
 10 11  2  0
 11 12  1  0
 12 13  2  0
 13 14  1  0
 14 15  2  0
 14 16  1  0
 16 17  1  0
 17 18  1  0
 18 19  1  0
 19 20  2  0
 20 21  1  0
 21 22  2  0
 22 23  1  0
 23 24  1  0
 24 25  1  0
 25 26  1  0
 13  8  1  0
 23 18  2  0
 26 22  1  0
  1 27  1  0
  1 28  1  0
  1 29  1  0
  2 30  1  0
  2 31  1  0
  3 32  1  0
  3 33  1  0
  7 34  1  0
  9 35  1  0
 10 36  1  0
 11 37  1  0
 12 38  1  0
 16 39  1  0
 17 40  1  0
 17 41  1  0
 19 42  1  0
 20 43  1  0
 21 44  1  0
 25 45  1  0
 25 46  1  0
 26 47  1  0
 26 48  1  0
M  END
$$$$
OCNT-2312281
     RDKit          3D

 40 43  0  0  0  0  0  0  0  0999 V2000
   -6.1016    1.8092   -0.7814 F   0  0  0  0  0  0  0  0  0  0  0  0
   -5.6488    0.7359   -0.1193 C   0  0  0  0  0  0  0  0  0  0  0  0
   -6.5349   -0.0189    0.6403 C   0  0  0  0  0  0  0  0  0  0  0  0
   -6.0621   -1.1284    1.3343 C   0  0  0  0  0  0  0  0  0  0  0  0
   -4.7090   -1.4679    1.2554 C   0  0  0  0  0  0  0  0  0  0  0  0
   -3.8212   -0.7099    0.4823 C   0  0  0  0  0  0  0  0  0  0  0  0
   -2.5290   -1.1545    0.5060 O   0  0  0  0  0  0  0  0  0  0  0  0
   -1.5801   -0.5875   -0.4087 C   0  0  0  0  0  0  0  0  0  0  0  0
   -0.5437   -1.6789   -0.6933 C   0  0  0  0  0  0  0  0  0  0  0  0
    0.7928   -1.0767   -1.0968 C   0  0  0  0  0  0  0  0  0  0  0  0
    1.3368   -0.2538   -0.0076 N   0  0  0  0  0  0  0  0  0  0  0  0
    2.7064    0.0020    0.0386 C   0  0  0  0  0  0  0  0  0  0  0  0
    3.4257   -0.2657   -1.0328 N   0  0  0  0  0  0  0  0  0  0  0  0
    4.7658   -0.0079   -0.9978 C   0  0  0  0  0  0  0  0  0  0  0  0
    5.7534   -0.1696   -1.9416 C   0  0  0  0  0  0  0  0  0  0  0  0
    6.9285    0.2737   -1.3175 C   0  0  0  0  0  0  0  0  0  0  0  0
    6.7249    0.6910   -0.0670 N   0  0  0  0  0  0  0  0  0  0  0  0
    5.3932    0.5175    0.1297 N   0  0  0  0  0  0  0  0  0  0  0  0
    4.6599    0.7901    1.2720 C   0  0  0  0  0  0  0  0  0  0  0  0
    3.3416    0.5577    1.2961 C   0  0  0  0  0  0  0  0  0  0  0  0
    0.3703    0.3477    0.9124 C   0  0  0  0  0  0  0  0  0  0  0  0
   -0.9378    0.6664    0.1946 C   0  0  0  0  0  0  0  0  0  0  0  0
   -4.2983    0.4042   -0.2043 C   0  0  0  0  0  0  0  0  0  0  0  0
   -7.5814    0.2641    0.6876 H   0  0  0  0  0  0  0  0  0  0  0  0
   -6.7400   -1.7284    1.9356 H   0  0  0  0  0  0  0  0  0  0  0  0
   -4.3414   -2.3353    1.7997 H   0  0  0  0  0  0  0  0  0  0  0  0
   -2.0635   -0.3394   -1.3620 H   0  0  0  0  0  0  0  0  0  0  0  0
   -0.9185   -2.3381   -1.4857 H   0  0  0  0  0  0  0  0  0  0  0  0
   -0.4118   -2.3207    0.1885 H   0  0  0  0  0  0  0  0  0  0  0  0
    0.6837   -0.4662   -2.0011 H   0  0  0  0  0  0  0  0  0  0  0  0
    1.4781   -1.9004   -1.3300 H   0  0  0  0  0  0  0  0  0  0  0  0
    5.6264   -0.5564   -2.9412 H   0  0  0  0  0  0  0  0  0  0  0  0
    7.9311    0.3104   -1.7240 H   0  0  0  0  0  0  0  0  0  0  0  0
    5.2161    1.1792    2.1130 H   0  0  0  0  0  0  0  0  0  0  0  0
    2.7424    0.7287    2.1768 H   0  0  0  0  0  0  0  0  0  0  0  0
    0.7544    1.2903    1.3173 H   0  0  0  0  0  0  0  0  0  0  0  0
    0.1957   -0.3289    1.7570 H   0  0  0  0  0  0  0  0  0  0  0  0
   -0.7244    1.3764   -0.6152 H   0  0  0  0  0  0  0  0  0  0  0  0
   -1.6179    1.1670    0.8924 H   0  0  0  0  0  0  0  0  0  0  0  0
   -3.6614    1.0436   -0.8023 H   0  0  0  0  0  0  0  0  0  0  0  0
  1  2  1  0
  2  3  1  0
  3  4  2  0
  4  5  1  0
  5  6  2  0
  6  7  1  0
  7  8  1  0
  8  9  1  0
  9 10  1  0
 10 11  1  0
 11 12  1  0
 12 13  2  0
 13 14  1  0
 14 15  2  0
 15 16  1  0
 16 17  2  0
 17 18  1  0
 18 19  1  0
 19 20  2  0
 11 21  1  0
 21 22  1  0
  6 23  1  0
 23  2  2  0
 22  8  1  0
 20 12  1  0
 18 14  1  0
  3 24  1  0
  4 25  1  0
  5 26  1  0
  8 27  1  0
  9 28  1  0
  9 29  1  0
 10 30  1  0
 10 31  1  0
 15 32  1  0
 16 33  1  0
 19 34  1  0
 20 35  1  0
 21 36  1  0
 21 37  1  0
 22 38  1  0
 22 39  1  0
 23 40  1  0
M  END
$$$$
OCNT-2312285
     RDKit          3D

 38 41  0  0  0  0  0  0  0  0999 V2000
    5.6122   -2.3960   -0.4328 C   0  0  0  0  0  0  0  0  0  0  0  0
    4.9251   -1.2111   -0.4657 C   0  0  0  0  0  0  0  0  0  0  0  0
    3.7853   -1.4917   -1.2560 C   0  0  0  0  0  0  0  0  0  0  0  0
    2.6341   -0.4880   -1.6316 C   0  0  0  0  0  0  0  0  0  0  0  0
    1.6031   -0.8301   -2.3748 N   0  0  0  0  0  0  0  0  0  0  0  0
    0.7270    0.2197   -2.5615 N   0  0  0  0  0  0  0  0  0  0  0  0
    1.1003    1.3180   -1.9394 C   0  0  0  0  0  0  0  0  0  0  0  0
    0.3572    2.4544   -1.9796 N   0  0  0  0  0  0  0  0  0  0  0  0
    0.3022    3.3733   -0.8464 C   0  0  0  0  0  0  0  0  0  0  0  0
   -0.2032    2.7450    0.4417 C   0  0  0  0  0  0  0  0  0  0  0  0
   -1.3139    1.9015    0.4451 C   0  0  0  0  0  0  0  0  0  0  0  0
   -1.7166    1.3348    1.6484 C   0  0  0  0  0  0  0  0  0  0  0  0
   -2.7694    0.4654    1.7842 O   0  0  0  0  0  0  0  0  0  0  0  0
   -3.1578   -0.3229    0.6374 C   0  0  0  0  0  0  0  0  0  0  0  0
   -2.1395   -1.3726    0.1138 C   0  0  0  0  0  0  0  0  0  0  0  0
   -3.3303   -2.3188   -0.1195 C   0  0  0  0  0  0  0  0  0  0  0  0
   -4.0842   -1.5242    0.9622 C   0  0  0  0  0  0  0  0  0  0  0  0
   -1.0453    1.6575    2.8193 C   0  0  0  0  0  0  0  0  0  0  0  0
    0.0320    2.5171    2.7349 C   0  0  0  0  0  0  0  0  0  0  0  0
    0.4692    3.0607    1.5784 N   0  0  0  0  0  0  0  0  0  0  0  0
    2.6031    1.1466   -1.1133 S   0  0  0  0  0  0  0  0  0  0  0  0
    3.7887   -2.7663   -1.6700 N   0  0  0  0  0  0  0  0  0  0  0  0
    4.9404   -3.3289   -1.1489 O   0  0  0  0  0  0  0  0  0  0  0  0
    6.5331   -2.7293    0.0225 H   0  0  0  0  0  0  0  0  0  0  0  0
    5.2076   -0.2853    0.0108 H   0  0  0  0  0  0  0  0  0  0  0  0
   -0.5361    2.3295   -2.4453 H   0  0  0  0  0  0  0  0  0  0  0  0
   -0.3731    4.1985   -1.1027 H   0  0  0  0  0  0  0  0  0  0  0  0
    1.2879    3.8251   -0.6811 H   0  0  0  0  0  0  0  0  0  0  0  0
   -1.8344    1.6894   -0.4798 H   0  0  0  0  0  0  0  0  0  0  0  0
   -3.5941    0.3021   -0.1546 H   0  0  0  0  0  0  0  0  0  0  0  0
   -1.4302   -1.7266    0.8707 H   0  0  0  0  0  0  0  0  0  0  0  0
   -1.5877   -1.0918   -0.7874 H   0  0  0  0  0  0  0  0  0  0  0  0
   -3.1507   -3.3734    0.1021 H   0  0  0  0  0  0  0  0  0  0  0  0
   -3.7726   -2.2322   -1.1189 H   0  0  0  0  0  0  0  0  0  0  0  0
   -3.9614   -1.9232    1.9759 H   0  0  0  0  0  0  0  0  0  0  0  0
   -5.1488   -1.3666    0.7689 H   0  0  0  0  0  0  0  0  0  0  0  0
   -1.3513    1.2405    3.7716 H   0  0  0  0  0  0  0  0  0  0  0  0
    0.5923    2.7983    3.6216 H   0  0  0  0  0  0  0  0  0  0  0  0
  1  2  2  0
  2  3  1  0
  3  4  1  0
  4  5  2  0
  5  6  1  0
  6  7  2  0
  7  8  1  0
  8  9  1  0
  9 10  1  0
 10 11  2  0
 11 12  1  0
 12 13  1  0
 13 14  1  0
 14 15  1  0
 15 16  1  0
 16 17  1  0
 12 18  2  0
 18 19  1  0
 19 20  2  0
  7 21  1  0
  3 22  2  0
 22 23  1  0
 23  1  1  0
 21  4  1  0
 20 10  1  0
 17 14  1  0
  1 24  1  0
  2 25  1  0
  8 26  1  0
  9 27  1  0
  9 28  1  0
 11 29  1  0
 14 30  1  0
 15 31  1  0
 15 32  1  0
 16 33  1  0
 16 34  1  0
 17 35  1  0
 17 36  1  0
 18 37  1  0
 19 38  1  0
M  END
$$$$
OCNT-2312286
     RDKit          3D

 41 42  0  0  0  0  0  0  0  0999 V2000
    8.3635   -0.0552    0.6074 C   0  0  0  0  0  0  0  0  0  0  0  0
    6.9776    0.2430    0.4331 O   0  0  0  0  0  0  0  0  0  0  0  0
    6.2107   -0.8420    0.1612 C   0  0  0  0  0  0  0  0  0  0  0  0
    6.6086   -1.9922    0.0627 O   0  0  0  0  0  0  0  0  0  0  0  0
    4.7845   -0.4505   -0.0072 C   0  0  0  0  0  0  0  0  0  0  0  0
    4.3464    0.8726    0.1129 C   0  0  0  0  0  0  0  0  0  0  0  0
    2.9912    1.1829   -0.0557 C   0  0  0  0  0  0  0  0  0  0  0  0
    2.0500    0.1833   -0.3462 C   0  0  0  0  0  0  0  0  0  0  0  0
    0.6520    0.5436   -0.5139 C   0  0  0  0  0  0  0  0  0  0  0  0
   -0.4023   -0.2945   -0.8059 C   0  0  0  0  0  0  0  0  0  0  0  0
   -1.4821    0.5381   -0.8517 N   0  0  0  0  0  0  0  0  0  0  0  0
   -2.8654    0.1887   -1.1091 C   0  0  0  0  0  0  0  0  0  0  0  0
   -3.7571    0.3271    0.1466 C   0  0  0  0  0  0  0  0  0  0  0  0
   -4.1273    1.7321    0.3796 N   0  0  0  0  0  0  0  0  0  0  0  0
   -5.0200   -0.5725    0.0437 C   0  0  0  0  0  0  0  0  0  0  0  0
   -5.8175   -0.5936    1.3532 C   0  0  0  0  0  0  0  0  0  0  0  0
   -5.9454   -0.1959   -1.1188 C   0  0  0  0  0  0  0  0  0  0  0  0
   -1.1308    1.8121   -0.6089 N   0  0  0  0  0  0  0  0  0  0  0  0
    0.1775    1.8273   -0.3954 N   0  0  0  0  0  0  0  0  0  0  0  0
    2.4976   -1.1399   -0.4651 C   0  0  0  0  0  0  0  0  0  0  0  0
    3.8521   -1.4542   -0.2971 C   0  0  0  0  0  0  0  0  0  0  0  0
    8.8871    0.8809    0.8199 H   0  0  0  0  0  0  0  0  0  0  0  0
    8.5062   -0.7323    1.4555 H   0  0  0  0  0  0  0  0  0  0  0  0
    8.7812   -0.4857   -0.3081 H   0  0  0  0  0  0  0  0  0  0  0  0
    5.0430    1.6769    0.3368 H   0  0  0  0  0  0  0  0  0  0  0  0
    2.6761    2.2213    0.0424 H   0  0  0  0  0  0  0  0  0  0  0  0
   -0.4819   -1.3567   -0.9778 H   0  0  0  0  0  0  0  0  0  0  0  0
   -2.8651   -0.8474   -1.4681 H   0  0  0  0  0  0  0  0  0  0  0  0
   -3.2124    0.8226   -1.9340 H   0  0  0  0  0  0  0  0  0  0  0  0
   -3.1782   -0.0094    1.0175 H   0  0  0  0  0  0  0  0  0  0  0  0
   -4.5097    1.8423    1.3183 H   0  0  0  0  0  0  0  0  0  0  0  0
   -3.2785    2.3099    0.3609 H   0  0  0  0  0  0  0  0  0  0  0  0
   -4.6768   -1.6013   -0.1320 H   0  0  0  0  0  0  0  0  0  0  0  0
   -6.6195   -1.3382    1.3013 H   0  0  0  0  0  0  0  0  0  0  0  0
   -5.1731   -0.8594    2.1977 H   0  0  0  0  0  0  0  0  0  0  0  0
   -6.2803    0.3754    1.5660 H   0  0  0  0  0  0  0  0  0  0  0  0
   -6.7937   -0.8873   -1.1724 H   0  0  0  0  0  0  0  0  0  0  0  0
   -6.3492    0.8154   -1.0049 H   0  0  0  0  0  0  0  0  0  0  0  0
   -5.4222   -0.2490   -2.0784 H   0  0  0  0  0  0  0  0  0  0  0  0
    1.8079   -1.9491   -0.6896 H   0  0  0  0  0  0  0  0  0  0  0  0
    4.1753   -2.4894   -0.3945 H   0  0  0  0  0  0  0  0  0  0  0  0
  1  2  1  0
  2  3  1  0
  3  4  2  0
  3  5  1  0
  5  6  1  0
  6  7  2  0
  7  8  1  0
  8  9  1  0
  9 10  2  0
 10 11  1  0
 11 12  1  0
 12 13  1  0
 13 14  1  0
 13 15  1  0
 15 16  1  0
 15 17  1  0
 11 18  1  0
 18 19  2  0
  8 20  2  0
 20 21  1  0
 21  5  2  0
 19  9  1  0
  1 22  1  0
  1 23  1  0
  1 24  1  0
  6 25  1  0
  7 26  1  0
 10 27  1  0
 12 28  1  0
 12 29  1  0
 13 30  1  0
 14 31  1  0
 14 32  1  0
 15 33  1  0
 16 34  1  0
 16 35  1  0
 16 36  1  0
 17 37  1  0
 17 38  1  0
 17 39  1  0
 20 40  1  0
 21 41  1  0
M  END
$$$$
OCNT-2312293
     RDKit          3D

 40 43  0  0  0  0  0  0  0  0999 V2000
    0.4476   -3.2954    0.5916 O   0  0  0  0  0  0  0  0  0  0  0  0
    0.5414   -2.0798    0.3965 C   0  0  0  0  0  0  0  0  0  0  0  0
    1.7334   -1.4210    0.1660 N   0  0  0  0  0  0  0  0  0  0  0  0
    2.9910   -1.9988    0.1135 C   0  0  0  0  0  0  0  0  0  0  0  0
    3.3525   -3.3129    0.2692 C   0  0  0  0  0  0  0  0  0  0  0  0
    4.7077   -3.3549    0.1246 N   0  0  0  0  0  0  0  0  0  0  0  0
    5.2666   -2.1548   -0.1144 N   0  0  0  0  0  0  0  0  0  0  0  0
    4.2182   -1.3181   -0.1238 C   0  0  0  0  0  0  0  0  0  0  0  0
    4.3235    0.2416   -0.3697 C   0  0  0  0  0  0  0  0  0  0  0  0
    3.2421    1.0042   -0.3620 N   0  0  0  0  0  0  0  0  0  0  0  0
    3.6029    2.3147   -0.6080 C   0  0  0  0  0  0  0  0  0  0  0  0
    4.9501    2.5369   -0.7938 C   0  0  0  0  0  0  0  0  0  0  0  0
    5.8052    1.0568   -0.6600 S   0  0  0  0  0  0  0  0  0  0  0  0
   -0.7011   -1.1547    0.4007 C   0  0  2  0  0  0  0  0  0  0  0  0
   -0.9095   -0.1522   -0.7556 C   0  0  0  0  0  0  0  0  0  0  0  0
   -1.5039    0.8707    0.2796 C   0  0  1  0  0  0  0  0  0  0  0  0
   -0.9692    2.2070    0.1071 O   0  0  0  0  0  0  0  0  0  0  0  0
   -3.1135    0.9184    0.3507 C   0  0  0  0  0  0  0  0  0  0  0  0
   -3.8517    0.7026    1.5328 C   0  0  0  0  0  0  0  0  0  0  0  0
   -5.2501    0.7637    1.5607 C   0  0  0  0  0  0  0  0  0  0  0  0
   -5.9591    1.0549    0.4001 C   0  0  0  0  0  0  0  0  0  0  0  0
   -5.2650    1.2889   -0.7798 C   0  0  0  0  0  0  0  0  0  0  0  0
   -6.1275    1.6628   -2.2206 Cl  0  0  0  0  0  0  0  0  0  0  0  0
   -3.8701    1.2260   -0.8024 C   0  0  0  0  0  0  0  0  0  0  0  0
   -0.7256    0.0503    1.3661 C   0  0  0  0  0  0  0  0  0  0  0  0
    1.7298   -0.4122    0.0159 H   0  0  0  0  0  0  0  0  0  0  0  0
    2.7806   -4.2091    0.4651 H   0  0  0  0  0  0  0  0  0  0  0  0
    5.3141   -4.1671    0.1768 H   0  0  0  0  0  0  0  0  0  0  0  0
    2.8348    3.0787   -0.6420 H   0  0  0  0  0  0  0  0  0  0  0  0
    5.4589    3.4681   -0.9965 H   0  0  0  0  0  0  0  0  0  0  0  0
   -1.6072   -1.7677    0.5361 H   0  0  0  0  0  0  0  0  0  0  0  0
   -1.5898   -0.5035   -1.5378 H   0  0  0  0  0  0  0  0  0  0  0  0
    0.0045    0.2020   -1.2462 H   0  0  0  0  0  0  0  0  0  0  0  0
   -1.3818    2.7290    0.8173 H   0  0  0  0  0  0  0  0  0  0  0  0
   -3.3361    0.4821    2.4652 H   0  0  0  0  0  0  0  0  0  0  0  0
   -5.7827    0.5847    2.4919 H   0  0  0  0  0  0  0  0  0  0  0  0
   -7.0442    1.1020    0.4232 H   0  0  0  0  0  0  0  0  0  0  0  0
   -3.3440    1.4252   -1.7354 H   0  0  0  0  0  0  0  0  0  0  0  0
   -1.2323   -0.1399    2.3153 H   0  0  0  0  0  0  0  0  0  0  0  0
    0.2594    0.4710    1.6043 H   0  0  0  0  0  0  0  0  0  0  0  0
  1  2  2  0
  2  3  1  0
  3  4  1  0
  4  5  2  0
  5  6  1  0
  6  7  1  0
  7  8  2  0
  8  9  1  0
  9 10  2  0
 10 11  1  0
 11 12  2  0
 12 13  1  0
  2 14  1  0
 14 15  1  0
 15 16  1  0
 16 17  1  6
 16 18  1  0
 18 19  2  0
 19 20  1  0
 20 21  2  0
 21 22  1  0
 22 23  1  0
 22 24  2  0
 16 25  1  0
  8  4  1  0
 13  9  1  0
 25 14  1  0
 24 18  1  0
  3 26  1  0
  5 27  1  0
  6 28  1  0
 11 29  1  0
 12 30  1  0
 14 31  1  1
 15 32  1  0
 15 33  1  0
 17 34  1  0
 19 35  1  0
 20 36  1  0
 21 37  1  0
 24 38  1  0
 25 39  1  0
 25 40  1  0
M  END
$$$$
OCNT-2312302
     RDKit          3D

 60 64  0  0  0  0  0  0  0  0999 V2000
   -5.1859   -1.4845   -1.8135 O   0  0  0  0  0  0  0  0  0  0  0  0
   -5.1473   -0.7952   -0.8031 C   0  0  0  0  0  0  0  0  0  0  0  0
   -6.1166   -0.8715    0.1778 N   0  0  0  0  0  0  0  0  0  0  0  0
   -7.1905   -1.8314    0.0450 C   0  0  0  0  0  0  0  0  0  0  0  0
   -8.2888   -1.5219    1.0252 C   0  0  0  0  0  0  0  0  0  0  0  0
   -9.2008   -0.4977    0.7571 C   0  0  0  0  0  0  0  0  0  0  0  0
  -10.1800   -0.2164    1.6970 C   0  0  0  0  0  0  0  0  0  0  0  0
  -10.3048   -0.8723    2.8717 N   0  0  0  0  0  0  0  0  0  0  0  0
   -9.4133   -1.8564    3.1125 C   0  0  0  0  0  0  0  0  0  0  0  0
   -8.3998   -2.2128    2.2365 C   0  0  0  0  0  0  0  0  0  0  0  0
   -4.2032    0.1534   -0.4771 N   0  0  0  0  0  0  0  0  0  0  0  0
   -3.0628    0.5276   -1.2169 C   0  0  0  0  0  0  0  0  0  0  0  0
   -2.6668   -0.0922   -2.4019 C   0  0  0  0  0  0  0  0  0  0  0  0
   -1.5276    0.3452   -3.0835 C   0  0  0  0  0  0  0  0  0  0  0  0
   -0.7715    1.4033   -2.5841 C   0  0  0  0  0  0  0  0  0  0  0  0
   -1.1437    2.0349   -1.3908 C   0  0  0  0  0  0  0  0  0  0  0  0
   -0.3094    3.1628   -0.8380 C   0  0  0  0  0  0  0  0  0  0  0  0
    0.9429    2.6630   -0.3123 N   0  0  0  0  0  0  0  0  0  0  0  0
    2.1177    2.7925   -1.0228 C   0  0  0  0  0  0  0  0  0  0  0  0
    2.2164    3.4227   -2.0696 O   0  0  0  0  0  0  0  0  0  0  0  0
    3.2981    2.0630   -0.4800 C   0  0  0  0  0  0  0  0  0  0  0  0
    4.2863    1.6376   -1.3743 C   0  0  0  0  0  0  0  0  0  0  0  0
    5.4024    0.9293   -0.9146 C   0  0  0  0  0  0  0  0  0  0  0  0
    5.5451    0.6426    0.4482 C   0  0  0  0  0  0  0  0  0  0  0  0
    6.6730   -0.0838    0.9279 N   0  0  0  0  0  0  0  0  0  0  0  0
    7.2047    0.0250    2.1959 C   0  0  0  0  0  0  0  0  0  0  0  0
    8.2802   -0.7042    2.3679 N   0  0  0  0  0  0  0  0  0  0  0  0
    8.4508   -1.3594    1.1811 C   0  0  0  0  0  0  0  0  0  0  0  0
    9.4413   -2.2905    0.8328 C   0  0  0  0  0  0  0  0  0  0  0  0
    9.3984   -2.8906   -0.4276 C   0  0  0  0  0  0  0  0  0  0  0  0
    8.3778   -2.5829   -1.3208 C   0  0  0  0  0  0  0  0  0  0  0  0
    7.3845   -1.6528   -0.9933 C   0  0  0  0  0  0  0  0  0  0  0  0
    7.4569   -1.0212    0.2611 C   0  0  0  0  0  0  0  0  0  0  0  0
    4.5752    1.1105    1.3502 C   0  0  0  0  0  0  0  0  0  0  0  0
    3.4560    1.8153    0.8871 C   0  0  0  0  0  0  0  0  0  0  0  0
   -2.2916    1.5873   -0.7151 C   0  0  0  0  0  0  0  0  0  0  0  0
   -5.8107   -0.6770    1.1196 H   0  0  0  0  0  0  0  0  0  0  0  0
   -6.7766   -2.8337    0.2175 H   0  0  0  0  0  0  0  0  0  0  0  0
   -7.5799   -1.8156   -0.9804 H   0  0  0  0  0  0  0  0  0  0  0  0
   -9.1484    0.0717   -0.1661 H   0  0  0  0  0  0  0  0  0  0  0  0
  -10.9104    0.5702    1.5271 H   0  0  0  0  0  0  0  0  0  0  0  0
   -9.5394   -2.3665    4.0641 H   0  0  0  0  0  0  0  0  0  0  0  0
   -7.7152   -3.0130    2.4974 H   0  0  0  0  0  0  0  0  0  0  0  0
   -4.4223    0.7205    0.3278 H   0  0  0  0  0  0  0  0  0  0  0  0
   -3.2262   -0.9187   -2.8301 H   0  0  0  0  0  0  0  0  0  0  0  0
   -1.2361   -0.1427   -4.0100 H   0  0  0  0  0  0  0  0  0  0  0  0
    0.1125    1.7353   -3.1275 H   0  0  0  0  0  0  0  0  0  0  0  0
   -0.8285    3.6513   -0.0063 H   0  0  0  0  0  0  0  0  0  0  0  0
   -0.1432    3.9220   -1.6103 H   0  0  0  0  0  0  0  0  0  0  0  0
    0.8784    1.9321    0.3800 H   0  0  0  0  0  0  0  0  0  0  0  0
    4.1947    1.8640   -2.4372 H   0  0  0  0  0  0  0  0  0  0  0  0
    6.1660    0.6698   -1.6423 H   0  0  0  0  0  0  0  0  0  0  0  0
    6.7974    0.6871    2.9464 H   0  0  0  0  0  0  0  0  0  0  0  0
   10.2163   -2.5451    1.5461 H   0  0  0  0  0  0  0  0  0  0  0  0
   10.1583   -3.6161   -0.7020 H   0  0  0  0  0  0  0  0  0  0  0  0
    8.3444   -3.0822   -2.2874 H   0  0  0  0  0  0  0  0  0  0  0  0
    6.5796   -1.4648   -1.6939 H   0  0  0  0  0  0  0  0  0  0  0  0
    4.6408    0.9157    2.4178 H   0  0  0  0  0  0  0  0  0  0  0  0
    2.7296    2.1789    1.6095 H   0  0  0  0  0  0  0  0  0  0  0  0
   -2.5844    2.0782    0.2102 H   0  0  0  0  0  0  0  0  0  0  0  0
  1  2  2  0
  2  3  1  0
  3  4  1  0
  4  5  1  0
  5  6  2  0
  6  7  1  0
  7  8  2  0
  8  9  1  0
  9 10  2  0
  2 11  1  0
 11 12  1  0
 12 13  1  0
 13 14  2  0
 14 15  1  0
 15 16  2  0
 16 17  1  0
 17 18  1  0
 18 19  1  0
 19 20  2  0
 19 21  1  0
 21 22  1  0
 22 23  2  0
 23 24  1  0
 24 25  1  0
 25 26  1  0
 26 27  2  0
 27 28  1  0
 28 29  2  0
 29 30  1  0
 30 31  2  0
 31 32  1  0
 32 33  2  0
 24 34  2  0
 34 35  1  0
 16 36  1  0
 10  5  1  0
 36 12  2  0
 35 21  2  0
 33 25  1  0
 33 28  1  0
  3 37  1  0
  4 38  1  0
  4 39  1  0
  6 40  1  0
  7 41  1  0
  9 42  1  0
 10 43  1  0
 11 44  1  0
 13 45  1  0
 14 46  1  0
 15 47  1  0
 17 48  1  0
 17 49  1  0
 18 50  1  0
 22 51  1  0
 23 52  1  0
 26 53  1  0
 29 54  1  0
 30 55  1  0
 31 56  1  0
 32 57  1  0
 34 58  1  0
 35 59  1  0
 36 60  1  0
M  END
$$$$
OCNT-2312303
     RDKit          3D

 42 44  0  0  0  0  0  0  0  0999 V2000
   -5.5422    2.1230    0.9487 C   0  0  0  0  0  0  0  0  0  0  0  0
   -4.9473    0.8247    0.6694 N   0  0  0  0  0  0  0  0  0  0  0  0
   -5.7859   -0.2871    0.6095 C   0  0  0  0  0  0  0  0  0  0  0  0
   -6.9953   -0.2446    0.8404 O   0  0  0  0  0  0  0  0  0  0  0  0
   -5.1551   -1.5719    0.1269 C   0  0  0  0  0  0  0  0  0  0  0  0
   -3.7763   -1.7620    0.7170 C   0  0  0  0  0  0  0  0  0  0  0  0
   -2.9376   -0.5447    0.4557 C   0  0  0  0  0  0  0  0  0  0  0  0
   -1.5452   -0.6722    0.2924 C   0  0  0  0  0  0  0  0  0  0  0  0
   -0.7281    0.4441    0.0954 C   0  0  0  0  0  0  0  0  0  0  0  0
    0.6630    0.3802   -0.0103 N   0  0  0  0  0  0  0  0  0  0  0  0
    1.2997   -0.8593   -0.4342 C   0  0  0  0  0  0  0  0  0  0  0  0
    2.7795   -0.6158   -0.6223 C   0  0  0  0  0  0  0  0  0  0  0  0
    3.6130   -0.4288    0.4896 C   0  0  0  0  0  0  0  0  0  0  0  0
    4.9828   -0.1942    0.3284 C   0  0  0  0  0  0  0  0  0  0  0  0
    5.5356   -0.1307   -0.9507 C   0  0  0  0  0  0  0  0  0  0  0  0
    6.8512    0.0883   -1.2484 O   0  0  0  0  0  0  0  0  0  0  0  0
    7.6559    0.6073   -0.2037 C   0  0  0  0  0  0  0  0  0  0  0  0
    7.9116   -0.3758    0.6944 F   0  0  0  0  0  0  0  0  0  0  0  0
    8.8502    0.9544   -0.7478 F   0  0  0  0  0  0  0  0  0  0  0  0
    4.7095   -0.3218   -2.0613 C   0  0  0  0  0  0  0  0  0  0  0  0
    3.3413   -0.5556   -1.9027 C   0  0  0  0  0  0  0  0  0  0  0  0
   -1.3358    1.7029    0.1550 C   0  0  0  0  0  0  0  0  0  0  0  0
   -2.7183    1.8442    0.3332 C   0  0  0  0  0  0  0  0  0  0  0  0
   -3.5377    0.7212    0.4735 C   0  0  0  0  0  0  0  0  0  0  0  0
   -6.6039    2.0409    1.1976 H   0  0  0  0  0  0  0  0  0  0  0  0
   -5.4533    2.7580    0.0617 H   0  0  0  0  0  0  0  0  0  0  0  0
   -5.0338    2.5852    1.8010 H   0  0  0  0  0  0  0  0  0  0  0  0
   -5.1180   -1.5363   -0.9686 H   0  0  0  0  0  0  0  0  0  0  0  0
   -5.7962   -2.4121    0.4157 H   0  0  0  0  0  0  0  0  0  0  0  0
   -3.8379   -1.9178    1.8010 H   0  0  0  0  0  0  0  0  0  0  0  0
   -3.3159   -2.6530    0.2749 H   0  0  0  0  0  0  0  0  0  0  0  0
   -1.1127   -1.6678    0.3338 H   0  0  0  0  0  0  0  0  0  0  0  0
    1.0472    1.1910   -0.4898 H   0  0  0  0  0  0  0  0  0  0  0  0
    1.1715   -1.6469    0.3183 H   0  0  0  0  0  0  0  0  0  0  0  0
    0.8598   -1.2183   -1.3730 H   0  0  0  0  0  0  0  0  0  0  0  0
    3.1914   -0.4673    1.4932 H   0  0  0  0  0  0  0  0  0  0  0  0
    5.5849   -0.0858    1.2256 H   0  0  0  0  0  0  0  0  0  0  0  0
    7.2239    1.4860    0.2880 H   0  0  0  0  0  0  0  0  0  0  0  0
    5.1342   -0.2848   -3.0623 H   0  0  0  0  0  0  0  0  0  0  0  0
    2.7218   -0.6924   -2.7864 H   0  0  0  0  0  0  0  0  0  0  0  0
   -0.7301    2.6021    0.0664 H   0  0  0  0  0  0  0  0  0  0  0  0
   -3.1215    2.8516    0.3551 H   0  0  0  0  0  0  0  0  0  0  0  0
  1  2  1  0
  2  3  1  0
  3  4  2  0
  3  5  1  0
  5  6  1  0
  6  7  1  0
  7  8  1  0
  8  9  2  0
  9 10  1  0
 10 11  1  0
 11 12  1  0
 12 13  1  0
 13 14  2  0
 14 15  1  0
 15 16  1  0
 16 17  1  0
 17 18  1  0
 17 19  1  0
 15 20  2  0
 20 21  1  0
  9 22  1  0
 22 23  2  0
 23 24  1  0
 24  2  1  0
 24  7  2  0
 21 12  2  0
  1 25  1  0
  1 26  1  0
  1 27  1  0
  5 28  1  0
  5 29  1  0
  6 30  1  0
  6 31  1  0
  8 32  1  0
 10 33  1  0
 11 34  1  0
 11 35  1  0
 13 36  1  0
 14 37  1  0
 17 38  1  0
 20 39  1  0
 21 40  1  0
 22 41  1  0
 23 42  1  0
M  END
$$$$
OCNT-2312312
     RDKit          3D

 47 50  0  0  0  0  0  0  0  0999 V2000
    4.1468    0.7882    2.7651 N   0  0  0  0  0  0  0  0  0  0  0  0
    3.4336    1.4547    1.7993 C   0  0  0  0  0  0  0  0  0  0  0  0
    3.3922    2.6813    1.8219 O   0  0  0  0  0  0  0  0  0  0  0  0
    2.7707    0.5610    0.7257 C   0  0  0  0  0  0  0  0  0  0  0  0
    3.8613   -0.1143   -0.1302 C   0  0  0  0  0  0  0  0  0  0  0  0
    4.8868    0.6829   -0.6814 C   0  0  0  0  0  0  0  0  0  0  0  0
    5.8988    0.1260   -1.4666 C   0  0  0  0  0  0  0  0  0  0  0  0
    5.9034   -1.2407   -1.7269 C   0  0  0  0  0  0  0  0  0  0  0  0
    4.8938   -2.0453   -1.2069 C   0  0  0  0  0  0  0  0  0  0  0  0
    3.8761   -1.4873   -0.4230 C   0  0  0  0  0  0  0  0  0  0  0  0
    1.7676   -0.3761    1.4458 C   0  0  0  0  0  0  0  0  0  0  0  0
    0.5324   -0.3745    0.5614 C   0  0  0  0  0  0  0  0  0  0  0  0
    0.4656    1.0317    0.1643 N   0  0  0  0  0  0  0  0  0  0  0  0
   -0.4834    1.2813   -0.9265 C   0  0  0  0  0  0  0  0  0  0  0  0
   -1.8846    1.1525   -0.4317 C   0  0  0  0  0  0  0  0  0  0  0  0
   -2.5317    1.8891    0.5344 C   0  0  0  0  0  0  0  0  0  0  0  0
   -3.8022    1.4177    0.6510 O   0  0  0  0  0  0  0  0  0  0  0  0
   -3.8724    0.4016   -0.2674 C   0  0  0  0  0  0  0  0  0  0  0  0
   -5.1516   -0.2961   -0.3805 C   0  0  0  0  0  0  0  0  0  0  0  0
   -5.2881   -1.3510   -1.2986 C   0  0  0  0  0  0  0  0  0  0  0  0
   -6.5011   -2.0345   -1.4309 C   0  0  0  0  0  0  0  0  0  0  0  0
   -7.5902   -1.6679   -0.6450 C   0  0  0  0  0  0  0  0  0  0  0  0
   -9.0832   -2.5071   -0.8052 Cl  0  0  0  0  0  0  0  0  0  0  0  0
   -7.4775   -0.6222    0.2697 C   0  0  0  0  0  0  0  0  0  0  0  0
   -6.2629    0.0595    0.4015 C   0  0  0  0  0  0  0  0  0  0  0  0
   -2.7514    0.2026   -0.9368 N   0  0  0  0  0  0  0  0  0  0  0  0
    1.8467    1.3859   -0.2157 C   0  0  0  0  0  0  0  0  0  0  0  0
    4.6964    1.3849    3.3690 H   0  0  0  0  0  0  0  0  0  0  0  0
    4.5464   -0.1163    2.5423 H   0  0  0  0  0  0  0  0  0  0  0  0
    4.9103    1.7582   -0.5017 H   0  0  0  0  0  0  0  0  0  0  0  0
    6.6797    0.7615   -1.8774 H   0  0  0  0  0  0  0  0  0  0  0  0
    6.6924   -1.6775   -2.3359 H   0  0  0  0  0  0  0  0  0  0  0  0
    4.8936   -3.1147   -1.4176 H   0  0  0  0  0  0  0  0  0  0  0  0
    3.1007   -2.1599   -0.0652 H   0  0  0  0  0  0  0  0  0  0  0  0
    2.1369   -1.3852    1.6443 H   0  0  0  0  0  0  0  0  0  0  0  0
    1.4863    0.0360    2.4268 H   0  0  0  0  0  0  0  0  0  0  0  0
   -0.3535   -0.6973    1.1197 H   0  0  0  0  0  0  0  0  0  0  0  0
    0.6716   -1.0431   -0.2981 H   0  0  0  0  0  0  0  0  0  0  0  0
   -0.3554    2.3055   -1.3014 H   0  0  0  0  0  0  0  0  0  0  0  0
   -0.3121    0.6035   -1.7731 H   0  0  0  0  0  0  0  0  0  0  0  0
   -2.2510    2.7075    1.1815 H   0  0  0  0  0  0  0  0  0  0  0  0
   -4.4412   -1.6440   -1.9190 H   0  0  0  0  0  0  0  0  0  0  0  0
   -6.5863   -2.8452   -2.1497 H   0  0  0  0  0  0  0  0  0  0  0  0
   -8.3267   -0.3319    0.8828 H   0  0  0  0  0  0  0  0  0  0  0  0
   -6.1941    0.8750    1.1205 H   0  0  0  0  0  0  0  0  0  0  0  0
    1.9889    2.4688   -0.1342 H   0  0  0  0  0  0  0  0  0  0  0  0
    2.0217    1.1151   -1.2671 H   0  0  0  0  0  0  0  0  0  0  0  0
  1  2  1  0
  2  3  2  0
  2  4  1  0
  4  5  1  0
  5  6  2  0
  6  7  1  0
  7  8  2  0
  8  9  1  0
  9 10  2  0
  4 11  1  0
 11 12  1  0
 12 13  1  0
 13 14  1  0
 14 15  1  0
 15 16  2  0
 16 17  1  0
 17 18  1  0
 18 19  1  0
 19 20  1  0
 20 21  2  0
 21 22  1  0
 22 23  1  0
 22 24  2  0
 24 25  1  0
 18 26  2  0
 13 27  1  0
 27  4  1  0
 10  5  1  0
 26 15  1  0
 25 19  2  0
  1 28  1  0
  1 29  1  0
  6 30  1  0
  7 31  1  0
  8 32  1  0
  9 33  1  0
 10 34  1  0
 11 35  1  0
 11 36  1  0
 12 37  1  0
 12 38  1  0
 14 39  1  0
 14 40  1  0
 16 41  1  0
 20 42  1  0
 21 43  1  0
 24 44  1  0
 25 45  1  0
 27 46  1  0
 27 47  1  0
M  END
$$$$
OCNT-2312315
     RDKit          3D

 35 38  0  0  0  0  0  0  0  0999 V2000
   -1.4815   -2.7325    1.8061 O   0  0  0  0  0  0  0  0  0  0  0  0
   -0.6580   -1.5989    1.4354 S   0  0  0  0  0  0  0  0  0  0  0  0
   -0.0441   -0.7361    2.4211 O   0  0  0  0  0  0  0  0  0  0  0  0
    0.5935   -2.2792    0.5308 N   0  0  0  0  0  0  0  0  0  0  0  0
    1.7889   -1.5943    0.1573 C   0  0  0  0  0  0  0  0  0  0  0  0
    2.8337   -2.3910   -0.3355 C   0  0  0  0  0  0  0  0  0  0  0  0
    4.0302   -1.8364   -0.8092 C   0  0  0  0  0  0  0  0  0  0  0  0
    4.1185   -0.4496   -0.7831 C   0  0  0  0  0  0  0  0  0  0  0  0
    5.1870    0.2847   -1.1977 O   0  0  0  0  0  0  0  0  0  0  0  0
    4.8665    1.5911   -1.0056 C   0  0  0  0  0  0  0  0  0  0  0  0
    3.6016    1.7072   -0.4763 C   0  0  0  0  0  0  0  0  0  0  0  0
    3.1062    0.3845   -0.3274 C   0  0  0  0  0  0  0  0  0  0  0  0
    1.9106   -0.1962    0.1406 C   0  0  0  0  0  0  0  0  0  0  0  0
   -1.5885   -0.6497    0.2641 C   0  0  0  0  0  0  0  0  0  0  0  0
   -1.4298   -0.8900   -1.1122 C   0  0  0  0  0  0  0  0  0  0  0  0
   -2.1406   -0.1326   -2.0337 C   0  0  0  0  0  0  0  0  0  0  0  0
   -3.0109    0.8516   -1.5803 C   0  0  0  0  0  0  0  0  0  0  0  0
   -3.1832    1.0759   -0.2036 C   0  0  0  0  0  0  0  0  0  0  0  0
   -4.0756    2.0594    0.2453 C   0  0  0  0  0  0  0  0  0  0  0  0
   -4.2534    2.2706    1.6050 C   0  0  0  0  0  0  0  0  0  0  0  0
   -3.5302    1.4842    2.4743 C   0  0  0  0  0  0  0  0  0  0  0  0
   -2.6633    0.5299    2.0736 N   0  0  0  0  0  0  0  0  0  0  0  0
   -2.4701    0.3165    0.7538 C   0  0  0  0  0  0  0  0  0  0  0  0
    0.6168   -3.2926    0.6341 H   0  0  0  0  0  0  0  0  0  0  0  0
    2.7324   -3.4742   -0.3551 H   0  0  0  0  0  0  0  0  0  0  0  0
    4.8436   -2.4477   -1.1803 H   0  0  0  0  0  0  0  0  0  0  0  0
    5.6286    2.3041   -1.2882 H   0  0  0  0  0  0  0  0  0  0  0  0
    3.0987    2.6299   -0.2240 H   0  0  0  0  0  0  0  0  0  0  0  0
    1.1232    0.4599    0.4921 H   0  0  0  0  0  0  0  0  0  0  0  0
   -0.7615   -1.6649   -1.4774 H   0  0  0  0  0  0  0  0  0  0  0  0
   -2.0202   -0.3092   -3.0998 H   0  0  0  0  0  0  0  0  0  0  0  0
   -3.5653    1.4401   -2.3090 H   0  0  0  0  0  0  0  0  0  0  0  0
   -4.6396    2.6635   -0.4614 H   0  0  0  0  0  0  0  0  0  0  0  0
   -4.9388    3.0244    1.9745 H   0  0  0  0  0  0  0  0  0  0  0  0
   -3.6255    1.5974    3.5506 H   0  0  0  0  0  0  0  0  0  0  0  0
  1  2  2  0
  2  3  2  0
  2  4  1  0
  4  5  1  0
  5  6  2  0
  6  7  1  0
  7  8  2  0
  8  9  1  0
  9 10  1  0
 10 11  2  0
 11 12  1  0
 12 13  2  0
  2 14  1  0
 14 15  1  0
 15 16  2  0
 16 17  1  0
 17 18  2  0
 18 19  1  0
 19 20  2  0
 20 21  1  0
 21 22  2  0
 22 23  1  0
 13  5  1  0
 23 14  2  0
 12  8  1  0
 23 18  1  0
  4 24  1  0
  6 25  1  0
  7 26  1  0
 10 27  1  0
 11 28  1  0
 13 29  1  0
 15 30  1  0
 16 31  1  0
 17 32  1  0
 19 33  1  0
 20 34  1  0
 21 35  1  0
M  END
$$$$
OCNT-2312337
     RDKit          3D

 38 40  0  0  0  0  0  0  0  0999 V2000
   -1.8289   -1.1957   -1.6406 O   0  0  0  0  0  0  0  0  0  0  0  0
   -1.9721   -1.1603   -0.4187 C   0  0  0  0  0  0  0  0  0  0  0  0
   -1.0108   -0.6176    0.4295 N   0  0  0  0  0  0  0  0  0  0  0  0
    0.2901   -0.2172   -0.0791 C   0  0  0  0  0  0  0  0  0  0  0  0
    1.0145    0.7198    0.8871 C   0  0  0  0  0  0  0  0  0  0  0  0
    2.3691    1.1133    0.3928 C   0  0  0  0  0  0  0  0  0  0  0  0
    2.6793    2.2583   -0.3152 C   0  0  0  0  0  0  0  0  0  0  0  0
    4.0205    2.2484   -0.5851 N   0  0  0  0  0  0  0  0  0  0  0  0
    4.6025    1.1155   -0.0652 C   0  0  0  0  0  0  0  0  0  0  0  0
    5.9326    0.6808   -0.0936 C   0  0  0  0  0  0  0  0  0  0  0  0
    7.1562    1.6078   -0.8657 Cl  0  0  0  0  0  0  0  0  0  0  0  0
    6.2470   -0.5316    0.5237 C   0  0  0  0  0  0  0  0  0  0  0  0
    5.2572   -1.2853    1.1506 C   0  0  0  0  0  0  0  0  0  0  0  0
    3.9291   -0.8407    1.1736 C   0  0  0  0  0  0  0  0  0  0  0  0
    3.5902    0.3821    0.5559 C   0  0  0  0  0  0  0  0  0  0  0  0
   -3.2346   -1.7043    0.3145 C   0  0  0  0  0  0  0  0  0  0  0  0
   -2.9969   -1.7243    1.6719 F   0  0  0  0  0  0  0  0  0  0  0  0
   -3.4313   -3.0223   -0.0054 F   0  0  0  0  0  0  0  0  0  0  0  0
   -4.4431   -0.8668   -0.0205 C   0  0  0  0  0  0  0  0  0  0  0  0
   -5.0735   -1.0064   -1.2518 C   0  0  0  0  0  0  0  0  0  0  0  0
   -6.1575   -0.2908   -1.6302 N   0  0  0  0  0  0  0  0  0  0  0  0
   -6.6366    0.6088   -0.7454 C   0  0  0  0  0  0  0  0  0  0  0  0
   -6.0813    0.8270    0.5038 C   0  0  0  0  0  0  0  0  0  0  0  0
   -4.9672    0.0771    0.8698 C   0  0  0  0  0  0  0  0  0  0  0  0
   -1.0864   -0.8831    1.4078 H   0  0  0  0  0  0  0  0  0  0  0  0
    0.1585    0.2634   -1.0559 H   0  0  0  0  0  0  0  0  0  0  0  0
    0.8680   -1.1343   -0.2434 H   0  0  0  0  0  0  0  0  0  0  0  0
    1.1083    0.2402    1.8697 H   0  0  0  0  0  0  0  0  0  0  0  0
    0.4059    1.6189    1.0495 H   0  0  0  0  0  0  0  0  0  0  0  0
    2.0581    3.0781   -0.6524 H   0  0  0  0  0  0  0  0  0  0  0  0
    4.5253    2.9623   -1.0940 H   0  0  0  0  0  0  0  0  0  0  0  0
    7.2719   -0.8944    0.5167 H   0  0  0  0  0  0  0  0  0  0  0  0
    5.5165   -2.2281    1.6266 H   0  0  0  0  0  0  0  0  0  0  0  0
    3.1683   -1.4394    1.6661 H   0  0  0  0  0  0  0  0  0  0  0  0
   -4.7164   -1.7167   -1.9955 H   0  0  0  0  0  0  0  0  0  0  0  0
   -7.5069    1.1672   -1.0783 H   0  0  0  0  0  0  0  0  0  0  0  0
   -6.5085    1.5625    1.1765 H   0  0  0  0  0  0  0  0  0  0  0  0
   -4.5173    0.2276    1.8487 H   0  0  0  0  0  0  0  0  0  0  0  0
  1  2  2  0
  2  3  1  0
  3  4  1  0
  4  5  1  0
  5  6  1  0
  6  7  2  0
  7  8  1  0
  8  9  1  0
  9 10  2  0
 10 11  1  0
 10 12  1  0
 12 13  2  0
 13 14  1  0
 14 15  2  0
  2 16  1  0
 16 17  1  0
 16 18  1  0
 16 19  1  0
 19 20  2  0
 20 21  1  0
 21 22  2  0
 22 23  1  0
 23 24  2  0
 15  6  1  0
 24 19  1  0
 15  9  1  0
  3 25  1  0
  4 26  1  0
  4 27  1  0
  5 28  1  0
  5 29  1  0
  7 30  1  0
  8 31  1  0
 12 32  1  0
 13 33  1  0
 14 34  1  0
 20 35  1  0
 22 36  1  0
 23 37  1  0
 24 38  1  0
M  END
$$$$
OCNT-2312338
     RDKit          3D

 54 57  0  0  0  0  0  0  0  0999 V2000
    0.8867   -0.5452   -1.7617 O   0  0  0  0  0  0  0  0  0  0  0  0
    0.4461    0.3541   -1.0521 C   0  0  0  0  0  0  0  0  0  0  0  0
    1.2601    1.1640   -0.2994 N   0  0  0  0  0  0  0  0  0  0  0  0
    2.7078    1.0190   -0.3402 C   0  0  0  0  0  0  0  0  0  0  0  0
    3.2615    0.1648    0.8208 C   0  0  0  0  0  0  0  0  0  0  0  0
    2.8365   -1.3058    0.7709 C   0  0  0  0  0  0  0  0  0  0  0  0
    3.6045   -2.0279   -0.3237 C   0  0  0  0  0  0  0  0  0  0  0  0
    5.0151   -2.0284   -0.0844 O   0  0  0  0  0  0  0  0  0  0  0  0
    5.5406   -0.8502    0.3723 C   0  0  0  0  0  0  0  0  0  0  0  0
    6.9346   -0.7833    0.3972 C   0  0  0  0  0  0  0  0  0  0  0  0
    7.5766    0.3602    0.8707 C   0  0  0  0  0  0  0  0  0  0  0  0
    6.8237    1.4380    1.3298 C   0  0  0  0  0  0  0  0  0  0  0  0
    5.4297    1.3720    1.3147 C   0  0  0  0  0  0  0  0  0  0  0  0
    4.7738    0.2265    0.8344 C   0  0  0  0  0  0  0  0  0  0  0  0
   -0.9132    0.6450   -0.9388 N   0  0  0  0  0  0  0  0  0  0  0  0
   -1.8053   -0.1979   -1.7330 C   0  0  0  0  0  0  0  0  0  0  0  0
   -3.1672    0.4516   -1.9608 C   0  0  0  0  0  0  0  0  0  0  0  0
   -3.8335    0.8997   -0.6492 C   0  0  0  0  0  0  0  0  0  0  0  0
   -4.3177   -0.2825    0.2200 C   0  0  0  0  0  0  0  0  0  0  0  0
   -5.3035   -1.2142   -0.4804 C   0  0  0  0  0  0  0  0  0  0  0  0
   -6.0134   -1.8729    0.6841 C   0  0  0  0  0  0  0  0  0  0  0  0
   -6.2190   -0.7686    1.6153 N   0  0  0  0  0  0  0  0  0  0  0  0
   -5.0784    0.1406    1.4850 C   0  0  0  0  0  0  0  0  0  0  0  0
   -2.8481    1.8189    0.0943 C   0  0  0  0  0  0  0  0  0  0  0  0
   -1.4804    1.1723    0.3056 C   0  0  0  0  0  0  0  0  0  0  0  0
    0.9235    2.1136   -0.2443 H   0  0  0  0  0  0  0  0  0  0  0  0
    3.0181    0.6344   -1.3180 H   0  0  0  0  0  0  0  0  0  0  0  0
    3.1057    2.0389   -0.2705 H   0  0  0  0  0  0  0  0  0  0  0  0
    2.8855    0.5784    1.7669 H   0  0  0  0  0  0  0  0  0  0  0  0
    3.0778   -1.7744    1.7350 H   0  0  0  0  0  0  0  0  0  0  0  0
    1.7575   -1.4143    0.6320 H   0  0  0  0  0  0  0  0  0  0  0  0
    3.4158   -1.6088   -1.3176 H   0  0  0  0  0  0  0  0  0  0  0  0
    3.2872   -3.0758   -0.3561 H   0  0  0  0  0  0  0  0  0  0  0  0
    7.5205   -1.6285    0.0459 H   0  0  0  0  0  0  0  0  0  0  0  0
    8.6621    0.4059    0.8850 H   0  0  0  0  0  0  0  0  0  0  0  0
    7.3225    2.3283    1.7040 H   0  0  0  0  0  0  0  0  0  0  0  0
    4.8569    2.2188    1.6858 H   0  0  0  0  0  0  0  0  0  0  0  0
   -1.9069   -1.1599   -1.2170 H   0  0  0  0  0  0  0  0  0  0  0  0
   -1.3447   -0.4031   -2.7066 H   0  0  0  0  0  0  0  0  0  0  0  0
   -3.8153   -0.2294   -2.5224 H   0  0  0  0  0  0  0  0  0  0  0  0
   -3.0288    1.3357   -2.5978 H   0  0  0  0  0  0  0  0  0  0  0  0
   -4.7142    1.5005   -0.9145 H   0  0  0  0  0  0  0  0  0  0  0  0
   -3.4599   -0.8914    0.5351 H   0  0  0  0  0  0  0  0  0  0  0  0
   -4.8018   -1.9486   -1.1179 H   0  0  0  0  0  0  0  0  0  0  0  0
   -6.0147   -0.6483   -1.0949 H   0  0  0  0  0  0  0  0  0  0  0  0
   -6.9608   -2.3298    0.3853 H   0  0  0  0  0  0  0  0  0  0  0  0
   -5.3802   -2.6430    1.1401 H   0  0  0  0  0  0  0  0  0  0  0  0
   -6.3155   -1.1081    2.5706 H   0  0  0  0  0  0  0  0  0  0  0  0
   -5.4541    1.1669    1.4221 H   0  0  0  0  0  0  0  0  0  0  0  0
   -4.4244    0.0730    2.3616 H   0  0  0  0  0  0  0  0  0  0  0  0
   -3.2570    2.1392    1.0585 H   0  0  0  0  0  0  0  0  0  0  0  0
   -2.7118    2.7322   -0.5004 H   0  0  0  0  0  0  0  0  0  0  0  0
   -0.8142    1.9102    0.7606 H   0  0  0  0  0  0  0  0  0  0  0  0
   -1.5460    0.3373    1.0131 H   0  0  0  0  0  0  0  0  0  0  0  0
  1  2  2  0
  2  3  1  0
  3  4  1  0
  4  5  1  0
  5  6  1  0
  6  7  1  0
  7  8  1  0
  8  9  1  0
  9 10  2  0
 10 11  1  0
 11 12  2  0
 12 13  1  0
 13 14  2  0
  2 15  1  0
 15 16  1  0
 16 17  1  0
 17 18  1  0
 18 19  1  0
 19 20  1  0
 20 21  1  0
 21 22  1  0
 22 23  1  0
 18 24  1  0
 24 25  1  0
 14  5  1  0
 25 15  1  0
 14  9  1  0
 23 19  1  0
  3 26  1  0
  4 27  1  0
  4 28  1  0
  5 29  1  0
  6 30  1  0
  6 31  1  0
  7 32  1  0
  7 33  1  0
 10 34  1  0
 11 35  1  0
 12 36  1  0
 13 37  1  0
 16 38  1  0
 16 39  1  0
 17 40  1  0
 17 41  1  0
 18 42  1  0
 19 43  1  0
 20 44  1  0
 20 45  1  0
 21 46  1  0
 21 47  1  0
 22 48  1  0
 23 49  1  0
 23 50  1  0
 24 51  1  0
 24 52  1  0
 25 53  1  0
 25 54  1  0
M  END
$$$$
OCNT-2312351
     RDKit          3D

 41 42  0  0  0  0  0  0  0  0999 V2000
   -6.4323   -0.6727   -0.3885 C   0  0  0  0  0  0  0  0  0  0  0  0
   -5.0122   -0.9736   -0.5408 N   0  0  0  0  0  0  0  0  0  0  0  0
   -4.1389    0.1268   -0.0722 C   0  0  2  0  0  0  0  0  0  0  0  0
   -4.2995    1.3710   -0.9572 C   0  0  0  0  0  0  0  0  0  0  0  0
   -2.6800   -0.3717   -0.1121 C   0  0  0  0  0  0  0  0  0  0  0  0
   -1.7216    0.5174    0.6726 C   0  0  0  0  0  0  0  0  0  0  0  0
   -2.1325    1.4518    1.3612 O   0  0  0  0  0  0  0  0  0  0  0  0
   -0.3630    0.2090    0.5794 N   0  0  0  0  0  0  0  0  0  0  0  0
    0.1115   -1.0807    0.0835 C   0  0  0  0  0  0  0  0  0  0  0  0
    1.5914   -1.0962   -0.1653 C   0  0  0  0  0  0  0  0  0  0  0  0
    2.4314   -0.0811    0.1109 C   0  0  0  0  0  0  0  0  0  0  0  0
    3.8738   -0.1641   -0.1962 C   0  0  0  0  0  0  0  0  0  0  0  0
    4.6140   -1.3117    0.1236 C   0  0  0  0  0  0  0  0  0  0  0  0
    5.9827   -1.3824   -0.1544 C   0  0  0  0  0  0  0  0  0  0  0  0
    6.6340   -0.3032   -0.7543 C   0  0  0  0  0  0  0  0  0  0  0  0
    8.3251   -0.4574   -1.0694 Cl  0  0  0  0  0  0  0  0  0  0  0  0
    5.9108    0.8494   -1.0733 C   0  0  0  0  0  0  0  0  0  0  0  0
    6.6458    2.2266   -1.8157 Cl  0  0  0  0  0  0  0  0  0  0  0  0
    4.5402    0.9164   -0.7922 C   0  0  0  0  0  0  0  0  0  0  0  0
    1.9049    1.1897    0.7281 C   0  0  0  0  0  0  0  0  0  0  0  0
    0.5624    0.9635    1.4234 C   0  0  0  0  0  0  0  0  0  0  0  0
   -6.6785   -0.3935    0.6409 H   0  0  0  0  0  0  0  0  0  0  0  0
   -6.7565    0.1196   -1.0689 H   0  0  0  0  0  0  0  0  0  0  0  0
   -7.0159   -1.5643   -0.6401 H   0  0  0  0  0  0  0  0  0  0  0  0
   -4.8118   -1.8094    0.0092 H   0  0  0  0  0  0  0  0  0  0  0  0
   -4.4059    0.3798    0.9616 H   0  0  0  0  0  0  0  0  0  0  0  0
   -5.2952    1.8132   -0.8517 H   0  0  0  0  0  0  0  0  0  0  0  0
   -4.1456    1.1293   -2.0150 H   0  0  0  0  0  0  0  0  0  0  0  0
   -3.5792    2.1503   -0.6894 H   0  0  0  0  0  0  0  0  0  0  0  0
   -2.6201   -1.3711    0.3372 H   0  0  0  0  0  0  0  0  0  0  0  0
   -2.3453   -0.4348   -1.1540 H   0  0  0  0  0  0  0  0  0  0  0  0
   -0.4027   -1.3314   -0.8481 H   0  0  0  0  0  0  0  0  0  0  0  0
   -0.1451   -1.8417    0.8291 H   0  0  0  0  0  0  0  0  0  0  0  0
    1.9637   -2.0062   -0.6305 H   0  0  0  0  0  0  0  0  0  0  0  0
    4.1357   -2.1610    0.6078 H   0  0  0  0  0  0  0  0  0  0  0  0
    6.5347   -2.2829    0.1048 H   0  0  0  0  0  0  0  0  0  0  0  0
    3.9910    1.8173   -1.0576 H   0  0  0  0  0  0  0  0  0  0  0  0
    1.7807    1.9433   -0.0598 H   0  0  0  0  0  0  0  0  0  0  0  0
    2.6140    1.5897    1.4626 H   0  0  0  0  0  0  0  0  0  0  0  0
    0.1381    1.9344    1.7011 H   0  0  0  0  0  0  0  0  0  0  0  0
    0.6960    0.3927    2.3513 H   0  0  0  0  0  0  0  0  0  0  0  0
  1  2  1  0
  2  3  1  0
  3  4  1  0
  3  5  1  0
  5  6  1  0
  6  7  2  0
  6  8  1  0
  8  9  1  0
  9 10  1  0
 10 11  2  0
 11 12  1  0
 12 13  1  0
 13 14  2  0
 14 15  1  0
 15 16  1  0
 15 17  2  0
 17 18  1  0
 17 19  1  0
 11 20  1  0
 20 21  1  0
 21  8  1  0
 19 12  2  0
  1 22  1  0
  1 23  1  0
  1 24  1  0
  2 25  1  0
  3 26  1  1
  4 27  1  0
  4 28  1  0
  4 29  1  0
  5 30  1  0
  5 31  1  0
  9 32  1  0
  9 33  1  0
 10 34  1  0
 13 35  1  0
 14 36  1  0
 19 37  1  0
 20 38  1  0
 20 39  1  0
 21 40  1  0
 21 41  1  0
M  END
$$$$
OCNT-2312355
     RDKit          3D

 40 42  0  0  0  0  0  0  0  0999 V2000
    1.0701   -2.1765    1.5982 C   0  0  0  0  0  0  0  0  0  0  0  0
    1.3818   -1.0456    0.6883 C   0  0  0  0  0  0  0  0  0  0  0  0
    2.4685   -0.2957    0.8965 N   0  0  0  0  0  0  0  0  0  0  0  0
    2.4455    0.6457   -0.0802 N   0  0  0  0  0  0  0  0  0  0  0  0
    3.4671    1.6345   -0.1660 C   0  0  0  0  0  0  0  0  0  0  0  0
    4.5042    1.6371    0.7800 C   0  0  0  0  0  0  0  0  0  0  0  0
    5.5170    2.5965    0.7149 C   0  0  0  0  0  0  0  0  0  0  0  0
    5.5027    3.5589   -0.2920 C   0  0  0  0  0  0  0  0  0  0  0  0
    4.4764    3.5642   -1.2352 C   0  0  0  0  0  0  0  0  0  0  0  0
    3.4591    2.6062   -1.1767 C   0  0  0  0  0  0  0  0  0  0  0  0
    1.3506    0.4814   -0.9008 C   0  0  0  0  0  0  0  0  0  0  0  0
    0.6390   -0.6066   -0.4365 C   0  0  0  0  0  0  0  0  0  0  0  0
   -0.6172   -1.1832   -0.9904 C   0  0  0  0  0  0  0  0  0  0  0  0
   -1.7009   -0.8242   -0.0881 N   0  0  0  0  0  0  0  0  0  0  0  0
   -3.0023   -1.3482   -0.5298 C   0  0  0  0  0  0  0  0  0  0  0  0
   -3.6092   -0.4904   -1.6448 C   0  0  0  0  0  0  0  0  0  0  0  0
   -3.9363   -1.4073    0.6544 C   0  0  0  0  0  0  0  0  0  0  0  0
   -3.8726   -0.7746    1.8820 C   0  0  0  0  0  0  0  0  0  0  0  0
   -4.9749   -1.1955    2.5701 N   0  0  0  0  0  0  0  0  0  0  0  0
   -5.6700   -2.0417    1.7563 C   0  0  0  0  0  0  0  0  0  0  0  0
   -5.0751   -2.1892    0.5959 N   0  0  0  0  0  0  0  0  0  0  0  0
    1.9116   -2.4013    2.2619 H   0  0  0  0  0  0  0  0  0  0  0  0
    0.2022   -1.9352    2.2201 H   0  0  0  0  0  0  0  0  0  0  0  0
    0.8451   -3.0820    1.0259 H   0  0  0  0  0  0  0  0  0  0  0  0
    4.5359    0.8948    1.5757 H   0  0  0  0  0  0  0  0  0  0  0  0
    6.3158    2.5899    1.4521 H   0  0  0  0  0  0  0  0  0  0  0  0
    6.2922    4.3045   -0.3415 H   0  0  0  0  0  0  0  0  0  0  0  0
    4.4690    4.3153   -2.0213 H   0  0  0  0  0  0  0  0  0  0  0  0
    2.6826    2.6474   -1.9333 H   0  0  0  0  0  0  0  0  0  0  0  0
    1.1586    1.1351   -1.7371 H   0  0  0  0  0  0  0  0  0  0  0  0
   -0.7864   -0.7918   -1.9996 H   0  0  0  0  0  0  0  0  0  0  0  0
   -0.5149   -2.2720   -1.0649 H   0  0  0  0  0  0  0  0  0  0  0  0
   -1.7578    0.1883   -0.0032 H   0  0  0  0  0  0  0  0  0  0  0  0
   -2.8840   -2.3783   -0.8909 H   0  0  0  0  0  0  0  0  0  0  0  0
   -4.5928   -0.8744   -1.9394 H   0  0  0  0  0  0  0  0  0  0  0  0
   -2.9796   -0.4860   -2.5399 H   0  0  0  0  0  0  0  0  0  0  0  0
   -3.7495    0.5481   -1.3223 H   0  0  0  0  0  0  0  0  0  0  0  0
   -3.1473   -0.0978    2.3108 H   0  0  0  0  0  0  0  0  0  0  0  0
   -5.2317   -0.9336    3.5115 H   0  0  0  0  0  0  0  0  0  0  0  0
   -6.5924   -2.5170    2.0616 H   0  0  0  0  0  0  0  0  0  0  0  0
  1  2  1  0
  2  3  2  0
  3  4  1  0
  4  5  1  0
  5  6  2  0
  6  7  1  0
  7  8  2  0
  8  9  1  0
  9 10  2  0
  4 11  1  0
 11 12  2  0
 12 13  1  0
 13 14  1  0
 14 15  1  0
 15 16  1  0
 15 17  1  0
 17 18  2  0
 18 19  1  0
 19 20  1  0
 20 21  2  0
 12  2  1  0
 21 17  1  0
 10  5  1  0
  1 22  1  0
  1 23  1  0
  1 24  1  0
  6 25  1  0
  7 26  1  0
  8 27  1  0
  9 28  1  0
 10 29  1  0
 11 30  1  0
 13 31  1  0
 13 32  1  0
 14 33  1  0
 15 34  1  0
 16 35  1  0
 16 36  1  0
 16 37  1  0
 18 38  1  0
 19 39  1  0
 20 40  1  0
M  END
$$$$
OCNT-2312358
     RDKit          3D

 48 51  0  0  0  0  0  0  0  0999 V2000
   -1.0270    2.5383   -1.7912 O   0  0  0  0  0  0  0  0  0  0  0  0
   -0.7765    1.5357   -1.1172 C   0  0  0  0  0  0  0  0  0  0  0  0
   -1.8822    0.6685   -0.6460 C   0  0  0  0  0  0  0  0  0  0  0  0
   -1.7534   -0.3746    0.1962 N   0  0  0  0  0  0  0  0  0  0  0  0
   -3.0064   -0.8354    0.3457 N   0  0  0  0  0  0  0  0  0  0  0  0
   -3.9632   -0.1504   -0.3546 C   0  0  0  0  0  0  0  0  0  0  0  0
   -5.3905   -0.4981   -0.3224 C   0  0  0  0  0  0  0  0  0  0  0  0
   -6.3077    0.2601   -1.0681 C   0  0  0  0  0  0  0  0  0  0  0  0
   -7.6730   -0.0423   -1.0607 C   0  0  0  0  0  0  0  0  0  0  0  0
   -8.1481   -1.1107   -0.3062 C   0  0  0  0  0  0  0  0  0  0  0  0
   -7.2605   -1.8799    0.4430 C   0  0  0  0  0  0  0  0  0  0  0  0
   -5.8954   -1.5747    0.4336 C   0  0  0  0  0  0  0  0  0  0  0  0
   -5.0412   -2.3499    1.1820 O   0  0  0  0  0  0  0  0  0  0  0  0
   -3.2521    0.8381   -1.0053 C   0  0  0  0  0  0  0  0  0  0  0  0
    0.5357    1.2203   -0.7917 N   0  0  0  0  0  0  0  0  0  0  0  0
    1.6314    2.0688   -1.2183 C   0  0  0  0  0  0  0  0  0  0  0  0
    2.8271    1.5868   -0.4080 C   0  0  0  0  0  0  0  0  0  0  0  0
    2.5688    0.0815   -0.2866 C   0  0  0  0  0  0  0  0  0  0  0  0
    2.9425   -0.5395   -1.5283 O   0  0  0  0  0  0  0  0  0  0  0  0
    3.2935   -0.6056    0.8854 C   0  0  0  0  0  0  0  0  0  0  0  0
    4.7795   -0.3251    0.9740 C   0  0  0  0  0  0  0  0  0  0  0  0
    5.6695   -0.8616    0.0308 C   0  0  0  0  0  0  0  0  0  0  0  0
    7.0374   -0.5985    0.1181 C   0  0  0  0  0  0  0  0  0  0  0  0
    7.5175    0.1987    1.1488 C   0  0  0  0  0  0  0  0  0  0  0  0
    8.8305    0.4505    1.2326 F   0  0  0  0  0  0  0  0  0  0  0  0
    6.6555    0.7392    2.0944 C   0  0  0  0  0  0  0  0  0  0  0  0
    5.2870    0.4780    2.0084 C   0  0  0  0  0  0  0  0  0  0  0  0
    1.0322    0.0252   -0.1198 C   0  0  0  0  0  0  0  0  0  0  0  0
   -3.1738   -1.6361    0.9483 H   0  0  0  0  0  0  0  0  0  0  0  0
   -5.9726    1.1022   -1.6689 H   0  0  0  0  0  0  0  0  0  0  0  0
   -8.3629    0.5605   -1.6467 H   0  0  0  0  0  0  0  0  0  0  0  0
   -9.2101   -1.3431   -0.3027 H   0  0  0  0  0  0  0  0  0  0  0  0
   -7.6499   -2.7095    1.0254 H   0  0  0  0  0  0  0  0  0  0  0  0
   -5.5681   -3.0329    1.6329 H   0  0  0  0  0  0  0  0  0  0  0  0
   -3.6401    1.6037   -1.6631 H   0  0  0  0  0  0  0  0  0  0  0  0
    1.4032    3.1247   -1.0439 H   0  0  0  0  0  0  0  0  0  0  0  0
    1.7824    1.9130   -2.2925 H   0  0  0  0  0  0  0  0  0  0  0  0
    3.7663    1.8329   -0.9129 H   0  0  0  0  0  0  0  0  0  0  0  0
    2.8155    2.0635    0.5798 H   0  0  0  0  0  0  0  0  0  0  0  0
    2.5452   -1.4270   -1.5541 H   0  0  0  0  0  0  0  0  0  0  0  0
    2.8273   -0.3068    1.8334 H   0  0  0  0  0  0  0  0  0  0  0  0
    3.1631   -1.6937    0.8144 H   0  0  0  0  0  0  0  0  0  0  0  0
    5.3013   -1.4810   -0.7842 H   0  0  0  0  0  0  0  0  0  0  0  0
    7.7276   -1.0073   -0.6125 H   0  0  0  0  0  0  0  0  0  0  0  0
    7.0533    1.3600    2.8905 H   0  0  0  0  0  0  0  0  0  0  0  0
    4.6208    0.9077    2.7532 H   0  0  0  0  0  0  0  0  0  0  0  0
    0.6060   -0.8687   -0.5842 H   0  0  0  0  0  0  0  0  0  0  0  0
    0.7344    0.0948    0.9316 H   0  0  0  0  0  0  0  0  0  0  0  0
  1  2  2  0
  2  3  1  0
  3  4  2  0
  4  5  1  0
  5  6  1  0
  6  7  1  0
  7  8  2  0
  8  9  1  0
  9 10  2  0
 10 11  1  0
 11 12  2  0
 12 13  1  0
  6 14  2  0
  2 15  1  0
 15 16  1  0
 16 17  1  0
 17 18  1  0
 18 19  1  0
 18 20  1  0
 20 21  1  0
 21 22  1  0
 22 23  2  0
 23 24  1  0
 24 25  1  0
 24 26  2  0
 26 27  1  0
 18 28  1  0
 14  3  1  0
 28 15  1  0
 12  7  1  0
 27 21  2  0
  5 29  1  0
  8 30  1  0
  9 31  1  0
 10 32  1  0
 11 33  1  0
 13 34  1  0
 14 35  1  0
 16 36  1  0
 16 37  1  0
 17 38  1  0
 17 39  1  0
 19 40  1  0
 20 41  1  0
 20 42  1  0
 22 43  1  0
 23 44  1  0
 26 45  1  0
 27 46  1  0
 28 47  1  0
 28 48  1  0
M  END
$$$$
OCNT-2312364
     RDKit          3D

 35 37  0  0  0  0  0  0  0  0999 V2000
    1.3895   -2.0804    0.7236 O   0  0  0  0  0  0  0  0  0  0  0  0
    1.1930   -0.6816    0.4683 C   0  0  1  0  0  0  0  0  0  0  0  0
    0.3377   -0.0608    1.5959 C   0  0  0  0  0  0  0  0  0  0  0  0
   -0.9971   -0.6579    1.6734 N   0  0  0  0  0  0  0  0  0  0  0  0
   -1.8859   -0.3554    0.6427 C   0  0  0  0  0  0  0  0  0  0  0  0
   -1.7564    0.7957   -0.0701 N   0  0  0  0  0  0  0  0  0  0  0  0
   -2.6382    1.0941   -1.0720 C   0  0  0  0  0  0  0  0  0  0  0  0
   -2.4262    2.4229   -1.8111 C   0  0  0  0  0  0  0  0  0  0  0  0
   -3.0275    2.4706   -3.0392 F   0  0  0  0  0  0  0  0  0  0  0  0
   -1.1074    2.7004   -2.0519 F   0  0  0  0  0  0  0  0  0  0  0  0
   -2.9105    3.5015   -1.1264 F   0  0  0  0  0  0  0  0  0  0  0  0
   -3.6896    0.3196   -1.4542 N   0  0  0  0  0  0  0  0  0  0  0  0
   -3.7675   -0.8049   -0.7327 C   0  0  0  0  0  0  0  0  0  0  0  0
   -2.9411   -1.2166    0.2956 C   0  0  0  0  0  0  0  0  0  0  0  0
   -3.3423   -2.4473    0.7772 N   0  0  0  0  0  0  0  0  0  0  0  0
   -4.4004   -2.7626    0.0607 C   0  0  0  0  0  0  0  0  0  0  0  0
   -4.6952   -1.7979   -0.8639 N   0  0  0  0  0  0  0  0  0  0  0  0
    2.5366    0.0084    0.3367 C   0  0  0  0  0  0  0  0  0  0  0  0
    2.7343    0.9709   -0.6658 C   0  0  0  0  0  0  0  0  0  0  0  0
    3.9621    1.6265   -0.7879 C   0  0  0  0  0  0  0  0  0  0  0  0
    4.9980    1.3283    0.0943 C   0  0  0  0  0  0  0  0  0  0  0  0
    6.5096    2.1357   -0.0575 Cl  0  0  0  0  0  0  0  0  0  0  0  0
    4.8163    0.3826    1.1005 C   0  0  0  0  0  0  0  0  0  0  0  0
    3.5890   -0.2727    1.2236 C   0  0  0  0  0  0  0  0  0  0  0  0
    2.0804   -2.3805    0.1079 H   0  0  0  0  0  0  0  0  0  0  0  0
    0.6647   -0.6229   -0.4902 H   0  0  0  0  0  0  0  0  0  0  0  0
    0.8229   -0.2497    2.5616 H   0  0  0  0  0  0  0  0  0  0  0  0
    0.2715    1.0295    1.4918 H   0  0  0  0  0  0  0  0  0  0  0  0
   -0.9871   -1.6642    1.8473 H   0  0  0  0  0  0  0  0  0  0  0  0
   -4.9886   -3.6656    0.1635 H   0  0  0  0  0  0  0  0  0  0  0  0
   -5.4541   -1.8057   -1.5287 H   0  0  0  0  0  0  0  0  0  0  0  0
    1.9308    1.2227   -1.3565 H   0  0  0  0  0  0  0  0  0  0  0  0
    4.1011    2.3695   -1.5689 H   0  0  0  0  0  0  0  0  0  0  0  0
    5.6220    0.1531    1.7928 H   0  0  0  0  0  0  0  0  0  0  0  0
    3.4555   -1.0053    2.0185 H   0  0  0  0  0  0  0  0  0  0  0  0
  1  2  1  0
  2  3  1  0
  3  4  1  0
  4  5  1  0
  5  6  1  0
  6  7  2  0
  7  8  1  0
  8  9  1  0
  8 10  1  0
  8 11  1  0
  7 12  1  0
 12 13  2  0
 13 14  1  0
 14 15  1  0
 15 16  2  0
 16 17  1  0
  2 18  1  0
 18 19  1  0
 19 20  2  0
 20 21  1  0
 21 22  1  0
 21 23  2  0
 23 24  1  0
 14  5  2  0
 24 18  2  0
 17 13  1  0
  1 25  1  0
  2 26  1  6
  3 27  1  0
  3 28  1  0
  4 29  1  0
 16 30  1  0
 17 31  1  0
 19 32  1  0
 20 33  1  0
 23 34  1  0
 24 35  1  0
M  END
$$$$
OCNT-2312368
     RDKit          3D

 48 51  0  0  0  0  0  0  0  0999 V2000
   -7.0219   -0.0406   -1.3388 C   0  0  0  0  0  0  0  0  0  0  0  0
   -5.9085   -0.3544   -0.5167 O   0  0  0  0  0  0  0  0  0  0  0  0
   -4.6666    0.1074   -0.9030 C   0  0  0  0  0  0  0  0  0  0  0  0
   -4.4473    0.8300   -2.0839 C   0  0  0  0  0  0  0  0  0  0  0  0
   -3.1695    1.2662   -2.4073 C   0  0  0  0  0  0  0  0  0  0  0  0
   -2.1108    0.9758   -1.5548 C   0  0  0  0  0  0  0  0  0  0  0  0
   -2.3036    0.2404   -0.3644 C   0  0  0  0  0  0  0  0  0  0  0  0
   -1.2335   -0.0653    0.5176 C   0  0  0  0  0  0  0  0  0  0  0  0
    0.0901    0.3151    0.1929 N   0  0  0  0  0  0  0  0  0  0  0  0
    0.7979   -0.7395   -0.5532 C   0  0  0  0  0  0  0  0  0  0  0  0
    2.2473   -0.3256   -0.7597 C   0  0  0  0  0  0  0  0  0  0  0  0
    2.9808   -0.1891    0.5830 C   0  0  0  0  0  0  0  0  0  0  0  0
    3.9644    0.8564    0.4991 O   0  0  0  0  0  0  0  0  0  0  0  0
    5.1589    0.4944   -0.0860 C   0  0  0  0  0  0  0  0  0  0  0  0
    6.1433    1.4694   -0.1816 C   0  0  0  0  0  0  0  0  0  0  0  0
    7.3572    1.2350   -0.7393 N   0  0  0  0  0  0  0  0  0  0  0  0
    7.5394   -0.0227   -1.1992 C   0  0  0  0  0  0  0  0  0  0  0  0
    6.5572   -0.9963   -1.1054 C   0  0  0  0  0  0  0  0  0  0  0  0
    5.3459   -0.7620   -0.5481 N   0  0  0  0  0  0  0  0  0  0  0  0
    2.0274    0.1756    1.7322 C   0  0  0  0  0  0  0  0  0  0  0  0
    0.8540    1.0151    1.2393 C   0  0  0  0  0  0  0  0  0  0  0  0
   -1.5109   -0.7792    1.6852 C   0  0  0  0  0  0  0  0  0  0  0  0
   -2.8129   -1.1680    1.9475 C   0  0  0  0  0  0  0  0  0  0  0  0
   -3.1350   -1.9396    3.1913 C   0  0  0  0  0  0  0  0  0  0  0  0
   -3.8354   -0.8891    1.1143 N   0  0  0  0  0  0  0  0  0  0  0  0
   -3.6052   -0.1968   -0.0251 C   0  0  0  0  0  0  0  0  0  0  0  0
   -7.1687    1.0420   -1.4109 H   0  0  0  0  0  0  0  0  0  0  0  0
   -6.9213   -0.4949   -2.3299 H   0  0  0  0  0  0  0  0  0  0  0  0
   -7.9145   -0.4652   -0.8693 H   0  0  0  0  0  0  0  0  0  0  0  0
   -5.2534    1.0696   -2.7683 H   0  0  0  0  0  0  0  0  0  0  0  0
   -2.9959    1.8331   -3.3180 H   0  0  0  0  0  0  0  0  0  0  0  0
   -1.1162    1.3334   -1.8147 H   0  0  0  0  0  0  0  0  0  0  0  0
    0.3260   -0.8853   -1.5322 H   0  0  0  0  0  0  0  0  0  0  0  0
    0.7580   -1.6991   -0.0207 H   0  0  0  0  0  0  0  0  0  0  0  0
    2.7563   -1.0685   -1.3846 H   0  0  0  0  0  0  0  0  0  0  0  0
    2.2899    0.6204   -1.3156 H   0  0  0  0  0  0  0  0  0  0  0  0
    3.4530   -1.1386    0.8692 H   0  0  0  0  0  0  0  0  0  0  0  0
    5.9777    2.4734    0.1914 H   0  0  0  0  0  0  0  0  0  0  0  0
    8.5035   -0.2305   -1.6493 H   0  0  0  0  0  0  0  0  0  0  0  0
    6.7212   -2.0004   -1.4802 H   0  0  0  0  0  0  0  0  0  0  0  0
    2.5630    0.7204    2.5184 H   0  0  0  0  0  0  0  0  0  0  0  0
    1.6433   -0.7476    2.1832 H   0  0  0  0  0  0  0  0  0  0  0  0
    0.2213    1.3110    2.0853 H   0  0  0  0  0  0  0  0  0  0  0  0
    1.2329    1.9502    0.8081 H   0  0  0  0  0  0  0  0  0  0  0  0
   -0.7220   -1.0462    2.3777 H   0  0  0  0  0  0  0  0  0  0  0  0
   -2.5947   -2.8913    3.1963 H   0  0  0  0  0  0  0  0  0  0  0  0
   -2.8553   -1.3622    4.0779 H   0  0  0  0  0  0  0  0  0  0  0  0
   -4.2067   -2.1557    3.2502 H   0  0  0  0  0  0  0  0  0  0  0  0
  1  2  1  0
  2  3  1  0
  3  4  1  0
  4  5  2  0
  5  6  1  0
  6  7  2  0
  7  8  1  0
  8  9  1  0
  9 10  1  0
 10 11  1  0
 11 12  1  0
 12 13  1  0
 13 14  1  0
 14 15  2  0
 15 16  1  0
 16 17  2  0
 17 18  1  0
 18 19  2  0
 12 20  1  0
 20 21  1  0
  8 22  2  0
 22 23  1  0
 23 24  1  0
 23 25  2  0
 25 26  1  0
 26  3  2  0
 26  7  1  0
 21  9  1  0
 19 14  1  0
  1 27  1  0
  1 28  1  0
  1 29  1  0
  4 30  1  0
  5 31  1  0
  6 32  1  0
 10 33  1  0
 10 34  1  0
 11 35  1  0
 11 36  1  0
 12 37  1  0
 15 38  1  0
 17 39  1  0
 18 40  1  0
 20 41  1  0
 20 42  1  0
 21 43  1  0
 21 44  1  0
 22 45  1  0
 24 46  1  0
 24 47  1  0
 24 48  1  0
M  END
$$$$
OCNT-2312372
     RDKit          3D

 51 54  0  0  0  0  0  0  0  0999 V2000
   -6.4657    2.6675    1.0704 O   0  0  0  0  0  0  0  0  0  0  0  0
   -5.8556    1.6171    0.8657 C   0  0  0  0  0  0  0  0  0  0  0  0
   -4.3956    1.6303    0.4629 C   0  0  0  0  0  0  0  0  0  0  0  0
   -3.5537    0.5443    1.1143 C   0  0  0  0  0  0  0  0  0  0  0  0
   -3.5581   -0.7854    0.3413 C   0  0  0  0  0  0  0  0  0  0  0  0
   -2.6551   -0.8154   -0.9247 C   0  0  0  0  0  0  0  0  0  0  0  0
   -1.2132   -0.6044   -0.8024 N   0  0  0  0  0  0  0  0  0  0  0  0
   -0.7819    0.7738   -1.0309 C   0  0  0  0  0  0  0  0  0  0  0  0
    0.6874    1.0001   -0.8019 C   0  0  0  0  0  0  0  0  0  0  0  0
    1.5064    0.0891   -0.2429 C   0  0  0  0  0  0  0  0  0  0  0  0
    2.9488    0.3496   -0.0539 C   0  0  0  0  0  0  0  0  0  0  0  0
    3.4004    1.5854    0.4387 C   0  0  0  0  0  0  0  0  0  0  0  0
    4.7642    1.8293    0.6284 C   0  0  0  0  0  0  0  0  0  0  0  0
    5.6932    0.8385    0.3288 C   0  0  0  0  0  0  0  0  0  0  0  0
    7.0145    1.1527    0.5169 O   0  0  0  0  0  0  0  0  0  0  0  0
    7.8707    0.2093   -0.1373 C   0  0  0  0  0  0  0  0  0  0  0  0
    7.4132   -1.2127    0.1415 C   0  0  0  0  0  0  0  0  0  0  0  0
    6.1127   -1.4437   -0.4120 O   0  0  0  0  0  0  0  0  0  0  0  0
    5.2583   -0.4074   -0.1296 C   0  0  0  0  0  0  0  0  0  0  0  0
    3.8975   -0.6457   -0.3310 C   0  0  0  0  0  0  0  0  0  0  0  0
    0.9547   -1.2474    0.1928 C   0  0  0  0  0  0  0  0  0  0  0  0
   -0.5754   -1.2273    0.3539 C   0  0  0  0  0  0  0  0  0  0  0  0
   -4.9825   -1.2185   -0.0764 C   0  0  0  0  0  0  0  0  0  0  0  0
   -6.0459   -0.9156    0.9678 C   0  0  0  0  0  0  0  0  0  0  0  0
   -6.5448    0.4453    0.9222 N   0  0  0  0  0  0  0  0  0  0  0  0
   -4.3299    1.6105   -0.6294 H   0  0  0  0  0  0  0  0  0  0  0  0
   -3.9979    2.6002    0.7885 H   0  0  0  0  0  0  0  0  0  0  0  0
   -2.5295    0.9028    1.2419 H   0  0  0  0  0  0  0  0  0  0  0  0
   -3.9113    0.3689    2.1374 H   0  0  0  0  0  0  0  0  0  0  0  0
   -3.1865   -1.5513    1.0356 H   0  0  0  0  0  0  0  0  0  0  0  0
   -3.0618   -0.1341   -1.6838 H   0  0  0  0  0  0  0  0  0  0  0  0
   -2.7689   -1.8140   -1.3694 H   0  0  0  0  0  0  0  0  0  0  0  0
   -1.3266    1.4837   -0.4020 H   0  0  0  0  0  0  0  0  0  0  0  0
   -0.9988    1.0387   -2.0729 H   0  0  0  0  0  0  0  0  0  0  0  0
    1.0686    1.9613   -1.1358 H   0  0  0  0  0  0  0  0  0  0  0  0
    2.6916    2.3711    0.6903 H   0  0  0  0  0  0  0  0  0  0  0  0
    5.0980    2.7929    1.0025 H   0  0  0  0  0  0  0  0  0  0  0  0
    8.8851    0.3622    0.2442 H   0  0  0  0  0  0  0  0  0  0  0  0
    7.8733    0.4273   -1.2126 H   0  0  0  0  0  0  0  0  0  0  0  0
    7.3753   -1.4187    1.2184 H   0  0  0  0  0  0  0  0  0  0  0  0
    8.1012   -1.9288   -0.3188 H   0  0  0  0  0  0  0  0  0  0  0  0
    3.5899   -1.6155   -0.7125 H   0  0  0  0  0  0  0  0  0  0  0  0
    1.3958   -1.5478    1.1513 H   0  0  0  0  0  0  0  0  0  0  0  0
    1.2273   -2.0083   -0.5496 H   0  0  0  0  0  0  0  0  0  0  0  0
   -0.8354   -0.7014    1.2807 H   0  0  0  0  0  0  0  0  0  0  0  0
   -0.9131   -2.2652    0.4627 H   0  0  0  0  0  0  0  0  0  0  0  0
   -5.2650   -0.7561   -1.0310 H   0  0  0  0  0  0  0  0  0  0  0  0
   -4.9631   -2.3018   -0.2532 H   0  0  0  0  0  0  0  0  0  0  0  0
   -6.9172   -1.5547    0.7858 H   0  0  0  0  0  0  0  0  0  0  0  0
   -5.6960   -1.1244    1.9840 H   0  0  0  0  0  0  0  0  0  0  0  0
   -7.4996    0.5933    1.2299 H   0  0  0  0  0  0  0  0  0  0  0  0
  1  2  2  0
  2  3  1  0
  3  4  1  0
  4  5  1  0
  5  6  1  0
  6  7  1  0
  7  8  1  0
  8  9  1  0
  9 10  2  0
 10 11  1  0
 11 12  1  0
 12 13  2  0
 13 14  1  0
 14 15  1  0
 15 16  1  0
 16 17  1  0
 17 18  1  0
 18 19  1  0
 19 20  1  0
 10 21  1  0
 21 22  1  0
  5 23  1  0
 23 24  1  0
 24 25  1  0
 25  2  1  0
 22  7  1  0
 20 11  2  0
 19 14  2  0
  3 26  1  0
  3 27  1  0
  4 28  1  0
  4 29  1  0
  5 30  1  0
  6 31  1  0
  6 32  1  0
  8 33  1  0
  8 34  1  0
  9 35  1  0
 12 36  1  0
 13 37  1  0
 16 38  1  0
 16 39  1  0
 17 40  1  0
 17 41  1  0
 20 42  1  0
 21 43  1  0
 21 44  1  0
 22 45  1  0
 22 46  1  0
 23 47  1  0
 23 48  1  0
 24 49  1  0
 24 50  1  0
 25 51  1  0
M  END
$$$$
OCNT-2312385
     RDKit          3D

 41 43  0  0  0  0  0  0  0  0999 V2000
   -1.1670   -0.9439   -2.8181 O   0  0  0  0  0  0  0  0  0  0  0  0
   -0.4213   -1.5157   -2.0299 C   0  0  0  0  0  0  0  0  0  0  0  0
   -0.8642   -2.5177   -1.1801 N   0  0  0  0  0  0  0  0  0  0  0  0
   -2.2688   -2.8954   -1.1122 C   0  0  0  0  0  0  0  0  0  0  0  0
   -2.9907   -2.3322    0.1315 C   0  0  0  0  0  0  0  0  0  0  0  0
   -4.3225   -2.8474    0.1787 O   0  0  0  0  0  0  0  0  0  0  0  0
   -3.0202   -0.8185    0.2164 C   0  0  0  0  0  0  0  0  0  0  0  0
   -2.4194   -0.1591    1.3021 C   0  0  0  0  0  0  0  0  0  0  0  0
   -2.4328    1.2370    1.3860 C   0  0  0  0  0  0  0  0  0  0  0  0
   -3.0546    1.9879    0.3893 C   0  0  0  0  0  0  0  0  0  0  0  0
   -3.0693    3.7047    0.5113 Cl  0  0  0  0  0  0  0  0  0  0  0  0
   -3.6603    1.3427   -0.6848 C   0  0  0  0  0  0  0  0  0  0  0  0
   -4.2773    2.0458   -1.6459 F   0  0  0  0  0  0  0  0  0  0  0  0
   -3.6469   -0.0480   -0.7760 C   0  0  0  0  0  0  0  0  0  0  0  0
    1.0638   -1.1859   -1.8650 C   0  0  0  0  0  0  0  0  0  0  0  0
    1.3048   -0.4745   -0.5539 C   0  0  0  0  0  0  0  0  0  0  0  0
    2.4018    0.4363   -0.9860 C   0  0  0  0  0  0  0  0  0  0  0  0
    3.2380    1.1709   -0.0155 C   0  0  0  0  0  0  0  0  0  0  0  0
    4.4567    1.7307   -0.4066 C   0  0  0  0  0  0  0  0  0  0  0  0
    4.9254    1.5871   -1.6538 F   0  0  0  0  0  0  0  0  0  0  0  0
    5.2492    2.4387    0.4996 C   0  0  0  0  0  0  0  0  0  0  0  0
    4.8308    2.5981    1.8187 C   0  0  0  0  0  0  0  0  0  0  0  0
    3.6195    2.0431    2.2247 C   0  0  0  0  0  0  0  0  0  0  0  0
    2.8345    1.3367    1.3113 C   0  0  0  0  0  0  0  0  0  0  0  0
    1.6742    0.8298    1.7536 F   0  0  0  0  0  0  0  0  0  0  0  0
    2.5391    0.5287   -2.2693 N   0  0  0  0  0  0  0  0  0  0  0  0
    1.5415   -0.2854   -2.8588 O   0  0  0  0  0  0  0  0  0  0  0  0
   -0.2039   -3.0196   -0.6011 H   0  0  0  0  0  0  0  0  0  0  0  0
   -2.7883   -2.5983   -2.0304 H   0  0  0  0  0  0  0  0  0  0  0  0
   -2.3023   -3.9908   -1.0838 H   0  0  0  0  0  0  0  0  0  0  0  0
   -2.4826   -2.7251    1.0210 H   0  0  0  0  0  0  0  0  0  0  0  0
   -4.8942   -2.1688    0.5778 H   0  0  0  0  0  0  0  0  0  0  0  0
   -1.9297   -0.7261    2.0920 H   0  0  0  0  0  0  0  0  0  0  0  0
   -1.9583    1.7317    2.2299 H   0  0  0  0  0  0  0  0  0  0  0  0
   -4.1164   -0.5169   -1.6378 H   0  0  0  0  0  0  0  0  0  0  0  0
    1.6473   -2.1115   -1.9398 H   0  0  0  0  0  0  0  0  0  0  0  0
    1.6080   -1.1618    0.2394 H   0  0  0  0  0  0  0  0  0  0  0  0
    0.4429    0.1196   -0.2341 H   0  0  0  0  0  0  0  0  0  0  0  0
    6.1924    2.8607    0.1625 H   0  0  0  0  0  0  0  0  0  0  0  0
    5.4454    3.1524    2.5242 H   0  0  0  0  0  0  0  0  0  0  0  0
    3.2759    2.1601    3.2489 H   0  0  0  0  0  0  0  0  0  0  0  0
  1  2  2  0
  2  3  1  0
  3  4  1  0
  4  5  1  0
  5  6  1  0
  5  7  1  0
  7  8  1  0
  8  9  2  0
  9 10  1  0
 10 11  1  0
 10 12  2  0
 12 13  1  0
 12 14  1  0
  2 15  1  0
 15 16  1  0
 16 17  1  0
 17 18  1  0
 18 19  2  0
 19 20  1  0
 19 21  1  0
 21 22  2  0
 22 23  1  0
 23 24  2  0
 24 25  1  0
 17 26  2  0
 26 27  1  0
 14  7  2  0
 27 15  1  0
 24 18  1  0
  3 28  1  0
  4 29  1  0
  4 30  1  0
  5 31  1  0
  6 32  1  0
  8 33  1  0
  9 34  1  0
 14 35  1  0
 15 36  1  0
 16 37  1  0
 16 38  1  0
 21 39  1  0
 22 40  1  0
 23 41  1  0
M  END
$$$$
OCNT-2312389
     RDKit          3D

 42 44  0  0  0  0  0  0  0  0999 V2000
   -3.1244    2.3695   -0.5000 C   0  0  0  0  0  0  0  0  0  0  0  0
   -2.9218    0.8790   -0.8014 C   0  0  0  0  0  0  0  0  0  0  0  0
   -4.2676    0.1765   -1.0237 C   0  0  0  0  0  0  0  0  0  0  0  0
   -5.1155    0.0743    0.2431 C   0  0  0  0  0  0  0  0  0  0  0  0
   -4.2935   -0.1802    1.5049 C   0  0  0  0  0  0  0  0  0  0  0  0
   -2.9218   -0.7615    1.1898 C   0  0  0  0  0  0  0  0  0  0  0  0
   -2.0799    0.1947    0.3165 C   0  0  0  0  0  0  0  0  0  0  0  0
   -0.8826   -0.5569   -0.2995 C   0  0  0  0  0  0  0  0  0  0  0  0
    0.1617   -0.9904    0.7160 C   0  0  0  0  0  0  0  0  0  0  0  0
    0.2040   -0.5890    1.8728 O   0  0  0  0  0  0  0  0  0  0  0  0
    1.0825   -1.8702    0.1906 N   0  0  0  0  0  0  0  0  0  0  0  0
    2.2689   -2.2350    0.9402 C   0  0  0  0  0  0  0  0  0  0  0  0
    3.3931   -1.3285    0.5293 C   0  0  0  0  0  0  0  0  0  0  0  0
    3.7481   -1.1184   -0.7236 N   0  0  0  0  0  0  0  0  0  0  0  0
    4.8100   -0.2237   -0.7706 C   0  0  0  0  0  0  0  0  0  0  0  0
    5.4586    0.2481   -1.9203 C   0  0  0  0  0  0  0  0  0  0  0  0
    6.4897    1.1259   -1.8318 N   0  0  0  0  0  0  0  0  0  0  0  0
    6.8858    1.5437   -0.6119 C   0  0  0  0  0  0  0  0  0  0  0  0
    6.3152    1.1395    0.5830 C   0  0  0  0  0  0  0  0  0  0  0  0
    5.2562    0.2349    0.4700 C   0  0  0  0  0  0  0  0  0  0  0  0
    4.3090   -0.4884    1.7118 S   0  0  0  0  0  0  0  0  0  0  0  0
   -3.6392    2.5319    0.4516 H   0  0  0  0  0  0  0  0  0  0  0  0
   -3.7136    2.8480   -1.2895 H   0  0  0  0  0  0  0  0  0  0  0  0
   -2.1586    2.8842   -0.4501 H   0  0  0  0  0  0  0  0  0  0  0  0
   -2.3740    0.8352   -1.7520 H   0  0  0  0  0  0  0  0  0  0  0  0
   -4.0736   -0.8359   -1.4022 H   0  0  0  0  0  0  0  0  0  0  0  0
   -4.8424    0.6846   -1.8075 H   0  0  0  0  0  0  0  0  0  0  0  0
   -5.8457   -0.7332    0.1099 H   0  0  0  0  0  0  0  0  0  0  0  0
   -5.7022    0.9910    0.3785 H   0  0  0  0  0  0  0  0  0  0  0  0
   -4.8443   -0.8541    2.1712 H   0  0  0  0  0  0  0  0  0  0  0  0
   -4.1681    0.7598    2.0563 H   0  0  0  0  0  0  0  0  0  0  0  0
   -2.3969   -0.9661    2.1299 H   0  0  0  0  0  0  0  0  0  0  0  0
   -3.0474   -1.7300    0.6889 H   0  0  0  0  0  0  0  0  0  0  0  0
   -1.6786    0.9760    0.9766 H   0  0  0  0  0  0  0  0  0  0  0  0
   -1.2323   -1.4359   -0.8544 H   0  0  0  0  0  0  0  0  0  0  0  0
   -0.3624    0.1000   -1.0084 H   0  0  0  0  0  0  0  0  0  0  0  0
    1.1661   -1.9214   -0.8174 H   0  0  0  0  0  0  0  0  0  0  0  0
    2.0686   -2.1977    2.0156 H   0  0  0  0  0  0  0  0  0  0  0  0
    2.5186   -3.2657    0.6685 H   0  0  0  0  0  0  0  0  0  0  0  0
    5.1676   -0.0646   -2.9157 H   0  0  0  0  0  0  0  0  0  0  0  0
    7.7152    2.2471   -0.6168 H   0  0  0  0  0  0  0  0  0  0  0  0
    6.6674    1.5028    1.5399 H   0  0  0  0  0  0  0  0  0  0  0  0
  1  2  1  0
  2  3  1  0
  3  4  1  0
  4  5  1  0
  5  6  1  0
  6  7  1  0
  7  8  1  0
  8  9  1  0
  9 10  2  0
  9 11  1  0
 11 12  1  0
 12 13  1  0
 13 14  2  0
 14 15  1  0
 15 16  2  0
 16 17  1  0
 17 18  2  0
 18 19  1  0
 19 20  2  0
 20 21  1  0
  7  2  1  0
 21 13  1  0
 20 15  1  0
  1 22  1  0
  1 23  1  0
  1 24  1  0
  2 25  1  0
  3 26  1  0
  3 27  1  0
  4 28  1  0
  4 29  1  0
  5 30  1  0
  5 31  1  0
  6 32  1  0
  6 33  1  0
  7 34  1  0
  8 35  1  0
  8 36  1  0
 11 37  1  0
 12 38  1  0
 12 39  1  0
 16 40  1  0
 18 41  1  0
 19 42  1  0
M  END
$$$$
OCNT-2312400
     RDKit          3D

 51 54  0  0  0  0  0  0  0  0999 V2000
   -4.1694    0.1308    0.6058 C   0  0  0  0  0  0  0  0  0  0  0  0
   -3.3035   -1.1006    0.6391 C   0  0  0  0  0  0  0  0  0  0  0  0
   -3.8626   -2.3137    1.0718 C   0  0  0  0  0  0  0  0  0  0  0  0
   -3.1012   -3.4820    1.1065 C   0  0  0  0  0  0  0  0  0  0  0  0
   -1.7701   -3.4561    0.7052 C   0  0  0  0  0  0  0  0  0  0  0  0
   -1.2007   -2.2618    0.2670 C   0  0  0  0  0  0  0  0  0  0  0  0
   -1.9563   -1.0763    0.2229 C   0  0  0  0  0  0  0  0  0  0  0  0
   -1.2790    0.1946   -0.2403 C   0  0  0  0  0  0  0  0  0  0  0  0
   -0.5801    0.9111    0.9230 C   0  0  0  0  0  0  0  0  0  0  0  0
    0.1562    2.1190    0.5131 N   0  0  0  0  0  0  0  0  0  0  0  0
   -0.5630    3.3920    0.5980 C   0  0  0  0  0  0  0  0  0  0  0  0
   -1.4221    3.6019   -0.6022 C   0  0  0  0  0  0  0  0  0  0  0  0
   -2.7354    3.5081   -0.6813 N   0  0  0  0  0  0  0  0  0  0  0  0
   -3.0448    3.7874   -1.9881 C   0  0  0  0  0  0  0  0  0  0  0  0
   -1.9083    4.0472   -2.7155 C   0  0  0  0  0  0  0  0  0  0  0  0
   -0.8816    3.9297   -1.8231 N   0  0  0  0  0  0  0  0  0  0  0  0
    1.3268    2.0968   -0.2456 C   0  0  0  0  0  0  0  0  0  0  0  0
    1.7186    3.0593   -0.9050 O   0  0  0  0  0  0  0  0  0  0  0  0
    2.1330    0.8584   -0.2964 C   0  0  0  0  0  0  0  0  0  0  0  0
    2.4259    0.2941   -1.5400 C   0  0  0  0  0  0  0  0  0  0  0  0
    3.2023   -0.8636   -1.6087 C   0  0  0  0  0  0  0  0  0  0  0  0
    3.6862   -1.4560   -0.4367 C   0  0  0  0  0  0  0  0  0  0  0  0
    4.4679   -2.6119   -0.5643 N   0  0  0  0  0  0  0  0  0  0  0  0
    4.8905   -3.4231    0.4527 C   0  0  0  0  0  0  0  0  0  0  0  0
    5.6411   -4.3662    0.1944 O   0  0  0  0  0  0  0  0  0  0  0  0
    4.3109   -3.2304    1.8353 C   0  0  0  0  0  0  0  0  0  0  0  0
    4.1272   -1.4998    2.3150 S   0  0  0  0  0  0  0  0  0  0  0  0
    3.4236   -0.8666    0.8089 C   0  0  0  0  0  0  0  0  0  0  0  0
    2.6569    0.3017    0.8737 C   0  0  0  0  0  0  0  0  0  0  0  0
   -4.3500    0.4375   -0.4292 H   0  0  0  0  0  0  0  0  0  0  0  0
   -3.6970    0.9511    1.1545 H   0  0  0  0  0  0  0  0  0  0  0  0
   -5.1426   -0.0512    1.0744 H   0  0  0  0  0  0  0  0  0  0  0  0
   -4.9034   -2.3564    1.3865 H   0  0  0  0  0  0  0  0  0  0  0  0
   -3.5502   -4.4119    1.4454 H   0  0  0  0  0  0  0  0  0  0  0  0
   -1.1768   -4.3660    0.7310 H   0  0  0  0  0  0  0  0  0  0  0  0
   -0.1583   -2.2599   -0.0447 H   0  0  0  0  0  0  0  0  0  0  0  0
   -2.0038    0.8510   -0.7295 H   0  0  0  0  0  0  0  0  0  0  0  0
   -0.5583   -0.0553   -1.0280 H   0  0  0  0  0  0  0  0  0  0  0  0
   -1.3027    1.1910    1.6987 H   0  0  0  0  0  0  0  0  0  0  0  0
    0.1168    0.2236    1.4100 H   0  0  0  0  0  0  0  0  0  0  0  0
    0.1627    4.2104    0.6789 H   0  0  0  0  0  0  0  0  0  0  0  0
   -1.1631    3.4050    1.5141 H   0  0  0  0  0  0  0  0  0  0  0  0
   -4.0695    3.7829   -2.3364 H   0  0  0  0  0  0  0  0  0  0  0  0
   -1.7456    4.2951   -3.7542 H   0  0  0  0  0  0  0  0  0  0  0  0
    0.1138    4.0197   -2.0025 H   0  0  0  0  0  0  0  0  0  0  0  0
    2.0523    0.7547   -2.4521 H   0  0  0  0  0  0  0  0  0  0  0  0
    3.4189   -1.2952   -2.5831 H   0  0  0  0  0  0  0  0  0  0  0  0
    4.7876   -2.8959   -1.4824 H   0  0  0  0  0  0  0  0  0  0  0  0
    4.9703   -3.7148    2.5619 H   0  0  0  0  0  0  0  0  0  0  0  0
    3.3357   -3.7269    1.8713 H   0  0  0  0  0  0  0  0  0  0  0  0
    2.4745    0.7874    1.8302 H   0  0  0  0  0  0  0  0  0  0  0  0
  1  2  1  0
  2  3  2  0
  3  4  1  0
  4  5  2  0
  5  6  1  0
  6  7  2  0
  7  8  1  0
  8  9  1  0
  9 10  1  0
 10 11  1  0
 11 12  1  0
 12 13  2  0
 13 14  1  0
 14 15  2  0
 15 16  1  0
 10 17  1  0
 17 18  2  0
 17 19  1  0
 19 20  1  0
 20 21  2  0
 21 22  1  0
 22 23  1  0
 23 24  1  0
 24 25  2  0
 24 26  1  0
 26 27  1  0
 27 28  1  0
 28 29  1  0
  7  2  1  0
 16 12  1  0
 29 19  2  0
 28 22  2  0
  1 30  1  0
  1 31  1  0
  1 32  1  0
  3 33  1  0
  4 34  1  0
  5 35  1  0
  6 36  1  0
  8 37  1  0
  8 38  1  0
  9 39  1  0
  9 40  1  0
 11 41  1  0
 11 42  1  0
 14 43  1  0
 15 44  1  0
 16 45  1  0
 20 46  1  0
 21 47  1  0
 23 48  1  0
 26 49  1  0
 26 50  1  0
 29 51  1  0
M  END
$$$$
OCNT-2312401
     RDKit          3D

 50 52  0  0  0  0  0  0  0  0999 V2000
    5.9195    1.3866   -0.2065 C   0  0  0  0  0  0  0  0  0  0  0  0
    4.7056    0.4607   -0.1601 C   0  0  0  0  0  0  0  0  0  0  0  0
    3.4116    1.2656    0.0489 C   0  0  0  0  0  0  0  0  0  0  0  0
    2.3028    0.4759    0.7542 C   0  0  0  0  0  0  0  0  0  0  0  0
    2.3605   -1.0243    0.4508 C   0  0  0  0  0  0  0  0  0  0  0  0
    2.2704   -1.2582   -0.9608 O   0  0  0  0  0  0  0  0  0  0  0  0
    0.9932   -1.2807   -1.4759 C   0  0  0  0  0  0  0  0  0  0  0  0
    0.9332   -1.4967   -2.7932 N   0  0  0  0  0  0  0  0  0  0  0  0
   -0.3002   -1.5197   -3.3126 C   0  0  0  0  0  0  0  0  0  0  0  0
   -1.4425   -1.3215   -2.5698 C   0  0  0  0  0  0  0  0  0  0  0  0
   -1.2898   -1.0846   -1.2158 C   0  0  0  0  0  0  0  0  0  0  0  0
   -2.3807   -0.8843   -0.3839 N   0  0  0  0  0  0  0  0  0  0  0  0
   -2.1139   -0.8192    1.0587 C   0  0  0  0  0  0  0  0  0  0  0  0
   -3.4312   -0.6944    1.8447 C   0  0  0  0  0  0  0  0  0  0  0  0
   -4.2129    0.5108    1.5254 N   0  0  0  0  0  0  0  0  0  0  0  0
   -4.1602    0.8662    0.0862 C   0  0  0  0  0  0  0  0  0  0  0  0
   -3.2843    2.1289   -0.0391 C   0  0  0  0  0  0  0  0  0  0  0  0
   -5.5875    1.2347   -0.3661 C   0  0  0  0  0  0  0  0  0  0  0  0
   -3.6173   -0.2543   -0.8686 C   0  0  0  0  0  0  0  0  0  0  0  0
   -0.0609   -1.0853   -0.6683 N   0  0  0  0  0  0  0  0  0  0  0  0
    3.7035   -1.6127    0.9245 C   0  0  0  0  0  0  0  0  0  0  0  0
    4.8661   -0.6113    0.9188 C   0  0  0  0  0  0  0  0  0  0  0  0
    6.8323    0.8191   -0.4162 H   0  0  0  0  0  0  0  0  0  0  0  0
    6.0586    1.9094    0.7458 H   0  0  0  0  0  0  0  0  0  0  0  0
    5.8035    2.1387   -0.9940 H   0  0  0  0  0  0  0  0  0  0  0  0
    4.6455   -0.0437   -1.1338 H   0  0  0  0  0  0  0  0  0  0  0  0
    3.6053    2.1761    0.6298 H   0  0  0  0  0  0  0  0  0  0  0  0
    3.0518    1.6052   -0.9309 H   0  0  0  0  0  0  0  0  0  0  0  0
    1.3367    0.9022    0.4621 H   0  0  0  0  0  0  0  0  0  0  0  0
    2.3902    0.6220    1.8385 H   0  0  0  0  0  0  0  0  0  0  0  0
    1.5710   -1.5670    0.9866 H   0  0  0  0  0  0  0  0  0  0  0  0
   -0.3520   -1.7136   -4.3796 H   0  0  0  0  0  0  0  0  0  0  0  0
   -2.4112   -1.3802   -3.0446 H   0  0  0  0  0  0  0  0  0  0  0  0
   -1.4614    0.0296    1.2984 H   0  0  0  0  0  0  0  0  0  0  0  0
   -1.6071   -1.7355    1.3871 H   0  0  0  0  0  0  0  0  0  0  0  0
   -3.2142   -0.6904    2.9183 H   0  0  0  0  0  0  0  0  0  0  0  0
   -4.0517   -1.5780    1.6475 H   0  0  0  0  0  0  0  0  0  0  0  0
   -5.1731    0.3663    1.8335 H   0  0  0  0  0  0  0  0  0  0  0  0
   -3.6753    2.9480    0.5766 H   0  0  0  0  0  0  0  0  0  0  0  0
   -2.2503    1.9500    0.2719 H   0  0  0  0  0  0  0  0  0  0  0  0
   -3.2569    2.4857   -1.0753 H   0  0  0  0  0  0  0  0  0  0  0  0
   -5.5976    1.5594   -1.4130 H   0  0  0  0  0  0  0  0  0  0  0  0
   -6.2658    0.3779   -0.2782 H   0  0  0  0  0  0  0  0  0  0  0  0
   -6.0024    2.0519    0.2358 H   0  0  0  0  0  0  0  0  0  0  0  0
   -4.3701   -1.0476   -0.9642 H   0  0  0  0  0  0  0  0  0  0  0  0
   -3.4906    0.1829   -1.8666 H   0  0  0  0  0  0  0  0  0  0  0  0
    3.5948   -1.9910    1.9486 H   0  0  0  0  0  0  0  0  0  0  0  0
    3.9700   -2.4732    0.2980 H   0  0  0  0  0  0  0  0  0  0  0  0
    5.8084   -1.1567    0.7867 H   0  0  0  0  0  0  0  0  0  0  0  0
    4.9267   -0.1290    1.9036 H   0  0  0  0  0  0  0  0  0  0  0  0
  1  2  1  0
  2  3  1  0
  3  4  1  0
  4  5  1  0
  5  6  1  0
  6  7  1  0
  7  8  2  0
  8  9  1  0
  9 10  2  0
 10 11  1  0
 11 12  1  0
 12 13  1  0
 13 14  1  0
 14 15  1  0
 15 16  1  0
 16 17  1  0
 16 18  1  0
 16 19  1  0
 11 20  2  0
  5 21  1  0
 21 22  1  0
 22  2  1  0
 20  7  1  0
 19 12  1  0
  1 23  1  0
  1 24  1  0
  1 25  1  0
  2 26  1  0
  3 27  1  0
  3 28  1  0
  4 29  1  0
  4 30  1  0
  5 31  1  0
  9 32  1  0
 10 33  1  0
 13 34  1  0
 13 35  1  0
 14 36  1  0
 14 37  1  0
 15 38  1  0
 17 39  1  0
 17 40  1  0
 17 41  1  0
 18 42  1  0
 18 43  1  0
 18 44  1  0
 19 45  1  0
 19 46  1  0
 21 47  1  0
 21 48  1  0
 22 49  1  0
 22 50  1  0
M  END
$$$$
OCNT-2312407
     RDKit          3D

 41 44  0  0  0  0  0  0  0  0999 V2000
   -1.5682   -0.7390   -3.4897 O   0  0  0  0  0  0  0  0  0  0  0  0
   -1.4495   -0.7784   -2.2694 C   0  0  0  0  0  0  0  0  0  0  0  0
   -0.3037   -0.3909   -1.6191 N   0  0  0  0  0  0  0  0  0  0  0  0
    0.8637    0.0194   -2.3608 C   0  0  0  0  0  0  0  0  0  0  0  0
    1.8554    0.5527   -1.3866 C   0  0  0  0  0  0  0  0  0  0  0  0
    2.1171    0.0660   -0.1826 N   0  0  0  0  0  0  0  0  0  0  0  0
    3.0808    0.8851    0.3308 C   0  0  0  0  0  0  0  0  0  0  0  0
    3.4024    1.8832   -0.5564 C   0  0  0  0  0  0  0  0  0  0  0  0
    4.3790    2.9728   -0.3336 C   0  0  0  0  0  0  0  0  0  0  0  0
    5.2899    2.5996    0.8559 C   0  0  0  0  0  0  0  0  0  0  0  0
    4.5013    1.9975    2.0417 C   0  0  0  0  0  0  0  0  0  0  0  0
    3.7307    0.7172    1.6544 C   0  0  0  0  0  0  0  0  0  0  0  0
    2.6200    1.6680   -1.6509 N   0  0  0  0  0  0  0  0  0  0  0  0
   -2.5636   -1.2811   -1.4174 C   0  0  0  0  0  0  0  0  0  0  0  0
   -3.5263   -2.1081   -2.0050 C   0  0  0  0  0  0  0  0  0  0  0  0
   -4.6036   -2.5829   -1.2521 C   0  0  0  0  0  0  0  0  0  0  0  0
   -4.7428   -2.2293    0.0994 C   0  0  0  0  0  0  0  0  0  0  0  0
   -5.8183   -2.6809    0.8738 C   0  0  0  0  0  0  0  0  0  0  0  0
   -5.9016   -2.2812    2.1986 C   0  0  0  0  0  0  0  0  0  0  0  0
   -4.9999   -1.4782    2.8011 N   0  0  0  0  0  0  0  0  0  0  0  0
   -3.9657   -1.0524    2.0384 C   0  0  0  0  0  0  0  0  0  0  0  0
   -3.7797   -1.3886    0.6939 C   0  0  0  0  0  0  0  0  0  0  0  0
   -2.6940   -0.9168   -0.0689 C   0  0  0  0  0  0  0  0  0  0  0  0
   -0.1235   -0.6886   -0.6671 H   0  0  0  0  0  0  0  0  0  0  0  0
    1.2689   -0.8551   -2.8818 H   0  0  0  0  0  0  0  0  0  0  0  0
    0.5715    0.7690   -3.1048 H   0  0  0  0  0  0  0  0  0  0  0  0
    3.8379    3.8969   -0.1013 H   0  0  0  0  0  0  0  0  0  0  0  0
    4.9857    3.1593   -1.2270 H   0  0  0  0  0  0  0  0  0  0  0  0
    6.0384    1.8669    0.5250 H   0  0  0  0  0  0  0  0  0  0  0  0
    5.8379    3.4881    1.1876 H   0  0  0  0  0  0  0  0  0  0  0  0
    3.7909    2.7500    2.4085 H   0  0  0  0  0  0  0  0  0  0  0  0
    5.1854    1.7733    2.8692 H   0  0  0  0  0  0  0  0  0  0  0  0
    2.9879    0.4840    2.4229 H   0  0  0  0  0  0  0  0  0  0  0  0
    4.4291   -0.1255    1.6006 H   0  0  0  0  0  0  0  0  0  0  0  0
    2.5907    2.2228   -2.4973 H   0  0  0  0  0  0  0  0  0  0  0  0
   -3.4404   -2.3856   -3.0541 H   0  0  0  0  0  0  0  0  0  0  0  0
   -5.3372   -3.2249   -1.7346 H   0  0  0  0  0  0  0  0  0  0  0  0
   -6.5839   -3.3264    0.4579 H   0  0  0  0  0  0  0  0  0  0  0  0
   -6.7237   -2.6069    2.8304 H   0  0  0  0  0  0  0  0  0  0  0  0
   -3.2636   -0.4053    2.5596 H   0  0  0  0  0  0  0  0  0  0  0  0
   -1.9754   -0.2454    0.3929 H   0  0  0  0  0  0  0  0  0  0  0  0
  1  2  2  0
  2  3  1  0
  3  4  1  0
  4  5  1  0
  5  6  2  0
  6  7  1  0
  7  8  2  0
  8  9  1  0
  9 10  1  0
 10 11  1  0
 11 12  1  0
  8 13  1  0
  2 14  1  0
 14 15  1  0
 15 16  2  0
 16 17  1  0
 17 18  2  0
 18 19  1  0
 19 20  2  0
 20 21  1  0
 21 22  2  0
 22 23  1  0
 13  5  1  0
 23 14  2  0
 12  7  1  0
 22 17  1  0
  3 24  1  0
  4 25  1  0
  4 26  1  0
  9 27  1  0
  9 28  1  0
 10 29  1  0
 10 30  1  0
 11 31  1  0
 11 32  1  0
 12 33  1  0
 12 34  1  0
 13 35  1  0
 15 36  1  0
 16 37  1  0
 18 38  1  0
 19 39  1  0
 21 40  1  0
 23 41  1  0
M  END
$$$$
OCNT-2312410
     RDKit          3D

 52 55  0  0  0  0  0  0  0  0999 V2000
   -3.2597   -3.9821   -0.0551 C   0  0  0  0  0  0  0  0  0  0  0  0
   -2.6433   -2.7906   -0.6312 N   0  0  0  0  0  0  0  0  0  0  0  0
   -1.2642   -2.5927   -0.1452 C   0  0  0  0  0  0  0  0  0  0  0  0
   -1.1122   -1.5669    1.0024 C   0  0  0  0  0  0  0  0  0  0  0  0
   -1.7109   -0.2426    0.7562 N   0  0  0  0  0  0  0  0  0  0  0  0
   -0.7362    0.8603    0.7218 C   0  0  0  0  0  0  0  0  0  0  0  0
    0.1653    1.0451   -0.5218 C   0  0  0  0  0  0  0  0  0  0  0  0
    1.0191   -0.1185   -0.7742 N   0  0  0  0  0  0  0  0  0  0  0  0
    2.3872    0.0666   -0.5806 C   0  0  0  0  0  0  0  0  0  0  0  0
    2.9177    0.5101    0.6206 C   0  0  0  0  0  0  0  0  0  0  0  0
    4.2996    0.6505    0.7586 C   0  0  0  0  0  0  0  0  0  0  0  0
    5.1069    0.3323   -0.3214 C   0  0  0  0  0  0  0  0  0  0  0  0
    6.5162    0.4529   -0.2517 N   0  0  0  0  0  0  0  0  0  0  0  0
    7.2968    0.8749    0.8029 C   0  0  0  0  0  0  0  0  0  0  0  0
    8.5965    0.8105    0.3562 C   0  0  0  0  0  0  0  0  0  0  0  0
    8.6462    0.3649   -0.9339 N   0  0  0  0  0  0  0  0  0  0  0  0
    7.3921    0.1577   -1.2728 C   0  0  0  0  0  0  0  0  0  0  0  0
    4.5713   -0.1077   -1.4797 N   0  0  0  0  0  0  0  0  0  0  0  0
    3.2073   -0.2475   -1.6008 N   0  0  0  0  0  0  0  0  0  0  0  0
   -2.6782   -0.2598   -0.3668 C   0  0  0  0  0  0  0  0  0  0  0  0
   -3.6440    0.9185   -0.3131 C   0  0  0  0  0  0  0  0  0  0  0  0
   -4.3290    1.2490    0.8678 C   0  0  0  0  0  0  0  0  0  0  0  0
   -5.2199    2.3228    0.8980 C   0  0  0  0  0  0  0  0  0  0  0  0
   -5.4414    3.0774   -0.2519 C   0  0  0  0  0  0  0  0  0  0  0  0
   -4.7734    2.7590   -1.4325 C   0  0  0  0  0  0  0  0  0  0  0  0
   -3.8811    1.6856   -1.4647 C   0  0  0  0  0  0  0  0  0  0  0  0
   -3.4843   -1.5972   -0.3802 C   0  0  0  0  0  0  0  0  0  0  0  0
   -2.6937   -4.8786   -0.3314 H   0  0  0  0  0  0  0  0  0  0  0  0
   -3.3148   -3.9328    1.0383 H   0  0  0  0  0  0  0  0  0  0  0  0
   -4.2737   -4.1189   -0.4474 H   0  0  0  0  0  0  0  0  0  0  0  0
   -0.6727   -2.2485   -1.0017 H   0  0  0  0  0  0  0  0  0  0  0  0
   -0.8084   -3.5450    0.1543 H   0  0  0  0  0  0  0  0  0  0  0  0
   -0.0551   -1.4944    1.2838 H   0  0  0  0  0  0  0  0  0  0  0  0
   -1.6139   -1.9792    1.8878 H   0  0  0  0  0  0  0  0  0  0  0  0
   -1.2840    1.8008    0.8625 H   0  0  0  0  0  0  0  0  0  0  0  0
   -0.1022    0.7855    1.6145 H   0  0  0  0  0  0  0  0  0  0  0  0
   -0.4568    1.2183   -1.4072 H   0  0  0  0  0  0  0  0  0  0  0  0
    0.7547    1.9638   -0.4008 H   0  0  0  0  0  0  0  0  0  0  0  0
    0.9254   -0.4438   -1.7373 H   0  0  0  0  0  0  0  0  0  0  0  0
    2.2708    0.7307    1.4620 H   0  0  0  0  0  0  0  0  0  0  0  0
    4.6957    0.9956    1.7058 H   0  0  0  0  0  0  0  0  0  0  0  0
    6.8948    1.1790    1.7568 H   0  0  0  0  0  0  0  0  0  0  0  0
    9.4989    1.0626    0.8989 H   0  0  0  0  0  0  0  0  0  0  0  0
    7.0561   -0.2031   -2.2372 H   0  0  0  0  0  0  0  0  0  0  0  0
   -2.1318   -0.2158   -1.3182 H   0  0  0  0  0  0  0  0  0  0  0  0
   -4.1605    0.6702    1.7740 H   0  0  0  0  0  0  0  0  0  0  0  0
   -5.7404    2.5692    1.8197 H   0  0  0  0  0  0  0  0  0  0  0  0
   -6.1366    3.9124   -0.2283 H   0  0  0  0  0  0  0  0  0  0  0  0
   -4.9503    3.3450   -2.3308 H   0  0  0  0  0  0  0  0  0  0  0  0
   -3.3756    1.4485   -2.3983 H   0  0  0  0  0  0  0  0  0  0  0  0
   -4.2563   -1.5586   -1.1593 H   0  0  0  0  0  0  0  0  0  0  0  0
   -4.0142   -1.6954    0.5786 H   0  0  0  0  0  0  0  0  0  0  0  0
  1  2  1  0
  2  3  1  0
  3  4  1  0
  4  5  1  0
  5  6  1  0
  6  7  1  0
  7  8  1  0
  8  9  1  0
  9 10  2  0
 10 11  1  0
 11 12  2  0
 12 13  1  0
 13 14  1  0
 14 15  2  0
 15 16  1  0
 16 17  2  0
 12 18  1  0
 18 19  2  0
  5 20  1  0
 20 21  1  0
 21 22  2  0
 22 23  1  0
 23 24  2  0
 24 25  1  0
 25 26  2  0
 20 27  1  0
 27  2  1  0
 19  9  1  0
 26 21  1  0
 17 13  1  0
  1 28  1  0
  1 29  1  0
  1 30  1  0
  3 31  1  0
  3 32  1  0
  4 33  1  0
  4 34  1  0
  6 35  1  0
  6 36  1  0
  7 37  1  0
  7 38  1  0
  8 39  1  0
 10 40  1  0
 11 41  1  0
 14 42  1  0
 15 43  1  0
 17 44  1  0
 20 45  1  0
 22 46  1  0
 23 47  1  0
 24 48  1  0
 25 49  1  0
 26 50  1  0
 27 51  1  0
 27 52  1  0
M  END
$$$$
OCNT-2312411
     RDKit          3D

 43 45  0  0  0  0  0  0  0  0999 V2000
   -3.7121    1.4686    0.9120 O   0  0  0  0  0  0  0  0  0  0  0  0
   -3.0884    0.5795    0.3361 C   0  0  0  0  0  0  0  0  0  0  0  0
   -3.8274   -0.4915   -0.3492 C   0  0  0  0  0  0  0  0  0  0  0  0
   -5.2220   -0.5833   -0.2617 C   0  0  0  0  0  0  0  0  0  0  0  0
   -5.8883   -1.6059   -0.9354 C   0  0  0  0  0  0  0  0  0  0  0  0
   -5.1619   -2.5251   -1.6917 C   0  0  0  0  0  0  0  0  0  0  0  0
   -3.7703   -2.4201   -1.7738 C   0  0  0  0  0  0  0  0  0  0  0  0
   -3.0915   -1.4002   -1.1020 C   0  0  0  0  0  0  0  0  0  0  0  0
   -1.6993   -1.3292   -1.2108 N   0  0  0  0  0  0  0  0  0  0  0  0
   -1.0614   -0.4176   -0.5386 C   0  0  0  0  0  0  0  0  0  0  0  0
    0.3037   -0.4104   -0.6778 N   0  0  0  0  0  0  0  0  0  0  0  0
    1.1056   -1.0476    0.3778 C   0  0  0  0  0  0  0  0  0  0  0  0
    2.6026   -0.7340    0.2047 C   0  0  0  0  0  0  0  0  0  0  0  0
    2.9161    0.7433    0.4576 C   0  0  0  0  0  0  0  0  0  0  0  0
    4.3999    1.0299    0.2291 C   0  0  0  0  0  0  0  0  0  0  0  0
    5.2673   -0.1989    0.4879 C   0  0  0  0  0  0  0  0  0  0  0  0
    4.6115   -1.1117    1.5109 C   0  0  0  0  0  0  0  0  0  0  0  0
    3.3354   -1.5960    1.0905 O   0  0  0  0  0  0  0  0  0  0  0  0
   -1.6987    0.5261    0.2510 N   0  0  0  0  0  0  0  0  0  0  0  0
   -0.9666    1.6440    0.8443 C   0  0  0  0  0  0  0  0  0  0  0  0
   -0.8276    2.8176   -0.1257 C   0  0  0  0  0  0  0  0  0  0  0  0
   -0.0053    3.8286    0.4516 O   0  0  0  0  0  0  0  0  0  0  0  0
   -5.7839    0.1379    0.3273 H   0  0  0  0  0  0  0  0  0  0  0  0
   -6.9708   -1.6851   -0.8717 H   0  0  0  0  0  0  0  0  0  0  0  0
   -5.6764   -3.3244   -2.2195 H   0  0  0  0  0  0  0  0  0  0  0  0
   -3.2068   -3.1375   -2.3649 H   0  0  0  0  0  0  0  0  0  0  0  0
    0.4945   -0.9353   -1.5323 H   0  0  0  0  0  0  0  0  0  0  0  0
    0.9541   -2.1340    0.3347 H   0  0  0  0  0  0  0  0  0  0  0  0
    0.7739   -0.7401    1.3764 H   0  0  0  0  0  0  0  0  0  0  0  0
    2.8982   -0.9974   -0.8194 H   0  0  0  0  0  0  0  0  0  0  0  0
    2.6706    0.9918    1.4983 H   0  0  0  0  0  0  0  0  0  0  0  0
    2.3159    1.4006   -0.1808 H   0  0  0  0  0  0  0  0  0  0  0  0
    4.5639    1.3725   -0.7995 H   0  0  0  0  0  0  0  0  0  0  0  0
    4.7086    1.8548    0.8824 H   0  0  0  0  0  0  0  0  0  0  0  0
    5.3912   -0.7479   -0.4540 H   0  0  0  0  0  0  0  0  0  0  0  0
    6.2654    0.1065    0.8191 H   0  0  0  0  0  0  0  0  0  0  0  0
    4.4805   -0.5909    2.4664 H   0  0  0  0  0  0  0  0  0  0  0  0
    5.2458   -1.9829    1.7034 H   0  0  0  0  0  0  0  0  0  0  0  0
    0.0258    1.3275    1.1729 H   0  0  0  0  0  0  0  0  0  0  0  0
   -1.4781    1.9835    1.7535 H   0  0  0  0  0  0  0  0  0  0  0  0
   -0.3651    2.4982   -1.0652 H   0  0  0  0  0  0  0  0  0  0  0  0
   -1.8070    3.2507   -0.3540 H   0  0  0  0  0  0  0  0  0  0  0  0
   -0.0215    4.5852   -0.1600 H   0  0  0  0  0  0  0  0  0  0  0  0
  1  2  2  0
  2  3  1  0
  3  4  2  0
  4  5  1  0
  5  6  2  0
  6  7  1  0
  7  8  2  0
  8  9  1  0
  9 10  2  0
 10 11  1  0
 11 12  1  0
 12 13  1  0
 13 14  1  0
 14 15  1  0
 15 16  1  0
 16 17  1  0
 17 18  1  0
 10 19  1  0
 19 20  1  0
 20 21  1  0
 21 22  1  0
 19  2  1  0
  8  3  1  0
 18 13  1  0
  4 23  1  0
  5 24  1  0
  6 25  1  0
  7 26  1  0
 11 27  1  0
 12 28  1  0
 12 29  1  0
 13 30  1  0
 14 31  1  0
 14 32  1  0
 15 33  1  0
 15 34  1  0
 16 35  1  0
 16 36  1  0
 17 37  1  0
 17 38  1  0
 20 39  1  0
 20 40  1  0
 21 41  1  0
 21 42  1  0
 22 43  1  0
M  END
$$$$
OCNT-2312415
     RDKit          3D

 39 41  0  0  0  0  0  0  0  0999 V2000
    6.6600    1.4196   -0.2673 F   0  0  0  0  0  0  0  0  0  0  0  0
    5.7737    1.1777   -1.2735 C   0  0  0  0  0  0  0  0  0  0  0  0
    6.4282    0.3868   -2.1674 F   0  0  0  0  0  0  0  0  0  0  0  0
    5.5881    2.3746   -1.8981 F   0  0  0  0  0  0  0  0  0  0  0  0
    4.4851    0.5571   -0.7922 C   0  0  0  0  0  0  0  0  0  0  0  0
    4.4695   -0.2674    0.3422 C   0  0  0  0  0  0  0  0  0  0  0  0
    3.2806   -0.8597    0.7744 C   0  0  0  0  0  0  0  0  0  0  0  0
    2.0872   -0.6463    0.0740 C   0  0  0  0  0  0  0  0  0  0  0  0
    0.7982   -1.2659    0.5542 C   0  0  0  0  0  0  0  0  0  0  0  0
    0.1047   -0.3764    1.5822 C   0  0  0  0  0  0  0  0  0  0  0  0
   -1.1554   -0.9335    2.0084 N   0  0  0  0  0  0  0  0  0  0  0  0
   -1.2198   -1.6819    3.1235 N   0  0  0  0  0  0  0  0  0  0  0  0
   -2.4490   -2.1738    3.1362 N   0  0  0  0  0  0  0  0  0  0  0  0
   -3.1602   -1.7523    2.0398 N   0  0  0  0  0  0  0  0  0  0  0  0
   -2.3690   -0.9488    1.3592 C   0  0  0  0  0  0  0  0  0  0  0  0
   -2.6067   -0.3028    0.1793 N   0  0  0  0  0  0  0  0  0  0  0  0
   -3.7333   -0.8476   -0.6150 C   0  0  0  0  0  0  0  0  0  0  0  0
   -3.9597    0.0200   -1.8613 C   0  0  0  0  0  0  0  0  0  0  0  0
   -4.2984    1.3839   -1.5625 O   0  0  0  0  0  0  0  0  0  0  0  0
   -3.9017    1.7903   -0.2459 C   0  0  0  0  0  0  0  0  0  0  0  0
   -2.5614    1.1795    0.1925 C   0  0  0  0  0  0  0  0  0  0  0  0
    2.0993    0.1725   -1.0618 C   0  0  0  0  0  0  0  0  0  0  0  0
    3.2883    0.7644   -1.4938 C   0  0  0  0  0  0  0  0  0  0  0  0
    5.3886   -0.4527    0.8971 H   0  0  0  0  0  0  0  0  0  0  0  0
    3.2954   -1.4935    1.6595 H   0  0  0  0  0  0  0  0  0  0  0  0
    0.1419   -1.4503   -0.3062 H   0  0  0  0  0  0  0  0  0  0  0  0
    1.0040   -2.2560    0.9818 H   0  0  0  0  0  0  0  0  0  0  0  0
    0.7307   -0.2480    2.4740 H   0  0  0  0  0  0  0  0  0  0  0  0
   -0.0805    0.6260    1.1847 H   0  0  0  0  0  0  0  0  0  0  0  0
   -3.5034   -1.8742   -0.9232 H   0  0  0  0  0  0  0  0  0  0  0  0
   -4.6505   -0.8635   -0.0121 H   0  0  0  0  0  0  0  0  0  0  0  0
   -3.0564    0.0361   -2.4822 H   0  0  0  0  0  0  0  0  0  0  0  0
   -4.7697   -0.3941   -2.4699 H   0  0  0  0  0  0  0  0  0  0  0  0
   -3.8323    2.8828   -0.2479 H   0  0  0  0  0  0  0  0  0  0  0  0
   -4.7012    1.5162    0.4524 H   0  0  0  0  0  0  0  0  0  0  0  0
   -2.2997    1.5705    1.1830 H   0  0  0  0  0  0  0  0  0  0  0  0
   -1.7782    1.4893   -0.5095 H   0  0  0  0  0  0  0  0  0  0  0  0
    1.1842    0.3505   -1.6238 H   0  0  0  0  0  0  0  0  0  0  0  0
    3.2786    1.3911   -2.3849 H   0  0  0  0  0  0  0  0  0  0  0  0
  1  2  1  0
  2  3  1  0
  2  4  1  0
  2  5  1  0
  5  6  1  0
  6  7  2  0
  7  8  1  0
  8  9  1  0
  9 10  1  0
 10 11  1  0
 11 12  1  0
 12 13  2  0
 13 14  1  0
 14 15  2  0
 15 16  1  0
 16 17  1  0
 17 18  1  0
 18 19  1  0
 19 20  1  0
 20 21  1  0
  8 22  2  0
 22 23  1  0
 23  5  2  0
 15 11  1  0
 21 16  1  0
  6 24  1  0
  7 25  1  0
  9 26  1  0
  9 27  1  0
 10 28  1  0
 10 29  1  0
 17 30  1  0
 17 31  1  0
 18 32  1  0
 18 33  1  0
 20 34  1  0
 20 35  1  0
 21 36  1  0
 21 37  1  0
 22 38  1  0
 23 39  1  0
M  END
$$$$
OCNT-2312429
     RDKit          3D

 39 41  0  0  0  0  0  0  0  0999 V2000
    0.5220    4.9355    0.9699 O   0  0  0  0  0  0  0  0  0  0  0  0
    0.4818    3.7381    0.1988 C   0  0  0  0  0  0  0  0  0  0  0  0
   -0.5237    2.7630    0.7993 C   0  0  0  0  0  0  0  0  0  0  0  0
   -0.7391    1.5154   -0.0690 C   0  0  0  0  0  0  0  0  0  0  0  0
   -1.7848    0.5649    0.5553 C   0  0  0  0  0  0  0  0  0  0  0  0
   -2.1181   -0.6116   -0.3374 C   0  0  0  0  0  0  0  0  0  0  0  0
   -2.9189   -0.4420   -1.4749 C   0  0  0  0  0  0  0  0  0  0  0  0
   -3.1888   -1.5227   -2.3158 C   0  0  0  0  0  0  0  0  0  0  0  0
   -2.6623   -2.7807   -2.0283 C   0  0  0  0  0  0  0  0  0  0  0  0
   -1.8693   -2.9613   -0.8971 C   0  0  0  0  0  0  0  0  0  0  0  0
   -1.5999   -1.8830   -0.0540 C   0  0  0  0  0  0  0  0  0  0  0  0
    0.5051    0.8150   -0.3968 N   0  0  0  0  0  0  0  0  0  0  0  0
    1.3026    0.1508    0.5141 C   0  0  0  0  0  0  0  0  0  0  0  0
    1.2588    0.4727    1.7844 N   0  0  0  0  0  0  0  0  0  0  0  0
    2.0696   -0.1805    2.6855 C   0  0  0  0  0  0  0  0  0  0  0  0
    2.9186   -1.1578    2.3463 C   0  0  0  0  0  0  0  0  0  0  0  0
    2.9886   -1.5406    1.0217 N   0  0  0  0  0  0  0  0  0  0  0  0
    3.7603   -2.5107    0.4652 N   0  0  0  0  0  0  0  0  0  0  0  0
    3.4322   -2.4895   -0.8292 C   0  0  0  0  0  0  0  0  0  0  0  0
    2.4631   -1.5213   -1.1118 C   0  0  0  0  0  0  0  0  0  0  0  0
    1.7385   -1.2151   -2.8062 Br  0  0  0  0  0  0  0  0  0  0  0  0
    2.1921   -0.9112    0.0851 C   0  0  0  0  0  0  0  0  0  0  0  0
   -0.3704    5.3196    0.9707 H   0  0  0  0  0  0  0  0  0  0  0  0
    1.4907    3.3153    0.1912 H   0  0  0  0  0  0  0  0  0  0  0  0
    0.2130    4.0049   -0.8283 H   0  0  0  0  0  0  0  0  0  0  0  0
   -1.4847    3.2800    0.9237 H   0  0  0  0  0  0  0  0  0  0  0  0
   -0.2138    2.5057    1.8181 H   0  0  0  0  0  0  0  0  0  0  0  0
   -1.1440    1.8719   -1.0261 H   0  0  0  0  0  0  0  0  0  0  0  0
   -1.4451    0.2010    1.5328 H   0  0  0  0  0  0  0  0  0  0  0  0
   -2.7132    1.1166    0.7541 H   0  0  0  0  0  0  0  0  0  0  0  0
   -3.3392    0.5320   -1.7144 H   0  0  0  0  0  0  0  0  0  0  0  0
   -3.8117   -1.3844   -3.1958 H   0  0  0  0  0  0  0  0  0  0  0  0
   -2.8737   -3.6217   -2.6835 H   0  0  0  0  0  0  0  0  0  0  0  0
   -1.4607   -3.9426   -0.6699 H   0  0  0  0  0  0  0  0  0  0  0  0
   -0.9767   -2.0395    0.8245 H   0  0  0  0  0  0  0  0  0  0  0  0
    0.4349    0.3287   -1.2878 H   0  0  0  0  0  0  0  0  0  0  0  0
    1.9905    0.1475    3.7184 H   0  0  0  0  0  0  0  0  0  0  0  0
    3.5603   -1.6759    3.0439 H   0  0  0  0  0  0  0  0  0  0  0  0
    3.9154   -3.1863   -1.5022 H   0  0  0  0  0  0  0  0  0  0  0  0
  1  2  1  0
  2  3  1  0
  3  4  1  0
  4  5  1  0
  5  6  1  0
  6  7  2  0
  7  8  1  0
  8  9  2  0
  9 10  1  0
 10 11  2  0
  4 12  1  0
 12 13  1  0
 13 14  2  0
 14 15  1  0
 15 16  2  0
 16 17  1  0
 17 18  1  0
 18 19  2  0
 19 20  1  0
 20 21  1  0
 20 22  2  0
 11  6  1  0
 22 13  1  0
 22 17  1  0
  1 23  1  0
  2 24  1  0
  2 25  1  0
  3 26  1  0
  3 27  1  0
  4 28  1  0
  5 29  1  0
  5 30  1  0
  7 31  1  0
  8 32  1  0
  9 33  1  0
 10 34  1  0
 11 35  1  0
 12 36  1  0
 15 37  1  0
 16 38  1  0
 19 39  1  0
M  END
$$$$
OCNT-2312433
     RDKit          3D

 51 53  0  0  0  0  0  0  0  0999 V2000
   -6.9750    2.4074    1.3698 C   0  0  0  0  0  0  0  0  0  0  0  0
   -6.9470    1.4308    0.2248 C   0  0  0  0  0  0  0  0  0  0  0  0
   -7.9568    1.1344   -0.4046 O   0  0  0  0  0  0  0  0  0  0  0  0
   -5.7000    0.9061   -0.0341 N   0  0  0  0  0  0  0  0  0  0  0  0
   -5.5381   -0.1686   -0.9979 C   0  0  0  0  0  0  0  0  0  0  0  0
   -4.1005   -0.2914   -1.5099 C   0  0  0  0  0  0  0  0  0  0  0  0
   -3.1041   -0.6383   -0.4260 C   0  0  0  0  0  0  0  0  0  0  0  0
   -2.2013    0.3291    0.0412 C   0  0  0  0  0  0  0  0  0  0  0  0
   -1.2919    0.0189    1.0531 C   0  0  0  0  0  0  0  0  0  0  0  0
   -1.2771   -1.2691    1.5934 C   0  0  0  0  0  0  0  0  0  0  0  0
   -0.1348   -1.6690    2.8912 S   0  0  0  0  0  0  0  0  0  0  0  0
    0.4470   -0.4448    3.3980 O   0  0  0  0  0  0  0  0  0  0  0  0
   -0.8026   -2.5969    3.7804 O   0  0  0  0  0  0  0  0  0  0  0  0
    1.0482   -2.5675    2.0822 N   0  0  0  0  0  0  0  0  0  0  0  0
    2.0399   -1.8552    1.3559 C   0  0  0  0  0  0  0  0  0  0  0  0
    1.8152   -1.5255    0.0224 C   0  0  0  0  0  0  0  0  0  0  0  0
    2.7701   -0.7866   -0.6821 C   0  0  0  0  0  0  0  0  0  0  0  0
    3.9564   -0.3592   -0.0626 C   0  0  0  0  0  0  0  0  0  0  0  0
    4.9561    0.4269   -0.8032 C   0  0  0  0  0  0  0  0  0  0  0  0
    5.5001   -0.0489   -2.0093 C   0  0  0  0  0  0  0  0  0  0  0  0
    6.4500    0.6954   -2.7147 C   0  0  0  0  0  0  0  0  0  0  0  0
    6.8695    1.9292   -2.2251 C   0  0  0  0  0  0  0  0  0  0  0  0
    6.3380    2.4104   -1.0360 C   0  0  0  0  0  0  0  0  0  0  0  0
    6.7731    3.6250   -0.5931 O   0  0  0  0  0  0  0  0  0  0  0  0
    5.3918    1.6748   -0.3244 C   0  0  0  0  0  0  0  0  0  0  0  0
    4.1574   -0.6982    1.2862 C   0  0  0  0  0  0  0  0  0  0  0  0
    3.2054   -1.4390    1.9933 C   0  0  0  0  0  0  0  0  0  0  0  0
   -2.1760   -2.2406    1.1471 C   0  0  0  0  0  0  0  0  0  0  0  0
   -3.0837   -1.9242    0.1353 C   0  0  0  0  0  0  0  0  0  0  0  0
   -7.4256    1.9249    2.2409 H   0  0  0  0  0  0  0  0  0  0  0  0
   -5.9697    2.7501    1.6306 H   0  0  0  0  0  0  0  0  0  0  0  0
   -7.5685    3.2795    1.0818 H   0  0  0  0  0  0  0  0  0  0  0  0
   -5.0150    0.9612    0.7103 H   0  0  0  0  0  0  0  0  0  0  0  0
   -6.2096    0.0132   -1.8449 H   0  0  0  0  0  0  0  0  0  0  0  0
   -5.8685   -1.0931   -0.5106 H   0  0  0  0  0  0  0  0  0  0  0  0
   -4.0542   -1.0669   -2.2848 H   0  0  0  0  0  0  0  0  0  0  0  0
   -3.8046    0.6458   -1.9982 H   0  0  0  0  0  0  0  0  0  0  0  0
   -2.2022    1.3330   -0.3800 H   0  0  0  0  0  0  0  0  0  0  0  0
   -0.5981    0.7789    1.4070 H   0  0  0  0  0  0  0  0  0  0  0  0
    1.3602   -3.3483    2.6587 H   0  0  0  0  0  0  0  0  0  0  0  0
    0.9070   -1.8434   -0.4822 H   0  0  0  0  0  0  0  0  0  0  0  0
    2.5750   -0.5325   -1.7225 H   0  0  0  0  0  0  0  0  0  0  0  0
    5.1935   -1.0159   -2.4037 H   0  0  0  0  0  0  0  0  0  0  0  0
    6.8633    0.3107   -3.6432 H   0  0  0  0  0  0  0  0  0  0  0  0
    7.6072    2.5135   -2.7676 H   0  0  0  0  0  0  0  0  0  0  0  0
    6.3113    3.8384    0.2343 H   0  0  0  0  0  0  0  0  0  0  0  0
    4.9767    2.0679    0.5996 H   0  0  0  0  0  0  0  0  0  0  0  0
    5.0662   -0.3874    1.7984 H   0  0  0  0  0  0  0  0  0  0  0  0
    3.3785   -1.6690    3.0409 H   0  0  0  0  0  0  0  0  0  0  0  0
   -2.1741   -3.2387    1.5799 H   0  0  0  0  0  0  0  0  0  0  0  0
   -3.7782   -2.6876   -0.2111 H   0  0  0  0  0  0  0  0  0  0  0  0
  1  2  1  0
  2  3  2  0
  2  4  1  0
  4  5  1  0
  5  6  1  0
  6  7  1  0
  7  8  1  0
  8  9  2  0
  9 10  1  0
 10 11  1  0
 11 12  2  0
 11 13  2  0
 11 14  1  0
 14 15  1  0
 15 16  1  0
 16 17  2  0
 17 18  1  0
 18 19  1  0
 19 20  2  0
 20 21  1  0
 21 22  2  0
 22 23  1  0
 23 24  1  0
 23 25  2  0
 18 26  2  0
 26 27  1  0
 10 28  2  0
 28 29  1  0
 29  7  2  0
 27 15  2  0
 25 19  1  0
  1 30  1  0
  1 31  1  0
  1 32  1  0
  4 33  1  0
  5 34  1  0
  5 35  1  0
  6 36  1  0
  6 37  1  0
  8 38  1  0
  9 39  1  0
 14 40  1  0
 16 41  1  0
 17 42  1  0
 20 43  1  0
 21 44  1  0
 22 45  1  0
 24 46  1  0
 25 47  1  0
 26 48  1  0
 27 49  1  0
 28 50  1  0
 29 51  1  0
M  END
$$$$
OCNT-2312442
     RDKit          3D

 44 46  0  0  0  0  0  0  0  0999 V2000
    7.9138    0.5268    2.0091 C   0  0  0  0  0  0  0  0  0  0  0  0
    6.6063    0.1658    1.3683 C   0  0  0  0  0  0  0  0  0  0  0  0
    6.5685   -0.6947    0.2666 C   0  0  0  0  0  0  0  0  0  0  0  0
    5.3518   -1.0050   -0.3509 C   0  0  0  0  0  0  0  0  0  0  0  0
    4.1496   -0.4533    0.1134 C   0  0  0  0  0  0  0  0  0  0  0  0
    2.8653   -0.7545   -0.5131 C   0  0  0  0  0  0  0  0  0  0  0  0
    1.6581   -0.3222   -0.1942 N   0  0  0  0  0  0  0  0  0  0  0  0
    0.8279   -0.9122   -1.1206 C   0  0  0  0  0  0  0  0  0  0  0  0
   -0.6395   -0.6731   -1.1292 C   0  0  0  0  0  0  0  0  0  0  0  0
   -1.2053   -0.3588    0.2580 C   0  0  0  0  0  0  0  0  0  0  0  0
   -2.6603   -0.3367    0.2798 N   0  0  0  0  0  0  0  0  0  0  0  0
   -3.3714    0.7173   -0.2493 C   0  0  0  0  0  0  0  0  0  0  0  0
   -2.8264    1.6721   -0.7939 O   0  0  0  0  0  0  0  0  0  0  0  0
   -4.8228    0.6025   -0.1718 C   0  0  0  0  0  0  0  0  0  0  0  0
   -5.7196    1.1822   -1.0578 C   0  0  0  0  0  0  0  0  0  0  0  0
   -5.5096    2.0191   -2.2650 C   0  0  0  0  0  0  0  0  0  0  0  0
   -6.9657    0.8479   -0.6179 N   0  0  0  0  0  0  0  0  0  0  0  0
   -6.9605    0.0994    0.4918 N   0  0  0  0  0  0  0  0  0  0  0  0
   -5.6544   -0.0409    0.8001 C   0  0  0  0  0  0  0  0  0  0  0  0
   -5.1936   -0.7714    2.0326 C   0  0  0  0  0  0  0  0  0  0  0  0
   -4.4529    0.0243    2.8504 F   0  0  0  0  0  0  0  0  0  0  0  0
   -4.3935   -1.8281    1.7001 F   0  0  0  0  0  0  0  0  0  0  0  0
   -6.2031   -1.2781    2.7881 F   0  0  0  0  0  0  0  0  0  0  0  0
    1.5792   -1.6902   -1.9707 C   0  0  0  0  0  0  0  0  0  0  0  0
    2.8824   -1.6043   -1.5902 O   0  0  0  0  0  0  0  0  0  0  0  0
    4.1976    0.4189    1.2101 C   0  0  0  0  0  0  0  0  0  0  0  0
    5.4126    0.7302    1.8282 C   0  0  0  0  0  0  0  0  0  0  0  0
    8.6315   -0.2958    1.9228 H   0  0  0  0  0  0  0  0  0  0  0  0
    8.3339    1.4159    1.5280 H   0  0  0  0  0  0  0  0  0  0  0  0
    7.7817    0.7310    3.0779 H   0  0  0  0  0  0  0  0  0  0  0  0
    7.4862   -1.1311   -0.1206 H   0  0  0  0  0  0  0  0  0  0  0  0
    5.3550   -1.6815   -1.2032 H   0  0  0  0  0  0  0  0  0  0  0  0
   -1.1450   -1.5604   -1.5323 H   0  0  0  0  0  0  0  0  0  0  0  0
   -0.8591    0.1496   -1.8203 H   0  0  0  0  0  0  0  0  0  0  0  0
   -0.8942   -1.1177    0.9858 H   0  0  0  0  0  0  0  0  0  0  0  0
   -0.8394    0.6136    0.6104 H   0  0  0  0  0  0  0  0  0  0  0  0
   -3.1297   -1.1932    0.5490 H   0  0  0  0  0  0  0  0  0  0  0  0
   -6.4332    2.1278   -2.8427 H   0  0  0  0  0  0  0  0  0  0  0  0
   -4.7575    1.5696   -2.9212 H   0  0  0  0  0  0  0  0  0  0  0  0
   -5.1671    3.0191   -1.9794 H   0  0  0  0  0  0  0  0  0  0  0  0
   -7.8624    1.1009   -1.0234 H   0  0  0  0  0  0  0  0  0  0  0  0
    1.3678   -2.3152   -2.8255 H   0  0  0  0  0  0  0  0  0  0  0  0
    3.2799    0.8673    1.5884 H   0  0  0  0  0  0  0  0  0  0  0  0
    5.4175    1.4170    2.6712 H   0  0  0  0  0  0  0  0  0  0  0  0
  1  2  1  0
  2  3  1  0
  3  4  2  0
  4  5  1  0
  5  6  1  0
  6  7  2  0
  7  8  1  0
  8  9  1  0
  9 10  1  0
 10 11  1  0
 11 12  1  0
 12 13  2  0
 12 14  1  0
 14 15  2  0
 15 16  1  0
 15 17  1  0
 17 18  1  0
 18 19  2  0
 19 20  1  0
 20 21  1  0
 20 22  1  0
 20 23  1  0
  8 24  2  0
 24 25  1  0
  5 26  2  0
 26 27  1  0
 27  2  2  0
 25  6  1  0
 19 14  1  0
  1 28  1  0
  1 29  1  0
  1 30  1  0
  3 31  1  0
  4 32  1  0
  9 33  1  0
  9 34  1  0
 10 35  1  0
 10 36  1  0
 11 37  1  0
 16 38  1  0
 16 39  1  0
 16 40  1  0
 17 41  1  0
 24 42  1  0
 26 43  1  0
 27 44  1  0
M  END
$$$$
OCNT-2312448
     RDKit          3D

  0  0  0  0  0  0  0  0  0  0999 V3000
M  V30 BEGIN CTAB
M  V30 COUNTS 44 46 0 0 0
M  V30 BEGIN ATOM
M  V30 1 C 2.385492 0.482251 -1.870321 0
M  V30 2 C 3.090209 0.265132 -0.581109 0
M  V30 3 C 2.723570 -0.586964 0.446339 0
M  V30 4 C 1.583794 -1.534253 0.606222 0
M  V30 5 N 0.304585 -0.863265 0.392346 0
M  V30 6 C -0.051450 0.083012 1.452376 0
M  V30 7 C -1.543723 0.349217 1.210345 0 CFG=1
M  V30 8 C -1.771907 1.698004 0.510288 0
M  V30 9 C -3.178841 1.782486 -0.066668 0
M  V30 10 C -3.447375 0.689587 -1.101086 0
M  V30 11 C -2.424429 -0.446076 -1.060807 0
M  V30 12 C -2.044679 -0.870246 0.380208 0 CFG=2
M  V30 13 C -3.229601 -1.562489 1.082751 0
M  V30 14 O -3.710717 -2.680735 0.348079 0
M  V30 15 C -0.818653 -1.801764 0.346011 0
M  V30 16 N 3.670936 -0.429555 1.415628 0
M  V30 17 N 4.623316 0.460044 1.106502 0
M  V30 18 C 4.280365 0.910683 -0.117512 0
M  V30 19 C 5.081006 1.952595 -0.859898 0
M  V30 20 F 5.690560 1.428566 -1.959552 0
M  V30 21 F 6.058825 2.530192 -0.111631 0
M  V30 22 F 4.291441 2.967644 -1.310899 0
M  V30 23 H 1.913498 -0.440824 -2.221800 0
M  V30 24 H 3.078418 0.814911 -2.649307 0
M  V30 25 H 1.608967 1.244741 -1.752673 0
M  V30 26 H 1.615971 -2.024447 1.587971 0
M  V30 27 H 1.710397 -2.325159 -0.144648 0
M  V30 28 H 0.546126 0.999726 1.413311 0
M  V30 29 H 0.079870 -0.368358 2.444787 0
M  V30 30 H -2.052144 0.384108 2.183191 0
M  V30 31 H -1.618808 2.510801 1.230408 0
M  V30 32 H -1.037384 1.853525 -0.290341 0
M  V30 33 H -3.340545 2.766965 -0.520604 0
M  V30 34 H -3.908274 1.696614 0.748453 0
M  V30 35 H -3.442691 1.128049 -2.106560 0
M  V30 36 H -4.458729 0.292921 -0.951810 0
M  V30 37 H -1.525544 -0.116139 -1.599708 0
M  V30 38 H -2.807247 -1.299483 -1.633707 0
M  V30 39 H -2.952636 -1.908618 2.085315 0
M  V30 40 H -4.067913 -0.869562 1.207679 0
M  V30 41 H -3.036536 -3.379356 0.376081 0
M  V30 42 H -0.803681 -2.470934 1.216743 0
M  V30 43 H -0.792369 -2.418737 -0.559085 0
M  V30 44 H 3.728532 -0.894808 2.315684 0
M  V30 END ATOM
M  V30 BEGIN BOND
M  V30 1 1 1 2
M  V30 2 2 2 3
M  V30 3 1 3 4
M  V30 4 1 4 5
M  V30 5 1 5 6
M  V30 6 1 6 7
M  V30 7 1 7 8
M  V30 8 1 8 9
M  V30 9 1 9 10
M  V30 10 1 10 11
M  V30 11 1 11 12
M  V30 12 1 12 13 CFG=1
M  V30 13 1 13 14
M  V30 14 1 12 15
M  V30 15 1 3 16
M  V30 16 1 16 17
M  V30 17 2 17 18
M  V30 18 1 18 19
M  V30 19 1 19 20
M  V30 20 1 19 21
M  V30 21 1 19 22
M  V30 22 1 18 2
M  V30 23 1 15 5
M  V30 24 1 12 7
M  V30 25 1 1 23
M  V30 26 1 1 24
M  V30 27 1 1 25
M  V30 28 1 4 26
M  V30 29 1 4 27
M  V30 30 1 6 28
M  V30 31 1 6 29
M  V30 32 1 7 30 CFG=1
M  V30 33 1 8 31
M  V30 34 1 8 32
M  V30 35 1 9 33
M  V30 36 1 9 34
M  V30 37 1 10 35
M  V30 38 1 10 36
M  V30 39 1 11 37
M  V30 40 1 11 38
M  V30 41 1 13 39
M  V30 42 1 13 40
M  V30 43 1 14 41
M  V30 44 1 15 42
M  V30 45 1 15 43
M  V30 46 1 16 44
M  V30 END BOND
M  V30 BEGIN COLLECTION
M  V30 MDLV30/STERAC1 ATOMS=(2 7 12)
M  V30 END COLLECTION
M  V30 END CTAB
M  END
>  <_CXSMILES_Data>  (633) 
|&1:6,11|

$$$$
OCNT-2312463
     RDKit          3D

 39 42  0  0  0  0  0  0  0  0999 V2000
   -1.5358    1.5017   -2.7366 C   0  0  0  0  0  0  0  0  0  0  0  0
   -1.6152    1.7794   -1.3232 N   0  0  0  0  0  0  0  0  0  0  0  0
   -2.2316    2.8633   -0.7624 C   0  0  0  0  0  0  0  0  0  0  0  0
   -2.0586    2.7158    0.5919 C   0  0  0  0  0  0  0  0  0  0  0  0
   -1.3592    1.5724    0.8697 N   0  0  0  0  0  0  0  0  0  0  0  0
   -1.0938    1.0153   -0.3041 C   0  0  0  0  0  0  0  0  0  0  0  0
   -0.3253   -0.2757   -0.5168 C   0  0  0  0  0  0  0  0  0  0  0  0
    0.6585   -0.5157    0.5313 N   0  0  0  0  0  0  0  0  0  0  0  0
    1.8808    0.1158    0.5043 C   0  0  0  0  0  0  0  0  0  0  0  0
    2.4077    0.4494   -0.6538 N   0  0  0  0  0  0  0  0  0  0  0  0
    3.6363    1.0724   -0.6855 C   0  0  0  0  0  0  0  0  0  0  0  0
    4.3495    1.3657    0.4086 C   0  0  0  0  0  0  0  0  0  0  0  0
    3.8330    1.0311    1.6448 N   0  0  0  0  0  0  0  0  0  0  0  0
    4.3839    1.2341    2.8704 N   0  0  0  0  0  0  0  0  0  0  0  0
    3.4804    0.7392    3.7211 C   0  0  0  0  0  0  0  0  0  0  0  0
    2.3629    0.2178    3.0604 C   0  0  0  0  0  0  0  0  0  0  0  0
    0.8926   -0.5530    3.9167 Br  0  0  0  0  0  0  0  0  0  0  0  0
    2.6038    0.4080    1.7252 C   0  0  0  0  0  0  0  0  0  0  0  0
   -1.2408   -1.4984   -0.5787 C   0  0  0  0  0  0  0  0  0  0  0  0
   -0.9647   -2.5246   -1.4998 C   0  0  0  0  0  0  0  0  0  0  0  0
   -1.7733   -3.6607   -1.5675 C   0  0  0  0  0  0  0  0  0  0  0  0
   -2.8621   -3.7943   -0.7091 C   0  0  0  0  0  0  0  0  0  0  0  0
   -3.1388   -2.7973    0.2236 C   0  0  0  0  0  0  0  0  0  0  0  0
   -2.3311   -1.6606    0.2943 C   0  0  0  0  0  0  0  0  0  0  0  0
   -1.9527    0.5092   -2.9234 H   0  0  0  0  0  0  0  0  0  0  0  0
   -2.1115    2.2494   -3.2884 H   0  0  0  0  0  0  0  0  0  0  0  0
   -0.4870    1.5468   -3.0400 H   0  0  0  0  0  0  0  0  0  0  0  0
   -2.7238    3.6269   -1.3481 H   0  0  0  0  0  0  0  0  0  0  0  0
   -2.4010    3.3728    1.3809 H   0  0  0  0  0  0  0  0  0  0  0  0
    0.1824   -0.2095   -1.4872 H   0  0  0  0  0  0  0  0  0  0  0  0
    0.2019   -0.4727    1.4380 H   0  0  0  0  0  0  0  0  0  0  0  0
    4.0166    1.3223   -1.6721 H   0  0  0  0  0  0  0  0  0  0  0  0
    5.3139    1.8523    0.3944 H   0  0  0  0  0  0  0  0  0  0  0  0
    3.6829    0.7844    4.7834 H   0  0  0  0  0  0  0  0  0  0  0  0
   -0.1050   -2.4490   -2.1633 H   0  0  0  0  0  0  0  0  0  0  0  0
   -1.5470   -4.4466   -2.2836 H   0  0  0  0  0  0  0  0  0  0  0  0
   -3.4887   -4.6809   -0.7586 H   0  0  0  0  0  0  0  0  0  0  0  0
   -3.9805   -2.9060    0.9028 H   0  0  0  0  0  0  0  0  0  0  0  0
   -2.5598   -0.9006    1.0404 H   0  0  0  0  0  0  0  0  0  0  0  0
  1  2  1  0
  2  3  1  0
  3  4  2  0
  4  5  1  0
  5  6  2  0
  6  7  1  0
  7  8  1  0
  8  9  1  0
  9 10  2  0
 10 11  1  0
 11 12  2  0
 12 13  1  0
 13 14  1  0
 14 15  2  0
 15 16  1  0
 16 17  1  0
 16 18  2  0
  7 19  1  0
 19 20  2  0
 20 21  1  0
 21 22  2  0
 22 23  1  0
 23 24  2  0
  6  2  1  0
 18  9  1  0
 24 19  1  0
 18 13  1  0
  1 25  1  0
  1 26  1  0
  1 27  1  0
  3 28  1  0
  4 29  1  0
  7 30  1  0
  8 31  1  0
 11 32  1  0
 12 33  1  0
 15 34  1  0
 20 35  1  0
 21 36  1  0
 22 37  1  0
 23 38  1  0
 24 39  1  0
M  END
$$$$
OCNT-2312465
     RDKit          3D

 33 35  0  0  0  0  0  0  0  0999 V2000
    4.2883   -0.6308    2.0940 C   0  0  0  0  0  0  0  0  0  0  0  0
    3.8537   -0.5760    0.7283 N   0  0  0  0  0  0  0  0  0  0  0  0
    4.5648   -1.0048   -0.3744 C   0  0  0  0  0  0  0  0  0  0  0  0
    5.6843   -1.4978   -0.3664 O   0  0  0  0  0  0  0  0  0  0  0  0
    3.8300   -0.8007   -1.5529 O   0  0  0  0  0  0  0  0  0  0  0  0
    2.6567   -0.2321   -1.0828 C   0  0  0  0  0  0  0  0  0  0  0  0
    1.5888    0.1584   -1.8625 C   0  0  0  0  0  0  0  0  0  0  0  0
    0.4913    0.7171   -1.2028 C   0  0  0  0  0  0  0  0  0  0  0  0
   -0.6578    1.1016   -1.9479 N   0  0  0  0  0  0  0  0  0  0  0  0
   -1.8562   -0.0658   -2.2061 S   0  0  0  0  0  0  0  0  0  0  0  0
   -1.2437   -1.3712   -2.3126 O   0  0  0  0  0  0  0  0  0  0  0  0
   -2.7078    0.4544   -3.2538 O   0  0  0  0  0  0  0  0  0  0  0  0
   -2.7883    0.0040   -0.6975 C   0  0  0  0  0  0  0  0  0  0  0  0
   -2.6929   -1.0375    0.2332 C   0  0  0  0  0  0  0  0  0  0  0  0
   -3.4382   -0.9769    1.4138 C   0  0  0  0  0  0  0  0  0  0  0  0
   -4.2753    0.1155    1.6517 C   0  0  0  0  0  0  0  0  0  0  0  0
   -5.1809    0.1824    3.1135 Cl  0  0  0  0  0  0  0  0  0  0  0  0
   -4.3694    1.1400    0.7085 C   0  0  0  0  0  0  0  0  0  0  0  0
   -5.1687    2.1951    0.9233 F   0  0  0  0  0  0  0  0  0  0  0  0
   -3.6343    1.0923   -0.4711 C   0  0  0  0  0  0  0  0  0  0  0  0
    0.4795    0.8579    0.1997 C   0  0  0  0  0  0  0  0  0  0  0  0
    1.5765    0.4528    0.9677 C   0  0  0  0  0  0  0  0  0  0  0  0
    2.6472   -0.0878    0.2902 C   0  0  0  0  0  0  0  0  0  0  0  0
    4.3114    0.3817    2.5076 H   0  0  0  0  0  0  0  0  0  0  0  0
    5.2898   -1.0649    2.1597 H   0  0  0  0  0  0  0  0  0  0  0  0
    3.5939   -1.2494    2.6702 H   0  0  0  0  0  0  0  0  0  0  0  0
    1.6057    0.0172   -2.9368 H   0  0  0  0  0  0  0  0  0  0  0  0
   -0.5024    1.6395   -2.8017 H   0  0  0  0  0  0  0  0  0  0  0  0
   -2.0453   -1.8933    0.0481 H   0  0  0  0  0  0  0  0  0  0  0  0
   -3.3654   -1.7834    2.1400 H   0  0  0  0  0  0  0  0  0  0  0  0
   -3.7289    1.8971   -1.1948 H   0  0  0  0  0  0  0  0  0  0  0  0
   -0.3807    1.3000    0.6967 H   0  0  0  0  0  0  0  0  0  0  0  0
    1.5742    0.5655    2.0454 H   0  0  0  0  0  0  0  0  0  0  0  0
  1  2  1  0
  2  3  1  0
  3  4  2  0
  3  5  1  0
  5  6  1  0
  6  7  1  0
  7  8  2  0
  8  9  1  0
  9 10  1  0
 10 11  2  0
 10 12  2  0
 10 13  1  0
 13 14  1  0
 14 15  2  0
 15 16  1  0
 16 17  1  0
 16 18  2  0
 18 19  1  0
 18 20  1  0
  8 21  1  0
 21 22  2  0
 22 23  1  0
 23  2  1  0
 23  6  2  0
 20 13  2  0
  1 24  1  0
  1 25  1  0
  1 26  1  0
  7 27  1  0
  9 28  1  0
 14 29  1  0
 15 30  1  0
 20 31  1  0
 21 32  1  0
 22 33  1  0
M  END
$$$$
OCNT-2312472
     RDKit          3D

 46 49  0  0  0  0  0  0  0  0999 V2000
   -4.2434   -2.4093    0.6637 C   0  0  0  0  0  0  0  0  0  0  0  0
   -3.1877   -1.6532    1.2306 O   0  0  0  0  0  0  0  0  0  0  0  0
   -2.6159   -0.5830    0.3990 C   0  0  0  0  0  0  0  0  0  0  0  0
   -3.7366    0.5250    0.0226 C   0  0  0  0  0  0  0  0  0  0  0  0
   -4.2697    1.3776    1.0119 C   0  0  0  0  0  0  0  0  0  0  0  0
   -5.2613    2.3245    0.7280 C   0  0  0  0  0  0  0  0  0  0  0  0
   -5.7549    2.4505   -0.5643 C   0  0  0  0  0  0  0  0  0  0  0  0
   -5.2575    1.6292   -1.5675 C   0  0  0  0  0  0  0  0  0  0  0  0
   -4.2672    0.6786   -1.2748 C   0  0  0  0  0  0  0  0  0  0  0  0
   -1.3069    0.0171    1.0374 C   0  0  0  0  0  0  0  0  0  0  0  0
   -0.5575   -0.8402    0.1452 N   0  0  0  0  0  0  0  0  0  0  0  0
    0.5988   -1.5522    0.2720 C   0  0  0  0  0  0  0  0  0  0  0  0
    0.9209   -2.4222   -0.5409 O   0  0  0  0  0  0  0  0  0  0  0  0
    1.4977   -1.1984    1.4457 C   0  0  0  0  0  0  0  0  0  0  0  0
    2.4938   -0.1678    1.0410 C   0  0  0  0  0  0  0  0  0  0  0  0
    2.5271    1.1894    1.2910 C   0  0  0  0  0  0  0  0  0  0  0  0
    3.6328    1.7742    0.7396 N   0  0  0  0  0  0  0  0  0  0  0  0
    4.2883    0.7972    0.1437 C   0  0  0  0  0  0  0  0  0  0  0  0
    5.5196    0.8202   -0.6024 C   0  0  0  0  0  0  0  0  0  0  0  0
    6.2926    2.0914   -0.8370 C   0  0  0  0  0  0  0  0  0  0  0  0
    5.9735   -0.3553   -1.1055 C   0  0  0  0  0  0  0  0  0  0  0  0
    5.2666   -1.6123   -0.9244 C   0  0  0  0  0  0  0  0  0  0  0  0
    4.1181   -1.6210   -0.2306 C   0  0  0  0  0  0  0  0  0  0  0  0
    3.6326   -0.4249    0.2992 N   0  0  0  0  0  0  0  0  0  0  0  0
   -1.6712   -1.0888   -0.7496 C   0  0  0  0  0  0  0  0  0  0  0  0
   -5.1860   -1.8759    0.7788 H   0  0  0  0  0  0  0  0  0  0  0  0
   -4.3093   -3.3555    1.2033 H   0  0  0  0  0  0  0  0  0  0  0  0
   -4.0611   -2.6189   -0.3935 H   0  0  0  0  0  0  0  0  0  0  0  0
   -3.9117    1.2836    2.0353 H   0  0  0  0  0  0  0  0  0  0  0  0
   -5.6516    2.9514    1.5210 H   0  0  0  0  0  0  0  0  0  0  0  0
   -6.5316    3.1824   -0.7880 H   0  0  0  0  0  0  0  0  0  0  0  0
   -5.6435    1.7186   -2.5797 H   0  0  0  0  0  0  0  0  0  0  0  0
   -3.9120    0.0413   -2.0830 H   0  0  0  0  0  0  0  0  0  0  0  0
   -1.1873   -0.2026    2.1003 H   0  0  0  0  0  0  0  0  0  0  0  0
   -1.1224    1.0804    0.8574 H   0  0  0  0  0  0  0  0  0  0  0  0
    0.9061   -0.8469    2.2945 H   0  0  0  0  0  0  0  0  0  0  0  0
    1.9935   -2.1145    1.7880 H   0  0  0  0  0  0  0  0  0  0  0  0
    1.8084    1.7785    1.8460 H   0  0  0  0  0  0  0  0  0  0  0  0
    6.6350    2.5126    0.1131 H   0  0  0  0  0  0  0  0  0  0  0  0
    7.1690    1.9342   -1.4702 H   0  0  0  0  0  0  0  0  0  0  0  0
    5.6580    2.8315   -1.3284 H   0  0  0  0  0  0  0  0  0  0  0  0
    6.8973   -0.4005   -1.6774 H   0  0  0  0  0  0  0  0  0  0  0  0
    5.6771   -2.5125   -1.3676 H   0  0  0  0  0  0  0  0  0  0  0  0
    3.5400   -2.5238   -0.0730 H   0  0  0  0  0  0  0  0  0  0  0  0
   -1.7866   -2.1375   -1.0316 H   0  0  0  0  0  0  0  0  0  0  0  0
   -1.6142   -0.4717   -1.6499 H   0  0  0  0  0  0  0  0  0  0  0  0
  1  2  1  0
  2  3  1  0
  3  4  1  0
  4  5  2  0
  5  6  1  0
  6  7  2  0
  7  8  1  0
  8  9  2  0
  3 10  1  0
 10 11  1  0
 11 12  1  0
 12 13  2  0
 12 14  1  0
 14 15  1  0
 15 16  2  0
 16 17  1  0
 17 18  2  0
 18 19  1  0
 19 20  1  0
 19 21  2  0
 21 22  1  0
 22 23  2  0
 23 24  1  0
 11 25  1  0
 25  3  1  0
  9  4  1  0
 24 15  1  0
 24 18  1  0
  1 26  1  0
  1 27  1  0
  1 28  1  0
  5 29  1  0
  6 30  1  0
  7 31  1  0
  8 32  1  0
  9 33  1  0
 10 34  1  0
 10 35  1  0
 14 36  1  0
 14 37  1  0
 16 38  1  0
 20 39  1  0
 20 40  1  0
 20 41  1  0
 21 42  1  0
 22 43  1  0
 23 44  1  0
 25 45  1  0
 25 46  1  0
M  END
$$$$
OCNT-2312476
     RDKit          3D

 41 44  0  0  0  0  0  0  0  0999 V2000
    4.9702   -0.2787   -2.6904 C   0  0  0  0  0  0  0  0  0  0  0  0
    5.0345   -1.1290   -1.5893 C   0  0  0  0  0  0  0  0  0  0  0  0
    4.1598   -0.9510   -0.5131 C   0  0  0  0  0  0  0  0  0  0  0  0
    3.2109    0.0817   -0.5247 C   0  0  0  0  0  0  0  0  0  0  0  0
    2.2913    0.2824    0.5937 C   0  0  0  0  0  0  0  0  0  0  0  0
    1.0124    0.8014    0.6473 C   0  0  0  0  0  0  0  0  0  0  0  0
    0.6225    0.7445    2.0082 C   0  0  0  0  0  0  0  0  0  0  0  0
   -0.6886    1.1792    2.6121 C   0  0  0  0  0  0  0  0  0  0  0  0
   -1.9170    1.0173    1.8189 N   0  0  0  0  0  0  0  0  0  0  0  0
   -2.2674   -0.2771    1.3810 C   0  0  0  0  0  0  0  0  0  0  0  0
   -2.2001   -1.3577    2.2808 C   0  0  0  0  0  0  0  0  0  0  0  0
   -2.6225   -2.6395    1.9254 C   0  0  0  0  0  0  0  0  0  0  0  0
   -3.1460   -2.8690    0.6620 C   0  0  0  0  0  0  0  0  0  0  0  0
   -3.2502   -1.8165   -0.2477 C   0  0  0  0  0  0  0  0  0  0  0  0
   -2.8203   -0.5171    0.0944 C   0  0  0  0  0  0  0  0  0  0  0  0
   -2.9216    0.5217   -0.8883 N   0  0  0  0  0  0  0  0  0  0  0  0
   -3.5352    0.4659   -2.1284 C   0  0  0  0  0  0  0  0  0  0  0  0
   -3.3606    1.6861   -2.7355 C   0  0  0  0  0  0  0  0  0  0  0  0
   -2.6289    2.4359   -1.8094 C   0  0  0  0  0  0  0  0  0  0  0  0
   -2.3510    1.7517   -0.7002 N   0  0  0  0  0  0  0  0  0  0  0  0
    1.6068    0.2484    2.7725 N   0  0  0  0  0  0  0  0  0  0  0  0
    2.5899   -0.0202    1.8974 N   0  0  0  0  0  0  0  0  0  0  0  0
    3.1539    0.9242   -1.6440 C   0  0  0  0  0  0  0  0  0  0  0  0
    4.0291    0.7471   -2.7190 C   0  0  0  0  0  0  0  0  0  0  0  0
    5.6496   -0.4180   -3.5273 H   0  0  0  0  0  0  0  0  0  0  0  0
    5.7617   -1.9368   -1.5696 H   0  0  0  0  0  0  0  0  0  0  0  0
    4.2204   -1.6466    0.3196 H   0  0  0  0  0  0  0  0  0  0  0  0
    0.4185    1.1559   -0.1838 H   0  0  0  0  0  0  0  0  0  0  0  0
   -0.5951    2.2523    2.8253 H   0  0  0  0  0  0  0  0  0  0  0  0
   -0.8189    0.7098    3.5949 H   0  0  0  0  0  0  0  0  0  0  0  0
   -1.8974    1.6489    1.0056 H   0  0  0  0  0  0  0  0  0  0  0  0
   -1.8307   -1.2109    3.2923 H   0  0  0  0  0  0  0  0  0  0  0  0
   -2.5498   -3.4509    2.6447 H   0  0  0  0  0  0  0  0  0  0  0  0
   -3.4765   -3.8664    0.3834 H   0  0  0  0  0  0  0  0  0  0  0  0
   -3.6572   -2.0527   -1.2254 H   0  0  0  0  0  0  0  0  0  0  0  0
   -4.0559   -0.4129   -2.4739 H   0  0  0  0  0  0  0  0  0  0  0  0
   -3.7200    1.9888   -3.7086 H   0  0  0  0  0  0  0  0  0  0  0  0
   -2.2834    3.4585   -1.8944 H   0  0  0  0  0  0  0  0  0  0  0  0
    3.4574   -0.3988    2.2588 H   0  0  0  0  0  0  0  0  0  0  0  0
    2.4315    1.7361   -1.6865 H   0  0  0  0  0  0  0  0  0  0  0  0
    3.9739    1.4118   -3.5772 H   0  0  0  0  0  0  0  0  0  0  0  0
  1  2  2  0
  2  3  1  0
  3  4  2  0
  4  5  1  0
  5  6  2  0
  6  7  1  0
  7  8  1  0
  8  9  1  0
  9 10  1  0
 10 11  2  0
 11 12  1  0
 12 13  2  0
 13 14  1  0
 14 15  2  0
 15 16  1  0
 16 17  1  0
 17 18  2  0
 18 19  1  0
 19 20  2  0
  7 21  2  0
 21 22  1  0
  4 23  1  0
 23 24  2  0
 24  1  1  0
 22  5  1  0
 15 10  1  0
 20 16  1  0
  1 25  1  0
  2 26  1  0
  3 27  1  0
  6 28  1  0
  8 29  1  0
  8 30  1  0
  9 31  1  0
 11 32  1  0
 12 33  1  0
 13 34  1  0
 14 35  1  0
 17 36  1  0
 18 37  1  0
 19 38  1  0
 22 39  1  0
 23 40  1  0
 24 41  1  0
M  END
$$$$
OCNT-2312485
     RDKit          3D

 51 53  0  0  0  0  0  0  0  0999 V2000
   -5.6473    1.7775    3.1455 C   0  0  0  0  0  0  0  0  0  0  0  0
   -4.6869    1.8164    2.0998 O   0  0  0  0  0  0  0  0  0  0  0  0
   -3.6941    0.8683    2.1106 C   0  0  0  0  0  0  0  0  0  0  0  0
   -3.5502   -0.1136    3.0968 C   0  0  0  0  0  0  0  0  0  0  0  0
   -2.5050   -1.0376    3.0247 C   0  0  0  0  0  0  0  0  0  0  0  0
   -1.6014   -0.9960    1.9603 C   0  0  0  0  0  0  0  0  0  0  0  0
   -0.5019   -2.0008    1.9236 C   0  0  0  0  0  0  0  0  0  0  0  0
   -0.0967   -2.5155    2.9585 O   0  0  0  0  0  0  0  0  0  0  0  0
   -0.0175   -2.3209    0.6773 N   0  0  0  0  0  0  0  0  0  0  0  0
    0.9704   -3.3751    0.4953 C   0  0  0  0  0  0  0  0  0  0  0  0
    1.6856   -3.2268   -0.8512 C   0  0  0  0  0  0  0  0  0  0  0  0
    2.1039   -4.2070   -1.4606 O   0  0  0  0  0  0  0  0  0  0  0  0
    1.8715   -1.9038   -1.2065 N   0  0  0  0  0  0  0  0  0  0  0  0
    2.3696   -1.3693   -2.4166 C   0  0  0  0  0  0  0  0  0  0  0  0
    2.6072   -2.1767   -3.5362 C   0  0  0  0  0  0  0  0  0  0  0  0
    3.0567   -1.6221   -4.7357 C   0  0  0  0  0  0  0  0  0  0  0  0
    3.2670   -0.2526   -4.8344 C   0  0  0  0  0  0  0  0  0  0  0  0
    3.0401    0.5667   -3.7276 C   0  0  0  0  0  0  0  0  0  0  0  0
    2.6010    0.0282   -2.5023 C   0  0  0  0  0  0  0  0  0  0  0  0
    2.4140    0.9080   -1.3315 C   0  0  0  0  0  0  0  0  0  0  0  0
    1.7053    0.6295   -0.2461 N   0  0  0  0  0  0  0  0  0  0  0  0
    1.8931    1.6791    0.6262 C   0  0  0  0  0  0  0  0  0  0  0  0
    1.2846    1.6782    1.9752 C   0  0  0  0  0  0  0  0  0  0  0  0
    2.6962    2.6335    0.0488 C   0  0  0  0  0  0  0  0  0  0  0  0
    3.0221    2.1352   -1.1801 N   0  0  0  0  0  0  0  0  0  0  0  0
   -1.7294   -0.0058    0.9770 C   0  0  0  0  0  0  0  0  0  0  0  0
   -2.7701    0.9277    1.0461 C   0  0  0  0  0  0  0  0  0  0  0  0
   -2.9692    1.9308    0.1289 O   0  0  0  0  0  0  0  0  0  0  0  0
   -1.9989    2.0923   -0.8972 C   0  0  0  0  0  0  0  0  0  0  0  0
   -6.3633    2.5867    2.9721 H   0  0  0  0  0  0  0  0  0  0  0  0
   -5.1780    1.9525    4.1191 H   0  0  0  0  0  0  0  0  0  0  0  0
   -6.2037    0.8344    3.1369 H   0  0  0  0  0  0  0  0  0  0  0  0
   -4.2317   -0.1865    3.9378 H   0  0  0  0  0  0  0  0  0  0  0  0
   -2.3999   -1.7937    3.8010 H   0  0  0  0  0  0  0  0  0  0  0  0
   -0.5548   -2.0545   -0.1384 H   0  0  0  0  0  0  0  0  0  0  0  0
    1.7075   -3.3463    1.3034 H   0  0  0  0  0  0  0  0  0  0  0  0
    0.4374   -4.3305    0.5168 H   0  0  0  0  0  0  0  0  0  0  0  0
    1.6523   -1.2103   -0.4837 H   0  0  0  0  0  0  0  0  0  0  0  0
    2.4379   -3.2491   -3.5089 H   0  0  0  0  0  0  0  0  0  0  0  0
    3.2326   -2.2664   -5.5939 H   0  0  0  0  0  0  0  0  0  0  0  0
    3.6063    0.1776   -5.7735 H   0  0  0  0  0  0  0  0  0  0  0  0
    3.2024    1.6339   -3.8491 H   0  0  0  0  0  0  0  0  0  0  0  0
    0.2979    2.1491    1.9478 H   0  0  0  0  0  0  0  0  0  0  0  0
    1.9085    2.2302    2.6854 H   0  0  0  0  0  0  0  0  0  0  0  0
    1.1753    0.6563    2.3495 H   0  0  0  0  0  0  0  0  0  0  0  0
    3.0723    3.5822    0.4052 H   0  0  0  0  0  0  0  0  0  0  0  0
    3.6504    2.5649   -1.8430 H   0  0  0  0  0  0  0  0  0  0  0  0
   -0.9921    0.0495    0.1840 H   0  0  0  0  0  0  0  0  0  0  0  0
   -1.0134    2.3167   -0.4776 H   0  0  0  0  0  0  0  0  0  0  0  0
   -2.3003    2.9474   -1.5097 H   0  0  0  0  0  0  0  0  0  0  0  0
   -1.9633    1.2137   -1.5496 H   0  0  0  0  0  0  0  0  0  0  0  0
  1  2  1  0
  2  3  1  0
  3  4  1  0
  4  5  2  0
  5  6  1  0
  6  7  1  0
  7  8  2  0
  7  9  1  0
  9 10  1  0
 10 11  1  0
 11 12  2  0
 11 13  1  0
 13 14  1  0
 14 15  2  0
 15 16  1  0
 16 17  2  0
 17 18  1  0
 18 19  2  0
 19 20  1  0
 20 21  2  0
 21 22  1  0
 22 23  1  0
 22 24  2  0
 24 25  1  0
  6 26  2  0
 26 27  1  0
 27 28  1  0
 28 29  1  0
 27  3  2  0
 19 14  1  0
 25 20  1  0
  1 30  1  0
  1 31  1  0
  1 32  1  0
  4 33  1  0
  5 34  1  0
  9 35  1  0
 10 36  1  0
 10 37  1  0
 13 38  1  0
 15 39  1  0
 16 40  1  0
 17 41  1  0
 18 42  1  0
 23 43  1  0
 23 44  1  0
 23 45  1  0
 24 46  1  0
 25 47  1  0
 26 48  1  0
 29 49  1  0
 29 50  1  0
 29 51  1  0
M  END
$$$$
OCNT-2312497
     RDKit          3D

 45 47  0  0  0  0  0  0  0  0999 V2000
   -5.3163   -1.0816   -1.1511 C   0  0  0  0  0  0  0  0  0  0  0  0
   -3.9338   -1.5314   -1.6362 C   0  0  0  0  0  0  0  0  0  0  0  0
   -3.7450   -3.0372   -1.4287 C   0  0  0  0  0  0  0  0  0  0  0  0
   -2.8162   -0.7441   -0.9729 C   0  0  0  0  0  0  0  0  0  0  0  0
   -2.6636   -0.7126    0.4209 C   0  0  0  0  0  0  0  0  0  0  0  0
   -1.6269    0.0172    1.0120 C   0  0  0  0  0  0  0  0  0  0  0  0
   -0.7071    0.7272    0.2238 C   0  0  0  0  0  0  0  0  0  0  0  0
    0.3959    1.5331    0.8930 C   0  0  0  0  0  0  0  0  0  0  0  0
    0.0265    3.0257    0.8992 C   0  0  0  0  0  0  0  0  0  0  0  0
    0.9732    3.8543    1.7603 C   0  0  0  0  0  0  0  0  0  0  0  0
    0.5715    5.2185    1.7396 O   0  0  0  0  0  0  0  0  0  0  0  0
    1.6658    1.3328    0.2291 N   0  0  0  0  0  0  0  0  0  0  0  0
    2.4935    0.2439    0.2675 C   0  0  0  0  0  0  0  0  0  0  0  0
    3.5942    0.3649   -0.4442 N   0  0  0  0  0  0  0  0  0  0  0  0
    4.4726   -0.6850   -0.4419 C   0  0  0  0  0  0  0  0  0  0  0  0
    5.6835   -0.8930   -1.0558 C   0  0  0  0  0  0  0  0  0  0  0  0
    6.6252    0.2519   -2.1948 Br  0  0  0  0  0  0  0  0  0  0  0  0
    6.1075   -2.1658   -0.6650 C   0  0  0  0  0  0  0  0  0  0  0  0
    5.2334   -2.7618    0.1503 N   0  0  0  0  0  0  0  0  0  0  0  0
    4.2263   -1.8555    0.2801 N   0  0  0  0  0  0  0  0  0  0  0  0
    3.0633   -1.9860    1.0281 C   0  0  0  0  0  0  0  0  0  0  0  0
    2.1696   -0.9898    1.0662 C   0  0  0  0  0  0  0  0  0  0  0  0
   -0.8608    0.6952   -1.1708 C   0  0  0  0  0  0  0  0  0  0  0  0
   -1.8996   -0.0329   -1.7606 C   0  0  0  0  0  0  0  0  0  0  0  0
   -5.4606   -0.0076   -1.3214 H   0  0  0  0  0  0  0  0  0  0  0  0
   -6.1070   -1.6141   -1.6895 H   0  0  0  0  0  0  0  0  0  0  0  0
   -5.4569   -1.2727   -0.0810 H   0  0  0  0  0  0  0  0  0  0  0  0
   -3.8994   -1.3438   -2.7188 H   0  0  0  0  0  0  0  0  0  0  0  0
   -2.7725   -3.3678   -1.8123 H   0  0  0  0  0  0  0  0  0  0  0  0
   -4.5205   -3.5975   -1.9572 H   0  0  0  0  0  0  0  0  0  0  0  0
   -3.7944   -3.3137   -0.3696 H   0  0  0  0  0  0  0  0  0  0  0  0
   -3.3536   -1.2570    1.0626 H   0  0  0  0  0  0  0  0  0  0  0  0
   -1.5473    0.0243    2.0980 H   0  0  0  0  0  0  0  0  0  0  0  0
    0.4944    1.2063    1.9379 H   0  0  0  0  0  0  0  0  0  0  0  0
   -0.9957    3.1590    1.2794 H   0  0  0  0  0  0  0  0  0  0  0  0
    0.0123    3.4351   -0.1214 H   0  0  0  0  0  0  0  0  0  0  0  0
    1.9993    3.8076    1.3827 H   0  0  0  0  0  0  0  0  0  0  0  0
    0.9734    3.5092    2.7995 H   0  0  0  0  0  0  0  0  0  0  0  0
   -0.3250    5.2743    2.1130 H   0  0  0  0  0  0  0  0  0  0  0  0
    1.9607    2.0405   -0.4413 H   0  0  0  0  0  0  0  0  0  0  0  0
    7.0152   -2.6924   -0.9383 H   0  0  0  0  0  0  0  0  0  0  0  0
    2.9402   -2.9210    1.5578 H   0  0  0  0  0  0  0  0  0  0  0  0
    1.2561   -1.0513    1.6343 H   0  0  0  0  0  0  0  0  0  0  0  0
   -0.1675    1.2338   -1.8147 H   0  0  0  0  0  0  0  0  0  0  0  0
   -1.9838   -0.0394   -2.8457 H   0  0  0  0  0  0  0  0  0  0  0  0
  1  2  1  0
  2  3  1  0
  2  4  1  0
  4  5  1  0
  5  6  2  0
  6  7  1  0
  7  8  1  0
  8  9  1  0
  9 10  1  0
 10 11  1  0
  8 12  1  0
 12 13  1  0
 13 14  2  0
 14 15  1  0
 15 16  2  0
 16 17  1  0
 16 18  1  0
 18 19  2  0
 19 20  1  0
 20 21  1  0
 21 22  2  0
  7 23  2  0
 23 24  1  0
 24  4  2  0
 22 13  1  0
 20 15  1  0
  1 25  1  0
  1 26  1  0
  1 27  1  0
  2 28  1  0
  3 29  1  0
  3 30  1  0
  3 31  1  0
  5 32  1  0
  6 33  1  0
  8 34  1  0
  9 35  1  0
  9 36  1  0
 10 37  1  0
 10 38  1  0
 11 39  1  0
 12 40  1  0
 18 41  1  0
 21 42  1  0
 22 43  1  0
 23 44  1  0
 24 45  1  0
M  END
$$$$
OCNT-2312506
     RDKit          3D

 52 55  0  0  0  0  0  0  0  0999 V2000
   -7.3125    0.3882   -0.5468 C   0  0  0  0  0  0  0  0  0  0  0  0
   -7.1931    0.2971    0.9016 N   0  0  0  0  0  0  0  0  0  0  0  0
   -5.8076    0.8875    1.6386 S   0  0  0  0  0  0  0  0  0  0  0  0
   -6.1236    1.0366    3.0419 O   0  0  0  0  0  0  0  0  0  0  0  0
   -5.3053    1.9916    0.8509 O   0  0  0  0  0  0  0  0  0  0  0  0
   -4.6889   -0.4808    1.4809 C   0  0  0  0  0  0  0  0  0  0  0  0
   -4.7830   -1.5499    2.3738 C   0  0  0  0  0  0  0  0  0  0  0  0
   -3.8821   -2.6078    2.2709 C   0  0  0  0  0  0  0  0  0  0  0  0
   -2.8899   -2.5917    1.2864 C   0  0  0  0  0  0  0  0  0  0  0  0
   -2.7829   -1.5182    0.3867 C   0  0  0  0  0  0  0  0  0  0  0  0
   -1.6798   -1.5104   -0.6589 C   0  0  0  0  0  0  0  0  0  0  0  0
   -2.2527   -1.4185   -2.0767 C   0  0  0  0  0  0  0  0  0  0  0  0
   -0.7522   -0.4237   -0.3828 N   0  0  0  0  0  0  0  0  0  0  0  0
    0.5117   -0.4000   -0.9293 C   0  0  0  0  0  0  0  0  0  0  0  0
    0.9358   -1.2509   -1.7020 O   0  0  0  0  0  0  0  0  0  0  0  0
    1.3972    0.7200   -0.4974 C   0  0  0  0  0  0  0  0  0  0  0  0
    2.7859    0.4469   -0.4634 C   0  0  0  0  0  0  0  0  0  0  0  0
    3.5211    1.5608   -0.0606 C   0  0  0  0  0  0  0  0  0  0  0  0
    4.8809    1.6492    0.0899 C   0  0  0  0  0  0  0  0  0  0  0  0
    6.0370    0.7857   -0.1059 C   0  0  0  0  0  0  0  0  0  0  0  0
    6.1042   -0.0978   -1.1951 C   0  0  0  0  0  0  0  0  0  0  0  0
    7.2170   -0.9248   -1.3737 C   0  0  0  0  0  0  0  0  0  0  0  0
    8.2672   -0.8680   -0.4665 C   0  0  0  0  0  0  0  0  0  0  0  0
    9.3329   -1.6604   -0.6389 F   0  0  0  0  0  0  0  0  0  0  0  0
    8.2285    0.0026    0.6145 C   0  0  0  0  0  0  0  0  0  0  0  0
    7.1163    0.8295    0.7932 C   0  0  0  0  0  0  0  0  0  0  0  0
    5.1636    2.9128    0.5329 O   0  0  0  0  0  0  0  0  0  0  0  0
    4.0046    3.6578    0.6584 N   0  0  0  0  0  0  0  0  0  0  0  0
    2.9918    2.8539    0.3012 C   0  0  0  0  0  0  0  0  0  0  0  0
    1.6107    3.1092    0.2486 C   0  0  0  0  0  0  0  0  0  0  0  0
    0.8364    2.0015   -0.1696 C   0  0  0  0  0  0  0  0  0  0  0  0
   -3.6923   -0.4533    0.4993 C   0  0  0  0  0  0  0  0  0  0  0  0
   -6.3872    0.0927   -1.0478 H   0  0  0  0  0  0  0  0  0  0  0  0
   -7.5858    1.4051   -0.8408 H   0  0  0  0  0  0  0  0  0  0  0  0
   -8.1051   -0.2875   -0.8808 H   0  0  0  0  0  0  0  0  0  0  0  0
   -8.0294    0.4236    1.4700 H   0  0  0  0  0  0  0  0  0  0  0  0
   -5.5471   -1.5612    3.1479 H   0  0  0  0  0  0  0  0  0  0  0  0
   -3.9465   -3.4451    2.9622 H   0  0  0  0  0  0  0  0  0  0  0  0
   -2.1930   -3.4269    1.2303 H   0  0  0  0  0  0  0  0  0  0  0  0
   -1.1112   -2.4468   -0.5902 H   0  0  0  0  0  0  0  0  0  0  0  0
   -2.7487   -0.4580   -2.2555 H   0  0  0  0  0  0  0  0  0  0  0  0
   -1.4626   -1.5151   -2.8286 H   0  0  0  0  0  0  0  0  0  0  0  0
   -2.9835   -2.2147   -2.2568 H   0  0  0  0  0  0  0  0  0  0  0  0
   -0.9479    0.1621    0.4181 H   0  0  0  0  0  0  0  0  0  0  0  0
    3.1959   -0.5228   -0.7147 H   0  0  0  0  0  0  0  0  0  0  0  0
    5.3021   -0.1407   -1.9287 H   0  0  0  0  0  0  0  0  0  0  0  0
    7.2715   -1.6063   -2.2169 H   0  0  0  0  0  0  0  0  0  0  0  0
    9.0610    0.0349    1.3102 H   0  0  0  0  0  0  0  0  0  0  0  0
    7.0964    1.5072    1.6453 H   0  0  0  0  0  0  0  0  0  0  0  0
    1.1832    4.0715    0.4973 H   0  0  0  0  0  0  0  0  0  0  0  0
   -0.2387    2.1552   -0.2646 H   0  0  0  0  0  0  0  0  0  0  0  0
   -3.6203    0.3983   -0.1750 H   0  0  0  0  0  0  0  0  0  0  0  0
  1  2  1  0
  2  3  1  0
  3  4  2  0
  3  5  2  0
  3  6  1  0
  6  7  2  0
  7  8  1  0
  8  9  2  0
  9 10  1  0
 10 11  1  0
 11 12  1  0
 11 13  1  0
 13 14  1  0
 14 15  2  0
 14 16  1  0
 16 17  2  0
 17 18  1  0
 18 19  2  0
 19 20  1  0
 20 21  1  0
 21 22  2  0
 22 23  1  0
 23 24  1  0
 23 25  2  0
 25 26  1  0
 19 27  1  0
 27 28  1  0
 28 29  2  0
 29 30  1  0
 30 31  2  0
 10 32  2  0
 32  6  1  0
 31 16  1  0
 29 18  1  0
 26 20  2  0
  1 33  1  0
  1 34  1  0
  1 35  1  0
  2 36  1  0
  7 37  1  0
  8 38  1  0
  9 39  1  0
 11 40  1  0
 12 41  1  0
 12 42  1  0
 12 43  1  0
 13 44  1  0
 17 45  1  0
 21 46  1  0
 22 47  1  0
 25 48  1  0
 26 49  1  0
 30 50  1  0
 31 51  1  0
 32 52  1  0
M  END
$$$$
OCNT-2312510
     RDKit          3D

 53 56  0  0  0  0  0  0  0  0999 V2000
    3.9315    1.0175   -1.1117 O   0  0  0  0  0  0  0  0  0  0  0  0
    3.8636    0.6988    0.0670 C   0  0  0  0  0  0  0  0  0  0  0  0
    4.8979    0.2752    0.8728 N   0  0  0  0  0  0  0  0  0  0  0  0
    6.2307    0.0203    0.4943 C   0  0  0  0  0  0  0  0  0  0  0  0
    7.1489   -0.2476    1.5204 C   0  0  0  0  0  0  0  0  0  0  0  0
    8.4873   -0.5181    1.2236 C   0  0  0  0  0  0  0  0  0  0  0  0
    8.9057   -0.5263   -0.0999 C   0  0  0  0  0  0  0  0  0  0  0  0
   10.1883   -0.7849   -0.3854 F   0  0  0  0  0  0  0  0  0  0  0  0
    8.0105   -0.2709   -1.1297 C   0  0  0  0  0  0  0  0  0  0  0  0
    6.6714    0.0014   -0.8327 C   0  0  0  0  0  0  0  0  0  0  0  0
    2.6784    0.7365    0.7798 N   0  0  0  0  0  0  0  0  0  0  0  0
    1.4253    1.1217    0.1296 C   0  0  0  0  0  0  0  0  0  0  0  0
    0.4100    1.5785    1.1827 C   0  0  0  0  0  0  0  0  0  0  0  0
   -1.0178    1.2715    0.7479 C   0  0  0  0  0  0  0  0  0  0  0  0
   -1.1708   -0.1794    0.6031 N   0  0  0  0  0  0  0  0  0  0  0  0
   -2.4776   -0.6440    0.4587 C   0  0  0  0  0  0  0  0  0  0  0  0
   -2.7605   -1.9955    0.5124 C   0  0  0  0  0  0  0  0  0  0  0  0
   -4.0820   -2.3921    0.3901 C   0  0  0  0  0  0  0  0  0  0  0  0
   -4.4086   -3.8741    0.4260 C   0  0  0  0  0  0  0  0  0  0  0  0
   -5.7079   -4.1504    0.7299 F   0  0  0  0  0  0  0  0  0  0  0  0
   -4.1612   -4.4893   -0.7662 F   0  0  0  0  0  0  0  0  0  0  0  0
   -3.6632   -4.5541    1.3473 F   0  0  0  0  0  0  0  0  0  0  0  0
   -5.0798   -1.4956    0.2105 N   0  0  0  0  0  0  0  0  0  0  0  0
   -4.7332   -0.1997    0.1847 C   0  0  0  0  0  0  0  0  0  0  0  0
   -5.8035    0.7982    0.0069 C   0  0  0  0  0  0  0  0  0  0  0  0
   -5.5219    2.1708   -0.0681 C   0  0  0  0  0  0  0  0  0  0  0  0
   -6.5608    3.0734   -0.2345 C   0  0  0  0  0  0  0  0  0  0  0  0
   -7.8564    2.7153   -0.3316 N   0  0  0  0  0  0  0  0  0  0  0  0
   -8.1229    1.3960   -0.2602 C   0  0  0  0  0  0  0  0  0  0  0  0
   -7.1514    0.4209   -0.0951 C   0  0  0  0  0  0  0  0  0  0  0  0
   -3.4711    0.2483    0.3114 N   0  0  0  0  0  0  0  0  0  0  0  0
   -0.0812   -0.9225   -0.0416 C   0  0  0  0  0  0  0  0  0  0  0  0
    0.8781    0.0090   -0.7761 C   0  0  0  0  0  0  0  0  0  0  0  0
    4.7076    0.3019    1.8631 H   0  0  0  0  0  0  0  0  0  0  0  0
    6.8382   -0.2444    2.5619 H   0  0  0  0  0  0  0  0  0  0  0  0
    9.2026   -0.7208    2.0140 H   0  0  0  0  0  0  0  0  0  0  0  0
    8.3546   -0.2821   -2.1589 H   0  0  0  0  0  0  0  0  0  0  0  0
    5.9961    0.1931   -1.6608 H   0  0  0  0  0  0  0  0  0  0  0  0
    2.6096    0.0676    1.5326 H   0  0  0  0  0  0  0  0  0  0  0  0
    1.6613    1.9777   -0.5164 H   0  0  0  0  0  0  0  0  0  0  0  0
    0.6023    1.0819    2.1436 H   0  0  0  0  0  0  0  0  0  0  0  0
    0.5277    2.6535    1.3651 H   0  0  0  0  0  0  0  0  0  0  0  0
   -1.2530    1.7874   -0.1918 H   0  0  0  0  0  0  0  0  0  0  0  0
   -1.6946    1.6541    1.5226 H   0  0  0  0  0  0  0  0  0  0  0  0
   -1.9802   -2.7295    0.6736 H   0  0  0  0  0  0  0  0  0  0  0  0
   -4.5026    2.5388    0.0015 H   0  0  0  0  0  0  0  0  0  0  0  0
   -6.3686    4.1409   -0.2954 H   0  0  0  0  0  0  0  0  0  0  0  0
   -9.1730    1.1296   -0.3411 H   0  0  0  0  0  0  0  0  0  0  0  0
   -7.4486   -0.6226   -0.0461 H   0  0  0  0  0  0  0  0  0  0  0  0
   -0.4564   -1.6491   -0.7728 H   0  0  0  0  0  0  0  0  0  0  0  0
    0.4612   -1.4848    0.7277 H   0  0  0  0  0  0  0  0  0  0  0  0
    0.3334    0.4752   -1.6084 H   0  0  0  0  0  0  0  0  0  0  0  0
    1.6864   -0.5768   -1.2284 H   0  0  0  0  0  0  0  0  0  0  0  0
  1  2  2  0
  2  3  1  0
  3  4  1  0
  4  5  1  0
  5  6  2  0
  6  7  1  0
  7  8  1  0
  7  9  2  0
  9 10  1  0
  2 11  1  0
 11 12  1  0
 12 13  1  0
 13 14  1  0
 14 15  1  0
 15 16  1  0
 16 17  2  0
 17 18  1  0
 18 19  1  0
 19 20  1  0
 19 21  1  0
 19 22  1  0
 18 23  2  0
 23 24  1  0
 24 25  1  0
 25 26  2  0
 26 27  1  0
 27 28  2  0
 28 29  1  0
 29 30  2  0
 24 31  2  0
 15 32  1  0
 32 33  1  0
 10  4  2  0
 33 12  1  0
 31 16  1  0
 30 25  1  0
  3 34  1  0
  5 35  1  0
  6 36  1  0
  9 37  1  0
 10 38  1  0
 11 39  1  0
 12 40  1  0
 13 41  1  0
 13 42  1  0
 14 43  1  0
 14 44  1  0
 17 45  1  0
 26 46  1  0
 27 47  1  0
 29 48  1  0
 30 49  1  0
 32 50  1  0
 32 51  1  0
 33 52  1  0
 33 53  1  0
M  END
$$$$
OCNT-2312526
     RDKit          3D

 45 47  0  0  0  0  0  0  0  0999 V2000
    1.8053    0.0705    1.9501 O   0  0  0  0  0  0  0  0  0  0  0  0
    1.8503   -0.1074    0.7380 C   0  0  0  0  0  0  0  0  0  0  0  0
    0.7146   -0.1448   -0.0491 N   0  0  0  0  0  0  0  0  0  0  0  0
   -0.5909    0.1436    0.5177 C   0  0  0  0  0  0  0  0  0  0  0  0
   -1.6343   -0.4903   -0.3981 C   0  0  0  0  0  0  0  0  0  0  0  0
   -1.7019   -2.0404   -0.3331 C   0  0  0  0  0  0  0  0  0  0  0  0
   -3.2271   -1.8486   -0.3457 C   0  0  0  0  0  0  0  0  0  0  0  0
   -3.0036   -0.4842    0.1825 N   0  0  0  0  0  0  0  0  0  0  0  0
   -3.9463    0.4837   -0.3764 C   0  0  0  0  0  0  0  0  0  0  0  0
   -4.1051    0.6760   -1.8903 C   0  0  0  0  0  0  0  0  0  0  0  0
   -4.9294    1.9574   -2.0040 C   0  0  0  0  0  0  0  0  0  0  0  0
   -4.6305    2.7673   -0.7422 C   0  0  0  0  0  0  0  0  0  0  0  0
   -3.6743    1.9166    0.0907 C   0  0  0  0  0  0  0  0  0  0  0  0
    3.1008   -0.2819    0.0166 C   0  0  0  0  0  0  0  0  0  0  0  0
    3.3024   -0.6411   -1.3067 C   0  0  0  0  0  0  0  0  0  0  0  0
    4.6545   -0.6847   -1.4969 N   0  0  0  0  0  0  0  0  0  0  0  0
    5.3582   -0.3605   -0.4035 N   0  0  0  0  0  0  0  0  0  0  0  0
    4.4167   -0.1500    0.5174 C   0  0  0  0  0  0  0  0  0  0  0  0
    4.7659    0.1974    1.7743 O   0  0  0  0  0  0  0  0  0  0  0  0
    6.1357   -0.0432    2.1142 C   0  0  0  0  0  0  0  0  0  0  0  0
    6.4399   -1.4976    2.4449 C   0  0  0  0  0  0  0  0  0  0  0  0
    6.2971   -2.3412    1.4023 F   0  0  0  0  0  0  0  0  0  0  0  0
    7.7241   -1.6143    2.8722 F   0  0  0  0  0  0  0  0  0  0  0  0
    5.6543   -1.9513    3.4498 F   0  0  0  0  0  0  0  0  0  0  0  0
    0.8318   -0.0590   -1.0475 H   0  0  0  0  0  0  0  0  0  0  0  0
   -0.6481   -0.2436    1.5411 H   0  0  0  0  0  0  0  0  0  0  0  0
   -0.6936    1.2321    0.5537 H   0  0  0  0  0  0  0  0  0  0  0  0
   -1.5565   -0.1277   -1.4296 H   0  0  0  0  0  0  0  0  0  0  0  0
   -1.3216   -2.4851    0.5944 H   0  0  0  0  0  0  0  0  0  0  0  0
   -1.2798   -2.5751   -1.1879 H   0  0  0  0  0  0  0  0  0  0  0  0
   -3.7845   -2.5109    0.3229 H   0  0  0  0  0  0  0  0  0  0  0  0
   -3.6580   -1.9243   -1.3499 H   0  0  0  0  0  0  0  0  0  0  0  0
   -4.9346    0.2040    0.0189 H   0  0  0  0  0  0  0  0  0  0  0  0
   -3.1455    0.8324   -2.3921 H   0  0  0  0  0  0  0  0  0  0  0  0
   -4.6113   -0.1619   -2.3784 H   0  0  0  0  0  0  0  0  0  0  0  0
   -5.9981    1.7189   -2.0463 H   0  0  0  0  0  0  0  0  0  0  0  0
   -4.6809    2.5127   -2.9136 H   0  0  0  0  0  0  0  0  0  0  0  0
   -5.5583    2.9518   -0.1896 H   0  0  0  0  0  0  0  0  0  0  0  0
   -4.1912    3.7415   -0.9788 H   0  0  0  0  0  0  0  0  0  0  0  0
   -3.8415    2.0492    1.1642 H   0  0  0  0  0  0  0  0  0  0  0  0
   -2.6456    2.2199   -0.1320 H   0  0  0  0  0  0  0  0  0  0  0  0
    2.6266   -0.8845   -2.1130 H   0  0  0  0  0  0  0  0  0  0  0  0
    5.1635   -0.9247   -2.3423 H   0  0  0  0  0  0  0  0  0  0  0  0
    6.3220    0.5462    3.0196 H   0  0  0  0  0  0  0  0  0  0  0  0
    6.8286    0.3568    1.3637 H   0  0  0  0  0  0  0  0  0  0  0  0
  1  2  2  0
  2  3  1  0
  3  4  1  0
  4  5  1  0
  5  6  1  0
  6  7  1  0
  7  8  1  0
  8  9  1  0
  9 10  1  0
 10 11  1  0
 11 12  1  0
 12 13  1  0
  2 14  1  0
 14 15  2  0
 15 16  1  0
 16 17  1  0
 17 18  2  0
 18 19  1  0
 19 20  1  0
 20 21  1  0
 21 22  1  0
 21 23  1  0
 21 24  1  0
  8  5  1  0
 13  9  1  0
 18 14  1  0
  3 25  1  0
  4 26  1  0
  4 27  1  0
  5 28  1  0
  6 29  1  0
  6 30  1  0
  7 31  1  0
  7 32  1  0
  9 33  1  0
 10 34  1  0
 10 35  1  0
 11 36  1  0
 11 37  1  0
 12 38  1  0
 12 39  1  0
 13 40  1  0
 13 41  1  0
 15 42  1  0
 16 43  1  0
 20 44  1  0
 20 45  1  0
M  END
$$$$
OCNT-2312546
     RDKit          3D

 50 53  0  0  0  0  0  0  0  0999 V2000
   -6.1453   -1.1147    2.3491 C   0  0  0  0  0  0  0  0  0  0  0  0
   -5.2166   -0.2481    1.7133 O   0  0  0  0  0  0  0  0  0  0  0  0
   -5.3198   -0.0890    0.3525 C   0  0  0  0  0  0  0  0  0  0  0  0
   -6.3667   -0.6160   -0.4172 C   0  0  0  0  0  0  0  0  0  0  0  0
   -6.4001   -0.4253   -1.8002 C   0  0  0  0  0  0  0  0  0  0  0  0
   -5.3905    0.2934   -2.4284 C   0  0  0  0  0  0  0  0  0  0  0  0
   -4.3473    0.8267   -1.6720 C   0  0  0  0  0  0  0  0  0  0  0  0
   -4.2907    0.6524   -0.2744 C   0  0  0  0  0  0  0  0  0  0  0  0
   -3.1636    1.2466    0.4751 C   0  0  0  0  0  0  0  0  0  0  0  0
   -3.3873    2.1767    1.5015 C   0  0  0  0  0  0  0  0  0  0  0  0
   -2.3213    2.7431    2.1994 C   0  0  0  0  0  0  0  0  0  0  0  0
   -1.0114    2.3923    1.8742 C   0  0  0  0  0  0  0  0  0  0  0  0
   -0.7552    1.4781    0.8466 C   0  0  0  0  0  0  0  0  0  0  0  0
    0.5936    1.1678    0.5809 N   0  0  0  0  0  0  0  0  0  0  0  0
    1.0960    0.4571   -0.4864 C   0  0  0  0  0  0  0  0  0  0  0  0
    0.4765    0.0547   -1.4615 O   0  0  0  0  0  0  0  0  0  0  0  0
    2.4511    0.2527   -0.3366 N   0  0  0  0  0  0  0  0  0  0  0  0
    3.1881   -0.5068   -1.3239 C   0  0  0  0  0  0  0  0  0  0  0  0
    2.9432   -2.0280   -1.2234 C   0  0  0  0  0  0  0  0  0  0  0  0
    3.9869   -2.5821   -0.2414 C   0  0  0  0  0  0  0  0  0  0  0  0
    5.1134   -1.6149   -0.4303 C   0  0  0  0  0  0  0  0  0  0  0  0
    6.4355   -1.7584   -0.0422 C   0  0  0  0  0  0  0  0  0  0  0  0
    7.3179   -0.7022   -0.2860 C   0  0  0  0  0  0  0  0  0  0  0  0
    6.8571    0.4713   -0.8975 C   0  0  0  0  0  0  0  0  0  0  0  0
    7.7006    1.5174   -1.1374 O   0  0  0  0  0  0  0  0  0  0  0  0
    5.5262    0.6191   -1.2767 C   0  0  0  0  0  0  0  0  0  0  0  0
    4.6615   -0.4377   -1.0410 C   0  0  0  0  0  0  0  0  0  0  0  0
   -1.8325    0.9077    0.1616 C   0  0  0  0  0  0  0  0  0  0  0  0
   -5.8717   -1.1792    3.4066 H   0  0  0  0  0  0  0  0  0  0  0  0
   -6.0967   -2.1259    1.9315 H   0  0  0  0  0  0  0  0  0  0  0  0
   -7.1612   -0.7103    2.2940 H   0  0  0  0  0  0  0  0  0  0  0  0
   -7.1763   -1.1820    0.0309 H   0  0  0  0  0  0  0  0  0  0  0  0
   -7.2158   -0.8408   -2.3862 H   0  0  0  0  0  0  0  0  0  0  0  0
   -5.4113    0.4421   -3.5047 H   0  0  0  0  0  0  0  0  0  0  0  0
   -3.5673    1.3925   -2.1796 H   0  0  0  0  0  0  0  0  0  0  0  0
   -4.4048    2.4601    1.7632 H   0  0  0  0  0  0  0  0  0  0  0  0
   -2.5143    3.4572    2.9952 H   0  0  0  0  0  0  0  0  0  0  0  0
   -0.1976    2.8475    2.4317 H   0  0  0  0  0  0  0  0  0  0  0  0
    1.2848    1.6506    1.1343 H   0  0  0  0  0  0  0  0  0  0  0  0
    2.8000    0.2167    0.6088 H   0  0  0  0  0  0  0  0  0  0  0  0
    2.9433   -0.1440   -2.3284 H   0  0  0  0  0  0  0  0  0  0  0  0
    1.9235   -2.2955   -0.9282 H   0  0  0  0  0  0  0  0  0  0  0  0
    3.1223   -2.4787   -2.2101 H   0  0  0  0  0  0  0  0  0  0  0  0
    4.2691   -3.6075   -0.4964 H   0  0  0  0  0  0  0  0  0  0  0  0
    3.6223   -2.5383    0.7901 H   0  0  0  0  0  0  0  0  0  0  0  0
    6.7818   -2.6674    0.4397 H   0  0  0  0  0  0  0  0  0  0  0  0
    8.3574   -0.8052    0.0101 H   0  0  0  0  0  0  0  0  0  0  0  0
    8.5945    1.2648   -0.8547 H   0  0  0  0  0  0  0  0  0  0  0  0
    5.1804    1.5367   -1.7408 H   0  0  0  0  0  0  0  0  0  0  0  0
   -1.6619    0.1732   -0.6210 H   0  0  0  0  0  0  0  0  0  0  0  0
  1  2  1  0
  2  3  1  0
  3  4  2  0
  4  5  1  0
  5  6  2  0
  6  7  1  0
  7  8  2  0
  8  9  1  0
  9 10  1  0
 10 11  2  0
 11 12  1  0
 12 13  2  0
 13 14  1  0
 14 15  1  0
 15 16  2  0
 15 17  1  0
 17 18  1  0
 18 19  1  0
 19 20  1  0
 20 21  1  0
 21 22  1  0
 22 23  2  0
 23 24  1  0
 24 25  1  0
 24 26  2  0
 26 27  1  0
 13 28  1  0
  8  3  1  0
 28  9  2  0
 27 18  1  0
 27 21  2  0
  1 29  1  0
  1 30  1  0
  1 31  1  0
  4 32  1  0
  5 33  1  0
  6 34  1  0
  7 35  1  0
 10 36  1  0
 11 37  1  0
 12 38  1  0
 14 39  1  0
 17 40  1  0
 18 41  1  0
 19 42  1  0
 19 43  1  0
 20 44  1  0
 20 45  1  0
 22 46  1  0
 23 47  1  0
 25 48  1  0
 26 49  1  0
 28 50  1  0
M  END
$$$$
OCNT-2312554
     RDKit          3D

 42 45  0  0  0  0  0  0  0  0999 V2000
   -0.9634    0.5665    1.5139 O   0  0  0  0  0  0  0  0  0  0  0  0
   -0.9107    0.1494    0.3635 C   0  0  0  0  0  0  0  0  0  0  0  0
    0.2627   -0.1898   -0.2793 N   0  0  0  0  0  0  0  0  0  0  0  0
    1.5278   -0.1709    0.4405 C   0  0  0  0  0  0  0  0  0  0  0  0
    2.7231   -0.0696   -0.5121 C   0  0  0  0  0  0  0  0  0  0  0  0
    2.8498    1.3242   -1.1695 C   0  0  0  0  0  0  0  0  0  0  0  0
    3.7397    2.1726   -0.2488 C   0  0  0  0  0  0  0  0  0  0  0  0
    4.6085    1.1190    0.3623 C   0  0  0  0  0  0  0  0  0  0  0  0
    5.8051    1.2906    1.0370 C   0  0  0  0  0  0  0  0  0  0  0  0
    6.4384    0.1616    1.5604 C   0  0  0  0  0  0  0  0  0  0  0  0
    5.8676   -1.1121    1.4125 C   0  0  0  0  0  0  0  0  0  0  0  0
    4.6540   -1.2748    0.7412 C   0  0  0  0  0  0  0  0  0  0  0  0
    4.0338   -0.1498    0.2214 C   0  0  0  0  0  0  0  0  0  0  0  0
   -2.1688   -0.0510   -0.4035 C   0  0  0  0  0  0  0  0  0  0  0  0
   -2.1976    0.0013   -1.7957 C   0  0  0  0  0  0  0  0  0  0  0  0
   -3.4146   -0.1880   -2.4189 C   0  0  0  0  0  0  0  0  0  0  0  0
   -4.5669   -0.4170   -1.7552 N   0  0  0  0  0  0  0  0  0  0  0  0
   -4.5296   -0.4443   -0.3962 C   0  0  0  0  0  0  0  0  0  0  0  0
   -5.7593   -0.6709    0.2835 N   0  0  0  0  0  0  0  0  0  0  0  0
   -6.9836   -0.8725   -0.3196 C   0  0  0  0  0  0  0  0  0  0  0  0
   -7.8842   -1.0555    0.7007 C   0  0  0  0  0  0  0  0  0  0  0  0
   -7.2620   -0.9735    1.9152 N   0  0  0  0  0  0  0  0  0  0  0  0
   -5.9966   -0.7401    1.6375 C   0  0  0  0  0  0  0  0  0  0  0  0
   -3.3512   -0.2629    0.3142 C   0  0  0  0  0  0  0  0  0  0  0  0
    0.2003   -0.8092   -1.0761 H   0  0  0  0  0  0  0  0  0  0  0  0
    1.5220    0.6531    1.1642 H   0  0  0  0  0  0  0  0  0  0  0  0
    1.5722   -1.1029    1.0169 H   0  0  0  0  0  0  0  0  0  0  0  0
    2.6661   -0.8399   -1.2904 H   0  0  0  0  0  0  0  0  0  0  0  0
    3.3561    1.2108   -2.1390 H   0  0  0  0  0  0  0  0  0  0  0  0
    1.8873    1.8053   -1.3707 H   0  0  0  0  0  0  0  0  0  0  0  0
    3.1490    2.6720    0.5258 H   0  0  0  0  0  0  0  0  0  0  0  0
    4.3129    2.9098   -0.8179 H   0  0  0  0  0  0  0  0  0  0  0  0
    6.2434    2.2758    1.1601 H   0  0  0  0  0  0  0  0  0  0  0  0
    7.3807    0.2697    2.0920 H   0  0  0  0  0  0  0  0  0  0  0  0
    6.3745   -1.9788    1.8301 H   0  0  0  0  0  0  0  0  0  0  0  0
    4.2131   -2.2608    0.6362 H   0  0  0  0  0  0  0  0  0  0  0  0
   -1.3150    0.2113   -2.3878 H   0  0  0  0  0  0  0  0  0  0  0  0
   -3.5039   -0.1536   -3.5016 H   0  0  0  0  0  0  0  0  0  0  0  0
   -7.0965   -0.8676   -1.3946 H   0  0  0  0  0  0  0  0  0  0  0  0
   -8.9477   -1.2418    0.6226 H   0  0  0  0  0  0  0  0  0  0  0  0
   -5.2262   -0.6154    2.3854 H   0  0  0  0  0  0  0  0  0  0  0  0
   -3.3107   -0.2801    1.3978 H   0  0  0  0  0  0  0  0  0  0  0  0
  1  2  2  0
  2  3  1  0
  3  4  1  0
  4  5  1  0
  5  6  1  0
  6  7  1  0
  7  8  1  0
  8  9  2  0
  9 10  1  0
 10 11  2  0
 11 12  1  0
 12 13  2  0
  2 14  1  0
 14 15  2  0
 15 16  1  0
 16 17  2  0
 17 18  1  0
 18 19  1  0
 19 20  1  0
 20 21  2  0
 21 22  1  0
 22 23  2  0
 18 24  2  0
 13  5  1  0
 24 14  1  0
 13  8  1  0
 23 19  1  0
  3 25  1  0
  4 26  1  0
  4 27  1  0
  5 28  1  0
  6 29  1  0
  6 30  1  0
  7 31  1  0
  7 32  1  0
  9 33  1  0
 10 34  1  0
 11 35  1  0
 12 36  1  0
 15 37  1  0
 16 38  1  0
 20 39  1  0
 21 40  1  0
 23 41  1  0
 24 42  1  0
M  END
$$$$
OCNT-2312556
     RDKit          3D

 53 55  0  0  0  0  0  0  0  0999 V2000
   -3.0791    2.3661   -1.7475 C   0  0  0  0  0  0  0  0  0  0  0  0
   -3.2442    0.9159   -2.1884 C   0  0  0  0  0  0  0  0  0  0  0  0
   -3.4132   -0.1558   -1.0795 C   0  0  0  0  0  0  0  0  0  0  0  0
   -4.0749    0.3143    0.2062 C   0  0  0  0  0  0  0  0  0  0  0  0
   -5.4595    0.1769    0.3729 C   0  0  0  0  0  0  0  0  0  0  0  0
   -6.0426    0.6132    1.5535 C   0  0  0  0  0  0  0  0  0  0  0  0
   -5.3548    1.1742    2.5682 N   0  0  0  0  0  0  0  0  0  0  0  0
   -4.0246    1.3125    2.3889 C   0  0  0  0  0  0  0  0  0  0  0  0
   -3.3512    0.9052    1.2471 C   0  0  0  0  0  0  0  0  0  0  0  0
   -2.2443   -1.0414   -0.8373 N   0  0  0  0  0  0  0  0  0  0  0  0
   -2.5462   -2.4742   -0.7040 C   0  0  0  0  0  0  0  0  0  0  0  0
   -2.5897   -3.1733   -2.0552 C   0  0  0  0  0  0  0  0  0  0  0  0
   -0.9565   -0.5232   -0.7189 C   0  0  0  0  0  0  0  0  0  0  0  0
   -0.7162    0.6797   -0.7906 O   0  0  0  0  0  0  0  0  0  0  0  0
    0.1758   -1.5127   -0.4711 C   0  0  0  0  0  0  0  0  0  0  0  0
    1.5718   -0.8838   -0.4957 C   0  0  0  0  0  0  0  0  0  0  0  0
    1.8476    0.0147    0.7142 C   0  0  0  0  0  0  0  0  0  0  0  0
    3.2667    0.2866    0.8547 N   0  0  0  0  0  0  0  0  0  0  0  0
    4.1309   -0.5268    1.5370 C   0  0  0  0  0  0  0  0  0  0  0  0
    3.9020   -1.5577    2.1407 O   0  0  0  0  0  0  0  0  0  0  0  0
    5.4588    0.0667    1.3959 C   0  0  0  0  0  0  0  0  0  0  0  0
    6.6795   -0.3383    1.8994 C   0  0  0  0  0  0  0  0  0  0  0  0
    7.7933    0.4453    1.5804 C   0  0  0  0  0  0  0  0  0  0  0  0
    7.6617    1.5964    0.7754 C   0  0  0  0  0  0  0  0  0  0  0  0
    6.4141    1.9836    0.2757 C   0  0  0  0  0  0  0  0  0  0  0  0
    5.3296    1.1949    0.6067 C   0  0  0  0  0  0  0  0  0  0  0  0
    3.9192    1.3228    0.2439 C   0  0  0  0  0  0  0  0  0  0  0  0
    3.4822    2.1972   -0.4786 O   0  0  0  0  0  0  0  0  0  0  0  0
   -2.2271    2.5140   -1.0820 H   0  0  0  0  0  0  0  0  0  0  0  0
   -3.9788    2.7303   -1.2411 H   0  0  0  0  0  0  0  0  0  0  0  0
   -2.9251    3.0019   -2.6261 H   0  0  0  0  0  0  0  0  0  0  0  0
   -4.1509    0.8934   -2.8098 H   0  0  0  0  0  0  0  0  0  0  0  0
   -2.4260    0.6368   -2.8632 H   0  0  0  0  0  0  0  0  0  0  0  0
   -4.1396   -0.8448   -1.5363 H   0  0  0  0  0  0  0  0  0  0  0  0
   -6.0831   -0.2611   -0.3995 H   0  0  0  0  0  0  0  0  0  0  0  0
   -7.1125    0.5203    1.7165 H   0  0  0  0  0  0  0  0  0  0  0  0
   -3.4917    1.7791    3.2126 H   0  0  0  0  0  0  0  0  0  0  0  0
   -2.2813    1.0667    1.1760 H   0  0  0  0  0  0  0  0  0  0  0  0
   -1.8071   -2.9665   -0.0680 H   0  0  0  0  0  0  0  0  0  0  0  0
   -3.5082   -2.5850   -0.1901 H   0  0  0  0  0  0  0  0  0  0  0  0
   -3.3694   -2.7506   -2.6967 H   0  0  0  0  0  0  0  0  0  0  0  0
   -1.6377   -3.0755   -2.5858 H   0  0  0  0  0  0  0  0  0  0  0  0
   -2.8004   -4.2390   -1.9234 H   0  0  0  0  0  0  0  0  0  0  0  0
    0.1428   -2.2759   -1.2553 H   0  0  0  0  0  0  0  0  0  0  0  0
    0.0192   -1.9956    0.4994 H   0  0  0  0  0  0  0  0  0  0  0  0
    2.3054   -1.7001   -0.5134 H   0  0  0  0  0  0  0  0  0  0  0  0
    1.7220   -0.3136   -1.4207 H   0  0  0  0  0  0  0  0  0  0  0  0
    1.5062   -0.4755    1.6330 H   0  0  0  0  0  0  0  0  0  0  0  0
    1.3237    0.9705    0.6181 H   0  0  0  0  0  0  0  0  0  0  0  0
    6.7661   -1.2273    2.5155 H   0  0  0  0  0  0  0  0  0  0  0  0
    8.7757    0.1644    1.9564 H   0  0  0  0  0  0  0  0  0  0  0  0
    8.5440    2.1894    0.5402 H   0  0  0  0  0  0  0  0  0  0  0  0
    6.2976    2.8651   -0.3466 H   0  0  0  0  0  0  0  0  0  0  0  0
  1  2  1  0
  2  3  1  0
  3  4  1  0
  4  5  2  0
  5  6  1  0
  6  7  2  0
  7  8  1  0
  8  9  2  0
  3 10  1  0
 10 11  1  0
 11 12  1  0
 10 13  1  0
 13 14  2  0
 13 15  1  0
 15 16  1  0
 16 17  1  0
 17 18  1  0
 18 19  1  0
 19 20  2  0
 19 21  1  0
 21 22  2  0
 22 23  1  0
 23 24  2  0
 24 25  1  0
 25 26  2  0
 26 27  1  0
 27 28  2  0
  9  4  1  0
 27 18  1  0
 26 21  1  0
  1 29  1  0
  1 30  1  0
  1 31  1  0
  2 32  1  0
  2 33  1  0
  3 34  1  0
  5 35  1  0
  6 36  1  0
  8 37  1  0
  9 38  1  0
 11 39  1  0
 11 40  1  0
 12 41  1  0
 12 42  1  0
 12 43  1  0
 15 44  1  0
 15 45  1  0
 16 46  1  0
 16 47  1  0
 17 48  1  0
 17 49  1  0
 22 50  1  0
 23 51  1  0
 24 52  1  0
 25 53  1  0
M  END
$$$$
OCNT-2312575
     RDKit          3D

 49 51  0  0  0  0  0  0  0  0999 V2000
    6.2447    0.6337    1.6201 C   0  0  0  0  0  0  0  0  0  0  0  0
    6.2798   -0.1553    0.3407 C   0  0  0  0  0  0  0  0  0  0  0  0
    7.4927   -0.2637   -0.3601 C   0  0  0  0  0  0  0  0  0  0  0  0
    7.5711   -0.9901   -1.5498 C   0  0  0  0  0  0  0  0  0  0  0  0
    6.4420   -1.6292   -2.0536 C   0  0  0  0  0  0  0  0  0  0  0  0
    5.2310   -1.5423   -1.3675 C   0  0  0  0  0  0  0  0  0  0  0  0
    5.1412   -0.8060   -0.1739 C   0  0  0  0  0  0  0  0  0  0  0  0
    3.8323   -0.7526    0.5377 C   0  0  0  0  0  0  0  0  0  0  0  0
    3.7605   -0.8546    1.7561 O   0  0  0  0  0  0  0  0  0  0  0  0
    2.7310   -0.5698   -0.2630 N   0  0  0  0  0  0  0  0  0  0  0  0
    1.3994   -0.4659    0.2993 C   0  0  0  0  0  0  0  0  0  0  0  0
    0.3804   -0.1906   -0.8128 C   0  0  0  0  0  0  0  0  0  0  0  0
    0.7353   -0.1693   -1.9956 O   0  0  0  0  0  0  0  0  0  0  0  0
   -0.9361    0.0340   -0.4230 N   0  0  0  0  0  0  0  0  0  0  0  0
   -1.9327    0.3577   -1.4426 C   0  0  0  0  0  0  0  0  0  0  0  0
   -2.9180    1.4122   -0.9485 C   0  0  0  0  0  0  0  0  0  0  0  0
   -3.6127    1.0103    0.3694 C   0  0  0  0  0  0  0  0  0  0  0  0
   -5.0921    0.7111    0.1908 C   0  0  0  0  0  0  0  0  0  0  0  0
   -6.0426    1.4221    0.9395 C   0  0  0  0  0  0  0  0  0  0  0  0
   -7.4065    1.1596    0.7952 C   0  0  0  0  0  0  0  0  0  0  0  0
   -7.8388    0.1818   -0.0971 C   0  0  0  0  0  0  0  0  0  0  0  0
   -6.9078   -0.5349   -0.8447 C   0  0  0  0  0  0  0  0  0  0  0  0
   -5.5436   -0.2735   -0.7016 C   0  0  0  0  0  0  0  0  0  0  0  0
   -2.9008   -0.1519    1.0827 C   0  0  0  0  0  0  0  0  0  0  0  0
   -1.3871   -0.0230    0.9677 C   0  0  0  0  0  0  0  0  0  0  0  0
    7.1457    1.2465    1.7334 H   0  0  0  0  0  0  0  0  0  0  0  0
    6.1881   -0.0402    2.4804 H   0  0  0  0  0  0  0  0  0  0  0  0
    5.3926    1.3210    1.6302 H   0  0  0  0  0  0  0  0  0  0  0  0
    8.3903    0.2212    0.0194 H   0  0  0  0  0  0  0  0  0  0  0  0
    8.5181   -1.0619   -2.0792 H   0  0  0  0  0  0  0  0  0  0  0  0
    6.5065   -2.2036   -2.9743 H   0  0  0  0  0  0  0  0  0  0  0  0
    4.3659   -2.0728   -1.7582 H   0  0  0  0  0  0  0  0  0  0  0  0
    2.8241   -0.3832   -1.2573 H   0  0  0  0  0  0  0  0  0  0  0  0
    1.3947    0.3516    1.0264 H   0  0  0  0  0  0  0  0  0  0  0  0
    1.1694   -1.4142    0.7935 H   0  0  0  0  0  0  0  0  0  0  0  0
   -1.4444    0.7155   -2.3552 H   0  0  0  0  0  0  0  0  0  0  0  0
   -2.4506   -0.5734   -1.6985 H   0  0  0  0  0  0  0  0  0  0  0  0
   -2.3540    2.3376   -0.7662 H   0  0  0  0  0  0  0  0  0  0  0  0
   -3.6407    1.6510   -1.7376 H   0  0  0  0  0  0  0  0  0  0  0  0
   -3.5334    1.8873    1.0283 H   0  0  0  0  0  0  0  0  0  0  0  0
   -5.7294    2.1899    1.6437 H   0  0  0  0  0  0  0  0  0  0  0  0
   -8.1315    1.7192    1.3804 H   0  0  0  0  0  0  0  0  0  0  0  0
   -8.9003   -0.0221   -0.2091 H   0  0  0  0  0  0  0  0  0  0  0  0
   -7.2436   -1.2998   -1.5402 H   0  0  0  0  0  0  0  0  0  0  0  0
   -4.8385   -0.8506   -1.2943 H   0  0  0  0  0  0  0  0  0  0  0  0
   -3.1949   -0.1769    2.1393 H   0  0  0  0  0  0  0  0  0  0  0  0
   -3.2041   -1.1174    0.6570 H   0  0  0  0  0  0  0  0  0  0  0  0
   -1.0427    0.8943    1.4596 H   0  0  0  0  0  0  0  0  0  0  0  0
   -0.9093   -0.8688    1.4712 H   0  0  0  0  0  0  0  0  0  0  0  0
  1  2  1  0
  2  3  2  0
  3  4  1  0
  4  5  2  0
  5  6  1  0
  6  7  2  0
  7  8  1  0
  8  9  2  0
  8 10  1  0
 10 11  1  0
 11 12  1  0
 12 13  2  0
 12 14  1  0
 14 15  1  0
 15 16  1  0
 16 17  1  0
 17 18  1  0
 18 19  2  0
 19 20  1  0
 20 21  2  0
 21 22  1  0
 22 23  2  0
 17 24  1  0
 24 25  1  0
  7  2  1  0
 25 14  1  0
 23 18  1  0
  1 26  1  0
  1 27  1  0
  1 28  1  0
  3 29  1  0
  4 30  1  0
  5 31  1  0
  6 32  1  0
 10 33  1  0
 11 34  1  0
 11 35  1  0
 15 36  1  0
 15 37  1  0
 16 38  1  0
 16 39  1  0
 17 40  1  0
 19 41  1  0
 20 42  1  0
 21 43  1  0
 22 44  1  0
 23 45  1  0
 24 46  1  0
 24 47  1  0
 25 48  1  0
 25 49  1  0
M  END
$$$$
OCNT-2312594
     RDKit          3D

 45 48  0  0  0  0  0  0  0  0999 V2000
   -2.1776    0.8875   -2.3829 O   0  0  0  0  0  0  0  0  0  0  0  0
   -1.9342    0.5038   -1.2463 C   0  0  0  0  0  0  0  0  0  0  0  0
   -1.0226    1.0919   -0.4049 N   0  0  0  0  0  0  0  0  0  0  0  0
   -0.2553    2.2629   -0.7880 C   0  0  0  0  0  0  0  0  0  0  0  0
    0.8080    1.9865   -1.8544 C   0  0  0  0  0  0  0  0  0  0  0  0
    1.8047    0.9716   -1.4224 C   0  0  0  0  0  0  0  0  0  0  0  0
    2.7704    1.2589   -0.5412 N   0  0  0  0  0  0  0  0  0  0  0  0
    3.4336    0.0716   -0.4323 N   0  0  0  0  0  0  0  0  0  0  0  0
    4.5629   -0.0883    0.4118 C   0  0  0  0  0  0  0  0  0  0  0  0
    5.0411    0.9971    1.1602 C   0  0  0  0  0  0  0  0  0  0  0  0
    6.1522    0.8350    1.9904 C   0  0  0  0  0  0  0  0  0  0  0  0
    6.7869   -0.4041    2.0762 C   0  0  0  0  0  0  0  0  0  0  0  0
    6.3147   -1.4858    1.3328 C   0  0  0  0  0  0  0  0  0  0  0  0
    5.2043   -1.3323    0.5001 C   0  0  0  0  0  0  0  0  0  0  0  0
    2.9279   -0.9549   -1.1718 N   0  0  0  0  0  0  0  0  0  0  0  0
    1.9094   -0.3736   -1.8058 C   0  0  0  0  0  0  0  0  0  0  0  0
   -2.6307   -0.6997   -0.6663 C   0  0  0  0  0  0  0  0  0  0  0  0
   -3.9030   -0.4088    0.1251 C   0  0  0  0  0  0  0  0  0  0  0  0
   -5.1192   -0.1543   -0.5357 C   0  0  0  0  0  0  0  0  0  0  0  0
   -6.2918    0.1256    0.1723 C   0  0  0  0  0  0  0  0  0  0  0  0
   -6.2653    0.1596    1.5623 C   0  0  0  0  0  0  0  0  0  0  0  0
   -7.7042    0.5032    2.4395 Cl  0  0  0  0  0  0  0  0  0  0  0  0
   -5.0777   -0.0805    2.2461 C   0  0  0  0  0  0  0  0  0  0  0  0
   -3.9083   -0.3590    1.5311 C   0  0  0  0  0  0  0  0  0  0  0  0
   -2.6103   -1.9778   -1.5046 C   0  0  0  0  0  0  0  0  0  0  0  0
   -1.7747   -1.9017   -0.2681 C   0  0  0  0  0  0  0  0  0  0  0  0
   -0.8769    0.6937    0.5138 H   0  0  0  0  0  0  0  0  0  0  0  0
    0.2041    2.6551    0.1261 H   0  0  0  0  0  0  0  0  0  0  0  0
   -0.9570    3.0169   -1.1625 H   0  0  0  0  0  0  0  0  0  0  0  0
    1.3262    2.9239   -2.0915 H   0  0  0  0  0  0  0  0  0  0  0  0
    0.3325    1.6535   -2.7846 H   0  0  0  0  0  0  0  0  0  0  0  0
    4.5611    1.9721    1.1052 H   0  0  0  0  0  0  0  0  0  0  0  0
    6.5237    1.6768    2.5696 H   0  0  0  0  0  0  0  0  0  0  0  0
    7.6524   -0.5268    2.7227 H   0  0  0  0  0  0  0  0  0  0  0  0
    6.8124   -2.4501    1.4003 H   0  0  0  0  0  0  0  0  0  0  0  0
    4.8520   -2.1877   -0.0732 H   0  0  0  0  0  0  0  0  0  0  0  0
    1.2997   -0.9429   -2.4945 H   0  0  0  0  0  0  0  0  0  0  0  0
   -5.1487   -0.1677   -1.6248 H   0  0  0  0  0  0  0  0  0  0  0  0
   -7.2143    0.3183   -0.3686 H   0  0  0  0  0  0  0  0  0  0  0  0
   -5.0523   -0.0520    3.3321 H   0  0  0  0  0  0  0  0  0  0  0  0
   -2.9885   -0.5413    2.0826 H   0  0  0  0  0  0  0  0  0  0  0  0
   -2.1098   -1.9465   -2.4667 H   0  0  0  0  0  0  0  0  0  0  0  0
   -3.4807   -2.6244   -1.4903 H   0  0  0  0  0  0  0  0  0  0  0  0
   -2.0781   -2.5128    0.5747 H   0  0  0  0  0  0  0  0  0  0  0  0
   -0.6990   -1.8422   -0.3939 H   0  0  0  0  0  0  0  0  0  0  0  0
  1  2  2  0
  2  3  1  0
  3  4  1  0
  4  5  1  0
  5  6  1  0
  6  7  2  0
  7  8  1  0
  8  9  1  0
  9 10  2  0
 10 11  1  0
 11 12  2  0
 12 13  1  0
 13 14  2  0
  8 15  1  0
 15 16  2  0
  2 17  1  0
 17 18  1  0
 18 19  1  0
 19 20  2  0
 20 21  1  0
 21 22  1  0
 21 23  2  0
 23 24  1  0
 17 25  1  0
 25 26  1  0
 16  6  1  0
 26 17  1  0
 14  9  1  0
 24 18  2  0
  3 27  1  0
  4 28  1  0
  4 29  1  0
  5 30  1  0
  5 31  1  0
 10 32  1  0
 11 33  1  0
 12 34  1  0
 13 35  1  0
 14 36  1  0
 16 37  1  0
 19 38  1  0
 20 39  1  0
 23 40  1  0
 24 41  1  0
 25 42  1  0
 25 43  1  0
 26 44  1  0
 26 45  1  0
M  END
$$$$
OCNT-2312606
     RDKit          3D

 47 51  0  0  0  0  0  0  0  0999 V2000
   -2.8044   -0.0053   -2.2556 O   0  0  0  0  0  0  0  0  0  0  0  0
   -2.2714    0.0227   -1.1477 C   0  0  0  0  0  0  0  0  0  0  0  0
   -3.0358    0.4186    0.0362 C   0  0  0  0  0  0  0  0  0  0  0  0
   -2.5787    1.1861    1.0962 C   0  0  0  0  0  0  0  0  0  0  0  0
   -3.6066    1.3626    1.9820 N   0  0  0  0  0  0  0  0  0  0  0  0
   -4.7454    0.7501    1.5154 C   0  0  0  0  0  0  0  0  0  0  0  0
   -6.0273    0.6812    2.0772 C   0  0  0  0  0  0  0  0  0  0  0  0
   -7.0088   -0.0067    1.3581 C   0  0  0  0  0  0  0  0  0  0  0  0
   -8.6011   -0.1183    2.0080 Cl  0  0  0  0  0  0  0  0  0  0  0  0
   -6.7279   -0.5994    0.1308 C   0  0  0  0  0  0  0  0  0  0  0  0
   -5.4402   -0.5205   -0.4135 C   0  0  0  0  0  0  0  0  0  0  0  0
   -4.4247    0.1641    0.2891 C   0  0  0  0  0  0  0  0  0  0  0  0
   -0.9074   -0.2755   -0.9739 N   0  0  0  0  0  0  0  0  0  0  0  0
   -0.4664   -1.0801    0.1679 C   0  0  0  0  0  0  0  0  0  0  0  0
    1.0105   -0.8574    0.4682 C   0  0  0  0  0  0  0  0  0  0  0  0
    1.8542   -1.0958   -0.7891 C   0  0  0  0  0  0  0  0  0  0  0  0
    3.2768   -0.9517   -0.5489 N   0  0  0  0  0  0  0  0  0  0  0  0
    4.1994   -2.0196   -0.6557 C   0  0  0  0  0  0  0  0  0  0  0  0
    3.9699   -3.1797   -0.9542 O   0  0  0  0  0  0  0  0  0  0  0  0
    5.4601   -1.4950   -0.3459 N   0  0  0  0  0  0  0  0  0  0  0  0
    5.3295   -0.1450   -0.0510 C   0  0  0  0  0  0  0  0  0  0  0  0
    6.3096    0.7533    0.3067 C   0  0  0  0  0  0  0  0  0  0  0  0
    5.9010    2.0657    0.5534 C   0  0  0  0  0  0  0  0  0  0  0  0
    4.5451    2.4341    0.4374 C   0  0  0  0  0  0  0  0  0  0  0  0
    3.5683    1.4982    0.0718 C   0  0  0  0  0  0  0  0  0  0  0  0
    3.9826    0.2058   -0.1709 C   0  0  0  0  0  0  0  0  0  0  0  0
    1.3537   -0.2563   -1.9692 C   0  0  0  0  0  0  0  0  0  0  0  0
   -0.1370   -0.4793   -2.1981 C   0  0  0  0  0  0  0  0  0  0  0  0
   -1.6090    1.6277    1.2840 H   0  0  0  0  0  0  0  0  0  0  0  0
   -3.5504    1.8864    2.8452 H   0  0  0  0  0  0  0  0  0  0  0  0
   -6.2528    1.1465    3.0308 H   0  0  0  0  0  0  0  0  0  0  0  0
   -7.5049   -1.1260   -0.4171 H   0  0  0  0  0  0  0  0  0  0  0  0
   -5.2261   -0.9792   -1.3761 H   0  0  0  0  0  0  0  0  0  0  0  0
   -0.6511   -2.1315   -0.0878 H   0  0  0  0  0  0  0  0  0  0  0  0
   -1.0553   -0.8810    1.0647 H   0  0  0  0  0  0  0  0  0  0  0  0
    1.1463    0.1636    0.8405 H   0  0  0  0  0  0  0  0  0  0  0  0
    1.3308   -1.5315    1.2716 H   0  0  0  0  0  0  0  0  0  0  0  0
    1.6986   -2.1468   -1.0710 H   0  0  0  0  0  0  0  0  0  0  0  0
    6.3054   -2.0413   -0.3451 H   0  0  0  0  0  0  0  0  0  0  0  0
    7.3494    0.4628    0.3941 H   0  0  0  0  0  0  0  0  0  0  0  0
    6.6366    2.8153    0.8384 H   0  0  0  0  0  0  0  0  0  0  0  0
    4.2542    3.4643    0.6344 H   0  0  0  0  0  0  0  0  0  0  0  0
    2.5335    1.8037   -0.0113 H   0  0  0  0  0  0  0  0  0  0  0  0
    1.9104   -0.5101   -2.8792 H   0  0  0  0  0  0  0  0  0  0  0  0
    1.5236    0.8098   -1.7860 H   0  0  0  0  0  0  0  0  0  0  0  0
   -0.3301   -1.4992   -2.5531 H   0  0  0  0  0  0  0  0  0  0  0  0
   -0.4868    0.2095   -2.9758 H   0  0  0  0  0  0  0  0  0  0  0  0
  1  2  2  0
  2  3  1  0
  3  4  2  0
  4  5  1  0
  5  6  1  0
  6  7  2  0
  7  8  1  0
  8  9  1  0
  8 10  2  0
 10 11  1  0
 11 12  2  0
  2 13  1  0
 13 14  1  0
 14 15  1  0
 15 16  1  0
 16 17  1  0
 17 18  1  0
 18 19  2  0
 18 20  1  0
 20 21  1  0
 21 22  2  0
 22 23  1  0
 23 24  2  0
 24 25  1  0
 25 26  2  0
 16 27  1  0
 27 28  1  0
 12  3  1  0
 28 13  1  0
 12  6  1  0
 26 17  1  0
 26 21  1  0
  4 29  1  0
  5 30  1  0
  7 31  1  0
 10 32  1  0
 11 33  1  0
 14 34  1  0
 14 35  1  0
 15 36  1  0
 15 37  1  0
 16 38  1  0
 20 39  1  0
 22 40  1  0
 23 41  1  0
 24 42  1  0
 25 43  1  0
 27 44  1  0
 27 45  1  0
 28 46  1  0
 28 47  1  0
M  END
$$$$
OCNT-2312607
     RDKit          3D

 43 46  0  0  0  0  0  0  0  0999 V2000
   -2.2039    1.8126   -2.2130 C   0  0  0  0  0  0  0  0  0  0  0  0
   -1.8190    1.4579   -0.8869 O   0  0  0  0  0  0  0  0  0  0  0  0
   -2.4802    0.3560   -0.4724 C   0  0  0  0  0  0  0  0  0  0  0  0
   -1.9577   -0.9228   -0.4907 C   0  0  0  0  0  0  0  0  0  0  0  0
   -0.6914   -1.4862   -0.8999 C   0  0  0  0  0  0  0  0  0  0  0  0
   -0.6571   -2.5868   -1.4537 O   0  0  0  0  0  0  0  0  0  0  0  0
    0.4837   -0.8156   -0.6094 N   0  0  0  0  0  0  0  0  0  0  0  0
    0.6632    0.2956    0.3150 C   0  0  0  0  0  0  0  0  0  0  0  0
    2.1167    0.1827    0.7596 C   0  0  0  0  0  0  0  0  0  0  0  0
    2.8039   -0.3923   -0.4847 C   0  0  0  0  0  0  0  0  0  0  0  0
    4.1558   -1.0485   -0.2138 C   0  0  0  0  0  0  0  0  0  0  0  0
    5.1913   -0.0479    0.2004 C   0  0  0  0  0  0  0  0  0  0  0  0
    5.3973    0.3254    1.4462 N   0  0  0  0  0  0  0  0  0  0  0  0
    6.4140    1.2582    1.4902 C   0  0  0  0  0  0  0  0  0  0  0  0
    6.9729    1.5871    0.2750 C   0  0  0  0  0  0  0  0  0  0  0  0
    6.2042    0.7001   -0.9729 S   0  0  0  0  0  0  0  0  0  0  0  0
    1.7628   -1.3939   -0.9815 C   0  0  0  0  0  0  0  0  0  0  0  0
   -2.9916   -1.7466   -0.0889 N   0  0  0  0  0  0  0  0  0  0  0  0
   -4.0960   -1.0213    0.2906 C   0  0  0  0  0  0  0  0  0  0  0  0
   -5.3270   -1.4470    0.8025 C   0  0  0  0  0  0  0  0  0  0  0  0
   -6.2788   -0.4649    1.0945 C   0  0  0  0  0  0  0  0  0  0  0  0
   -6.0088    0.8851    0.8793 C   0  0  0  0  0  0  0  0  0  0  0  0
   -4.7736    1.2914    0.3618 C   0  0  0  0  0  0  0  0  0  0  0  0
   -3.7977    0.3201    0.0627 C   0  0  0  0  0  0  0  0  0  0  0  0
   -3.2602    2.0983   -2.2571 H   0  0  0  0  0  0  0  0  0  0  0  0
   -2.0008    0.9961   -2.9150 H   0  0  0  0  0  0  0  0  0  0  0  0
   -1.6061    2.6772   -2.5165 H   0  0  0  0  0  0  0  0  0  0  0  0
    0.5229    1.2263   -0.2417 H   0  0  0  0  0  0  0  0  0  0  0  0
   -0.0350    0.2478    1.1546 H   0  0  0  0  0  0  0  0  0  0  0  0
    2.5269    1.1477    1.0713 H   0  0  0  0  0  0  0  0  0  0  0  0
    2.1969   -0.5146    1.6027 H   0  0  0  0  0  0  0  0  0  0  0  0
    2.9105    0.4094   -1.2289 H   0  0  0  0  0  0  0  0  0  0  0  0
    4.0603   -1.8026    0.5779 H   0  0  0  0  0  0  0  0  0  0  0  0
    4.4909   -1.5869   -1.1093 H   0  0  0  0  0  0  0  0  0  0  0  0
    6.7120    1.6713    2.4461 H   0  0  0  0  0  0  0  0  0  0  0  0
    7.7718    2.2839    0.0675 H   0  0  0  0  0  0  0  0  0  0  0  0
    1.8074   -1.5476   -2.0645 H   0  0  0  0  0  0  0  0  0  0  0  0
    1.8558   -2.3670   -0.4844 H   0  0  0  0  0  0  0  0  0  0  0  0
   -2.9194   -2.7550   -0.0613 H   0  0  0  0  0  0  0  0  0  0  0  0
   -5.5415   -2.4976    0.9695 H   0  0  0  0  0  0  0  0  0  0  0  0
   -7.2454   -0.7611    1.4960 H   0  0  0  0  0  0  0  0  0  0  0  0
   -6.7635    1.6315    1.1145 H   0  0  0  0  0  0  0  0  0  0  0  0
   -4.5666    2.3445    0.1965 H   0  0  0  0  0  0  0  0  0  0  0  0
  1  2  1  0
  2  3  1  0
  3  4  2  0
  4  5  1  0
  5  6  2  0
  5  7  1  0
  7  8  1  0
  8  9  1  0
  9 10  1  0
 10 11  1  0
 11 12  1  0
 12 13  2  0
 13 14  1  0
 14 15  2  0
 15 16  1  0
 10 17  1  0
  4 18  1  0
 18 19  1  0
 19 20  2  0
 20 21  1  0
 21 22  2  0
 22 23  1  0
 23 24  2  0
 24  3  1  0
 17  7  1  0
 24 19  1  0
 16 12  1  0
  1 25  1  0
  1 26  1  0
  1 27  1  0
  8 28  1  0
  8 29  1  0
  9 30  1  0
  9 31  1  0
 10 32  1  0
 11 33  1  0
 11 34  1  0
 14 35  1  0
 15 36  1  0
 17 37  1  0
 17 38  1  0
 18 39  1  0
 20 40  1  0
 21 41  1  0
 22 42  1  0
 23 43  1  0
M  END
$$$$
OCNT-2312608
     RDKit          3D

 38 40  0  0  0  0  0  0  0  0999 V2000
   -1.2484    4.3299   -1.0436 C   0  0  0  0  0  0  0  0  0  0  0  0
   -0.8219    3.2577   -1.3763 C   0  0  0  0  0  0  0  0  0  0  0  0
   -0.2932    1.9427   -1.7927 C   0  0  0  0  0  0  0  0  0  0  0  0
   -0.7598    0.7763   -0.8875 C   0  0  0  0  0  0  0  0  0  0  0  0
   -2.3039    0.6445   -0.9153 C   0  0  0  0  0  0  0  0  0  0  0  0
   -2.7991   -0.7146   -0.4693 C   0  0  0  0  0  0  0  0  0  0  0  0
   -2.9745   -0.9988    0.8914 C   0  0  0  0  0  0  0  0  0  0  0  0
   -3.4237   -2.2551    1.3010 C   0  0  0  0  0  0  0  0  0  0  0  0
   -3.6995   -3.2404    0.3551 C   0  0  0  0  0  0  0  0  0  0  0  0
   -3.5229   -2.9712   -1.0006 C   0  0  0  0  0  0  0  0  0  0  0  0
   -3.0730   -1.7154   -1.4120 C   0  0  0  0  0  0  0  0  0  0  0  0
   -0.3102    0.9599    0.5115 N   0  0  0  0  0  0  0  0  0  0  0  0
    1.0317    0.6662    0.7839 C   0  0  0  0  0  0  0  0  0  0  0  0
    1.4833    0.8368    2.0848 C   0  0  0  0  0  0  0  0  0  0  0  0
    2.8017    0.5184    2.3917 C   0  0  0  0  0  0  0  0  0  0  0  0
    3.6449    0.0317    1.4121 C   0  0  0  0  0  0  0  0  0  0  0  0
    4.9263   -0.2720    1.7206 N   0  0  0  0  0  0  0  0  0  0  0  0
    5.6767   -0.7414    0.7053 C   0  0  0  0  0  0  0  0  0  0  0  0
    5.1643   -0.8957   -0.5647 C   0  0  0  0  0  0  0  0  0  0  0  0
    3.8847   -0.5888   -0.8728 N   0  0  0  0  0  0  0  0  0  0  0  0
    3.1058   -0.1239    0.1116 C   0  0  0  0  0  0  0  0  0  0  0  0
    1.8370    0.1833   -0.1786 N   0  0  0  0  0  0  0  0  0  0  0  0
   -1.6245    5.2850   -0.7559 H   0  0  0  0  0  0  0  0  0  0  0  0
    0.8011    1.9961   -1.8113 H   0  0  0  0  0  0  0  0  0  0  0  0
   -0.6075    1.7424   -2.8245 H   0  0  0  0  0  0  0  0  0  0  0  0
   -0.3455   -0.1559   -1.2960 H   0  0  0  0  0  0  0  0  0  0  0  0
   -2.7751    1.4136   -0.2890 H   0  0  0  0  0  0  0  0  0  0  0  0
   -2.6734    0.8210   -1.9343 H   0  0  0  0  0  0  0  0  0  0  0  0
   -2.7502   -0.2432    1.6406 H   0  0  0  0  0  0  0  0  0  0  0  0
   -3.5522   -2.4658    2.3592 H   0  0  0  0  0  0  0  0  0  0  0  0
   -4.0460   -4.2192    0.6749 H   0  0  0  0  0  0  0  0  0  0  0  0
   -3.7319   -3.7410   -1.7386 H   0  0  0  0  0  0  0  0  0  0  0  0
   -2.9357   -1.5250   -2.4738 H   0  0  0  0  0  0  0  0  0  0  0  0
   -0.5476    1.8819    0.8682 H   0  0  0  0  0  0  0  0  0  0  0  0
    0.8160    1.1997    2.8594 H   0  0  0  0  0  0  0  0  0  0  0  0
    3.1721    0.6443    3.4046 H   0  0  0  0  0  0  0  0  0  0  0  0
    6.7046   -0.9907    0.9416 H   0  0  0  0  0  0  0  0  0  0  0  0
    5.7698   -1.2734   -1.3807 H   0  0  0  0  0  0  0  0  0  0  0  0
  1  2  3  0
  2  3  1  0
  3  4  1  0
  4  5  1  0
  5  6  1  0
  6  7  2  0
  7  8  1  0
  8  9  2  0
  9 10  1  0
 10 11  2  0
  4 12  1  0
 12 13  1  0
 13 14  2  0
 14 15  1  0
 15 16  2  0
 16 17  1  0
 17 18  2  0
 18 19  1  0
 19 20  2  0
 20 21  1  0
 21 22  2  0
 11  6  1  0
 22 13  1  0
 21 16  1  0
  1 23  1  0
  3 24  1  0
  3 25  1  0
  4 26  1  0
  5 27  1  0
  5 28  1  0
  7 29  1  0
  8 30  1  0
  9 31  1  0
 10 32  1  0
 11 33  1  0
 12 34  1  0
 14 35  1  0
 15 36  1  0
 18 37  1  0
 19 38  1  0
M  END
$$$$
OCNT-2312650
     RDKit          3D

 44 46  0  0  0  0  0  0  0  0999 V2000
    1.3467    1.0642   -1.8776 O   0  0  0  0  0  0  0  0  0  0  0  0
    1.1155    0.7835   -0.7075 C   0  0  0  0  0  0  0  0  0  0  0  0
    0.0184    1.2489   -0.0106 N   0  0  0  0  0  0  0  0  0  0  0  0
   -0.9026    2.1803   -0.6280 C   0  0  0  0  0  0  0  0  0  0  0  0
   -2.2439    2.2352    0.1029 C   0  0  0  0  0  0  0  0  0  0  0  0
   -2.9886    0.8865    0.1787 C   0  0  0  0  0  0  0  0  0  0  0  0
   -3.2428    0.2768   -1.2140 C   0  0  0  0  0  0  0  0  0  0  0  0
   -4.3716   -0.7582   -1.2448 C   0  0  0  0  0  0  0  0  0  0  0  0
   -4.6510   -1.3448    0.1239 C   0  0  0  0  0  0  0  0  0  0  0  0
   -5.6354   -2.2729    0.0395 F   0  0  0  0  0  0  0  0  0  0  0  0
   -3.5437   -2.0032    0.5590 F   0  0  0  0  0  0  0  0  0  0  0  0
   -5.0391   -0.2867    1.1456 C   0  0  0  0  0  0  0  0  0  0  0  0
   -4.3070    1.0445    0.9479 C   0  0  0  0  0  0  0  0  0  0  0  0
    2.0638   -0.0724    0.0563 C   0  0  0  0  0  0  0  0  0  0  0  0
    1.6388   -0.8742    1.1209 C   0  0  0  0  0  0  0  0  0  0  0  0
    2.5630   -1.6623    1.8042 C   0  0  0  0  0  0  0  0  0  0  0  0
    3.9074   -1.6569    1.4210 C   0  0  0  0  0  0  0  0  0  0  0  0
    4.3512   -0.8735    0.3441 C   0  0  0  0  0  0  0  0  0  0  0  0
    5.7488   -0.8743   -0.0670 C   0  0  0  0  0  0  0  0  0  0  0  0
    6.4842   -0.2866   -1.0758 C   0  0  0  0  0  0  0  0  0  0  0  0
    7.8065   -0.6429   -0.9762 N   0  0  0  0  0  0  0  0  0  0  0  0
    7.8283   -1.4282    0.0754 C   0  0  0  0  0  0  0  0  0  0  0  0
    6.6261   -1.6183    0.6826 O   0  0  0  0  0  0  0  0  0  0  0  0
    3.4111   -0.0854   -0.3353 C   0  0  0  0  0  0  0  0  0  0  0  0
    0.0621    1.2319    0.9997 H   0  0  0  0  0  0  0  0  0  0  0  0
   -1.0384    1.9162   -1.6822 H   0  0  0  0  0  0  0  0  0  0  0  0
   -0.4276    3.1676   -0.6017 H   0  0  0  0  0  0  0  0  0  0  0  0
   -2.0739    2.6003    1.1242 H   0  0  0  0  0  0  0  0  0  0  0  0
   -2.8804    2.9789   -0.3929 H   0  0  0  0  0  0  0  0  0  0  0  0
   -2.3594    0.1884    0.7476 H   0  0  0  0  0  0  0  0  0  0  0  0
   -2.3176   -0.1988   -1.5630 H   0  0  0  0  0  0  0  0  0  0  0  0
   -3.4752    1.0629   -1.9433 H   0  0  0  0  0  0  0  0  0  0  0  0
   -4.1164   -1.5561   -1.9517 H   0  0  0  0  0  0  0  0  0  0  0  0
   -5.2878   -0.2940   -1.6309 H   0  0  0  0  0  0  0  0  0  0  0  0
   -6.1206   -0.1089    1.1166 H   0  0  0  0  0  0  0  0  0  0  0  0
   -4.8176   -0.6726    2.1480 H   0  0  0  0  0  0  0  0  0  0  0  0
   -4.9641    1.7301    0.3965 H   0  0  0  0  0  0  0  0  0  0  0  0
   -4.1327    1.5075    1.9266 H   0  0  0  0  0  0  0  0  0  0  0  0
    0.5920   -0.9195    1.4089 H   0  0  0  0  0  0  0  0  0  0  0  0
    2.2386   -2.2927    2.6290 H   0  0  0  0  0  0  0  0  0  0  0  0
    4.6074   -2.2852    1.9694 H   0  0  0  0  0  0  0  0  0  0  0  0
    6.1363    0.3681   -1.8628 H   0  0  0  0  0  0  0  0  0  0  0  0
    8.6768   -1.9356    0.5122 H   0  0  0  0  0  0  0  0  0  0  0  0
    3.7143    0.5326   -1.1788 H   0  0  0  0  0  0  0  0  0  0  0  0
  1  2  2  0
  2  3  1  0
  3  4  1  0
  4  5  1  0
  5  6  1  0
  6  7  1  0
  7  8  1  0
  8  9  1  0
  9 10  1  0
  9 11  1  0
  9 12  1  0
 12 13  1  0
  2 14  1  0
 14 15  1  0
 15 16  2  0
 16 17  1  0
 17 18  2  0
 18 19  1  0
 19 20  2  0
 20 21  1  0
 21 22  2  0
 22 23  1  0
 18 24  1  0
 13  6  1  0
 24 14  2  0
 23 19  1  0
  3 25  1  0
  4 26  1  0
  4 27  1  0
  5 28  1  0
  5 29  1  0
  6 30  1  0
  7 31  1  0
  7 32  1  0
  8 33  1  0
  8 34  1  0
 12 35  1  0
 12 36  1  0
 13 37  1  0
 13 38  1  0
 15 39  1  0
 16 40  1  0
 17 41  1  0
 20 42  1  0
 22 43  1  0
 24 44  1  0
M  END
$$$$
OCNT-2312662
     RDKit          3D

  0  0  0  0  0  0  0  0  0  0999 V3000
M  V30 BEGIN CTAB
M  V30 COUNTS 51 53 0 0 0
M  V30 BEGIN ATOM
M  V30 1 C 6.205083 -2.090564 0.908744 0
M  V30 2 N 5.185945 -1.177415 0.442732 0
M  V30 3 C 3.844208 -1.450172 0.424144 0
M  V30 4 C 3.184600 -0.348814 -0.085708 0
M  V30 5 C 1.709457 -0.204247 -0.283242 0
M  V30 6 C 1.048984 0.589581 0.846710 0
M  V30 7 N -0.384299 0.702218 0.674405 0
M  V30 8 C -0.949756 1.583516 -0.224416 0
M  V30 9 O -0.313029 2.431507 -0.842202 0
M  V30 10 C -2.474762 1.445381 -0.334511 0
M  V30 11 N -2.896887 0.020533 -0.176362 0
M  V30 12 C -2.564917 -0.708642 -1.415392 0
M  V30 13 C -4.354508 -0.062671 0.098376 0 CFG=2
M  V30 14 C -4.723491 0.483491 1.484651 0
M  V30 15 C -6.141486 -0.023075 1.695702 0
M  V30 16 C -6.147387 -1.427639 1.107001 0
M  V30 17 C -4.934491 -1.502278 0.173588 0 CFG=1
M  V30 18 O -5.333989 -1.965802 -1.111895 0
M  V30 19 C 4.183608 0.630503 -0.389000 0
M  V30 20 C 4.137486 1.935250 -0.923414 0
M  V30 21 C 5.324845 2.653519 -1.098989 0
M  V30 22 C 6.549305 2.091697 -0.750941 0
M  V30 23 C 6.623064 0.801301 -0.218377 0
M  V30 24 C 5.425299 0.088390 -0.046803 0
M  V30 25 H 6.917004 -2.260527 0.096699 0
M  V30 26 H 6.702208 -1.641130 1.772040 0
M  V30 27 H 5.744051 -3.038019 1.198833 0
M  V30 28 H 3.461471 -2.401416 0.771138 0
M  V30 29 H 1.247639 -1.198144 -0.348603 0
M  V30 30 H 1.516781 0.279117 -1.249220 0
M  V30 31 H 1.470875 1.599583 0.905565 0
M  V30 32 H 1.217378 0.100189 1.812369 0
M  V30 33 H -0.990587 -0.067918 0.946779 0
M  V30 34 H -2.809069 1.856136 -1.294476 0
M  V30 35 H -2.874464 2.075179 0.466211 0
M  V30 36 H -2.716543 -1.785101 -1.288959 0
M  V30 37 H -1.506347 -0.594161 -1.674103 0
M  V30 38 H -3.160266 -0.364177 -2.268815 0
M  V30 39 H -4.900446 0.494416 -0.677435 0
M  V30 40 H -4.058729 0.077341 2.257481 0
M  V30 41 H -4.690932 1.575073 1.543013 0
M  V30 42 H -6.848407 0.610510 1.146925 0
M  V30 43 H -6.433448 -0.013436 2.750121 0
M  V30 44 H -6.033586 -2.165318 1.910251 0
M  V30 45 H -7.094472 -1.641179 0.600550 0
M  V30 46 H -4.196350 -2.203537 0.581936 0
M  V30 47 H -5.683360 -2.866080 -0.997676 0
M  V30 48 H 3.185727 2.383363 -1.197903 0
M  V30 49 H 5.286176 3.658048 -1.511940 0
M  V30 50 H 7.462446 2.664008 -0.895254 0
M  V30 51 H 7.582369 0.371610 0.049874 0
M  V30 END ATOM
M  V30 BEGIN BOND
M  V30 1 1 1 2
M  V30 2 1 2 3
M  V30 3 2 3 4
M  V30 4 1 4 5
M  V30 5 1 5 6
M  V30 6 1 6 7
M  V30 7 1 7 8
M  V30 8 2 8 9
M  V30 9 1 8 10
M  V30 10 1 10 11
M  V30 11 1 11 12
M  V30 12 1 11 13
M  V30 13 1 13 14
M  V30 14 1 14 15
M  V30 15 1 15 16
M  V30 16 1 16 17
M  V30 17 1 17 18
M  V30 18 1 4 19
M  V30 19 2 19 20
M  V30 20 1 20 21
M  V30 21 2 21 22
M  V30 22 1 22 23
M  V30 23 2 23 24
M  V30 24 1 24 2
M  V30 25 1 17 13
M  V30 26 1 24 19
M  V30 27 1 1 25
M  V30 28 1 1 26
M  V30 29 1 1 27
M  V30 30 1 3 28
M  V30 31 1 5 29
M  V30 32 1 5 30
M  V30 33 1 6 31
M  V30 34 1 6 32
M  V30 35 1 7 33
M  V30 36 1 10 34
M  V30 37 1 10 35
M  V30 38 1 12 36
M  V30 39 1 12 37
M  V30 40 1 12 38
M  V30 41 1 13 39 CFG=3
M  V30 42 1 14 40
M  V30 43 1 14 41
M  V30 44 1 15 42
M  V30 45 1 15 43
M  V30 46 1 16 44
M  V30 47 1 16 45
M  V30 48 1 17 46 CFG=1
M  V30 49 1 18 47
M  V30 50 1 20 48
M  V30 51 1 21 49
M  V30 52 1 22 50
M  V30 53 1 23 51
M  V30 END BOND
M  V30 BEGIN COLLECTION
M  V30 MDLV30/STERAC1 ATOMS=(2 13 17)
M  V30 END COLLECTION
M  V30 END CTAB
M  END
>  <_CXSMILES_Data>  (652) 
|&1:12,16|

$$$$
OCNT-2312702
     RDKit          3D

 40 41  0  0  0  0  0  0  0  0999 V2000
   -2.7660   -2.4436    0.9179 C   0  0  0  0  0  0  0  0  0  0  0  0
   -2.1802   -1.4673   -0.0944 C   0  0  0  0  0  0  0  0  0  0  0  0
   -2.6156    0.0018    0.1200 C   0  0  2  0  0  0  0  0  0  0  0  0
   -4.1476    0.1250    0.0283 C   0  0  0  0  0  0  0  0  0  0  0  0
   -1.9379    0.9604   -0.9075 C   0  0  2  0  0  0  0  0  0  0  0  0
   -0.4625    0.8652   -1.0279 N   0  0  0  0  0  0  0  0  0  0  0  0
    0.2630    1.1485    0.2147 C   0  0  0  0  0  0  0  0  0  0  0  0
    1.7563    0.9892   -0.0033 C   0  0  0  0  0  0  0  0  0  0  0  0
    2.4641    2.0600   -0.5762 C   0  0  0  0  0  0  0  0  0  0  0  0
    3.8281    1.9582   -0.8036 C   0  0  0  0  0  0  0  0  0  0  0  0
    4.4936    0.7806   -0.4677 C   0  0  0  0  0  0  0  0  0  0  0  0
    6.3669    0.7404   -0.8181 Br  0  0  0  0  0  0  0  0  0  0  0  0
    3.7988   -0.3197    0.0966 C   0  0  0  0  0  0  0  0  0  0  0  0
    4.4082   -1.5459    0.4504 C   0  0  0  0  0  0  0  0  0  0  0  0
    3.6630   -2.5850    0.9922 C   0  0  0  0  0  0  0  0  0  0  0  0
    2.3152   -2.3782    1.1698 C   0  0  0  0  0  0  0  0  0  0  0  0
    1.6891   -1.2277    0.8488 N   0  0  0  0  0  0  0  0  0  0  0  0
    2.4053   -0.2090    0.3263 C   0  0  0  0  0  0  0  0  0  0  0  0
   -2.3318    2.4242   -0.6473 C   0  0  0  0  0  0  0  0  0  0  0  0
   -2.3730    2.9930    0.4335 O   0  0  0  0  0  0  0  0  0  0  0  0
   -2.6325    3.0986   -1.7781 O   0  0  0  0  0  0  0  0  0  0  0  0
   -2.3081   -3.4304    0.7929 H   0  0  0  0  0  0  0  0  0  0  0  0
   -2.5749   -2.1097    1.9425 H   0  0  0  0  0  0  0  0  0  0  0  0
   -3.8445   -2.5664    0.7840 H   0  0  0  0  0  0  0  0  0  0  0  0
   -1.0913   -1.5476   -0.0186 H   0  0  0  0  0  0  0  0  0  0  0  0
   -2.4514   -1.7938   -1.1058 H   0  0  0  0  0  0  0  0  0  0  0  0
   -2.3304    0.3046    1.1359 H   0  0  0  0  0  0  0  0  0  0  0  0
   -4.4803    1.1591    0.1599 H   0  0  0  0  0  0  0  0  0  0  0  0
   -4.5134   -0.2263   -0.9425 H   0  0  0  0  0  0  0  0  0  0  0  0
   -4.6415   -0.4591    0.8107 H   0  0  0  0  0  0  0  0  0  0  0  0
   -2.3409    0.7030   -1.8967 H   0  0  0  0  0  0  0  0  0  0  0  0
   -0.2152   -0.0815   -1.3164 H   0  0  0  0  0  0  0  0  0  0  0  0
    0.0836    2.1782    0.5450 H   0  0  0  0  0  0  0  0  0  0  0  0
   -0.0664    0.5055    1.0372 H   0  0  0  0  0  0  0  0  0  0  0  0
    1.9391    2.9734   -0.8500 H   0  0  0  0  0  0  0  0  0  0  0  0
    4.3598    2.7972   -1.2453 H   0  0  0  0  0  0  0  0  0  0  0  0
    5.4732   -1.7069    0.3061 H   0  0  0  0  0  0  0  0  0  0  0  0
    4.1254   -3.5265    1.2649 H   0  0  0  0  0  0  0  0  0  0  0  0
    1.6776   -3.1517    1.5880 H   0  0  0  0  0  0  0  0  0  0  0  0
   -2.8053    4.0104   -1.4664 H   0  0  0  0  0  0  0  0  0  0  0  0
  1  2  1  0
  2  3  1  0
  3  4  1  0
  3  5  1  0
  5  6  1  0
  6  7  1  0
  7  8  1  0
  8  9  1  0
  9 10  2  0
 10 11  1  0
 11 12  1  0
 11 13  2  0
 13 14  1  0
 14 15  2  0
 15 16  1  0
 16 17  2  0
 17 18  1  0
  5 19  1  0
 19 20  2  0
 19 21  1  0
 18  8  2  0
 18 13  1  0
  1 22  1  0
  1 23  1  0
  1 24  1  0
  2 25  1  0
  2 26  1  0
  3 27  1  1
  4 28  1  0
  4 29  1  0
  4 30  1  0
  5 31  1  6
  6 32  1  0
  7 33  1  0
  7 34  1  0
  9 35  1  0
 10 36  1  0
 14 37  1  0
 15 38  1  0
 16 39  1  0
 21 40  1  0
M  END
$$$$
OCNT-2312704
     RDKit          3D

 40 41  0  0  0  0  0  0  0  0999 V2000
   -0.7397    0.5598   -1.5479 C   0  0  0  0  0  0  0  0  0  0  0  0
   -0.5861    0.2208   -0.0592 C   0  0  0  0  0  0  0  0  0  0  0  0
    0.8237   -0.3304    0.2426 C   0  0  0  0  0  0  0  0  0  0  0  0
    1.8157    0.7300    0.1610 N   0  0  0  0  0  0  0  0  0  0  0  0
    3.1239    0.3195    0.3656 C   0  0  0  0  0  0  0  0  0  0  0  0
    3.4043   -0.6874    1.2021 N   0  0  0  0  0  0  0  0  0  0  0  0
    4.6976   -1.0150    1.3606 C   0  0  0  0  0  0  0  0  0  0  0  0
    5.7226   -0.3792    0.7079 C   0  0  0  0  0  0  0  0  0  0  0  0
    5.3533    0.6432   -0.1462 C   0  0  0  0  0  0  0  0  0  0  0  0
    6.4356    1.3896   -0.9058 C   0  0  0  0  0  0  0  0  0  0  0  0
    5.9765    2.3914   -1.7069 F   0  0  0  0  0  0  0  0  0  0  0  0
    7.3511    1.9671   -0.0731 F   0  0  0  0  0  0  0  0  0  0  0  0
    7.1578    0.5640   -1.7199 F   0  0  0  0  0  0  0  0  0  0  0  0
    4.0517    0.9919   -0.3235 N   0  0  0  0  0  0  0  0  0  0  0  0
   -1.6359   -0.8249    0.3886 C   0  0  0  0  0  0  0  0  0  0  0  0
   -3.0352   -0.4391    0.1357 N   0  0  0  0  0  0  0  0  0  0  0  0
   -3.9370   -1.5853    0.3927 C   0  0  0  0  0  0  0  0  0  0  0  0
   -5.4105   -1.2009    0.1895 C   0  0  0  0  0  0  0  0  0  0  0  0
   -5.7824   -0.1133    1.0454 O   0  0  0  0  0  0  0  0  0  0  0  0
   -4.9530    1.0240    0.7749 C   0  0  0  0  0  0  0  0  0  0  0  0
   -3.4650    0.6949    0.9845 C   0  0  0  0  0  0  0  0  0  0  0  0
   -0.0017    1.3018   -1.8675 H   0  0  0  0  0  0  0  0  0  0  0  0
   -0.6132   -0.3320   -2.1711 H   0  0  0  0  0  0  0  0  0  0  0  0
   -1.7272    0.9826   -1.7589 H   0  0  0  0  0  0  0  0  0  0  0  0
   -0.7228    1.1427    0.5196 H   0  0  0  0  0  0  0  0  0  0  0  0
    1.0649   -1.1415   -0.4570 H   0  0  0  0  0  0  0  0  0  0  0  0
    0.8261   -0.7495    1.2570 H   0  0  0  0  0  0  0  0  0  0  0  0
    1.8272    1.2674   -0.6988 H   0  0  0  0  0  0  0  0  0  0  0  0
    4.8878   -1.8303    2.0526 H   0  0  0  0  0  0  0  0  0  0  0  0
    6.7561   -0.6655    0.8579 H   0  0  0  0  0  0  0  0  0  0  0  0
   -1.4271   -1.7550   -0.1579 H   0  0  0  0  0  0  0  0  0  0  0  0
   -1.4960   -1.0526    1.4540 H   0  0  0  0  0  0  0  0  0  0  0  0
   -3.8017   -1.9420    1.4223 H   0  0  0  0  0  0  0  0  0  0  0  0
   -3.6944   -2.4102   -0.2870 H   0  0  0  0  0  0  0  0  0  0  0  0
   -6.0526   -2.0517    0.4388 H   0  0  0  0  0  0  0  0  0  0  0  0
   -5.6109   -0.9273   -0.8535 H   0  0  0  0  0  0  0  0  0  0  0  0
   -5.1415    1.3745   -0.2471 H   0  0  0  0  0  0  0  0  0  0  0  0
   -5.2546    1.8226    1.4602 H   0  0  0  0  0  0  0  0  0  0  0  0
   -2.8862    1.5933    0.7480 H   0  0  0  0  0  0  0  0  0  0  0  0
   -3.3012    0.4517    2.0423 H   0  0  0  0  0  0  0  0  0  0  0  0
  1  2  1  0
  2  3  1  0
  3  4  1  0
  4  5  1  0
  5  6  2  0
  6  7  1  0
  7  8  2  0
  8  9  1  0
  9 10  1  0
 10 11  1  0
 10 12  1  0
 10 13  1  0
  9 14  2  0
  2 15  1  0
 15 16  1  0
 16 17  1  0
 17 18  1  0
 18 19  1  0
 19 20  1  0
 20 21  1  0
 14  5  1  0
 21 16  1  0
  1 22  1  0
  1 23  1  0
  1 24  1  0
  2 25  1  0
  3 26  1  0
  3 27  1  0
  4 28  1  0
  7 29  1  0
  8 30  1  0
 15 31  1  0
 15 32  1  0
 17 33  1  0
 17 34  1  0
 18 35  1  0
 18 36  1  0
 20 37  1  0
 20 38  1  0
 21 39  1  0
 21 40  1  0
M  END
$$$$
OCNT-2312712
     RDKit          3D

 47 49  0  0  0  0  0  0  0  0999 V2000
    7.1948   -1.8276   -2.4201 C   0  0  0  0  0  0  0  0  0  0  0  0
    7.3045   -0.8226   -1.2828 C   0  0  0  0  0  0  0  0  0  0  0  0
    5.9531   -0.3328   -0.8279 C   0  0  0  0  0  0  0  0  0  0  0  0
    5.1301   -1.1487   -0.0422 C   0  0  0  0  0  0  0  0  0  0  0  0
    3.8688   -0.7028    0.3663 C   0  0  0  0  0  0  0  0  0  0  0  0
    3.4057    0.5682   -0.0003 C   0  0  0  0  0  0  0  0  0  0  0  0
    2.0867    1.0219    0.4284 C   0  0  0  0  0  0  0  0  0  0  0  0
    1.5897    2.2444    0.1699 N   0  0  0  0  0  0  0  0  0  0  0  0
    0.3281    2.2250    0.7561 O   0  0  0  0  0  0  0  0  0  0  0  0
    0.1795    0.9911    1.3145 C   0  0  0  0  0  0  0  0  0  0  0  0
   -1.1263    0.7092    1.9827 C   0  0  0  0  0  0  0  0  0  0  0  0
   -0.9185    0.4613    3.4728 C   0  0  0  0  0  0  0  0  0  0  0  0
   -1.7062   -0.4902    1.3561 N   0  0  0  0  0  0  0  0  0  0  0  0
   -3.3655   -0.6193    1.2029 S   0  0  0  0  0  0  0  0  0  0  0  0
   -3.6114   -2.0403    1.0827 O   0  0  0  0  0  0  0  0  0  0  0  0
   -3.9506    0.1750    2.2606 O   0  0  0  0  0  0  0  0  0  0  0  0
   -3.6317    0.1710   -0.3930 C   0  0  0  0  0  0  0  0  0  0  0  0
   -5.1031    0.1674   -0.7098 C   0  0  0  0  0  0  0  0  0  0  0  0
   -5.9203    1.2368   -0.3124 C   0  0  0  0  0  0  0  0  0  0  0  0
   -7.2857    1.2294   -0.6014 C   0  0  0  0  0  0  0  0  0  0  0  0
   -7.8482    0.1546   -1.2872 C   0  0  0  0  0  0  0  0  0  0  0  0
   -7.0472   -0.9155   -1.6826 C   0  0  0  0  0  0  0  0  0  0  0  0
   -5.6814   -0.9113   -1.3949 C   0  0  0  0  0  0  0  0  0  0  0  0
    1.2257    0.2126    1.1431 N   0  0  0  0  0  0  0  0  0  0  0  0
    4.2345    1.3846   -0.7837 C   0  0  0  0  0  0  0  0  0  0  0  0
    5.4940    0.9367   -1.1964 C   0  0  0  0  0  0  0  0  0  0  0  0
    6.6408   -2.7189   -2.1097 H   0  0  0  0  0  0  0  0  0  0  0  0
    8.1914   -2.1458   -2.7416 H   0  0  0  0  0  0  0  0  0  0  0  0
    6.6786   -1.3949   -3.2832 H   0  0  0  0  0  0  0  0  0  0  0  0
    7.8287   -1.2751   -0.4330 H   0  0  0  0  0  0  0  0  0  0  0  0
    7.9216    0.0251   -1.6031 H   0  0  0  0  0  0  0  0  0  0  0  0
    5.4633   -2.1404    0.2566 H   0  0  0  0  0  0  0  0  0  0  0  0
    3.2492   -1.3616    0.9727 H   0  0  0  0  0  0  0  0  0  0  0  0
   -1.7870    1.5723    1.8383 H   0  0  0  0  0  0  0  0  0  0  0  0
   -1.8643    0.2349    3.9750 H   0  0  0  0  0  0  0  0  0  0  0  0
   -0.4829    1.3416    3.9580 H   0  0  0  0  0  0  0  0  0  0  0  0
   -0.2433   -0.3831    3.6524 H   0  0  0  0  0  0  0  0  0  0  0  0
   -1.2137   -1.3769    1.4817 H   0  0  0  0  0  0  0  0  0  0  0  0
   -3.2464    1.1942   -0.3346 H   0  0  0  0  0  0  0  0  0  0  0  0
   -3.0627   -0.3821   -1.1470 H   0  0  0  0  0  0  0  0  0  0  0  0
   -5.5039    2.0805    0.2355 H   0  0  0  0  0  0  0  0  0  0  0  0
   -7.9123    2.0600   -0.2835 H   0  0  0  0  0  0  0  0  0  0  0  0
   -8.9126    0.1471   -1.5065 H   0  0  0  0  0  0  0  0  0  0  0  0
   -7.4877   -1.7592   -2.2085 H   0  0  0  0  0  0  0  0  0  0  0  0
   -5.0760   -1.7634   -1.7009 H   0  0  0  0  0  0  0  0  0  0  0  0
    3.9078    2.3778   -1.0850 H   0  0  0  0  0  0  0  0  0  0  0  0
    6.1123    1.5898   -1.8093 H   0  0  0  0  0  0  0  0  0  0  0  0
  1  2  1  0
  2  3  1  0
  3  4  1  0
  4  5  2  0
  5  6  1  0
  6  7  1  0
  7  8  2  0
  8  9  1  0
  9 10  1  0
 10 11  1  0
 11 12  1  0
 11 13  1  0
 13 14  1  0
 14 15  2  0
 14 16  2  0
 14 17  1  0
 17 18  1  0
 18 19  2  0
 19 20  1  0
 20 21  2  0
 21 22  1  0
 22 23  2  0
 10 24  2  0
  6 25  2  0
 25 26  1  0
 26  3  2  0
 24  7  1  0
 23 18  1  0
  1 27  1  0
  1 28  1  0
  1 29  1  0
  2 30  1  0
  2 31  1  0
  4 32  1  0
  5 33  1  0
 11 34  1  0
 12 35  1  0
 12 36  1  0
 12 37  1  0
 13 38  1  0
 17 39  1  0
 17 40  1  0
 19 41  1  0
 20 42  1  0
 21 43  1  0
 22 44  1  0
 23 45  1  0
 25 46  1  0
 26 47  1  0
M  END
$$$$
OCNT-2312713
     RDKit          3D

 51 53  0  0  0  0  0  0  0  0999 V2000
   -6.6653    1.0820    1.5808 C   0  0  0  0  0  0  0  0  0  0  0  0
   -5.3193    0.3680    1.6588 C   0  0  0  0  0  0  0  0  0  0  0  0
   -4.8459   -0.0839    0.3407 N   0  0  0  0  0  0  0  0  0  0  0  0
   -4.3892    1.0291   -0.5182 C   0  0  0  0  0  0  0  0  0  0  0  0
   -2.9963    1.6153   -0.1613 C   0  0  0  0  0  0  0  0  0  0  0  0
   -1.9057    0.6142   -0.0279 N   0  0  0  0  0  0  0  0  0  0  0  0
   -1.4553    0.1203   -1.3571 C   0  0  0  0  0  0  0  0  0  0  0  0
   -0.5118    1.1653   -1.9922 C   0  0  0  0  0  0  0  0  0  0  0  0
    0.8338    0.8744   -1.3359 C   0  0  0  0  0  0  0  0  0  0  0  0
    0.8231   -0.5635   -1.1274 N   0  0  0  0  0  0  0  0  0  0  0  0
    1.8646   -1.3560   -0.7057 C   0  0  0  0  0  0  0  0  0  0  0  0
    1.7413   -2.5713   -0.5599 O   0  0  0  0  0  0  0  0  0  0  0  0
    3.1758   -0.6395   -0.4411 C   0  0  0  0  0  0  0  0  0  0  0  0
    4.2432   -1.5947    0.0894 C   0  0  0  0  0  0  0  0  0  0  0  0
    5.5424   -0.8775    0.3547 C   0  0  0  0  0  0  0  0  0  0  0  0
    5.7886   -0.2798    1.5931 C   0  0  0  0  0  0  0  0  0  0  0  0
    6.9890    0.3881    1.7815 C   0  0  0  0  0  0  0  0  0  0  0  0
    7.9429    0.5034    0.8331 N   0  0  0  0  0  0  0  0  0  0  0  0
    7.6847   -0.0807   -0.3563 C   0  0  0  0  0  0  0  0  0  0  0  0
    6.5157   -0.7698   -0.6415 C   0  0  0  0  0  0  0  0  0  0  0  0
   -0.5028   -1.1051   -1.3715 C   0  0  0  0  0  0  0  0  0  0  0  0
   -2.3885   -0.4438    0.8852 C   0  0  0  0  0  0  0  0  0  0  0  0
   -3.7454   -1.0641    0.4798 C   0  0  0  0  0  0  0  0  0  0  0  0
   -7.4068    0.4708    1.0555 H   0  0  0  0  0  0  0  0  0  0  0  0
   -6.5905    2.0484    1.0743 H   0  0  0  0  0  0  0  0  0  0  0  0
   -7.0444    1.2710    2.5908 H   0  0  0  0  0  0  0  0  0  0  0  0
   -4.5914    1.0119    2.1647 H   0  0  0  0  0  0  0  0  0  0  0  0
   -5.4696   -0.5060    2.3053 H   0  0  0  0  0  0  0  0  0  0  0  0
   -4.3622    0.6573   -1.5502 H   0  0  0  0  0  0  0  0  0  0  0  0
   -5.1248    1.8402   -0.5385 H   0  0  0  0  0  0  0  0  0  0  0  0
   -2.7376    2.3832   -0.8983 H   0  0  0  0  0  0  0  0  0  0  0  0
   -3.0727    2.1543    0.7919 H   0  0  0  0  0  0  0  0  0  0  0  0
   -2.3115   -0.0910   -2.0058 H   0  0  0  0  0  0  0  0  0  0  0  0
   -0.4448    0.9782   -3.0722 H   0  0  0  0  0  0  0  0  0  0  0  0
   -0.8104    2.2089   -1.8654 H   0  0  0  0  0  0  0  0  0  0  0  0
    0.9244    1.3627   -0.3598 H   0  0  0  0  0  0  0  0  0  0  0  0
    1.6769    1.1713   -1.9655 H   0  0  0  0  0  0  0  0  0  0  0  0
    3.5175   -0.1843   -1.3781 H   0  0  0  0  0  0  0  0  0  0  0  0
    2.9977    0.1607    0.2869 H   0  0  0  0  0  0  0  0  0  0  0  0
    4.4161   -2.4104   -0.6247 H   0  0  0  0  0  0  0  0  0  0  0  0
    3.8987   -2.0784    1.0128 H   0  0  0  0  0  0  0  0  0  0  0  0
    5.0646   -0.3316    2.3995 H   0  0  0  0  0  0  0  0  0  0  0  0
    7.2206    0.8635    2.7302 H   0  0  0  0  0  0  0  0  0  0  0  0
    8.4678    0.0228   -1.1017 H   0  0  0  0  0  0  0  0  0  0  0  0
    6.3731   -1.2134   -1.6212 H   0  0  0  0  0  0  0  0  0  0  0  0
   -0.4826   -1.5448   -2.3772 H   0  0  0  0  0  0  0  0  0  0  0  0
   -0.7496   -1.9127   -0.6801 H   0  0  0  0  0  0  0  0  0  0  0  0
   -1.6411   -1.2301    1.0223 H   0  0  0  0  0  0  0  0  0  0  0  0
   -2.4849   -0.0026    1.8864 H   0  0  0  0  0  0  0  0  0  0  0  0
   -4.0217   -1.8435    1.2007 H   0  0  0  0  0  0  0  0  0  0  0  0
   -3.6304   -1.5870   -0.4783 H   0  0  0  0  0  0  0  0  0  0  0  0
  1  2  1  0
  2  3  1  0
  3  4  1  0
  4  5  1  0
  5  6  1  0
  6  7  1  0
  7  8  1  0
  8  9  1  0
  9 10  1  0
 10 11  1  0
 11 12  2  0
 11 13  1  0
 13 14  1  0
 14 15  1  0
 15 16  2  0
 16 17  1  0
 17 18  2  0
 18 19  1  0
 19 20  2  0
 10 21  1  0
  6 22  1  0
 22 23  1  0
 23  3  1  0
 21  7  1  0
 20 15  1  0
  1 24  1  0
  1 25  1  0
  1 26  1  0
  2 27  1  0
  2 28  1  0
  4 29  1  0
  4 30  1  0
  5 31  1  0
  5 32  1  0
  7 33  1  0
  8 34  1  0
  8 35  1  0
  9 36  1  0
  9 37  1  0
 13 38  1  0
 13 39  1  0
 14 40  1  0
 14 41  1  0
 16 42  1  0
 17 43  1  0
 19 44  1  0
 20 45  1  0
 21 46  1  0
 21 47  1  0
 22 48  1  0
 22 49  1  0
 23 50  1  0
 23 51  1  0
M  END
$$$$
OCNT-2312719
     RDKit          3D

 49 51  0  0  0  0  0  0  0  0999 V2000
    7.8441   -1.8422   -0.1711 C   0  0  0  0  0  0  0  0  0  0  0  0
    6.4539   -1.5283   -0.1061 O   0  0  0  0  0  0  0  0  0  0  0  0
    6.1661   -0.4780    0.6998 C   0  0  0  0  0  0  0  0  0  0  0  0
    6.9527    0.1410    1.3988 O   0  0  0  0  0  0  0  0  0  0  0  0
    4.7076   -0.2438    0.7203 C   0  0  0  0  0  0  0  0  0  0  0  0
    4.1013   -0.1376    1.9778 C   0  0  0  0  0  0  0  0  0  0  0  0
    2.7265    0.0789    2.0741 C   0  0  0  0  0  0  0  0  0  0  0  0
    1.9472    0.2044    0.9198 C   0  0  0  0  0  0  0  0  0  0  0  0
    0.5643    0.4130    1.1017 N   0  0  0  0  0  0  0  0  0  0  0  0
   -0.3862    0.6716    0.1374 C   0  0  0  0  0  0  0  0  0  0  0  0
   -0.1888    0.8320   -1.0585 O   0  0  0  0  0  0  0  0  0  0  0  0
   -1.6420    0.7475    0.7016 N   0  0  0  0  0  0  0  0  0  0  0  0
   -2.8371    0.9606   -0.1110 C   0  0  2  0  0  0  0  0  0  0  0  0
   -3.6818    2.0451    0.5536 C   0  0  0  0  0  0  0  0  0  0  0  0
   -5.0846    2.0839   -0.0359 C   0  0  1  0  0  0  0  0  0  0  0  0
   -5.1423    2.5237   -1.4974 C   0  0  0  0  0  0  0  0  0  0  0  0
   -5.7639    0.8352    0.1381 O   0  0  0  0  0  0  0  0  0  0  0  0
   -5.0340   -0.2914   -0.1306 C   0  0  0  0  0  0  0  0  0  0  0  0
   -5.7760   -1.4678   -0.2569 C   0  0  0  0  0  0  0  0  0  0  0  0
   -5.1420   -2.6700   -0.5644 C   0  0  0  0  0  0  0  0  0  0  0  0
   -3.7633   -2.6959   -0.7511 C   0  0  0  0  0  0  0  0  0  0  0  0
   -3.0182   -1.5238   -0.6101 C   0  0  0  0  0  0  0  0  0  0  0  0
   -3.6409   -0.3100   -0.2691 C   0  0  0  0  0  0  0  0  0  0  0  0
    2.5643    0.1105   -0.3344 C   0  0  0  0  0  0  0  0  0  0  0  0
    3.9473   -0.1012   -0.4502 C   0  0  0  0  0  0  0  0  0  0  0  0
    4.6238   -0.1494   -1.6412 O   0  0  0  0  0  0  0  0  0  0  0  0
    3.8705   -0.0013   -2.8389 C   0  0  0  0  0  0  0  0  0  0  0  0
    8.2167   -2.1376    0.8147 H   0  0  0  0  0  0  0  0  0  0  0  0
    8.4119   -0.9913   -0.5610 H   0  0  0  0  0  0  0  0  0  0  0  0
    7.9703   -2.6859   -0.8545 H   0  0  0  0  0  0  0  0  0  0  0  0
    4.7008   -0.2257    2.8817 H   0  0  0  0  0  0  0  0  0  0  0  0
    2.2804    0.1514    3.0625 H   0  0  0  0  0  0  0  0  0  0  0  0
    0.2438    0.4971    2.0544 H   0  0  0  0  0  0  0  0  0  0  0  0
   -1.7867    0.2169    1.5470 H   0  0  0  0  0  0  0  0  0  0  0  0
   -2.5448    1.2981   -1.1124 H   0  0  0  0  0  0  0  0  0  0  0  0
   -3.7665    1.8330    1.6292 H   0  0  0  0  0  0  0  0  0  0  0  0
   -3.1884    3.0204    0.4645 H   0  0  0  0  0  0  0  0  0  0  0  0
   -5.6610    2.8170    0.5421 H   0  0  0  0  0  0  0  0  0  0  0  0
   -4.6725    1.7973   -2.1685 H   0  0  0  0  0  0  0  0  0  0  0  0
   -4.6543    3.4934   -1.6359 H   0  0  0  0  0  0  0  0  0  0  0  0
   -6.1857    2.6118   -1.8216 H   0  0  0  0  0  0  0  0  0  0  0  0
   -6.8551   -1.4419   -0.1300 H   0  0  0  0  0  0  0  0  0  0  0  0
   -5.7249   -3.5806   -0.6713 H   0  0  0  0  0  0  0  0  0  0  0  0
   -3.2663   -3.6272   -1.0114 H   0  0  0  0  0  0  0  0  0  0  0  0
   -1.9436   -1.5637   -0.7782 H   0  0  0  0  0  0  0  0  0  0  0  0
    1.9619    0.2066   -1.2289 H   0  0  0  0  0  0  0  0  0  0  0  0
    4.5670   -0.0680   -3.6801 H   0  0  0  0  0  0  0  0  0  0  0  0
    3.3886    0.9811   -2.8841 H   0  0  0  0  0  0  0  0  0  0  0  0
    3.1396   -0.8090   -2.9493 H   0  0  0  0  0  0  0  0  0  0  0  0
  1  2  1  0
  2  3  1  0
  3  4  2  0
  3  5  1  0
  5  6  1  0
  6  7  2  0
  7  8  1  0
  8  9  1  0
  9 10  1  0
 10 11  2  0
 10 12  1  0
 12 13  1  0
 13 14  1  0
 14 15  1  0
 15 16  1  0
 15 17  1  0
 17 18  1  0
 18 19  2  0
 19 20  1  0
 20 21  2  0
 21 22  1  0
 22 23  2  0
  8 24  2  0
 24 25  1  0
 25 26  1  0
 26 27  1  0
 25  5  2  0
 23 13  1  0
 23 18  1  0
  1 28  1  0
  1 29  1  0
  1 30  1  0
  6 31  1  0
  7 32  1  0
  9 33  1  0
 12 34  1  0
 13 35  1  6
 14 36  1  0
 14 37  1  0
 15 38  1  1
 16 39  1  0
 16 40  1  0
 16 41  1  0
 19 42  1  0
 20 43  1  0
 21 44  1  0
 22 45  1  0
 24 46  1  0
 27 47  1  0
 27 48  1  0
 27 49  1  0
M  END
$$$$
OCNT-2312721
     RDKit          3D

  0  0  0  0  0  0  0  0  0  0999 V3000
M  V30 BEGIN CTAB
M  V30 COUNTS 42 44 0 0 0
M  V30 BEGIN ATOM
M  V30 1 C 7.673404 0.871011 -0.026929 0
M  V30 2 O 6.282681 1.176930 -0.147759 0
M  V30 3 C 5.467068 0.259437 0.427762 0
M  V30 4 O 5.823380 -0.751878 1.009443 0
M  V30 5 C 4.042570 0.646628 0.259175 0
M  V30 6 C 3.659728 1.814685 -0.406528 0
M  V30 7 C 2.309043 2.094899 -0.516241 0
M  V30 8 N 1.338168 1.304199 -0.015979 0
M  V30 9 C 1.741039 0.172718 0.628849 0
M  V30 10 C 0.648532 -0.698666 1.168849 0
M  V30 11 O 0.879534 -1.773730 1.708417 0
M  V30 12 N -0.624697 -0.201847 0.982091 0
M  V30 13 C -1.824649 -1.003219 1.257010 0 CFG=1
M  V30 14 C -3.040007 -0.089049 1.411344 0
M  V30 15 C -3.575422 0.325465 0.070697 0
M  V30 16 C -4.458196 1.411385 -0.019477 0
M  V30 17 C -4.967854 1.808157 -1.256269 0
M  V30 18 C -4.603386 1.121426 -2.411725 0
M  V30 19 C -3.735173 0.033700 -2.327882 0
M  V30 20 C -3.232445 -0.371473 -1.091040 0
M  V30 21 O -2.388285 -1.445831 -1.120129 0
M  V30 22 C -2.059172 -2.046641 0.151796 0 CFG=2
M  V30 23 C -3.082127 -3.105967 0.559666 0
M  V30 24 F -3.192660 -4.070971 -0.383851 0
M  V30 25 F -2.709475 -3.720000 1.708444 0
M  V30 26 F -4.317536 -2.601896 0.766441 0
M  V30 27 C 3.065417 -0.196305 0.789353 0
M  V30 28 H 7.901991 -0.076677 -0.524553 0
M  V30 29 H 8.238805 1.666409 -0.520266 0
M  V30 30 H 7.968433 0.838152 1.026574 0
M  V30 31 H 4.386647 2.497403 -0.834052 0
M  V30 32 H 1.963548 2.990897 -1.026073 0
M  V30 33 H -0.688755 0.604071 0.359777 0
M  V30 34 H -1.638192 -1.510359 2.211877 0
M  V30 35 H -3.836127 -0.608808 1.956835 0
M  V30 36 H -2.769371 0.798336 1.997382 0
M  V30 37 H -4.752173 1.956312 0.875189 0
M  V30 38 H -5.649875 2.652430 -1.317940 0
M  V30 39 H -4.997801 1.428480 -3.376685 0
M  V30 40 H -3.454968 -0.505081 -3.229444 0
M  V30 41 H -1.118800 -2.582101 -0.026943 0
M  V30 42 H 3.327159 -1.112634 1.310939 0
M  V30 END ATOM
M  V30 BEGIN BOND
M  V30 1 1 1 2
M  V30 2 1 2 3
M  V30 3 2 3 4
M  V30 4 1 3 5
M  V30 5 2 5 6
M  V30 6 1 6 7
M  V30 7 2 7 8
M  V30 8 1 8 9
M  V30 9 1 9 10
M  V30 10 2 10 11
M  V30 11 1 10 12
M  V30 12 1 12 13
M  V30 13 1 13 14
M  V30 14 1 14 15
M  V30 15 2 15 16
M  V30 16 1 16 17
M  V30 17 2 17 18
M  V30 18 1 18 19
M  V30 19 2 19 20
M  V30 20 1 20 21
M  V30 21 1 21 22
M  V30 22 1 22 23
M  V30 23 1 23 24
M  V30 24 1 23 25
M  V30 25 1 23 26
M  V30 26 2 9 27
M  V30 27 1 27 5
M  V30 28 1 22 13
M  V30 29 1 20 15
M  V30 30 1 1 28
M  V30 31 1 1 29
M  V30 32 1 1 30
M  V30 33 1 6 31
M  V30 34 1 7 32
M  V30 35 1 12 33
M  V30 36 1 13 34 CFG=1
M  V30 37 1 14 35
M  V30 38 1 14 36
M  V30 39 1 16 37
M  V30 40 1 17 38
M  V30 41 1 18 39
M  V30 42 1 19 40
M  V30 43 1 22 41 CFG=3
M  V30 44 1 27 42
M  V30 END BOND
M  V30 BEGIN COLLECTION
M  V30 MDLV30/STERAC1 ATOMS=(2 13 22)
M  V30 END COLLECTION
M  V30 END CTAB
M  END
>  <_CXSMILES_Data>  (658) 
|&1:12,21|

$$$$
OCNT-2312735
     RDKit          3D

 40 43  0  0  0  0  0  0  0  0999 V2000
    1.5241   -2.5784    1.7078 C   0  0  0  0  0  0  0  0  0  0  0  0
    1.1133   -1.2087    1.2498 C   0  0  0  0  0  0  0  0  0  0  0  0
   -0.2334   -0.9386    0.9447 C   0  0  0  0  0  0  0  0  0  0  0  0
   -0.6560    0.3293    0.5258 C   0  0  0  0  0  0  0  0  0  0  0  0
   -1.9858    0.6437    0.1894 N   0  0  0  0  0  0  0  0  0  0  0  0
   -3.1320   -0.1471    0.0194 C   0  0  0  0  0  0  0  0  0  0  0  0
   -4.3997    0.4164   -0.1998 C   0  0  0  0  0  0  0  0  0  0  0  0
   -4.9993    1.6995   -0.3019 C   0  0  0  0  0  0  0  0  0  0  0  0
   -4.3693    3.0349   -0.1867 C   0  0  0  0  0  0  0  0  0  0  0  0
   -6.3161    1.6117   -0.5304 N   0  0  0  0  0  0  0  0  0  0  0  0
   -6.5974    0.2560   -0.5741 O   0  0  0  0  0  0  0  0  0  0  0  0
   -5.4555   -0.4588   -0.3763 C   0  0  0  0  0  0  0  0  0  0  0  0
   -5.4160   -1.7977   -0.3653 N   0  0  0  0  0  0  0  0  0  0  0  0
   -4.1748   -2.2390   -0.1532 C   0  0  0  0  0  0  0  0  0  0  0  0
   -3.0627   -1.5043    0.0334 N   0  0  0  0  0  0  0  0  0  0  0  0
    0.3164    1.3367    0.4079 C   0  0  0  0  0  0  0  0  0  0  0  0
    1.6596    1.0881    0.7004 C   0  0  0  0  0  0  0  0  0  0  0  0
    2.0571   -0.1877    1.0998 C   0  0  0  0  0  0  0  0  0  0  0  0
    3.3702   -0.4453    1.4221 O   0  0  0  0  0  0  0  0  0  0  0  0
    4.3068   -0.2493    0.4373 C   0  0  0  0  0  0  0  0  0  0  0  0
    4.1120   -0.5613   -0.9068 C   0  0  0  0  0  0  0  0  0  0  0  0
    5.1499   -0.3497   -1.8120 C   0  0  0  0  0  0  0  0  0  0  0  0
    6.3496    0.1558   -1.3349 C   0  0  0  0  0  0  0  0  0  0  0  0
    6.5770    0.4521   -0.0369 N   0  0  0  0  0  0  0  0  0  0  0  0
    5.5511    0.2327    0.8205 C   0  0  0  0  0  0  0  0  0  0  0  0
    2.1904   -3.0387    0.9714 H   0  0  0  0  0  0  0  0  0  0  0  0
    0.6584   -3.2366    1.8345 H   0  0  0  0  0  0  0  0  0  0  0  0
    2.0365   -2.5190    2.6734 H   0  0  0  0  0  0  0  0  0  0  0  0
   -0.9556   -1.7414    1.0601 H   0  0  0  0  0  0  0  0  0  0  0  0
   -2.1436    1.6319    0.0653 H   0  0  0  0  0  0  0  0  0  0  0  0
   -3.6372    3.1821   -0.9870 H   0  0  0  0  0  0  0  0  0  0  0  0
   -3.8578    3.1351    0.7758 H   0  0  0  0  0  0  0  0  0  0  0  0
   -5.1087    3.8398   -0.2563 H   0  0  0  0  0  0  0  0  0  0  0  0
   -4.0433   -3.3168   -0.1284 H   0  0  0  0  0  0  0  0  0  0  0  0
    0.0382    2.3361    0.0831 H   0  0  0  0  0  0  0  0  0  0  0  0
    2.3873    1.8903    0.6149 H   0  0  0  0  0  0  0  0  0  0  0  0
    3.1705   -0.9746   -1.2562 H   0  0  0  0  0  0  0  0  0  0  0  0
    5.0275   -0.5810   -2.8640 H   0  0  0  0  0  0  0  0  0  0  0  0
    7.1863    0.3360   -2.0040 H   0  0  0  0  0  0  0  0  0  0  0  0
    5.7616    0.4661    1.8600 H   0  0  0  0  0  0  0  0  0  0  0  0
  1  2  1  0
  2  3  1  0
  3  4  2  0
  4  5  1  0
  5  6  1  0
  6  7  2  0
  7  8  1  0
  8  9  1  0
  8 10  2  0
 10 11  1  0
 11 12  1  0
 12 13  2  0
 13 14  1  0
 14 15  2  0
  4 16  1  0
 16 17  2  0
 17 18  1  0
 18 19  1  0
 19 20  1  0
 20 21  1  0
 21 22  2  0
 22 23  1  0
 23 24  2  0
 24 25  1  0
 18  2  2  0
 25 20  2  0
 15  6  1  0
 12  7  1  0
  1 26  1  0
  1 27  1  0
  1 28  1  0
  3 29  1  0
  5 30  1  0
  9 31  1  0
  9 32  1  0
  9 33  1  0
 14 34  1  0
 16 35  1  0
 17 36  1  0
 21 37  1  0
 22 38  1  0
 23 39  1  0
 25 40  1  0
M  END
$$$$
OCNT-2312738
     RDKit          3D

  0  0  0  0  0  0  0  0  0  0999 V3000
M  V30 BEGIN CTAB
M  V30 COUNTS 43 44 0 0 0
M  V30 BEGIN ATOM
M  V30 1 C -4.696295 1.702878 -1.279603 0
M  V30 2 C -4.778367 0.374217 -1.428852 0
M  V30 3 C -4.044656 -0.696306 -0.671819 0 CFG=2
M  V30 4 O -5.031814 -1.639163 -0.196077 0
M  V30 5 C -4.791196 -1.880973 1.194305 0
M  V30 6 C -3.347218 -1.518190 1.440624 0
M  V30 7 C -3.179158 -0.305645 0.546695 0 CFG=1
M  V30 8 N -1.777306 -0.078775 0.226804 0
M  V30 9 C -1.185263 1.158156 0.314565 0
M  V30 10 O -1.785778 2.153130 0.707063 0
M  V30 11 C 0.204647 1.241648 -0.115547 0
M  V30 12 C 1.172579 0.255070 -0.296671 0
M  V30 13 C 1.113471 -1.205201 -0.082501 0
M  V30 14 F 0.065121 -1.735074 -0.774102 0
M  V30 15 F 0.869207 -1.483448 1.224754 0
M  V30 16 N 2.311427 0.916207 -0.691578 0
M  V30 17 C 3.621725 0.383043 -1.034252 0
M  V30 18 C 4.661634 0.530046 0.089384 0
M  V30 19 C 6.048729 0.157887 -0.438381 0
M  V30 20 C 4.324314 -0.330955 1.307943 0
M  V30 21 N 2.149459 2.248399 -0.776045 0
M  V30 22 C 0.884872 2.444454 -0.409132 0
M  V30 23 H -5.292735 2.363679 -1.902037 0
M  V30 24 H -4.048097 2.176624 -0.549856 0
M  V30 25 H -5.456876 -0.005300 -2.191907 0
M  V30 26 H -3.430546 -1.246317 -1.396966 0
M  V30 27 H -5.468389 -1.242980 1.772729 0
M  V30 28 H -5.009157 -2.926322 1.429354 0
M  V30 29 H -3.129918 -1.316211 2.493375 0
M  V30 30 H -2.693828 -2.336077 1.111305 0
M  V30 31 H -3.596152 0.566686 1.063364 0
M  V30 32 H -1.282239 -0.829105 -0.239809 0
M  V30 33 H 2.008597 -1.752673 -0.376110 0
M  V30 34 H 3.510364 -0.659453 -1.345047 0
M  V30 35 H 3.949632 0.933945 -1.925746 0
M  V30 36 H 4.695241 1.577724 0.414911 0
M  V30 37 H 6.079705 -0.884168 -0.774617 0
M  V30 38 H 6.808908 0.285974 0.339537 0
M  V30 39 H 6.327422 0.795801 -1.283818 0
M  V30 40 H 5.102183 -0.239837 2.073795 0
M  V30 41 H 4.241245 -1.388832 1.037052 0
M  V30 42 H 3.380358 -0.019320 1.765395 0
M  V30 43 H 0.494151 3.454755 -0.372479 0
M  V30 END ATOM
M  V30 BEGIN BOND
M  V30 1 2 1 2
M  V30 2 1 2 3
M  V30 3 1 3 4
M  V30 4 1 4 5
M  V30 5 1 5 6
M  V30 6 1 6 7
M  V30 7 1 7 8
M  V30 8 1 8 9
M  V30 9 2 9 10
M  V30 10 1 9 11
M  V30 11 2 11 12
M  V30 12 1 12 13
M  V30 13 1 13 14
M  V30 14 1 13 15
M  V30 15 1 12 16
M  V30 16 1 16 17
M  V30 17 1 17 18
M  V30 18 1 18 19
M  V30 19 1 18 20
M  V30 20 1 16 21
M  V30 21 2 21 22
M  V30 22 1 7 3
M  V30 23 1 22 11
M  V30 24 1 1 23
M  V30 25 1 1 24
M  V30 26 1 2 25
M  V30 27 1 3 26 CFG=3
M  V30 28 1 5 27
M  V30 29 1 5 28
M  V30 30 1 6 29
M  V30 31 1 6 30
M  V30 32 1 7 31 CFG=1
M  V30 33 1 8 32
M  V30 34 1 13 33
M  V30 35 1 17 34
M  V30 36 1 17 35
M  V30 37 1 18 36
M  V30 38 1 19 37
M  V30 39 1 19 38
M  V30 40 1 19 39
M  V30 41 1 20 40
M  V30 42 1 20 41
M  V30 43 1 20 42
M  V30 44 1 22 43
M  V30 END BOND
M  V30 BEGIN COLLECTION
M  V30 MDLV30/STERAC1 ATOMS=(2 3 7)
M  V30 END COLLECTION
M  V30 END CTAB
M  END
>  <_CXSMILES_Data>  (660) 
|&1:2,6|

$$$$
OCNT-2312743
     RDKit          3D

 49 51  0  0  0  0  0  0  0  0999 V2000
    6.3102    2.1657    0.8985 C   0  0  0  0  0  0  0  0  0  0  0  0
    6.5878    1.0638    0.0441 O   0  0  0  0  0  0  0  0  0  0  0  0
    5.4095    0.4959   -0.5379 C   0  0  0  0  0  0  0  0  0  0  0  0
    4.7635   -0.5232    0.3919 C   0  0  0  0  0  0  0  0  0  0  0  0
    3.5111   -1.0221   -0.1433 N   0  0  0  0  0  0  0  0  0  0  0  0
    3.5531   -2.0387   -1.0215 N   0  0  0  0  0  0  0  0  0  0  0  0
    2.2693   -2.2999   -1.2782 C   0  0  0  0  0  0  0  0  0  0  0  0
    1.9141   -3.4016   -2.2065 C   0  0  0  0  0  0  0  0  0  0  0  0
    1.3965   -1.4342   -0.5593 C   0  0  0  0  0  0  0  0  0  0  0  0
    0.0117   -1.4751   -0.6194 N   0  0  0  0  0  0  0  0  0  0  0  0
   -0.8708   -0.9487    0.2964 C   0  0  0  0  0  0  0  0  0  0  0  0
   -0.6039   -0.4628    1.3859 O   0  0  0  0  0  0  0  0  0  0  0  0
   -2.1681   -1.0707   -0.1621 N   0  0  0  0  0  0  0  0  0  0  0  0
   -3.2612   -0.4382    0.5635 C   0  0  1  0  0  0  0  0  0  0  0  0
   -3.6441    0.8892   -0.0385 C   0  0  0  0  0  0  0  0  0  0  0  0
   -2.8124    1.9439   -0.3900 C   0  0  0  0  0  0  0  0  0  0  0  0
   -3.3884    3.1045   -0.9105 C   0  0  0  0  0  0  0  0  0  0  0  0
   -4.7793    3.2055   -1.0595 C   0  0  0  0  0  0  0  0  0  0  0  0
   -5.6127    2.1502   -0.6845 C   0  0  0  0  0  0  0  0  0  0  0  0
   -5.0318    0.9980   -0.1785 C   0  0  0  0  0  0  0  0  0  0  0  0
   -5.7331   -0.2235    0.3344 C   0  0  0  0  0  0  0  0  0  0  0  0
   -4.5862   -1.2445    0.4222 C   0  0  1  0  0  0  0  0  0  0  0  0
   -4.5799   -2.0555   -0.7681 O   0  0  0  0  0  0  0  0  0  0  0  0
    2.2382   -0.5691    0.1165 C   0  0  0  0  0  0  0  0  0  0  0  0
    1.9771    0.6326    0.9531 C   0  0  0  0  0  0  0  0  0  0  0  0
    7.2586    2.5397    1.2935 H   0  0  0  0  0  0  0  0  0  0  0  0
    5.6809    1.8622    1.7394 H   0  0  0  0  0  0  0  0  0  0  0  0
    5.8263    2.9713    0.3379 H   0  0  0  0  0  0  0  0  0  0  0  0
    4.7102    1.2890   -0.8299 H   0  0  0  0  0  0  0  0  0  0  0  0
    5.7210   -0.0028   -1.4629 H   0  0  0  0  0  0  0  0  0  0  0  0
    5.4319   -1.3792    0.5456 H   0  0  0  0  0  0  0  0  0  0  0  0
    4.5733   -0.1108    1.3874 H   0  0  0  0  0  0  0  0  0  0  0  0
    1.3218   -4.1614   -1.6867 H   0  0  0  0  0  0  0  0  0  0  0  0
    1.3248   -3.0175   -3.0454 H   0  0  0  0  0  0  0  0  0  0  0  0
    2.8050   -3.8894   -2.6158 H   0  0  0  0  0  0  0  0  0  0  0  0
   -0.3783   -2.1710   -1.2367 H   0  0  0  0  0  0  0  0  0  0  0  0
   -2.2654   -1.0044   -1.1666 H   0  0  0  0  0  0  0  0  0  0  0  0
   -3.0204   -0.2905    1.6226 H   0  0  0  0  0  0  0  0  0  0  0  0
   -1.7365    1.8783   -0.2557 H   0  0  0  0  0  0  0  0  0  0  0  0
   -2.7546    3.9411   -1.1946 H   0  0  0  0  0  0  0  0  0  0  0  0
   -5.2121    4.1187   -1.4610 H   0  0  0  0  0  0  0  0  0  0  0  0
   -6.6901    2.2365   -0.7856 H   0  0  0  0  0  0  0  0  0  0  0  0
   -6.5272   -0.5465   -0.3452 H   0  0  0  0  0  0  0  0  0  0  0  0
   -6.1415   -0.0091    1.3275 H   0  0  0  0  0  0  0  0  0  0  0  0
   -4.7289   -1.9335    1.2616 H   0  0  0  0  0  0  0  0  0  0  0  0
   -3.7991   -2.6314   -0.6821 H   0  0  0  0  0  0  0  0  0  0  0  0
    1.1031    1.1816    0.5897 H   0  0  0  0  0  0  0  0  0  0  0  0
    2.8108    1.3409    0.9222 H   0  0  0  0  0  0  0  0  0  0  0  0
    1.8161    0.3467    1.9968 H   0  0  0  0  0  0  0  0  0  0  0  0
  1  2  1  0
  2  3  1  0
  3  4  1  0
  4  5  1  0
  5  6  1  0
  6  7  2  0
  7  8  1  0
  7  9  1  0
  9 10  1  0
 10 11  1  0
 11 12  2  0
 11 13  1  0
 13 14  1  0
 14 15  1  0
 15 16  2  0
 16 17  1  0
 17 18  2  0
 18 19  1  0
 19 20  2  0
 20 21  1  0
 21 22  1  0
 22 23  1  0
  9 24  2  0
 24 25  1  0
 24  5  1  0
 22 14  1  0
 20 15  1  0
  1 26  1  0
  1 27  1  0
  1 28  1  0
  3 29  1  0
  3 30  1  0
  4 31  1  0
  4 32  1  0
  8 33  1  0
  8 34  1  0
  8 35  1  0
 10 36  1  0
 13 37  1  0
 14 38  1  1
 16 39  1  0
 17 40  1  0
 18 41  1  0
 19 42  1  0
 21 43  1  0
 21 44  1  0
 22 45  1  1
 23 46  1  0
 25 47  1  0
 25 48  1  0
 25 49  1  0
M  END
$$$$
OCNT-2312773
     RDKit          3D

 49 52  0  0  0  0  0  0  0  0999 V2000
    2.5505    0.1222   -1.6023 C   0  0  0  0  0  0  0  0  0  0  0  0
    2.5248   -0.5360   -0.2767 C   0  0  0  0  0  0  0  0  0  0  0  0
    1.5479   -1.3589    0.2638 C   0  0  0  0  0  0  0  0  0  0  0  0
    0.2431   -1.8117   -0.2903 C   0  0  0  0  0  0  0  0  0  0  0  0
   -0.7712   -0.6882   -0.4711 C   0  0  0  0  0  0  0  0  0  0  0  0
   -0.4694    0.4999   -0.3422 O   0  0  0  0  0  0  0  0  0  0  0  0
   -2.0666   -1.0642   -0.8425 N   0  0  0  0  0  0  0  0  0  0  0  0
   -2.5605   -2.4483   -0.8111 C   0  0  0  0  0  0  0  0  0  0  0  0
   -3.7317   -2.6669   -1.7737 C   0  0  0  0  0  0  0  0  0  0  0  0
   -4.7599   -1.6894   -1.5810 O   0  0  0  0  0  0  0  0  0  0  0  0
   -4.2393   -0.3734   -1.8205 C   0  0  0  0  0  0  0  0  0  0  0  0
   -3.1192   -0.0185   -0.8229 C   0  0  0  0  0  0  0  0  0  0  0  0
   -3.6548    0.1779    0.6155 C   0  0  0  0  0  0  0  0  0  0  0  0
   -4.4767    1.4286    0.7687 C   0  0  0  0  0  0  0  0  0  0  0  0
   -3.8048    2.7741    0.8556 C   0  0  0  0  0  0  0  0  0  0  0  0
   -4.4592    2.1831    2.0734 C   0  0  0  0  0  0  0  0  0  0  0  0
    1.9744   -1.8414    1.4643 N   0  0  0  0  0  0  0  0  0  0  0  0
    3.1703   -1.3373    1.7078 N   0  0  0  0  0  0  0  0  0  0  0  0
    3.5059   -0.4728    0.7103 N   0  0  0  0  0  0  0  0  0  0  0  0
    4.7116    0.2838    0.8147 C   0  0  0  0  0  0  0  0  0  0  0  0
    5.0101    1.3531   -0.0373 C   0  0  0  0  0  0  0  0  0  0  0  0
    6.2082    2.0629    0.1088 C   0  0  0  0  0  0  0  0  0  0  0  0
    7.1148    1.7192    1.1082 C   0  0  0  0  0  0  0  0  0  0  0  0
    6.8234    0.6696    1.9730 C   0  0  0  0  0  0  0  0  0  0  0  0
    5.6285   -0.0410    1.8321 C   0  0  0  0  0  0  0  0  0  0  0  0
    2.3042    1.1846   -1.5162 H   0  0  0  0  0  0  0  0  0  0  0  0
    3.5226    0.0038   -2.0900 H   0  0  0  0  0  0  0  0  0  0  0  0
    1.8104   -0.3260   -2.2741 H   0  0  0  0  0  0  0  0  0  0  0  0
   -0.1781   -2.5566    0.3943 H   0  0  0  0  0  0  0  0  0  0  0  0
    0.4099   -2.2880   -1.2629 H   0  0  0  0  0  0  0  0  0  0  0  0
   -1.7618   -3.1528   -1.0553 H   0  0  0  0  0  0  0  0  0  0  0  0
   -2.8791   -2.6431    0.2194 H   0  0  0  0  0  0  0  0  0  0  0  0
   -4.1712   -3.6554   -1.6073 H   0  0  0  0  0  0  0  0  0  0  0  0
   -3.3924   -2.6262   -2.8158 H   0  0  0  0  0  0  0  0  0  0  0  0
   -5.0716    0.3330   -1.7563 H   0  0  0  0  0  0  0  0  0  0  0  0
   -3.8621   -0.3284   -2.8501 H   0  0  0  0  0  0  0  0  0  0  0  0
   -2.6708    0.9258   -1.1558 H   0  0  0  0  0  0  0  0  0  0  0  0
   -2.8096    0.2119    1.3151 H   0  0  0  0  0  0  0  0  0  0  0  0
   -4.2623   -0.6829    0.9200 H   0  0  0  0  0  0  0  0  0  0  0  0
   -5.4322    1.3641    0.2603 H   0  0  0  0  0  0  0  0  0  0  0  0
   -2.7205    2.8171    0.8355 H   0  0  0  0  0  0  0  0  0  0  0  0
   -4.2894    3.6178    0.3776 H   0  0  0  0  0  0  0  0  0  0  0  0
   -5.3870    2.6268    2.4166 H   0  0  0  0  0  0  0  0  0  0  0  0
   -3.8154    1.8338    2.8731 H   0  0  0  0  0  0  0  0  0  0  0  0
    4.3299    1.6986   -0.8042 H   0  0  0  0  0  0  0  0  0  0  0  0
    6.4276    2.8959   -0.5552 H   0  0  0  0  0  0  0  0  0  0  0  0
    8.0420    2.2754    1.2191 H   0  0  0  0  0  0  0  0  0  0  0  0
    7.5227    0.4017    2.7611 H   0  0  0  0  0  0  0  0  0  0  0  0
    5.4339   -0.8572    2.5268 H   0  0  0  0  0  0  0  0  0  0  0  0
  1  2  1  0
  2  3  2  0
  3  4  1  0
  4  5  1  0
  5  6  2  0
  5  7  1  0
  7  8  1  0
  8  9  1  0
  9 10  1  0
 10 11  1  0
 11 12  1  0
 12 13  1  0
 13 14  1  0
 14 15  1  0
 15 16  1  0
  3 17  1  0
 17 18  2  0
 18 19  1  0
 19 20  1  0
 20 21  2  0
 21 22  1  0
 22 23  2  0
 23 24  1  0
 24 25  2  0
 19  2  1  0
 25 20  1  0
 12  7  1  0
 16 14  1  0
  1 26  1  0
  1 27  1  0
  1 28  1  0
  4 29  1  0
  4 30  1  0
  8 31  1  0
  8 32  1  0
  9 33  1  0
  9 34  1  0
 11 35  1  0
 11 36  1  0
 12 37  1  0
 13 38  1  0
 13 39  1  0
 14 40  1  0
 15 41  1  0
 15 42  1  0
 16 43  1  0
 16 44  1  0
 21 45  1  0
 22 46  1  0
 23 47  1  0
 24 48  1  0
 25 49  1  0
M  END
$$$$
OCNT-2312798
     RDKit          3D

 45 47  0  0  0  0  0  0  0  0999 V2000
   -0.5506   -1.0332    1.1156 C   0  0  0  0  0  0  0  0  0  0  0  0
   -0.9727   -0.4318   -0.2359 C   0  0  0  0  0  0  0  0  0  0  0  0
   -1.8351    0.8565   -0.0617 C   0  0  0  0  0  0  0  0  0  0  0  0
   -3.1550    0.7056    0.6637 C   0  0  0  0  0  0  0  0  0  0  0  0
   -3.2076    0.7750    2.0650 C   0  0  0  0  0  0  0  0  0  0  0  0
   -4.4240    0.6396    2.7355 C   0  0  0  0  0  0  0  0  0  0  0  0
   -5.5896    0.4427    2.0066 C   0  0  0  0  0  0  0  0  0  0  0  0
   -6.7572    0.3126    2.6501 F   0  0  0  0  0  0  0  0  0  0  0  0
   -5.5631    0.3831    0.6190 C   0  0  0  0  0  0  0  0  0  0  0  0
   -4.3475    0.5184   -0.0533 C   0  0  0  0  0  0  0  0  0  0  0  0
   -1.6924   -1.5294   -1.0616 C   0  0  0  0  0  0  0  0  0  0  0  0
   -1.3608   -1.1807   -2.5039 C   0  0  0  0  0  0  0  0  0  0  0  0
    0.0900   -0.7447   -2.4080 C   0  0  0  0  0  0  0  0  0  0  0  0
    0.2102   -0.1298   -1.0919 N   0  0  0  0  0  0  0  0  0  0  0  0
    1.2476    0.7033   -0.6946 C   0  0  0  0  0  0  0  0  0  0  0  0
    1.2453    1.2772    0.3936 O   0  0  0  0  0  0  0  0  0  0  0  0
    2.4146    0.8565   -1.6876 C   0  0  0  0  0  0  0  0  0  0  0  0
    3.5477    1.5684   -1.2129 O   0  0  0  0  0  0  0  0  0  0  0  0
    4.4494    0.8924   -0.4444 C   0  0  0  0  0  0  0  0  0  0  0  0
    4.2839   -0.3679    0.1222 C   0  0  0  0  0  0  0  0  0  0  0  0
    5.3122   -0.9183    0.8888 C   0  0  0  0  0  0  0  0  0  0  0  0
    6.4757   -0.1866    1.0633 C   0  0  0  0  0  0  0  0  0  0  0  0
    6.6734    1.0374    0.5344 N   0  0  0  0  0  0  0  0  0  0  0  0
    5.6519    1.5477   -0.1965 C   0  0  0  0  0  0  0  0  0  0  0  0
   -1.4018   -1.4879    1.6334 H   0  0  0  0  0  0  0  0  0  0  0  0
    0.2062   -1.8147    0.9792 H   0  0  0  0  0  0  0  0  0  0  0  0
   -0.1199   -0.2805    1.7832 H   0  0  0  0  0  0  0  0  0  0  0  0
   -2.0320    1.3014   -1.0471 H   0  0  0  0  0  0  0  0  0  0  0  0
   -1.2553    1.6253    0.4658 H   0  0  0  0  0  0  0  0  0  0  0  0
   -2.2998    0.9418    2.6421 H   0  0  0  0  0  0  0  0  0  0  0  0
   -4.4687    0.6916    3.8185 H   0  0  0  0  0  0  0  0  0  0  0  0
   -6.4879    0.2362    0.0707 H   0  0  0  0  0  0  0  0  0  0  0  0
   -4.3371    0.4792   -1.1403 H   0  0  0  0  0  0  0  0  0  0  0  0
   -1.2685   -2.5182   -0.8388 H   0  0  0  0  0  0  0  0  0  0  0  0
   -2.7674   -1.5988   -0.8844 H   0  0  0  0  0  0  0  0  0  0  0  0
   -1.9891   -0.3508   -2.8471 H   0  0  0  0  0  0  0  0  0  0  0  0
   -1.5004   -2.0214   -3.1890 H   0  0  0  0  0  0  0  0  0  0  0  0
    0.7668   -1.6056   -2.4363 H   0  0  0  0  0  0  0  0  0  0  0  0
    0.3635   -0.0461   -3.2030 H   0  0  0  0  0  0  0  0  0  0  0  0
    2.7133   -0.1188   -2.0897 H   0  0  0  0  0  0  0  0  0  0  0  0
    2.0275    1.4419   -2.5297 H   0  0  0  0  0  0  0  0  0  0  0  0
    3.3696   -0.9384    0.0088 H   0  0  0  0  0  0  0  0  0  0  0  0
    5.2030   -1.8947    1.3478 H   0  0  0  0  0  0  0  0  0  0  0  0
    7.3000   -0.5757    1.6539 H   0  0  0  0  0  0  0  0  0  0  0  0
    5.8318    2.5400   -0.6013 H   0  0  0  0  0  0  0  0  0  0  0  0
  1  2  1  0
  2  3  1  0
  3  4  1  0
  4  5  1  0
  5  6  2  0
  6  7  1  0
  7  8  1  0
  7  9  2  0
  9 10  1  0
  2 11  1  0
 11 12  1  0
 12 13  1  0
 13 14  1  0
 14 15  1  0
 15 16  2  0
 15 17  1  0
 17 18  1  0
 18 19  1  0
 19 20  1  0
 20 21  2  0
 21 22  1  0
 22 23  2  0
 23 24  1  0
 14  2  1  0
 24 19  2  0
 10  4  2  0
  1 25  1  0
  1 26  1  0
  1 27  1  0
  3 28  1  0
  3 29  1  0
  5 30  1  0
  6 31  1  0
  9 32  1  0
 10 33  1  0
 11 34  1  0
 11 35  1  0
 12 36  1  0
 12 37  1  0
 13 38  1  0
 13 39  1  0
 17 40  1  0
 17 41  1  0
 20 42  1  0
 21 43  1  0
 22 44  1  0
 24 45  1  0
M  END
$$$$
OCNT-2312800
     RDKit          3D

 48 50  0  0  0  0  0  0  0  0999 V2000
    9.4367    0.1702   -0.3003 C   0  0  0  0  0  0  0  0  0  0  0  0
    8.2892    0.9887   -0.1178 O   0  0  0  0  0  0  0  0  0  0  0  0
    7.1076    0.3294   -0.0076 C   0  0  0  0  0  0  0  0  0  0  0  0
    6.9031   -1.0313   -0.0692 C   0  0  0  0  0  0  0  0  0  0  0  0
    5.2507   -1.4421    0.1162 S   0  0  0  0  0  0  0  0  0  0  0  0
    4.7877    0.2003    0.2827 C   0  0  0  0  0  0  0  0  0  0  0  0
    3.4034    0.6097    0.4862 C   0  0  0  0  0  0  0  0  0  0  0  0
    3.0692    1.7877    0.5897 O   0  0  0  0  0  0  0  0  0  0  0  0
    2.4768   -0.4139    0.5432 N   0  0  0  0  0  0  0  0  0  0  0  0
    1.0421   -0.1678    0.6106 C   0  0  0  0  0  0  0  0  0  0  0  0
    0.3067   -1.3798    1.2010 C   0  0  0  0  0  0  0  0  0  0  0  0
   -1.0964   -1.5711    0.6150 C   0  0  0  0  0  0  0  0  0  0  0  0
   -1.7302   -0.2752    0.3755 N   0  0  0  0  0  0  0  0  0  0  0  0
   -3.1677   -0.4257    0.0842 C   0  0  0  0  0  0  0  0  0  0  0  0
   -3.9249    0.9132    0.0498 C   0  0  0  0  0  0  0  0  0  0  0  0
   -5.4066    0.7068   -0.1607 C   0  0  0  0  0  0  0  0  0  0  0  0
   -6.2660    0.5622    0.9366 C   0  0  0  0  0  0  0  0  0  0  0  0
   -7.6318    0.3518    0.7416 C   0  0  0  0  0  0  0  0  0  0  0  0
   -8.1498    0.2801   -0.5503 C   0  0  0  0  0  0  0  0  0  0  0  0
   -7.3027    0.4176   -1.6484 C   0  0  0  0  0  0  0  0  0  0  0  0
   -5.9365    0.6281   -1.4557 C   0  0  0  0  0  0  0  0  0  0  0  0
   -1.0260    0.4935   -0.6656 C   0  0  0  0  0  0  0  0  0  0  0  0
    0.4732    0.1863   -0.7615 C   0  0  0  0  0  0  0  0  0  0  0  0
    5.8881    1.0335    0.1940 C   0  0  0  0  0  0  0  0  0  0  0  0
    9.3745   -0.3960   -1.2359 H   0  0  0  0  0  0  0  0  0  0  0  0
   10.3094    0.8271   -0.3665 H   0  0  0  0  0  0  0  0  0  0  0  0
    9.5870   -0.4979    0.5545 H   0  0  0  0  0  0  0  0  0  0  0  0
    7.6242   -1.8226   -0.2128 H   0  0  0  0  0  0  0  0  0  0  0  0
    2.8081   -1.3433    0.3187 H   0  0  0  0  0  0  0  0  0  0  0  0
    0.8908    0.6917    1.2774 H   0  0  0  0  0  0  0  0  0  0  0  0
    0.8742   -2.3054    1.0411 H   0  0  0  0  0  0  0  0  0  0  0  0
    0.2416   -1.2495    2.2892 H   0  0  0  0  0  0  0  0  0  0  0  0
   -1.0454   -2.1563   -0.3127 H   0  0  0  0  0  0  0  0  0  0  0  0
   -1.6773   -2.1661    1.3306 H   0  0  0  0  0  0  0  0  0  0  0  0
   -3.3118   -0.9669   -0.8607 H   0  0  0  0  0  0  0  0  0  0  0  0
   -3.6222   -1.0459    0.8687 H   0  0  0  0  0  0  0  0  0  0  0  0
   -3.5440    1.5601   -0.7499 H   0  0  0  0  0  0  0  0  0  0  0  0
   -3.7638    1.4617    0.9869 H   0  0  0  0  0  0  0  0  0  0  0  0
   -5.8751    0.6137    1.9505 H   0  0  0  0  0  0  0  0  0  0  0  0
   -8.2917    0.2440    1.5984 H   0  0  0  0  0  0  0  0  0  0  0  0
   -9.2136    0.1172   -0.7010 H   0  0  0  0  0  0  0  0  0  0  0  0
   -7.7065    0.3616   -2.6558 H   0  0  0  0  0  0  0  0  0  0  0  0
   -5.2877    0.7324   -2.3223 H   0  0  0  0  0  0  0  0  0  0  0  0
   -1.1493    1.5600   -0.4424 H   0  0  0  0  0  0  0  0  0  0  0  0
   -1.4633    0.3194   -1.6572 H   0  0  0  0  0  0  0  0  0  0  0  0
    0.9946    1.0478   -1.1952 H   0  0  0  0  0  0  0  0  0  0  0  0
    0.6368   -0.6514   -1.4530 H   0  0  0  0  0  0  0  0  0  0  0  0
    5.8149    2.1124    0.2730 H   0  0  0  0  0  0  0  0  0  0  0  0
  1  2  1  0
  2  3  1  0
  3  4  2  0
  4  5  1  0
  5  6  1  0
  6  7  1  0
  7  8  2  0
  7  9  1  0
  9 10  1  0
 10 11  1  0
 11 12  1  0
 12 13  1  0
 13 14  1  0
 14 15  1  0
 15 16  1  0
 16 17  2  0
 17 18  1  0
 18 19  2  0
 19 20  1  0
 20 21  2  0
 13 22  1  0
 22 23  1  0
  6 24  2  0
 24  3  1  0
 23 10  1  0
 21 16  1  0
  1 25  1  0
  1 26  1  0
  1 27  1  0
  4 28  1  0
  9 29  1  0
 10 30  1  0
 11 31  1  0
 11 32  1  0
 12 33  1  0
 12 34  1  0
 14 35  1  0
 14 36  1  0
 15 37  1  0
 15 38  1  0
 17 39  1  0
 18 40  1  0
 19 41  1  0
 20 42  1  0
 21 43  1  0
 22 44  1  0
 22 45  1  0
 23 46  1  0
 23 47  1  0
 24 48  1  0
M  END
$$$$
OCNT-2312825
     RDKit          3D

 36 39  0  0  0  0  0  0  0  0999 V2000
    0.6464   -2.6207   -0.6898 O   0  0  0  0  0  0  0  0  0  0  0  0
    0.5041   -1.6247    0.0129 C   0  0  0  0  0  0  0  0  0  0  0  0
   -0.6746   -1.2856    0.6359 N   0  0  0  0  0  0  0  0  0  0  0  0
   -1.9120   -1.9692    0.3815 C   0  0  0  0  0  0  0  0  0  0  0  0
   -2.6733   -1.1998   -0.6528 C   0  0  0  0  0  0  0  0  0  0  0  0
   -2.5518   -1.4233   -2.0114 C   0  0  0  0  0  0  0  0  0  0  0  0
   -3.5407   -0.4020   -2.9441 S   0  0  0  0  0  0  0  0  0  0  0  0
   -4.1656    0.3876   -1.5498 C   0  0  0  0  0  0  0  0  0  0  0  0
   -5.1102    1.4335   -1.5270 C   0  0  0  0  0  0  0  0  0  0  0  0
   -5.5064    1.9641   -0.2984 C   0  0  0  0  0  0  0  0  0  0  0  0
   -4.9771    1.4693    0.8836 C   0  0  0  0  0  0  0  0  0  0  0  0
   -4.0405    0.4311    0.8566 C   0  0  0  0  0  0  0  0  0  0  0  0
   -3.6162   -0.1345   -0.3744 C   0  0  0  0  0  0  0  0  0  0  0  0
    1.5863   -0.6600    0.2655 C   0  0  0  0  0  0  0  0  0  0  0  0
    1.3986    0.4424    1.0266 N   0  0  0  0  0  0  0  0  0  0  0  0
    2.5956    1.0576    1.0043 N   0  0  0  0  0  0  0  0  0  0  0  0
    3.5331    0.3921    0.2766 C   0  0  0  0  0  0  0  0  0  0  0  0
    4.9926    0.8324    0.0397 C   0  0  0  0  0  0  0  0  0  0  0  0
    6.1070   -0.1090    0.4106 C   0  0  0  0  0  0  0  0  0  0  0  0
    5.8682    1.1263    1.2285 C   0  0  0  0  0  0  0  0  0  0  0  0
    2.9166   -0.7235   -0.2268 C   0  0  0  0  0  0  0  0  0  0  0  0
   -0.6767   -0.3714    1.0792 H   0  0  0  0  0  0  0  0  0  0  0  0
   -2.4647   -2.0221    1.3242 H   0  0  0  0  0  0  0  0  0  0  0  0
   -1.7221   -2.9944    0.0452 H   0  0  0  0  0  0  0  0  0  0  0  0
   -1.9127   -2.1481   -2.4997 H   0  0  0  0  0  0  0  0  0  0  0  0
   -5.5240    1.8230   -2.4528 H   0  0  0  0  0  0  0  0  0  0  0  0
   -6.2343    2.7715   -0.2717 H   0  0  0  0  0  0  0  0  0  0  0  0
   -5.2897    1.8891    1.8366 H   0  0  0  0  0  0  0  0  0  0  0  0
   -3.6378    0.0608    1.7959 H   0  0  0  0  0  0  0  0  0  0  0  0
    2.7043    1.9300    1.5102 H   0  0  0  0  0  0  0  0  0  0  0  0
    5.1412    1.4409   -0.8479 H   0  0  0  0  0  0  0  0  0  0  0  0
    5.8581   -1.0664    0.8547 H   0  0  0  0  0  0  0  0  0  0  0  0
    6.9802   -0.1354   -0.2312 H   0  0  0  0  0  0  0  0  0  0  0  0
    6.5851    1.9351    1.1428 H   0  0  0  0  0  0  0  0  0  0  0  0
    5.4709    0.9917    2.2279 H   0  0  0  0  0  0  0  0  0  0  0  0
    3.3424   -1.4884   -0.8613 H   0  0  0  0  0  0  0  0  0  0  0  0
  1  2  2  0
  2  3  1  0
  3  4  1  0
  4  5  1  0
  5  6  2  0
  6  7  1  0
  7  8  1  0
  8  9  2  0
  9 10  1  0
 10 11  2  0
 11 12  1  0
 12 13  2  0
  2 14  1  0
 14 15  2  0
 15 16  1  0
 16 17  1  0
 17 18  1  0
 18 19  1  0
 19 20  1  0
 17 21  2  0
 13  5  1  0
 21 14  1  0
 13  8  1  0
 20 18  1  0
  3 22  1  0
  4 23  1  0
  4 24  1  0
  6 25  1  0
  9 26  1  0
 10 27  1  0
 11 28  1  0
 12 29  1  0
 16 30  1  0
 18 31  1  0
 19 32  1  0
 19 33  1  0
 20 34  1  0
 20 35  1  0
 21 36  1  0
M  END
$$$$
OCNT-2312831
     RDKit          3D

 41 43  0  0  0  0  0  0  0  0999 V2000
   -4.9173   -0.6960   -2.6695 C   0  0  0  0  0  0  0  0  0  0  0  0
   -3.9384   -1.0271   -1.5435 C   0  0  0  0  0  0  0  0  0  0  0  0
   -2.5129   -0.5596   -1.8515 C   0  0  0  0  0  0  0  0  0  0  0  0
   -2.2406    0.0157   -2.9031 O   0  0  0  0  0  0  0  0  0  0  0  0
   -1.6052   -0.9074   -0.8590 N   0  0  0  0  0  0  0  0  0  0  0  0
   -0.2156   -0.6830   -0.8328 C   0  0  0  0  0  0  0  0  0  0  0  0
    0.4747   -1.1013    0.3099 C   0  0  0  0  0  0  0  0  0  0  0  0
    1.8571   -0.9216    0.4170 C   0  0  0  0  0  0  0  0  0  0  0  0
    2.5765   -0.3056   -0.6140 C   0  0  0  0  0  0  0  0  0  0  0  0
    4.0752   -0.1193   -0.5188 C   0  0  0  0  0  0  0  0  0  0  0  0
    4.5424    0.6150    0.7168 C   0  0  0  0  0  0  0  0  0  0  0  0
    4.1147    1.9197    0.9849 C   0  0  0  0  0  0  0  0  0  0  0  0
    4.5768    2.5514    2.1292 C   0  0  0  0  0  0  0  0  0  0  0  0
    5.4274    1.9830    3.0099 N   0  0  0  0  0  0  0  0  0  0  0  0
    5.8350    0.7274    2.7307 C   0  0  0  0  0  0  0  0  0  0  0  0
    5.4294    0.0127    1.6133 C   0  0  0  0  0  0  0  0  0  0  0  0
    1.8840    0.1014   -1.7615 C   0  0  0  0  0  0  0  0  0  0  0  0
    0.5004   -0.0846   -1.8687 C   0  0  0  0  0  0  0  0  0  0  0  0
   -4.3584   -0.5169   -0.2428 N   0  0  0  0  0  0  0  0  0  0  0  0
   -4.9886    0.6593    0.0485 C   0  0  0  0  0  0  0  0  0  0  0  0
   -5.1045    0.7047    1.4179 C   0  0  0  0  0  0  0  0  0  0  0  0
   -4.4968   -0.4791    1.8693 C   0  0  0  0  0  0  0  0  0  0  0  0
   -4.0200   -1.2205    0.8651 N   0  0  0  0  0  0  0  0  0  0  0  0
   -5.9305   -1.0298   -2.4222 H   0  0  0  0  0  0  0  0  0  0  0  0
   -4.6164   -1.1917   -3.5986 H   0  0  0  0  0  0  0  0  0  0  0  0
   -4.9549    0.3793   -2.8729 H   0  0  0  0  0  0  0  0  0  0  0  0
   -3.9075   -2.1221   -1.4492 H   0  0  0  0  0  0  0  0  0  0  0  0
   -2.0067   -1.3269   -0.0180 H   0  0  0  0  0  0  0  0  0  0  0  0
   -0.0530   -1.5723    1.1360 H   0  0  0  0  0  0  0  0  0  0  0  0
    2.3653   -1.2590    1.3179 H   0  0  0  0  0  0  0  0  0  0  0  0
    4.4480    0.4311   -1.3931 H   0  0  0  0  0  0  0  0  0  0  0  0
    4.5392   -1.1130   -0.5714 H   0  0  0  0  0  0  0  0  0  0  0  0
    3.4282    2.4353    0.3211 H   0  0  0  0  0  0  0  0  0  0  0  0
    4.2653    3.5627    2.3727 H   0  0  0  0  0  0  0  0  0  0  0  0
    6.5181    0.2930    3.4538 H   0  0  0  0  0  0  0  0  0  0  0  0
    5.8001   -0.9945    1.4518 H   0  0  0  0  0  0  0  0  0  0  0  0
    2.4128    0.5687   -2.5897 H   0  0  0  0  0  0  0  0  0  0  0  0
    0.0146    0.2497   -2.7804 H   0  0  0  0  0  0  0  0  0  0  0  0
   -5.2928    1.3592   -0.7181 H   0  0  0  0  0  0  0  0  0  0  0  0
   -5.5552    1.4898    2.0081 H   0  0  0  0  0  0  0  0  0  0  0  0
   -4.3697   -0.8274    2.8866 H   0  0  0  0  0  0  0  0  0  0  0  0
  1  2  1  0
  2  3  1  0
  3  4  2  0
  3  5  1  0
  5  6  1  0
  6  7  1  0
  7  8  2  0
  8  9  1  0
  9 10  1  0
 10 11  1  0
 11 12  2  0
 12 13  1  0
 13 14  2  0
 14 15  1  0
 15 16  2  0
  9 17  2  0
 17 18  1  0
  2 19  1  0
 19 20  1  0
 20 21  2  0
 21 22  1  0
 22 23  2  0
 18  6  2  0
 23 19  1  0
 16 11  1  0
  1 24  1  0
  1 25  1  0
  1 26  1  0
  2 27  1  0
  5 28  1  0
  7 29  1  0
  8 30  1  0
 10 31  1  0
 10 32  1  0
 12 33  1  0
 13 34  1  0
 15 35  1  0
 16 36  1  0
 17 37  1  0
 18 38  1  0
 20 39  1  0
 21 40  1  0
 22 41  1  0
M  END
$$$$
OCNT-2312832
     RDKit          3D

 42 45  0  0  0  0  0  0  0  0999 V2000
    7.6233    2.6311    1.0668 Cl  0  0  0  0  0  0  0  0  0  0  0  0
    6.5683    1.5782    0.2054 C   0  0  0  0  0  0  0  0  0  0  0  0
    6.9375    1.1141   -1.0554 C   0  0  0  0  0  0  0  0  0  0  0  0
    6.0844    0.2618   -1.7530 C   0  0  0  0  0  0  0  0  0  0  0  0
    4.8670   -0.1215   -1.1844 C   0  0  0  0  0  0  0  0  0  0  0  0
    4.4852    0.3401    0.0862 C   0  0  0  0  0  0  0  0  0  0  0  0
    3.2056   -0.0820    0.6492 C   0  0  0  0  0  0  0  0  0  0  0  0
    2.3010   -0.8968    0.1407 N   0  0  0  0  0  0  0  0  0  0  0  0
    1.2910   -0.9184    1.0841 C   0  0  0  0  0  0  0  0  0  0  0  0
    0.0590   -1.7410    0.8925 C   0  0  0  0  0  0  0  0  0  0  0  0
   -0.9680   -0.9801    0.1661 N   0  0  0  0  0  0  0  0  0  0  0  0
   -1.6913   -0.0077    0.9974 C   0  0  0  0  0  0  0  0  0  0  0  0
   -3.1257   -0.4285    1.3166 C   0  0  0  0  0  0  0  0  0  0  0  0
   -3.9466   -0.6476    0.0367 C   0  0  0  0  0  0  0  0  0  0  0  0
   -4.6899    0.5845   -0.3644 C   0  0  0  0  0  0  0  0  0  0  0  0
   -4.3865    1.8506   -0.1550 N   0  0  0  0  0  0  0  0  0  0  0  0
   -5.4132    2.5361   -0.7515 C   0  0  0  0  0  0  0  0  0  0  0  0
   -6.3073    1.6526   -1.2997 C   0  0  0  0  0  0  0  0  0  0  0  0
   -5.8558    0.3913   -1.0577 O   0  0  0  0  0  0  0  0  0  0  0  0
   -3.0721   -1.1406   -1.1256 C   0  0  0  0  0  0  0  0  0  0  0  0
   -1.8370   -1.8714   -0.6084 C   0  0  0  0  0  0  0  0  0  0  0  0
    1.6570   -0.1274    2.1492 C   0  0  0  0  0  0  0  0  0  0  0  0
    2.8761    0.4151    1.8837 O   0  0  0  0  0  0  0  0  0  0  0  0
    5.3532    1.1982    0.7769 C   0  0  0  0  0  0  0  0  0  0  0  0
    7.8842    1.4125   -1.4979 H   0  0  0  0  0  0  0  0  0  0  0  0
    6.3627   -0.1045   -2.7381 H   0  0  0  0  0  0  0  0  0  0  0  0
    4.2062   -0.7869   -1.7398 H   0  0  0  0  0  0  0  0  0  0  0  0
   -0.3227   -2.1121    1.8517 H   0  0  0  0  0  0  0  0  0  0  0  0
    0.3576   -2.6252    0.3133 H   0  0  0  0  0  0  0  0  0  0  0  0
   -1.7083    0.9466    0.4566 H   0  0  0  0  0  0  0  0  0  0  0  0
   -1.1699    0.1982    1.9387 H   0  0  0  0  0  0  0  0  0  0  0  0
   -3.5968    0.3114    1.9753 H   0  0  0  0  0  0  0  0  0  0  0  0
   -3.0951   -1.3659    1.8886 H   0  0  0  0  0  0  0  0  0  0  0  0
   -4.6936   -1.4204    0.2648 H   0  0  0  0  0  0  0  0  0  0  0  0
   -5.4517    3.6162   -0.7541 H   0  0  0  0  0  0  0  0  0  0  0  0
   -7.2330    1.7389   -1.8483 H   0  0  0  0  0  0  0  0  0  0  0  0
   -3.6592   -1.8088   -1.7680 H   0  0  0  0  0  0  0  0  0  0  0  0
   -2.7543   -0.3066   -1.7667 H   0  0  0  0  0  0  0  0  0  0  0  0
   -2.1572   -2.7318   -0.0054 H   0  0  0  0  0  0  0  0  0  0  0  0
   -1.2751   -2.2670   -1.4628 H   0  0  0  0  0  0  0  0  0  0  0  0
    1.2054    0.1412    3.0922 H   0  0  0  0  0  0  0  0  0  0  0  0
    5.0856    1.5736    1.7617 H   0  0  0  0  0  0  0  0  0  0  0  0
  1  2  1  0
  2  3  1  0
  3  4  2  0
  4  5  1  0
  5  6  2  0
  6  7  1  0
  7  8  2  0
  8  9  1  0
  9 10  1  0
 10 11  1  0
 11 12  1  0
 12 13  1  0
 13 14  1  0
 14 15  1  0
 15 16  2  0
 16 17  1  0
 17 18  2  0
 18 19  1  0
 14 20  1  0
 20 21  1  0
  9 22  2  0
 22 23  1  0
  6 24  1  0
 24  2  2  0
 23  7  1  0
 21 11  1  0
 19 15  1  0
  3 25  1  0
  4 26  1  0
  5 27  1  0
 10 28  1  0
 10 29  1  0
 12 30  1  0
 12 31  1  0
 13 32  1  0
 13 33  1  0
 14 34  1  0
 17 35  1  0
 18 36  1  0
 20 37  1  0
 20 38  1  0
 21 39  1  0
 21 40  1  0
 22 41  1  0
 24 42  1  0
M  END
$$$$
OCNT-2312836
     RDKit          3D

 39 41  0  0  0  0  0  0  0  0999 V2000
    3.7088    2.3029   -1.3448 C   0  0  0  0  0  0  0  0  0  0  0  0
    3.4665    0.8975   -0.8823 C   0  0  0  0  0  0  0  0  0  0  0  0
    4.5018   -0.0246   -0.8769 C   0  0  0  0  0  0  0  0  0  0  0  0
    4.2305   -1.3180   -0.4489 C   0  0  0  0  0  0  0  0  0  0  0  0
    2.9370   -1.6552   -0.0336 C   0  0  0  0  0  0  0  0  0  0  0  0
    2.6722   -3.0047    0.3621 C   0  0  0  0  0  0  0  0  0  0  0  0
    2.5097   -4.1063    0.6934 N   0  0  0  0  0  0  0  0  0  0  0  0
    1.9371   -0.6733   -0.0517 C   0  0  0  0  0  0  0  0  0  0  0  0
    0.6201   -0.9575    0.3711 N   0  0  0  0  0  0  0  0  0  0  0  0
    0.5303   -1.0648    1.8414 C   0  0  0  0  0  0  0  0  0  0  0  0
   -0.8471   -0.6507    2.3695 C   0  0  0  0  0  0  0  0  0  0  0  0
   -1.9717   -1.1404    1.4623 C   0  0  0  0  0  0  0  0  0  0  0  0
   -1.7932   -0.6597    0.0044 C   0  0  0  0  0  0  0  0  0  0  0  0
   -2.8756    0.3158   -0.4259 C   0  0  0  0  0  0  0  0  0  0  0  0
   -3.6788    0.0277   -1.5345 C   0  0  0  0  0  0  0  0  0  0  0  0
   -4.6551    0.9386   -1.9103 C   0  0  0  0  0  0  0  0  0  0  0  0
   -4.8842    2.1032   -1.2688 N   0  0  0  0  0  0  0  0  0  0  0  0
   -4.1004    2.3672   -0.2030 C   0  0  0  0  0  0  0  0  0  0  0  0
   -3.0992    1.5205    0.2499 C   0  0  0  0  0  0  0  0  0  0  0  0
   -0.3838   -0.0762   -0.2476 C   0  0  0  0  0  0  0  0  0  0  0  0
    2.2110    0.5853   -0.4805 N   0  0  0  0  0  0  0  0  0  0  0  0
    4.0489    2.3053   -2.3850 H   0  0  0  0  0  0  0  0  0  0  0  0
    4.4662    2.7824   -0.7169 H   0  0  0  0  0  0  0  0  0  0  0  0
    2.7908    2.8965   -1.2849 H   0  0  0  0  0  0  0  0  0  0  0  0
    5.4988    0.2511   -1.2056 H   0  0  0  0  0  0  0  0  0  0  0  0
    5.0239   -2.0625   -0.4487 H   0  0  0  0  0  0  0  0  0  0  0  0
    0.7091   -2.1073    2.1285 H   0  0  0  0  0  0  0  0  0  0  0  0
    1.2895   -0.4510    2.3446 H   0  0  0  0  0  0  0  0  0  0  0  0
   -0.8948    0.4420    2.4528 H   0  0  0  0  0  0  0  0  0  0  0  0
   -0.9828   -1.0432    3.3839 H   0  0  0  0  0  0  0  0  0  0  0  0
   -2.9431   -0.8478    1.8779 H   0  0  0  0  0  0  0  0  0  0  0  0
   -1.9614   -2.2388    1.4703 H   0  0  0  0  0  0  0  0  0  0  0  0
   -1.8876   -1.5588   -0.6223 H   0  0  0  0  0  0  0  0  0  0  0  0
   -3.5542   -0.8886   -2.1027 H   0  0  0  0  0  0  0  0  0  0  0  0
   -5.2975    0.7473   -2.7652 H   0  0  0  0  0  0  0  0  0  0  0  0
   -4.3027    3.3102    0.2969 H   0  0  0  0  0  0  0  0  0  0  0  0
   -2.5107    1.8061    1.1150 H   0  0  0  0  0  0  0  0  0  0  0  0
   -0.2299   -0.0147   -1.3342 H   0  0  0  0  0  0  0  0  0  0  0  0
   -0.2985    0.9444    0.1504 H   0  0  0  0  0  0  0  0  0  0  0  0
  1  2  1  0
  2  3  2  0
  3  4  1  0
  4  5  2  0
  5  6  1  0
  6  7  3  0
  5  8  1  0
  8  9  1  0
  9 10  1  0
 10 11  1  0
 11 12  1  0
 12 13  1  0
 13 14  1  0
 14 15  2  0
 15 16  1  0
 16 17  2  0
 17 18  1  0
 18 19  2  0
 13 20  1  0
  8 21  2  0
 21  2  1  0
 20  9  1  0
 19 14  1  0
  1 22  1  0
  1 23  1  0
  1 24  1  0
  3 25  1  0
  4 26  1  0
 10 27  1  0
 10 28  1  0
 11 29  1  0
 11 30  1  0
 12 31  1  0
 12 32  1  0
 13 33  1  0
 15 34  1  0
 16 35  1  0
 18 36  1  0
 19 37  1  0
 20 38  1  0
 20 39  1  0
M  END
$$$$
OCNT-2312847
     RDKit          3D

 40 43  0  0  0  0  0  0  0  0999 V2000
    0.0872    1.2428   -2.3882 O   0  0  0  0  0  0  0  0  0  0  0  0
    0.2451   -0.0653   -1.7900 S   0  0  0  0  0  0  0  0  0  0  0  0
    0.2553   -1.2619   -2.6048 O   0  0  0  0  0  0  0  0  0  0  0  0
    1.7627   -0.0754   -0.8640 C   0  0  0  0  0  0  0  0  0  0  0  0
    2.1200   -1.2488   -0.1664 C   0  0  0  0  0  0  0  0  0  0  0  0
    3.3055   -1.2885    0.5714 C   0  0  0  0  0  0  0  0  0  0  0  0
    4.0913   -0.1545    0.5802 C   0  0  0  0  0  0  0  0  0  0  0  0
    5.2716   -0.0142    1.2410 O   0  0  0  0  0  0  0  0  0  0  0  0
    5.6287    1.3363    0.8795 C   0  0  0  0  0  0  0  0  0  0  0  0
    4.6522    1.9808    0.0351 O   0  0  0  0  0  0  0  0  0  0  0  0
    3.7377    0.9847   -0.1088 C   0  0  0  0  0  0  0  0  0  0  0  0
    2.5773    1.0614   -0.8471 C   0  0  0  0  0  0  0  0  0  0  0  0
   -0.9204   -0.2395   -0.5749 N   0  0  0  0  0  0  0  0  0  0  0  0
   -1.0578    0.8361    0.4259 C   0  0  0  0  0  0  0  0  0  0  0  0
   -1.9557    1.9558   -0.0140 C   0  0  0  0  0  0  0  0  0  0  0  0
   -2.3382    3.0284    0.9773 C   0  0  0  0  0  0  0  0  0  0  0  0
   -3.3787    2.0673    0.4795 C   0  0  0  0  0  0  0  0  0  0  0  0
   -2.1692   -0.9204   -0.9605 C   0  0  0  0  0  0  0  0  0  0  0  0
   -2.0799   -2.3636   -0.5623 C   0  0  0  0  0  0  0  0  0  0  0  0
   -2.2490   -2.7800    0.8777 C   0  0  0  0  0  0  0  0  0  0  0  0
   -3.3115   -3.1198   -0.1309 C   0  0  0  0  0  0  0  0  0  0  0  0
    1.4740   -2.1242   -0.2035 H   0  0  0  0  0  0  0  0  0  0  0  0
    3.6019   -2.1786    1.1152 H   0  0  0  0  0  0  0  0  0  0  0  0
    6.5897    1.3162    0.3527 H   0  0  0  0  0  0  0  0  0  0  0  0
    5.7423    1.9258    1.7965 H   0  0  0  0  0  0  0  0  0  0  0  0
    2.3184    1.9660   -1.3866 H   0  0  0  0  0  0  0  0  0  0  0  0
   -1.4261    0.3873    1.3571 H   0  0  0  0  0  0  0  0  0  0  0  0
   -0.0745    1.2484    0.6745 H   0  0  0  0  0  0  0  0  0  0  0  0
   -1.7371    2.2973   -1.0195 H   0  0  0  0  0  0  0  0  0  0  0  0
   -2.3808    4.0523    0.6218 H   0  0  0  0  0  0  0  0  0  0  0  0
   -2.0101    2.9326    2.0062 H   0  0  0  0  0  0  0  0  0  0  0  0
   -4.1244    2.4398   -0.2143 H   0  0  0  0  0  0  0  0  0  0  0  0
   -3.7545    1.3260    1.1755 H   0  0  0  0  0  0  0  0  0  0  0  0
   -2.3460   -0.8388   -2.0389 H   0  0  0  0  0  0  0  0  0  0  0  0
   -3.0374   -0.4591   -0.4811 H   0  0  0  0  0  0  0  0  0  0  0  0
   -1.3541   -2.9029   -1.1619 H   0  0  0  0  0  0  0  0  0  0  0  0
   -1.6208   -3.5831    1.2463 H   0  0  0  0  0  0  0  0  0  0  0  0
   -2.4750   -2.0201    1.6165 H   0  0  0  0  0  0  0  0  0  0  0  0
   -4.2564   -2.5923   -0.0696 H   0  0  0  0  0  0  0  0  0  0  0  0
   -3.4033   -4.1544   -0.4428 H   0  0  0  0  0  0  0  0  0  0  0  0
  1  2  2  0
  2  3  2  0
  2  4  1  0
  4  5  1  0
  5  6  2  0
  6  7  1  0
  7  8  1  0
  8  9  1  0
  9 10  1  0
 10 11  1  0
 11 12  1  0
  2 13  1  0
 13 14  1  0
 14 15  1  0
 15 16  1  0
 16 17  1  0
 13 18  1  0
 18 19  1  0
 19 20  1  0
 20 21  1  0
 12  4  2  0
 17 15  1  0
 21 19  1  0
 11  7  2  0
  5 22  1  0
  6 23  1  0
  9 24  1  0
  9 25  1  0
 12 26  1  0
 14 27  1  0
 14 28  1  0
 15 29  1  0
 16 30  1  0
 16 31  1  0
 17 32  1  0
 17 33  1  0
 18 34  1  0
 18 35  1  0
 19 36  1  0
 20 37  1  0
 20 38  1  0
 21 39  1  0
 21 40  1  0
M  END
$$$$
OCNT-2312850
     RDKit          3D

 39 40  0  0  0  0  0  0  0  0999 V2000
    1.2509    1.0889    1.4765 C   0  0  0  0  0  0  0  0  0  0  0  0
    2.2875    0.4076    0.7318 N   0  0  0  0  0  0  0  0  0  0  0  0
    3.2288    1.1400    0.1053 N   0  0  0  0  0  0  0  0  0  0  0  0
    4.0309    0.2367   -0.4903 C   0  0  0  0  0  0  0  0  0  0  0  0
    5.2270    0.6297   -1.3158 C   0  0  0  0  0  0  0  0  0  0  0  0
    4.9128    1.4835   -2.3262 F   0  0  0  0  0  0  0  0  0  0  0  0
    6.1993    1.2259   -0.5753 F   0  0  0  0  0  0  0  0  0  0  0  0
    5.8077   -0.4563   -1.9026 F   0  0  0  0  0  0  0  0  0  0  0  0
    3.5798   -1.0819   -0.2192 C   0  0  0  0  0  0  0  0  0  0  0  0
    2.4546   -0.9444    0.5687 C   0  0  0  0  0  0  0  0  0  0  0  0
    1.5577   -1.9664    1.1626 C   0  0  0  0  0  0  0  0  0  0  0  0
    0.4588   -2.1562    0.2483 N   0  0  0  0  0  0  0  0  0  0  0  0
   -0.8389   -1.8689    0.5902 C   0  0  0  0  0  0  0  0  0  0  0  0
   -1.1834   -1.5444    1.7229 O   0  0  0  0  0  0  0  0  0  0  0  0
   -1.8160   -2.0068   -0.5582 C   0  0  0  0  0  0  0  0  0  0  0  0
   -3.1309   -1.2746   -0.2891 C   0  0  0  0  0  0  0  0  0  0  0  0
   -2.9974    0.2297   -0.3765 C   0  0  0  0  0  0  0  0  0  0  0  0
   -3.0318    0.8415   -1.6410 C   0  0  0  0  0  0  0  0  0  0  0  0
   -2.9561    2.2327   -1.7665 C   0  0  0  0  0  0  0  0  0  0  0  0
   -2.8475    3.0326   -0.6318 C   0  0  0  0  0  0  0  0  0  0  0  0
   -2.8040    2.4413    0.6273 C   0  0  0  0  0  0  0  0  0  0  0  0
   -2.8603    1.0526    0.7489 C   0  0  0  0  0  0  0  0  0  0  0  0
   -2.7689    0.5630    2.0224 O   0  0  0  0  0  0  0  0  0  0  0  0
    1.3478    2.1683    1.3307 H   0  0  0  0  0  0  0  0  0  0  0  0
    1.3713    0.8452    2.5357 H   0  0  0  0  0  0  0  0  0  0  0  0
    0.2778    0.7597    1.1083 H   0  0  0  0  0  0  0  0  0  0  0  0
    4.0303   -2.0046   -0.5628 H   0  0  0  0  0  0  0  0  0  0  0  0
    1.2113   -1.6756    2.1592 H   0  0  0  0  0  0  0  0  0  0  0  0
    2.0753   -2.9278    1.2509 H   0  0  0  0  0  0  0  0  0  0  0  0
    0.6819   -2.3862   -0.7109 H   0  0  0  0  0  0  0  0  0  0  0  0
   -2.0163   -3.0781   -0.6836 H   0  0  0  0  0  0  0  0  0  0  0  0
   -1.3508   -1.6433   -1.4823 H   0  0  0  0  0  0  0  0  0  0  0  0
   -3.5565   -1.5624    0.6788 H   0  0  0  0  0  0  0  0  0  0  0  0
   -3.8728   -1.5957   -1.0326 H   0  0  0  0  0  0  0  0  0  0  0  0
   -3.1338    0.2397   -2.5422 H   0  0  0  0  0  0  0  0  0  0  0  0
   -2.9930    2.6932   -2.7514 H   0  0  0  0  0  0  0  0  0  0  0  0
   -2.7936    4.1138   -0.7274 H   0  0  0  0  0  0  0  0  0  0  0  0
   -2.7161    3.0582    1.5181 H   0  0  0  0  0  0  0  0  0  0  0  0
   -2.3235   -0.3102    1.9991 H   0  0  0  0  0  0  0  0  0  0  0  0
  1  2  1  0
  2  3  1  0
  3  4  2  0
  4  5  1  0
  5  6  1  0
  5  7  1  0
  5  8  1  0
  4  9  1  0
  9 10  2  0
 10 11  1  0
 11 12  1  0
 12 13  1  0
 13 14  2  0
 13 15  1  0
 15 16  1  0
 16 17  1  0
 17 18  2  0
 18 19  1  0
 19 20  2  0
 20 21  1  0
 21 22  2  0
 22 23  1  0
 10  2  1  0
 22 17  1  0
  1 24  1  0
  1 25  1  0
  1 26  1  0
  9 27  1  0
 11 28  1  0
 11 29  1  0
 12 30  1  0
 15 31  1  0
 15 32  1  0
 16 33  1  0
 16 34  1  0
 18 35  1  0
 19 36  1  0
 20 37  1  0
 21 38  1  0
 23 39  1  0
M  END
$$$$
OCNT-2312851
     RDKit          3D

 54 57  0  0  0  0  0  0  0  0999 V2000
    2.3443   -3.1129    2.3729 C   0  0  0  0  0  0  0  0  0  0  0  0
    2.1897   -1.7331    1.9205 N   0  0  0  0  0  0  0  0  0  0  0  0
    2.8640   -0.7765    2.8225 C   0  0  0  0  0  0  0  0  0  0  0  0
    1.9041    0.1782    3.5504 C   0  0  0  0  0  0  0  0  0  0  0  0
    1.0688    0.9151    2.6519 O   0  0  0  0  0  0  0  0  0  0  0  0
    0.5482    0.1274    1.5572 C   0  0  0  0  0  0  0  0  0  0  0  0
    1.1629    0.6239    0.2303 C   0  0  0  0  0  0  0  0  0  0  0  0
    0.5003    1.8973   -0.1925 N   0  0  0  0  0  0  0  0  0  0  0  0
    1.2429    3.1215    0.1756 C   0  0  0  0  0  0  0  0  0  0  0  0
    2.3819    3.4158   -0.7563 C   0  0  0  0  0  0  0  0  0  0  0  0
    2.2170    4.3763   -1.9080 C   0  0  0  0  0  0  0  0  0  0  0  0
    3.0501    4.7682   -0.7210 C   0  0  0  0  0  0  0  0  0  0  0  0
   -0.2859    1.9101   -1.6920 S   0  0  0  0  0  0  0  0  0  0  0  0
   -0.9620    3.1787   -1.8607 O   0  0  0  0  0  0  0  0  0  0  0  0
    0.6346    1.4042   -2.6890 O   0  0  0  0  0  0  0  0  0  0  0  0
   -1.5551    0.6848   -1.4470 C   0  0  0  0  0  0  0  0  0  0  0  0
   -2.6124    0.9718   -0.5800 C   0  0  0  0  0  0  0  0  0  0  0  0
   -3.6008    0.0119   -0.3676 C   0  0  0  0  0  0  0  0  0  0  0  0
   -3.5385   -1.2175   -1.0272 C   0  0  0  0  0  0  0  0  0  0  0  0
   -4.5484   -2.0991   -0.7456 O   0  0  0  0  0  0  0  0  0  0  0  0
   -4.6660   -3.1859   -1.6687 C   0  0  0  0  0  0  0  0  0  0  0  0
   -3.3251   -3.8464   -1.9400 C   0  0  0  0  0  0  0  0  0  0  0  0
   -2.4021   -2.8334   -2.6003 C   0  0  0  0  0  0  0  0  0  0  0  0
   -2.4747   -1.5111   -1.8910 C   0  0  0  0  0  0  0  0  0  0  0  0
   -1.4863   -0.5428   -2.1136 C   0  0  0  0  0  0  0  0  0  0  0  0
    0.7661   -1.3904    1.7521 C   0  0  0  0  0  0  0  0  0  0  0  0
    1.8656   -3.8043    1.6706 H   0  0  0  0  0  0  0  0  0  0  0  0
    1.9098   -3.2728    3.3662 H   0  0  0  0  0  0  0  0  0  0  0  0
    3.4044   -3.3871    2.4106 H   0  0  0  0  0  0  0  0  0  0  0  0
    3.4994   -1.2840    3.5584 H   0  0  0  0  0  0  0  0  0  0  0  0
    3.5349   -0.1755    2.1968 H   0  0  0  0  0  0  0  0  0  0  0  0
    1.2657   -0.3670    4.2556 H   0  0  0  0  0  0  0  0  0  0  0  0
    2.4774    0.9065    4.1332 H   0  0  0  0  0  0  0  0  0  0  0  0
   -0.5324    0.3097    1.5434 H   0  0  0  0  0  0  0  0  0  0  0  0
    1.0333   -0.1377   -0.5453 H   0  0  0  0  0  0  0  0  0  0  0  0
    2.2408    0.7831    0.3378 H   0  0  0  0  0  0  0  0  0  0  0  0
    0.5391    3.9612    0.2249 H   0  0  0  0  0  0  0  0  0  0  0  0
    1.6410    3.0144    1.1907 H   0  0  0  0  0  0  0  0  0  0  0  0
    3.0311    2.5606   -0.9041 H   0  0  0  0  0  0  0  0  0  0  0  0
    2.7209    4.1344   -2.8372 H   0  0  0  0  0  0  0  0  0  0  0  0
    1.2615    4.8712   -2.0448 H   0  0  0  0  0  0  0  0  0  0  0  0
    2.6551    5.5300   -0.0583 H   0  0  0  0  0  0  0  0  0  0  0  0
    4.1259    4.8068   -0.8495 H   0  0  0  0  0  0  0  0  0  0  0  0
   -2.6654    1.9315   -0.0706 H   0  0  0  0  0  0  0  0  0  0  0  0
   -4.4274    0.2229    0.3063 H   0  0  0  0  0  0  0  0  0  0  0  0
   -5.3500   -3.9153   -1.2220 H   0  0  0  0  0  0  0  0  0  0  0  0
   -5.1346   -2.8241   -2.5925 H   0  0  0  0  0  0  0  0  0  0  0  0
   -3.4435   -4.7267   -2.5801 H   0  0  0  0  0  0  0  0  0  0  0  0
   -2.8833   -4.1765   -0.9912 H   0  0  0  0  0  0  0  0  0  0  0  0
   -1.3757   -3.2176   -2.5913 H   0  0  0  0  0  0  0  0  0  0  0  0
   -2.6991   -2.6853   -3.6457 H   0  0  0  0  0  0  0  0  0  0  0  0
   -0.6644   -0.7504   -2.7964 H   0  0  0  0  0  0  0  0  0  0  0  0
    0.3566   -1.9348    0.8925 H   0  0  0  0  0  0  0  0  0  0  0  0
    0.1961   -1.7098    2.6353 H   0  0  0  0  0  0  0  0  0  0  0  0
  1  2  1  0
  2  3  1  0
  3  4  1  0
  4  5  1  0
  5  6  1  0
  6  7  1  0
  7  8  1  0
  8  9  1  0
  9 10  1  0
 10 11  1  0
 11 12  1  0
  8 13  1  0
 13 14  2  0
 13 15  2  0
 13 16  1  0
 16 17  1  0
 17 18  2  0
 18 19  1  0
 19 20  1  0
 20 21  1  0
 21 22  1  0
 22 23  1  0
 23 24  1  0
 24 25  1  0
  6 26  1  0
 26  2  1  0
 12 10  1  0
 25 16  2  0
 24 19  2  0
  1 27  1  0
  1 28  1  0
  1 29  1  0
  3 30  1  0
  3 31  1  0
  4 32  1  0
  4 33  1  0
  6 34  1  0
  7 35  1  0
  7 36  1  0
  9 37  1  0
  9 38  1  0
 10 39  1  0
 11 40  1  0
 11 41  1  0
 12 42  1  0
 12 43  1  0
 17 44  1  0
 18 45  1  0
 21 46  1  0
 21 47  1  0
 22 48  1  0
 22 49  1  0
 23 50  1  0
 23 51  1  0
 25 52  1  0
 26 53  1  0
 26 54  1  0
M  END
$$$$
OCNT-2312874
     RDKit          3D

 35 39  0  0  0  0  0  0  0  0999 V2000
   -2.7334    0.1464   -0.9081 C   0  0  0  0  0  0  0  0  0  0  0  0
   -4.0255    0.4988   -1.0303 C   0  0  0  0  0  0  0  0  0  0  0  0
   -4.9054    0.2028    0.0019 N   0  0  0  0  0  0  0  0  0  0  0  0
   -6.2492    0.4494    0.1232 C   0  0  0  0  0  0  0  0  0  0  0  0
   -6.7318    0.0118    1.2671 N   0  0  0  0  0  0  0  0  0  0  0  0
   -5.6597   -0.5456    1.9211 C   0  0  0  0  0  0  0  0  0  0  0  0
   -4.5168   -0.4430    1.1621 C   0  0  0  0  0  0  0  0  0  0  0  0
   -3.1506   -0.8192    1.2945 C   0  0  0  0  0  0  0  0  0  0  0  0
   -2.2572   -0.5477    0.3071 C   0  0  0  0  0  0  0  0  0  0  0  0
   -0.8666   -0.9233    0.4233 C   0  0  0  0  0  0  0  0  0  0  0  0
   -0.2999   -1.5770    1.4507 N   0  0  0  0  0  0  0  0  0  0  0  0
    1.0358   -1.6901    1.0736 O   0  0  0  0  0  0  0  0  0  0  0  0
    1.1495   -1.0911   -0.1464 C   0  0  0  0  0  0  0  0  0  0  0  0
    2.4916   -0.9961   -0.9274 C   0  0  0  0  0  0  0  0  0  0  0  0
    2.7194    0.1623   -1.8638 C   0  0  0  0  0  0  0  0  0  0  0  0
    3.5051    0.0761   -0.5749 C   0  0  0  0  0  0  0  0  0  0  0  0
    3.2769    1.0721    0.5171 C   0  0  0  0  0  0  0  0  0  0  0  0
    4.6649    1.6635    0.6888 C   0  0  0  0  0  0  0  0  0  0  0  0
    5.5617    0.5692    0.4433 O   0  0  0  0  0  0  0  0  0  0  0  0
    4.9751   -0.2220   -0.6044 C   0  0  0  0  0  0  0  0  0  0  0  0
    0.0122   -0.6070   -0.5894 N   0  0  0  0  0  0  0  0  0  0  0  0
   -2.0208    0.3632   -1.6985 H   0  0  0  0  0  0  0  0  0  0  0  0
   -4.4218    1.0067   -1.9003 H   0  0  0  0  0  0  0  0  0  0  0  0
   -6.8175    0.9483   -0.6499 H   0  0  0  0  0  0  0  0  0  0  0  0
   -5.7716   -0.9899    2.9019 H   0  0  0  0  0  0  0  0  0  0  0  0
   -2.8450   -1.3281    2.2053 H   0  0  0  0  0  0  0  0  0  0  0  0
    2.8694   -1.9629   -1.2419 H   0  0  0  0  0  0  0  0  0  0  0  0
    3.2263   -0.0439   -2.8003 H   0  0  0  0  0  0  0  0  0  0  0  0
    1.9431    0.9161   -1.9504 H   0  0  0  0  0  0  0  0  0  0  0  0
    2.9829    0.5531    1.4363 H   0  0  0  0  0  0  0  0  0  0  0  0
    2.5306    1.8379    0.2879 H   0  0  0  0  0  0  0  0  0  0  0  0
    4.8652    2.4456   -0.0523 H   0  0  0  0  0  0  0  0  0  0  0  0
    4.8329    2.0679    1.6906 H   0  0  0  0  0  0  0  0  0  0  0  0
    5.1961   -1.2747   -0.4041 H   0  0  0  0  0  0  0  0  0  0  0  0
    5.4341    0.0703   -1.5543 H   0  0  0  0  0  0  0  0  0  0  0  0
  1  2  2  0
  2  3  1  0
  3  4  1  0
  4  5  2  0
  5  6  1  0
  6  7  2  0
  7  8  1  0
  8  9  2  0
  9 10  1  0
 10 11  2  0
 11 12  1  0
 12 13  1  0
 13 14  1  0
 14 15  1  0
 15 16  1  0
 16 17  1  0
 17 18  1  0
 18 19  1  0
 19 20  1  0
 13 21  2  0
  9  1  1  0
 21 10  1  0
  7  3  1  0
 16 14  1  0
 20 16  1  0
  1 22  1  0
  2 23  1  0
  4 24  1  0
  6 25  1  0
  8 26  1  0
 14 27  1  0
 15 28  1  0
 15 29  1  0
 17 30  1  0
 17 31  1  0
 18 32  1  0
 18 33  1  0
 20 34  1  0
 20 35  1  0
M  END
$$$$
OCNT-2312890
     RDKit          3D

 43 44  0  0  0  0  0  0  0  0999 V2000
   -1.7531    1.4209   -0.9250 C   0  0  0  0  0  0  0  0  0  0  0  0
   -2.5709    0.1489   -0.6564 C   0  0  0  0  0  0  0  0  0  0  0  0
   -1.6217   -0.8866   -0.0353 C   0  0  0  0  0  0  0  0  0  0  0  0
   -1.5771   -1.1533    1.1600 O   0  0  0  0  0  0  0  0  0  0  0  0
   -0.7698   -1.4697   -0.9521 N   0  0  0  0  0  0  0  0  0  0  0  0
    0.2843   -2.3681   -0.5401 C   0  0  0  0  0  0  0  0  0  0  0  0
    1.5847   -1.6356   -0.3845 C   0  0  0  0  0  0  0  0  0  0  0  0
    2.5314   -1.5873   -1.4094 C   0  0  0  0  0  0  0  0  0  0  0  0
    3.7204   -0.8777   -1.2296 C   0  0  0  0  0  0  0  0  0  0  0  0
    3.9310   -0.2224   -0.0192 C   0  0  0  0  0  0  0  0  0  0  0  0
    5.1274    0.5134    0.2091 N   0  0  0  0  0  0  0  0  0  0  0  0
    5.4404    1.2018    1.3629 C   0  0  0  0  0  0  0  0  0  0  0  0
    6.6764    1.7605    1.1490 C   0  0  0  0  0  0  0  0  0  0  0  0
    7.1420    1.4431   -0.0971 N   0  0  0  0  0  0  0  0  0  0  0  0
    6.1991    0.6984   -0.6344 C   0  0  0  0  0  0  0  0  0  0  0  0
    3.0193   -0.2490    0.9869 N   0  0  0  0  0  0  0  0  0  0  0  0
    1.8765   -0.9443    0.7845 C   0  0  0  0  0  0  0  0  0  0  0  0
   -3.8945    0.3954    0.1474 C   0  0  0  0  0  0  0  0  0  0  0  0
   -4.6188   -0.9437    0.4084 C   0  0  0  0  0  0  0  0  0  0  0  0
   -3.6698    1.1157    1.4900 C   0  0  0  0  0  0  0  0  0  0  0  0
   -4.8561    1.2672   -0.6952 C   0  0  0  0  0  0  0  0  0  0  0  0
   -0.8923    1.2069   -1.5686 H   0  0  0  0  0  0  0  0  0  0  0  0
   -2.3441    2.1878   -1.4319 H   0  0  0  0  0  0  0  0  0  0  0  0
   -1.3538    1.8439    0.0026 H   0  0  0  0  0  0  0  0  0  0  0  0
   -2.8667   -0.2588   -1.6346 H   0  0  0  0  0  0  0  0  0  0  0  0
   -0.7444   -1.1106   -1.8965 H   0  0  0  0  0  0  0  0  0  0  0  0
    0.3719   -3.1401   -1.3127 H   0  0  0  0  0  0  0  0  0  0  0  0
    0.0182   -2.8767    0.3935 H   0  0  0  0  0  0  0  0  0  0  0  0
    2.3536   -2.1017   -2.3510 H   0  0  0  0  0  0  0  0  0  0  0  0
    4.4392   -0.8611   -2.0401 H   0  0  0  0  0  0  0  0  0  0  0  0
    4.7675    1.2281    2.2088 H   0  0  0  0  0  0  0  0  0  0  0  0
    7.2536    2.3744    1.8285 H   0  0  0  0  0  0  0  0  0  0  0  0
    6.2552    0.2765   -1.6273 H   0  0  0  0  0  0  0  0  0  0  0  0
    1.1752   -0.9247    1.6172 H   0  0  0  0  0  0  0  0  0  0  0  0
   -4.7743   -1.4956   -0.5254 H   0  0  0  0  0  0  0  0  0  0  0  0
   -4.0605   -1.5897    1.0923 H   0  0  0  0  0  0  0  0  0  0  0  0
   -5.6033   -0.7784    0.8618 H   0  0  0  0  0  0  0  0  0  0  0  0
   -3.2283    2.1075    1.3486 H   0  0  0  0  0  0  0  0  0  0  0  0
   -4.6206    1.2613    2.0166 H   0  0  0  0  0  0  0  0  0  0  0  0
   -3.0179    0.5502    2.1609 H   0  0  0  0  0  0  0  0  0  0  0  0
   -4.4698    2.2811   -0.8391 H   0  0  0  0  0  0  0  0  0  0  0  0
   -5.8321    1.3658   -0.2051 H   0  0  0  0  0  0  0  0  0  0  0  0
   -5.0273    0.8264   -1.6836 H   0  0  0  0  0  0  0  0  0  0  0  0
  1  2  1  0
  2  3  1  0
  3  4  2  0
  3  5  1  0
  5  6  1  0
  6  7  1  0
  7  8  2  0
  8  9  1  0
  9 10  2  0
 10 11  1  0
 11 12  1  0
 12 13  2  0
 13 14  1  0
 14 15  2  0
 10 16  1  0
 16 17  2  0
  2 18  1  0
 18 19  1  0
 18 20  1  0
 18 21  1  0
 17  7  1  0
 15 11  1  0
  1 22  1  0
  1 23  1  0
  1 24  1  0
  2 25  1  0
  5 26  1  0
  6 27  1  0
  6 28  1  0
  8 29  1  0
  9 30  1  0
 12 31  1  0
 13 32  1  0
 15 33  1  0
 17 34  1  0
 19 35  1  0
 19 36  1  0
 19 37  1  0
 20 38  1  0
 20 39  1  0
 20 40  1  0
 21 41  1  0
 21 42  1  0
 21 43  1  0
M  END
$$$$
OCNT-2312921
     RDKit          3D

 42 44  0  0  0  0  0  0  0  0999 V2000
   -1.1696   -0.9317    1.0137 C   0  0  0  0  0  0  0  0  0  0  0  0
   -1.4048   -0.6419   -0.3978 N   0  0  0  0  0  0  0  0  0  0  0  0
   -2.5513   -1.2903   -1.0339 C   0  0  0  0  0  0  0  0  0  0  0  0
   -3.8591   -0.9638   -0.3719 C   0  0  0  0  0  0  0  0  0  0  0  0
   -4.4293    0.3042   -0.4935 C   0  0  0  0  0  0  0  0  0  0  0  0
   -3.8086    1.2530   -1.2084 F   0  0  0  0  0  0  0  0  0  0  0  0
   -5.6425    0.6191    0.1178 C   0  0  0  0  0  0  0  0  0  0  0  0
   -6.3109   -0.3447    0.8708 C   0  0  0  0  0  0  0  0  0  0  0  0
   -5.7568   -1.6165    1.0060 C   0  0  0  0  0  0  0  0  0  0  0  0
   -4.5429   -1.9136    0.3874 C   0  0  0  0  0  0  0  0  0  0  0  0
   -4.0293   -3.1422    0.5418 F   0  0  0  0  0  0  0  0  0  0  0  0
   -0.4658   -0.0262   -1.2232 C   0  0  0  0  0  0  0  0  0  0  0  0
   -0.4558   -0.1355   -2.4473 O   0  0  0  0  0  0  0  0  0  0  0  0
    0.5742    0.8299   -0.6075 C   0  0  0  0  0  0  0  0  0  0  0  0
    0.2237    1.8517    0.2803 C   0  0  0  0  0  0  0  0  0  0  0  0
    1.2182    2.6597    0.8289 C   0  0  0  0  0  0  0  0  0  0  0  0
    2.5563    2.4584    0.4797 C   0  0  0  0  0  0  0  0  0  0  0  0
    2.9159    1.4544   -0.4337 C   0  0  0  0  0  0  0  0  0  0  0  0
    4.3590    1.2369   -0.8111 C   0  0  0  0  0  0  0  0  0  0  0  0
    4.9448    0.1473   -0.0518 N   0  0  0  0  0  0  0  0  0  0  0  0
    5.1230   -1.1396   -0.4795 C   0  0  0  0  0  0  0  0  0  0  0  0
    5.7462   -1.7771    0.5680 C   0  0  0  0  0  0  0  0  0  0  0  0
    5.9586   -0.9103    1.6089 N   0  0  0  0  0  0  0  0  0  0  0  0
    5.4679    0.2405    1.2067 C   0  0  0  0  0  0  0  0  0  0  0  0
    1.9098    0.6428   -0.9792 C   0  0  0  0  0  0  0  0  0  0  0  0
   -1.3336   -1.9994    1.1904 H   0  0  0  0  0  0  0  0  0  0  0  0
   -0.1472   -0.7004    1.3191 H   0  0  0  0  0  0  0  0  0  0  0  0
   -1.8700   -0.3489    1.6180 H   0  0  0  0  0  0  0  0  0  0  0  0
   -2.6235   -1.0071   -2.0908 H   0  0  0  0  0  0  0  0  0  0  0  0
   -2.3598   -2.3703   -1.0251 H   0  0  0  0  0  0  0  0  0  0  0  0
   -6.0569    1.6160   -0.0006 H   0  0  0  0  0  0  0  0  0  0  0  0
   -7.2576   -0.1061    1.3488 H   0  0  0  0  0  0  0  0  0  0  0  0
   -6.2614   -2.3812    1.5893 H   0  0  0  0  0  0  0  0  0  0  0  0
   -0.8191    2.0252    0.5345 H   0  0  0  0  0  0  0  0  0  0  0  0
    0.9512    3.4522    1.5242 H   0  0  0  0  0  0  0  0  0  0  0  0
    3.3160    3.1006    0.9219 H   0  0  0  0  0  0  0  0  0  0  0  0
    4.9604    2.1348   -0.6263 H   0  0  0  0  0  0  0  0  0  0  0  0
    4.4498    1.0021   -1.8782 H   0  0  0  0  0  0  0  0  0  0  0  0
    4.8033   -1.4863   -1.4521 H   0  0  0  0  0  0  0  0  0  0  0  0
    6.0560   -2.8125    0.6268 H   0  0  0  0  0  0  0  0  0  0  0  0
    5.4654    1.1577    1.7809 H   0  0  0  0  0  0  0  0  0  0  0  0
    2.1563   -0.1408   -1.6939 H   0  0  0  0  0  0  0  0  0  0  0  0
  1  2  1  0
  2  3  1  0
  3  4  1  0
  4  5  2  0
  5  6  1  0
  5  7  1  0
  7  8  2  0
  8  9  1  0
  9 10  2  0
 10 11  1  0
  2 12  1  0
 12 13  2  0
 12 14  1  0
 14 15  1  0
 15 16  2  0
 16 17  1  0
 17 18  2  0
 18 19  1  0
 19 20  1  0
 20 21  1  0
 21 22  2  0
 22 23  1  0
 23 24  2  0
 18 25  1  0
 10  4  1  0
 25 14  2  0
 24 20  1  0
  1 26  1  0
  1 27  1  0
  1 28  1  0
  3 29  1  0
  3 30  1  0
  7 31  1  0
  8 32  1  0
  9 33  1  0
 15 34  1  0
 16 35  1  0
 17 36  1  0
 19 37  1  0
 19 38  1  0
 21 39  1  0
 22 40  1  0
 24 41  1  0
 25 42  1  0
M  END
$$$$
OCNT-2312925
     RDKit          3D

 47 50  0  0  0  0  0  0  0  0999 V2000
    0.2556    4.3787   -2.2294 C   0  0  0  0  0  0  0  0  0  0  0  0
   -0.7615    3.5620   -1.6651 O   0  0  0  0  0  0  0  0  0  0  0  0
   -0.3233    2.8618   -0.5046 C   0  0  1  0  0  0  0  0  0  0  0  0
   -1.5052    2.1547    0.1445 C   0  0  0  0  0  0  0  0  0  0  0  0
   -0.7973    1.1405    1.0448 C   0  0  1  0  0  0  0  0  0  0  0  0
   -1.7142    0.0091    1.5710 C   0  0  0  0  0  0  0  0  0  0  0  0
   -2.5668   -0.6838    0.5882 N   0  0  0  0  0  0  0  0  0  0  0  0
   -3.4607   -1.6472    1.2344 C   0  0  0  0  0  0  0  0  0  0  0  0
   -3.9781   -2.4576    0.0598 C   0  0  0  0  0  0  0  0  0  0  0  0
   -2.8362   -2.4486   -0.9480 C   0  0  0  0  0  0  0  0  0  0  0  0
   -1.8091   -1.4709   -0.3876 C   0  0  0  0  0  0  0  0  0  0  0  0
    0.3248    0.6512    0.2042 N   0  0  0  0  0  0  0  0  0  0  0  0
    1.4624    0.1828    0.8853 C   0  0  0  0  0  0  0  0  0  0  0  0
    1.6531    0.5804    2.1568 N   0  0  0  0  0  0  0  0  0  0  0  0
    2.7638    0.1518    2.7647 C   0  0  0  0  0  0  0  0  0  0  0  0
    3.7060   -0.6343    2.2361 N   0  0  0  0  0  0  0  0  0  0  0  0
    3.5008   -1.0480    0.9831 C   0  0  0  0  0  0  0  0  0  0  0  0
    4.4439   -1.8870    0.4005 C   0  0  0  0  0  0  0  0  0  0  0  0
    4.2948   -2.3810   -0.8982 C   0  0  0  0  0  0  0  0  0  0  0  0
    3.1733   -2.0379   -1.6390 C   0  0  0  0  0  0  0  0  0  0  0  0
    2.2169   -1.1956   -1.0769 C   0  0  0  0  0  0  0  0  0  0  0  0
    2.3739   -0.6777    0.2352 C   0  0  0  0  0  0  0  0  0  0  0  0
    0.6352    1.6921   -0.7996 C   0  0  0  0  0  0  0  0  0  0  0  0
    0.6021    5.1186   -1.5016 H   0  0  0  0  0  0  0  0  0  0  0  0
    1.0949    3.7699   -2.5774 H   0  0  0  0  0  0  0  0  0  0  0  0
   -0.1669    4.9074   -3.0882 H   0  0  0  0  0  0  0  0  0  0  0  0
    0.1251    3.5604    0.2145 H   0  0  0  0  0  0  0  0  0  0  0  0
   -2.1415    2.8450    0.7074 H   0  0  0  0  0  0  0  0  0  0  0  0
   -2.1319    1.6819   -0.6211 H   0  0  0  0  0  0  0  0  0  0  0  0
   -0.4209    1.7011    1.9123 H   0  0  0  0  0  0  0  0  0  0  0  0
   -1.1051   -0.7190    2.1233 H   0  0  0  0  0  0  0  0  0  0  0  0
   -2.3826    0.4740    2.3083 H   0  0  0  0  0  0  0  0  0  0  0  0
   -2.9202   -2.3009    1.9311 H   0  0  0  0  0  0  0  0  0  0  0  0
   -4.2767   -1.1565    1.7742 H   0  0  0  0  0  0  0  0  0  0  0  0
   -4.2588   -3.4737    0.3536 H   0  0  0  0  0  0  0  0  0  0  0  0
   -4.8616   -1.9777   -0.3785 H   0  0  0  0  0  0  0  0  0  0  0  0
   -3.2025   -2.1222   -1.9279 H   0  0  0  0  0  0  0  0  0  0  0  0
   -2.4015   -3.4467   -1.0670 H   0  0  0  0  0  0  0  0  0  0  0  0
   -0.9941   -2.0327    0.0858 H   0  0  0  0  0  0  0  0  0  0  0  0
   -1.3942   -0.8531   -1.1891 H   0  0  0  0  0  0  0  0  0  0  0  0
    2.9172    0.4775    3.7877 H   0  0  0  0  0  0  0  0  0  0  0  0
    5.3208   -2.1711    0.9785 H   0  0  0  0  0  0  0  0  0  0  0  0
    5.0510   -3.0384   -1.3191 H   0  0  0  0  0  0  0  0  0  0  0  0
    3.0377   -2.4266   -2.6448 H   0  0  0  0  0  0  0  0  0  0  0  0
    1.3294   -0.9498   -1.6552 H   0  0  0  0  0  0  0  0  0  0  0  0
    1.6740    2.0439   -0.7629 H   0  0  0  0  0  0  0  0  0  0  0  0
    0.4541    1.2932   -1.8045 H   0  0  0  0  0  0  0  0  0  0  0  0
  1  2  1  0
  2  3  1  0
  3  4  1  0
  4  5  1  0
  5  6  1  0
  6  7  1  0
  7  8  1  0
  8  9  1  0
  9 10  1  0
 10 11  1  0
  5 12  1  0
 12 13  1  0
 13 14  1  0
 14 15  2  0
 15 16  1  0
 16 17  2  0
 17 18  1  0
 18 19  2  0
 19 20  1  0
 20 21  2  0
 21 22  1  0
 12 23  1  0
 23  3  1  0
 11  7  1  0
 22 13  2  0
 22 17  1  0
  1 24  1  0
  1 25  1  0
  1 26  1  0
  3 27  1  1
  4 28  1  0
  4 29  1  0
  5 30  1  1
  6 31  1  0
  6 32  1  0
  8 33  1  0
  8 34  1  0
  9 35  1  0
  9 36  1  0
 10 37  1  0
 10 38  1  0
 11 39  1  0
 11 40  1  0
 15 41  1  0
 18 42  1  0
 19 43  1  0
 20 44  1  0
 21 45  1  0
 23 46  1  0
 23 47  1  0
M  END
$$$$
OCNT-2312932
     RDKit          3D

 40 42  0  0  0  0  0  0  0  0999 V2000
   -4.7324   -1.2749   -1.8779 C   0  0  0  0  0  0  0  0  0  0  0  0
   -3.9914   -0.4337   -0.8834 C   0  0  0  0  0  0  0  0  0  0  0  0
   -4.6715    0.4177   -0.0450 C   0  0  0  0  0  0  0  0  0  0  0  0
   -3.9025    1.1514    0.8368 C   0  0  0  0  0  0  0  0  0  0  0  0
   -4.5880    2.1248    1.7775 C   0  0  0  0  0  0  0  0  0  0  0  0
   -5.6929    1.5827    2.3723 F   0  0  0  0  0  0  0  0  0  0  0  0
   -3.8031    2.5678    2.7997 F   0  0  0  0  0  0  0  0  0  0  0  0
   -5.0360    3.2427    1.1357 F   0  0  0  0  0  0  0  0  0  0  0  0
   -2.5495    1.0455    0.8649 N   0  0  0  0  0  0  0  0  0  0  0  0
   -1.9511    0.1959    0.0190 C   0  0  0  0  0  0  0  0  0  0  0  0
   -0.5657    0.0974    0.0223 N   0  0  0  0  0  0  0  0  0  0  0  0
    0.1474    0.7062    1.1347 C   0  0  0  0  0  0  0  0  0  0  0  0
    1.5901    1.0185    0.7231 C   0  0  0  0  0  0  0  0  0  0  0  0
    2.2006   -0.0342   -0.2218 C   0  0  0  0  0  0  0  0  0  0  0  0
    3.6878   -0.2104    0.0195 C   0  0  0  0  0  0  0  0  0  0  0  0
    4.6114    0.2692   -0.9152 C   0  0  0  0  0  0  0  0  0  0  0  0
    5.9659    0.1000   -0.6680 C   0  0  0  0  0  0  0  0  0  0  0  0
    6.4601   -0.5034    0.4328 N   0  0  0  0  0  0  0  0  0  0  0  0
    5.5569   -0.9546    1.3275 C   0  0  0  0  0  0  0  0  0  0  0  0
    4.1839   -0.8331    1.1700 C   0  0  0  0  0  0  0  0  0  0  0  0
    1.4289   -1.3568   -0.1548 C   0  0  0  0  0  0  0  0  0  0  0  0
   -0.0369   -1.1440   -0.5407 C   0  0  0  0  0  0  0  0  0  0  0  0
   -2.6494   -0.5479   -0.8551 N   0  0  0  0  0  0  0  0  0  0  0  0
   -5.2845   -0.6376   -2.5756 H   0  0  0  0  0  0  0  0  0  0  0  0
   -4.0403   -1.8947   -2.4571 H   0  0  0  0  0  0  0  0  0  0  0  0
   -5.4346   -1.9385   -1.3637 H   0  0  0  0  0  0  0  0  0  0  0  0
   -5.7509    0.5082   -0.0747 H   0  0  0  0  0  0  0  0  0  0  0  0
   -0.3037    1.6497    1.4654 H   0  0  0  0  0  0  0  0  0  0  0  0
    0.1402    0.0262    1.9962 H   0  0  0  0  0  0  0  0  0  0  0  0
    2.1851    1.1512    1.6353 H   0  0  0  0  0  0  0  0  0  0  0  0
    1.6173    1.9906    0.2120 H   0  0  0  0  0  0  0  0  0  0  0  0
    2.0746    0.3433   -1.2476 H   0  0  0  0  0  0  0  0  0  0  0  0
    4.2908    0.7681   -1.8240 H   0  0  0  0  0  0  0  0  0  0  0  0
    6.7107    0.4587   -1.3727 H   0  0  0  0  0  0  0  0  0  0  0  0
    5.9777   -1.4323    2.2078 H   0  0  0  0  0  0  0  0  0  0  0  0
    3.5230   -1.2156    1.9402 H   0  0  0  0  0  0  0  0  0  0  0  0
    1.4750   -1.7763    0.8586 H   0  0  0  0  0  0  0  0  0  0  0  0
    1.8753   -2.1069   -0.8192 H   0  0  0  0  0  0  0  0  0  0  0  0
   -0.6050   -2.0189   -0.1977 H   0  0  0  0  0  0  0  0  0  0  0  0
   -0.1133   -1.1021   -1.6346 H   0  0  0  0  0  0  0  0  0  0  0  0
  1  2  1  0
  2  3  2  0
  3  4  1  0
  4  5  1  0
  5  6  1  0
  5  7  1  0
  5  8  1  0
  4  9  2  0
  9 10  1  0
 10 11  1  0
 11 12  1  0
 12 13  1  0
 13 14  1  0
 14 15  1  0
 15 16  2  0
 16 17  1  0
 17 18  2  0
 18 19  1  0
 19 20  2  0
 14 21  1  0
 21 22  1  0
 10 23  2  0
 23  2  1  0
 22 11  1  0
 20 15  1  0
  1 24  1  0
  1 25  1  0
  1 26  1  0
  3 27  1  0
 12 28  1  0
 12 29  1  0
 13 30  1  0
 13 31  1  0
 14 32  1  0
 16 33  1  0
 17 34  1  0
 19 35  1  0
 20 36  1  0
 21 37  1  0
 21 38  1  0
 22 39  1  0
 22 40  1  0
M  END
$$$$
OCNT-2312941
     RDKit          3D

 53 56  0  0  0  0  0  0  0  0999 V2000
    6.1114    2.4125    0.5239 O   0  0  0  0  0  0  0  0  0  0  0  0
    5.1105    1.7043    0.5397 C   0  0  0  0  0  0  0  0  0  0  0  0
    3.8866    2.2356    0.8545 N   0  0  0  0  0  0  0  0  0  0  0  0
    2.7206    1.4355    1.1542 C   0  0  0  0  0  0  0  0  0  0  0  0
    2.1261    0.7419   -0.0947 C   0  0  0  0  0  0  0  0  0  0  0  0
    1.1050   -0.3227    0.3713 C   0  0  0  0  0  0  0  0  0  0  0  0
    0.0298   -0.5620   -0.6866 C   0  0  0  0  0  0  0  0  0  0  0  0
   -0.7652    0.6401   -0.9920 N   0  0  0  0  0  0  0  0  0  0  0  0
   -2.1002    0.6311   -0.3476 C   0  0  0  0  0  0  0  0  0  0  0  0
   -3.0733   -0.3504   -1.0541 C   0  0  0  0  0  0  0  0  0  0  0  0
   -3.1154   -0.0241   -2.4492 O   0  0  0  0  0  0  0  0  0  0  0  0
   -4.4734   -0.2799   -0.4644 C   0  0  0  0  0  0  0  0  0  0  0  0
   -5.3567    0.7264   -0.9014 C   0  0  0  0  0  0  0  0  0  0  0  0
   -6.6410    0.8422   -0.3709 C   0  0  0  0  0  0  0  0  0  0  0  0
   -7.0694   -0.0442    0.6095 C   0  0  0  0  0  0  0  0  0  0  0  0
   -6.2126   -1.0472    1.0603 C   0  0  0  0  0  0  0  0  0  0  0  0
   -4.9094   -1.1785    0.5405 C   0  0  0  0  0  0  0  0  0  0  0  0
   -4.0234   -2.2890    1.0606 C   0  0  0  0  0  0  0  0  0  0  0  0
   -3.7925   -3.2586    0.1339 F   0  0  0  0  0  0  0  0  0  0  0  0
   -4.5293   -2.9308    2.1515 F   0  0  0  0  0  0  0  0  0  0  0  0
   -2.7933   -1.8400    1.4439 F   0  0  0  0  0  0  0  0  0  0  0  0
   -0.0582    1.8960   -0.6958 C   0  0  0  0  0  0  0  0  0  0  0  0
    1.4311    1.7862   -1.0051 C   0  0  0  0  0  0  0  0  0  0  0  0
    3.1016    0.1014   -0.9509 O   0  0  0  0  0  0  0  0  0  0  0  0
    4.1959   -0.4700   -0.3699 C   0  0  0  0  0  0  0  0  0  0  0  0
    4.3655   -1.8373   -0.6069 C   0  0  0  0  0  0  0  0  0  0  0  0
    5.5075   -2.4977   -0.1511 C   0  0  0  0  0  0  0  0  0  0  0  0
    6.5023   -1.7876    0.5177 C   0  0  0  0  0  0  0  0  0  0  0  0
    6.3537   -0.4164    0.7303 C   0  0  0  0  0  0  0  0  0  0  0  0
    5.1981    0.2470    0.2916 C   0  0  0  0  0  0  0  0  0  0  0  0
    3.9105    3.2183    1.0996 H   0  0  0  0  0  0  0  0  0  0  0  0
    1.9820    2.0931    1.6264 H   0  0  0  0  0  0  0  0  0  0  0  0
    3.0173    0.6938    1.9066 H   0  0  0  0  0  0  0  0  0  0  0  0
    1.6080   -1.2724    0.5865 H   0  0  0  0  0  0  0  0  0  0  0  0
    0.6139   -0.0097    1.3024 H   0  0  0  0  0  0  0  0  0  0  0  0
    0.5092   -0.8928   -1.6165 H   0  0  0  0  0  0  0  0  0  0  0  0
   -0.6001   -1.3998   -0.3683 H   0  0  0  0  0  0  0  0  0  0  0  0
   -2.0203    0.4166    0.7250 H   0  0  0  0  0  0  0  0  0  0  0  0
   -2.5296    1.6385   -0.4392 H   0  0  0  0  0  0  0  0  0  0  0  0
   -2.7020   -1.3772   -1.0083 H   0  0  0  0  0  0  0  0  0  0  0  0
   -2.1904    0.2063   -2.6711 H   0  0  0  0  0  0  0  0  0  0  0  0
   -5.0436    1.4243   -1.6774 H   0  0  0  0  0  0  0  0  0  0  0  0
   -7.3074    1.6220   -0.7312 H   0  0  0  0  0  0  0  0  0  0  0  0
   -8.0727    0.0417    1.0195 H   0  0  0  0  0  0  0  0  0  0  0  0
   -6.5704   -1.7351    1.8261 H   0  0  0  0  0  0  0  0  0  0  0  0
   -0.4918    2.6967   -1.3064 H   0  0  0  0  0  0  0  0  0  0  0  0
   -0.1880    2.1862    0.3552 H   0  0  0  0  0  0  0  0  0  0  0  0
    1.5594    1.5205   -2.0639 H   0  0  0  0  0  0  0  0  0  0  0  0
    1.9005    2.7716   -0.8989 H   0  0  0  0  0  0  0  0  0  0  0  0
    3.6102   -2.3882   -1.1619 H   0  0  0  0  0  0  0  0  0  0  0  0
    5.6300   -3.5621   -0.3368 H   0  0  0  0  0  0  0  0  0  0  0  0
    7.4007   -2.2960    0.8594 H   0  0  0  0  0  0  0  0  0  0  0  0
    7.1423    0.1394    1.2342 H   0  0  0  0  0  0  0  0  0  0  0  0
  1  2  2  0
  2  3  1  0
  3  4  1  0
  4  5  1  0
  5  6  1  0
  6  7  1  0
  7  8  1  0
  8  9  1  0
  9 10  1  0
 10 11  1  0
 10 12  1  0
 12 13  2  0
 13 14  1  0
 14 15  2  0
 15 16  1  0
 16 17  2  0
 17 18  1  0
 18 19  1  0
 18 20  1  0
 18 21  1  0
  8 22  1  0
 22 23  1  0
  5 24  1  0
 24 25  1  0
 25 26  2  0
 26 27  1  0
 27 28  2  0
 28 29  1  0
 29 30  2  0
 30  2  1  0
 23  5  1  0
 30 25  1  0
 17 12  1  0
  3 31  1  0
  4 32  1  0
  4 33  1  0
  6 34  1  0
  6 35  1  0
  7 36  1  0
  7 37  1  0
  9 38  1  0
  9 39  1  0
 10 40  1  0
 11 41  1  0
 13 42  1  0
 14 43  1  0
 15 44  1  0
 16 45  1  0
 22 46  1  0
 22 47  1  0
 23 48  1  0
 23 49  1  0
 26 50  1  0
 27 51  1  0
 28 52  1  0
 29 53  1  0
M  END
$$$$
OCNT-2312943
     RDKit          3D

 55 58  0  0  0  0  0  0  0  0999 V2000
   -3.0443   -1.0978    1.8197 C   0  0  0  0  0  0  0  0  0  0  0  0
   -3.7296   -0.2194    0.8067 C   0  0  0  0  0  0  0  0  0  0  0  0
   -3.3560    1.0485    0.5379 C   0  0  0  0  0  0  0  0  0  0  0  0
   -2.1791    1.6833    1.2146 C   0  0  0  0  0  0  0  0  0  0  0  0
   -2.3625    2.4481    2.1581 O   0  0  0  0  0  0  0  0  0  0  0  0
   -0.9275    1.3847    0.7000 N   0  0  0  0  0  0  0  0  0  0  0  0
   -0.6927    0.5772   -0.5053 C   0  0  0  0  0  0  0  0  0  0  0  0
    0.6984    0.7873   -1.1133 C   0  0  0  0  0  0  0  0  0  0  0  0
    1.7982    0.6768   -0.1457 N   0  0  0  0  0  0  0  0  0  0  0  0
    3.0796    0.4830   -0.6644 C   0  0  0  0  0  0  0  0  0  0  0  0
    3.2534    0.3317   -1.8756 O   0  0  0  0  0  0  0  0  0  0  0  0
    4.2508    0.5119    0.3146 C   0  0  0  0  0  0  0  0  0  0  0  0
    5.5303   -0.0775   -0.2358 C   0  0  0  0  0  0  0  0  0  0  0  0
    6.4623    0.7332   -0.9000 C   0  0  0  0  0  0  0  0  0  0  0  0
    7.6384    0.1854   -1.4167 C   0  0  0  0  0  0  0  0  0  0  0  0
    7.8930   -1.1788   -1.2797 C   0  0  0  0  0  0  0  0  0  0  0  0
    6.9666   -1.9913   -0.6304 C   0  0  0  0  0  0  0  0  0  0  0  0
    7.2764   -3.6764   -0.4643 Cl  0  0  0  0  0  0  0  0  0  0  0  0
    5.7895   -1.4507   -0.1119 C   0  0  0  0  0  0  0  0  0  0  0  0
    1.4927    1.0247    1.2597 C   0  0  0  0  0  0  0  0  0  0  0  0
    1.2988   -0.2405    2.1055 C   0  0  0  0  0  0  0  0  0  0  0  0
    0.2525    1.9415    1.3635 C   0  0  0  0  0  0  0  0  0  0  0  0
   -4.0361    1.8395   -0.3547 N   0  0  0  0  0  0  0  0  0  0  0  0
   -5.1346    1.4441   -1.0701 C   0  0  0  0  0  0  0  0  0  0  0  0
   -5.7005    2.1985   -1.8521 O   0  0  0  0  0  0  0  0  0  0  0  0
   -5.5885    0.0502   -0.8508 C   0  0  0  0  0  0  0  0  0  0  0  0
   -6.6954   -0.4264   -1.5664 C   0  0  0  0  0  0  0  0  0  0  0  0
   -7.1332   -1.7336   -1.3749 C   0  0  0  0  0  0  0  0  0  0  0  0
   -6.4669   -2.5585   -0.4727 C   0  0  0  0  0  0  0  0  0  0  0  0
   -5.3618   -2.0802    0.2417 C   0  0  0  0  0  0  0  0  0  0  0  0
   -4.9008   -0.7651    0.0676 C   0  0  0  0  0  0  0  0  0  0  0  0
   -2.2381   -0.5901    2.3568 H   0  0  0  0  0  0  0  0  0  0  0  0
   -3.7556   -1.4365    2.5808 H   0  0  0  0  0  0  0  0  0  0  0  0
   -2.6020   -1.9734    1.3325 H   0  0  0  0  0  0  0  0  0  0  0  0
   -1.4568    0.8011   -1.2563 H   0  0  0  0  0  0  0  0  0  0  0  0
   -0.8113   -0.4725   -0.2140 H   0  0  0  0  0  0  0  0  0  0  0  0
    0.8510    0.0764   -1.9330 H   0  0  0  0  0  0  0  0  0  0  0  0
    0.7630    1.7962   -1.5403 H   0  0  0  0  0  0  0  0  0  0  0  0
    3.9993   -0.0328    1.2280 H   0  0  0  0  0  0  0  0  0  0  0  0
    4.4272    1.5560    0.6006 H   0  0  0  0  0  0  0  0  0  0  0  0
    6.2720    1.7967   -1.0306 H   0  0  0  0  0  0  0  0  0  0  0  0
    8.3521    0.8220   -1.9338 H   0  0  0  0  0  0  0  0  0  0  0  0
    8.8075   -1.6011   -1.6866 H   0  0  0  0  0  0  0  0  0  0  0  0
    5.0727   -2.1010    0.3833 H   0  0  0  0  0  0  0  0  0  0  0  0
    2.3435    1.5775    1.6720 H   0  0  0  0  0  0  0  0  0  0  0  0
    2.1803   -0.8870    2.0732 H   0  0  0  0  0  0  0  0  0  0  0  0
    0.4544   -0.8421    1.7554 H   0  0  0  0  0  0  0  0  0  0  0  0
    1.1144    0.0211    3.1527 H   0  0  0  0  0  0  0  0  0  0  0  0
    0.4613    2.8978    0.8673 H   0  0  0  0  0  0  0  0  0  0  0  0
    0.0314    2.1640    2.4134 H   0  0  0  0  0  0  0  0  0  0  0  0
   -3.7467    2.8034   -0.4784 H   0  0  0  0  0  0  0  0  0  0  0  0
   -7.2142    0.2215   -2.2701 H   0  0  0  0  0  0  0  0  0  0  0  0
   -7.9921   -2.1069   -1.9273 H   0  0  0  0  0  0  0  0  0  0  0  0
   -6.8080   -3.5804   -0.3210 H   0  0  0  0  0  0  0  0  0  0  0  0
   -4.8767   -2.7633    0.9340 H   0  0  0  0  0  0  0  0  0  0  0  0
  1  2  1  0
  2  3  2  0
  3  4  1  0
  4  5  2  0
  4  6  1  0
  6  7  1  0
  7  8  1  0
  8  9  1  0
  9 10  1  0
 10 11  2  0
 10 12  1  0
 12 13  1  0
 13 14  2  0
 14 15  1  0
 15 16  2  0
 16 17  1  0
 17 18  1  0
 17 19  2  0
  9 20  1  0
 20 21  1  0
 20 22  1  0
  3 23  1  0
 23 24  1  0
 24 25  2  0
 24 26  1  0
 26 27  2  0
 27 28  1  0
 28 29  2  0
 29 30  1  0
 30 31  2  0
 31  2  1  0
 22  6  1  0
 31 26  1  0
 19 13  1  0
  1 32  1  0
  1 33  1  0
  1 34  1  0
  7 35  1  0
  7 36  1  0
  8 37  1  0
  8 38  1  0
 12 39  1  0
 12 40  1  0
 14 41  1  0
 15 42  1  0
 16 43  1  0
 19 44  1  0
 20 45  1  0
 21 46  1  0
 21 47  1  0
 21 48  1  0
 22 49  1  0
 22 50  1  0
 23 51  1  0
 27 52  1  0
 28 53  1  0
 29 54  1  0
 30 55  1  0
M  END
$$$$
OCNT-2312947
     RDKit          3D

 60 64  0  0  0  0  0  0  0  0999 V2000
   -2.9192   -1.5330   -2.9630 O   0  0  0  0  0  0  0  0  0  0  0  0
   -2.5602   -1.1354   -1.8557 C   0  0  0  0  0  0  0  0  0  0  0  0
   -3.0101    0.0130   -1.2240 N   0  0  0  0  0  0  0  0  0  0  0  0
   -3.8724    1.0034   -1.7281 C   0  0  0  0  0  0  0  0  0  0  0  0
   -4.4438    0.9671   -3.0032 C   0  0  0  0  0  0  0  0  0  0  0  0
   -5.2935    1.9941   -3.4272 C   0  0  0  0  0  0  0  0  0  0  0  0
   -5.5700    3.0548   -2.5755 C   0  0  0  0  0  0  0  0  0  0  0  0
   -6.3844    4.0369   -2.9826 F   0  0  0  0  0  0  0  0  0  0  0  0
   -5.0121    3.1101   -1.3057 C   0  0  0  0  0  0  0  0  0  0  0  0
   -4.1631    2.0846   -0.8825 C   0  0  0  0  0  0  0  0  0  0  0  0
   -1.6882   -2.0417   -0.9479 C   0  0  0  0  0  0  0  0  0  0  0  0
   -2.6142   -3.1442   -0.4093 C   0  0  0  0  0  0  0  0  0  0  0  0
   -2.0719   -3.7561    0.8667 C   0  0  0  0  0  0  0  0  0  0  0  0
   -1.9118   -2.6477    1.8664 C   0  0  0  0  0  0  0  0  0  0  0  0
   -2.2876   -2.8317    3.2034 C   0  0  0  0  0  0  0  0  0  0  0  0
   -2.1426   -1.7940    4.1214 C   0  0  0  0  0  0  0  0  0  0  0  0
   -1.6267   -0.5692    3.7082 C   0  0  0  0  0  0  0  0  0  0  0  0
   -1.2354   -0.3870    2.3800 C   0  0  0  0  0  0  0  0  0  0  0  0
   -1.3452   -1.4318    1.4547 C   0  0  0  0  0  0  0  0  0  0  0  0
   -0.9585   -1.2718    0.0942 N   0  0  0  0  0  0  0  0  0  0  0  0
    0.1466   -0.5459   -0.3587 C   0  0  0  0  0  0  0  0  0  0  0  0
    0.2384   -0.2191   -1.5461 O   0  0  0  0  0  0  0  0  0  0  0  0
    1.3313   -0.2990    0.5806 C   0  0  0  0  0  0  0  0  0  0  0  0
    1.6913    1.1931    0.5920 C   0  0  0  0  0  0  0  0  0  0  0  0
    3.1491    1.4354    0.9769 C   0  0  0  0  0  0  0  0  0  0  0  0
    4.0452    0.6913    0.1058 N   0  0  0  0  0  0  0  0  0  0  0  0
    5.2468    1.2705   -0.2513 C   0  0  0  0  0  0  0  0  0  0  0  0
    5.7017    2.3149    0.4648 N   0  0  0  0  0  0  0  0  0  0  0  0
    6.8818    2.8565    0.1085 C   0  0  0  0  0  0  0  0  0  0  0  0
    7.6400    2.4008   -0.9371 C   0  0  0  0  0  0  0  0  0  0  0  0
    7.1089    1.3329   -1.6101 C   0  0  0  0  0  0  0  0  0  0  0  0
    5.9345    0.7595   -1.2878 N   0  0  0  0  0  0  0  0  0  0  0  0
    3.5277   -0.3974   -0.7081 C   0  0  0  0  0  0  0  0  0  0  0  0
    2.5019   -1.1833    0.1075 C   0  0  0  0  0  0  0  0  0  0  0  0
   -2.6239    0.1740   -0.3020 H   0  0  0  0  0  0  0  0  0  0  0  0
   -4.2445    0.1557   -3.6960 H   0  0  0  0  0  0  0  0  0  0  0  0
   -5.7356    1.9680   -4.4179 H   0  0  0  0  0  0  0  0  0  0  0  0
   -5.2397    3.9482   -0.6553 H   0  0  0  0  0  0  0  0  0  0  0  0
   -3.7347    2.1425    0.1145 H   0  0  0  0  0  0  0  0  0  0  0  0
   -0.9246   -2.4988   -1.5923 H   0  0  0  0  0  0  0  0  0  0  0  0
   -2.7470   -3.9194   -1.1740 H   0  0  0  0  0  0  0  0  0  0  0  0
   -3.6175   -2.7386   -0.2149 H   0  0  0  0  0  0  0  0  0  0  0  0
   -2.7713   -4.5166    1.2318 H   0  0  0  0  0  0  0  0  0  0  0  0
   -1.1047   -4.2430    0.6963 H   0  0  0  0  0  0  0  0  0  0  0  0
   -2.7029   -3.7813    3.5344 H   0  0  0  0  0  0  0  0  0  0  0  0
   -2.4426   -1.9380    5.1567 H   0  0  0  0  0  0  0  0  0  0  0  0
   -1.5328    0.2471    4.4206 H   0  0  0  0  0  0  0  0  0  0  0  0
   -0.8729    0.5924    2.0836 H   0  0  0  0  0  0  0  0  0  0  0  0
    1.1133   -0.6223    1.5990 H   0  0  0  0  0  0  0  0  0  0  0  0
    1.5092    1.6453   -0.3919 H   0  0  0  0  0  0  0  0  0  0  0  0
    1.0348    1.7270    1.2887 H   0  0  0  0  0  0  0  0  0  0  0  0
    3.3207    2.5179    0.9294 H   0  0  0  0  0  0  0  0  0  0  0  0
    3.3169    1.1231    2.0146 H   0  0  0  0  0  0  0  0  0  0  0  0
    7.2052    3.6971    0.7145 H   0  0  0  0  0  0  0  0  0  0  0  0
    8.5843    2.8481   -1.2092 H   0  0  0  0  0  0  0  0  0  0  0  0
    7.6229    0.8869   -2.4559 H   0  0  0  0  0  0  0  0  0  0  0  0
    3.0785   -0.0084   -1.6298 H   0  0  0  0  0  0  0  0  0  0  0  0
    4.3228   -1.0973   -0.9934 H   0  0  0  0  0  0  0  0  0  0  0  0
    2.1470   -2.0440   -0.4723 H   0  0  0  0  0  0  0  0  0  0  0  0
    3.0052   -1.5962    0.9927 H   0  0  0  0  0  0  0  0  0  0  0  0
  1  2  2  0
  2  3  1  0
  3  4  1  0
  4  5  1  0
  5  6  2  0
  6  7  1  0
  7  8  1  0
  7  9  2  0
  9 10  1  0
  2 11  1  0
 11 12  1  0
 12 13  1  0
 13 14  1  0
 14 15  2  0
 15 16  1  0
 16 17  2  0
 17 18  1  0
 18 19  2  0
 19 20  1  0
 20 21  1  0
 21 22  2  0
 21 23  1  0
 23 24  1  0
 24 25  1  0
 25 26  1  0
 26 27  1  0
 27 28  2  0
 28 29  1  0
 29 30  2  0
 30 31  1  0
 31 32  2  0
 26 33  1  0
 33 34  1  0
 10  4  2  0
 20 11  1  0
 34 23  1  0
 19 14  1  0
 32 27  1  0
  3 35  1  0
  5 36  1  0
  6 37  1  0
  9 38  1  0
 10 39  1  0
 11 40  1  0
 12 41  1  0
 12 42  1  0
 13 43  1  0
 13 44  1  0
 15 45  1  0
 16 46  1  0
 17 47  1  0
 18 48  1  0
 23 49  1  0
 24 50  1  0
 24 51  1  0
 25 52  1  0
 25 53  1  0
 29 54  1  0
 30 55  1  0
 31 56  1  0
 33 57  1  0
 33 58  1  0
 34 59  1  0
 34 60  1  0
M  END
$$$$
OCNT-2312951
     RDKit          3D

 51 53  0  0  0  0  0  0  0  0999 V2000
    7.1725    2.0910    1.0656 C   0  0  0  0  0  0  0  0  0  0  0  0
    5.9552    1.2910    0.7324 C   0  0  0  0  0  0  0  0  0  0  0  0
    5.3265    0.4884    1.6809 C   0  0  0  0  0  0  0  0  0  0  0  0
    4.2103   -0.2665    1.3209 C   0  0  0  0  0  0  0  0  0  0  0  0
    3.7445   -0.2233    0.0045 C   0  0  0  0  0  0  0  0  0  0  0  0
    2.4959   -1.0089   -0.4304 C   0  0  0  0  0  0  0  0  0  0  0  0
    2.5576   -2.4675    0.0736 C   0  0  0  0  0  0  0  0  0  0  0  0
    2.3998   -1.0581   -1.9753 C   0  0  0  0  0  0  0  0  0  0  0  0
    1.2603   -0.2705    0.1424 C   0  0  0  0  0  0  0  0  0  0  0  0
   -0.0080   -0.9407   -0.0996 N   0  0  0  0  0  0  0  0  0  0  0  0
   -1.1405   -0.5475    0.5910 C   0  0  0  0  0  0  0  0  0  0  0  0
   -1.1083    0.2402    1.5317 O   0  0  0  0  0  0  0  0  0  0  0  0
   -2.3722   -1.1562    0.0852 C   0  0  0  0  0  0  0  0  0  0  0  0
   -3.6366   -0.5659    0.0670 C   0  0  0  0  0  0  0  0  0  0  0  0
   -4.0524    0.7806    0.4667 C   0  0  0  0  0  0  0  0  0  0  0  0
   -4.4013    1.7257   -0.5071 C   0  0  0  0  0  0  0  0  0  0  0  0
   -4.8150    3.0062   -0.1337 C   0  0  0  0  0  0  0  0  0  0  0  0
   -4.8770    3.3529    1.2158 C   0  0  0  0  0  0  0  0  0  0  0  0
   -4.5246    2.4205    2.1910 C   0  0  0  0  0  0  0  0  0  0  0  0
   -4.1137    1.1383    1.8178 C   0  0  0  0  0  0  0  0  0  0  0  0
   -4.5153   -1.4936   -0.4624 N   0  0  0  0  0  0  0  0  0  0  0  0
   -5.9461   -1.3154   -0.6143 C   0  0  0  0  0  0  0  0  0  0  0  0
   -3.8427   -2.6351   -0.8152 C   0  0  0  0  0  0  0  0  0  0  0  0
   -2.5188   -2.4579   -0.4931 C   0  0  0  0  0  0  0  0  0  0  0  0
    4.3512    0.5554   -0.9258 N   0  0  0  0  0  0  0  0  0  0  0  0
    5.4314    1.2796   -0.5515 C   0  0  0  0  0  0  0  0  0  0  0  0
    8.0755    1.5169    0.8366 H   0  0  0  0  0  0  0  0  0  0  0  0
    7.1929    3.0243    0.4956 H   0  0  0  0  0  0  0  0  0  0  0  0
    7.1854    2.3581    2.1272 H   0  0  0  0  0  0  0  0  0  0  0  0
    5.6923    0.4479    2.7037 H   0  0  0  0  0  0  0  0  0  0  0  0
    3.7161   -0.8704    2.0769 H   0  0  0  0  0  0  0  0  0  0  0  0
    3.4938   -2.9484   -0.2352 H   0  0  0  0  0  0  0  0  0  0  0  0
    2.4930   -2.5346    1.1653 H   0  0  0  0  0  0  0  0  0  0  0  0
    1.7343   -3.0689   -0.3293 H   0  0  0  0  0  0  0  0  0  0  0  0
    2.2677   -0.0562   -2.3991 H   0  0  0  0  0  0  0  0  0  0  0  0
    1.5549   -1.6690   -2.3120 H   0  0  0  0  0  0  0  0  0  0  0  0
    3.3067   -1.4907   -2.4173 H   0  0  0  0  0  0  0  0  0  0  0  0
    1.1792    0.7290   -0.2982 H   0  0  0  0  0  0  0  0  0  0  0  0
    1.3603   -0.1221    1.2233 H   0  0  0  0  0  0  0  0  0  0  0  0
   -0.1800   -1.3182   -1.0178 H   0  0  0  0  0  0  0  0  0  0  0  0
   -4.3445    1.4682   -1.5626 H   0  0  0  0  0  0  0  0  0  0  0  0
   -5.0801    3.7350   -0.8955 H   0  0  0  0  0  0  0  0  0  0  0  0
   -5.1896    4.3521    1.5074 H   0  0  0  0  0  0  0  0  0  0  0  0
   -4.5568    2.6922    3.2428 H   0  0  0  0  0  0  0  0  0  0  0  0
   -3.8243    0.4239    2.5849 H   0  0  0  0  0  0  0  0  0  0  0  0
   -6.1227   -0.6028   -1.4257 H   0  0  0  0  0  0  0  0  0  0  0  0
   -6.3591   -0.9473    0.3291 H   0  0  0  0  0  0  0  0  0  0  0  0
   -6.4067   -2.2757   -0.8596 H   0  0  0  0  0  0  0  0  0  0  0  0
   -4.3579   -3.4812   -1.2537 H   0  0  0  0  0  0  0  0  0  0  0  0
   -1.7394   -3.1965   -0.6320 H   0  0  0  0  0  0  0  0  0  0  0  0
    5.8760    1.8715   -1.3479 H   0  0  0  0  0  0  0  0  0  0  0  0
  1  2  1  0
  2  3  2  0
  3  4  1  0
  4  5  2  0
  5  6  1  0
  6  7  1  0
  6  8  1  0
  6  9  1  0
  9 10  1  0
 10 11  1  0
 11 12  2  0
 11 13  1  0
 13 14  2  0
 14 15  1  0
 15 16  2  0
 16 17  1  0
 17 18  2  0
 18 19  1  0
 19 20  2  0
 14 21  1  0
 21 22  1  0
 21 23  1  0
 23 24  2  0
  5 25  1  0
 25 26  2  0
 26  2  1  0
 24 13  1  0
 20 15  1  0
  1 27  1  0
  1 28  1  0
  1 29  1  0
  3 30  1  0
  4 31  1  0
  7 32  1  0
  7 33  1  0
  7 34  1  0
  8 35  1  0
  8 36  1  0
  8 37  1  0
  9 38  1  0
  9 39  1  0
 10 40  1  0
 16 41  1  0
 17 42  1  0
 18 43  1  0
 19 44  1  0
 20 45  1  0
 22 46  1  0
 22 47  1  0
 22 48  1  0
 23 49  1  0
 24 50  1  0
 26 51  1  0
M  END
$$$$
OCNT-2312959
     RDKit          3D

 37 39  0  0  0  0  0  0  0  0999 V2000
    5.0564    1.3940   -0.6707 C   0  0  0  0  0  0  0  0  0  0  0  0
    4.5623    0.0922   -0.1230 C   0  0  0  0  0  0  0  0  0  0  0  0
    5.4791   -0.8316    0.2106 N   0  0  0  0  0  0  0  0  0  0  0  0
    4.9988   -1.9796    0.7128 C   0  0  0  0  0  0  0  0  0  0  0  0
    3.6591   -2.2196    0.9055 C   0  0  0  0  0  0  0  0  0  0  0  0
    2.7889   -1.2055    0.5566 C   0  0  0  0  0  0  0  0  0  0  0  0
    1.4097   -1.4334    0.7293 N   0  0  0  0  0  0  0  0  0  0  0  0
    0.5324   -0.3221    0.3406 C   0  0  0  0  0  0  0  0  0  0  0  0
    0.3509   -0.2278   -1.1720 C   0  0  0  0  0  0  0  0  0  0  0  0
   -0.9436    0.5660   -1.3188 C   0  0  0  0  0  0  0  0  0  0  0  0
   -1.7465    0.1682   -0.1629 N   0  0  0  0  0  0  0  0  0  0  0  0
   -3.0795    0.4538   -0.0010 C   0  0  0  0  0  0  0  0  0  0  0  0
   -3.8213   -0.0673    1.0745 C   0  0  0  0  0  0  0  0  0  0  0  0
   -5.1809    0.2177    1.2476 C   0  0  0  0  0  0  0  0  0  0  0  0
   -5.8300    1.0378    0.3382 C   0  0  0  0  0  0  0  0  0  0  0  0
   -7.1324    1.3019    0.5176 F   0  0  0  0  0  0  0  0  0  0  0  0
   -5.1330    1.5709   -0.7370 C   0  0  0  0  0  0  0  0  0  0  0  0
   -5.9244    2.5937   -1.8754 Cl  0  0  0  0  0  0  0  0  0  0  0  0
   -3.7739    1.2798   -0.9022 C   0  0  0  0  0  0  0  0  0  0  0  0
   -0.9232   -0.5520    0.8110 C   0  0  0  0  0  0  0  0  0  0  0  0
    3.2328   -0.0500    0.0387 N   0  0  0  0  0  0  0  0  0  0  0  0
    5.9862    1.2490   -1.2291 H   0  0  0  0  0  0  0  0  0  0  0  0
    4.3162    1.8331   -1.3465 H   0  0  0  0  0  0  0  0  0  0  0  0
    5.2426    2.0921    0.1504 H   0  0  0  0  0  0  0  0  0  0  0  0
    5.7448   -2.7280    0.9620 H   0  0  0  0  0  0  0  0  0  0  0  0
    3.3100   -3.1642    1.2988 H   0  0  0  0  0  0  0  0  0  0  0  0
    1.2581   -1.7187    1.6936 H   0  0  0  0  0  0  0  0  0  0  0  0
    0.8788    0.6347    0.7556 H   0  0  0  0  0  0  0  0  0  0  0  0
    1.1849    0.2627   -1.6821 H   0  0  0  0  0  0  0  0  0  0  0  0
    0.2322   -1.2266   -1.6119 H   0  0  0  0  0  0  0  0  0  0  0  0
   -1.4280    0.3218   -2.2703 H   0  0  0  0  0  0  0  0  0  0  0  0
   -0.7403    1.6424   -1.2814 H   0  0  0  0  0  0  0  0  0  0  0  0
   -3.3511   -0.7233    1.8025 H   0  0  0  0  0  0  0  0  0  0  0  0
   -5.7312   -0.1994    2.0848 H   0  0  0  0  0  0  0  0  0  0  0  0
   -3.2575    1.7196   -1.7504 H   0  0  0  0  0  0  0  0  0  0  0  0
   -1.1808   -1.6183    0.8048 H   0  0  0  0  0  0  0  0  0  0  0  0
   -1.0465   -0.1641    1.8287 H   0  0  0  0  0  0  0  0  0  0  0  0
  1  2  1  0
  2  3  2  0
  3  4  1  0
  4  5  2  0
  5  6  1  0
  6  7  1  0
  7  8  1  0
  8  9  1  0
  9 10  1  0
 10 11  1  0
 11 12  1  0
 12 13  1  0
 13 14  2  0
 14 15  1  0
 15 16  1  0
 15 17  2  0
 17 18  1  0
 17 19  1  0
 11 20  1  0
  6 21  2  0
 21  2  1  0
 20  8  1  0
 19 12  2  0
  1 22  1  0
  1 23  1  0
  1 24  1  0
  4 25  1  0
  5 26  1  0
  7 27  1  0
  8 28  1  0
  9 29  1  0
  9 30  1  0
 10 31  1  0
 10 32  1  0
 13 33  1  0
 14 34  1  0
 19 35  1  0
 20 36  1  0
 20 37  1  0
M  END
$$$$
OCNT-2312961
     RDKit          3D

 41 43  0  0  0  0  0  0  0  0999 V2000
   -1.6111   -1.9851   -0.1919 C   0  0  0  0  0  0  0  0  0  0  0  0
   -1.3091   -0.6114   -0.4003 O   0  0  0  0  0  0  0  0  0  0  0  0
   -1.9953    0.0557   -1.3803 C   0  0  0  0  0  0  0  0  0  0  0  0
   -2.8272   -0.5772   -2.3152 C   0  0  0  0  0  0  0  0  0  0  0  0
   -3.5215    0.1731   -3.2680 C   0  0  0  0  0  0  0  0  0  0  0  0
   -3.3899    1.5547   -3.2880 C   0  0  0  0  0  0  0  0  0  0  0  0
   -4.0634    2.2666   -4.2003 F   0  0  0  0  0  0  0  0  0  0  0  0
   -2.5686    2.2045   -2.3799 C   0  0  0  0  0  0  0  0  0  0  0  0
   -1.8540    1.4586   -1.4307 C   0  0  0  0  0  0  0  0  0  0  0  0
   -0.9942    2.2347   -0.4939 C   0  0  0  0  0  0  0  0  0  0  0  0
   -1.3266    3.3658   -0.1538 O   0  0  0  0  0  0  0  0  0  0  0  0
    0.1705    1.6370   -0.0798 N   0  0  0  0  0  0  0  0  0  0  0  0
    1.0189    2.2163    0.9524 C   0  0  0  0  0  0  0  0  0  0  0  0
    0.5016    1.8855    2.3468 C   0  0  0  0  0  0  0  0  0  0  0  0
    0.9817    0.4497    2.5633 C   0  0  0  0  0  0  0  0  0  0  0  0
    2.2417    0.3323    1.7933 N   0  0  0  0  0  0  0  0  0  0  0  0
    2.2732   -0.8690    1.0548 C   0  0  0  0  0  0  0  0  0  0  0  0
    1.9983   -0.8193   -0.2753 N   0  0  0  0  0  0  0  0  0  0  0  0
    2.0350   -1.9678   -0.9878 C   0  0  0  0  0  0  0  0  0  0  0  0
    2.3123   -3.2055   -0.4403 C   0  0  0  0  0  0  0  0  0  0  0  0
    2.5767   -3.2689    0.9212 C   0  0  0  0  0  0  0  0  0  0  0  0
    2.5607   -2.0972    1.6809 C   0  0  0  0  0  0  0  0  0  0  0  0
    2.9275   -2.2270    3.3656 Cl  0  0  0  0  0  0  0  0  0  0  0  0
    2.4092    1.5668    0.9924 C   0  0  0  0  0  0  0  0  0  0  0  0
   -1.2870   -2.5906   -1.0443 H   0  0  0  0  0  0  0  0  0  0  0  0
   -2.6760   -2.1314    0.0169 H   0  0  0  0  0  0  0  0  0  0  0  0
   -1.0510   -2.3203    0.6864 H   0  0  0  0  0  0  0  0  0  0  0  0
   -2.9598   -1.6542   -2.3290 H   0  0  0  0  0  0  0  0  0  0  0  0
   -4.1692   -0.3124   -3.9919 H   0  0  0  0  0  0  0  0  0  0  0  0
   -2.4835    3.2872   -2.4165 H   0  0  0  0  0  0  0  0  0  0  0  0
    0.3385    0.6583   -0.3170 H   0  0  0  0  0  0  0  0  0  0  0  0
    1.0798    3.2971    0.7883 H   0  0  0  0  0  0  0  0  0  0  0  0
   -0.5838    1.9746    2.4536 H   0  0  0  0  0  0  0  0  0  0  0  0
    0.9725    2.5458    3.0856 H   0  0  0  0  0  0  0  0  0  0  0  0
    1.1588    0.2601    3.6270 H   0  0  0  0  0  0  0  0  0  0  0  0
    0.2093   -0.2486    2.2144 H   0  0  0  0  0  0  0  0  0  0  0  0
    1.8254   -1.8579   -2.0484 H   0  0  0  0  0  0  0  0  0  0  0  0
    2.3302   -4.0963   -1.0580 H   0  0  0  0  0  0  0  0  0  0  0  0
    2.8066   -4.2237    1.3857 H   0  0  0  0  0  0  0  0  0  0  0  0
    3.0963    2.2195    1.5457 H   0  0  0  0  0  0  0  0  0  0  0  0
    2.8463    1.4201   -0.0018 H   0  0  0  0  0  0  0  0  0  0  0  0
  1  2  1  0
  2  3  1  0
  3  4  1  0
  4  5  2  0
  5  6  1  0
  6  7  1  0
  6  8  2  0
  8  9  1  0
  9 10  1  0
 10 11  2  0
 10 12  1  0
 12 13  1  0
 13 14  1  0
 14 15  1  0
 15 16  1  0
 16 17  1  0
 17 18  1  0
 18 19  2  0
 19 20  1  0
 20 21  2  0
 21 22  1  0
 22 23  1  0
 16 24  1  0
  9  3  2  0
 24 13  1  0
 22 17  2  0
  1 25  1  0
  1 26  1  0
  1 27  1  0
  4 28  1  0
  5 29  1  0
  8 30  1  0
 12 31  1  0
 13 32  1  0
 14 33  1  0
 14 34  1  0
 15 35  1  0
 15 36  1  0
 19 37  1  0
 20 38  1  0
 21 39  1  0
 24 40  1  0
 24 41  1  0
M  END
$$$$
OCNT-2312969
     RDKit          3D

 40 42  0  0  0  0  0  0  0  0999 V2000
    7.7198   -0.1635    1.2417 C   0  0  0  0  0  0  0  0  0  0  0  0
    7.0532   -0.1500   -0.0133 O   0  0  0  0  0  0  0  0  0  0  0  0
    5.6861   -0.2364   -0.0102 C   0  0  0  0  0  0  0  0  0  0  0  0
    4.9003   -0.3408    1.1395 C   0  0  0  0  0  0  0  0  0  0  0  0
    3.5043   -0.4248    1.0427 C   0  0  0  0  0  0  0  0  0  0  0  0
    2.8544   -0.4075   -0.2013 C   0  0  0  0  0  0  0  0  0  0  0  0
    1.3909   -0.4979   -0.2967 C   0  0  0  0  0  0  0  0  0  0  0  0
    0.7573   -1.4187   -1.1334 C   0  0  0  0  0  0  0  0  0  0  0  0
   -0.6370   -1.4744   -1.1883 C   0  0  0  0  0  0  0  0  0  0  0  0
   -1.3950   -0.6012   -0.4136 C   0  0  0  0  0  0  0  0  0  0  0  0
   -2.7918   -0.7099   -0.4704 N   0  0  0  0  0  0  0  0  0  0  0  0
   -3.5091    0.2958    0.3120 C   0  0  0  0  0  0  0  0  0  0  0  0
   -4.9997    0.2268    0.1780 C   0  0  0  0  0  0  0  0  0  0  0  0
   -5.7992   -0.8989    0.1746 C   0  0  0  0  0  0  0  0  0  0  0  0
   -7.0803   -0.4625    0.0357 N   0  0  0  0  0  0  0  0  0  0  0  0
   -7.1831    0.8712   -0.0559 N   0  0  0  0  0  0  0  0  0  0  0  0
   -5.9195    1.3039    0.0380 C   0  0  0  0  0  0  0  0  0  0  0  0
   -5.6260    2.7583   -0.0131 C   0  0  0  0  0  0  0  0  0  0  0  0
   -0.8097    0.2890    0.4091 N   0  0  0  0  0  0  0  0  0  0  0  0
    0.5466    0.3248    0.4458 C   0  0  0  0  0  0  0  0  0  0  0  0
    3.6506   -0.3037   -1.3514 C   0  0  0  0  0  0  0  0  0  0  0  0
    5.0453   -0.2189   -1.2577 C   0  0  0  0  0  0  0  0  0  0  0  0
    5.9444   -0.0909   -2.7311 Cl  0  0  0  0  0  0  0  0  0  0  0  0
    7.4269    0.6959    1.8536 H   0  0  0  0  0  0  0  0  0  0  0  0
    8.7943   -0.0846    1.0504 H   0  0  0  0  0  0  0  0  0  0  0  0
    7.5447   -1.1057    1.7713 H   0  0  0  0  0  0  0  0  0  0  0  0
    5.3383   -0.3643    2.1323 H   0  0  0  0  0  0  0  0  0  0  0  0
    2.9261   -0.5207    1.9613 H   0  0  0  0  0  0  0  0  0  0  0  0
    1.3373   -2.1149   -1.7345 H   0  0  0  0  0  0  0  0  0  0  0  0
   -1.1240   -2.2080   -1.8225 H   0  0  0  0  0  0  0  0  0  0  0  0
   -3.0967   -0.6967   -1.4381 H   0  0  0  0  0  0  0  0  0  0  0  0
   -3.1827    1.2988    0.0070 H   0  0  0  0  0  0  0  0  0  0  0  0
   -3.2701    0.1774    1.3773 H   0  0  0  0  0  0  0  0  0  0  0  0
   -5.5616   -1.9498    0.2604 H   0  0  0  0  0  0  0  0  0  0  0  0
   -7.9309   -1.0139   -0.0042 H   0  0  0  0  0  0  0  0  0  0  0  0
   -5.0423    3.0613    0.8620 H   0  0  0  0  0  0  0  0  0  0  0  0
   -5.0510    2.9979   -0.9132 H   0  0  0  0  0  0  0  0  0  0  0  0
   -6.5440    3.3549   -0.0282 H   0  0  0  0  0  0  0  0  0  0  0  0
    0.9488    1.0785    1.1188 H   0  0  0  0  0  0  0  0  0  0  0  0
    3.1841   -0.2759   -2.3344 H   0  0  0  0  0  0  0  0  0  0  0  0
  1  2  1  0
  2  3  1  0
  3  4  1  0
  4  5  2  0
  5  6  1  0
  6  7  1  0
  7  8  2  0
  8  9  1  0
  9 10  2  0
 10 11  1  0
 11 12  1  0
 12 13  1  0
 13 14  2  0
 14 15  1  0
 15 16  1  0
 16 17  2  0
 17 18  1  0
 10 19  1  0
 19 20  2  0
  6 21  2  0
 21 22  1  0
 22 23  1  0
 22  3  2  0
 20  7  1  0
 17 13  1  0
  1 24  1  0
  1 25  1  0
  1 26  1  0
  4 27  1  0
  5 28  1  0
  8 29  1  0
  9 30  1  0
 11 31  1  0
 12 32  1  0
 12 33  1  0
 14 34  1  0
 15 35  1  0
 18 36  1  0
 18 37  1  0
 18 38  1  0
 20 39  1  0
 21 40  1  0
M  END
$$$$
OCNT-2312992
     RDKit          3D

 54 57  0  0  0  0  0  0  0  0999 V2000
    2.8999    2.6206    0.9937 C   0  0  0  0  0  0  0  0  0  0  0  0
    3.9323    1.9079    0.2394 N   0  0  0  0  0  0  0  0  0  0  0  0
    5.2558    2.5340    0.2461 C   0  0  0  0  0  0  0  0  0  0  0  0
    3.8357    0.5203    0.0884 C   0  0  0  0  0  0  0  0  0  0  0  0
    4.9022   -0.2529   -0.4105 C   0  0  0  0  0  0  0  0  0  0  0  0
    4.8129   -1.6471   -0.5756 C   0  0  0  0  0  0  0  0  0  0  0  0
    5.9415   -2.3803   -1.0690 C   0  0  0  0  0  0  0  0  0  0  0  0
    6.8577   -2.9661   -1.4741 N   0  0  0  0  0  0  0  0  0  0  0  0
    3.6316   -2.3113   -0.2650 C   0  0  0  0  0  0  0  0  0  0  0  0
    2.5464   -1.5689    0.1897 C   0  0  0  0  0  0  0  0  0  0  0  0
    1.2953   -2.2752    0.5389 C   0  0  0  0  0  0  0  0  0  0  0  0
    1.3793   -3.2289    1.3091 O   0  0  0  0  0  0  0  0  0  0  0  0
    0.0887   -1.8166    0.0135 N   0  0  0  0  0  0  0  0  0  0  0  0
   -0.0373   -1.0460   -1.2174 C   0  0  0  0  0  0  0  0  0  0  0  0
   -1.0632    0.0750   -1.0660 C   0  0  0  0  0  0  0  0  0  0  0  0
   -2.1933   -0.2526   -0.0573 C   0  0  0  0  0  0  0  0  0  0  0  0
   -2.4098   -1.7818   -0.0244 C   0  0  0  0  0  0  0  0  0  0  0  0
   -3.6016   -2.1764    0.8466 C   0  0  0  0  0  0  0  0  0  0  0  0
   -4.8340   -1.3969    0.4198 C   0  0  0  0  0  0  0  0  0  0  0  0
   -4.5683    0.1055    0.4639 C   0  0  0  0  0  0  0  0  0  0  0  0
   -3.4307    0.5007   -0.3755 N   0  0  0  0  0  0  0  0  0  0  0  0
   -3.2195    1.9647   -0.4927 C   0  0  0  0  0  0  0  0  0  0  0  0
   -4.0937    3.0100    0.1496 C   0  0  0  0  0  0  0  0  0  0  0  0
   -2.7102    2.7721    0.6743 C   0  0  0  0  0  0  0  0  0  0  0  0
   -1.1301   -2.4800    0.4668 C   0  0  0  0  0  0  0  0  0  0  0  0
    2.6545   -0.1814    0.3826 C   0  0  0  0  0  0  0  0  0  0  0  0
    2.8587    2.2702    2.0308 H   0  0  0  0  0  0  0  0  0  0  0  0
    3.0960    3.6985    1.0151 H   0  0  0  0  0  0  0  0  0  0  0  0
    1.9163    2.5050    0.5255 H   0  0  0  0  0  0  0  0  0  0  0  0
    5.1842    3.6168    0.3989 H   0  0  0  0  0  0  0  0  0  0  0  0
    5.7614    2.4000   -0.7161 H   0  0  0  0  0  0  0  0  0  0  0  0
    5.8788    2.1276    1.0505 H   0  0  0  0  0  0  0  0  0  0  0  0
    5.8425    0.2210   -0.6829 H   0  0  0  0  0  0  0  0  0  0  0  0
    3.5464   -3.3906   -0.3743 H   0  0  0  0  0  0  0  0  0  0  0  0
    0.9160   -0.6429   -1.5655 H   0  0  0  0  0  0  0  0  0  0  0  0
   -0.3610   -1.7490   -1.9960 H   0  0  0  0  0  0  0  0  0  0  0  0
   -1.4686    0.2924   -2.0625 H   0  0  0  0  0  0  0  0  0  0  0  0
   -0.5517    0.9877   -0.7339 H   0  0  0  0  0  0  0  0  0  0  0  0
   -1.8519    0.0553    0.9421 H   0  0  0  0  0  0  0  0  0  0  0  0
   -2.6175   -2.1202   -1.0505 H   0  0  0  0  0  0  0  0  0  0  0  0
   -3.7933   -3.2524    0.7621 H   0  0  0  0  0  0  0  0  0  0  0  0
   -3.3883   -1.9693    1.9029 H   0  0  0  0  0  0  0  0  0  0  0  0
   -5.1292   -1.6932   -0.5947 H   0  0  0  0  0  0  0  0  0  0  0  0
   -5.6728   -1.6421    1.0811 H   0  0  0  0  0  0  0  0  0  0  0  0
   -5.4783    0.6045    0.1100 H   0  0  0  0  0  0  0  0  0  0  0  0
   -4.4046    0.4130    1.5046 H   0  0  0  0  0  0  0  0  0  0  0  0
   -2.8336    2.2471   -1.4725 H   0  0  0  0  0  0  0  0  0  0  0  0
   -4.2746    3.9214   -0.4103 H   0  0  0  0  0  0  0  0  0  0  0  0
   -4.9226    2.7300    0.7858 H   0  0  0  0  0  0  0  0  0  0  0  0
   -1.9537    3.5217    0.4745 H   0  0  0  0  0  0  0  0  0  0  0  0
   -2.6180    2.2983    1.6440 H   0  0  0  0  0  0  0  0  0  0  0  0
   -1.1094   -3.5173    0.1103 H   0  0  0  0  0  0  0  0  0  0  0  0
   -1.0975   -2.5161    1.5629 H   0  0  0  0  0  0  0  0  0  0  0  0
    1.7841    0.3340    0.7778 H   0  0  0  0  0  0  0  0  0  0  0  0
  1  2  1  0
  2  3  1  0
  2  4  1  0
  4  5  2  0
  5  6  1  0
  6  7  1  0
  7  8  3  0
  6  9  2  0
  9 10  1  0
 10 11  1  0
 11 12  2  0
 11 13  1  0
 13 14  1  0
 14 15  1  0
 15 16  1  0
 16 17  1  0
 17 18  1  0
 18 19  1  0
 19 20  1  0
 20 21  1  0
 21 22  1  0
 22 23  1  0
 23 24  1  0
 17 25  1  0
 10 26  2  0
 26  4  1  0
 25 13  1  0
 21 16  1  0
 24 22  1  0
  1 27  1  0
  1 28  1  0
  1 29  1  0
  3 30  1  0
  3 31  1  0
  3 32  1  0
  5 33  1  0
  9 34  1  0
 14 35  1  0
 14 36  1  0
 15 37  1  0
 15 38  1  0
 16 39  1  0
 17 40  1  0
 18 41  1  0
 18 42  1  0
 19 43  1  0
 19 44  1  0
 20 45  1  0
 20 46  1  0
 22 47  1  0
 23 48  1  0
 23 49  1  0
 24 50  1  0
 24 51  1  0
 25 52  1  0
 25 53  1  0
 26 54  1  0
M  END
$$$$
OCNT-2312995
     RDKit          3D

  0  0  0  0  0  0  0  0  0  0999 V3000
M  V30 BEGIN CTAB
M  V30 COUNTS 40 43 0 0 0
M  V30 BEGIN ATOM
M  V30 1 O -2.583417 -3.846526 -0.074259 0
M  V30 2 C -2.765860 -2.437048 -0.125082 0
M  V30 3 C -1.458322 -1.728106 0.192713 0 CFG=1
M  V30 4 C -0.364369 -2.009948 -0.846452 0
M  V30 5 N 0.519202 -0.862983 -0.723466 0
M  V30 6 C 1.678765 -0.754810 -1.404633 0
M  V30 7 N 2.194440 -1.712963 -2.181940 0
M  V30 8 S 3.624295 -1.126912 -2.803377 0
M  V30 9 C 3.470603 0.363318 -1.990772 0
M  V30 10 C 4.506551 1.519913 -2.093534 0
M  V30 11 C 4.740410 2.409696 -0.898967 0
M  V30 12 C 5.792915 1.423038 -1.312594 0
M  V30 13 N 2.376194 0.440686 -1.271970 0
M  V30 14 C -0.101127 0.249653 -0.022228 0
M  V30 15 C -1.568293 -0.193573 0.148180 0 CFG=2
M  V30 16 C -2.274500 0.422921 1.334036 0
M  V30 17 C -1.818645 0.236246 2.648058 0
M  V30 18 C -2.495878 0.809380 3.726474 0
M  V30 19 C -3.637551 1.575716 3.506825 0
M  V30 20 C -4.102283 1.770882 2.208564 0
M  V30 21 C -3.425531 1.199046 1.129243 0
M  V30 22 H -2.432845 -4.088501 0.856383 0
M  V30 23 H -3.551018 -2.168688 0.589396 0
M  V30 24 H -3.124678 -2.181042 -1.127421 0
M  V30 25 H -1.089755 -2.070104 1.169622 0
M  V30 26 H -0.778138 -2.060434 -1.860906 0
M  V30 27 H 0.149203 -2.952149 -0.624594 0
M  V30 28 H 4.544296 1.993010 -3.068950 0
M  V30 29 H 4.924945 3.461840 -1.082039 0
M  V30 30 H 4.179383 2.211355 0.007620 0
M  V30 31 H 6.695971 1.805609 -1.773694 0
M  V30 32 H 5.952920 0.563073 -0.671460 0
M  V30 33 H 0.407052 0.407714 0.935518 0
M  V30 34 H -0.058315 1.185239 -0.593155 0
M  V30 35 H -2.102991 0.084538 -0.772241 0
M  V30 36 H -0.928016 -0.356095 2.848765 0
M  V30 37 H -2.130183 0.658157 4.738952 0
M  V30 38 H -4.164026 2.021902 4.346455 0
M  V30 39 H -4.992883 2.370137 2.034902 0
M  V30 40 H -3.808520 1.366813 0.124402 0
M  V30 END ATOM
M  V30 BEGIN BOND
M  V30 1 1 1 2
M  V30 2 1 2 3
M  V30 3 1 3 4
M  V30 4 1 4 5
M  V30 5 1 5 6
M  V30 6 2 6 7
M  V30 7 1 7 8
M  V30 8 1 8 9
M  V30 9 1 9 10
M  V30 10 1 10 11
M  V30 11 1 11 12
M  V30 12 2 9 13
M  V30 13 1 5 14
M  V30 14 1 14 15
M  V30 15 1 15 16
M  V30 16 2 16 17
M  V30 17 1 17 18
M  V30 18 2 18 19
M  V30 19 1 19 20
M  V30 20 2 20 21
M  V30 21 1 15 3
M  V30 22 1 21 16
M  V30 23 1 13 6
M  V30 24 1 12 10
M  V30 25 1 1 22
M  V30 26 1 2 23
M  V30 27 1 2 24
M  V30 28 1 3 25 CFG=1
M  V30 29 1 4 26
M  V30 30 1 4 27
M  V30 31 1 10 28
M  V30 32 1 11 29
M  V30 33 1 11 30
M  V30 34 1 12 31
M  V30 35 1 12 32
M  V30 36 1 14 33
M  V30 37 1 14 34
M  V30 38 1 15 35 CFG=3
M  V30 39 1 17 36
M  V30 40 1 18 37
M  V30 41 1 19 38
M  V30 42 1 20 39
M  V30 43 1 21 40
M  V30 END BOND
M  V30 BEGIN COLLECTION
M  V30 MDLV30/STERAC1 ATOMS=(2 3 15)
M  V30 END COLLECTION
M  V30 END CTAB
M  END
>  <_CXSMILES_Data>  (685) 
|&1:2,14|

$$$$
OCNT-2312996
     RDKit          3D

 39 40  0  0  0  0  0  0  0  0999 V2000
   -1.3982    1.1589    1.2648 O   0  0  0  0  0  0  0  0  0  0  0  0
   -1.8876    1.4153    0.1692 C   0  0  0  0  0  0  0  0  0  0  0  0
   -3.3701    1.6759   -0.0293 C   0  0  0  0  0  0  0  0  0  0  0  0
   -4.2195    0.4939    0.3712 C   0  0  0  0  0  0  0  0  0  0  0  0
   -4.9220    0.4843    1.5819 C   0  0  0  0  0  0  0  0  0  0  0  0
   -5.6866   -0.6281    1.9391 C   0  0  0  0  0  0  0  0  0  0  0  0
   -5.7470   -1.7354    1.0904 C   0  0  0  0  0  0  0  0  0  0  0  0
   -6.7832   -3.2356    1.5818 Br  0  0  0  0  0  0  0  0  0  0  0  0
   -5.0479   -1.7433   -0.1105 C   0  0  0  0  0  0  0  0  0  0  0  0
   -4.2903   -0.6307   -0.4565 C   0  0  0  0  0  0  0  0  0  0  0  0
   -3.6185   -0.6453   -1.6140 F   0  0  0  0  0  0  0  0  0  0  0  0
   -1.1463    1.4847   -0.9913 N   0  0  0  0  0  0  0  0  0  0  0  0
    0.2847    1.2350   -0.9998 C   0  0  0  0  0  0  0  0  0  0  0  0
    0.5904   -0.2581   -1.0974 C   0  0  0  0  0  0  0  0  0  0  0  0
    2.0945   -0.5313   -1.1919 C   0  0  0  0  0  0  0  0  0  0  0  0
    2.7458   -0.1328    0.0533 N   0  0  0  0  0  0  0  0  0  0  0  0
    4.1420   -0.2801    0.0615 C   0  0  0  0  0  0  0  0  0  0  0  0
    4.8161    0.0133    1.2487 C   0  0  0  0  0  0  0  0  0  0  0  0
    6.2045   -0.0796    1.2888 C   0  0  0  0  0  0  0  0  0  0  0  0
    6.8928   -0.4495    0.1371 C   0  0  0  0  0  0  0  0  0  0  0  0
    6.1549   -0.7121   -1.0030 C   0  0  0  0  0  0  0  0  0  0  0  0
    4.8070   -0.6323   -1.0630 N   0  0  0  0  0  0  0  0  0  0  0  0
   -3.6330    2.5679    0.5562 H   0  0  0  0  0  0  0  0  0  0  0  0
   -3.5830    1.9284   -1.0762 H   0  0  0  0  0  0  0  0  0  0  0  0
   -4.8684    1.3308    2.2562 H   0  0  0  0  0  0  0  0  0  0  0  0
   -6.2289   -0.6262    2.8873 H   0  0  0  0  0  0  0  0  0  0  0  0
   -5.0794   -2.5947   -0.7799 H   0  0  0  0  0  0  0  0  0  0  0  0
   -1.6271    1.5319   -1.8834 H   0  0  0  0  0  0  0  0  0  0  0  0
    0.7193    1.6654   -0.0891 H   0  0  0  0  0  0  0  0  0  0  0  0
    0.6988    1.7734   -1.8578 H   0  0  0  0  0  0  0  0  0  0  0  0
    0.1631   -0.7827   -0.2335 H   0  0  0  0  0  0  0  0  0  0  0  0
    0.0986   -0.6726   -1.9876 H   0  0  0  0  0  0  0  0  0  0  0  0
    2.5101    0.0196   -2.0503 H   0  0  0  0  0  0  0  0  0  0  0  0
    2.2447   -1.6075   -1.3688 H   0  0  0  0  0  0  0  0  0  0  0  0
    2.3562   -0.6166    0.8603 H   0  0  0  0  0  0  0  0  0  0  0  0
    4.2637    0.3216    2.1353 H   0  0  0  0  0  0  0  0  0  0  0  0
    6.7347    0.1413    2.2069 H   0  0  0  0  0  0  0  0  0  0  0  0
    7.9734   -0.5272    0.1266 H   0  0  0  0  0  0  0  0  0  0  0  0
    6.6415   -1.0032   -1.9335 H   0  0  0  0  0  0  0  0  0  0  0  0
  1  2  2  0
  2  3  1  0
  3  4  1  0
  4  5  1  0
  5  6  2  0
  6  7  1  0
  7  8  1  0
  7  9  2  0
  9 10  1  0
 10 11  1  0
  2 12  1  0
 12 13  1  0
 13 14  1  0
 14 15  1  0
 15 16  1  0
 16 17  1  0
 17 18  2  0
 18 19  1  0
 19 20  2  0
 20 21  1  0
 21 22  2  0
 10  4  2  0
 22 17  1  0
  3 23  1  0
  3 24  1  0
  5 25  1  0
  6 26  1  0
  9 27  1  0
 12 28  1  0
 13 29  1  0
 13 30  1  0
 14 31  1  0
 14 32  1  0
 15 33  1  0
 15 34  1  0
 16 35  1  0
 18 36  1  0
 19 37  1  0
 20 38  1  0
 21 39  1  0
M  END
$$$$
OCNT-2313019
     RDKit          3D

 33 36  0  0  0  0  0  0  0  0999 V2000
    0.6134    2.9368    0.4236 O   0  0  0  0  0  0  0  0  0  0  0  0
   -0.0038    1.9688   -0.0105 C   0  0  0  0  0  0  0  0  0  0  0  0
   -1.3457    1.6318    0.3930 C   0  0  0  0  0  0  0  0  0  0  0  0
   -1.9497    0.5285   -0.1584 C   0  0  0  0  0  0  0  0  0  0  0  0
   -1.4448   -0.3319   -1.0769 N   0  0  0  0  0  0  0  0  0  0  0  0
   -0.2319   -0.0207   -1.4295 C   0  0  0  0  0  0  0  0  0  0  0  0
    0.5082    1.0655   -0.9589 N   0  0  0  0  0  0  0  0  0  0  0  0
    1.8622    1.2689   -1.4454 C   0  0  0  0  0  0  0  0  0  0  0  0
    2.8667    0.4416   -0.6751 C   0  0  0  0  0  0  0  0  0  0  0  0
    3.3433    0.8817    0.5696 C   0  0  0  0  0  0  0  0  0  0  0  0
    4.2537    0.1114    1.2962 C   0  0  0  0  0  0  0  0  0  0  0  0
    4.6971   -1.1091    0.7892 C   0  0  0  0  0  0  0  0  0  0  0  0
    4.2273   -1.5544   -0.4437 C   0  0  0  0  0  0  0  0  0  0  0  0
    4.7703   -3.0614   -1.0722 Cl  0  0  0  0  0  0  0  0  0  0  0  0
    3.3171   -0.7897   -1.1753 C   0  0  0  0  0  0  0  0  0  0  0  0
   -3.1761    0.5129    0.4474 N   0  0  0  0  0  0  0  0  0  0  0  0
   -4.2412   -0.4747    0.1873 C   0  0  0  0  0  0  0  0  0  0  0  0
   -4.1327   -1.9103    0.6464 C   0  0  0  0  0  0  0  0  0  0  0  0
   -5.1427   -1.0010    1.2802 C   0  0  0  0  0  0  0  0  0  0  0  0
   -3.3203    1.5550    1.2935 N   0  0  0  0  0  0  0  0  0  0  0  0
   -2.1824    2.2506    1.2732 N   0  0  0  0  0  0  0  0  0  0  0  0
    0.2979   -0.6432   -2.1690 H   0  0  0  0  0  0  0  0  0  0  0  0
    2.1385    2.3284   -1.3873 H   0  0  0  0  0  0  0  0  0  0  0  0
    1.8992    0.9962   -2.5077 H   0  0  0  0  0  0  0  0  0  0  0  0
    3.0076    1.8321    0.9850 H   0  0  0  0  0  0  0  0  0  0  0  0
    4.6151    0.4642    2.2595 H   0  0  0  0  0  0  0  0  0  0  0  0
    5.4049   -1.7053    1.3588 H   0  0  0  0  0  0  0  0  0  0  0  0
    2.9643   -1.1579   -2.1357 H   0  0  0  0  0  0  0  0  0  0  0  0
   -4.7037   -0.3070   -0.7806 H   0  0  0  0  0  0  0  0  0  0  0  0
   -4.4887   -2.6824   -0.0259 H   0  0  0  0  0  0  0  0  0  0  0  0
   -3.2696   -2.2000    1.2355 H   0  0  0  0  0  0  0  0  0  0  0  0
   -6.1892   -1.1523    1.0422 H   0  0  0  0  0  0  0  0  0  0  0  0
   -4.9644   -0.6728    2.2987 H   0  0  0  0  0  0  0  0  0  0  0  0
  1  2  2  0
  2  3  1  0
  3  4  2  0
  4  5  1  0
  5  6  2  0
  6  7  1  0
  7  8  1  0
  8  9  1  0
  9 10  2  0
 10 11  1  0
 11 12  2  0
 12 13  1  0
 13 14  1  0
 13 15  2  0
  4 16  1  0
 16 17  1  0
 17 18  1  0
 18 19  1  0
 16 20  1  0
 20 21  2  0
  7  2  1  0
 15  9  1  0
 19 17  1  0
 21  3  1  0
  6 22  1  0
  8 23  1  0
  8 24  1  0
 10 25  1  0
 11 26  1  0
 12 27  1  0
 15 28  1  0
 17 29  1  0
 18 30  1  0
 18 31  1  0
 19 32  1  0
 19 33  1  0
M  END
$$$$
OCNT-2313023
     RDKit          3D

 48 50  0  0  0  0  0  0  0  0999 V2000
   -3.5777    1.9924   -0.9269 C   0  0  0  0  0  0  0  0  0  0  0  0
   -4.2503    0.6341   -1.0217 C   0  0  0  0  0  0  0  0  0  0  0  0
   -3.3298   -0.3396   -0.5189 O   0  0  0  0  0  0  0  0  0  0  0  0
   -3.8232   -1.6317   -0.5131 C   0  0  0  0  0  0  0  0  0  0  0  0
   -5.0560   -1.8382   -1.0409 N   0  0  0  0  0  0  0  0  0  0  0  0
   -5.5301   -3.1020   -1.0353 C   0  0  0  0  0  0  0  0  0  0  0  0
   -4.8293   -4.1790   -0.5272 C   0  0  0  0  0  0  0  0  0  0  0  0
   -3.5647   -3.9460    0.0072 C   0  0  0  0  0  0  0  0  0  0  0  0
   -3.0303   -2.6485    0.0233 C   0  0  0  0  0  0  0  0  0  0  0  0
   -1.6661   -2.4635    0.6118 C   0  0  0  0  0  0  0  0  0  0  0  0
   -1.0817   -3.4507    1.0505 O   0  0  0  0  0  0  0  0  0  0  0  0
   -1.1448   -1.1897    0.6204 N   0  0  0  0  0  0  0  0  0  0  0  0
    0.0909   -0.7032    1.1136 C   0  0  0  0  0  0  0  0  0  0  0  0
    0.2909    0.6756    0.9215 C   0  0  0  0  0  0  0  0  0  0  0  0
    1.4663    1.3014    1.3566 C   0  0  0  0  0  0  0  0  0  0  0  0
    1.6698    3.0483    1.0969 S   0  0  0  0  0  0  0  0  0  0  0  0
    0.3456    3.6229    0.9755 O   0  0  0  0  0  0  0  0  0  0  0  0
    2.6164    3.5434    2.0719 O   0  0  0  0  0  0  0  0  0  0  0  0
    2.3504    3.1250   -0.4465 N   0  0  0  0  0  0  0  0  0  0  0  0
    3.5427    2.4026   -0.7296 C   0  0  0  0  0  0  0  0  0  0  0  0
    4.7362    2.7043   -0.0718 C   0  0  0  0  0  0  0  0  0  0  0  0
    5.8896    1.9647   -0.3392 C   0  0  0  0  0  0  0  0  0  0  0  0
    5.8491    0.9241   -1.2667 C   0  0  0  0  0  0  0  0  0  0  0  0
    4.6553    0.6309   -1.9241 C   0  0  0  0  0  0  0  0  0  0  0  0
    4.6049   -0.6521   -3.0697 Cl  0  0  0  0  0  0  0  0  0  0  0  0
    3.4997    1.3659   -1.6617 C   0  0  0  0  0  0  0  0  0  0  0  0
    2.4520    0.5780    2.0211 C   0  0  0  0  0  0  0  0  0  0  0  0
    2.2685   -0.7882    2.2112 C   0  0  0  0  0  0  0  0  0  0  0  0
    1.1051   -1.4264    1.7602 C   0  0  0  0  0  0  0  0  0  0  0  0
    1.0832   -2.7639    2.0256 O   0  0  0  0  0  0  0  0  0  0  0  0
   -2.6505    2.0046   -1.5095 H   0  0  0  0  0  0  0  0  0  0  0  0
   -3.3043    2.2155    0.1098 H   0  0  0  0  0  0  0  0  0  0  0  0
   -4.2382    2.7817   -1.2965 H   0  0  0  0  0  0  0  0  0  0  0  0
   -4.4915    0.4261   -2.0709 H   0  0  0  0  0  0  0  0  0  0  0  0
   -5.1652    0.6448   -0.4174 H   0  0  0  0  0  0  0  0  0  0  0  0
   -6.5206   -3.2294   -1.4641 H   0  0  0  0  0  0  0  0  0  0  0  0
   -5.2531   -5.1775   -0.5451 H   0  0  0  0  0  0  0  0  0  0  0  0
   -2.9976   -4.7825    0.4118 H   0  0  0  0  0  0  0  0  0  0  0  0
   -1.7490   -0.4798    0.2142 H   0  0  0  0  0  0  0  0  0  0  0  0
   -0.4736    1.2762    0.4322 H   0  0  0  0  0  0  0  0  0  0  0  0
    1.6446    3.1976   -1.1772 H   0  0  0  0  0  0  0  0  0  0  0  0
    4.7823    3.5201    0.6468 H   0  0  0  0  0  0  0  0  0  0  0  0
    6.8179    2.2021    0.1751 H   0  0  0  0  0  0  0  0  0  0  0  0
    6.7482    0.3485   -1.4725 H   0  0  0  0  0  0  0  0  0  0  0  0
    2.5762    1.1182   -2.1756 H   0  0  0  0  0  0  0  0  0  0  0  0
    3.3570    1.0582    2.3852 H   0  0  0  0  0  0  0  0  0  0  0  0
    3.0334   -1.3714    2.7200 H   0  0  0  0  0  0  0  0  0  0  0  0
    0.2514   -3.1438    1.6726 H   0  0  0  0  0  0  0  0  0  0  0  0
  1  2  1  0
  2  3  1  0
  3  4  1  0
  4  5  1  0
  5  6  2  0
  6  7  1  0
  7  8  2  0
  8  9  1  0
  9 10  1  0
 10 11  2  0
 10 12  1  0
 12 13  1  0
 13 14  1  0
 14 15  2  0
 15 16  1  0
 16 17  2  0
 16 18  2  0
 16 19  1  0
 19 20  1  0
 20 21  2  0
 21 22  1  0
 22 23  2  0
 23 24  1  0
 24 25  1  0
 24 26  2  0
 15 27  1  0
 27 28  2  0
 28 29  1  0
 29 30  1  0
  9  4  2  0
 29 13  2  0
 26 20  1  0
  1 31  1  0
  1 32  1  0
  1 33  1  0
  2 34  1  0
  2 35  1  0
  6 36  1  0
  7 37  1  0
  8 38  1  0
 12 39  1  0
 14 40  1  0
 19 41  1  0
 21 42  1  0
 22 43  1  0
 23 44  1  0
 26 45  1  0
 27 46  1  0
 28 47  1  0
 30 48  1  0
M  END
$$$$
OCNT-2313024
     RDKit          3D

 51 56  0  0  0  0  0  0  0  0999 V2000
   -2.7958   -1.6472    0.3729 C   0  0  0  0  0  0  0  0  0  0  0  0
   -2.7177   -0.4303   -0.4695 C   0  0  0  0  0  0  0  0  0  0  0  0
   -1.6151    0.2161   -0.9974 C   0  0  0  0  0  0  0  0  0  0  0  0
   -0.1183   -0.0945   -0.6903 C   0  0  0  0  0  0  0  0  0  0  0  0
    0.8962    0.5363   -1.2435 N   0  0  0  0  0  0  0  0  0  0  0  0
    1.9934   -0.0650   -0.6706 C   0  0  0  0  0  0  0  0  0  0  0  0
    3.3587    0.3331   -0.9997 C   0  0  0  0  0  0  0  0  0  0  0  0
    3.5899    1.3650   -1.9194 C   0  0  0  0  0  0  0  0  0  0  0  0
    4.8916    1.7553   -2.2388 C   0  0  0  0  0  0  0  0  0  0  0  0
    5.9797    1.1177   -1.6438 C   0  0  0  0  0  0  0  0  0  0  0  0
    5.7781    0.0795   -0.7243 C   0  0  0  0  0  0  0  0  0  0  0  0
    6.9507   -0.6063   -0.0708 C   0  0  0  0  0  0  0  0  0  0  0  0
    7.2052   -0.0798    1.2576 N   0  0  0  0  0  0  0  0  0  0  0  0
    6.8145   -0.6390    2.4434 C   0  0  0  0  0  0  0  0  0  0  0  0
    7.3344    0.1877    3.4122 C   0  0  0  0  0  0  0  0  0  0  0  0
    8.0381    1.2195    2.8462 N   0  0  0  0  0  0  0  0  0  0  0  0
    7.9406    1.0343    1.5488 C   0  0  0  0  0  0  0  0  0  0  0  0
    4.4623   -0.3016   -0.4069 C   0  0  0  0  0  0  0  0  0  0  0  0
    1.6841   -1.0399    0.1991 N   0  0  0  0  0  0  0  0  0  0  0  0
    0.2928   -1.0574    0.1922 O   0  0  0  0  0  0  0  0  0  0  0  0
   -2.0134    1.1645   -1.8883 N   0  0  0  0  0  0  0  0  0  0  0  0
   -3.3351    1.1401   -1.9406 N   0  0  0  0  0  0  0  0  0  0  0  0
   -3.7967    0.2819   -0.9865 N   0  0  0  0  0  0  0  0  0  0  0  0
   -5.1948    0.2080   -0.7421 C   0  0  0  0  0  0  0  0  0  0  0  0
   -6.0528    0.4911   -1.8270 C   0  0  0  0  0  0  0  0  0  0  0  0
   -7.4309    0.4137   -1.6754 C   0  0  0  0  0  0  0  0  0  0  0  0
   -7.9610    0.0791   -0.4371 C   0  0  0  0  0  0  0  0  0  0  0  0
   -7.1175   -0.1527    0.6610 C   0  0  0  0  0  0  0  0  0  0  0  0
   -7.6720   -0.4349    1.9169 C   0  0  0  0  0  0  0  0  0  0  0  0
   -6.8492   -0.6106    3.0188 C   0  0  0  0  0  0  0  0  0  0  0  0
   -5.4916   -0.4943    2.8246 C   0  0  0  0  0  0  0  0  0  0  0  0
   -4.9240   -0.2370    1.6248 N   0  0  0  0  0  0  0  0  0  0  0  0
   -5.7079   -0.0825    0.5322 C   0  0  0  0  0  0  0  0  0  0  0  0
   -3.7569   -2.1604    0.2796 H   0  0  0  0  0  0  0  0  0  0  0  0
   -2.0377   -2.3733    0.0591 H   0  0  0  0  0  0  0  0  0  0  0  0
   -2.6061   -1.4095    1.4235 H   0  0  0  0  0  0  0  0  0  0  0  0
    2.7534    1.8771   -2.3929 H   0  0  0  0  0  0  0  0  0  0  0  0
    5.0541    2.5609   -2.9509 H   0  0  0  0  0  0  0  0  0  0  0  0
    6.9855    1.4417   -1.9040 H   0  0  0  0  0  0  0  0  0  0  0  0
    7.8663   -0.4811   -0.6611 H   0  0  0  0  0  0  0  0  0  0  0  0
    6.7692   -1.6842    0.0149 H   0  0  0  0  0  0  0  0  0  0  0  0
    6.2196   -1.5396    2.5021 H   0  0  0  0  0  0  0  0  0  0  0  0
    7.2432    0.0927    4.4865 H   0  0  0  0  0  0  0  0  0  0  0  0
    8.3783    1.6686    0.7889 H   0  0  0  0  0  0  0  0  0  0  0  0
    4.2986   -1.1006    0.3156 H   0  0  0  0  0  0  0  0  0  0  0  0
   -5.6524    0.7467   -2.8077 H   0  0  0  0  0  0  0  0  0  0  0  0
   -8.0869    0.6140   -2.5190 H   0  0  0  0  0  0  0  0  0  0  0  0
   -9.0424    0.0246   -0.3265 H   0  0  0  0  0  0  0  0  0  0  0  0
   -8.7497   -0.5019    2.0467 H   0  0  0  0  0  0  0  0  0  0  0  0
   -7.2579   -0.8189    4.0007 H   0  0  0  0  0  0  0  0  0  0  0  0
   -4.7951   -0.6069    3.6509 H   0  0  0  0  0  0  0  0  0  0  0  0
  1  2  1  0
  2  3  2  0
  3  4  1  0
  4  5  2  0
  5  6  1  0
  6  7  1  0
  7  8  1  0
  8  9  2  0
  9 10  1  0
 10 11  2  0
 11 12  1  0
 12 13  1  0
 13 14  1  0
 14 15  2  0
 15 16  1  0
 16 17  2  0
 11 18  1  0
  6 19  2  0
 19 20  1  0
  3 21  1  0
 21 22  2  0
 22 23  1  0
 23 24  1  0
 24 25  1  0
 25 26  2  0
 26 27  1  0
 27 28  2  0
 28 29  1  0
 29 30  2  0
 30 31  1  0
 31 32  2  0
 32 33  1  0
 23  2  1  0
 33 24  2  0
 20  4  1  0
 33 28  1  0
 18  7  2  0
 17 13  1  0
  1 34  1  0
  1 35  1  0
  1 36  1  0
  8 37  1  0
  9 38  1  0
 10 39  1  0
 12 40  1  0
 12 41  1  0
 14 42  1  0
 15 43  1  0
 17 44  1  0
 18 45  1  0
 25 46  1  0
 26 47  1  0
 27 48  1  0
 29 49  1  0
 30 50  1  0
 31 51  1  0
M  END
$$$$
OCNT-2313032
     RDKit          3D

 38 40  0  0  0  0  0  0  0  0999 V2000
    4.9136    1.3586   -0.0445 C   0  0  0  0  0  0  0  0  0  0  0  0
    3.5747    0.7409    0.2454 C   0  0  0  0  0  0  0  0  0  0  0  0
    2.4354    1.5546    0.2716 C   0  0  0  0  0  0  0  0  0  0  0  0
    1.1688    1.0161    0.5333 C   0  0  0  0  0  0  0  0  0  0  0  0
    0.9885   -0.3540    0.7359 C   0  0  0  0  0  0  0  0  0  0  0  0
   -0.2351   -0.9449    1.0502 N   0  0  0  0  0  0  0  0  0  0  0  0
   -1.5117   -0.2647    0.8201 C   0  0  0  0  0  0  0  0  0  0  0  0
   -2.0205   -0.1920   -0.5849 C   0  0  0  0  0  0  0  0  0  0  0  0
   -1.3278   -0.4345   -1.7579 C   0  0  0  0  0  0  0  0  0  0  0  0
   -2.2171   -0.2855   -2.7772 N   0  0  0  0  0  0  0  0  0  0  0  0
   -3.4530    0.0216   -2.3639 N   0  0  0  0  0  0  0  0  0  0  0  0
   -3.3383    0.1114   -1.0331 C   0  0  0  0  0  0  0  0  0  0  0  0
   -4.4969    0.4417   -0.1920 C   0  0  0  0  0  0  0  0  0  0  0  0
   -5.7805   -0.0017   -0.4379 C   0  0  0  0  0  0  0  0  0  0  0  0
   -6.8979    0.5581    0.7299 S   0  0  0  0  0  0  0  0  0  0  0  0
   -5.6803    1.4357    1.5503 C   0  0  0  0  0  0  0  0  0  0  0  0
   -4.4462    1.2962    0.9505 C   0  0  0  0  0  0  0  0  0  0  0  0
    2.1344   -1.1609    0.7405 C   0  0  0  0  0  0  0  0  0  0  0  0
    3.4142   -0.6317    0.4919 C   0  0  0  0  0  0  0  0  0  0  0  0
    4.5771   -1.5596    0.4844 C   0  0  0  0  0  0  0  0  0  0  0  0
    4.5971   -2.5108    1.4680 N   0  0  0  0  0  0  0  0  0  0  0  0
    5.4825   -1.4764   -0.3330 O   0  0  0  0  0  0  0  0  0  0  0  0
    4.8635    2.4523   -0.0072 H   0  0  0  0  0  0  0  0  0  0  0  0
    5.2541    1.0750   -1.0450 H   0  0  0  0  0  0  0  0  0  0  0  0
    5.6535    1.0497    0.7009 H   0  0  0  0  0  0  0  0  0  0  0  0
    2.5215    2.6252    0.0947 H   0  0  0  0  0  0  0  0  0  0  0  0
    0.3289    1.7038    0.5552 H   0  0  0  0  0  0  0  0  0  0  0  0
   -0.2801   -1.9194    0.7637 H   0  0  0  0  0  0  0  0  0  0  0  0
   -1.4887    0.7373    1.2619 H   0  0  0  0  0  0  0  0  0  0  0  0
   -2.2537   -0.8204    1.4082 H   0  0  0  0  0  0  0  0  0  0  0  0
   -0.2973   -0.7007   -1.9479 H   0  0  0  0  0  0  0  0  0  0  0  0
   -2.0535   -0.3885   -3.7737 H   0  0  0  0  0  0  0  0  0  0  0  0
   -6.1121   -0.6358   -1.2495 H   0  0  0  0  0  0  0  0  0  0  0  0
   -5.9303    2.0204    2.4250 H   0  0  0  0  0  0  0  0  0  0  0  0
   -3.5651    1.8062    1.3164 H   0  0  0  0  0  0  0  0  0  0  0  0
    2.0262   -2.2287    0.9174 H   0  0  0  0  0  0  0  0  0  0  0  0
    4.0055   -2.4396    2.2846 H   0  0  0  0  0  0  0  0  0  0  0  0
    5.4468   -3.0548    1.5464 H   0  0  0  0  0  0  0  0  0  0  0  0
  1  2  1  0
  2  3  1  0
  3  4  2  0
  4  5  1  0
  5  6  1  0
  6  7  1  0
  7  8  1  0
  8  9  2  0
  9 10  1  0
 10 11  1  0
 11 12  2  0
 12 13  1  0
 13 14  2  0
 14 15  1  0
 15 16  1  0
 16 17  2  0
  5 18  2  0
 18 19  1  0
 19 20  1  0
 20 21  1  0
 20 22  2  0
 19  2  2  0
 12  8  1  0
 17 13  1  0
  1 23  1  0
  1 24  1  0
  1 25  1  0
  3 26  1  0
  4 27  1  0
  6 28  1  0
  7 29  1  0
  7 30  1  0
  9 31  1  0
 10 32  1  0
 14 33  1  0
 16 34  1  0
 17 35  1  0
 18 36  1  0
 21 37  1  0
 21 38  1  0
M  END
$$$$
OCNT-2313035
     RDKit          3D

 40 42  0  0  0  0  0  0  0  0999 V2000
   -3.2383   -0.0697    1.7085 C   0  0  0  0  0  0  0  0  0  0  0  0
   -3.5532    0.6500    0.4198 C   0  0  0  0  0  0  0  0  0  0  0  0
   -4.8662    1.0983    0.1629 C   0  0  0  0  0  0  0  0  0  0  0  0
   -6.1723    0.7905    1.2576 Cl  0  0  0  0  0  0  0  0  0  0  0  0
   -5.1709    1.8079   -0.9992 C   0  0  0  0  0  0  0  0  0  0  0  0
   -4.1745    2.0720   -1.9281 C   0  0  0  0  0  0  0  0  0  0  0  0
   -2.8780    1.6075   -1.7037 C   0  0  0  0  0  0  0  0  0  0  0  0
   -2.5410    0.8776   -0.5488 C   0  0  0  0  0  0  0  0  0  0  0  0
   -1.2498    0.3674   -0.3666 N   0  0  0  0  0  0  0  0  0  0  0  0
   -1.1361   -1.1051   -0.4802 C   0  0  0  0  0  0  0  0  0  0  0  0
    0.0415   -1.5256   -1.3912 C   0  0  0  0  0  0  0  0  0  0  0  0
    1.3601   -0.9445   -1.0531 N   0  0  0  0  0  0  0  0  0  0  0  0
    2.1318   -1.8396   -0.1642 C   0  0  0  0  0  0  0  0  0  0  0  0
    3.5537   -1.3985   -0.0152 C   0  0  0  0  0  0  0  0  0  0  0  0
    3.9952   -0.6037    0.9768 N   0  0  0  0  0  0  0  0  0  0  0  0
    5.2981   -0.5333    0.6462 N   0  0  0  0  0  0  0  0  0  0  0  0
    6.2495    0.2083    1.4272 C   0  0  0  0  0  0  0  0  0  0  0  0
    5.6702   -1.2492   -0.4260 N   0  0  0  0  0  0  0  0  0  0  0  0
    4.5500   -1.8059   -0.8659 N   0  0  0  0  0  0  0  0  0  0  0  0
    1.2110    0.4088   -0.4564 C   0  0  0  0  0  0  0  0  0  0  0  0
   -0.0921    1.1275   -0.8731 C   0  0  0  0  0  0  0  0  0  0  0  0
   -2.1825    0.0226    1.9816 H   0  0  0  0  0  0  0  0  0  0  0  0
   -3.7882    0.3592    2.5522 H   0  0  0  0  0  0  0  0  0  0  0  0
   -3.4899   -1.1308    1.6169 H   0  0  0  0  0  0  0  0  0  0  0  0
   -6.1838    2.1557   -1.1840 H   0  0  0  0  0  0  0  0  0  0  0  0
   -4.4051    2.6236   -2.8355 H   0  0  0  0  0  0  0  0  0  0  0  0
   -2.1369    1.8015   -2.4735 H   0  0  0  0  0  0  0  0  0  0  0  0
   -2.0560   -1.5524   -0.8786 H   0  0  0  0  0  0  0  0  0  0  0  0
   -0.9766   -1.5207    0.5217 H   0  0  0  0  0  0  0  0  0  0  0  0
    0.0919   -2.6202   -1.4434 H   0  0  0  0  0  0  0  0  0  0  0  0
   -0.1939   -1.2031   -2.4145 H   0  0  0  0  0  0  0  0  0  0  0  0
    1.6550   -1.9300    0.8201 H   0  0  0  0  0  0  0  0  0  0  0  0
    2.1569   -2.8482   -0.5966 H   0  0  0  0  0  0  0  0  0  0  0  0
    6.7178   -0.4778    2.1366 H   0  0  0  0  0  0  0  0  0  0  0  0
    6.9999    0.6377    0.7587 H   0  0  0  0  0  0  0  0  0  0  0  0
    5.7301    1.0090    1.9597 H   0  0  0  0  0  0  0  0  0  0  0  0
    1.2154    0.3528    0.6408 H   0  0  0  0  0  0  0  0  0  0  0  0
    2.0668    1.0223   -0.7600 H   0  0  0  0  0  0  0  0  0  0  0  0
   -0.0968    2.1357   -0.4423 H   0  0  0  0  0  0  0  0  0  0  0  0
   -0.1128    1.2223   -1.9653 H   0  0  0  0  0  0  0  0  0  0  0  0
  1  2  1  0
  2  3  2  0
  3  4  1  0
  3  5  1  0
  5  6  2  0
  6  7  1  0
  7  8  2  0
  8  9  1  0
  9 10  1  0
 10 11  1  0
 11 12  1  0
 12 13  1  0
 13 14  1  0
 14 15  2  0
 15 16  1  0
 16 17  1  0
 16 18  1  0
 18 19  2  0
 12 20  1  0
 20 21  1  0
  8  2  1  0
 21  9  1  0
 19 14  1  0
  1 22  1  0
  1 23  1  0
  1 24  1  0
  5 25  1  0
  6 26  1  0
  7 27  1  0
 10 28  1  0
 10 29  1  0
 11 30  1  0
 11 31  1  0
 13 32  1  0
 13 33  1  0
 17 34  1  0
 17 35  1  0
 17 36  1  0
 20 37  1  0
 20 38  1  0
 21 39  1  0
 21 40  1  0
M  END
$$$$
OCNT-2313041
     RDKit          3D

 41 43  0  0  0  0  0  0  0  0999 V2000
   -5.6813    2.0072   -0.7862 C   0  0  0  0  0  0  0  0  0  0  0  0
   -4.9269    0.8311   -0.3979 N   0  0  0  0  0  0  0  0  0  0  0  0
   -5.5868   -0.3469   -0.1474 C   0  0  0  0  0  0  0  0  0  0  0  0
   -4.9211   -1.4299    0.2612 C   0  0  0  0  0  0  0  0  0  0  0  0
   -3.5705   -1.4978    0.4547 N   0  0  0  0  0  0  0  0  0  0  0  0
   -2.8521   -0.4197    0.2433 C   0  0  0  0  0  0  0  0  0  0  0  0
   -1.4661   -0.4814    0.4144 N   0  0  0  0  0  0  0  0  0  0  0  0
   -0.5427    0.5583   -0.0556 C   0  0  0  0  0  0  0  0  0  0  0  0
    0.8794    0.0098   -0.2714 C   0  0  0  0  0  0  0  0  0  0  0  0
    1.4574   -0.5974    0.9740 N   0  0  0  0  0  0  0  0  0  0  0  0
    2.8037   -1.6175    0.7189 S   0  0  0  0  0  0  0  0  0  0  0  0
    2.3967   -2.6310   -0.2319 O   0  0  0  0  0  0  0  0  0  0  0  0
    3.3425   -1.9808    2.0120 O   0  0  0  0  0  0  0  0  0  0  0  0
    3.9748   -0.5383   -0.0616 C   0  0  0  0  0  0  0  0  0  0  0  0
    4.3297   -0.7362   -1.3987 C   0  0  0  0  0  0  0  0  0  0  0  0
    5.2521    0.1236   -1.9950 C   0  0  0  0  0  0  0  0  0  0  0  0
    5.8157    1.1664   -1.2562 C   0  0  0  0  0  0  0  0  0  0  0  0
    5.4638    1.3530    0.0820 C   0  0  0  0  0  0  0  0  0  0  0  0
    4.5425    0.4982    0.6859 C   0  0  0  0  0  0  0  0  0  0  0  0
    0.4078   -1.2129    1.8573 C   0  0  0  0  0  0  0  0  0  0  0  0
   -0.8457   -1.6382    1.0784 C   0  0  0  0  0  0  0  0  0  0  0  0
   -3.5533    0.9266   -0.1846 C   0  0  0  0  0  0  0  0  0  0  0  0
   -2.9098    1.9637   -0.2952 O   0  0  0  0  0  0  0  0  0  0  0  0
   -5.0247    2.7903   -1.1761 H   0  0  0  0  0  0  0  0  0  0  0  0
   -6.2073    2.3931    0.0926 H   0  0  0  0  0  0  0  0  0  0  0  0
   -6.4063    1.7412   -1.5620 H   0  0  0  0  0  0  0  0  0  0  0  0
   -6.6631   -0.3631   -0.2868 H   0  0  0  0  0  0  0  0  0  0  0  0
   -5.4646   -2.3512    0.4569 H   0  0  0  0  0  0  0  0  0  0  0  0
   -0.5173    1.3745    0.6755 H   0  0  0  0  0  0  0  0  0  0  0  0
   -0.8760    0.9571   -1.0196 H   0  0  0  0  0  0  0  0  0  0  0  0
    1.5253    0.8345   -0.5907 H   0  0  0  0  0  0  0  0  0  0  0  0
    0.8504   -0.7353   -1.0750 H   0  0  0  0  0  0  0  0  0  0  0  0
    3.9003   -1.5514   -1.9766 H   0  0  0  0  0  0  0  0  0  0  0  0
    5.5374   -0.0208   -3.0344 H   0  0  0  0  0  0  0  0  0  0  0  0
    6.5378    1.8322   -1.7236 H   0  0  0  0  0  0  0  0  0  0  0  0
    5.9123    2.1614    0.6543 H   0  0  0  0  0  0  0  0  0  0  0  0
    4.2719    0.6382    1.7303 H   0  0  0  0  0  0  0  0  0  0  0  0
    0.8034   -2.0762    2.4026 H   0  0  0  0  0  0  0  0  0  0  0  0
    0.1447   -0.4630    2.6141 H   0  0  0  0  0  0  0  0  0  0  0  0
   -1.5400   -2.0959    1.7923 H   0  0  0  0  0  0  0  0  0  0  0  0
   -0.5939   -2.3939    0.3254 H   0  0  0  0  0  0  0  0  0  0  0  0
  1  2  1  0
  2  3  1  0
  3  4  2  0
  4  5  1  0
  5  6  2  0
  6  7  1  0
  7  8  1  0
  8  9  1  0
  9 10  1  0
 10 11  1  0
 11 12  2  0
 11 13  2  0
 11 14  1  0
 14 15  2  0
 15 16  1  0
 16 17  2  0
 17 18  1  0
 18 19  2  0
 10 20  1  0
 20 21  1  0
  6 22  1  0
 22 23  2  0
 22  2  1  0
 21  7  1  0
 19 14  1  0
  1 24  1  0
  1 25  1  0
  1 26  1  0
  3 27  1  0
  4 28  1  0
  8 29  1  0
  8 30  1  0
  9 31  1  0
  9 32  1  0
 15 33  1  0
 16 34  1  0
 17 35  1  0
 18 36  1  0
 19 37  1  0
 20 38  1  0
 20 39  1  0
 21 40  1  0
 21 41  1  0
M  END
$$$$
OCNT-2313046
     RDKit          3D

 53 55  0  0  0  0  0  0  0  0999 V2000
   -6.6254   -1.0992   -3.2346 C   0  0  0  0  0  0  0  0  0  0  0  0
   -6.9508   -0.6260   -1.8263 C   0  0  0  0  0  0  0  0  0  0  0  0
   -5.7428   -0.6736   -0.9265 C   0  0  0  0  0  0  0  0  0  0  0  0
   -4.8645    0.4113   -0.8593 C   0  0  0  0  0  0  0  0  0  0  0  0
   -3.7336    0.3567   -0.0381 C   0  0  0  0  0  0  0  0  0  0  0  0
   -3.4424   -0.7809    0.7343 C   0  0  0  0  0  0  0  0  0  0  0  0
   -2.2283   -0.7744    1.5777 C   0  0  0  0  0  0  0  0  0  0  0  0
   -1.4331    0.2722    1.7096 N   0  0  0  0  0  0  0  0  0  0  0  0
   -0.3557   -0.0125    2.5381 C   0  0  0  0  0  0  0  0  0  0  0  0
    0.6684    1.0548    2.8111 C   0  0  0  0  0  0  0  0  0  0  0  0
    1.7314    1.1408    1.7970 N   0  0  0  0  0  0  0  0  0  0  0  0
    2.4945   -0.0828    1.6006 C   0  0  0  0  0  0  0  0  0  0  0  0
    3.8117    0.2422    0.8873 C   0  0  0  0  0  0  0  0  0  0  0  0
    3.6551    1.3335   -0.1862 C   0  0  0  0  0  0  0  0  0  0  0  0
    4.6638    1.1878   -1.2830 N   0  0  0  0  0  0  0  0  0  0  0  0
    6.0689    1.2735   -0.8312 C   0  0  0  0  0  0  0  0  0  0  0  0
    4.3911    0.3634   -2.7333 S   0  0  0  0  0  0  0  0  0  0  0  0
    4.2633   -1.3334   -2.2109 C   0  0  0  0  0  0  0  0  0  0  0  0
    3.1099    0.7519   -3.2790 O   0  0  0  0  0  0  0  0  0  0  0  0
    5.5920    0.4719   -3.5368 O   0  0  0  0  0  0  0  0  0  0  0  0
    2.2069    1.4441   -0.6477 C   0  0  0  0  0  0  0  0  0  0  0  0
    1.2816    1.7515    0.5387 C   0  0  0  0  0  0  0  0  0  0  0  0
   -0.3685   -1.2907    3.0617 C   0  0  0  0  0  0  0  0  0  0  0  0
   -1.7201   -2.1567    2.4762 S   0  0  0  0  0  0  0  0  0  0  0  0
   -4.3304   -1.8653    0.6550 C   0  0  0  0  0  0  0  0  0  0  0  0
   -5.4640   -1.8138   -0.1665 C   0  0  0  0  0  0  0  0  0  0  0  0
   -7.5172   -1.0463   -3.8669 H   0  0  0  0  0  0  0  0  0  0  0  0
   -5.8474   -0.4795   -3.6921 H   0  0  0  0  0  0  0  0  0  0  0  0
   -6.2714   -2.1356   -3.2325 H   0  0  0  0  0  0  0  0  0  0  0  0
   -7.3440    0.3974   -1.8600 H   0  0  0  0  0  0  0  0  0  0  0  0
   -7.7519   -1.2445   -1.4040 H   0  0  0  0  0  0  0  0  0  0  0  0
   -5.0498    1.3083   -1.4460 H   0  0  0  0  0  0  0  0  0  0  0  0
   -3.0685    1.2189   -0.0066 H   0  0  0  0  0  0  0  0  0  0  0  0
    1.1297    0.8701    3.7898 H   0  0  0  0  0  0  0  0  0  0  0  0
    0.1657    2.0257    2.9047 H   0  0  0  0  0  0  0  0  0  0  0  0
    2.7404   -0.5526    2.5609 H   0  0  0  0  0  0  0  0  0  0  0  0
    1.9266   -0.8200    1.0186 H   0  0  0  0  0  0  0  0  0  0  0  0
    4.5465    0.5877    1.6265 H   0  0  0  0  0  0  0  0  0  0  0  0
    4.2209   -0.6845    0.4730 H   0  0  0  0  0  0  0  0  0  0  0  0
    3.8860    2.2994    0.2894 H   0  0  0  0  0  0  0  0  0  0  0  0
    6.4574    0.2804   -0.5890 H   0  0  0  0  0  0  0  0  0  0  0  0
    6.1561    1.9040    0.0594 H   0  0  0  0  0  0  0  0  0  0  0  0
    6.6922    1.7357   -1.6020 H   0  0  0  0  0  0  0  0  0  0  0  0
    3.3732   -1.4576   -1.5932 H   0  0  0  0  0  0  0  0  0  0  0  0
    4.1700   -1.9498   -3.1086 H   0  0  0  0  0  0  0  0  0  0  0  0
    5.1684   -1.6139   -1.6707 H   0  0  0  0  0  0  0  0  0  0  0  0
    2.0937    2.2308   -1.4021 H   0  0  0  0  0  0  0  0  0  0  0  0
    1.8804    0.5013   -1.1021 H   0  0  0  0  0  0  0  0  0  0  0  0
    0.2732    1.4358    0.2528 H   0  0  0  0  0  0  0  0  0  0  0  0
    1.2418    2.8375    0.6865 H   0  0  0  0  0  0  0  0  0  0  0  0
    0.3412   -1.7455    3.7373 H   0  0  0  0  0  0  0  0  0  0  0  0
   -4.1650   -2.7743    1.2272 H   0  0  0  0  0  0  0  0  0  0  0  0
   -6.1274   -2.6752   -0.2075 H   0  0  0  0  0  0  0  0  0  0  0  0
  1  2  1  0
  2  3  1  0
  3  4  1  0
  4  5  2  0
  5  6  1  0
  6  7  1  0
  7  8  2  0
  8  9  1  0
  9 10  1  0
 10 11  1  0
 11 12  1  0
 12 13  1  0
 13 14  1  0
 14 15  1  0
 15 16  1  0
 15 17  1  0
 17 18  1  0
 17 19  2  0
 17 20  2  0
 14 21  1  0
 21 22  1  0
  9 23  2  0
 23 24  1  0
  6 25  2  0
 25 26  1  0
 26  3  2  0
 24  7  1  0
 22 11  1  0
  1 27  1  0
  1 28  1  0
  1 29  1  0
  2 30  1  0
  2 31  1  0
  4 32  1  0
  5 33  1  0
 10 34  1  0
 10 35  1  0
 12 36  1  0
 12 37  1  0
 13 38  1  0
 13 39  1  0
 14 40  1  0
 16 41  1  0
 16 42  1  0
 16 43  1  0
 18 44  1  0
 18 45  1  0
 18 46  1  0
 21 47  1  0
 21 48  1  0
 22 49  1  0
 22 50  1  0
 23 51  1  0
 25 52  1  0
 26 53  1  0
M  END
$$$$
OCNT-2313053
     RDKit          3D

 56 59  0  0  0  0  0  0  0  0999 V2000
    3.9946   -0.6482   -1.5235 O   0  0  0  0  0  0  0  0  0  0  0  0
    3.2124    0.1992   -0.6536 C   0  0  0  0  0  0  0  0  0  0  0  0
    1.7430    0.1370   -1.1757 C   0  0  0  0  0  0  0  0  0  0  0  0
    1.2925   -1.2628   -1.3129 N   0  0  0  0  0  0  0  0  0  0  0  0
    0.1697   -1.4202   -2.2451 C   0  0  0  0  0  0  0  0  0  0  0  0
   -1.1122   -0.9264   -1.6581 C   0  0  0  0  0  0  0  0  0  0  0  0
   -1.5515    0.3860   -1.6065 C   0  0  0  0  0  0  0  0  0  0  0  0
   -2.7915    0.3612   -1.0396 N   0  0  0  0  0  0  0  0  0  0  0  0
   -3.6469    1.5100   -0.7624 C   0  0  0  0  0  0  0  0  0  0  0  0
   -3.1941    2.2541    0.4718 C   0  0  0  0  0  0  0  0  0  0  0  0
   -2.7217    3.5713    0.3775 C   0  0  0  0  0  0  0  0  0  0  0  0
   -2.3043    4.2568    1.5207 C   0  0  0  0  0  0  0  0  0  0  0  0
   -2.3628    3.6378    2.7695 C   0  0  0  0  0  0  0  0  0  0  0  0
   -2.8339    2.3313    2.8779 C   0  0  0  0  0  0  0  0  0  0  0  0
   -3.2470    1.6424    1.7352 C   0  0  0  0  0  0  0  0  0  0  0  0
   -3.2288   -0.8828   -0.7788 N   0  0  0  0  0  0  0  0  0  0  0  0
   -2.2013   -1.6838   -1.1102 C   0  0  0  0  0  0  0  0  0  0  0  0
   -2.3187   -3.1260   -0.9309 C   0  0  0  0  0  0  0  0  0  0  0  0
   -3.4662   -3.8107   -1.3517 C   0  0  0  0  0  0  0  0  0  0  0  0
   -3.5594   -5.1889   -1.1625 C   0  0  0  0  0  0  0  0  0  0  0  0
   -2.4973   -5.8404   -0.5478 C   0  0  0  0  0  0  0  0  0  0  0  0
   -1.3756   -5.2160   -0.1185 N   0  0  0  0  0  0  0  0  0  0  0  0
   -1.3174   -3.8738   -0.3151 C   0  0  0  0  0  0  0  0  0  0  0  0
    3.3823   -0.3444    0.7856 C   0  0  0  0  0  0  0  0  0  0  0  0
    3.5195    0.7753    1.8158 C   0  0  0  0  0  0  0  0  0  0  0  0
    4.7481    1.6418    1.5371 C   0  0  0  0  0  0  0  0  0  0  0  0
    5.0026    1.8675    0.0418 C   0  0  0  0  0  0  0  0  0  0  0  0
    3.7486    1.6387   -0.8029 C   0  0  0  0  0  0  0  0  0  0  0  0
    3.4124   -1.4216   -1.6880 H   0  0  0  0  0  0  0  0  0  0  0  0
    1.7166    0.6153   -2.1643 H   0  0  0  0  0  0  0  0  0  0  0  0
    1.0782    0.6980   -0.5032 H   0  0  0  0  0  0  0  0  0  0  0  0
    1.0240   -1.6184   -0.3959 H   0  0  0  0  0  0  0  0  0  0  0  0
    0.3785   -0.9130   -3.1959 H   0  0  0  0  0  0  0  0  0  0  0  0
    0.0808   -2.4834   -2.4962 H   0  0  0  0  0  0  0  0  0  0  0  0
   -1.0889    1.3129   -1.9179 H   0  0  0  0  0  0  0  0  0  0  0  0
   -3.6170    2.1496   -1.6528 H   0  0  0  0  0  0  0  0  0  0  0  0
   -4.6784    1.1577   -0.6411 H   0  0  0  0  0  0  0  0  0  0  0  0
   -2.6805    4.0784   -0.5871 H   0  0  0  0  0  0  0  0  0  0  0  0
   -1.9388    5.2771    1.4399 H   0  0  0  0  0  0  0  0  0  0  0  0
   -2.0446    4.1738    3.6606 H   0  0  0  0  0  0  0  0  0  0  0  0
   -2.8812    1.8488    3.8527 H   0  0  0  0  0  0  0  0  0  0  0  0
   -3.6115    0.6206    1.8346 H   0  0  0  0  0  0  0  0  0  0  0  0
   -4.2882   -3.2691   -1.8213 H   0  0  0  0  0  0  0  0  0  0  0  0
   -4.4418   -5.7371   -1.4819 H   0  0  0  0  0  0  0  0  0  0  0  0
   -2.5238   -6.9133   -0.3730 H   0  0  0  0  0  0  0  0  0  0  0  0
   -0.4119   -3.4093    0.0678 H   0  0  0  0  0  0  0  0  0  0  0  0
    4.2732   -0.9860    0.8435 H   0  0  0  0  0  0  0  0  0  0  0  0
    2.5385   -0.9833    1.0677 H   0  0  0  0  0  0  0  0  0  0  0  0
    2.6168    1.3984    1.7930 H   0  0  0  0  0  0  0  0  0  0  0  0
    3.5850    0.3602    2.8282 H   0  0  0  0  0  0  0  0  0  0  0  0
    5.6424    1.1779    1.9744 H   0  0  0  0  0  0  0  0  0  0  0  0
    4.6244    2.6056    2.0475 H   0  0  0  0  0  0  0  0  0  0  0  0
    5.3859    2.8839   -0.1174 H   0  0  0  0  0  0  0  0  0  0  0  0
    5.7920    1.1830   -0.3007 H   0  0  0  0  0  0  0  0  0  0  0  0
    3.9933    1.8366   -1.8572 H   0  0  0  0  0  0  0  0  0  0  0  0
    2.9819    2.3706   -0.5059 H   0  0  0  0  0  0  0  0  0  0  0  0
  1  2  1  0
  2  3  1  0
  3  4  1  0
  4  5  1  0
  5  6  1  0
  6  7  2  0
  7  8  1  0
  8  9  1  0
  9 10  1  0
 10 11  2  0
 11 12  1  0
 12 13  2  0
 13 14  1  0
 14 15  2  0
  8 16  1  0
 16 17  2  0
 17 18  1  0
 18 19  1  0
 19 20  2  0
 20 21  1  0
 21 22  2  0
 22 23  1  0
  2 24  1  0
 24 25  1  0
 25 26  1  0
 26 27  1  0
 27 28  1  0
 28  2  1  0
 17  6  1  0
 23 18  2  0
 15 10  1  0
  1 29  1  0
  3 30  1  0
  3 31  1  0
  4 32  1  0
  5 33  1  0
  5 34  1  0
  7 35  1  0
  9 36  1  0
  9 37  1  0
 11 38  1  0
 12 39  1  0
 13 40  1  0
 14 41  1  0
 15 42  1  0
 19 43  1  0
 20 44  1  0
 21 45  1  0
 23 46  1  0
 24 47  1  0
 24 48  1  0
 25 49  1  0
 25 50  1  0
 26 51  1  0
 26 52  1  0
 27 53  1  0
 27 54  1  0
 28 55  1  0
 28 56  1  0
M  END
$$$$
OCNT-2313058
     RDKit          3D

 44 46  0  0  0  0  0  0  0  0999 V2000
    0.0752   -0.0179    1.6354 O   0  0  0  0  0  0  0  0  0  0  0  0
   -0.1135   -0.0938    0.4274 C   0  0  0  0  0  0  0  0  0  0  0  0
   -1.5086   -0.2224   -0.1705 C   0  0  0  0  0  0  0  0  0  0  0  0
   -2.5959   -0.3100    0.9019 C   0  0  0  0  0  0  0  0  0  0  0  0
   -4.0007   -0.5721    0.3302 C   0  0  0  0  0  0  0  0  0  0  0  0
   -5.0017   -0.7972    1.4759 C   0  0  0  0  0  0  0  0  0  0  0  0
   -6.4259   -0.9697    0.9510 C   0  0  0  0  0  0  0  0  0  0  0  0
   -6.8430    0.1703    0.1334 N   0  0  0  0  0  0  0  0  0  0  0  0
   -5.9459    0.3496   -1.0076 C   0  0  0  0  0  0  0  0  0  0  0  0
   -4.4975    0.5705   -0.5692 C   0  0  0  0  0  0  0  0  0  0  0  0
    0.8575   -0.0688   -0.5623 N   0  0  0  0  0  0  0  0  0  0  0  0
    2.2527    0.0430   -0.3945 C   0  0  0  0  0  0  0  0  0  0  0  0
    2.8868    0.1485    0.8416 C   0  0  0  0  0  0  0  0  0  0  0  0
    4.2829    0.2565    0.9254 C   0  0  0  0  0  0  0  0  0  0  0  0
    5.0707    0.2604   -0.2326 C   0  0  0  0  0  0  0  0  0  0  0  0
    6.4895    0.3703   -0.1450 N   0  0  0  0  0  0  0  0  0  0  0  0
    7.2543    0.4820    0.9979 C   0  0  0  0  0  0  0  0  0  0  0  0
    8.5621    0.5596    0.5814 C   0  0  0  0  0  0  0  0  0  0  0  0
    8.6410    0.5005   -0.7785 N   0  0  0  0  0  0  0  0  0  0  0  0
    7.3954    0.3881   -1.1859 C   0  0  0  0  0  0  0  0  0  0  0  0
    4.4347    0.1542   -1.4758 C   0  0  0  0  0  0  0  0  0  0  0  0
    3.0391    0.0467   -1.5511 C   0  0  0  0  0  0  0  0  0  0  0  0
   -1.5322   -1.1228   -0.7955 H   0  0  0  0  0  0  0  0  0  0  0  0
   -1.6757    0.6504   -0.8111 H   0  0  0  0  0  0  0  0  0  0  0  0
   -2.6000    0.6146    1.4937 H   0  0  0  0  0  0  0  0  0  0  0  0
   -2.3419   -1.1193    1.5992 H   0  0  0  0  0  0  0  0  0  0  0  0
   -3.9630   -1.4910   -0.2709 H   0  0  0  0  0  0  0  0  0  0  0  0
   -4.9706    0.0520    2.1713 H   0  0  0  0  0  0  0  0  0  0  0  0
   -4.7180   -1.6876    2.0497 H   0  0  0  0  0  0  0  0  0  0  0  0
   -7.1157   -1.0690    1.7964 H   0  0  0  0  0  0  0  0  0  0  0  0
   -6.5086   -1.8958    0.3693 H   0  0  0  0  0  0  0  0  0  0  0  0
   -6.8225    1.0133    0.7082 H   0  0  0  0  0  0  0  0  0  0  0  0
   -6.0124   -0.5200   -1.6728 H   0  0  0  0  0  0  0  0  0  0  0  0
   -6.2842    1.2137   -1.5901 H   0  0  0  0  0  0  0  0  0  0  0  0
   -4.4193    1.5264   -0.0351 H   0  0  0  0  0  0  0  0  0  0  0  0
   -3.8710    0.6520   -1.4643 H   0  0  0  0  0  0  0  0  0  0  0  0
    0.5305   -0.1389   -1.5177 H   0  0  0  0  0  0  0  0  0  0  0  0
    2.3259    0.1506    1.7715 H   0  0  0  0  0  0  0  0  0  0  0  0
    4.7113    0.3354    1.9202 H   0  0  0  0  0  0  0  0  0  0  0  0
    6.8371    0.4985    1.9924 H   0  0  0  0  0  0  0  0  0  0  0  0
    9.4488    0.6552    1.1949 H   0  0  0  0  0  0  0  0  0  0  0  0
    7.1078    0.3170   -2.2246 H   0  0  0  0  0  0  0  0  0  0  0  0
    4.9838    0.1508   -2.4124 H   0  0  0  0  0  0  0  0  0  0  0  0
    2.5808   -0.0339   -2.5340 H   0  0  0  0  0  0  0  0  0  0  0  0
  1  2  2  0
  2  3  1  0
  3  4  1  0
  4  5  1  0
  5  6  1  0
  6  7  1  0
  7  8  1  0
  8  9  1  0
  9 10  1  0
  2 11  1  0
 11 12  1  0
 12 13  1  0
 13 14  2  0
 14 15  1  0
 15 16  1  0
 16 17  1  0
 17 18  2  0
 18 19  1  0
 19 20  2  0
 15 21  2  0
 21 22  1  0
 10  5  1  0
 22 12  2  0
 20 16  1  0
  3 23  1  0
  3 24  1  0
  4 25  1  0
  4 26  1  0
  5 27  1  0
  6 28  1  0
  6 29  1  0
  7 30  1  0
  7 31  1  0
  8 32  1  0
  9 33  1  0
  9 34  1  0
 10 35  1  0
 10 36  1  0
 11 37  1  0
 13 38  1  0
 14 39  1  0
 17 40  1  0
 18 41  1  0
 20 42  1  0
 21 43  1  0
 22 44  1  0
M  END
$$$$
OCNT-2313062
     RDKit          3D

 45 47  0  0  0  0  0  0  0  0999 V2000
   -4.9474   -0.4068   -1.7323 C   0  0  0  0  0  0  0  0  0  0  0  0
   -4.4814    0.9758   -1.2659 C   0  0  0  0  0  0  0  0  0  0  0  0
   -5.1482    1.3894    0.0514 C   0  0  0  0  0  0  0  0  0  0  0  0
   -4.6118    0.5918    1.2356 C   0  0  0  0  0  0  0  0  0  0  0  0
   -3.0897    0.6512    1.3097 C   0  0  0  0  0  0  0  0  0  0  0  0
   -2.4554    0.3049    0.0359 N   0  0  0  0  0  0  0  0  0  0  0  0
   -1.1683   -0.2324   -0.0494 C   0  0  0  0  0  0  0  0  0  0  0  0
   -0.5110   -0.1986   -1.0915 O   0  0  0  0  0  0  0  0  0  0  0  0
   -0.6044   -0.8689    1.2091 C   0  0  0  0  0  0  0  0  0  0  0  0
    0.7270   -1.5806    0.9664 C   0  0  0  0  0  0  0  0  0  0  0  0
    1.7810   -0.6090    0.6681 N   0  0  0  0  0  0  0  0  0  0  0  0
    3.1175   -1.0334    0.4986 C   0  0  0  0  0  0  0  0  0  0  0  0
    3.5529   -2.2986    0.8954 C   0  0  0  0  0  0  0  0  0  0  0  0
    4.8835   -2.6356    0.7320 C   0  0  0  0  0  0  0  0  0  0  0  0
    5.8156   -1.8071    0.2270 N   0  0  0  0  0  0  0  0  0  0  0  0
    5.4302   -0.5713   -0.1177 C   0  0  0  0  0  0  0  0  0  0  0  0
    6.3992    0.2887   -0.6086 C   0  0  0  0  0  0  0  0  0  0  0  0
    6.0850    1.5920   -0.9682 C   0  0  0  0  0  0  0  0  0  0  0  0
    7.0464    2.3989   -1.4362 F   0  0  0  0  0  0  0  0  0  0  0  0
    4.7942    2.0725   -0.8429 C   0  0  0  0  0  0  0  0  0  0  0  0
    3.8028    1.2240   -0.3548 C   0  0  0  0  0  0  0  0  0  0  0  0
    4.0932   -0.1162    0.0079 C   0  0  0  0  0  0  0  0  0  0  0  0
   -2.9537    1.0266   -1.1372 C   0  0  0  0  0  0  0  0  0  0  0  0
   -4.5291   -0.6390   -2.7178 H   0  0  0  0  0  0  0  0  0  0  0  0
   -6.0385   -0.4385   -1.8194 H   0  0  0  0  0  0  0  0  0  0  0  0
   -4.6386   -1.2018   -1.0466 H   0  0  0  0  0  0  0  0  0  0  0  0
   -4.7828    1.6934   -2.0400 H   0  0  0  0  0  0  0  0  0  0  0  0
   -6.2358    1.2704   -0.0151 H   0  0  0  0  0  0  0  0  0  0  0  0
   -4.9588    2.4562    0.2271 H   0  0  0  0  0  0  0  0  0  0  0  0
   -4.9325   -0.4532    1.1515 H   0  0  0  0  0  0  0  0  0  0  0  0
   -5.0410    0.9785    2.1669 H   0  0  0  0  0  0  0  0  0  0  0  0
   -2.7537   -0.0092    2.1122 H   0  0  0  0  0  0  0  0  0  0  0  0
   -2.7587    1.6646    1.5678 H   0  0  0  0  0  0  0  0  0  0  0  0
   -1.3256   -1.6104    1.5708 H   0  0  0  0  0  0  0  0  0  0  0  0
   -0.4726   -0.0900    1.9686 H   0  0  0  0  0  0  0  0  0  0  0  0
    0.9713   -2.1275    1.8842 H   0  0  0  0  0  0  0  0  0  0  0  0
    0.6332   -2.3011    0.1450 H   0  0  0  0  0  0  0  0  0  0  0  0
    1.5030   -0.0589   -0.1527 H   0  0  0  0  0  0  0  0  0  0  0  0
    2.8853   -3.0382    1.3170 H   0  0  0  0  0  0  0  0  0  0  0  0
    5.2470   -3.6191    1.0165 H   0  0  0  0  0  0  0  0  0  0  0  0
    7.4234   -0.0566   -0.7099 H   0  0  0  0  0  0  0  0  0  0  0  0
    4.5663    3.0964   -1.1199 H   0  0  0  0  0  0  0  0  0  0  0  0
    2.7962    1.6203   -0.2472 H   0  0  0  0  0  0  0  0  0  0  0  0
   -2.6220    2.0675   -1.0316 H   0  0  0  0  0  0  0  0  0  0  0  0
   -2.4930    0.6388   -2.0528 H   0  0  0  0  0  0  0  0  0  0  0  0
  1  2  1  0
  2  3  1  0
  3  4  1  0
  4  5  1  0
  5  6  1  0
  6  7  1  0
  7  8  2  0
  7  9  1  0
  9 10  1  0
 10 11  1  0
 11 12  1  0
 12 13  2  0
 13 14  1  0
 14 15  2  0
 15 16  1  0
 16 17  2  0
 17 18  1  0
 18 19  1  0
 18 20  2  0
 20 21  1  0
 21 22  2  0
  6 23  1  0
 23  2  1  0
 22 12  1  0
 22 16  1  0
  1 24  1  0
  1 25  1  0
  1 26  1  0
  2 27  1  0
  3 28  1  0
  3 29  1  0
  4 30  1  0
  4 31  1  0
  5 32  1  0
  5 33  1  0
  9 34  1  0
  9 35  1  0
 10 36  1  0
 10 37  1  0
 11 38  1  0
 13 39  1  0
 14 40  1  0
 17 41  1  0
 20 42  1  0
 21 43  1  0
 23 44  1  0
 23 45  1  0
M  END
$$$$
OCNT-2313080
     RDKit          3D

 43 45  0  0  0  0  0  0  0  0999 V2000
    3.2176   -3.1670    0.9623 C   0  0  0  0  0  0  0  0  0  0  0  0
    2.6816   -2.8489   -0.4209 C   0  0  0  0  0  0  0  0  0  0  0  0
    2.2336   -1.4897   -0.4220 O   0  0  0  0  0  0  0  0  0  0  0  0
    1.8875   -1.0219   -1.6478 C   0  0  0  0  0  0  0  0  0  0  0  0
    2.0091   -1.6005   -2.7147 O   0  0  0  0  0  0  0  0  0  0  0  0
    1.4322    0.3691   -1.5356 C   0  0  0  0  0  0  0  0  0  0  0  0
    2.1263    1.3112   -2.2688 C   0  0  0  0  0  0  0  0  0  0  0  0
    1.8336    2.6288   -2.2632 N   0  0  0  0  0  0  0  0  0  0  0  0
    0.7957    3.0375   -1.5227 C   0  0  0  0  0  0  0  0  0  0  0  0
    0.5136    4.3982   -1.5296 C   0  0  0  0  0  0  0  0  0  0  0  0
   -0.5501    4.9339   -0.8056 C   0  0  0  0  0  0  0  0  0  0  0  0
   -1.3480    4.0840   -0.0623 C   0  0  0  0  0  0  0  0  0  0  0  0
   -2.3758    4.5789    0.6430 F   0  0  0  0  0  0  0  0  0  0  0  0
   -1.0917    2.7186   -0.0295 C   0  0  0  0  0  0  0  0  0  0  0  0
   -0.0105    2.1551   -0.7521 C   0  0  0  0  0  0  0  0  0  0  0  0
    0.3257    0.7662   -0.7611 C   0  0  0  0  0  0  0  0  0  0  0  0
   -0.3879   -0.2199   -0.0624 N   0  0  0  0  0  0  0  0  0  0  0  0
   -1.7234   -0.5698   -0.5716 C   0  0  0  0  0  0  0  0  0  0  0  0
   -2.2104   -1.8900    0.0762 C   0  0  0  0  0  0  0  0  0  0  0  0
   -2.1386   -1.9381    1.5558 N   0  0  0  0  0  0  0  0  0  0  0  0
   -3.1547   -1.0889    2.1726 C   0  0  0  0  0  0  0  0  0  0  0  0
   -0.7716   -1.5606    1.9844 C   0  0  0  0  0  0  0  0  0  0  0  0
   -0.2391   -0.2282    1.4016 C   0  0  0  0  0  0  0  0  0  0  0  0
    4.0663   -2.5136    1.2014 H   0  0  0  0  0  0  0  0  0  0  0  0
    2.4567   -2.9906    1.7310 H   0  0  0  0  0  0  0  0  0  0  0  0
    3.5468   -4.2077    1.0203 H   0  0  0  0  0  0  0  0  0  0  0  0
    3.4795   -2.9878   -1.1603 H   0  0  0  0  0  0  0  0  0  0  0  0
    1.8379   -3.5071   -0.6589 H   0  0  0  0  0  0  0  0  0  0  0  0
    2.9675    1.0301   -2.8962 H   0  0  0  0  0  0  0  0  0  0  0  0
    1.1454    5.0628   -2.1165 H   0  0  0  0  0  0  0  0  0  0  0  0
   -0.7542    5.9994   -0.8221 H   0  0  0  0  0  0  0  0  0  0  0  0
   -1.7527    2.1054    0.5731 H   0  0  0  0  0  0  0  0  0  0  0  0
   -1.6880   -0.7113   -1.6591 H   0  0  0  0  0  0  0  0  0  0  0  0
   -2.4477    0.2249   -0.3674 H   0  0  0  0  0  0  0  0  0  0  0  0
   -1.5922   -2.7115   -0.3108 H   0  0  0  0  0  0  0  0  0  0  0  0
   -3.2325   -2.1074   -0.2566 H   0  0  0  0  0  0  0  0  0  0  0  0
   -3.0516   -0.0298    1.9168 H   0  0  0  0  0  0  0  0  0  0  0  0
   -4.1563   -1.4130    1.8704 H   0  0  0  0  0  0  0  0  0  0  0  0
   -3.1142   -1.1813    3.2637 H   0  0  0  0  0  0  0  0  0  0  0  0
   -0.7147   -1.5318    3.0804 H   0  0  0  0  0  0  0  0  0  0  0  0
   -0.0930   -2.3675    1.6758 H   0  0  0  0  0  0  0  0  0  0  0  0
    0.8168   -0.1292    1.6766 H   0  0  0  0  0  0  0  0  0  0  0  0
   -0.7743    0.6092    1.8577 H   0  0  0  0  0  0  0  0  0  0  0  0
  1  2  1  0
  2  3  1  0
  3  4  1  0
  4  5  2  0
  4  6  1  0
  6  7  1  0
  7  8  2  0
  8  9  1  0
  9 10  2  0
 10 11  1  0
 11 12  2  0
 12 13  1  0
 12 14  1  0
 14 15  2  0
 15 16  1  0
 16 17  1  0
 17 18  1  0
 18 19  1  0
 19 20  1  0
 20 21  1  0
 20 22  1  0
 22 23  1  0
 16  6  2  0
 23 17  1  0
 15  9  1  0
  1 24  1  0
  1 25  1  0
  1 26  1  0
  2 27  1  0
  2 28  1  0
  7 29  1  0
 10 30  1  0
 11 31  1  0
 14 32  1  0
 18 33  1  0
 18 34  1  0
 19 35  1  0
 19 36  1  0
 21 37  1  0
 21 38  1  0
 21 39  1  0
 22 40  1  0
 22 41  1  0
 23 42  1  0
 23 43  1  0
M  END
$$$$
OCNT-2313085
     RDKit          3D

 47 49  0  0  0  0  0  0  0  0999 V2000
    1.9370   -0.7114   -0.8901 O   0  0  0  0  0  0  0  0  0  0  0  0
    2.1210    0.4645   -0.0961 C   0  0  0  0  0  0  0  0  0  0  0  0
    3.4056    0.3057    0.7266 C   0  0  0  0  0  0  0  0  0  0  0  0
    4.6808    0.3360   -0.1160 C   0  0  0  0  0  0  0  0  0  0  0  0
    4.8849   -0.8410   -1.0557 C   0  0  0  0  0  0  0  0  0  0  0  0
    6.3863   -0.8620   -1.1972 C   0  0  0  0  0  0  0  0  0  0  0  0
    6.8382   -0.5070    0.2019 C   0  0  0  0  0  0  0  0  0  0  0  0
    5.8185    0.3258    0.7731 O   0  0  0  0  0  0  0  0  0  0  0  0
    0.9010    0.6986    0.8385 C   0  0  0  0  0  0  0  0  0  0  0  0
   -0.3048    1.2101    0.1609 N   0  0  0  0  0  0  0  0  0  0  0  0
   -1.3676    1.5767    1.1214 C   0  0  0  0  0  0  0  0  0  0  0  0
   -2.4863    0.5278    1.3285 C   0  0  0  0  0  0  0  0  0  0  0  0
   -3.1129    0.1446    0.0520 N   0  0  0  0  0  0  0  0  0  0  0  0
   -4.4671   -0.1667   -0.0129 C   0  0  0  0  0  0  0  0  0  0  0  0
   -5.1270   -0.7277    1.0972 C   0  0  0  0  0  0  0  0  0  0  0  0
   -6.4871   -1.0668    1.0670 C   0  0  0  0  0  0  0  0  0  0  0  0
   -7.2348   -0.8577   -0.0854 C   0  0  0  0  0  0  0  0  0  0  0  0
   -6.6178   -0.3133   -1.2047 C   0  0  0  0  0  0  0  0  0  0  0  0
   -5.2609    0.0203   -1.1641 C   0  0  0  0  0  0  0  0  0  0  0  0
   -4.7410    0.5625   -2.2779 F   0  0  0  0  0  0  0  0  0  0  0  0
   -2.3327    0.4289   -1.1652 C   0  0  0  0  0  0  0  0  0  0  0  0
   -0.8194    0.2851   -0.8740 C   0  0  0  0  0  0  0  0  0  0  0  0
    1.7157   -1.4440   -0.2899 H   0  0  0  0  0  0  0  0  0  0  0  0
    2.2273    1.3163   -0.7779 H   0  0  0  0  0  0  0  0  0  0  0  0
    3.4740    1.1107    1.4698 H   0  0  0  0  0  0  0  0  0  0  0  0
    3.3770   -0.6307    1.2992 H   0  0  0  0  0  0  0  0  0  0  0  0
    4.7320    1.2776   -0.6771 H   0  0  0  0  0  0  0  0  0  0  0  0
    4.3711   -0.7201   -2.0131 H   0  0  0  0  0  0  0  0  0  0  0  0
    4.5472   -1.7764   -0.5937 H   0  0  0  0  0  0  0  0  0  0  0  0
    6.7042   -0.0845   -1.9020 H   0  0  0  0  0  0  0  0  0  0  0  0
    6.7828   -1.8199   -1.5439 H   0  0  0  0  0  0  0  0  0  0  0  0
    7.7952    0.0222    0.2125 H   0  0  0  0  0  0  0  0  0  0  0  0
    6.9265   -1.4007    0.8286 H   0  0  0  0  0  0  0  0  0  0  0  0
    0.6614   -0.2291    1.3745 H   0  0  0  0  0  0  0  0  0  0  0  0
    1.2000    1.4435    1.5866 H   0  0  0  0  0  0  0  0  0  0  0  0
   -1.8356    2.4931    0.7369 H   0  0  0  0  0  0  0  0  0  0  0  0
   -0.9468    1.8562    2.0952 H   0  0  0  0  0  0  0  0  0  0  0  0
   -3.2211    0.9702    2.0123 H   0  0  0  0  0  0  0  0  0  0  0  0
   -2.0719   -0.3668    1.8081 H   0  0  0  0  0  0  0  0  0  0  0  0
   -4.5782   -0.9385    2.0114 H   0  0  0  0  0  0  0  0  0  0  0  0
   -6.9541   -1.5017    1.9473 H   0  0  0  0  0  0  0  0  0  0  0  0
   -8.2888   -1.1196   -0.1126 H   0  0  0  0  0  0  0  0  0  0  0  0
   -7.1791   -0.1387   -2.1171 H   0  0  0  0  0  0  0  0  0  0  0  0
   -2.5808   -0.2894   -1.9557 H   0  0  0  0  0  0  0  0  0  0  0  0
   -2.5512    1.4402   -1.5290 H   0  0  0  0  0  0  0  0  0  0  0  0
   -0.6524   -0.7560   -0.5666 H   0  0  0  0  0  0  0  0  0  0  0  0
   -0.2682    0.4532   -1.8059 H   0  0  0  0  0  0  0  0  0  0  0  0
  1  2  1  0
  2  3  1  0
  3  4  1  0
  4  5  1  0
  5  6  1  0
  6  7  1  0
  7  8  1  0
  2  9  1  0
  9 10  1  0
 10 11  1  0
 11 12  1  0
 12 13  1  0
 13 14  1  0
 14 15  2  0
 15 16  1  0
 16 17  2  0
 17 18  1  0
 18 19  2  0
 19 20  1  0
 13 21  1  0
 21 22  1  0
  8  4  1  0
 22 10  1  0
 19 14  1  0
  1 23  1  0
  2 24  1  0
  3 25  1  0
  3 26  1  0
  4 27  1  0
  5 28  1  0
  5 29  1  0
  6 30  1  0
  6 31  1  0
  7 32  1  0
  7 33  1  0
  9 34  1  0
  9 35  1  0
 11 36  1  0
 11 37  1  0
 12 38  1  0
 12 39  1  0
 15 40  1  0
 16 41  1  0
 17 42  1  0
 18 43  1  0
 21 44  1  0
 21 45  1  0
 22 46  1  0
 22 47  1  0
M  END
$$$$
OCNT-2313088
     RDKit          3D

 45 48  0  0  0  0  0  0  0  0999 V2000
    6.4029    1.4560    2.2638 C   0  0  0  0  0  0  0  0  0  0  0  0
    6.5806    1.0586    0.8085 C   0  0  0  0  0  0  0  0  0  0  0  0
    6.1845   -0.3112    0.5556 N   0  0  0  0  0  0  0  0  0  0  0  0
    7.1307   -1.2701    0.5687 N   0  0  0  0  0  0  0  0  0  0  0  0
    6.5419   -2.4224    0.2988 N   0  0  0  0  0  0  0  0  0  0  0  0
    5.2149   -2.1774    0.1112 C   0  0  0  0  0  0  0  0  0  0  0  0
    4.9399   -0.8314    0.2754 C   0  0  0  0  0  0  0  0  0  0  0  0
    3.7091   -0.0749    0.1981 C   0  0  0  0  0  0  0  0  0  0  0  0
    3.6897    1.1315    0.4088 O   0  0  0  0  0  0  0  0  0  0  0  0
    2.5907   -0.8288   -0.1191 N   0  0  0  0  0  0  0  0  0  0  0  0
    1.2625   -0.3796   -0.2907 C   0  0  0  0  0  0  0  0  0  0  0  0
    0.2970   -1.3511   -0.5866 C   0  0  0  0  0  0  0  0  0  0  0  0
   -1.0443   -0.9971   -0.7760 C   0  0  0  0  0  0  0  0  0  0  0  0
   -1.4465    0.3364   -0.6678 C   0  0  0  0  0  0  0  0  0  0  0  0
   -2.8367    0.7421   -0.8713 C   0  0  0  0  0  0  0  0  0  0  0  0
   -3.2311    1.6807   -1.7154 N   0  0  0  0  0  0  0  0  0  0  0  0
   -4.5949    1.7527   -1.6093 C   0  0  0  0  0  0  0  0  0  0  0  0
   -5.0561    0.8672   -0.6654 C   0  0  0  0  0  0  0  0  0  0  0  0
   -6.4164    0.5838   -0.1359 C   0  0  0  0  0  0  0  0  0  0  0  0
   -6.4500   -0.7092    0.6822 C   0  0  0  0  0  0  0  0  0  0  0  0
   -5.2540   -0.7838    1.6330 C   0  0  0  0  0  0  0  0  0  0  0  0
   -3.9405   -0.7653    0.8510 C   0  0  0  0  0  0  0  0  0  0  0  0
   -3.9262    0.2427   -0.1922 N   0  0  0  0  0  0  0  0  0  0  0  0
   -0.4789    1.3073   -0.3938 C   0  0  0  0  0  0  0  0  0  0  0  0
    0.8627    0.9530   -0.1991 C   0  0  0  0  0  0  0  0  0  0  0  0
    6.7187    2.4931    2.4122 H   0  0  0  0  0  0  0  0  0  0  0  0
    7.0026    0.8170    2.9211 H   0  0  0  0  0  0  0  0  0  0  0  0
    5.3588    1.3676    2.5795 H   0  0  0  0  0  0  0  0  0  0  0  0
    6.0156    1.7156    0.1398 H   0  0  0  0  0  0  0  0  0  0  0  0
    7.6348    1.1567    0.5237 H   0  0  0  0  0  0  0  0  0  0  0  0
    4.5451   -2.9901   -0.1257 H   0  0  0  0  0  0  0  0  0  0  0  0
    2.7242   -1.8201   -0.2473 H   0  0  0  0  0  0  0  0  0  0  0  0
    0.5715   -2.3980   -0.6859 H   0  0  0  0  0  0  0  0  0  0  0  0
   -1.7629   -1.7699   -1.0350 H   0  0  0  0  0  0  0  0  0  0  0  0
   -5.1683    2.4468   -2.2095 H   0  0  0  0  0  0  0  0  0  0  0  0
   -7.1382    0.5169   -0.9584 H   0  0  0  0  0  0  0  0  0  0  0  0
   -6.7260    1.4229    0.4987 H   0  0  0  0  0  0  0  0  0  0  0  0
   -7.3869   -0.7642    1.2468 H   0  0  0  0  0  0  0  0  0  0  0  0
   -6.4313   -1.5750    0.0101 H   0  0  0  0  0  0  0  0  0  0  0  0
   -5.2865    0.0663    2.3264 H   0  0  0  0  0  0  0  0  0  0  0  0
   -5.3078   -1.6953    2.2381 H   0  0  0  0  0  0  0  0  0  0  0  0
   -3.7921   -1.7301    0.3532 H   0  0  0  0  0  0  0  0  0  0  0  0
   -3.1000   -0.5793    1.5260 H   0  0  0  0  0  0  0  0  0  0  0  0
   -0.7671    2.3556   -0.3367 H   0  0  0  0  0  0  0  0  0  0  0  0
    1.5643    1.7539    0.0107 H   0  0  0  0  0  0  0  0  0  0  0  0
  1  2  1  0
  2  3  1  0
  3  4  1  0
  4  5  2  0
  5  6  1  0
  6  7  2  0
  7  8  1  0
  8  9  2  0
  8 10  1  0
 10 11  1  0
 11 12  1  0
 12 13  2  0
 13 14  1  0
 14 15  1  0
 15 16  2  0
 16 17  1  0
 17 18  2  0
 18 19  1  0
 19 20  1  0
 20 21  1  0
 21 22  1  0
 22 23  1  0
 14 24  2  0
 24 25  1  0
  7  3  1  0
 25 11  2  0
 23 15  1  0
 23 18  1  0
  1 26  1  0
  1 27  1  0
  1 28  1  0
  2 29  1  0
  2 30  1  0
  6 31  1  0
 10 32  1  0
 12 33  1  0
 13 34  1  0
 17 35  1  0
 19 36  1  0
 19 37  1  0
 20 38  1  0
 20 39  1  0
 21 40  1  0
 21 41  1  0
 22 42  1  0
 22 43  1  0
 24 44  1  0
 25 45  1  0
M  END
$$$$
OCNT-2313093
     RDKit          3D

 40 42  0  0  0  0  0  0  0  0999 V2000
   -0.3410   -3.6091   -0.7643 C   0  0  0  0  0  0  0  0  0  0  0  0
   -0.4134   -2.2834   -0.0695 C   0  0  0  0  0  0  0  0  0  0  0  0
    0.5980   -1.8857    0.7743 C   0  0  0  0  0  0  0  0  0  0  0  0
    0.4510   -0.6434    1.3515 C   0  0  0  0  0  0  0  0  0  0  0  0
    1.5231   -0.0792    2.2614 C   0  0  0  0  0  0  0  0  0  0  0  0
    2.0545    1.1805    1.7291 N   0  0  0  0  0  0  0  0  0  0  0  0
    2.9679    1.0490    0.6743 C   0  0  0  0  0  0  0  0  0  0  0  0
    3.3864    2.2058    0.0200 C   0  0  0  0  0  0  0  0  0  0  0  0
    4.3172    2.1208   -1.0160 C   0  0  0  0  0  0  0  0  0  0  0  0
    4.8226    0.8775   -1.3756 C   0  0  0  0  0  0  0  0  0  0  0  0
    5.9658    0.7822   -2.6593 Cl  0  0  0  0  0  0  0  0  0  0  0  0
    4.3736   -0.2295   -0.6683 C   0  0  0  0  0  0  0  0  0  0  0  0
    4.8250   -1.5608   -0.9611 C   0  0  0  0  0  0  0  0  0  0  0  0
    5.1805   -2.6424   -1.1961 N   0  0  0  0  0  0  0  0  0  0  0  0
    3.4704   -0.1579    0.3499 N   0  0  0  0  0  0  0  0  0  0  0  0
   -0.6211    0.1493    1.1096 N   0  0  0  0  0  0  0  0  0  0  0  0
   -1.5706   -0.3124    0.2809 C   0  0  0  0  0  0  0  0  0  0  0  0
   -2.6519    0.4866    0.0134 N   0  0  0  0  0  0  0  0  0  0  0  0
   -3.0036    1.5734    0.9120 C   0  0  0  0  0  0  0  0  0  0  0  0
   -4.5271    1.6718    0.7957 C   0  0  0  0  0  0  0  0  0  0  0  0
   -4.8273    1.0643   -0.5671 C   0  0  0  0  0  0  0  0  0  0  0  0
   -3.8123   -0.0718   -0.6557 C   0  0  0  0  0  0  0  0  0  0  0  0
   -1.4913   -1.5122   -0.3177 N   0  0  0  0  0  0  0  0  0  0  0  0
   -1.2274   -3.7727   -1.3858 H   0  0  0  0  0  0  0  0  0  0  0  0
    0.5409   -3.6493   -1.4113 H   0  0  0  0  0  0  0  0  0  0  0  0
   -0.2862   -4.4191   -0.0303 H   0  0  0  0  0  0  0  0  0  0  0  0
    1.4701   -2.5019    0.9529 H   0  0  0  0  0  0  0  0  0  0  0  0
    1.0494    0.1389    3.2264 H   0  0  0  0  0  0  0  0  0  0  0  0
    2.3153   -0.8070    2.4763 H   0  0  0  0  0  0  0  0  0  0  0  0
    1.2656    1.7494    1.4171 H   0  0  0  0  0  0  0  0  0  0  0  0
    2.9935    3.1741    0.3167 H   0  0  0  0  0  0  0  0  0  0  0  0
    4.6380    3.0240   -1.5281 H   0  0  0  0  0  0  0  0  0  0  0  0
   -2.5290    2.5006    0.5725 H   0  0  0  0  0  0  0  0  0  0  0  0
   -2.7234    1.3938    1.9563 H   0  0  0  0  0  0  0  0  0  0  0  0
   -4.8883    2.6995    0.8928 H   0  0  0  0  0  0  0  0  0  0  0  0
   -4.9992    1.0698    1.5818 H   0  0  0  0  0  0  0  0  0  0  0  0
   -5.8591    0.7145   -0.6594 H   0  0  0  0  0  0  0  0  0  0  0  0
   -4.6395    1.8032   -1.3555 H   0  0  0  0  0  0  0  0  0  0  0  0
   -3.6071   -0.3374   -1.6980 H   0  0  0  0  0  0  0  0  0  0  0  0
   -4.1899   -0.9537   -0.1235 H   0  0  0  0  0  0  0  0  0  0  0  0
  1  2  1  0
  2  3  2  0
  3  4  1  0
  4  5  1  0
  5  6  1  0
  6  7  1  0
  7  8  2  0
  8  9  1  0
  9 10  2  0
 10 11  1  0
 10 12  1  0
 12 13  1  0
 13 14  3  0
 12 15  2  0
  4 16  2  0
 16 17  1  0
 17 18  1  0
 18 19  1  0
 19 20  1  0
 20 21  1  0
 21 22  1  0
 17 23  2  0
 23  2  1  0
 15  7  1  0
 22 18  1  0
  1 24  1  0
  1 25  1  0
  1 26  1  0
  3 27  1  0
  5 28  1  0
  5 29  1  0
  6 30  1  0
  8 31  1  0
  9 32  1  0
 19 33  1  0
 19 34  1  0
 20 35  1  0
 20 36  1  0
 21 37  1  0
 21 38  1  0
 22 39  1  0
 22 40  1  0
M  END
$$$$
OCNT-2313100
     RDKit          3D

 44 46  0  0  0  0  0  0  0  0999 V2000
    6.6269    2.4680    0.3275 C   0  0  0  0  0  0  0  0  0  0  0  0
    5.5519    1.6278   -0.0894 O   0  0  0  0  0  0  0  0  0  0  0  0
    5.7307    0.3123    0.2116 C   0  0  0  0  0  0  0  0  0  0  0  0
    6.7063   -0.1556    0.7847 O   0  0  0  0  0  0  0  0  0  0  0  0
    4.6025   -0.4628   -0.2415 C   0  0  0  0  0  0  0  0  0  0  0  0
    3.4403   -0.0897   -0.8959 C   0  0  0  0  0  0  0  0  0  0  0  0
    2.6442   -1.2527   -1.1101 C   0  0  0  0  0  0  0  0  0  0  0  0
    1.3097   -1.3119   -1.7863 C   0  0  0  0  0  0  0  0  0  0  0  0
    0.2501   -1.5101   -0.7927 N   0  0  0  0  0  0  0  0  0  0  0  0
   -0.1186   -0.2395   -0.1523 C   0  0  2  0  0  0  0  0  0  0  0  0
   -1.2128   -0.5239    0.8983 C   0  0  0  0  0  0  0  0  0  0  0  0
   -2.2920   -0.3311   -0.2102 C   0  0  1  0  0  0  0  0  0  0  0  0
   -3.6732    0.3753    0.1834 C   0  0  0  0  0  0  0  0  0  0  0  0
   -4.1080    1.5485   -0.4736 C   0  0  0  0  0  0  0  0  0  0  0  0
   -5.3039    2.1946   -0.1501 C   0  0  0  0  0  0  0  0  0  0  0  0
   -6.1181    1.6816    0.8481 C   0  0  0  0  0  0  0  0  0  0  0  0
   -5.7402    0.5183    1.5097 C   0  0  0  0  0  0  0  0  0  0  0  0
   -4.5435   -0.1441    1.1781 C   0  0  0  0  0  0  0  0  0  0  0  0
   -4.1929   -1.4018    1.9293 C   0  0  0  0  0  0  0  0  0  0  0  0
   -1.2033    0.4692   -0.9902 C   0  0  0  0  0  0  0  0  0  0  0  0
    3.3610   -2.3107   -0.5818 C   0  0  0  0  0  0  0  0  0  0  0  0
    4.5302   -1.8256   -0.0610 N   0  0  0  0  0  0  0  0  0  0  0  0
    6.7438    2.4312    1.4152 H   0  0  0  0  0  0  0  0  0  0  0  0
    7.5565    2.1792   -0.1730 H   0  0  0  0  0  0  0  0  0  0  0  0
    6.3851    3.4952    0.0407 H   0  0  0  0  0  0  0  0  0  0  0  0
    3.1858    0.9225   -1.1874 H   0  0  0  0  0  0  0  0  0  0  0  0
    1.3000   -2.1658   -2.4740 H   0  0  0  0  0  0  0  0  0  0  0  0
    1.1370   -0.4194   -2.3989 H   0  0  0  0  0  0  0  0  0  0  0  0
    0.5692   -2.2217   -0.1357 H   0  0  0  0  0  0  0  0  0  0  0  0
    0.7067    0.3800    0.2080 H   0  0  0  0  0  0  0  0  0  0  0  0
   -1.2525    0.2390    1.6868 H   0  0  0  0  0  0  0  0  0  0  0  0
   -1.1923   -1.5057    1.3821 H   0  0  0  0  0  0  0  0  0  0  0  0
   -2.5096   -1.2816   -0.7234 H   0  0  0  0  0  0  0  0  0  0  0  0
   -3.4974    1.9745   -1.2673 H   0  0  0  0  0  0  0  0  0  0  0  0
   -5.5934    3.0973   -0.6810 H   0  0  0  0  0  0  0  0  0  0  0  0
   -7.0471    2.1808    1.1079 H   0  0  0  0  0  0  0  0  0  0  0  0
   -6.3889    0.1208    2.2874 H   0  0  0  0  0  0  0  0  0  0  0  0
   -3.4451   -1.1847    2.6977 H   0  0  0  0  0  0  0  0  0  0  0  0
   -3.8105   -2.1697    1.2497 H   0  0  0  0  0  0  0  0  0  0  0  0
   -5.0735   -1.8281    2.4223 H   0  0  0  0  0  0  0  0  0  0  0  0
   -1.2167    1.5512   -0.8078 H   0  0  0  0  0  0  0  0  0  0  0  0
   -1.1915    0.3116   -2.0732 H   0  0  0  0  0  0  0  0  0  0  0  0
    3.1357   -3.3683   -0.5347 H   0  0  0  0  0  0  0  0  0  0  0  0
    5.2512   -2.3744    0.3924 H   0  0  0  0  0  0  0  0  0  0  0  0
  1  2  1  0
  2  3  1  0
  3  4  2  0
  3  5  1  0
  5  6  2  0
  6  7  1  0
  7  8  1  0
  8  9  1  0
  9 10  1  0
 10 11  1  0
 11 12  1  0
 12 13  1  0
 13 14  2  0
 14 15  1  0
 15 16  2  0
 16 17  1  0
 17 18  2  0
 18 19  1  0
 12 20  1  0
  7 21  2  0
 21 22  1  0
 22  5  1  0
 20 10  1  0
 18 13  1  0
  1 23  1  0
  1 24  1  0
  1 25  1  0
  6 26  1  0
  8 27  1  0
  8 28  1  0
  9 29  1  0
 10 30  1  1
 11 31  1  0
 11 32  1  0
 12 33  1  6
 14 34  1  0
 15 35  1  0
 16 36  1  0
 17 37  1  0
 19 38  1  0
 19 39  1  0
 19 40  1  0
 20 41  1  0
 20 42  1  0
 21 43  1  0
 22 44  1  0
M  END
$$$$
OCNT-2313101
     RDKit          3D

 42 44  0  0  0  0  0  0  0  0999 V2000
   -2.4260    1.6358    2.2055 O   0  0  0  0  0  0  0  0  0  0  0  0
   -1.0902    1.2457    1.8919 C   0  0  0  0  0  0  0  0  0  0  0  0
   -0.9176    0.6111    0.4634 C   0  0  0  0  0  0  0  0  0  0  0  0
    0.4777    0.1385    0.2473 N   0  0  0  0  0  0  0  0  0  0  0  0
    1.5308    1.1450    0.3290 C   0  0  0  0  0  0  0  0  0  0  0  0
    2.8778    0.5061    0.0783 C   0  0  0  0  0  0  0  0  0  0  0  0
    3.2651    0.1618   -1.2255 C   0  0  0  0  0  0  0  0  0  0  0  0
    4.4994   -0.4392   -1.4562 C   0  0  0  0  0  0  0  0  0  0  0  0
    4.8233   -0.7448   -2.7453 O   0  0  0  0  0  0  0  0  0  0  0  0
    5.3666   -0.7166   -0.4058 C   0  0  0  0  0  0  0  0  0  0  0  0
    4.9810   -0.3860    0.8920 C   0  0  0  0  0  0  0  0  0  0  0  0
    6.0386   -0.7287    2.2071 Cl  0  0  0  0  0  0  0  0  0  0  0  0
    3.7472    0.2188    1.1407 C   0  0  0  0  0  0  0  0  0  0  0  0
   -1.2323    1.6654   -0.6382 C   0  0  0  0  0  0  0  0  0  0  0  0
   -2.7152    1.8407   -0.9291 C   0  0  0  0  0  0  0  0  0  0  0  0
   -3.2986    0.5267   -1.4198 C   0  0  0  0  0  0  0  0  0  0  0  0
   -2.9830   -0.6226   -0.4982 C   0  0  0  0  0  0  0  0  0  0  0  0
   -3.8212   -1.7512   -0.5458 C   0  0  0  0  0  0  0  0  0  0  0  0
   -3.5864   -2.8536    0.2711 C   0  0  0  0  0  0  0  0  0  0  0  0
   -2.5069   -2.8452    1.1435 C   0  0  0  0  0  0  0  0  0  0  0  0
   -1.6582   -1.7380    1.1906 C   0  0  0  0  0  0  0  0  0  0  0  0
   -1.8648   -0.6111    0.3631 C   0  0  0  0  0  0  0  0  0  0  0  0
   -2.9859    0.8423    2.1178 H   0  0  0  0  0  0  0  0  0  0  0  0
   -0.4809    2.1502    1.9874 H   0  0  0  0  0  0  0  0  0  0  0  0
   -0.7588    0.5550    2.6761 H   0  0  0  0  0  0  0  0  0  0  0  0
    0.6971   -0.6120    0.8966 H   0  0  0  0  0  0  0  0  0  0  0  0
    1.5487    1.6247    1.3134 H   0  0  0  0  0  0  0  0  0  0  0  0
    1.3950    1.9395   -0.4130 H   0  0  0  0  0  0  0  0  0  0  0  0
    2.5976    0.3545   -2.0629 H   0  0  0  0  0  0  0  0  0  0  0  0
    5.6923   -1.1784   -2.7594 H   0  0  0  0  0  0  0  0  0  0  0  0
    6.3288   -1.1851   -0.5821 H   0  0  0  0  0  0  0  0  0  0  0  0
    3.4646    0.4658    2.1611 H   0  0  0  0  0  0  0  0  0  0  0  0
   -0.7502    1.3715   -1.5825 H   0  0  0  0  0  0  0  0  0  0  0  0
   -0.8059    2.6401   -0.3692 H   0  0  0  0  0  0  0  0  0  0  0  0
   -3.2517    2.1927   -0.0429 H   0  0  0  0  0  0  0  0  0  0  0  0
   -2.8519    2.6082   -1.7000 H   0  0  0  0  0  0  0  0  0  0  0  0
   -4.3846    0.6437   -1.5187 H   0  0  0  0  0  0  0  0  0  0  0  0
   -2.9012    0.2896   -2.4146 H   0  0  0  0  0  0  0  0  0  0  0  0
   -4.6696   -1.7723   -1.2274 H   0  0  0  0  0  0  0  0  0  0  0  0
   -4.2447   -3.7168    0.2239 H   0  0  0  0  0  0  0  0  0  0  0  0
   -2.3194   -3.7022    1.7851 H   0  0  0  0  0  0  0  0  0  0  0  0
   -0.8263   -1.7696    1.8900 H   0  0  0  0  0  0  0  0  0  0  0  0
  1  2  1  0
  2  3  1  0
  3  4  1  0
  4  5  1  0
  5  6  1  0
  6  7  1  0
  7  8  2  0
  8  9  1  0
  8 10  1  0
 10 11  2  0
 11 12  1  0
 11 13  1  0
  3 14  1  0
 14 15  1  0
 15 16  1  0
 16 17  1  0
 17 18  2  0
 18 19  1  0
 19 20  2  0
 20 21  1  0
 21 22  2  0
 22  3  1  0
 13  6  2  0
 22 17  1  0
  1 23  1  0
  2 24  1  0
  2 25  1  0
  4 26  1  0
  5 27  1  0
  5 28  1  0
  7 29  1  0
  9 30  1  0
 10 31  1  0
 13 32  1  0
 14 33  1  0
 14 34  1  0
 15 35  1  0
 15 36  1  0
 16 37  1  0
 16 38  1  0
 18 39  1  0
 19 40  1  0
 20 41  1  0
 21 42  1  0
M  END
$$$$
OCNT-2313106
     RDKit          3D

 52 55  0  0  0  0  0  0  0  0999 V2000
    1.7325    1.2326   -1.1735 O   0  0  0  0  0  0  0  0  0  0  0  0
    1.6275    0.6153   -0.1208 C   0  0  0  0  0  0  0  0  0  0  0  0
    0.6064    0.8147    0.7836 N   0  0  0  0  0  0  0  0  0  0  0  0
   -0.5770    1.5792    0.4160 C   0  0  0  0  0  0  0  0  0  0  0  0
   -1.5851    0.7313   -0.4201 C   0  0  0  0  0  0  0  0  0  0  0  0
   -2.7787    1.5508   -0.9057 C   0  0  0  0  0  0  0  0  0  0  0  0
   -3.1919    1.4419   -2.2463 C   0  0  0  0  0  0  0  0  0  0  0  0
   -4.2793    2.1745   -2.7284 C   0  0  0  0  0  0  0  0  0  0  0  0
   -4.9747    3.0304   -1.8776 C   0  0  0  0  0  0  0  0  0  0  0  0
   -4.5775    3.1496   -0.5491 C   0  0  0  0  0  0  0  0  0  0  0  0
   -5.4361    4.2030    0.5075 Cl  0  0  0  0  0  0  0  0  0  0  0  0
   -3.4899    2.4211   -0.0629 C   0  0  0  0  0  0  0  0  0  0  0  0
   -1.9181   -0.5506    0.2622 N   0  0  0  0  0  0  0  0  0  0  0  0
   -2.5014   -1.5512   -0.6529 C   0  0  0  0  0  0  0  0  0  0  0  0
   -2.6898   -2.8997    0.0615 C   0  0  0  0  0  0  0  0  0  0  0  0
   -3.5168   -2.7636    1.2245 O   0  0  0  0  0  0  0  0  0  0  0  0
   -2.9464   -1.8106    2.1301 C   0  0  0  0  0  0  0  0  0  0  0  0
   -2.7687   -0.4369    1.4592 C   0  0  0  0  0  0  0  0  0  0  0  0
    2.6192   -0.4242    0.2517 C   0  0  0  0  0  0  0  0  0  0  0  0
    2.2067   -1.6513    0.7956 C   0  0  0  0  0  0  0  0  0  0  0  0
    3.1485   -2.6415    1.1201 C   0  0  0  0  0  0  0  0  0  0  0  0
    4.5104   -2.4264    0.9000 C   0  0  0  0  0  0  0  0  0  0  0  0
    4.9093   -1.2140    0.3607 C   0  0  0  0  0  0  0  0  0  0  0  0
    3.9766   -0.2197    0.0346 C   0  0  0  0  0  0  0  0  0  0  0  0
    4.6655    0.9653   -0.5726 C   0  0  0  0  0  0  0  0  0  0  0  0
    6.1174    0.7307   -0.1323 C   0  0  0  0  0  0  0  0  0  0  0  0
    6.2971   -0.7870   -0.0047 C   0  0  0  0  0  0  0  0  0  0  0  0
    0.5130    0.1821    1.5654 H   0  0  0  0  0  0  0  0  0  0  0  0
   -1.0175    1.9371    1.3518 H   0  0  0  0  0  0  0  0  0  0  0  0
   -0.2630    2.4592   -0.1586 H   0  0  0  0  0  0  0  0  0  0  0  0
   -1.0128    0.4526   -1.3175 H   0  0  0  0  0  0  0  0  0  0  0  0
   -2.6610    0.7814   -2.9305 H   0  0  0  0  0  0  0  0  0  0  0  0
   -4.5815    2.0773   -3.7683 H   0  0  0  0  0  0  0  0  0  0  0  0
   -5.8204    3.5987   -2.2547 H   0  0  0  0  0  0  0  0  0  0  0  0
   -3.2099    2.5329    0.9809 H   0  0  0  0  0  0  0  0  0  0  0  0
   -3.4775   -1.2110   -1.0192 H   0  0  0  0  0  0  0  0  0  0  0  0
   -1.8453   -1.7061   -1.5169 H   0  0  0  0  0  0  0  0  0  0  0  0
   -3.1803   -3.6101   -0.6116 H   0  0  0  0  0  0  0  0  0  0  0  0
   -1.7248   -3.3310    0.3545 H   0  0  0  0  0  0  0  0  0  0  0  0
   -3.6250   -1.7197    2.9844 H   0  0  0  0  0  0  0  0  0  0  0  0
   -1.9901   -2.1957    2.5046 H   0  0  0  0  0  0  0  0  0  0  0  0
   -2.3249    0.2455    2.1908 H   0  0  0  0  0  0  0  0  0  0  0  0
   -3.7621   -0.0591    1.1915 H   0  0  0  0  0  0  0  0  0  0  0  0
    1.1505   -1.8660    0.9390 H   0  0  0  0  0  0  0  0  0  0  0  0
    2.8126   -3.5911    1.5305 H   0  0  0  0  0  0  0  0  0  0  0  0
    5.2364   -3.1983    1.1368 H   0  0  0  0  0  0  0  0  0  0  0  0
    4.5755    0.9362   -1.6634 H   0  0  0  0  0  0  0  0  0  0  0  0
    4.2898    1.9174   -0.1876 H   0  0  0  0  0  0  0  0  0  0  0  0
    6.8404    1.1813   -0.8194 H   0  0  0  0  0  0  0  0  0  0  0  0
    6.2738    1.1953    0.8513 H   0  0  0  0  0  0  0  0  0  0  0  0
    7.0299   -1.0389    0.7669 H   0  0  0  0  0  0  0  0  0  0  0  0
    6.5887   -1.2337   -0.9608 H   0  0  0  0  0  0  0  0  0  0  0  0
  1  2  2  0
  2  3  1  0
  3  4  1  0
  4  5  1  0
  5  6  1  0
  6  7  2  0
  7  8  1  0
  8  9  2  0
  9 10  1  0
 10 11  1  0
 10 12  2  0
  5 13  1  0
 13 14  1  0
 14 15  1  0
 15 16  1  0
 16 17  1  0
 17 18  1  0
  2 19  1  0
 19 20  1  0
 20 21  2  0
 21 22  1  0
 22 23  2  0
 23 24  1  0
 24 25  1  0
 25 26  1  0
 26 27  1  0
 12  6  1  0
 18 13  1  0
 24 19  2  0
 27 23  1  0
  3 28  1  0
  4 29  1  0
  4 30  1  0
  5 31  1  0
  7 32  1  0
  8 33  1  0
  9 34  1  0
 12 35  1  0
 14 36  1  0
 14 37  1  0
 15 38  1  0
 15 39  1  0
 17 40  1  0
 17 41  1  0
 18 42  1  0
 18 43  1  0
 20 44  1  0
 21 45  1  0
 22 46  1  0
 25 47  1  0
 25 48  1  0
 26 49  1  0
 26 50  1  0
 27 51  1  0
 27 52  1  0
M  END
$$$$
OCNT-2313107
     RDKit          3D

 36 38  0  0  0  0  0  0  0  0999 V2000
   -3.1055   -0.9501   -0.9289 N   0  0  0  0  0  0  0  0  0  0  0  0
   -3.8297    0.3630   -1.6916 S   0  0  0  0  0  0  0  0  0  0  0  0
   -3.2793    0.3863   -3.0276 O   0  0  0  0  0  0  0  0  0  0  0  0
   -5.2469    0.2645   -1.4327 O   0  0  0  0  0  0  0  0  0  0  0  0
   -3.2657    1.8559   -0.9060 C   0  0  0  0  0  0  0  0  0  0  0  0
   -2.2882    2.1251    0.0474 C   0  0  0  0  0  0  0  0  0  0  0  0
   -1.4174    1.1096    0.7268 C   0  0  0  0  0  0  0  0  0  0  0  0
   -0.6399    0.4123   -0.3039 N   0  0  0  0  0  0  0  0  0  0  0  0
    0.3146   -0.5407    0.2869 C   0  0  0  0  0  0  0  0  0  0  0  0
    1.0138   -1.3856   -0.8100 C   0  0  0  0  0  0  0  0  0  0  0  0
    2.2797   -1.7849   -0.1155 C   0  0  0  0  0  0  0  0  0  0  0  0
    3.1603   -2.7954   -0.4650 C   0  0  0  0  0  0  0  0  0  0  0  0
    4.3113   -2.9672    0.3087 C   0  0  0  0  0  0  0  0  0  0  0  0
    4.5649   -2.1236    1.4010 C   0  0  0  0  0  0  0  0  0  0  0  0
    5.9955   -2.3512    2.3324 Cl  0  0  0  0  0  0  0  0  0  0  0  0
    3.6798   -1.0989    1.7409 C   0  0  0  0  0  0  0  0  0  0  0  0
    2.5358   -0.9458    0.9748 C   0  0  0  0  0  0  0  0  0  0  0  0
    1.4651    0.0915    1.1135 C   0  0  0  0  0  0  0  0  0  0  0  0
   -2.2158    3.5363    0.3177 C   0  0  0  0  0  0  0  0  0  0  0  0
   -3.1120    4.2696   -0.4246 C   0  0  0  0  0  0  0  0  0  0  0  0
   -4.0451    3.2810   -1.4528 S   0  0  0  0  0  0  0  0  0  0  0  0
   -3.3419   -1.8002   -1.4387 H   0  0  0  0  0  0  0  0  0  0  0  0
   -2.0895   -0.7874   -0.9149 H   0  0  0  0  0  0  0  0  0  0  0  0
   -2.0431    0.4081    1.2903 H   0  0  0  0  0  0  0  0  0  0  0  0
   -0.7573    1.6161    1.4401 H   0  0  0  0  0  0  0  0  0  0  0  0
   -0.1147    1.1124   -0.8363 H   0  0  0  0  0  0  0  0  0  0  0  0
   -0.2362   -1.2409    0.9336 H   0  0  0  0  0  0  0  0  0  0  0  0
    0.4036   -2.2479   -1.0958 H   0  0  0  0  0  0  0  0  0  0  0  0
    1.2550   -0.7906   -1.6982 H   0  0  0  0  0  0  0  0  0  0  0  0
    2.9686   -3.4388   -1.3183 H   0  0  0  0  0  0  0  0  0  0  0  0
    5.0150   -3.7561    0.0548 H   0  0  0  0  0  0  0  0  0  0  0  0
    3.8842   -0.4410    2.5792 H   0  0  0  0  0  0  0  0  0  0  0  0
    1.1700    0.2446    2.1559 H   0  0  0  0  0  0  0  0  0  0  0  0
    1.8091    1.0372    0.6802 H   0  0  0  0  0  0  0  0  0  0  0  0
   -1.5346    3.9916    1.0275 H   0  0  0  0  0  0  0  0  0  0  0  0
   -3.2634    5.3407   -0.4141 H   0  0  0  0  0  0  0  0  0  0  0  0
  1  2  1  0
  2  3  2  0
  2  4  2  0
  2  5  1  0
  5  6  2  0
  6  7  1  0
  7  8  1  0
  8  9  1  0
  9 10  1  0
 10 11  1  0
 11 12  1  0
 12 13  2  0
 13 14  1  0
 14 15  1  0
 14 16  2  0
 16 17  1  0
 17 18  1  0
  6 19  1  0
 19 20  2  0
 20 21  1  0
 21  5  1  0
 18  9  1  0
 17 11  2  0
  1 22  1  0
  1 23  1  0
  7 24  1  0
  7 25  1  0
  8 26  1  0
  9 27  1  0
 10 28  1  0
 10 29  1  0
 12 30  1  0
 13 31  1  0
 16 32  1  0
 18 33  1  0
 18 34  1  0
 19 35  1  0
 20 36  1  0
M  END
$$$$
OCNT-2313117
     RDKit          3D

 40 42  0  0  0  0  0  0  0  0999 V2000
   -4.2720   -3.0305    1.0009 C   0  0  0  0  0  0  0  0  0  0  0  0
   -4.4703   -1.6226    1.2551 N   0  0  0  0  0  0  0  0  0  0  0  0
   -5.6567   -1.0622    1.6320 C   0  0  0  0  0  0  0  0  0  0  0  0
   -5.5464    0.2340    1.7927 N   0  0  0  0  0  0  0  0  0  0  0  0
   -4.2370    0.5178    1.5088 C   0  0  0  0  0  0  0  0  0  0  0  0
   -3.5226   -0.6193    1.1635 C   0  0  0  0  0  0  0  0  0  0  0  0
   -2.1320   -0.8086    0.7867 C   0  0  0  0  0  0  0  0  0  0  0  0
   -1.6862   -1.9208    0.5194 O   0  0  0  0  0  0  0  0  0  0  0  0
   -1.3823    0.3590    0.7548 N   0  0  0  0  0  0  0  0  0  0  0  0
   -0.0360    0.3945    0.4196 C   0  0  0  0  0  0  0  0  0  0  0  0
    0.8538   -0.5976    0.0686 C   0  0  0  0  0  0  0  0  0  0  0  0
    2.0984    0.0406   -0.1872 C   0  0  0  0  0  0  0  0  0  0  0  0
    3.3709   -0.5684   -0.5979 C   0  0  0  0  0  0  0  0  0  0  0  0
    3.4893   -1.9542   -0.7884 C   0  0  0  0  0  0  0  0  0  0  0  0
    4.7078   -2.5219   -1.1800 C   0  0  0  0  0  0  0  0  0  0  0  0
    5.8192   -1.7086   -1.3846 C   0  0  0  0  0  0  0  0  0  0  0  0
    7.3149   -2.4083   -1.8663 Cl  0  0  0  0  0  0  0  0  0  0  0  0
    5.7246   -0.3327   -1.2010 C   0  0  0  0  0  0  0  0  0  0  0  0
    4.5063    0.2324   -0.8095 C   0  0  0  0  0  0  0  0  0  0  0  0
    1.9795    1.3658   -0.0070 N   0  0  0  0  0  0  0  0  0  0  0  0
    0.7038    1.5520    0.3753 N   0  0  0  0  0  0  0  0  0  0  0  0
    0.2615    2.9027    0.6513 C   0  0  0  0  0  0  0  0  0  0  0  0
   -0.2312    3.5986   -0.6072 C   0  0  0  0  0  0  0  0  0  0  0  0
   -0.9077    4.8005   -0.2494 O   0  0  0  0  0  0  0  0  0  0  0  0
   -5.2142   -3.5644    1.1528 H   0  0  0  0  0  0  0  0  0  0  0  0
   -3.5235   -3.4100    1.7010 H   0  0  0  0  0  0  0  0  0  0  0  0
   -3.9474   -3.1566   -0.0350 H   0  0  0  0  0  0  0  0  0  0  0  0
   -6.5629   -1.6375    1.7745 H   0  0  0  0  0  0  0  0  0  0  0  0
   -3.8893    1.5404    1.5731 H   0  0  0  0  0  0  0  0  0  0  0  0
   -1.8423    1.2267    0.9854 H   0  0  0  0  0  0  0  0  0  0  0  0
    0.6383   -1.6537   -0.0013 H   0  0  0  0  0  0  0  0  0  0  0  0
    2.6411   -2.6165   -0.6365 H   0  0  0  0  0  0  0  0  0  0  0  0
    4.7792   -3.5971   -1.3220 H   0  0  0  0  0  0  0  0  0  0  0  0
    6.5881    0.3076   -1.3581 H   0  0  0  0  0  0  0  0  0  0  0  0
    4.4486    1.3106   -0.6687 H   0  0  0  0  0  0  0  0  0  0  0  0
   -0.5186    2.8673    1.4193 H   0  0  0  0  0  0  0  0  0  0  0  0
    1.0976    3.4557    1.0961 H   0  0  0  0  0  0  0  0  0  0  0  0
    0.6060    3.8462   -1.2684 H   0  0  0  0  0  0  0  0  0  0  0  0
   -0.9352    2.9694   -1.1620 H   0  0  0  0  0  0  0  0  0  0  0  0
   -1.1151    5.2697   -1.0778 H   0  0  0  0  0  0  0  0  0  0  0  0
  1  2  1  0
  2  3  1  0
  3  4  2  0
  4  5  1  0
  5  6  2  0
  6  7  1  0
  7  8  2  0
  7  9  1  0
  9 10  1  0
 10 11  2  0
 11 12  1  0
 12 13  1  0
 13 14  1  0
 14 15  2  0
 15 16  1  0
 16 17  1  0
 16 18  2  0
 18 19  1  0
 12 20  2  0
 20 21  1  0
 21 22  1  0
 22 23  1  0
 23 24  1  0
  6  2  1  0
 21 10  1  0
 19 13  2  0
  1 25  1  0
  1 26  1  0
  1 27  1  0
  3 28  1  0
  5 29  1  0
  9 30  1  0
 11 31  1  0
 14 32  1  0
 15 33  1  0
 18 34  1  0
 19 35  1  0
 22 36  1  0
 22 37  1  0
 23 38  1  0
 23 39  1  0
 24 40  1  0
M  END
$$$$
OCNT-2313122
     RDKit          3D

 45 47  0  0  0  0  0  0  0  0999 V2000
    0.8140    1.1707    2.0106 O   0  0  0  0  0  0  0  0  0  0  0  0
    0.6265    0.6744    0.9036 C   0  0  0  0  0  0  0  0  0  0  0  0
   -0.4655   -0.1173    0.6063 N   0  0  0  0  0  0  0  0  0  0  0  0
   -1.5798   -0.2098    1.5155 C   0  0  0  0  0  0  0  0  0  0  0  0
   -2.5885   -1.2281    1.0398 C   0  0  0  0  0  0  0  0  0  0  0  0
   -2.5673   -2.5118    1.6170 C   0  0  0  0  0  0  0  0  0  0  0  0
   -3.4598   -3.4998    1.2031 C   0  0  0  0  0  0  0  0  0  0  0  0
   -4.3824   -3.2242    0.2007 C   0  0  0  0  0  0  0  0  0  0  0  0
   -4.4094   -1.9611   -0.3909 C   0  0  0  0  0  0  0  0  0  0  0  0
   -3.5188   -0.9481    0.0112 C   0  0  0  0  0  0  0  0  0  0  0  0
   -3.5849    0.3563   -0.6611 C   0  0  0  0  0  0  0  0  0  0  0  0
   -2.9682    0.5549   -1.9007 C   0  0  0  0  0  0  0  0  0  0  0  0
   -3.0517    1.8036   -2.4946 C   0  0  0  0  0  0  0  0  0  0  0  0
   -3.7036    2.8511   -1.9488 N   0  0  0  0  0  0  0  0  0  0  0  0
   -4.3019    2.6395   -0.7578 C   0  0  0  0  0  0  0  0  0  0  0  0
   -4.2733    1.4284   -0.0857 C   0  0  0  0  0  0  0  0  0  0  0  0
    1.5839    0.8615   -0.3006 C   0  0  0  0  0  0  0  0  0  0  0  0
    1.1396    0.1212   -1.4459 O   0  0  0  0  0  0  0  0  0  0  0  0
    3.0220    0.4757   -0.0063 C   0  0  0  0  0  0  0  0  0  0  0  0
    3.3454   -0.6255    0.8008 C   0  0  0  0  0  0  0  0  0  0  0  0
    4.6769   -0.9832    1.0162 C   0  0  0  0  0  0  0  0  0  0  0  0
    5.7042   -0.2531    0.4203 C   0  0  0  0  0  0  0  0  0  0  0  0
    5.4116    0.8476   -0.3968 C   0  0  0  0  0  0  0  0  0  0  0  0
    6.5208    1.6209   -1.0674 C   0  0  0  0  0  0  0  0  0  0  0  0
    6.2112    2.9316   -1.2730 F   0  0  0  0  0  0  0  0  0  0  0  0
    6.8339    1.1148   -2.2923 F   0  0  0  0  0  0  0  0  0  0  0  0
    7.6821    1.6210   -0.3551 F   0  0  0  0  0  0  0  0  0  0  0  0
    4.0669    1.1940   -0.6133 C   0  0  0  0  0  0  0  0  0  0  0  0
   -0.6389   -0.2456   -0.3862 H   0  0  0  0  0  0  0  0  0  0  0  0
   -2.0328    0.7818    1.6222 H   0  0  0  0  0  0  0  0  0  0  0  0
   -1.1977   -0.4736    2.5093 H   0  0  0  0  0  0  0  0  0  0  0  0
   -1.8465   -2.7482    2.3979 H   0  0  0  0  0  0  0  0  0  0  0  0
   -3.4327   -4.4845    1.6628 H   0  0  0  0  0  0  0  0  0  0  0  0
   -5.0803   -3.9915   -0.1243 H   0  0  0  0  0  0  0  0  0  0  0  0
   -5.1370   -1.7643   -1.1769 H   0  0  0  0  0  0  0  0  0  0  0  0
   -2.4294   -0.2458   -2.3972 H   0  0  0  0  0  0  0  0  0  0  0  0
   -2.5821    1.9991   -3.4545 H   0  0  0  0  0  0  0  0  0  0  0  0
   -4.8231    3.4974   -0.3424 H   0  0  0  0  0  0  0  0  0  0  0  0
   -4.7778    1.3250    0.8695 H   0  0  0  0  0  0  0  0  0  0  0  0
    1.5228    1.9244   -0.5634 H   0  0  0  0  0  0  0  0  0  0  0  0
    1.6221   -0.7249   -1.4357 H   0  0  0  0  0  0  0  0  0  0  0  0
    2.5649   -1.2138    1.2808 H   0  0  0  0  0  0  0  0  0  0  0  0
    4.9135   -1.8329    1.6529 H   0  0  0  0  0  0  0  0  0  0  0  0
    6.7384   -0.5453    0.5975 H   0  0  0  0  0  0  0  0  0  0  0  0
    3.8326    2.0372   -1.2646 H   0  0  0  0  0  0  0  0  0  0  0  0
  1  2  2  0
  2  3  1  0
  3  4  1  0
  4  5  1  0
  5  6  2  0
  6  7  1  0
  7  8  2  0
  8  9  1  0
  9 10  2  0
 10 11  1  0
 11 12  2  0
 12 13  1  0
 13 14  2  0
 14 15  1  0
 15 16  2  0
  2 17  1  0
 17 18  1  0
 17 19  1  0
 19 20  2  0
 20 21  1  0
 21 22  2  0
 22 23  1  0
 23 24  1  0
 24 25  1  0
 24 26  1  0
 24 27  1  0
 23 28  2  0
 10  5  1  0
 16 11  1  0
 28 19  1  0
  3 29  1  0
  4 30  1  0
  4 31  1  0
  6 32  1  0
  7 33  1  0
  8 34  1  0
  9 35  1  0
 12 36  1  0
 13 37  1  0
 15 38  1  0
 16 39  1  0
 17 40  1  0
 18 41  1  0
 20 42  1  0
 21 43  1  0
 22 44  1  0
 28 45  1  0
M  END
$$$$
OCNT-2313124
     RDKit          3D

 48 50  0  0  0  0  0  0  0  0999 V2000
    4.6629   -2.8365    1.9709 C   0  0  0  0  0  0  0  0  0  0  0  0
    4.7660   -1.5388    1.2694 C   0  0  0  0  0  0  0  0  0  0  0  0
    3.9378   -0.9066    0.3694 C   0  0  0  0  0  0  0  0  0  0  0  0
    4.5853    0.3112    0.0462 C   0  0  0  0  0  0  0  0  0  0  0  0
    4.1852    1.4349   -0.8640 C   0  0  0  0  0  0  0  0  0  0  0  0
    2.9744    1.2372   -1.7916 C   0  0  0  0  0  0  0  0  0  0  0  0
    3.1518    0.0839   -2.7824 C   0  0  0  0  0  0  0  0  0  0  0  0
    1.7178    1.1435   -1.0509 N   0  0  0  0  0  0  0  0  0  0  0  0
    0.5119    1.3957   -1.6484 C   0  0  0  0  0  0  0  0  0  0  0  0
    0.3680    1.7727   -2.8022 O   0  0  0  0  0  0  0  0  0  0  0  0
   -0.5253    1.1659   -0.7855 N   0  0  0  0  0  0  0  0  0  0  0  0
   -1.8820    1.4511   -1.2137 C   0  0  0  0  0  0  0  0  0  0  0  0
   -2.4507    0.4005   -2.1855 C   0  0  0  0  0  0  0  0  0  0  0  0
   -3.2006   -0.5846   -1.4272 O   0  0  0  0  0  0  0  0  0  0  0  0
   -3.5417    0.0775   -0.2717 C   0  0  0  0  0  0  0  0  0  0  0  0
   -4.4737   -0.3812    0.6517 C   0  0  0  0  0  0  0  0  0  0  0  0
   -5.1903   -1.6822    0.4378 C   0  0  0  0  0  0  0  0  0  0  0  0
   -4.6892    0.4101    1.8020 C   0  0  0  0  0  0  0  0  0  0  0  0
   -5.6782   -0.0039    2.8588 C   0  0  0  0  0  0  0  0  0  0  0  0
   -3.9844    1.6251    1.9637 C   0  0  0  0  0  0  0  0  0  0  0  0
   -3.0531    2.0557    1.0171 C   0  0  0  0  0  0  0  0  0  0  0  0
   -2.8416    1.2636   -0.0962 C   0  0  0  0  0  0  0  0  0  0  0  0
    5.7421    0.4257    0.7158 N   0  0  0  0  0  0  0  0  0  0  0  0
    5.8295   -0.6999    1.4374 N   0  0  0  0  0  0  0  0  0  0  0  0
    3.6928   -3.3078    1.7834 H   0  0  0  0  0  0  0  0  0  0  0  0
    5.4450   -3.5214    1.6284 H   0  0  0  0  0  0  0  0  0  0  0  0
    4.7697   -2.7024    3.0523 H   0  0  0  0  0  0  0  0  0  0  0  0
    3.0002   -1.2948   -0.0009 H   0  0  0  0  0  0  0  0  0  0  0  0
    5.0531    1.6851   -1.4900 H   0  0  0  0  0  0  0  0  0  0  0  0
    3.9965    2.3160   -0.2348 H   0  0  0  0  0  0  0  0  0  0  0  0
    2.8970    2.1527   -2.3944 H   0  0  0  0  0  0  0  0  0  0  0  0
    3.0974   -0.8946   -2.2982 H   0  0  0  0  0  0  0  0  0  0  0  0
    2.3655    0.1019   -3.5447 H   0  0  0  0  0  0  0  0  0  0  0  0
    4.1133    0.1592   -3.3006 H   0  0  0  0  0  0  0  0  0  0  0  0
    1.6771    0.5001   -0.2746 H   0  0  0  0  0  0  0  0  0  0  0  0
   -0.3163    1.3163    0.1899 H   0  0  0  0  0  0  0  0  0  0  0  0
   -1.9245    2.4549   -1.6501 H   0  0  0  0  0  0  0  0  0  0  0  0
   -3.1534    0.8649   -2.8897 H   0  0  0  0  0  0  0  0  0  0  0  0
   -1.6801   -0.1164   -2.7664 H   0  0  0  0  0  0  0  0  0  0  0  0
   -6.2657   -1.5623    0.6044 H   0  0  0  0  0  0  0  0  0  0  0  0
   -5.0701   -2.0540   -0.5850 H   0  0  0  0  0  0  0  0  0  0  0  0
   -4.8009   -2.4424    1.1224 H   0  0  0  0  0  0  0  0  0  0  0  0
   -6.6968    0.0458    2.4619 H   0  0  0  0  0  0  0  0  0  0  0  0
   -5.4690   -1.0217    3.2027 H   0  0  0  0  0  0  0  0  0  0  0  0
   -5.6275    0.6512    3.7346 H   0  0  0  0  0  0  0  0  0  0  0  0
   -4.1599    2.2412    2.8439 H   0  0  0  0  0  0  0  0  0  0  0  0
   -2.5112    2.9852    1.1587 H   0  0  0  0  0  0  0  0  0  0  0  0
    6.6458   -0.8297    2.0259 H   0  0  0  0  0  0  0  0  0  0  0  0
  1  2  1  0
  2  3  2  0
  3  4  1  0
  4  5  1  0
  5  6  1  0
  6  7  1  0
  6  8  1  0
  8  9  1  0
  9 10  2  0
  9 11  1  0
 11 12  1  0
 12 13  1  0
 13 14  1  0
 14 15  1  0
 15 16  1  0
 16 17  1  0
 16 18  2  0
 18 19  1  0
 18 20  1  0
 20 21  2  0
 21 22  1  0
  4 23  2  0
 23 24  1  0
 24  2  1  0
 22 12  1  0
 22 15  2  0
  1 25  1  0
  1 26  1  0
  1 27  1  0
  3 28  1  0
  5 29  1  0
  5 30  1  0
  6 31  1  0
  7 32  1  0
  7 33  1  0
  7 34  1  0
  8 35  1  0
 11 36  1  0
 12 37  1  0
 13 38  1  0
 13 39  1  0
 17 40  1  0
 17 41  1  0
 17 42  1  0
 19 43  1  0
 19 44  1  0
 19 45  1  0
 20 46  1  0
 21 47  1  0
 24 48  1  0
M  END
$$$$
OCNT-2313143
     RDKit          3D

  0  0  0  0  0  0  0  0  0  0999 V3000
M  V30 BEGIN CTAB
M  V30 COUNTS 44 47 0 0 0
M  V30 BEGIN ATOM
M  V30 1 C 8.010297 -1.389351 -0.551281 0
M  V30 2 C 6.638281 -0.854326 -0.657384 0
M  V30 3 N 5.969778 -0.153542 0.230465 0
M  V30 4 C 4.753471 0.083726 -0.376337 0
M  V30 5 C 3.691704 0.846734 0.274040 0
M  V30 6 C 3.874622 1.352111 1.568311 0
M  V30 7 C 2.860917 2.075321 2.200143 0
M  V30 8 C 1.652375 2.304172 1.543170 0
M  V30 9 C 1.448946 1.821037 0.244184 0
M  V30 10 C 0.134001 2.037354 -0.453301 0
M  V30 11 N -0.785998 0.971758 -0.143150 0
M  V30 12 C -2.103288 1.051299 -0.504521 0
M  V30 13 O -2.630806 2.017522 -1.035501 0
M  V30 14 C -2.884803 -0.178577 -0.236012 0 CFG=1
M  V30 15 C -2.877879 -0.851047 1.111651 0
M  V30 16 C -4.099846 -0.081640 0.673953 0 CFG=2
M  V30 17 C -5.369065 -0.798307 0.284692 0
M  V30 18 C -5.952737 -1.769711 1.105894 0
M  V30 19 C -7.127207 -2.388056 0.702803 0
M  V30 20 N -7.765205 -2.107743 -0.451351 0
M  V30 21 C -7.205053 -1.160724 -1.230761 0
M  V30 22 C -6.033962 -0.491522 -0.909014 0
M  V30 23 C 2.471672 1.085987 -0.377809 0
M  V30 24 N 4.651943 -0.456229 -1.602659 0
M  V30 25 N 5.851032 -1.035239 -1.755344 0
M  V30 26 H 8.471409 -1.082613 0.392525 0
M  V30 27 H 8.634790 -1.019762 -1.370408 0
M  V30 28 H 8.001136 -2.482955 -0.586003 0
M  V30 29 H 4.812651 1.181038 2.093532 0
M  V30 30 H 3.015441 2.457812 3.205896 0
M  V30 31 H 0.867113 2.862171 2.049590 0
M  V30 32 H 0.270286 2.067771 -1.540859 0
M  V30 33 H -0.309427 2.997236 -0.162590 0
M  V30 34 H -0.411889 0.082996 0.160908 0
M  V30 35 H -2.972749 -0.823285 -1.105258 0
M  V30 36 H -2.913715 -1.934469 1.127413 0
M  V30 37 H -2.282698 -0.421510 1.910144 0
M  V30 38 H -4.254274 0.878826 1.165227 0
M  V30 39 H -5.498034 -2.041504 2.052745 0
M  V30 40 H -7.599028 -3.146952 1.320285 0
M  V30 41 H -7.738046 -0.941478 -2.151409 0
M  V30 42 H -5.641971 0.267370 -1.580030 0
M  V30 43 H 2.316710 0.695578 -1.382963 0
M  V30 44 H 6.059106 -1.527277 -2.616635 0
M  V30 END ATOM
M  V30 BEGIN BOND
M  V30 1 1 1 2
M  V30 2 2 2 3
M  V30 3 1 3 4
M  V30 4 1 4 5
M  V30 5 1 5 6
M  V30 6 2 6 7
M  V30 7 1 7 8
M  V30 8 2 8 9
M  V30 9 1 9 10
M  V30 10 1 10 11
M  V30 11 1 11 12
M  V30 12 2 12 13
M  V30 13 1 12 14
M  V30 14 1 14 15
M  V30 15 1 15 16
M  V30 16 1 16 17
M  V30 17 2 17 18
M  V30 18 1 18 19
M  V30 19 2 19 20
M  V30 20 1 20 21
M  V30 21 2 21 22
M  V30 22 1 9 23
M  V30 23 2 4 24
M  V30 24 1 24 25
M  V30 25 1 25 2
M  V30 26 2 23 5
M  V30 27 1 16 14
M  V30 28 1 22 17
M  V30 29 1 1 26
M  V30 30 1 1 27
M  V30 31 1 1 28
M  V30 32 1 6 29
M  V30 33 1 7 30
M  V30 34 1 8 31
M  V30 35 1 10 32
M  V30 36 1 10 33
M  V30 37 1 11 34
M  V30 38 1 14 35 CFG=3
M  V30 39 1 15 36
M  V30 40 1 15 37
M  V30 41 1 16 38 CFG=1
M  V30 42 1 18 39
M  V30 43 1 19 40
M  V30 44 1 21 41
M  V30 45 1 22 42
M  V30 46 1 23 43
M  V30 47 1 25 44
M  V30 END BOND
M  V30 BEGIN COLLECTION
M  V30 MDLV30/STERAC1 ATOMS=(2 14 16)
M  V30 END COLLECTION
M  V30 END CTAB
M  END
>  <_CXSMILES_Data>  (708) 
|&1:13,15|

$$$$
OCNT-2313155
     RDKit          3D

 50 54  0  0  0  0  0  0  0  0999 V2000
    3.1007    2.4513    1.4837 C   0  0  0  0  0  0  0  0  0  0  0  0
    3.3224    1.0338    1.9893 C   0  0  0  0  0  0  0  0  0  0  0  0
    4.0796    0.1905    1.0140 C   0  0  0  0  0  0  0  0  0  0  0  0
    5.4398   -0.0715    1.0527 C   0  0  0  0  0  0  0  0  0  0  0  0
    5.7563   -0.8565   -0.0238 N   0  0  0  0  0  0  0  0  0  0  0  0
    4.6339   -1.1076   -0.7602 C   0  0  0  0  0  0  0  0  0  0  0  0
    4.6177   -1.8365   -1.8850 N   0  0  0  0  0  0  0  0  0  0  0  0
    3.3797   -1.9073   -2.3979 C   0  0  0  0  0  0  0  0  0  0  0  0
    2.2466   -1.3631   -1.9162 N   0  0  0  0  0  0  0  0  0  0  0  0
    2.3020   -0.6408   -0.7669 C   0  0  0  0  0  0  0  0  0  0  0  0
    1.1225   -0.0921   -0.2252 N   0  0  0  0  0  0  0  0  0  0  0  0
    0.4516   -1.1229    0.5839 C   0  0  0  0  0  0  0  0  0  0  0  0
   -0.9474   -0.6426    0.9538 C   0  0  0  0  0  0  0  0  0  0  0  0
   -1.8268   -0.5714   -0.3158 C   0  0  0  0  0  0  0  0  0  0  0  0
   -0.9797   -0.2156   -1.5675 C   0  0  0  0  0  0  0  0  0  0  0  0
    0.2886    0.5665   -1.2442 C   0  0  0  0  0  0  0  0  0  0  0  0
   -2.2881   -1.9219   -0.5984 O   0  0  0  0  0  0  0  0  0  0  0  0
   -3.4805   -2.3050    0.0767 C   0  0  0  0  0  0  0  0  0  0  0  0
   -4.6334   -1.4646   -0.4377 C   0  0  0  0  0  0  0  0  0  0  0  0
   -4.3296   -0.0119   -0.1969 C   0  0  0  0  0  0  0  0  0  0  0  0
   -5.3852    0.9039   -0.0712 C   0  0  0  0  0  0  0  0  0  0  0  0
   -5.1250    2.2521    0.1545 C   0  0  0  0  0  0  0  0  0  0  0  0
   -3.8107    2.6934    0.2524 C   0  0  0  0  0  0  0  0  0  0  0  0
   -2.7553    1.7890    0.1113 C   0  0  0  0  0  0  0  0  0  0  0  0
   -2.9901    0.4230   -0.1308 C   0  0  0  0  0  0  0  0  0  0  0  0
    3.5584   -0.4858   -0.1432 C   0  0  0  0  0  0  0  0  0  0  0  0
    2.5532    3.0378    2.2282 H   0  0  0  0  0  0  0  0  0  0  0  0
    4.0541    2.9541    1.2888 H   0  0  0  0  0  0  0  0  0  0  0  0
    2.5226    2.4594    0.5540 H   0  0  0  0  0  0  0  0  0  0  0  0
    2.3583    0.5708    2.2215 H   0  0  0  0  0  0  0  0  0  0  0  0
    3.8738    1.0781    2.9368 H   0  0  0  0  0  0  0  0  0  0  0  0
    6.2056    0.2428    1.7496 H   0  0  0  0  0  0  0  0  0  0  0  0
    6.6732   -1.2020   -0.2657 H   0  0  0  0  0  0  0  0  0  0  0  0
    3.2765   -2.4766   -3.3165 H   0  0  0  0  0  0  0  0  0  0  0  0
    1.0218   -1.2918    1.5056 H   0  0  0  0  0  0  0  0  0  0  0  0
    0.3904   -2.0867    0.0596 H   0  0  0  0  0  0  0  0  0  0  0  0
   -0.8614    0.3328    1.4481 H   0  0  0  0  0  0  0  0  0  0  0  0
   -1.3744   -1.3313    1.6911 H   0  0  0  0  0  0  0  0  0  0  0  0
   -1.5788    0.3438   -2.2976 H   0  0  0  0  0  0  0  0  0  0  0  0
   -0.6828   -1.1368   -2.0889 H   0  0  0  0  0  0  0  0  0  0  0  0
    0.0279    1.5558   -0.8564 H   0  0  0  0  0  0  0  0  0  0  0  0
    0.8420    0.7712   -2.1707 H   0  0  0  0  0  0  0  0  0  0  0  0
   -3.3559   -2.2174    1.1619 H   0  0  0  0  0  0  0  0  0  0  0  0
   -3.6641   -3.3607   -0.1476 H   0  0  0  0  0  0  0  0  0  0  0  0
   -5.5571   -1.7593    0.0721 H   0  0  0  0  0  0  0  0  0  0  0  0
   -4.7631   -1.6127   -1.5162 H   0  0  0  0  0  0  0  0  0  0  0  0
   -6.4166    0.5664   -0.1446 H   0  0  0  0  0  0  0  0  0  0  0  0
   -5.9462    2.9563    0.2569 H   0  0  0  0  0  0  0  0  0  0  0  0
   -3.6031    3.7445    0.4363 H   0  0  0  0  0  0  0  0  0  0  0  0
   -1.7443    2.1750    0.2022 H   0  0  0  0  0  0  0  0  0  0  0  0
  1  2  1  0
  2  3  1  0
  3  4  2  0
  4  5  1  0
  5  6  1  0
  6  7  2  0
  7  8  1  0
  8  9  2  0
  9 10  1  0
 10 11  1  0
 11 12  1  0
 12 13  1  0
 13 14  1  0
 14 15  1  0
 15 16  1  0
 14 17  1  0
 17 18  1  0
 18 19  1  0
 19 20  1  0
 20 21  2  0
 21 22  1  0
 22 23  2  0
 23 24  1  0
 24 25  2  0
 10 26  2  0
 26  3  1  0
 26  6  1  0
 16 11  1  0
 25 20  1  0
 25 14  1  0
  1 27  1  0
  1 28  1  0
  1 29  1  0
  2 30  1  0
  2 31  1  0
  4 32  1  0
  5 33  1  0
  8 34  1  0
 12 35  1  0
 12 36  1  0
 13 37  1  0
 13 38  1  0
 15 39  1  0
 15 40  1  0
 16 41  1  0
 16 42  1  0
 18 43  1  0
 18 44  1  0
 19 45  1  0
 19 46  1  0
 21 47  1  0
 22 48  1  0
 23 49  1  0
 24 50  1  0
M  END
$$$$
OCNT-2313159
     RDKit          3D

 45 48  0  0  0  0  0  0  0  0999 V2000
   -4.7792   -0.9547    1.0370 C   0  0  0  0  0  0  0  0  0  0  0  0
   -4.4033    0.4135    0.6376 C   0  0  0  0  0  0  0  0  0  0  0  0
   -3.5276    0.9474   -0.2759 C   0  0  0  0  0  0  0  0  0  0  0  0
   -2.4987    0.0768   -1.3089 S   0  0  0  0  0  0  0  0  0  0  0  0
   -3.3009   -1.0366   -1.7685 O   0  0  0  0  0  0  0  0  0  0  0  0
   -1.9529    1.0428   -2.2407 O   0  0  0  0  0  0  0  0  0  0  0  0
   -1.2213   -0.5506   -0.3898 N   0  0  0  0  0  0  0  0  0  0  0  0
   -0.3023    0.4391    0.2459 C   0  0  0  0  0  0  0  0  0  0  0  0
    1.0710    0.1960   -0.3998 C   0  0  0  0  0  0  0  0  0  0  0  0
    2.2799    0.7270    0.3349 C   0  0  0  0  0  0  0  0  0  0  0  0
    3.3661    1.2149   -0.4123 C   0  0  0  0  0  0  0  0  0  0  0  0
    4.5064    1.7192    0.2163 C   0  0  0  0  0  0  0  0  0  0  0  0
    4.5819    1.7439    1.6051 C   0  0  0  0  0  0  0  0  0  0  0  0
    3.5184    1.2626    2.3630 C   0  0  0  0  0  0  0  0  0  0  0  0
    2.3767    0.7581    1.7339 C   0  0  0  0  0  0  0  0  0  0  0  0
    1.0602   -1.3197   -0.6205 C   0  0  0  0  0  0  0  0  0  0  0  0
    2.1538   -1.9802   -1.5150 C   0  0  0  0  0  0  0  0  0  0  0  0
    2.0560   -3.2290   -0.6155 C   0  0  0  0  0  0  0  0  0  0  0  0
    1.5214   -2.3100    0.5027 C   0  0  0  0  0  0  0  0  0  0  0  0
   -0.3875   -1.5713   -1.0875 C   0  0  0  0  0  0  0  0  0  0  0  0
   -3.6572    2.3407   -0.1367 C   0  0  0  0  0  0  0  0  0  0  0  0
   -2.9661    3.2726   -0.8210 N   0  0  0  0  0  0  0  0  0  0  0  0
   -4.5693    2.6398    0.7930 N   0  0  0  0  0  0  0  0  0  0  0  0
   -5.0378    1.4321    1.2768 O   0  0  0  0  0  0  0  0  0  0  0  0
   -5.4418   -1.4015    0.2898 H   0  0  0  0  0  0  0  0  0  0  0  0
   -5.3011   -0.9570    1.9992 H   0  0  0  0  0  0  0  0  0  0  0  0
   -3.8926   -1.5883    1.1369 H   0  0  0  0  0  0  0  0  0  0  0  0
   -0.6199    1.4773    0.1142 H   0  0  0  0  0  0  0  0  0  0  0  0
   -0.3169    0.2271    1.3197 H   0  0  0  0  0  0  0  0  0  0  0  0
    1.0383    0.6850   -1.3857 H   0  0  0  0  0  0  0  0  0  0  0  0
    3.3321    1.2080   -1.5004 H   0  0  0  0  0  0  0  0  0  0  0  0
    5.3346    2.0931   -0.3800 H   0  0  0  0  0  0  0  0  0  0  0  0
    5.4685    2.1358    2.0963 H   0  0  0  0  0  0  0  0  0  0  0  0
    3.5774    1.2765    3.4486 H   0  0  0  0  0  0  0  0  0  0  0  0
    1.5781    0.3775    2.3649 H   0  0  0  0  0  0  0  0  0  0  0  0
    1.8942   -2.1362   -2.5658 H   0  0  0  0  0  0  0  0  0  0  0  0
    3.1373   -1.4999   -1.4708 H   0  0  0  0  0  0  0  0  0  0  0  0
    3.0017   -3.7337   -0.4021 H   0  0  0  0  0  0  0  0  0  0  0  0
    1.3306   -3.9720   -0.9656 H   0  0  0  0  0  0  0  0  0  0  0  0
    0.7344   -2.7385    1.1299 H   0  0  0  0  0  0  0  0  0  0  0  0
    2.3225   -1.9508    1.1562 H   0  0  0  0  0  0  0  0  0  0  0  0
   -0.7493   -2.5738   -0.8390 H   0  0  0  0  0  0  0  0  0  0  0  0
   -0.4533   -1.4356   -2.1737 H   0  0  0  0  0  0  0  0  0  0  0  0
   -2.5218    3.0162   -1.7044 H   0  0  0  0  0  0  0  0  0  0  0  0
   -3.3407    4.2164   -0.8222 H   0  0  0  0  0  0  0  0  0  0  0  0
  1  2  1  0
  2  3  2  0
  3  4  1  0
  4  5  2  0
  4  6  2  0
  4  7  1  0
  7  8  1  0
  8  9  1  0
  9 10  1  0
 10 11  2  0
 11 12  1  0
 12 13  2  0
 13 14  1  0
 14 15  2  0
  9 16  1  0
 16 17  1  0
 17 18  1  0
 18 19  1  0
 16 20  1  0
  3 21  1  0
 21 22  1  0
 21 23  2  0
 23 24  1  0
 24  2  1  0
 20  7  1  0
 15 10  1  0
 19 16  1  0
  1 25  1  0
  1 26  1  0
  1 27  1  0
  8 28  1  0
  8 29  1  0
  9 30  1  0
 11 31  1  0
 12 32  1  0
 13 33  1  0
 14 34  1  0
 15 35  1  0
 17 36  1  0
 17 37  1  0
 18 38  1  0
 18 39  1  0
 19 40  1  0
 19 41  1  0
 20 42  1  0
 20 43  1  0
 22 44  1  0
 22 45  1  0
M  END
$$$$
OCNT-2313161
     RDKit          3D

 42 44  0  0  0  0  0  0  0  0999 V2000
   -5.1774   -0.2295    2.4741 C   0  0  0  0  0  0  0  0  0  0  0  0
   -4.5135   -0.5199    1.1622 C   0  0  0  0  0  0  0  0  0  0  0  0
   -5.0625   -1.4499    0.2923 C   0  0  0  0  0  0  0  0  0  0  0  0
   -4.4151   -1.6914   -0.9115 C   0  0  0  0  0  0  0  0  0  0  0  0
   -3.2447   -0.9991   -1.2141 C   0  0  0  0  0  0  0  0  0  0  0  0
   -2.7437   -0.0698   -0.3036 C   0  0  0  0  0  0  0  0  0  0  0  0
   -1.4499    0.7256   -0.5408 C   0  0  0  0  0  0  0  0  0  0  0  0
   -1.7373    2.2223   -0.2800 C   0  0  0  0  0  0  0  0  0  0  0  0
   -0.9126    0.6041   -1.9837 C   0  0  0  0  0  0  0  0  0  0  0  0
   -0.4000    0.1913    0.4729 C   0  0  0  0  0  0  0  0  0  0  0  0
    0.8751    0.9023    0.3760 N   0  0  0  0  0  0  0  0  0  0  0  0
    2.0070    0.1556    0.0558 C   0  0  0  0  0  0  0  0  0  0  0  0
    1.9084   -0.9476   -0.7425 N   0  0  0  0  0  0  0  0  0  0  0  0
    3.0165   -1.6530   -1.0734 C   0  0  0  0  0  0  0  0  0  0  0  0
    4.3088   -1.3576   -0.6665 C   0  0  0  0  0  0  0  0  0  0  0  0
    4.4049   -0.2322    0.1455 C   0  0  0  0  0  0  0  0  0  0  0  0
    3.2952    0.5249    0.5086 C   0  0  0  0  0  0  0  0  0  0  0  0
    3.6982    1.5682    1.3083 N   0  0  0  0  0  0  0  0  0  0  0  0
    5.0148    1.4932    1.4540 N   0  0  0  0  0  0  0  0  0  0  0  0
    5.4375    0.4188    0.7628 N   0  0  0  0  0  0  0  0  0  0  0  0
    6.8401    0.1001    0.7445 C   0  0  0  0  0  0  0  0  0  0  0  0
   -3.3744    0.1565    0.8810 N   0  0  0  0  0  0  0  0  0  0  0  0
   -6.1989    0.1281    2.3106 H   0  0  0  0  0  0  0  0  0  0  0  0
   -4.6312    0.5435    3.0247 H   0  0  0  0  0  0  0  0  0  0  0  0
   -5.2063   -1.1328    3.0914 H   0  0  0  0  0  0  0  0  0  0  0  0
   -5.9751   -1.9796    0.5431 H   0  0  0  0  0  0  0  0  0  0  0  0
   -4.8164   -2.4174   -1.6134 H   0  0  0  0  0  0  0  0  0  0  0  0
   -2.7480   -1.2065   -2.1547 H   0  0  0  0  0  0  0  0  0  0  0  0
   -0.8597    2.8439   -0.4903 H   0  0  0  0  0  0  0  0  0  0  0  0
   -2.5556    2.5822   -0.9153 H   0  0  0  0  0  0  0  0  0  0  0  0
   -2.0238    2.4084    0.7616 H   0  0  0  0  0  0  0  0  0  0  0  0
   -0.6063   -0.4219   -2.2166 H   0  0  0  0  0  0  0  0  0  0  0  0
   -0.0396    1.2467   -2.1450 H   0  0  0  0  0  0  0  0  0  0  0  0
   -1.6691    0.9057   -2.7179 H   0  0  0  0  0  0  0  0  0  0  0  0
   -0.7673    0.3267    1.4993 H   0  0  0  0  0  0  0  0  0  0  0  0
   -0.2837   -0.8945    0.3540 H   0  0  0  0  0  0  0  0  0  0  0  0
    1.0604    1.5523    1.1360 H   0  0  0  0  0  0  0  0  0  0  0  0
    2.8261   -2.5120   -1.7131 H   0  0  0  0  0  0  0  0  0  0  0  0
    5.1585   -1.9572   -0.9630 H   0  0  0  0  0  0  0  0  0  0  0  0
    6.9864   -0.9083    0.3518 H   0  0  0  0  0  0  0  0  0  0  0  0
    7.2255    0.1523    1.7659 H   0  0  0  0  0  0  0  0  0  0  0  0
    7.3484    0.8277    0.1074 H   0  0  0  0  0  0  0  0  0  0  0  0
  1  2  1  0
  2  3  1  0
  3  4  2  0
  4  5  1  0
  5  6  2  0
  6  7  1  0
  7  8  1  0
  7  9  1  0
  7 10  1  0
 10 11  1  0
 11 12  1  0
 12 13  1  0
 13 14  2  0
 14 15  1  0
 15 16  2  0
 16 17  1  0
 17 18  1  0
 18 19  2  0
 19 20  1  0
 20 21  1  0
  6 22  1  0
 22  2  2  0
 17 12  2  0
 20 16  1  0
  1 23  1  0
  1 24  1  0
  1 25  1  0
  3 26  1  0
  4 27  1  0
  5 28  1  0
  8 29  1  0
  8 30  1  0
  8 31  1  0
  9 32  1  0
  9 33  1  0
  9 34  1  0
 10 35  1  0
 10 36  1  0
 11 37  1  0
 14 38  1  0
 15 39  1  0
 21 40  1  0
 21 41  1  0
 21 42  1  0
M  END
$$$$
OCNT-2313164
     RDKit          3D

 45 48  0  0  0  0  0  0  0  0999 V2000
    0.2466    1.2723    1.5848 O   0  0  0  0  0  0  0  0  0  0  0  0
    0.5272    0.1523    1.1567 C   0  0  0  0  0  0  0  0  0  0  0  0
    1.9043   -0.2853    1.1071 C   0  0  0  0  0  0  0  0  0  0  0  0
    3.0151    0.4070    0.6659 C   0  0  0  0  0  0  0  0  0  0  0  0
    4.2181   -0.3677    0.8354 C   0  0  0  0  0  0  0  0  0  0  0  0
    5.5635    0.0716    0.4419 C   0  0  0  0  0  0  0  0  0  0  0  0
    6.0153    1.3480    0.7707 C   0  0  0  0  0  0  0  0  0  0  0  0
    7.2924    1.7301    0.3664 C   0  0  0  0  0  0  0  0  0  0  0  0
    8.0758    0.8337   -0.3509 C   0  0  0  0  0  0  0  0  0  0  0  0
    7.5481   -0.4140   -0.6380 C   0  0  0  0  0  0  0  0  0  0  0  0
    6.3131   -0.8116   -0.2649 N   0  0  0  0  0  0  0  0  0  0  0  0
    4.0303   -1.5621    1.4111 N   0  0  0  0  0  0  0  0  0  0  0  0
    2.4331   -1.7516    1.7899 S   0  0  0  0  0  0  0  0  0  0  0  0
   -0.4741   -0.6975    0.6670 N   0  0  0  0  0  0  0  0  0  0  0  0
   -0.2182   -1.8177   -0.2433 C   0  0  0  0  0  0  0  0  0  0  0  0
   -1.4085   -2.1232   -1.1567 C   0  0  0  0  0  0  0  0  0  0  0  0
   -2.0342   -0.8359   -1.6952 C   0  0  0  0  0  0  0  0  0  0  0  0
   -2.4472    0.1394   -0.5645 C   0  0  0  0  0  0  0  0  0  0  0  0
   -3.9510    0.3358   -0.4747 C   0  0  0  0  0  0  0  0  0  0  0  0
   -4.4887    1.6327   -0.5126 C   0  0  0  0  0  0  0  0  0  0  0  0
   -5.8657    1.8326   -0.4211 C   0  0  0  0  0  0  0  0  0  0  0  0
   -6.3222    3.1168   -0.4671 O   0  0  0  0  0  0  0  0  0  0  0  0
   -6.7354    0.7593   -0.2871 C   0  0  0  0  0  0  0  0  0  0  0  0
   -6.2057   -0.5238   -0.2442 C   0  0  0  0  0  0  0  0  0  0  0  0
   -7.0313   -1.5707   -0.1124 F   0  0  0  0  0  0  0  0  0  0  0  0
   -4.8330   -0.7461   -0.3338 C   0  0  0  0  0  0  0  0  0  0  0  0
   -1.8704   -0.2872    0.7998 C   0  0  0  0  0  0  0  0  0  0  0  0
    2.9684    1.3969    0.2304 H   0  0  0  0  0  0  0  0  0  0  0  0
    5.3991    2.0326    1.3441 H   0  0  0  0  0  0  0  0  0  0  0  0
    7.6745    2.7162    0.6151 H   0  0  0  0  0  0  0  0  0  0  0  0
    9.0759    1.0985   -0.6757 H   0  0  0  0  0  0  0  0  0  0  0  0
    8.1217   -1.1511   -1.1928 H   0  0  0  0  0  0  0  0  0  0  0  0
    0.0075   -2.7031    0.3595 H   0  0  0  0  0  0  0  0  0  0  0  0
    0.6587   -1.5850   -0.8575 H   0  0  0  0  0  0  0  0  0  0  0  0
   -2.1644   -2.6921   -0.6020 H   0  0  0  0  0  0  0  0  0  0  0  0
   -1.0828   -2.7631   -1.9845 H   0  0  0  0  0  0  0  0  0  0  0  0
   -1.2873   -0.3354   -2.3264 H   0  0  0  0  0  0  0  0  0  0  0  0
   -2.8719   -1.0765   -2.3601 H   0  0  0  0  0  0  0  0  0  0  0  0
   -1.9959    1.1081   -0.8237 H   0  0  0  0  0  0  0  0  0  0  0  0
   -3.8386    2.5000   -0.6122 H   0  0  0  0  0  0  0  0  0  0  0  0
   -7.2902    3.1111   -0.3833 H   0  0  0  0  0  0  0  0  0  0  0  0
   -7.8081    0.8912   -0.2142 H   0  0  0  0  0  0  0  0  0  0  0  0
   -4.4720   -1.7693   -0.2926 H   0  0  0  0  0  0  0  0  0  0  0  0
   -1.9779    0.5263    1.5265 H   0  0  0  0  0  0  0  0  0  0  0  0
   -2.4140   -1.1425    1.2212 H   0  0  0  0  0  0  0  0  0  0  0  0
  1  2  2  0
  2  3  1  0
  3  4  2  0
  4  5  1  0
  5  6  1  0
  6  7  2  0
  7  8  1  0
  8  9  2  0
  9 10  1  0
 10 11  2  0
  5 12  2  0
 12 13  1  0
  2 14  1  0
 14 15  1  0
 15 16  1  0
 16 17  1  0
 17 18  1  0
 18 19  1  0
 19 20  1  0
 20 21  2  0
 21 22  1  0
 21 23  1  0
 23 24  2  0
 24 25  1  0
 24 26  1  0
 18 27  1  0
 13  3  1  0
 27 14  1  0
 11  6  1  0
 26 19  2  0
  4 28  1  0
  7 29  1  0
  8 30  1  0
  9 31  1  0
 10 32  1  0
 15 33  1  0
 15 34  1  0
 16 35  1  0
 16 36  1  0
 17 37  1  0
 17 38  1  0
 18 39  1  0
 20 40  1  0
 22 41  1  0
 23 42  1  0
 26 43  1  0
 27 44  1  0
 27 45  1  0
M  END
$$$$
OCNT-2313173
     RDKit          3D

 38 42  0  0  0  0  0  0  0  0999 V2000
   -7.1849   -1.7063   -0.5641 C   0  0  0  0  0  0  0  0  0  0  0  0
   -6.8581   -0.5721   -1.3047 C   0  0  0  0  0  0  0  0  0  0  0  0
   -5.7181    0.1697   -0.9829 C   0  0  0  0  0  0  0  0  0  0  0  0
   -4.8929   -0.2154    0.0843 C   0  0  0  0  0  0  0  0  0  0  0  0
   -3.7052    0.5607    0.4165 C   0  0  0  0  0  0  0  0  0  0  0  0
   -2.8698    0.2880    1.4365 N   0  0  0  0  0  0  0  0  0  0  0  0
   -1.9600    1.2696    1.2738 N   0  0  0  0  0  0  0  0  0  0  0  0
   -0.8604    1.4615    2.1917 C   0  0  0  0  0  0  0  0  0  0  0  0
    0.3380    0.7679    1.6907 C   0  0  0  0  0  0  0  0  0  0  0  0
    1.4385    1.2578    1.1644 N   0  0  0  0  0  0  0  0  0  0  0  0
    2.1940    0.1250    0.9314 C   0  0  0  0  0  0  0  0  0  0  0  0
    3.5209    0.1841    0.3255 C   0  0  0  0  0  0  0  0  0  0  0  0
    4.0435    1.4194   -0.0992 C   0  0  0  0  0  0  0  0  0  0  0  0
    5.3116    1.5290   -0.6871 C   0  0  0  0  0  0  0  0  0  0  0  0
    6.0339    0.3454   -0.8300 C   0  0  0  0  0  0  0  0  0  0  0  0
    7.2750    0.0753   -1.3487 N   0  0  0  0  0  0  0  0  0  0  0  0
    7.4941   -1.2687   -1.2391 C   0  0  0  0  0  0  0  0  0  0  0  0
    6.4749   -1.8826   -0.6840 N   0  0  0  0  0  0  0  0  0  0  0  0
    5.5557   -0.8953   -0.4238 C   0  0  0  0  0  0  0  0  0  0  0  0
    4.2843   -0.9863    0.1612 C   0  0  0  0  0  0  0  0  0  0  0  0
    1.5926   -1.0105    1.3235 N   0  0  0  0  0  0  0  0  0  0  0  0
    0.3669   -0.5879    1.8263 O   0  0  0  0  0  0  0  0  0  0  0  0
   -2.2136    2.1356    0.2788 N   0  0  0  0  0  0  0  0  0  0  0  0
   -3.3211    1.6805   -0.2880 N   0  0  0  0  0  0  0  0  0  0  0  0
   -5.2341   -1.3599    0.8209 C   0  0  0  0  0  0  0  0  0  0  0  0
   -6.3740   -2.1010    0.4981 C   0  0  0  0  0  0  0  0  0  0  0  0
   -8.0710   -2.2836   -0.8156 H   0  0  0  0  0  0  0  0  0  0  0  0
   -7.4891   -0.2638   -2.1346 H   0  0  0  0  0  0  0  0  0  0  0  0
   -5.4807    1.0515   -1.5752 H   0  0  0  0  0  0  0  0  0  0  0  0
   -0.6837    2.5377    2.2870 H   0  0  0  0  0  0  0  0  0  0  0  0
   -1.1628    1.0782    3.1717 H   0  0  0  0  0  0  0  0  0  0  0  0
    3.4528    2.3271    0.0243 H   0  0  0  0  0  0  0  0  0  0  0  0
    5.7005    2.4880   -1.0116 H   0  0  0  0  0  0  0  0  0  0  0  0
    7.9144    0.7497   -1.7429 H   0  0  0  0  0  0  0  0  0  0  0  0
    8.4077   -1.7383   -1.5789 H   0  0  0  0  0  0  0  0  0  0  0  0
    3.9177   -1.9586    0.4743 H   0  0  0  0  0  0  0  0  0  0  0  0
   -4.6115   -1.6849    1.6523 H   0  0  0  0  0  0  0  0  0  0  0  0
   -6.6261   -2.9866    1.0758 H   0  0  0  0  0  0  0  0  0  0  0  0
  1  2  2  0
  2  3  1  0
  3  4  2  0
  4  5  1  0
  5  6  2  0
  6  7  1  0
  7  8  1  0
  8  9  1  0
  9 10  2  0
 10 11  1  0
 11 12  1  0
 12 13  2  0
 13 14  1  0
 14 15  2  0
 15 16  1  0
 16 17  1  0
 17 18  2  0
 18 19  1  0
 19 20  2  0
 11 21  2  0
 21 22  1  0
  7 23  1  0
 23 24  2  0
  4 25  1  0
 25 26  2  0
 26  1  1  0
 24  5  1  0
 22  9  1  0
 20 12  1  0
 19 15  1  0
  1 27  1  0
  2 28  1  0
  3 29  1  0
  8 30  1  0
  8 31  1  0
 13 32  1  0
 14 33  1  0
 16 34  1  0
 17 35  1  0
 20 36  1  0
 25 37  1  0
 26 38  1  0
M  END
$$$$
OCNT-2313175
     RDKit          3D

 54 57  0  0  0  0  0  0  0  0999 V2000
   10.0810   -1.0096   -0.4933 C   0  0  0  0  0  0  0  0  0  0  0  0
    8.9328   -0.1801   -0.3704 O   0  0  0  0  0  0  0  0  0  0  0  0
    7.7570   -0.7964   -0.0448 C   0  0  0  0  0  0  0  0  0  0  0  0
    6.6594    0.0553    0.0696 C   0  0  0  0  0  0  0  0  0  0  0  0
    5.3923   -0.4440    0.3991 C   0  0  0  0  0  0  0  0  0  0  0  0
    5.1904   -1.8079    0.6293 C   0  0  0  0  0  0  0  0  0  0  0  0
    3.9467   -2.3842    0.9456 N   0  0  0  0  0  0  0  0  0  0  0  0
    2.7254   -1.8055    1.0170 C   0  0  0  0  0  0  0  0  0  0  0  0
    2.4069   -0.5614    0.7481 N   0  0  0  0  0  0  0  0  0  0  0  0
    1.0433   -0.3217    0.9106 C   0  0  0  0  0  0  0  0  0  0  0  0
    0.4868    1.0178    0.6592 C   0  0  0  0  0  0  0  0  0  0  0  0
    1.1835    2.0281    0.6336 O   0  0  0  0  0  0  0  0  0  0  0  0
   -0.8745    1.0611    0.4342 N   0  0  0  0  0  0  0  0  0  0  0  0
   -1.5724    2.3097    0.1822 C   0  0  0  0  0  0  0  0  0  0  0  0
   -1.8379    3.0678    1.4849 C   0  0  0  0  0  0  0  0  0  0  0  0
   -2.8618    2.0427   -0.5759 C   0  0  0  0  0  0  0  0  0  0  0  0
   -3.0825    2.6436   -1.8191 C   0  0  0  0  0  0  0  0  0  0  0  0
   -4.2626    2.3983   -2.5151 C   0  0  0  0  0  0  0  0  0  0  0  0
   -5.2313    1.5426   -1.9806 C   0  0  0  0  0  0  0  0  0  0  0  0
   -5.0406    0.9135   -0.7422 C   0  0  0  0  0  0  0  0  0  0  0  0
   -6.0224    0.0347   -0.2175 N   0  0  0  0  0  0  0  0  0  0  0  0
   -7.3026   -0.1965   -0.8578 C   0  0  0  0  0  0  0  0  0  0  0  0
   -7.9375   -1.3156   -0.0477 C   0  0  0  0  0  0  0  0  0  0  0  0
   -7.1756   -1.3380    1.1624 N   0  0  0  0  0  0  0  0  0  0  0  0
   -5.9700   -0.6631    1.0043 C   0  0  0  0  0  0  0  0  0  0  0  0
   -5.0711   -0.7436    1.8254 O   0  0  0  0  0  0  0  0  0  0  0  0
   -3.8530    1.1878   -0.0510 C   0  0  0  0  0  0  0  0  0  0  0  0
    0.3367   -1.4345    1.3321 C   0  0  0  0  0  0  0  0  0  0  0  0
    1.3802   -2.7796    1.4995 S   0  0  0  0  0  0  0  0  0  0  0  0
    6.3052   -2.6549    0.5037 C   0  0  0  0  0  0  0  0  0  0  0  0
    7.5748   -2.1594    0.1722 C   0  0  0  0  0  0  0  0  0  0  0  0
   10.9330   -0.3671   -0.7380 H   0  0  0  0  0  0  0  0  0  0  0  0
    9.9614   -1.7294   -1.3100 H   0  0  0  0  0  0  0  0  0  0  0  0
   10.3072   -1.5164    0.4507 H   0  0  0  0  0  0  0  0  0  0  0  0
    6.7824    1.1235   -0.0994 H   0  0  0  0  0  0  0  0  0  0  0  0
    4.5757    0.2693    0.4756 H   0  0  0  0  0  0  0  0  0  0  0  0
    3.9915   -3.3667    1.1786 H   0  0  0  0  0  0  0  0  0  0  0  0
   -1.4001    0.2034    0.3630 H   0  0  0  0  0  0  0  0  0  0  0  0
   -0.9152    2.9322   -0.4380 H   0  0  0  0  0  0  0  0  0  0  0  0
   -2.3726    4.0033    1.2922 H   0  0  0  0  0  0  0  0  0  0  0  0
   -2.4374    2.4755    2.1852 H   0  0  0  0  0  0  0  0  0  0  0  0
   -0.8994    3.3153    1.9931 H   0  0  0  0  0  0  0  0  0  0  0  0
   -2.3412    3.3110   -2.2512 H   0  0  0  0  0  0  0  0  0  0  0  0
   -4.4319    2.8731   -3.4787 H   0  0  0  0  0  0  0  0  0  0  0  0
   -6.1319    1.3870   -2.5652 H   0  0  0  0  0  0  0  0  0  0  0  0
   -7.1841   -0.4945   -1.9037 H   0  0  0  0  0  0  0  0  0  0  0  0
   -7.8977    0.7203   -0.7930 H   0  0  0  0  0  0  0  0  0  0  0  0
   -8.9951   -1.1490    0.1692 H   0  0  0  0  0  0  0  0  0  0  0  0
   -7.8146   -2.2855   -0.5410 H   0  0  0  0  0  0  0  0  0  0  0  0
   -7.2437   -2.0372    1.8900 H   0  0  0  0  0  0  0  0  0  0  0  0
   -3.6710    0.7475    0.9241 H   0  0  0  0  0  0  0  0  0  0  0  0
   -0.7142   -1.5301    1.5630 H   0  0  0  0  0  0  0  0  0  0  0  0
    6.1986   -3.7259    0.6601 H   0  0  0  0  0  0  0  0  0  0  0  0
    8.3934   -2.8665    0.0904 H   0  0  0  0  0  0  0  0  0  0  0  0
  1  2  1  0
  2  3  1  0
  3  4  1  0
  4  5  2  0
  5  6  1  0
  6  7  1  0
  7  8  1  0
  8  9  2  0
  9 10  1  0
 10 11  1  0
 11 12  2  0
 11 13  1  0
 13 14  1  0
 14 15  1  0
 14 16  1  0
 16 17  2  0
 17 18  1  0
 18 19  2  0
 19 20  1  0
 20 21  1  0
 21 22  1  0
 22 23  1  0
 23 24  1  0
 24 25  1  0
 25 26  2  0
 20 27  2  0
 10 28  2  0
 28 29  1  0
  6 30  2  0
 30 31  1  0
 31  3  2  0
 29  8  1  0
 27 16  1  0
 25 21  1  0
  1 32  1  0
  1 33  1  0
  1 34  1  0
  4 35  1  0
  5 36  1  0
  7 37  1  0
 13 38  1  0
 14 39  1  0
 15 40  1  0
 15 41  1  0
 15 42  1  0
 17 43  1  0
 18 44  1  0
 19 45  1  0
 22 46  1  0
 22 47  1  0
 23 48  1  0
 23 49  1  0
 24 50  1  0
 27 51  1  0
 28 52  1  0
 30 53  1  0
 31 54  1  0
M  END
$$$$
OCNT-2313184
     RDKit          3D

 48 50  0  0  0  0  0  0  0  0999 V2000
   -3.9353   -3.3750    1.6441 C   0  0  0  0  0  0  0  0  0  0  0  0
   -3.3514   -2.4033    0.6617 C   0  0  0  0  0  0  0  0  0  0  0  0
   -2.3216   -2.7955   -0.1987 C   0  0  0  0  0  0  0  0  0  0  0  0
   -1.7405   -1.8741   -1.0719 C   0  0  0  0  0  0  0  0  0  0  0  0
   -2.1846   -0.5434   -1.1109 C   0  0  0  0  0  0  0  0  0  0  0  0
   -1.5011    0.4453   -2.0212 C   0  0  0  0  0  0  0  0  0  0  0  0
   -0.5166    1.2201   -1.2942 N   0  0  0  0  0  0  0  0  0  0  0  0
    0.7883    0.7771   -1.1977 C   0  0  0  0  0  0  0  0  0  0  0  0
    1.1990   -0.1855   -1.8315 O   0  0  0  0  0  0  0  0  0  0  0  0
    1.5087    1.5698   -0.3421 N   0  0  0  0  0  0  0  0  0  0  0  0
    2.8115    1.3910    0.0483 C   0  0  0  0  0  0  0  0  0  0  0  0
    3.4427    2.2734    0.7911 N   0  0  0  0  0  0  0  0  0  0  0  0
    4.7304    1.8756    1.0874 N   0  0  0  0  0  0  0  0  0  0  0  0
    5.0292    0.6984    0.5610 C   0  0  0  0  0  0  0  0  0  0  0  0
    6.3216    0.0133    0.7086 C   0  0  0  0  0  0  0  0  0  0  0  0
    7.3562    0.5972    1.4369 C   0  0  0  0  0  0  0  0  0  0  0  0
    8.5650   -0.0837    1.5615 C   0  0  0  0  0  0  0  0  0  0  0  0
    8.7115   -1.3251    0.9550 C   0  0  0  0  0  0  0  0  0  0  0  0
    7.6377   -1.8372    0.2486 C   0  0  0  0  0  0  0  0  0  0  0  0
    6.4548   -1.1992    0.1115 N   0  0  0  0  0  0  0  0  0  0  0  0
    3.7271    0.0114   -0.3345 S   0  0  0  0  0  0  0  0  0  0  0  0
   -3.2215   -0.1535   -0.2512 C   0  0  0  0  0  0  0  0  0  0  0  0
   -3.5876    1.1680   -0.2391 O   0  0  0  0  0  0  0  0  0  0  0  0
   -4.9887    1.3964   -0.4733 C   0  0  0  0  0  0  0  0  0  0  0  0
   -5.2363    1.5358   -1.9745 C   0  0  0  0  0  0  0  0  0  0  0  0
   -5.3539    2.6910    0.2512 C   0  0  0  0  0  0  0  0  0  0  0  0
   -3.7796   -1.0693    0.6468 C   0  0  0  0  0  0  0  0  0  0  0  0
   -3.8167   -4.4063    1.2953 H   0  0  0  0  0  0  0  0  0  0  0  0
   -5.0082   -3.1945    1.7721 H   0  0  0  0  0  0  0  0  0  0  0  0
   -3.4370   -3.2708    2.6148 H   0  0  0  0  0  0  0  0  0  0  0  0
   -1.9477   -3.8167   -0.1821 H   0  0  0  0  0  0  0  0  0  0  0  0
   -0.9170   -2.1927   -1.7106 H   0  0  0  0  0  0  0  0  0  0  0  0
   -1.0335   -0.0652   -2.8711 H   0  0  0  0  0  0  0  0  0  0  0  0
   -2.2293    1.1471   -2.4411 H   0  0  0  0  0  0  0  0  0  0  0  0
   -0.8886    1.7009   -0.4884 H   0  0  0  0  0  0  0  0  0  0  0  0
    1.1022    2.4394   -0.0380 H   0  0  0  0  0  0  0  0  0  0  0  0
    7.2279    1.5690    1.9043 H   0  0  0  0  0  0  0  0  0  0  0  0
    9.3834    0.3517    2.1290 H   0  0  0  0  0  0  0  0  0  0  0  0
    9.6385   -1.8835    1.0344 H   0  0  0  0  0  0  0  0  0  0  0  0
    7.7003   -2.8048   -0.2428 H   0  0  0  0  0  0  0  0  0  0  0  0
   -5.6197    0.5923   -0.0755 H   0  0  0  0  0  0  0  0  0  0  0  0
   -4.9884    0.6032   -2.4943 H   0  0  0  0  0  0  0  0  0  0  0  0
   -6.2837    1.7741   -2.1839 H   0  0  0  0  0  0  0  0  0  0  0  0
   -4.6034    2.3188   -2.4096 H   0  0  0  0  0  0  0  0  0  0  0  0
   -4.7332    3.5268   -0.0926 H   0  0  0  0  0  0  0  0  0  0  0  0
   -6.4063    2.9488    0.0997 H   0  0  0  0  0  0  0  0  0  0  0  0
   -5.1726    2.5862    1.3276 H   0  0  0  0  0  0  0  0  0  0  0  0
   -4.5320   -0.7431    1.3602 H   0  0  0  0  0  0  0  0  0  0  0  0
  1  2  1  0
  2  3  1  0
  3  4  2  0
  4  5  1  0
  5  6  1  0
  6  7  1  0
  7  8  1  0
  8  9  2  0
  8 10  1  0
 10 11  1  0
 11 12  2  0
 12 13  1  0
 13 14  2  0
 14 15  1  0
 15 16  2  0
 16 17  1  0
 17 18  2  0
 18 19  1  0
 19 20  2  0
 14 21  1  0
  5 22  2  0
 22 23  1  0
 23 24  1  0
 24 25  1  0
 24 26  1  0
 22 27  1  0
 27  2  2  0
 21 11  1  0
 20 15  1  0
  1 28  1  0
  1 29  1  0
  1 30  1  0
  3 31  1  0
  4 32  1  0
  6 33  1  0
  6 34  1  0
  7 35  1  0
 10 36  1  0
 16 37  1  0
 17 38  1  0
 18 39  1  0
 19 40  1  0
 24 41  1  0
 25 42  1  0
 25 43  1  0
 25 44  1  0
 26 45  1  0
 26 46  1  0
 26 47  1  0
 27 48  1  0
M  END
$$$$
OCNT-2313188
     RDKit          3D

 57 59  0  0  0  0  0  0  0  0999 V2000
    4.3274    2.8382   -1.8192 C   0  0  0  0  0  0  0  0  0  0  0  0
    3.5748    2.1391   -0.6766 C   0  0  0  0  0  0  0  0  0  0  0  0
    2.5964    1.0931   -1.2452 C   0  0  0  0  0  0  0  0  0  0  0  0
    1.3661    1.7031   -1.9003 C   0  0  0  0  0  0  0  0  0  0  0  0
    1.0751    2.8916   -1.8389 O   0  0  0  0  0  0  0  0  0  0  0  0
    0.5956    0.7657   -2.5548 N   0  0  0  0  0  0  0  0  0  0  0  0
   -0.6787    1.1071   -3.1447 C   0  0  0  0  0  0  0  0  0  0  0  0
   -1.8127    0.7149   -2.2309 C   0  0  0  0  0  0  0  0  0  0  0  0
   -2.5129   -0.4842   -2.4269 C   0  0  0  0  0  0  0  0  0  0  0  0
   -3.5542   -0.8468   -1.5668 C   0  0  0  0  0  0  0  0  0  0  0  0
   -3.8951   -0.0177   -0.4904 C   0  0  0  0  0  0  0  0  0  0  0  0
   -4.9997   -0.3657    0.4477 C   0  0  0  0  0  0  0  0  0  0  0  0
   -5.6916    0.5404    0.8951 O   0  0  0  0  0  0  0  0  0  0  0  0
   -5.1033   -1.7127    0.7488 N   0  0  0  0  0  0  0  0  0  0  0  0
   -6.0718   -2.3291    1.5712 C   0  0  0  0  0  0  0  0  0  0  0  0
   -5.9381   -3.6987    1.8048 C   0  0  0  0  0  0  0  0  0  0  0  0
   -6.8778   -4.3315    2.6034 C   0  0  0  0  0  0  0  0  0  0  0  0
   -7.9242   -3.7013    3.1717 N   0  0  0  0  0  0  0  0  0  0  0  0
   -8.0334   -2.3778    2.9295 C   0  0  0  0  0  0  0  0  0  0  0  0
   -7.1457   -1.6570    2.1455 C   0  0  0  0  0  0  0  0  0  0  0  0
   -3.2072    1.1844   -0.2960 C   0  0  0  0  0  0  0  0  0  0  0  0
   -2.1673    1.5433   -1.1559 C   0  0  0  0  0  0  0  0  0  0  0  0
    4.5730    1.5526    0.3667 C   0  0  0  0  0  0  0  0  0  0  0  0
    5.5092    0.4713   -0.2077 C   0  0  0  0  0  0  0  0  0  0  0  0
    6.2813   -0.2312    0.9041 C   0  0  0  0  0  0  0  0  0  0  0  0
    5.3585   -0.9474    1.8893 C   0  0  0  0  0  0  0  0  0  0  0  0
    3.9252   -0.4213    1.8773 C   0  0  0  0  0  0  0  0  0  0  0  0
    3.8667    1.0876    1.6624 C   0  0  0  0  0  0  0  0  0  0  0  0
    3.6374    3.3845   -2.4702 H   0  0  0  0  0  0  0  0  0  0  0  0
    4.8720    2.1228   -2.4435 H   0  0  0  0  0  0  0  0  0  0  0  0
    5.0468    3.5635   -1.4251 H   0  0  0  0  0  0  0  0  0  0  0  0
    2.9968    2.9165   -0.1583 H   0  0  0  0  0  0  0  0  0  0  0  0
    2.2211    0.4470   -0.4448 H   0  0  0  0  0  0  0  0  0  0  0  0
    3.1007    0.4562   -1.9815 H   0  0  0  0  0  0  0  0  0  0  0  0
    0.8062   -0.2139   -2.4251 H   0  0  0  0  0  0  0  0  0  0  0  0
   -0.7501    0.5673   -4.0953 H   0  0  0  0  0  0  0  0  0  0  0  0
   -0.7297    2.1771   -3.3753 H   0  0  0  0  0  0  0  0  0  0  0  0
   -2.2624   -1.1357   -3.2617 H   0  0  0  0  0  0  0  0  0  0  0  0
   -4.1089   -1.7591   -1.7690 H   0  0  0  0  0  0  0  0  0  0  0  0
   -4.3704   -2.3170    0.4018 H   0  0  0  0  0  0  0  0  0  0  0  0
   -5.1241   -4.2768    1.3839 H   0  0  0  0  0  0  0  0  0  0  0  0
   -6.8103   -5.3953    2.8124 H   0  0  0  0  0  0  0  0  0  0  0  0
   -8.8841   -1.8892    3.3964 H   0  0  0  0  0  0  0  0  0  0  0  0
   -7.3200   -0.5978    2.0044 H   0  0  0  0  0  0  0  0  0  0  0  0
   -3.4776    1.8442    0.5265 H   0  0  0  0  0  0  0  0  0  0  0  0
   -1.6329    2.4784   -0.9873 H   0  0  0  0  0  0  0  0  0  0  0  0
    5.2154    2.3931    0.6704 H   0  0  0  0  0  0  0  0  0  0  0  0
    4.9474   -0.2764   -0.7785 H   0  0  0  0  0  0  0  0  0  0  0  0
    6.2232    0.9287   -0.9022 H   0  0  0  0  0  0  0  0  0  0  0  0
    6.8823    0.5100    1.4459 H   0  0  0  0  0  0  0  0  0  0  0  0
    6.9904   -0.9491    0.4761 H   0  0  0  0  0  0  0  0  0  0  0  0
    5.3401   -2.0211    1.6663 H   0  0  0  0  0  0  0  0  0  0  0  0
    5.7797   -0.8547    2.8978 H   0  0  0  0  0  0  0  0  0  0  0  0
    3.3621   -0.9261    1.0834 H   0  0  0  0  0  0  0  0  0  0  0  0
    3.4311   -0.6852    2.8195 H   0  0  0  0  0  0  0  0  0  0  0  0
    2.8243    1.4257    1.6910 H   0  0  0  0  0  0  0  0  0  0  0  0
    4.3580    1.5723    2.5170 H   0  0  0  0  0  0  0  0  0  0  0  0
  1  2  1  0
  2  3  1  0
  3  4  1  0
  4  5  2  0
  4  6  1  0
  6  7  1  0
  7  8  1  0
  8  9  1  0
  9 10  2  0
 10 11  1  0
 11 12  1  0
 12 13  2  0
 12 14  1  0
 14 15  1  0
 15 16  2  0
 16 17  1  0
 17 18  2  0
 18 19  1  0
 19 20  2  0
 11 21  2  0
 21 22  1  0
  2 23  1  0
 23 24  1  0
 24 25  1  0
 25 26  1  0
 26 27  1  0
 27 28  1  0
 22  8  2  0
 28 23  1  0
 20 15  1  0
  1 29  1  0
  1 30  1  0
  1 31  1  0
  2 32  1  0
  3 33  1  0
  3 34  1  0
  6 35  1  0
  7 36  1  0
  7 37  1  0
  9 38  1  0
 10 39  1  0
 14 40  1  0
 16 41  1  0
 17 42  1  0
 19 43  1  0
 20 44  1  0
 21 45  1  0
 22 46  1  0
 23 47  1  0
 24 48  1  0
 24 49  1  0
 25 50  1  0
 25 51  1  0
 26 52  1  0
 26 53  1  0
 27 54  1  0
 27 55  1  0
 28 56  1  0
 28 57  1  0
M  END
$$$$
OCNT-2313195
     RDKit          3D

 57 60  0  0  0  0  0  0  0  0999 V2000
    4.9634   -2.2114   -0.5871 C   0  0  0  0  0  0  0  0  0  0  0  0
    5.5937   -0.8510   -0.7053 C   0  0  0  0  0  0  0  0  0  0  0  0
    6.9261   -0.7369   -1.1302 C   0  0  0  0  0  0  0  0  0  0  0  0
    7.5258    0.5154   -1.2497 C   0  0  0  0  0  0  0  0  0  0  0  0
    6.8001    1.6634   -0.9445 C   0  0  0  0  0  0  0  0  0  0  0  0
    5.4729    1.5631   -0.5199 C   0  0  0  0  0  0  0  0  0  0  0  0
    4.8613    0.3113   -0.4006 C   0  0  0  0  0  0  0  0  0  0  0  0
    3.5698    0.1058    0.0070 O   0  0  0  0  0  0  0  0  0  0  0  0
    2.7515    1.2606    0.2242 C   0  0  0  0  0  0  0  0  0  0  0  0
    1.3352    0.7887    0.5967 C   0  0  0  0  0  0  0  0  0  0  0  0
    1.4214    0.0641    1.8334 O   0  0  0  0  0  0  0  0  0  0  0  0
    0.7325   -0.1013   -0.5228 C   0  0  0  0  0  0  0  0  0  0  0  0
   -0.7148   -0.3310   -0.5305 N   0  0  0  0  0  0  0  0  0  0  0  0
   -1.2696   -1.0566    0.6157 C   0  0  0  0  0  0  0  0  0  0  0  0
   -2.7154   -0.5423    0.7827 C   0  0  0  0  0  0  0  0  0  0  0  0
   -3.7438   -1.6718    0.9880 C   0  0  0  0  0  0  0  0  0  0  0  0
   -4.0831   -2.4335   -0.2872 C   0  0  0  0  0  0  0  0  0  0  0  0
   -4.5723   -1.4782   -1.3662 C   0  0  0  0  0  0  0  0  0  0  0  0
   -3.5009   -0.4479   -1.6999 C   0  0  0  0  0  0  0  0  0  0  0  0
   -2.9582    0.3149   -0.4726 C   0  0  0  0  0  0  0  0  0  0  0  0
   -3.9198    1.3910    0.0275 C   0  0  0  0  0  0  0  0  0  0  0  0
   -3.4066    1.7194    1.3585 N   0  0  0  0  0  0  0  0  0  0  0  0
   -4.3965    2.3569    2.2112 C   0  0  0  0  0  0  0  0  0  0  0  0
   -2.8415    0.4894    1.9411 C   0  0  0  0  0  0  0  0  0  0  0  0
   -1.5427    0.8527   -0.7646 C   0  0  0  0  0  0  0  0  0  0  0  0
    4.6320   -2.3877    0.4417 H   0  0  0  0  0  0  0  0  0  0  0  0
    5.6701   -3.0065   -0.8479 H   0  0  0  0  0  0  0  0  0  0  0  0
    4.1070   -2.2917   -1.2647 H   0  0  0  0  0  0  0  0  0  0  0  0
    7.5049   -1.6259   -1.3710 H   0  0  0  0  0  0  0  0  0  0  0  0
    8.5582    0.5946   -1.5798 H   0  0  0  0  0  0  0  0  0  0  0  0
    7.2680    2.6405   -1.0352 H   0  0  0  0  0  0  0  0  0  0  0  0
    4.9474    2.4830   -0.2880 H   0  0  0  0  0  0  0  0  0  0  0  0
    2.7068    1.8754   -0.6825 H   0  0  0  0  0  0  0  0  0  0  0  0
    3.1637    1.8398    1.0591 H   0  0  0  0  0  0  0  0  0  0  0  0
    0.7164    1.6719    0.7773 H   0  0  0  0  0  0  0  0  0  0  0  0
    2.1045   -0.6200    1.6971 H   0  0  0  0  0  0  0  0  0  0  0  0
    0.9910    0.3342   -1.4965 H   0  0  0  0  0  0  0  0  0  0  0  0
    1.2170   -1.0860   -0.4955 H   0  0  0  0  0  0  0  0  0  0  0  0
   -0.7108   -0.9223    1.5437 H   0  0  0  0  0  0  0  0  0  0  0  0
   -1.2438   -2.1274    0.3864 H   0  0  0  0  0  0  0  0  0  0  0  0
   -4.6812   -1.2560    1.3816 H   0  0  0  0  0  0  0  0  0  0  0  0
   -3.3793   -2.3726    1.7492 H   0  0  0  0  0  0  0  0  0  0  0  0
   -4.8633   -3.1729   -0.0730 H   0  0  0  0  0  0  0  0  0  0  0  0
   -3.2089   -2.9892   -0.6454 H   0  0  0  0  0  0  0  0  0  0  0  0
   -5.4913   -0.9794   -1.0381 H   0  0  0  0  0  0  0  0  0  0  0  0
   -4.8270   -2.0445   -2.2694 H   0  0  0  0  0  0  0  0  0  0  0  0
   -3.8969    0.2660   -2.4329 H   0  0  0  0  0  0  0  0  0  0  0  0
   -2.6860   -0.9768   -2.2112 H   0  0  0  0  0  0  0  0  0  0  0  0
   -4.9443    1.0042    0.0862 H   0  0  0  0  0  0  0  0  0  0  0  0
   -3.9205    2.2723   -0.6227 H   0  0  0  0  0  0  0  0  0  0  0  0
   -3.9552    2.6215    3.1783 H   0  0  0  0  0  0  0  0  0  0  0  0
   -4.7503    3.2887    1.7563 H   0  0  0  0  0  0  0  0  0  0  0  0
   -5.2640    1.7122    2.3934 H   0  0  0  0  0  0  0  0  0  0  0  0
   -3.4638    0.0923    2.7531 H   0  0  0  0  0  0  0  0  0  0  0  0
   -1.8703    0.7382    2.3831 H   0  0  0  0  0  0  0  0  0  0  0  0
   -1.2690    1.6804   -0.1031 H   0  0  0  0  0  0  0  0  0  0  0  0
   -1.4495    1.2088   -1.7965 H   0  0  0  0  0  0  0  0  0  0  0  0
  1  2  1  0
  2  3  2  0
  3  4  1  0
  4  5  2  0
  5  6  1  0
  6  7  2  0
  7  8  1  0
  8  9  1  0
  9 10  1  0
 10 11  1  0
 10 12  1  0
 12 13  1  0
 13 14  1  0
 14 15  1  0
 15 16  1  0
 16 17  1  0
 17 18  1  0
 18 19  1  0
 19 20  1  0
 20 21  1  0
 21 22  1  0
 22 23  1  0
 22 24  1  0
 20 25  1  0
  7  2  1  0
 25 13  1  0
 20 15  1  0
 24 15  1  0
  1 26  1  0
  1 27  1  0
  1 28  1  0
  3 29  1  0
  4 30  1  0
  5 31  1  0
  6 32  1  0
  9 33  1  0
  9 34  1  0
 10 35  1  0
 11 36  1  0
 12 37  1  0
 12 38  1  0
 14 39  1  0
 14 40  1  0
 16 41  1  0
 16 42  1  0
 17 43  1  0
 17 44  1  0
 18 45  1  0
 18 46  1  0
 19 47  1  0
 19 48  1  0
 21 49  1  0
 21 50  1  0
 23 51  1  0
 23 52  1  0
 23 53  1  0
 24 54  1  0
 24 55  1  0
 25 56  1  0
 25 57  1  0
M  END
$$$$
OCNT-2313201
     RDKit          3D

 57 59  0  0  0  0  0  0  0  0999 V2000
    8.5176    2.1904    0.4906 C   0  0  0  0  0  0  0  0  0  0  0  0
    8.8233    0.7349    0.1523 C   0  0  0  0  0  0  0  0  0  0  0  0
    8.0494   -0.2973    0.9916 C   0  0  0  0  0  0  0  0  0  0  0  0
    8.3975   -0.2273    2.4784 C   0  0  0  0  0  0  0  0  0  0  0  0
    6.6107   -0.1652    0.8053 N   0  0  0  0  0  0  0  0  0  0  0  0
    5.9617   -0.7037   -0.2843 C   0  0  0  0  0  0  0  0  0  0  0  0
    6.5026   -1.3934   -1.1396 O   0  0  0  0  0  0  0  0  0  0  0  0
    4.5071   -0.4201   -0.3702 C   0  0  0  0  0  0  0  0  0  0  0  0
    3.9875    0.8381   -0.0538 C   0  0  0  0  0  0  0  0  0  0  0  0
    2.6113    1.0663   -0.1541 C   0  0  0  0  0  0  0  0  0  0  0  0
    1.7416    0.0438   -0.5611 C   0  0  0  0  0  0  0  0  0  0  0  0
    0.3691    0.3579   -0.6358 N   0  0  0  0  0  0  0  0  0  0  0  0
   -0.6888   -0.5202   -0.8266 C   0  0  0  0  0  0  0  0  0  0  0  0
   -0.5883   -1.7400   -0.8767 O   0  0  0  0  0  0  0  0  0  0  0  0
   -1.8772    0.1702   -0.9355 N   0  0  0  0  0  0  0  0  0  0  0  0
   -3.1249   -0.3947   -1.0313 C   0  0  0  0  0  0  0  0  0  0  0  0
   -4.1782    0.4106   -1.1992 N   0  0  0  0  0  0  0  0  0  0  0  0
   -5.2376   -0.4290   -1.2025 N   0  0  0  0  0  0  0  0  0  0  0  0
   -6.5885    0.0923   -1.3776 C   0  0  0  0  0  0  0  0  0  0  0  0
   -7.2500    0.3988   -0.0508 C   0  0  0  0  0  0  0  0  0  0  0  0
   -6.8542    1.5656    0.6347 C   0  0  0  0  0  0  0  0  0  0  0  0
   -7.4155    1.9056    1.8636 C   0  0  0  0  0  0  0  0  0  0  0  0
   -8.3856    1.0869    2.4295 C   0  0  0  0  0  0  0  0  0  0  0  0
   -8.7885   -0.0743    1.7699 C   0  0  0  0  0  0  0  0  0  0  0  0
   -8.2303   -0.4355    0.5307 C   0  0  0  0  0  0  0  0  0  0  0  0
   -8.7054   -1.7030   -0.1291 C   0  0  0  0  0  0  0  0  0  0  0  0
   -4.8807   -1.7422   -1.0962 C   0  0  0  0  0  0  0  0  0  0  0  0
   -3.5119   -1.7495   -0.9657 C   0  0  0  0  0  0  0  0  0  0  0  0
    2.2737   -1.2053   -0.8905 C   0  0  0  0  0  0  0  0  0  0  0  0
    3.6509   -1.4346   -0.8050 C   0  0  0  0  0  0  0  0  0  0  0  0
    7.4568    2.4211    0.3457 H   0  0  0  0  0  0  0  0  0  0  0  0
    8.7874    2.4295    1.5247 H   0  0  0  0  0  0  0  0  0  0  0  0
    9.0947    2.8535   -0.1633 H   0  0  0  0  0  0  0  0  0  0  0  0
    9.8988    0.5643    0.2789 H   0  0  0  0  0  0  0  0  0  0  0  0
    8.6024    0.5747   -0.9117 H   0  0  0  0  0  0  0  0  0  0  0  0
    8.3354   -1.2933    0.6303 H   0  0  0  0  0  0  0  0  0  0  0  0
    9.4780   -0.3179    2.6350 H   0  0  0  0  0  0  0  0  0  0  0  0
    8.0583    0.7090    2.9358 H   0  0  0  0  0  0  0  0  0  0  0  0
    7.9091   -1.0456    3.0232 H   0  0  0  0  0  0  0  0  0  0  0  0
    6.0838    0.3683    1.4832 H   0  0  0  0  0  0  0  0  0  0  0  0
    4.6424    1.6538    0.2405 H   0  0  0  0  0  0  0  0  0  0  0  0
    2.2318    2.0546    0.0893 H   0  0  0  0  0  0  0  0  0  0  0  0
    0.1119    1.3040   -0.3926 H   0  0  0  0  0  0  0  0  0  0  0  0
   -1.8899    1.1709   -1.0357 H   0  0  0  0  0  0  0  0  0  0  0  0
   -6.5215    1.0017   -1.9895 H   0  0  0  0  0  0  0  0  0  0  0  0
   -7.1501   -0.6391   -1.9665 H   0  0  0  0  0  0  0  0  0  0  0  0
   -6.0866    2.2129    0.2107 H   0  0  0  0  0  0  0  0  0  0  0  0
   -7.0910    2.8037    2.3797 H   0  0  0  0  0  0  0  0  0  0  0  0
   -8.8192    1.3424    3.3923 H   0  0  0  0  0  0  0  0  0  0  0  0
   -9.5440   -0.7046    2.2360 H   0  0  0  0  0  0  0  0  0  0  0  0
   -9.4567   -2.2165    0.4813 H   0  0  0  0  0  0  0  0  0  0  0  0
   -9.1654   -1.4809   -1.0987 H   0  0  0  0  0  0  0  0  0  0  0  0
   -7.8717   -2.3981   -0.2658 H   0  0  0  0  0  0  0  0  0  0  0  0
   -5.6063   -2.5418   -1.1053 H   0  0  0  0  0  0  0  0  0  0  0  0
   -2.8835   -2.6193   -0.8373 H   0  0  0  0  0  0  0  0  0  0  0  0
    1.6458   -2.0225   -1.2356 H   0  0  0  0  0  0  0  0  0  0  0  0
    4.0508   -2.4107   -1.0754 H   0  0  0  0  0  0  0  0  0  0  0  0
  1  2  1  0
  2  3  1  0
  3  4  1  0
  3  5  1  0
  5  6  1  0
  6  7  2  0
  6  8  1  0
  8  9  1  0
  9 10  2  0
 10 11  1  0
 11 12  1  0
 12 13  1  0
 13 14  2  0
 13 15  1  0
 15 16  1  0
 16 17  2  0
 17 18  1  0
 18 19  1  0
 19 20  1  0
 20 21  2  0
 21 22  1  0
 22 23  2  0
 23 24  1  0
 24 25  2  0
 25 26  1  0
 18 27  1  0
 27 28  2  0
 11 29  2  0
 29 30  1  0
 30  8  2  0
 28 16  1  0
 25 20  1  0
  1 31  1  0
  1 32  1  0
  1 33  1  0
  2 34  1  0
  2 35  1  0
  3 36  1  0
  4 37  1  0
  4 38  1  0
  4 39  1  0
  5 40  1  0
  9 41  1  0
 10 42  1  0
 12 43  1  0
 15 44  1  0
 19 45  1  0
 19 46  1  0
 21 47  1  0
 22 48  1  0
 23 49  1  0
 24 50  1  0
 26 51  1  0
 26 52  1  0
 26 53  1  0
 27 54  1  0
 28 55  1  0
 29 56  1  0
 30 57  1  0
M  END
$$$$
OCNT-2313211
     RDKit          3D

  0  0  0  0  0  0  0  0  0  0999 V3000
M  V30 BEGIN CTAB
M  V30 COUNTS 50 52 0 0 0
M  V30 BEGIN ATOM
M  V30 1 C 4.384711 0.840504 2.144433 0
M  V30 2 C 4.130473 -0.320752 1.253501 0
M  V30 3 N 4.483500 -1.552315 1.641739 0
M  V30 4 N 4.101132 -2.338946 0.629228 0
M  V30 5 C 3.529258 -1.661396 -0.409600 0
M  V30 6 C 3.033068 -2.359450 -1.616084 0
M  V30 7 C 3.527793 -0.328004 -0.036093 0
M  V30 8 C 3.005495 0.847136 -0.789222 0
M  V30 9 C 1.683113 1.323874 -0.212361 0
M  V30 10 O 1.608088 2.264611 0.572790 0
M  V30 11 N 0.589268 0.607255 -0.662772 0
M  V30 12 C -0.727234 0.779157 -0.055756 0 CFG=1
M  V30 13 C -1.282118 2.211183 -0.055035 0
M  V30 14 N -2.715912 2.001183 0.185533 0
M  V30 15 C -3.548949 3.187625 -0.109459 0
M  V30 16 C -3.258902 4.488849 0.664826 0
M  V30 17 F -4.201507 5.419659 0.376177 0
M  V30 18 F -2.062673 5.015334 0.323395 0
M  V30 19 F -3.272982 4.302443 2.001012 0
M  V30 20 C -3.109240 0.817460 -0.589599 0
M  V30 21 C -1.812657 0.030225 -0.853942 0 CFG=2
M  V30 22 C -1.904765 -1.453321 -0.567175 0
M  V30 23 C -1.769722 -2.373591 -1.617655 0
M  V30 24 C -1.857931 -3.746884 -1.378646 0
M  V30 25 C -2.077521 -4.218870 -0.087894 0
M  V30 26 C -2.215944 -3.317235 0.964163 0
M  V30 27 C -2.135450 -1.942888 0.726861 0
M  V30 28 H 4.740478 1.700645 1.567216 0
M  V30 29 H 3.464408 1.132388 2.657238 0
M  V30 30 H 5.138021 0.605175 2.902951 0
M  V30 31 H 4.260907 -3.336503 0.714957 0
M  V30 32 H 3.165737 -1.739142 -2.507230 0
M  V30 33 H 1.967063 -2.583768 -1.510130 0
M  V30 34 H 3.568588 -3.298641 -1.780169 0
M  V30 35 H 2.866581 0.609514 -1.849844 0
M  V30 36 H 3.720018 1.678310 -0.751884 0
M  V30 37 H 0.810955 -0.347704 -0.917459 0
M  V30 38 H -0.652743 0.419724 0.978593 0
M  V30 39 H -0.836262 2.817769 0.737254 0
M  V30 40 H -1.099687 2.697613 -1.020574 0
M  V30 41 H -3.491765 3.421603 -1.180165 0
M  V30 42 H -4.593539 2.921426 0.098113 0
M  V30 43 H -3.556558 1.088919 -1.554314 0
M  V30 44 H -3.855788 0.245152 -0.032520 0
M  V30 45 H -1.578368 0.155450 -1.923277 0
M  V30 46 H -1.603761 -2.029311 -2.635910 0
M  V30 47 H -1.760453 -4.448897 -2.203149 0
M  V30 48 H -2.145647 -5.287653 0.096251 0
M  V30 49 H -2.392635 -3.683079 1.970834 0
M  V30 50 H -2.257942 -1.261832 1.564592 0
M  V30 END ATOM
M  V30 BEGIN BOND
M  V30 1 1 1 2
M  V30 2 2 2 3
M  V30 3 1 3 4
M  V30 4 1 4 5
M  V30 5 1 5 6
M  V30 6 2 5 7
M  V30 7 1 7 8
M  V30 8 1 8 9
M  V30 9 2 9 10
M  V30 10 1 9 11
M  V30 11 1 11 12
M  V30 12 1 12 13
M  V30 13 1 13 14
M  V30 14 1 14 15
M  V30 15 1 15 16
M  V30 16 1 16 17
M  V30 17 1 16 18
M  V30 18 1 16 19
M  V30 19 1 14 20
M  V30 20 1 20 21
M  V30 21 1 21 22
M  V30 22 2 22 23
M  V30 23 1 23 24
M  V30 24 2 24 25
M  V30 25 1 25 26
M  V30 26 2 26 27
M  V30 27 1 7 2
M  V30 28 1 21 12
M  V30 29 1 27 22
M  V30 30 1 1 28
M  V30 31 1 1 29
M  V30 32 1 1 30
M  V30 33 1 4 31
M  V30 34 1 6 32
M  V30 35 1 6 33
M  V30 36 1 6 34
M  V30 37 1 8 35
M  V30 38 1 8 36
M  V30 39 1 11 37
M  V30 40 1 12 38 CFG=1
M  V30 41 1 13 39
M  V30 42 1 13 40
M  V30 43 1 15 41
M  V30 44 1 15 42
M  V30 45 1 20 43
M  V30 46 1 20 44
M  V30 47 1 21 45 CFG=3
M  V30 48 1 23 46
M  V30 49 1 24 47
M  V30 50 1 25 48
M  V30 51 1 26 49
M  V30 52 1 27 50
M  V30 END BOND
M  V30 BEGIN COLLECTION
M  V30 MDLV30/STERAC1 ATOMS=(2 12 21)
M  V30 END COLLECTION
M  V30 END CTAB
M  END
>  <_CXSMILES_Data>  (719) 
|&1:11,20|

$$$$
OCNT-2313233
     RDKit          3D

 43 45  0  0  0  0  0  0  0  0999 V2000
    6.6888   -2.3854   -2.8744 N   0  0  0  0  0  0  0  0  0  0  0  0
    6.0121   -2.0936   -1.9779 C   0  0  0  0  0  0  0  0  0  0  0  0
    5.1719   -1.7224   -0.8771 C   0  0  0  0  0  0  0  0  0  0  0  0
    4.4819   -2.7040   -0.1600 C   0  0  0  0  0  0  0  0  0  0  0  0
    3.6672   -2.3408    0.9121 C   0  0  0  0  0  0  0  0  0  0  0  0
    3.5377   -0.9977    1.2681 C   0  0  0  0  0  0  0  0  0  0  0  0
    4.2165   -0.0000    0.5531 C   0  0  0  0  0  0  0  0  0  0  0  0
    4.0720    1.4515    0.9462 C   0  0  0  0  0  0  0  0  0  0  0  0
    2.6378    1.9415    0.8587 C   0  0  0  0  0  0  0  0  0  0  0  0
    1.9334    2.0989    1.8512 O   0  0  0  0  0  0  0  0  0  0  0  0
    2.1963    2.1788   -0.4256 N   0  0  0  0  0  0  0  0  0  0  0  0
    0.8218    2.5649   -0.6912 C   0  0  0  0  0  0  0  0  0  0  0  0
   -0.1712    1.3992   -0.5445 C   0  0  0  0  0  0  0  0  0  0  0  0
   -1.5010    1.8218   -0.9897 N   0  0  0  0  0  0  0  0  0  0  0  0
   -2.4835    0.8392   -0.8372 C   0  0  0  0  0  0  0  0  0  0  0  0
   -2.4120   -0.3842   -1.4870 C   0  0  0  0  0  0  0  0  0  0  0  0
   -3.4360   -1.3064   -1.2992 C   0  0  0  0  0  0  0  0  0  0  0  0
   -4.5137   -0.9809   -0.4713 C   0  0  0  0  0  0  0  0  0  0  0  0
   -5.5745   -1.8766   -0.2469 C   0  0  0  0  0  0  0  0  0  0  0  0
   -6.6347   -1.5165    0.5821 C   0  0  0  0  0  0  0  0  0  0  0  0
   -6.6387   -0.2646    1.1865 C   0  0  0  0  0  0  0  0  0  0  0  0
   -5.5815    0.6220    0.9589 C   0  0  0  0  0  0  0  0  0  0  0  0
   -4.5115    0.2898    0.1382 C   0  0  0  0  0  0  0  0  0  0  0  0
   -3.5183    1.1788   -0.0475 N   0  0  0  0  0  0  0  0  0  0  0  0
    5.0398   -0.3741   -0.5195 C   0  0  0  0  0  0  0  0  0  0  0  0
    4.5769   -3.7549   -0.4271 H   0  0  0  0  0  0  0  0  0  0  0  0
    3.1338   -3.1039    1.4748 H   0  0  0  0  0  0  0  0  0  0  0  0
    2.9004   -0.7324    2.1121 H   0  0  0  0  0  0  0  0  0  0  0  0
    4.6964    2.0943    0.3137 H   0  0  0  0  0  0  0  0  0  0  0  0
    4.4300    1.5879    1.9736 H   0  0  0  0  0  0  0  0  0  0  0  0
    2.7602    1.8578   -1.2026 H   0  0  0  0  0  0  0  0  0  0  0  0
    0.5479    3.3779   -0.0085 H   0  0  0  0  0  0  0  0  0  0  0  0
    0.7950    2.9634   -1.7115 H   0  0  0  0  0  0  0  0  0  0  0  0
   -0.2049    1.0657    0.5001 H   0  0  0  0  0  0  0  0  0  0  0  0
    0.1905    0.5589   -1.1495 H   0  0  0  0  0  0  0  0  0  0  0  0
   -1.8531    2.5820   -0.4034 H   0  0  0  0  0  0  0  0  0  0  0  0
   -1.5852   -0.6159   -2.1478 H   0  0  0  0  0  0  0  0  0  0  0  0
   -3.3904   -2.2665   -1.8054 H   0  0  0  0  0  0  0  0  0  0  0  0
   -5.5786   -2.8567   -0.7179 H   0  0  0  0  0  0  0  0  0  0  0  0
   -7.4541   -2.2095    0.7544 H   0  0  0  0  0  0  0  0  0  0  0  0
   -7.4604    0.0283    1.8348 H   0  0  0  0  0  0  0  0  0  0  0  0
   -5.5919    1.5998    1.4347 H   0  0  0  0  0  0  0  0  0  0  0  0
    5.5869    0.3846   -1.0778 H   0  0  0  0  0  0  0  0  0  0  0  0
  1  2  3  0
  2  3  1  0
  3  4  1  0
  4  5  2  0
  5  6  1  0
  6  7  2  0
  7  8  1  0
  8  9  1  0
  9 10  2  0
  9 11  1  0
 11 12  1  0
 12 13  1  0
 13 14  1  0
 14 15  1  0
 15 16  1  0
 16 17  2  0
 17 18  1  0
 18 19  2  0
 19 20  1  0
 20 21  2  0
 21 22  1  0
 22 23  2  0
 23 24  1  0
  7 25  1  0
 25  3  2  0
 24 15  2  0
 23 18  1  0
  4 26  1  0
  5 27  1  0
  6 28  1  0
  8 29  1  0
  8 30  1  0
 11 31  1  0
 12 32  1  0
 12 33  1  0
 13 34  1  0
 13 35  1  0
 14 36  1  0
 16 37  1  0
 17 38  1  0
 19 39  1  0
 20 40  1  0
 21 41  1  0
 22 42  1  0
 25 43  1  0
M  END
$$$$
OCNT-2313237
     RDKit          3D

 62 66  0  0  0  0  0  0  0  0999 V2000
   -5.9674   -0.3115   -2.9870 C   0  0  0  0  0  0  0  0  0  0  0  0
   -5.3490    0.4081   -1.8197 C   0  0  0  0  0  0  0  0  0  0  0  0
   -5.9123    1.5860   -1.3388 C   0  0  0  0  0  0  0  0  0  0  0  0
   -5.3563    2.2235   -0.2309 C   0  0  0  0  0  0  0  0  0  0  0  0
   -4.2306    1.6992    0.4401 C   0  0  0  0  0  0  0  0  0  0  0  0
   -3.8018    2.4227    1.6854 C   0  0  0  0  0  0  0  0  0  0  0  0
   -3.6299    0.5331   -0.0652 C   0  0  0  0  0  0  0  0  0  0  0  0
   -2.4916   -0.1293    0.4510 N   0  0  0  0  0  0  0  0  0  0  0  0
   -1.4354    0.3535    1.1991 C   0  0  0  0  0  0  0  0  0  0  0  0
   -1.2116    1.5447    1.4126 O   0  0  0  0  0  0  0  0  0  0  0  0
   -0.4240   -0.7404    1.6883 C   0  0  0  0  0  0  0  0  0  0  0  0
   -0.9678   -2.1781    1.6799 C   0  0  0  0  0  0  0  0  0  0  0  0
   -0.4244   -3.1956    0.8838 C   0  0  0  0  0  0  0  0  0  0  0  0
   -0.9660   -4.4844    0.8886 C   0  0  0  0  0  0  0  0  0  0  0  0
   -2.0588   -4.7810    1.6956 C   0  0  0  0  0  0  0  0  0  0  0  0
   -2.6054   -3.7932    2.5072 C   0  0  0  0  0  0  0  0  0  0  0  0
   -2.0621   -2.5063    2.5062 C   0  0  0  0  0  0  0  0  0  0  0  0
    0.9063   -0.5980    1.0349 N   0  0  0  0  0  0  0  0  0  0  0  0
    0.8987   -0.3716   -0.4170 C   0  0  0  0  0  0  0  0  0  0  0  0
    1.4487    0.9986   -0.8295 C   0  0  0  0  0  0  0  0  0  0  0  0
    2.8882    1.2045   -0.3201 C   0  0  0  0  0  0  0  0  0  0  0  0
    3.9045    0.7446   -1.3286 C   0  0  0  0  0  0  0  0  0  0  0  0
    3.6846   -0.0555   -2.3589 N   0  0  0  0  0  0  0  0  0  0  0  0
    4.8641   -0.2160   -3.0470 N   0  0  0  0  0  0  0  0  0  0  0  0
    5.7905    0.4767   -2.4246 C   0  0  0  0  0  0  0  0  0  0  0  0
    7.1740    0.6817   -2.6773 C   0  0  0  0  0  0  0  0  0  0  0  0
    7.8937    1.4539   -1.8434 C   0  0  0  0  0  0  0  0  0  0  0  0
    7.2847    2.0951   -0.6861 C   0  0  0  0  0  0  0  0  0  0  0  0
    5.9737    1.9134   -0.4521 C   0  0  0  0  0  0  0  0  0  0  0  0
    5.2368    1.1053   -1.3169 N   0  0  0  0  0  0  0  0  0  0  0  0
    3.1106    0.5066    1.0341 C   0  0  0  0  0  0  0  0  0  0  0  0
    1.7957    0.2960    1.7779 C   0  0  0  0  0  0  0  0  0  0  0  0
   -4.2250   -0.1147   -1.1694 C   0  0  0  0  0  0  0  0  0  0  0  0
   -6.7879   -0.9533   -2.6405 H   0  0  0  0  0  0  0  0  0  0  0  0
   -5.2307   -0.9398   -3.5020 H   0  0  0  0  0  0  0  0  0  0  0  0
   -6.3511    0.3962   -3.7268 H   0  0  0  0  0  0  0  0  0  0  0  0
   -6.7918    2.0126   -1.8186 H   0  0  0  0  0  0  0  0  0  0  0  0
   -5.8290    3.1351    0.1285 H   0  0  0  0  0  0  0  0  0  0  0  0
   -3.0075    3.1461    1.4711 H   0  0  0  0  0  0  0  0  0  0  0  0
   -4.6428    2.9711    2.1213 H   0  0  0  0  0  0  0  0  0  0  0  0
   -3.4912    1.7156    2.4630 H   0  0  0  0  0  0  0  0  0  0  0  0
   -2.3407   -1.0597    0.0763 H   0  0  0  0  0  0  0  0  0  0  0  0
   -0.2842   -0.5301    2.7601 H   0  0  0  0  0  0  0  0  0  0  0  0
    0.4412   -3.0064    0.2551 H   0  0  0  0  0  0  0  0  0  0  0  0
   -0.5238   -5.2624    0.2703 H   0  0  0  0  0  0  0  0  0  0  0  0
   -2.4701   -5.7874    1.7022 H   0  0  0  0  0  0  0  0  0  0  0  0
   -3.4569   -4.0213    3.1416 H   0  0  0  0  0  0  0  0  0  0  0  0
   -2.5081   -1.7541    3.1544 H   0  0  0  0  0  0  0  0  0  0  0  0
   -0.0918   -0.5171   -0.8615 H   0  0  0  0  0  0  0  0  0  0  0  0
    1.5274   -1.1482   -0.8701 H   0  0  0  0  0  0  0  0  0  0  0  0
    1.3852    1.1151   -1.9174 H   0  0  0  0  0  0  0  0  0  0  0  0
    0.8066    1.7838   -0.4115 H   0  0  0  0  0  0  0  0  0  0  0  0
    3.0252    2.2865   -0.1893 H   0  0  0  0  0  0  0  0  0  0  0  0
    7.6247    0.2176   -3.5479 H   0  0  0  0  0  0  0  0  0  0  0  0
    8.9510    1.6178   -2.0251 H   0  0  0  0  0  0  0  0  0  0  0  0
    7.8997    2.7137   -0.0420 H   0  0  0  0  0  0  0  0  0  0  0  0
    5.4615    2.3735    0.3820 H   0  0  0  0  0  0  0  0  0  0  0  0
    3.6071   -0.4665    0.9030 H   0  0  0  0  0  0  0  0  0  0  0  0
    3.7850    1.1069    1.6594 H   0  0  0  0  0  0  0  0  0  0  0  0
    2.0215   -0.1506    2.7533 H   0  0  0  0  0  0  0  0  0  0  0  0
    1.3309    1.2701    1.9690 H   0  0  0  0  0  0  0  0  0  0  0  0
   -3.7947   -1.0361   -1.5624 H   0  0  0  0  0  0  0  0  0  0  0  0
  1  2  1  0
  2  3  1  0
  3  4  2  0
  4  5  1  0
  5  6  1  0
  5  7  2  0
  7  8  1  0
  8  9  1  0
  9 10  2  0
  9 11  1  0
 11 12  1  0
 12 13  2  0
 13 14  1  0
 14 15  2  0
 15 16  1  0
 16 17  2  0
 11 18  1  0
 18 19  1  0
 19 20  1  0
 20 21  1  0
 21 22  1  0
 22 23  2  0
 23 24  1  0
 24 25  2  0
 25 26  1  0
 26 27  2  0
 27 28  1  0
 28 29  2  0
 29 30  1  0
 21 31  1  0
 31 32  1  0
  7 33  1  0
 33  2  2  0
 17 12  1  0
 32 18  1  0
 30 22  1  0
 30 25  1  0
  1 34  1  0
  1 35  1  0
  1 36  1  0
  3 37  1  0
  4 38  1  0
  6 39  1  0
  6 40  1  0
  6 41  1  0
  8 42  1  0
 11 43  1  0
 13 44  1  0
 14 45  1  0
 15 46  1  0
 16 47  1  0
 17 48  1  0
 19 49  1  0
 19 50  1  0
 20 51  1  0
 20 52  1  0
 21 53  1  0
 26 54  1  0
 27 55  1  0
 28 56  1  0
 29 57  1  0
 31 58  1  0
 31 59  1  0
 32 60  1  0
 32 61  1  0
 33 62  1  0
M  END
$$$$
OCNT-2313239
     RDKit          3D

 56 57  0  0  0  0  0  0  0  0999 V2000
   -1.6947    2.7945    2.2448 C   0  0  0  0  0  0  0  0  0  0  0  0
   -2.0052    1.5613    1.4091 C   0  0  0  0  0  0  0  0  0  0  0  0
   -3.3418    1.6482    0.8343 N   0  0  0  0  0  0  0  0  0  0  0  0
   -4.0474    0.4879    0.5708 C   0  0  0  0  0  0  0  0  0  0  0  0
   -3.6866   -0.6102    0.9760 O   0  0  0  0  0  0  0  0  0  0  0  0
   -5.3004    0.7477   -0.2555 C   0  0  0  0  0  0  0  0  0  0  0  0
   -6.1960   -0.4686   -0.5933 C   0  0  0  0  0  0  0  0  0  0  0  0
   -7.3946    0.0460   -1.4191 C   0  0  0  0  0  0  0  0  0  0  0  0
   -5.4412   -1.5029   -1.4448 C   0  0  0  0  0  0  0  0  0  0  0  0
   -6.7467   -1.1350    0.6782 C   0  0  0  0  0  0  0  0  0  0  0  0
   -0.9900    1.4517    0.2546 C   0  0  0  0  0  0  0  0  0  0  0  0
   -1.2093    1.9202   -0.8617 O   0  0  0  0  0  0  0  0  0  0  0  0
    0.2078    0.8553    0.6056 N   0  0  0  0  0  0  0  0  0  0  0  0
    1.2113    0.5896   -0.4083 C   0  0  0  0  0  0  0  0  0  0  0  0
    2.5846    0.3498    0.2009 C   0  0  0  0  0  0  0  0  0  0  0  0
    2.7037   -0.9529    0.9889 C   0  0  0  0  0  0  0  0  0  0  0  0
    4.2129   -1.1764    1.0484 C   0  0  0  0  0  0  0  0  0  0  0  0
    4.6987   -0.6187   -0.2118 N   0  0  0  0  0  0  0  0  0  0  0  0
    5.9847   -0.7636   -0.6767 C   0  0  0  0  0  0  0  0  0  0  0  0
    6.3706   -0.2904   -1.9459 C   0  0  0  0  0  0  0  0  0  0  0  0
    7.6782   -0.4323   -2.4294 C   0  0  0  0  0  0  0  0  0  0  0  0
    8.6310   -1.0580   -1.6430 C   0  0  0  0  0  0  0  0  0  0  0  0
    9.8827   -1.1941   -2.1012 F   0  0  0  0  0  0  0  0  0  0  0  0
    8.2835   -1.5389   -0.3921 C   0  0  0  0  0  0  0  0  0  0  0  0
    9.2000   -2.1450    0.3760 F   0  0  0  0  0  0  0  0  0  0  0  0
    6.9802   -1.3966    0.0855 C   0  0  0  0  0  0  0  0  0  0  0  0
    3.6731    0.1926   -0.8680 C   0  0  0  0  0  0  0  0  0  0  0  0
   -2.4218    2.9075    3.0559 H   0  0  0  0  0  0  0  0  0  0  0  0
   -1.7291    3.7060    1.6372 H   0  0  0  0  0  0  0  0  0  0  0  0
   -0.6950    2.7291    2.6871 H   0  0  0  0  0  0  0  0  0  0  0  0
   -1.9353    0.6661    2.0369 H   0  0  0  0  0  0  0  0  0  0  0  0
   -3.4729    2.4015    0.1679 H   0  0  0  0  0  0  0  0  0  0  0  0
   -4.9725    1.2211   -1.1915 H   0  0  0  0  0  0  0  0  0  0  0  0
   -5.8948    1.4933    0.2911 H   0  0  0  0  0  0  0  0  0  0  0  0
   -8.0661   -0.7731   -1.6998 H   0  0  0  0  0  0  0  0  0  0  0  0
   -7.9821    0.7767   -0.8518 H   0  0  0  0  0  0  0  0  0  0  0  0
   -7.0602    0.5321   -2.3426 H   0  0  0  0  0  0  0  0  0  0  0  0
   -4.6235   -1.9747   -0.8926 H   0  0  0  0  0  0  0  0  0  0  0  0
   -5.0154   -1.0398   -2.3418 H   0  0  0  0  0  0  0  0  0  0  0  0
   -6.1118   -2.3058   -1.7733 H   0  0  0  0  0  0  0  0  0  0  0  0
   -5.9578   -1.6003    1.2759 H   0  0  0  0  0  0  0  0  0  0  0  0
   -7.4661   -1.9233    0.4280 H   0  0  0  0  0  0  0  0  0  0  0  0
   -7.2626   -0.4068    1.3140 H   0  0  0  0  0  0  0  0  0  0  0  0
    0.1719    0.2274    1.4001 H   0  0  0  0  0  0  0  0  0  0  0  0
    1.2516    1.4456   -1.0926 H   0  0  0  0  0  0  0  0  0  0  0  0
    0.8710   -0.2771   -0.9876 H   0  0  0  0  0  0  0  0  0  0  0  0
    2.8500    1.1867    0.8622 H   0  0  0  0  0  0  0  0  0  0  0  0
    2.2589   -0.8922    1.9865 H   0  0  0  0  0  0  0  0  0  0  0  0
    2.2241   -1.7791    0.4498 H   0  0  0  0  0  0  0  0  0  0  0  0
    4.6473   -0.6327    1.8952 H   0  0  0  0  0  0  0  0  0  0  0  0
    4.4338   -2.2442    1.1497 H   0  0  0  0  0  0  0  0  0  0  0  0
    5.6477    0.1955   -2.5961 H   0  0  0  0  0  0  0  0  0  0  0  0
    7.9487   -0.0598   -3.4122 H   0  0  0  0  0  0  0  0  0  0  0  0
    6.7698   -1.7879    1.0752 H   0  0  0  0  0  0  0  0  0  0  0  0
    4.0472    1.1789   -1.1647 H   0  0  0  0  0  0  0  0  0  0  0  0
    3.2962   -0.3318   -1.7539 H   0  0  0  0  0  0  0  0  0  0  0  0
  1  2  1  0
  2  3  1  0
  3  4  1  0
  4  5  2  0
  4  6  1  0
  6  7  1  0
  7  8  1  0
  7  9  1  0
  7 10  1  0
  2 11  1  0
 11 12  2  0
 11 13  1  0
 13 14  1  0
 14 15  1  0
 15 16  1  0
 16 17  1  0
 17 18  1  0
 18 19  1  0
 19 20  1  0
 20 21  2  0
 21 22  1  0
 22 23  1  0
 22 24  2  0
 24 25  1  0
 24 26  1  0
 18 27  1  0
 27 15  1  0
 26 19  2  0
  1 28  1  0
  1 29  1  0
  1 30  1  0
  2 31  1  0
  3 32  1  0
  6 33  1  0
  6 34  1  0
  8 35  1  0
  8 36  1  0
  8 37  1  0
  9 38  1  0
  9 39  1  0
  9 40  1  0
 10 41  1  0
 10 42  1  0
 10 43  1  0
 13 44  1  0
 14 45  1  0
 14 46  1  0
 15 47  1  0
 16 48  1  0
 16 49  1  0
 17 50  1  0
 17 51  1  0
 20 52  1  0
 21 53  1  0
 26 54  1  0
 27 55  1  0
 27 56  1  0
M  END
$$$$
OCNT-2313241
     RDKit          3D

 40 42  0  0  0  0  0  0  0  0999 V2000
   -3.4243    1.2056    2.9270 C   0  0  0  0  0  0  0  0  0  0  0  0
   -2.9501    0.6497    1.7056 O   0  0  0  0  0  0  0  0  0  0  0  0
   -3.8439   -0.0947    0.9679 C   0  0  0  0  0  0  0  0  0  0  0  0
   -5.1633   -0.3618    1.3437 C   0  0  0  0  0  0  0  0  0  0  0  0
   -5.9753   -1.1341    0.5130 C   0  0  0  0  0  0  0  0  0  0  0  0
   -7.6003   -1.4624    0.9779 Cl  0  0  0  0  0  0  0  0  0  0  0  0
   -5.4861   -1.6438   -0.6860 C   0  0  0  0  0  0  0  0  0  0  0  0
   -4.1684   -1.3810   -1.0674 C   0  0  0  0  0  0  0  0  0  0  0  0
   -3.3418   -0.6064   -0.2504 C   0  0  0  0  0  0  0  0  0  0  0  0
   -1.9988   -0.2998   -0.5643 N   0  0  0  0  0  0  0  0  0  0  0  0
   -1.2960   -0.6199   -1.7070 C   0  0  0  0  0  0  0  0  0  0  0  0
   -1.7346   -1.1874   -2.7004 O   0  0  0  0  0  0  0  0  0  0  0  0
    0.1287   -0.1810   -1.7129 C   0  0  0  0  0  0  0  0  0  0  0  0
    0.7041    0.1963   -2.9292 C   0  0  0  0  0  0  0  0  0  0  0  0
    2.0338    0.6080   -2.9694 C   0  0  0  0  0  0  0  0  0  0  0  0
    2.7963    0.6307   -1.7978 C   0  0  0  0  0  0  0  0  0  0  0  0
    2.2471    0.2401   -0.5708 C   0  0  0  0  0  0  0  0  0  0  0  0
    2.9765    0.1972    0.6301 N   0  0  0  0  0  0  0  0  0  0  0  0
    4.3461    0.2630    0.8903 C   0  0  0  0  0  0  0  0  0  0  0  0
    5.3236   -0.2915    0.0629 C   0  0  0  0  0  0  0  0  0  0  0  0
    6.6557   -0.2380    0.3256 N   0  0  0  0  0  0  0  0  0  0  0  0
    6.9831    0.3818    1.4771 C   0  0  0  0  0  0  0  0  0  0  0  0
    6.0264    0.9152    2.3213 C   0  0  0  0  0  0  0  0  0  0  0  0
    4.6999    0.8621    2.0504 N   0  0  0  0  0  0  0  0  0  0  0  0
    0.9049   -0.1712   -0.5441 C   0  0  0  0  0  0  0  0  0  0  0  0
   -4.2497    1.9028    2.7494 H   0  0  0  0  0  0  0  0  0  0  0  0
   -2.6024    1.7710    3.3767 H   0  0  0  0  0  0  0  0  0  0  0  0
   -3.7120    0.4191    3.6323 H   0  0  0  0  0  0  0  0  0  0  0  0
   -5.5818    0.0140    2.2704 H   0  0  0  0  0  0  0  0  0  0  0  0
   -6.1195   -2.2471   -1.3312 H   0  0  0  0  0  0  0  0  0  0  0  0
   -3.8152   -1.7967   -2.0060 H   0  0  0  0  0  0  0  0  0  0  0  0
   -1.5512    0.2848    0.1339 H   0  0  0  0  0  0  0  0  0  0  0  0
    0.1159    0.1734   -3.8447 H   0  0  0  0  0  0  0  0  0  0  0  0
    2.4787    0.9138   -3.9134 H   0  0  0  0  0  0  0  0  0  0  0  0
    3.8208    0.9866   -1.8656 H   0  0  0  0  0  0  0  0  0  0  0  0
    2.4878    0.6165    1.4160 H   0  0  0  0  0  0  0  0  0  0  0  0
    5.0599   -0.8285   -0.8414 H   0  0  0  0  0  0  0  0  0  0  0  0
    8.0405    0.4349    1.7087 H   0  0  0  0  0  0  0  0  0  0  0  0
    6.3013    1.4049    3.2486 H   0  0  0  0  0  0  0  0  0  0  0  0
    0.4836   -0.5262    0.3934 H   0  0  0  0  0  0  0  0  0  0  0  0
  1  2  1  0
  2  3  1  0
  3  4  1  0
  4  5  2  0
  5  6  1  0
  5  7  1  0
  7  8  2  0
  8  9  1  0
  9 10  1  0
 10 11  1  0
 11 12  2  0
 11 13  1  0
 13 14  1  0
 14 15  2  0
 15 16  1  0
 16 17  2  0
 17 18  1  0
 18 19  1  0
 19 20  2  0
 20 21  1  0
 21 22  2  0
 22 23  1  0
 23 24  2  0
 17 25  1  0
  9  3  2  0
 25 13  2  0
 24 19  1  0
  1 26  1  0
  1 27  1  0
  1 28  1  0
  4 29  1  0
  7 30  1  0
  8 31  1  0
 10 32  1  0
 14 33  1  0
 15 34  1  0
 16 35  1  0
 18 36  1  0
 20 37  1  0
 22 38  1  0
 23 39  1  0
 25 40  1  0
M  END
$$$$
OCNT-2313250
     RDKit          3D

 44 47  0  0  0  0  0  0  0  0999 V2000
   -1.1671   -1.2805    0.6632 O   0  0  0  0  0  0  0  0  0  0  0  0
   -1.4272   -0.0841    0.6701 C   0  0  0  0  0  0  0  0  0  0  0  0
   -2.8521    0.4406    0.5420 C   0  0  0  0  0  0  0  0  0  0  0  0
   -3.8964   -0.6719    0.5162 C   0  0  0  0  0  0  0  0  0  0  0  0
   -3.9456   -1.4771   -0.7946 C   0  0  0  0  0  0  0  0  0  0  0  0
   -5.4292   -1.4068   -1.1591 C   0  0  0  0  0  0  0  0  0  0  0  0
   -5.7790   -0.0185   -1.6927 C   0  0  0  0  0  0  0  0  0  0  0  0
   -5.7551    0.8271   -0.4186 C   0  0  0  0  0  0  0  0  0  0  0  0
   -5.3526   -0.1994    0.6391 C   0  0  0  0  0  0  0  0  0  0  0  0
   -6.0499   -1.3704    0.1470 O   0  0  0  0  0  0  0  0  0  0  0  0
   -0.5143    0.9552    0.7723 N   0  0  0  0  0  0  0  0  0  0  0  0
    0.8871    0.8573    0.9051 C   0  0  0  0  0  0  0  0  0  0  0  0
    1.5833   -0.3519    0.9724 C   0  0  0  0  0  0  0  0  0  0  0  0
    2.9766   -0.3665    1.1055 C   0  0  0  0  0  0  0  0  0  0  0  0
    3.6892    0.8336    1.1558 C   0  0  0  0  0  0  0  0  0  0  0  0
    5.0548    0.8388    1.3284 O   0  0  0  0  0  0  0  0  0  0  0  0
    5.8083    0.1353    0.4157 C   0  0  0  0  0  0  0  0  0  0  0  0
    6.8891   -0.5806    0.9177 C   0  0  0  0  0  0  0  0  0  0  0  0
    7.6806   -1.2726    0.0192 C   0  0  0  0  0  0  0  0  0  0  0  0
    7.4689   -1.2812   -1.3149 N   0  0  0  0  0  0  0  0  0  0  0  0
    6.4255   -0.5550   -1.7721 C   0  0  0  0  0  0  0  0  0  0  0  0
    5.5754    0.1706   -0.9562 C   0  0  0  0  0  0  0  0  0  0  0  0
    2.9989    2.0459    1.1113 C   0  0  0  0  0  0  0  0  0  0  0  0
    3.8297    3.5568    1.1975 Cl  0  0  0  0  0  0  0  0  0  0  0  0
    1.6065    2.0575    0.9796 C   0  0  0  0  0  0  0  0  0  0  0  0
   -3.0451    1.0963    1.3999 H   0  0  0  0  0  0  0  0  0  0  0  0
   -2.9013    1.0460   -0.3703 H   0  0  0  0  0  0  0  0  0  0  0  0
   -3.6982   -1.3786    1.3343 H   0  0  0  0  0  0  0  0  0  0  0  0
   -3.6553   -2.5146   -0.5917 H   0  0  0  0  0  0  0  0  0  0  0  0
   -3.2980   -1.0906   -1.5875 H   0  0  0  0  0  0  0  0  0  0  0  0
   -5.7883   -2.2354   -1.7732 H   0  0  0  0  0  0  0  0  0  0  0  0
   -5.0796    0.3353   -2.4558 H   0  0  0  0  0  0  0  0  0  0  0  0
   -6.7885   -0.0100   -2.1186 H   0  0  0  0  0  0  0  0  0  0  0  0
   -5.0884    1.6901   -0.4823 H   0  0  0  0  0  0  0  0  0  0  0  0
   -6.7664    1.1995   -0.2171 H   0  0  0  0  0  0  0  0  0  0  0  0
   -5.6573    0.0582    1.6564 H   0  0  0  0  0  0  0  0  0  0  0  0
   -0.8941    1.8937    0.7492 H   0  0  0  0  0  0  0  0  0  0  0  0
    1.0727   -1.3099    0.9330 H   0  0  0  0  0  0  0  0  0  0  0  0
    3.4935   -1.3206    1.1755 H   0  0  0  0  0  0  0  0  0  0  0  0
    7.1055   -0.6008    1.9792 H   0  0  0  0  0  0  0  0  0  0  0  0
    8.5336   -1.8545    0.3564 H   0  0  0  0  0  0  0  0  0  0  0  0
    6.2903   -0.5686   -2.8499 H   0  0  0  0  0  0  0  0  0  0  0  0
    4.7682    0.7488   -1.3885 H   0  0  0  0  0  0  0  0  0  0  0  0
    1.0911    3.0134    0.9383 H   0  0  0  0  0  0  0  0  0  0  0  0
  1  2  2  0
  2  3  1  0
  3  4  1  0
  4  5  1  0
  5  6  1  0
  6  7  1  0
  7  8  1  0
  8  9  1  0
  9 10  1  0
  2 11  1  0
 11 12  1  0
 12 13  1  0
 13 14  2  0
 14 15  1  0
 15 16  1  0
 16 17  1  0
 17 18  2  0
 18 19  1  0
 19 20  2  0
 20 21  1  0
 21 22  2  0
 15 23  2  0
 23 24  1  0
 23 25  1  0
  9  4  1  0
 25 12  2  0
 10  6  1  0
 22 17  1  0
  3 26  1  0
  3 27  1  0
  4 28  1  0
  5 29  1  0
  5 30  1  0
  6 31  1  0
  7 32  1  0
  7 33  1  0
  8 34  1  0
  8 35  1  0
  9 36  1  0
 11 37  1  0
 13 38  1  0
 14 39  1  0
 18 40  1  0
 19 41  1  0
 21 42  1  0
 22 43  1  0
 25 44  1  0
M  END
$$$$
OCNT-2313251
     RDKit          3D

 40 43  0  0  0  0  0  0  0  0999 V2000
   -0.5402    2.7334    1.5672 O   0  0  0  0  0  0  0  0  0  0  0  0
   -1.0432    1.6216    1.6636 C   0  0  0  0  0  0  0  0  0  0  0  0
   -0.4167    0.4290    1.3437 N   0  0  0  0  0  0  0  0  0  0  0  0
    0.8586    0.2505    0.7688 C   0  0  0  0  0  0  0  0  0  0  0  0
    1.2786   -1.0664    0.5499 C   0  0  0  0  0  0  0  0  0  0  0  0
    2.5273   -1.3407   -0.0249 C   0  0  0  0  0  0  0  0  0  0  0  0
    3.3829   -0.2932   -0.3954 C   0  0  0  0  0  0  0  0  0  0  0  0
    4.6516   -0.5634   -0.9810 N   0  0  0  0  0  0  0  0  0  0  0  0
    5.2100   -1.8009   -1.2532 C   0  0  0  0  0  0  0  0  0  0  0  0
    6.4441   -1.5814   -1.8176 C   0  0  0  0  0  0  0  0  0  0  0  0
    6.5648   -0.1885   -1.8561 C   0  0  0  0  0  0  0  0  0  0  0  0
    5.4954    0.4279   -1.3576 N   0  0  0  0  0  0  0  0  0  0  0  0
    2.9549    1.0205   -0.1750 C   0  0  0  0  0  0  0  0  0  0  0  0
    3.7079    2.0807   -0.5007 F   0  0  0  0  0  0  0  0  0  0  0  0
    1.7078    1.2903    0.3998 C   0  0  0  0  0  0  0  0  0  0  0  0
   -2.3671    1.4438    2.2057 C   0  0  0  0  0  0  0  0  0  0  0  0
   -2.8525    2.0006    3.3765 C   0  0  0  0  0  0  0  0  0  0  0  0
   -4.0948    1.3948    3.5819 C   0  0  0  0  0  0  0  0  0  0  0  0
   -4.4027    0.5397    2.6094 N   0  0  0  0  0  0  0  0  0  0  0  0
   -3.4154    0.6983    1.6828 N   0  0  0  0  0  0  0  0  0  0  0  0
   -3.5701    0.1131    0.3897 C   0  0  0  0  0  0  0  0  0  0  0  0
   -2.8039    0.5271   -0.7081 C   0  0  0  0  0  0  0  0  0  0  0  0
   -2.9806   -0.0773   -1.9567 C   0  0  0  0  0  0  0  0  0  0  0  0
   -3.9296   -1.0835   -2.1234 C   0  0  0  0  0  0  0  0  0  0  0  0
   -4.7162   -1.4811   -1.0455 C   0  0  0  0  0  0  0  0  0  0  0  0
   -4.5446   -0.8816    0.2043 C   0  0  0  0  0  0  0  0  0  0  0  0
   -0.9259   -0.4198    1.5584 H   0  0  0  0  0  0  0  0  0  0  0  0
    0.6402   -1.9050    0.8213 H   0  0  0  0  0  0  0  0  0  0  0  0
    2.7922   -2.3839   -0.1675 H   0  0  0  0  0  0  0  0  0  0  0  0
    4.7027   -2.7257   -1.0303 H   0  0  0  0  0  0  0  0  0  0  0  0
    7.1534   -2.3246   -2.1522 H   0  0  0  0  0  0  0  0  0  0  0  0
    7.3875    0.4100   -2.2265 H   0  0  0  0  0  0  0  0  0  0  0  0
    1.4464    2.3341    0.5375 H   0  0  0  0  0  0  0  0  0  0  0  0
   -2.3309    2.6936    4.0231 H   0  0  0  0  0  0  0  0  0  0  0  0
   -4.7797    1.5183    4.4116 H   0  0  0  0  0  0  0  0  0  0  0  0
   -2.0923    1.3456   -0.6496 H   0  0  0  0  0  0  0  0  0  0  0  0
   -2.3862    0.2523   -2.8062 H   0  0  0  0  0  0  0  0  0  0  0  0
   -4.0682   -1.5452   -3.0979 H   0  0  0  0  0  0  0  0  0  0  0  0
   -5.4695   -2.2540   -1.1765 H   0  0  0  0  0  0  0  0  0  0  0  0
   -5.1758   -1.2092    1.0292 H   0  0  0  0  0  0  0  0  0  0  0  0
  1  2  2  0
  2  3  1  0
  3  4  1  0
  4  5  1  0
  5  6  2  0
  6  7  1  0
  7  8  1  0
  8  9  1  0
  9 10  2  0
 10 11  1  0
 11 12  2  0
  7 13  2  0
 13 14  1  0
 13 15  1  0
  2 16  1  0
 16 17  2  0
 17 18  1  0
 18 19  2  0
 19 20  1  0
 20 21  1  0
 21 22  2  0
 22 23  1  0
 23 24  2  0
 24 25  1  0
 25 26  2  0
 15  4  2  0
 20 16  1  0
 26 21  1  0
 12  8  1  0
  3 27  1  0
  5 28  1  0
  6 29  1  0
  9 30  1  0
 10 31  1  0
 11 32  1  0
 15 33  1  0
 17 34  1  0
 18 35  1  0
 22 36  1  0
 23 37  1  0
 24 38  1  0
 25 39  1  0
 26 40  1  0
M  END
$$$$
OCNT-2313255
     RDKit          3D

 40 43  0  0  0  0  0  0  0  0999 V2000
    7.2306   -0.1713   -0.6170 C   0  0  0  0  0  0  0  0  0  0  0  0
    5.7924   -0.1473   -0.2725 C   0  0  0  0  0  0  0  0  0  0  0  0
    4.7321    0.2664   -1.0513 C   0  0  0  0  0  0  0  0  0  0  0  0
    3.6059    0.0997   -0.2952 N   0  0  0  0  0  0  0  0  0  0  0  0
    2.2534    0.3974   -0.6970 C   0  0  0  0  0  0  0  0  0  0  0  0
    1.4938    1.3478    0.2333 C   0  0  0  0  0  0  0  0  0  0  0  0
    0.0417    1.1222   -0.1735 C   0  0  0  0  0  0  0  0  0  0  0  0
   -0.0079   -0.2589   -0.6388 N   0  0  0  0  0  0  0  0  0  0  0  0
   -1.1203   -1.0911   -0.6946 C   0  0  0  0  0  0  0  0  0  0  0  0
   -0.9687   -2.3083   -0.8255 O   0  0  0  0  0  0  0  0  0  0  0  0
   -2.4443   -0.5094   -0.5502 C   0  0  0  0  0  0  0  0  0  0  0  0
   -3.4792   -0.9585    0.2499 C   0  0  0  0  0  0  0  0  0  0  0  0
   -3.3747   -2.0286    1.0792 N   0  0  0  0  0  0  0  0  0  0  0  0
   -4.6692   -0.1673    0.1266 C   0  0  0  0  0  0  0  0  0  0  0  0
   -5.9309   -0.2170    0.7607 C   0  0  0  0  0  0  0  0  0  0  0  0
   -6.8977    0.7188    0.4002 C   0  0  0  0  0  0  0  0  0  0  0  0
   -6.5826    1.6575   -0.5662 C   0  0  0  0  0  0  0  0  0  0  0  0
   -5.4005    1.7544   -1.2069 N   0  0  0  0  0  0  0  0  0  0  0  0
   -4.4928    0.8294   -0.8273 C   0  0  0  0  0  0  0  0  0  0  0  0
   -2.9507    0.7920   -1.5426 S   0  0  0  0  0  0  0  0  0  0  0  0
    1.3344   -0.8194   -0.7372 C   0  0  0  0  0  0  0  0  0  0  0  0
    3.8636   -0.3922    0.9304 N   0  0  0  0  0  0  0  0  0  0  0  0
    5.1895   -0.5418    0.9421 C   0  0  0  0  0  0  0  0  0  0  0  0
    7.6856   -1.1191   -0.3118 H   0  0  0  0  0  0  0  0  0  0  0  0
    7.3820   -0.0566   -1.6952 H   0  0  0  0  0  0  0  0  0  0  0  0
    7.7570    0.6432   -0.1095 H   0  0  0  0  0  0  0  0  0  0  0  0
    4.6907    0.6552   -2.0595 H   0  0  0  0  0  0  0  0  0  0  0  0
    2.2956    0.8490   -1.6978 H   0  0  0  0  0  0  0  0  0  0  0  0
    1.6297    1.0700    1.2857 H   0  0  0  0  0  0  0  0  0  0  0  0
    1.8025    2.3917    0.1212 H   0  0  0  0  0  0  0  0  0  0  0  0
   -0.2168    1.7730   -1.0148 H   0  0  0  0  0  0  0  0  0  0  0  0
   -0.6533    1.2924    0.6535 H   0  0  0  0  0  0  0  0  0  0  0  0
   -2.6233   -2.7018    0.9065 H   0  0  0  0  0  0  0  0  0  0  0  0
   -4.2129   -2.4955    1.4134 H   0  0  0  0  0  0  0  0  0  0  0  0
   -6.1424   -0.9639    1.5190 H   0  0  0  0  0  0  0  0  0  0  0  0
   -7.8769    0.7139    0.8667 H   0  0  0  0  0  0  0  0  0  0  0  0
   -7.3192    2.3996   -0.8666 H   0  0  0  0  0  0  0  0  0  0  0  0
    1.4367   -1.3972   -1.6617 H   0  0  0  0  0  0  0  0  0  0  0  0
    1.4831   -1.4965    0.1124 H   0  0  0  0  0  0  0  0  0  0  0  0
    5.6641   -0.9319    1.8337 H   0  0  0  0  0  0  0  0  0  0  0  0
  1  2  1  0
  2  3  2  0
  3  4  1  0
  4  5  1  0
  5  6  1  0
  6  7  1  0
  7  8  1  0
  8  9  1  0
  9 10  2  0
  9 11  1  0
 11 12  2  0
 12 13  1  0
 12 14  1  0
 14 15  1  0
 15 16  2  0
 16 17  1  0
 17 18  2  0
 18 19  1  0
 19 20  1  0
  8 21  1  0
  4 22  1  0
 22 23  2  0
 23  2  1  0
 21  5  1  0
 20 11  1  0
 19 14  2  0
  1 24  1  0
  1 25  1  0
  1 26  1  0
  3 27  1  0
  5 28  1  0
  6 29  1  0
  6 30  1  0
  7 31  1  0
  7 32  1  0
 13 33  1  0
 13 34  1  0
 15 35  1  0
 16 36  1  0
 17 37  1  0
 21 38  1  0
 21 39  1  0
 23 40  1  0
M  END
$$$$
OCNT-2313260
     RDKit          3D

 45 48  0  0  0  0  0  0  0  0999 V2000
   -0.8777   -2.7757    2.3028 O   0  0  0  0  0  0  0  0  0  0  0  0
   -0.3072   -2.3922    1.2857 C   0  0  0  0  0  0  0  0  0  0  0  0
   -0.5637   -1.1677    0.7165 N   0  0  0  0  0  0  0  0  0  0  0  0
   -1.5165   -0.2337    1.2904 C   0  0  0  0  0  0  0  0  0  0  0  0
   -2.9779   -0.6598    1.0745 C   0  0  0  0  0  0  0  0  0  0  0  0
   -3.9208    0.3762    1.5077 N   0  0  0  0  0  0  0  0  0  0  0  0
   -4.1361    1.4210    0.5919 C   0  0  0  0  0  0  0  0  0  0  0  0
   -5.0624    2.4253    0.8987 C   0  0  0  0  0  0  0  0  0  0  0  0
   -5.3319    3.4848    0.0935 N   0  0  0  0  0  0  0  0  0  0  0  0
   -4.6154    3.5226   -1.0473 C   0  0  0  0  0  0  0  0  0  0  0  0
   -3.6826    2.5512   -1.3614 C   0  0  0  0  0  0  0  0  0  0  0  0
   -3.4252    1.4938   -0.5542 N   0  0  0  0  0  0  0  0  0  0  0  0
    0.6345   -3.2378    0.5676 C   0  0  0  0  0  0  0  0  0  0  0  0
    0.6482   -4.6183    0.6584 C   0  0  0  0  0  0  0  0  0  0  0  0
    1.6293   -5.0541   -0.1716 N   0  0  0  0  0  0  0  0  0  0  0  0
    2.2683   -4.0651   -0.8071 N   0  0  0  0  0  0  0  0  0  0  0  0
    1.7109   -2.9390   -0.3285 C   0  0  0  0  0  0  0  0  0  0  0  0
    2.2395   -1.6409   -0.7426 C   0  0  0  0  0  0  0  0  0  0  0  0
    2.4498   -1.3708   -2.1030 C   0  0  0  0  0  0  0  0  0  0  0  0
    2.9341   -0.1256   -2.5118 C   0  0  0  0  0  0  0  0  0  0  0  0
    3.2156    0.8534   -1.5625 C   0  0  0  0  0  0  0  0  0  0  0  0
    3.6622    2.0605   -2.0355 O   0  0  0  0  0  0  0  0  0  0  0  0
    3.6067    3.0723   -1.0232 C   0  0  0  0  0  0  0  0  0  0  0  0
    4.1577    2.5483    0.2925 C   0  0  0  0  0  0  0  0  0  0  0  0
    3.3445    1.4788    0.7886 O   0  0  0  0  0  0  0  0  0  0  0  0
    3.0496    0.5766   -0.2018 C   0  0  0  0  0  0  0  0  0  0  0  0
    2.5545   -0.6610    0.2082 C   0  0  0  0  0  0  0  0  0  0  0  0
   -0.2022   -0.9566   -0.2037 H   0  0  0  0  0  0  0  0  0  0  0  0
   -1.3129   -0.1459    2.3642 H   0  0  0  0  0  0  0  0  0  0  0  0
   -1.3067    0.7406    0.8386 H   0  0  0  0  0  0  0  0  0  0  0  0
   -3.1578   -0.9604    0.0340 H   0  0  0  0  0  0  0  0  0  0  0  0
   -3.1737   -1.5563    1.6750 H   0  0  0  0  0  0  0  0  0  0  0  0
   -4.8185   -0.0285    1.7625 H   0  0  0  0  0  0  0  0  0  0  0  0
   -5.6196    2.4015    1.8292 H   0  0  0  0  0  0  0  0  0  0  0  0
   -4.8085    4.3607   -1.7066 H   0  0  0  0  0  0  0  0  0  0  0  0
   -3.1088    2.5954   -2.2800 H   0  0  0  0  0  0  0  0  0  0  0  0
    0.0377   -5.3029    1.2309 H   0  0  0  0  0  0  0  0  0  0  0  0
    1.9158   -6.0098   -0.3584 H   0  0  0  0  0  0  0  0  0  0  0  0
    2.2361   -2.1336   -2.8496 H   0  0  0  0  0  0  0  0  0  0  0  0
    3.0860    0.0794   -3.5678 H   0  0  0  0  0  0  0  0  0  0  0  0
    2.5660    3.4035   -0.9190 H   0  0  0  0  0  0  0  0  0  0  0  0
    4.2021    3.9222   -1.3712 H   0  0  0  0  0  0  0  0  0  0  0  0
    5.1861    2.1826    0.1811 H   0  0  0  0  0  0  0  0  0  0  0  0
    4.1575    3.3420    1.0461 H   0  0  0  0  0  0  0  0  0  0  0  0
    2.4333   -0.8569    1.2708 H   0  0  0  0  0  0  0  0  0  0  0  0
  1  2  2  0
  2  3  1  0
  3  4  1  0
  4  5  1  0
  5  6  1  0
  6  7  1  0
  7  8  2  0
  8  9  1  0
  9 10  2  0
 10 11  1  0
 11 12  2  0
  2 13  1  0
 13 14  2  0
 14 15  1  0
 15 16  1  0
 16 17  2  0
 17 18  1  0
 18 19  1  0
 19 20  2  0
 20 21  1  0
 21 22  1  0
 22 23  1  0
 23 24  1  0
 24 25  1  0
 25 26  1  0
 26 27  1  0
 12  7  1  0
 17 13  1  0
 27 18  2  0
 26 21  2  0
  3 28  1  0
  4 29  1  0
  4 30  1  0
  5 31  1  0
  5 32  1  0
  6 33  1  0
  8 34  1  0
 10 35  1  0
 11 36  1  0
 14 37  1  0
 15 38  1  0
 19 39  1  0
 20 40  1  0
 23 41  1  0
 23 42  1  0
 24 43  1  0
 24 44  1  0
 27 45  1  0
M  END
$$$$
OCNT-2313271
     RDKit          3D

 47 48  0  0  0  0  0  0  0  0999 V2000
    5.0107    1.7907    0.0061 C   0  0  0  0  0  0  0  0  0  0  0  0
    4.7271    0.2900    0.0832 C   0  0  0  0  0  0  0  0  0  0  0  0
    5.9009   -0.4877   -0.5235 C   0  0  0  0  0  0  0  0  0  0  0  0
    3.3947   -0.1650   -0.5365 C   0  0  0  0  0  0  0  0  0  0  0  0
    2.8951   -1.4687   -0.0251 C   0  0  0  0  0  0  0  0  0  0  0  0
    3.1418   -2.5184   -0.6917 O   0  0  0  0  0  0  0  0  0  0  0  0
    2.2381   -1.4265    1.0662 O   0  0  0  0  0  0  0  0  0  0  0  0
    3.1402    0.1436   -2.0069 C   0  0  0  0  0  0  0  0  0  0  0  0
    2.3248    0.8634   -0.9614 C   0  0  0  0  0  0  0  0  0  0  0  0
    0.8478    0.6417   -0.9577 C   0  0  0  0  0  0  0  0  0  0  0  0
    0.1940    0.9840   -1.9364 O   0  0  0  0  0  0  0  0  0  0  0  0
    0.3199    0.1385    0.2051 N   0  0  0  0  0  0  0  0  0  0  0  0
   -1.0693   -0.3384    0.3537 C   0  0  0  0  0  0  0  0  0  0  0  0
   -1.2169   -0.8452    1.8036 C   0  0  0  0  0  0  0  0  0  0  0  0
   -1.3078   -1.5229   -0.5998 C   0  0  0  0  0  0  0  0  0  0  0  0
   -2.0682    0.8314    0.0885 C   0  0  0  0  0  0  0  0  0  0  0  0
   -3.5402    0.5564    0.3277 C   0  0  0  0  0  0  0  0  0  0  0  0
   -4.1287    0.8481    1.5658 C   0  0  0  0  0  0  0  0  0  0  0  0
   -5.4858    0.5977    1.7829 C   0  0  0  0  0  0  0  0  0  0  0  0
   -6.2712    0.0567    0.7607 C   0  0  0  0  0  0  0  0  0  0  0  0
   -7.6646   -0.1967    0.9820 C   0  0  0  0  0  0  0  0  0  0  0  0
   -8.7943   -0.3963    1.1621 N   0  0  0  0  0  0  0  0  0  0  0  0
   -5.6934   -0.2314   -0.4789 C   0  0  0  0  0  0  0  0  0  0  0  0
   -4.3362    0.0198   -0.6936 C   0  0  0  0  0  0  0  0  0  0  0  0
    4.2476    2.3628    0.5438 H   0  0  0  0  0  0  0  0  0  0  0  0
    5.0443    2.1490   -1.0276 H   0  0  0  0  0  0  0  0  0  0  0  0
    5.9747    2.0262    0.4707 H   0  0  0  0  0  0  0  0  0  0  0  0
    4.6881    0.0399    1.1521 H   0  0  0  0  0  0  0  0  0  0  0  0
    6.0051   -0.2831   -1.5943 H   0  0  0  0  0  0  0  0  0  0  0  0
    5.7659   -1.5673   -0.4034 H   0  0  0  0  0  0  0  0  0  0  0  0
    6.8427   -0.2163   -0.0345 H   0  0  0  0  0  0  0  0  0  0  0  0
    3.8703    0.7152   -2.5639 H   0  0  0  0  0  0  0  0  0  0  0  0
    2.6557   -0.6269   -2.6009 H   0  0  0  0  0  0  0  0  0  0  0  0
    2.5486    1.9157   -0.8411 H   0  0  0  0  0  0  0  0  0  0  0  0
    1.0135   -0.3661    0.7814 H   0  0  0  0  0  0  0  0  0  0  0  0
   -0.4730   -1.6185    2.0297 H   0  0  0  0  0  0  0  0  0  0  0  0
   -2.2012   -1.2877    1.9871 H   0  0  0  0  0  0  0  0  0  0  0  0
   -1.0648   -0.0318    2.5224 H   0  0  0  0  0  0  0  0  0  0  0  0
   -0.5272   -2.2839   -0.4808 H   0  0  0  0  0  0  0  0  0  0  0  0
   -1.2942   -1.2069   -1.6483 H   0  0  0  0  0  0  0  0  0  0  0  0
   -2.2695   -2.0104   -0.4099 H   0  0  0  0  0  0  0  0  0  0  0  0
   -1.9743    1.1897   -0.9436 H   0  0  0  0  0  0  0  0  0  0  0  0
   -1.7765    1.6949    0.7039 H   0  0  0  0  0  0  0  0  0  0  0  0
   -3.5274    1.2693    2.3695 H   0  0  0  0  0  0  0  0  0  0  0  0
   -5.9205    0.8278    2.7533 H   0  0  0  0  0  0  0  0  0  0  0  0
   -6.2899   -0.6515   -1.2858 H   0  0  0  0  0  0  0  0  0  0  0  0
   -3.8967   -0.2050   -1.6645 H   0  0  0  0  0  0  0  0  0  0  0  0
  1  2  1  0
  2  3  1  0
  2  4  1  0
  4  5  1  0
  5  6  2  0
  5  7  1  0
  4  8  1  0
  8  9  1  0
  9 10  1  0
 10 11  2  0
 10 12  1  0
 12 13  1  0
 13 14  1  0
 13 15  1  0
 13 16  1  0
 16 17  1  0
 17 18  1  0
 18 19  2  0
 19 20  1  0
 20 21  1  0
 21 22  3  0
 20 23  2  0
 23 24  1  0
  9  4  1  0
 24 17  2  0
  1 25  1  0
  1 26  1  0
  1 27  1  0
  2 28  1  0
  3 29  1  0
  3 30  1  0
  3 31  1  0
  8 32  1  0
  8 33  1  0
  9 34  1  0
 12 35  1  0
 14 36  1  0
 14 37  1  0
 14 38  1  0
 15 39  1  0
 15 40  1  0
 15 41  1  0
 16 42  1  0
 16 43  1  0
 18 44  1  0
 19 45  1  0
 23 46  1  0
 24 47  1  0
M  CHG  1   7  -1
M  END
$$$$
OCNT-2313274
     RDKit          3D

  0  0  0  0  0  0  0  0  0  0999 V3000
M  V30 BEGIN CTAB
M  V30 COUNTS 47 49 0 0 0
M  V30 BEGIN ATOM
M  V30 1 O -1.068035 1.741102 -0.982233 0
M  V30 2 C -0.003721 0.908115 -0.482939 0
M  V30 3 C -0.523191 0.015143 0.673413 0
M  V30 4 N -1.600279 -0.906449 0.271758 0
M  V30 5 C -2.937101 -0.284456 0.260790 0 CFG=2
M  V30 6 C -3.776682 -0.839254 1.418262 0
M  V30 7 C -5.187031 -0.247078 1.406178 0
M  V30 8 C -5.884435 -0.461503 0.063449 0
M  V30 9 C -5.046918 0.052395 -1.104387 0
M  V30 10 C -3.643571 -0.550143 -1.092437 0 CFG=1
M  V30 11 O -2.892278 -0.003911 -2.180083 0
M  V30 12 C 1.162950 1.812103 -0.048525 0
M  V30 13 C 2.459862 1.077216 0.174700 0
M  V30 14 C 2.914086 0.802916 1.468372 0
M  V30 15 C 4.115586 0.117806 1.665095 0
M  V30 16 C 4.889938 -0.304858 0.573189 0
M  V30 17 C 6.101936 -0.989764 0.755983 0
M  V30 18 C 6.861919 -1.400911 -0.340826 0
M  V30 19 C 6.419608 -1.133906 -1.632847 0
M  V30 20 C 5.216328 -0.455005 -1.831047 0
M  V30 21 C 4.440388 -0.033435 -0.738179 0
M  V30 22 C 3.228655 0.654008 -0.920370 0
M  V30 23 H -1.239745 2.424403 -0.307504 0
M  V30 24 H 0.306785 0.271073 -1.319377 0
M  V30 25 H 0.300465 -0.607812 1.038285 0
M  V30 26 H -0.852308 0.630372 1.519794 0
M  V30 27 H -1.393742 -1.247085 -0.673649 0
M  V30 28 H -2.859743 0.801973 0.393124 0
M  V30 29 H -3.843237 -1.933460 1.350984 0
M  V30 30 H -3.298510 -0.606273 2.377716 0
M  V30 31 H -5.783179 -0.700468 2.207917 0
M  V30 32 H -5.131998 0.828788 1.618613 0
M  V30 33 H -6.081259 -1.532622 -0.074001 0
M  V30 34 H -6.857323 0.043218 0.068516 0
M  V30 35 H -5.543717 -0.183462 -2.054188 0
M  V30 36 H -4.980527 1.148337 -1.068121 0
M  V30 37 H -3.717814 -1.629807 -1.270943 0
M  V30 38 H -2.311394 0.703977 -1.824312 0
M  V30 39 H 1.328419 2.583739 -0.812769 0
M  V30 40 H 0.883330 2.376933 0.851364 0
M  V30 41 H 2.339785 1.118057 2.337127 0
M  V30 42 H 4.446313 -0.081505 2.682214 0
M  V30 43 H 6.463716 -1.208039 1.758653 0
M  V30 44 H 7.798518 -1.929092 -0.184822 0
M  V30 45 H 7.010156 -1.452955 -2.488305 0
M  V30 46 H 4.887721 -0.255467 -2.848325 0
M  V30 47 H 2.881277 0.867046 -1.929647 0
M  V30 END ATOM
M  V30 BEGIN BOND
M  V30 1 1 1 2
M  V30 2 1 2 3
M  V30 3 1 3 4
M  V30 4 1 4 5
M  V30 5 1 5 6
M  V30 6 1 6 7
M  V30 7 1 7 8
M  V30 8 1 8 9
M  V30 9 1 9 10
M  V30 10 1 10 11
M  V30 11 1 2 12
M  V30 12 1 12 13
M  V30 13 1 13 14
M  V30 14 2 14 15
M  V30 15 1 15 16
M  V30 16 2 16 17
M  V30 17 1 17 18
M  V30 18 2 18 19
M  V30 19 1 19 20
M  V30 20 2 20 21
M  V30 21 1 21 22
M  V30 22 1 10 5
M  V30 23 2 22 13
M  V30 24 1 21 16
M  V30 25 1 1 23
M  V30 26 1 2 24
M  V30 27 1 3 25
M  V30 28 1 3 26
M  V30 29 1 4 27
M  V30 30 1 5 28 CFG=1
M  V30 31 1 6 29
M  V30 32 1 6 30
M  V30 33 1 7 31
M  V30 34 1 7 32
M  V30 35 1 8 33
M  V30 36 1 8 34
M  V30 37 1 9 35
M  V30 38 1 9 36
M  V30 39 1 10 37 CFG=3
M  V30 40 1 11 38
M  V30 41 1 12 39
M  V30 42 1 12 40
M  V30 43 1 14 41
M  V30 44 1 15 42
M  V30 45 1 17 43
M  V30 46 1 18 44
M  V30 47 1 19 45
M  V30 48 1 20 46
M  V30 49 1 22 47
M  V30 END BOND
M  V30 BEGIN COLLECTION
M  V30 MDLV30/STERAC1 ATOMS=(2 5 10)
M  V30 END COLLECTION
M  V30 END CTAB
M  END
>  <_CXSMILES_Data>  (729) 
|&1:4,9|

$$$$
OCNT-2313294
     RDKit          3D

 43 45  0  0  0  0  0  0  0  0999 V2000
   -2.8958   -3.8276   -1.9701 C   0  0  0  0  0  0  0  0  0  0  0  0
   -2.4473   -2.4931   -1.7740 O   0  0  0  0  0  0  0  0  0  0  0  0
   -3.2358   -1.6405   -1.0552 C   0  0  0  0  0  0  0  0  0  0  0  0
   -4.4918   -1.9849   -0.5392 C   0  0  0  0  0  0  0  0  0  0  0  0
   -5.2588   -1.0394    0.1465 C   0  0  0  0  0  0  0  0  0  0  0  0
   -6.8001   -1.4841    0.7713 Cl  0  0  0  0  0  0  0  0  0  0  0  0
   -4.7957    0.2605    0.3228 C   0  0  0  0  0  0  0  0  0  0  0  0
   -3.5459    0.6168   -0.1802 C   0  0  0  0  0  0  0  0  0  0  0  0
   -2.7633   -0.3344   -0.8551 C   0  0  0  0  0  0  0  0  0  0  0  0
   -1.1542    0.1430   -1.4502 S   0  0  0  0  0  0  0  0  0  0  0  0
   -1.3559    0.7504   -2.7469 O   0  0  0  0  0  0  0  0  0  0  0  0
   -0.2066   -0.9254   -1.2241 O   0  0  0  0  0  0  0  0  0  0  0  0
   -0.7229    1.4023   -0.4113 N   0  0  0  0  0  0  0  0  0  0  0  0
   -0.0155    1.0391    0.8308 C   0  0  0  0  0  0  0  0  0  0  0  0
   -0.3946    2.0599    1.9012 C   0  0  0  0  0  0  0  0  0  0  0  0
    1.4569    1.1140    0.5381 C   0  0  0  0  0  0  0  0  0  0  0  0
    2.0310    2.0378   -0.2139 N   0  0  0  0  0  0  0  0  0  0  0  0
    3.3629    1.7169   -0.2461 C   0  0  0  0  0  0  0  0  0  0  0  0
    4.4158    2.3678   -0.9052 C   0  0  0  0  0  0  0  0  0  0  0  0
    5.7098    1.8494   -0.7868 C   0  0  0  0  0  0  0  0  0  0  0  0
    5.9506    0.7051   -0.0260 C   0  0  0  0  0  0  0  0  0  0  0  0
    4.9126    0.0417    0.6398 C   0  0  0  0  0  0  0  0  0  0  0  0
    3.6235    0.5761    0.5088 C   0  0  0  0  0  0  0  0  0  0  0  0
    2.3897    0.2131    1.0019 N   0  0  0  0  0  0  0  0  0  0  0  0
    2.1166   -0.8874    1.8992 C   0  0  0  0  0  0  0  0  0  0  0  0
    1.5308   -0.4330    3.0408 F   0  0  0  0  0  0  0  0  0  0  0  0
    1.2493   -1.7761    1.3539 F   0  0  0  0  0  0  0  0  0  0  0  0
   -3.0131   -4.3491   -1.0146 H   0  0  0  0  0  0  0  0  0  0  0  0
   -2.1304   -4.3558   -2.5469 H   0  0  0  0  0  0  0  0  0  0  0  0
   -3.8238   -3.8496   -2.5509 H   0  0  0  0  0  0  0  0  0  0  0  0
   -4.9021   -2.9816   -0.6650 H   0  0  0  0  0  0  0  0  0  0  0  0
   -5.4012    0.9981    0.8429 H   0  0  0  0  0  0  0  0  0  0  0  0
   -3.1972    1.6390   -0.0529 H   0  0  0  0  0  0  0  0  0  0  0  0
   -0.2557    2.1492   -0.9372 H   0  0  0  0  0  0  0  0  0  0  0  0
   -0.3319    0.0516    1.1782 H   0  0  0  0  0  0  0  0  0  0  0  0
    0.1231    1.8529    2.8437 H   0  0  0  0  0  0  0  0  0  0  0  0
   -1.4727    2.0365    2.0945 H   0  0  0  0  0  0  0  0  0  0  0  0
   -0.1373    3.0818    1.5974 H   0  0  0  0  0  0  0  0  0  0  0  0
    4.2196    3.2552   -1.4970 H   0  0  0  0  0  0  0  0  0  0  0  0
    6.5332    2.3450   -1.2955 H   0  0  0  0  0  0  0  0  0  0  0  0
    6.9657    0.3188    0.0480 H   0  0  0  0  0  0  0  0  0  0  0  0
    5.1198   -0.8503    1.2210 H   0  0  0  0  0  0  0  0  0  0  0  0
    3.0384   -1.4095    2.1635 H   0  0  0  0  0  0  0  0  0  0  0  0
  1  2  1  0
  2  3  1  0
  3  4  1  0
  4  5  2  0
  5  6  1  0
  5  7  1  0
  7  8  2  0
  8  9  1  0
  9 10  1  0
 10 11  2  0
 10 12  2  0
 10 13  1  0
 13 14  1  0
 14 15  1  0
 14 16  1  0
 16 17  2  0
 17 18  1  0
 18 19  2  0
 19 20  1  0
 20 21  2  0
 21 22  1  0
 22 23  2  0
 23 24  1  0
 24 25  1  0
 25 26  1  0
 25 27  1  0
  9  3  2  0
 24 16  1  0
 23 18  1  0
  1 28  1  0
  1 29  1  0
  1 30  1  0
  4 31  1  0
  7 32  1  0
  8 33  1  0
 13 34  1  0
 14 35  1  0
 15 36  1  0
 15 37  1  0
 15 38  1  0
 19 39  1  0
 20 40  1  0
 21 41  1  0
 22 42  1  0
 25 43  1  0
M  END
$$$$
OCNT-2313300
     RDKit          3D

 37 39  0  0  0  0  0  0  0  0999 V2000
    3.3022   -1.1368   -1.7240 C   0  0  0  0  0  0  0  0  0  0  0  0
    3.3898    0.3770   -1.6041 C   0  0  0  0  0  0  0  0  0  0  0  0
    3.7889    0.8061   -0.2252 C   0  0  0  0  0  0  0  0  0  0  0  0
    3.1498    0.7254    1.0136 C   0  0  0  0  0  0  0  0  0  0  0  0
    1.8090    0.2150    1.3259 C   0  0  0  0  0  0  0  0  0  0  0  0
    1.6069   -0.4228    2.3522 O   0  0  0  0  0  0  0  0  0  0  0  0
    0.8542    0.5861    0.4002 N   0  0  0  0  0  0  0  0  0  0  0  0
   -0.5064    0.2277    0.3705 C   0  0  0  0  0  0  0  0  0  0  0  0
   -1.3015    0.8115   -0.6204 C   0  0  0  0  0  0  0  0  0  0  0  0
   -2.6645    0.5038   -0.7252 C   0  0  0  0  0  0  0  0  0  0  0  0
   -3.2575   -0.4017    0.1637 C   0  0  0  0  0  0  0  0  0  0  0  0
   -4.6438   -0.7184    0.0621 N   0  0  0  0  0  0  0  0  0  0  0  0
   -5.5522   -0.2257   -0.8525 C   0  0  0  0  0  0  0  0  0  0  0  0
   -6.7568   -0.8192   -0.5583 C   0  0  0  0  0  0  0  0  0  0  0  0
   -6.6332   -1.6629    0.5051 N   0  0  0  0  0  0  0  0  0  0  0  0
   -5.3679   -1.5843    0.8561 C   0  0  0  0  0  0  0  0  0  0  0  0
   -2.4592   -0.9901    1.1531 C   0  0  0  0  0  0  0  0  0  0  0  0
   -1.0955   -0.6769    1.2516 C   0  0  0  0  0  0  0  0  0  0  0  0
    4.0914    1.1864    1.9832 C   0  0  0  0  0  0  0  0  0  0  0  0
    5.2312    1.5754    1.3232 C   0  0  0  0  0  0  0  0  0  0  0  0
    5.0399    1.3453   -0.0098 N   0  0  0  0  0  0  0  0  0  0  0  0
    4.2589   -1.6088   -1.4754 H   0  0  0  0  0  0  0  0  0  0  0  0
    3.0399   -1.4201   -2.7483 H   0  0  0  0  0  0  0  0  0  0  0  0
    2.5403   -1.5503   -1.0553 H   0  0  0  0  0  0  0  0  0  0  0  0
    2.4338    0.8290   -1.8850 H   0  0  0  0  0  0  0  0  0  0  0  0
    4.1213    0.7438   -2.3352 H   0  0  0  0  0  0  0  0  0  0  0  0
    1.1610    1.2548   -0.2911 H   0  0  0  0  0  0  0  0  0  0  0  0
   -0.8754    1.5193   -1.3275 H   0  0  0  0  0  0  0  0  0  0  0  0
   -3.2268    0.9935   -1.5142 H   0  0  0  0  0  0  0  0  0  0  0  0
   -5.2952    0.4854   -1.6213 H   0  0  0  0  0  0  0  0  0  0  0  0
   -7.7056   -0.6794   -1.0604 H   0  0  0  0  0  0  0  0  0  0  0  0
   -4.9365   -2.1371    1.6781 H   0  0  0  0  0  0  0  0  0  0  0  0
   -2.8513   -1.7017    1.8739 H   0  0  0  0  0  0  0  0  0  0  0  0
   -0.5209   -1.1667    2.0327 H   0  0  0  0  0  0  0  0  0  0  0  0
    3.9328    1.2271    3.0543 H   0  0  0  0  0  0  0  0  0  0  0  0
    6.1648    1.9800    1.6908 H   0  0  0  0  0  0  0  0  0  0  0  0
    5.7343    1.5103   -0.7277 H   0  0  0  0  0  0  0  0  0  0  0  0
  1  2  1  0
  2  3  1  0
  3  4  2  0
  4  5  1  0
  5  6  2  0
  5  7  1  0
  7  8  1  0
  8  9  1  0
  9 10  2  0
 10 11  1  0
 11 12  1  0
 12 13  1  0
 13 14  2  0
 14 15  1  0
 15 16  2  0
 11 17  2  0
 17 18  1  0
  4 19  1  0
 19 20  2  0
 20 21  1  0
 21  3  1  0
 18  8  2  0
 16 12  1  0
  1 22  1  0
  1 23  1  0
  1 24  1  0
  2 25  1  0
  2 26  1  0
  7 27  1  0
  9 28  1  0
 10 29  1  0
 13 30  1  0
 14 31  1  0
 16 32  1  0
 17 33  1  0
 18 34  1  0
 19 35  1  0
 20 36  1  0
 21 37  1  0
M  END
$$$$
OCNT-2313305
     RDKit          3D

  0  0  0  0  0  0  0  0  0  0999 V3000
M  V30 BEGIN CTAB
M  V30 COUNTS 41 42 0 0 0
M  V30 BEGIN ATOM
M  V30 1 C -4.746423 2.707872 0.388273 0
M  V30 2 C -3.504298 1.913783 0.114847 0
M  V30 3 C -2.316972 2.566752 -0.199382 0
M  V30 4 C -1.173197 1.811142 -0.444143 0
M  V30 5 C -1.247206 0.425456 -0.371804 0
M  V30 6 N -0.149568 -0.441223 -0.560560 0
M  V30 7 C 1.116374 -0.131836 -0.983457 0
M  V30 8 O 1.509613 0.965944 -1.356361 0
M  V30 9 N 1.930696 -1.244248 -0.957529 0
M  V30 10 C 3.330656 -1.160910 -1.301209 0
M  V30 11 C 4.134510 -0.898357 -0.068476 0 CFG=1
M  V30 12 C 5.450375 -0.160269 -0.144355 0
M  V30 13 C 4.246548 0.509897 0.481675 0 CFG=2
M  V30 14 C 4.147089 0.768333 1.939438 0
M  V30 15 F 2.855076 0.804979 2.333834 0
M  V30 16 F 4.716425 1.953308 2.253752 0
M  V30 17 F 4.770368 -0.193853 2.660255 0
M  V30 18 C -2.491203 -0.166551 -0.054423 0
M  V30 19 N -2.558771 -1.601407 -0.027634 0
M  V30 20 C -3.042064 -2.041522 -1.343869 0
M  V30 21 C -3.438954 -2.029985 1.065861 0
M  V30 22 N -3.603282 0.565262 0.188160 0
M  V30 23 H -5.588086 2.047233 0.620090 0
M  V30 24 H -4.589682 3.372720 1.243349 0
M  V30 25 H -5.013836 3.305510 -0.488688 0
M  V30 26 H -2.272567 3.650171 -0.248478 0
M  V30 27 H -0.245381 2.323644 -0.673439 0
M  V30 28 H -0.396306 -1.416654 -0.437768 0
M  V30 29 H 1.648436 -1.991142 -0.341736 0
M  V30 30 H 3.484748 -0.389371 -2.063433 0
M  V30 31 H 3.617638 -2.126772 -1.728754 0
M  V30 32 H 4.073923 -1.721444 0.636597 0
M  V30 33 H 6.254048 -0.487607 0.507044 0
M  V30 34 H 5.786979 0.212127 -1.105754 0
M  V30 35 H 3.781644 1.318383 -0.070049 0
M  V30 36 H -2.357084 -1.735069 -2.143084 0
M  V30 37 H -3.089422 -3.136052 -1.368042 0
M  V30 38 H -4.044069 -1.655851 -1.569078 0
M  V30 39 H -4.486407 -1.748196 0.903631 0
M  V30 40 H -3.400239 -3.121761 1.151953 0
M  V30 41 H -3.100131 -1.622435 2.025679 0
M  V30 END ATOM
M  V30 BEGIN BOND
M  V30 1 1 1 2
M  V30 2 2 2 3
M  V30 3 1 3 4
M  V30 4 2 4 5
M  V30 5 1 5 6
M  V30 6 1 6 7
M  V30 7 2 7 8
M  V30 8 1 7 9
M  V30 9 1 9 10
M  V30 10 1 10 11
M  V30 11 1 11 12
M  V30 12 1 12 13
M  V30 13 1 13 14
M  V30 14 1 14 15
M  V30 15 1 14 16
M  V30 16 1 14 17
M  V30 17 1 5 18
M  V30 18 1 18 19
M  V30 19 1 19 20
M  V30 20 1 19 21
M  V30 21 2 18 22
M  V30 22 1 22 2
M  V30 23 1 13 11
M  V30 24 1 1 23
M  V30 25 1 1 24
M  V30 26 1 1 25
M  V30 27 1 3 26
M  V30 28 1 4 27
M  V30 29 1 6 28
M  V30 30 1 9 29
M  V30 31 1 10 30
M  V30 32 1 10 31
M  V30 33 1 11 32 CFG=1
M  V30 34 1 12 33
M  V30 35 1 12 34
M  V30 36 1 13 35 CFG=3
M  V30 37 1 20 36
M  V30 38 1 20 37
M  V30 39 1 20 38
M  V30 40 1 21 39
M  V30 41 1 21 40
M  V30 42 1 21 41
M  V30 END BOND
M  V30 BEGIN COLLECTION
M  V30 MDLV30/STERAC1 ATOMS=(2 11 13)
M  V30 END COLLECTION
M  V30 END CTAB
M  END
>  <_CXSMILES_Data>  (732) 
|&1:10,12|

$$$$
OCNT-2313325
     RDKit          3D

 54 57  0  0  0  0  0  0  0  0999 V2000
    0.9062   -2.3665   -2.5311 O   0  0  0  0  0  0  0  0  0  0  0  0
    0.8355   -1.3980   -1.7774 C   0  0  0  0  0  0  0  0  0  0  0  0
   -0.3637   -0.9326   -1.3094 N   0  0  0  0  0  0  0  0  0  0  0  0
   -1.6166   -1.6068   -1.6553 C   0  0  0  0  0  0  0  0  0  0  0  0
   -1.8115   -2.8927   -0.8526 C   0  0  0  0  0  0  0  0  0  0  0  0
   -2.3168   -2.3954    0.5029 C   0  0  0  0  0  0  0  0  0  0  0  0
   -3.0033   -1.1374    0.1995 N   0  0  0  0  0  0  0  0  0  0  0  0
   -3.8123   -0.4718    1.0883 C   0  0  0  0  0  0  0  0  0  0  0  0
   -3.8089   -0.7802    2.4585 C   0  0  0  0  0  0  0  0  0  0  0  0
   -4.6093   -0.0917    3.3741 C   0  0  0  0  0  0  0  0  0  0  0  0
   -5.4427    0.9297    2.9340 C   0  0  0  0  0  0  0  0  0  0  0  0
   -5.4946    1.2534    1.5795 C   0  0  0  0  0  0  0  0  0  0  0  0
   -6.3629    2.2641    1.2747 O   0  0  0  0  0  0  0  0  0  0  0  0
   -6.7155    2.4361   -0.0907 C   0  0  0  0  0  0  0  0  0  0  0  0
   -7.1921    1.2887   -0.6235 F   0  0  0  0  0  0  0  0  0  0  0  0
   -7.6886    3.3712   -0.1740 F   0  0  0  0  0  0  0  0  0  0  0  0
   -5.6596    2.8689   -0.8194 F   0  0  0  0  0  0  0  0  0  0  0  0
   -4.6782    0.5586    0.6766 C   0  0  0  0  0  0  0  0  0  0  0  0
   -2.8352   -0.7770   -1.2142 C   0  0  0  0  0  0  0  0  0  0  0  0
    1.9449   -0.7065   -1.3232 N   0  0  0  0  0  0  0  0  0  0  0  0
    3.2494   -1.1362   -1.8387 C   0  0  0  0  0  0  0  0  0  0  0  0
    4.4099   -0.7676   -0.9014 C   0  0  0  0  0  0  0  0  0  0  0  0
    4.3552    0.6552   -0.5317 N   0  0  0  0  0  0  0  0  0  0  0  0
    5.4513    1.0885    0.2187 C   0  0  0  0  0  0  0  0  0  0  0  0
    5.3455    2.2277    0.9249 N   0  0  0  0  0  0  0  0  0  0  0  0
    6.4234    2.6487    1.6127 C   0  0  0  0  0  0  0  0  0  0  0  0
    7.6192    1.9819    1.6290 C   0  0  0  0  0  0  0  0  0  0  0  0
    7.6476    0.8319    0.8843 C   0  0  0  0  0  0  0  0  0  0  0  0
    6.5908    0.3731    0.1850 N   0  0  0  0  0  0  0  0  0  0  0  0
    3.0624    1.1070    0.0017 C   0  0  0  0  0  0  0  0  0  0  0  0
    1.9048    0.7116   -0.9335 C   0  0  0  0  0  0  0  0  0  0  0  0
   -0.3404   -0.5425   -0.3794 H   0  0  0  0  0  0  0  0  0  0  0  0
   -1.6217   -1.7914   -2.7348 H   0  0  0  0  0  0  0  0  0  0  0  0
   -2.5874   -3.5059   -1.3288 H   0  0  0  0  0  0  0  0  0  0  0  0
   -0.9105   -3.5046   -0.7510 H   0  0  0  0  0  0  0  0  0  0  0  0
   -2.9848   -3.1366    0.9539 H   0  0  0  0  0  0  0  0  0  0  0  0
   -1.4731   -2.2107    1.1778 H   0  0  0  0  0  0  0  0  0  0  0  0
   -3.1627   -1.5633    2.8467 H   0  0  0  0  0  0  0  0  0  0  0  0
   -4.5822   -0.3561    4.4289 H   0  0  0  0  0  0  0  0  0  0  0  0
   -6.0637    1.4646    3.6484 H   0  0  0  0  0  0  0  0  0  0  0  0
   -4.7155    0.8026   -0.3783 H   0  0  0  0  0  0  0  0  0  0  0  0
   -3.7267   -1.0739   -1.7822 H   0  0  0  0  0  0  0  0  0  0  0  0
   -2.6526    0.2946   -1.3518 H   0  0  0  0  0  0  0  0  0  0  0  0
    3.2544   -2.2193   -2.0086 H   0  0  0  0  0  0  0  0  0  0  0  0
    3.3844   -0.6515   -2.8149 H   0  0  0  0  0  0  0  0  0  0  0  0
    5.3425   -1.0092   -1.4252 H   0  0  0  0  0  0  0  0  0  0  0  0
    4.3503   -1.3880    0.0034 H   0  0  0  0  0  0  0  0  0  0  0  0
    6.2878    3.5749    2.1629 H   0  0  0  0  0  0  0  0  0  0  0  0
    8.4755    2.3375    2.1830 H   0  0  0  0  0  0  0  0  0  0  0  0
    8.5458    0.2252    0.8162 H   0  0  0  0  0  0  0  0  0  0  0  0
    2.8937    0.6578    0.9902 H   0  0  0  0  0  0  0  0  0  0  0  0
    3.0331    2.1986    0.1112 H   0  0  0  0  0  0  0  0  0  0  0  0
    1.9623    1.2886   -1.8628 H   0  0  0  0  0  0  0  0  0  0  0  0
    0.9571    0.9727   -0.4582 H   0  0  0  0  0  0  0  0  0  0  0  0
  1  2  2  0
  2  3  1  0
  3  4  1  0
  4  5  1  0
  5  6  1  0
  6  7  1  0
  7  8  1  0
  8  9  2  0
  9 10  1  0
 10 11  2  0
 11 12  1  0
 12 13  1  0
 13 14  1  0
 14 15  1  0
 14 16  1  0
 14 17  1  0
 12 18  2  0
  7 19  1  0
  2 20  1  0
 20 21  1  0
 21 22  1  0
 22 23  1  0
 23 24  1  0
 24 25  2  0
 25 26  1  0
 26 27  2  0
 27 28  1  0
 28 29  2  0
 23 30  1  0
 30 31  1  0
 19  4  1  0
 31 20  1  0
 18  8  1  0
 29 24  1  0
  3 32  1  0
  4 33  1  0
  5 34  1  0
  5 35  1  0
  6 36  1  0
  6 37  1  0
  9 38  1  0
 10 39  1  0
 11 40  1  0
 18 41  1  0
 19 42  1  0
 19 43  1  0
 21 44  1  0
 21 45  1  0
 22 46  1  0
 22 47  1  0
 26 48  1  0
 27 49  1  0
 28 50  1  0
 30 51  1  0
 30 52  1  0
 31 53  1  0
 31 54  1  0
M  END
$$$$
OCNT-2313360
     RDKit          3D

 50 53  0  0  0  0  0  0  0  0999 V2000
    3.5431    0.6632    3.3286 O   0  0  0  0  0  0  0  0  0  0  0  0
    3.6731    1.3711    2.0726 S   0  0  0  0  0  0  0  0  0  0  0  0
    3.8126    2.8119    2.0350 O   0  0  0  0  0  0  0  0  0  0  0  0
    2.2648    0.9439    1.0686 C   0  0  0  0  0  0  0  0  0  0  0  0
    1.8180    1.8339    0.0878 C   0  0  0  0  0  0  0  0  0  0  0  0
    0.7015    1.5076   -0.6849 C   0  0  0  0  0  0  0  0  0  0  0  0
    0.0174    0.3014   -0.4729 C   0  0  0  0  0  0  0  0  0  0  0  0
   -1.1956   -0.0554   -1.3030 C   0  0  0  0  0  0  0  0  0  0  0  0
   -2.4009   -0.0859   -0.4712 N   0  0  0  0  0  0  0  0  0  0  0  0
   -3.5633   -0.4554   -1.2908 C   0  0  0  0  0  0  0  0  0  0  0  0
   -3.6774   -2.0104   -1.3076 C   0  0  0  0  0  0  0  0  0  0  0  0
   -4.6264   -1.9257   -0.0828 C   0  0  0  0  0  0  0  0  0  0  0  0
   -4.8126   -0.4627   -0.4384 C   0  0  0  0  0  0  0  0  0  0  0  0
   -6.1283   -0.0916   -1.1058 C   0  0  0  0  0  0  0  0  0  0  0  0
   -6.5755    0.4346    0.2810 C   0  0  0  0  0  0  0  0  0  0  0  0
   -5.0769    0.5369    0.6624 C   0  0  0  0  0  0  0  0  0  0  0  0
    0.4610   -0.5675    0.5374 C   0  0  0  0  0  0  0  0  0  0  0  0
    1.5748   -0.2458    1.3142 C   0  0  0  0  0  0  0  0  0  0  0  0
    4.9770    0.7019    1.2285 N   0  0  0  0  0  0  0  0  0  0  0  0
    5.1108   -0.7806    1.1862 C   0  0  0  0  0  0  0  0  0  0  0  0
    5.0310   -1.2916   -0.2562 C   0  0  0  0  0  0  0  0  0  0  0  0
    6.0425   -0.7470   -1.1160 O   0  0  0  0  0  0  0  0  0  0  0  0
    6.4958    0.5544   -0.7151 C   0  0  0  0  0  0  0  0  0  0  0  0
    5.4051    1.3797   -0.0247 C   0  0  0  0  0  0  0  0  0  0  0  0
    2.3267    2.7814   -0.0765 H   0  0  0  0  0  0  0  0  0  0  0  0
    0.3628    2.2062   -1.4475 H   0  0  0  0  0  0  0  0  0  0  0  0
   -1.0118   -1.0295   -1.7725 H   0  0  0  0  0  0  0  0  0  0  0  0
   -1.3156    0.6737   -2.1142 H   0  0  0  0  0  0  0  0  0  0  0  0
   -2.4886    0.8241   -0.0190 H   0  0  0  0  0  0  0  0  0  0  0  0
   -3.6419    0.0491   -2.2585 H   0  0  0  0  0  0  0  0  0  0  0  0
   -4.1757   -2.3910   -2.2081 H   0  0  0  0  0  0  0  0  0  0  0  0
   -2.7657   -2.5952   -1.1528 H   0  0  0  0  0  0  0  0  0  0  0  0
   -5.5092   -2.5690   -0.1322 H   0  0  0  0  0  0  0  0  0  0  0  0
   -4.1190   -2.0996    0.8731 H   0  0  0  0  0  0  0  0  0  0  0  0
   -6.0455    0.6989   -1.8610 H   0  0  0  0  0  0  0  0  0  0  0  0
   -6.7306   -0.9071   -1.5149 H   0  0  0  0  0  0  0  0  0  0  0  0
   -7.1305   -0.3024    0.8729 H   0  0  0  0  0  0  0  0  0  0  0  0
   -7.1288    1.3771    0.2748 H   0  0  0  0  0  0  0  0  0  0  0  0
   -4.8312    0.2283    1.6819 H   0  0  0  0  0  0  0  0  0  0  0  0
   -4.6610    1.5353    0.4833 H   0  0  0  0  0  0  0  0  0  0  0  0
   -0.0817   -1.4917    0.7320 H   0  0  0  0  0  0  0  0  0  0  0  0
    1.8849   -0.9183    2.1106 H   0  0  0  0  0  0  0  0  0  0  0  0
    4.3508   -1.2754    1.7966 H   0  0  0  0  0  0  0  0  0  0  0  0
    6.0865   -1.0305    1.6194 H   0  0  0  0  0  0  0  0  0  0  0  0
    5.1365   -2.3809   -0.2766 H   0  0  0  0  0  0  0  0  0  0  0  0
    4.0571   -1.0506   -0.6974 H   0  0  0  0  0  0  0  0  0  0  0  0
    6.8481    1.0695   -1.6143 H   0  0  0  0  0  0  0  0  0  0  0  0
    7.3595    0.4209   -0.0532 H   0  0  0  0  0  0  0  0  0  0  0  0
    5.7990    2.3718    0.2167 H   0  0  0  0  0  0  0  0  0  0  0  0
    4.5532    1.4841   -0.7031 H   0  0  0  0  0  0  0  0  0  0  0  0
  1  2  2  0
  2  3  2  0
  2  4  1  0
  4  5  1  0
  5  6  2  0
  6  7  1  0
  7  8  1  0
  8  9  1  0
  9 10  1  0
 10 11  1  0
 11 12  1  0
 12 13  1  0
 13 14  1  0
 14 15  1  0
 15 16  1  0
  7 17  2  0
 17 18  1  0
  2 19  1  0
 19 20  1  0
 20 21  1  0
 21 22  1  0
 22 23  1  0
 23 24  1  0
 18  4  2  0
 24 19  1  0
 13 10  1  0
 16 13  1  0
  5 25  1  0
  6 26  1  0
  8 27  1  0
  8 28  1  0
  9 29  1  0
 10 30  1  0
 11 31  1  0
 11 32  1  0
 12 33  1  0
 12 34  1  0
 14 35  1  0
 14 36  1  0
 15 37  1  0
 15 38  1  0
 16 39  1  0
 16 40  1  0
 17 41  1  0
 18 42  1  0
 20 43  1  0
 20 44  1  0
 21 45  1  0
 21 46  1  0
 23 47  1  0
 23 48  1  0
 24 49  1  0
 24 50  1  0
M  END
$$$$
OCNT-2313362
     RDKit          3D

  0  0  0  0  0  0  0  0  0  0999 V3000
M  V30 BEGIN CTAB
M  V30 COUNTS 39 42 0 0 0
M  V30 BEGIN ATOM
M  V30 1 O 1.012213 -2.964235 0.557499 0
M  V30 2 S 0.169380 -1.790363 0.592095 0
M  V30 3 O -1.048867 -1.738102 1.365552 0
M  V30 4 N -0.186067 -1.432399 -1.016930 0
M  V30 5 C -1.430428 -0.696458 -1.360762 0 CFG=2
M  V30 6 C -2.654947 -1.630482 -1.269195 0
M  V30 7 C -3.509196 -1.317276 -2.486795 0
M  V30 8 C -2.477626 -1.033348 -3.561422 0
M  V30 9 C -1.361000 -0.261386 -2.850557 0 CFG=1
M  V30 10 C -1.579847 1.254194 -2.830325 0
M  V30 11 N -2.261788 1.524923 -1.567240 0
M  V30 12 C -1.602612 0.635318 -0.607938 0
M  V30 13 C 1.203421 -0.521902 1.241921 0
M  V30 14 C 1.602858 -0.231441 2.529766 0
M  V30 15 Cl 1.199862 -1.040221 3.964087 0
M  V30 16 C 2.430804 0.898499 2.406761 0
M  V30 17 C 3.126496 1.631354 3.586325 0
M  V30 18 C 4.277505 0.960928 4.293244 0
M  V30 19 C 4.531935 2.150175 3.414988 0
M  V30 20 N 2.539227 1.303310 1.140683 0
M  V30 21 O 1.787238 0.400901 0.409247 0
M  V30 22 H -0.018353 -2.260507 -1.591957 0
M  V30 23 H -3.222691 -1.500638 -0.342209 0
M  V30 24 H -2.346952 -2.683307 -1.312220 0
M  V30 25 H -4.166110 -2.150213 -2.754144 0
M  V30 26 H -4.137188 -0.438109 -2.306094 0
M  V30 27 H -2.902249 -0.493835 -4.413234 0
M  V30 28 H -2.076528 -1.982873 -3.937728 0
M  V30 29 H -0.398399 -0.480711 -3.327985 0
M  V30 30 H -2.160441 1.615803 -3.683976 0
M  V30 31 H -0.610889 1.768788 -2.840385 0
M  V30 32 H -2.141152 2.499976 -1.294664 0
M  V30 33 H -2.201265 0.535464 0.302246 0
M  V30 34 H -0.637193 1.070626 -0.330835 0
M  V30 35 H 2.454402 2.232905 4.190130 0
M  V30 36 H 4.357615 1.093587 5.366155 0
M  V30 37 H 4.618789 -0.006432 3.941787 0
M  V30 38 H 4.783400 3.091792 3.889322 0
M  V30 39 H 5.036642 1.985691 2.469202 0
M  V30 END ATOM
M  V30 BEGIN BOND
M  V30 1 2 1 2
M  V30 2 2 2 3
M  V30 3 1 2 4
M  V30 4 1 5 4 CFG=1
M  V30 5 1 5 6
M  V30 6 1 6 7
M  V30 7 1 7 8
M  V30 8 1 8 9
M  V30 9 1 9 10
M  V30 10 1 10 11
M  V30 11 1 11 12
M  V30 12 1 2 13
M  V30 13 2 13 14
M  V30 14 1 14 15
M  V30 15 1 14 16
M  V30 16 1 16 17
M  V30 17 1 17 18
M  V30 18 1 18 19
M  V30 19 2 16 20
M  V30 20 1 20 21
M  V30 21 1 9 5
M  V30 22 1 21 13
M  V30 23 1 12 5
M  V30 24 1 19 17
M  V30 25 1 4 22
M  V30 26 1 6 23
M  V30 27 1 6 24
M  V30 28 1 7 25
M  V30 29 1 7 26
M  V30 30 1 8 27
M  V30 31 1 8 28
M  V30 32 1 9 29 CFG=3
M  V30 33 1 10 30
M  V30 34 1 10 31
M  V30 35 1 11 32
M  V30 36 1 12 33
M  V30 37 1 12 34
M  V30 38 1 17 35
M  V30 39 1 18 36
M  V30 40 1 18 37
M  V30 41 1 19 38
M  V30 42 1 19 39
M  V30 END BOND
M  V30 BEGIN COLLECTION
M  V30 MDLV30/STERAC1 ATOMS=(2 5 9)
M  V30 END COLLECTION
M  V30 END CTAB
M  END
>  <_CXSMILES_Data>  (735) 
|&1:4,8|

$$$$
OCNT-2313374
     RDKit          3D

 49 52  0  0  0  0  0  0  0  0999 V2000
    6.3327   -1.6027    1.9822 N   0  0  0  0  0  0  0  0  0  0  0  0
    6.9456   -0.8491    1.0147 C   0  0  0  0  0  0  0  0  0  0  0  0
    8.1663   -0.7326    1.0013 O   0  0  0  0  0  0  0  0  0  0  0  0
    6.0954   -0.1864   -0.0194 C   0  0  0  0  0  0  0  0  0  0  0  0
    6.7390    0.4326   -1.0989 C   0  0  0  0  0  0  0  0  0  0  0  0
    5.9956    1.0658   -2.0957 C   0  0  0  0  0  0  0  0  0  0  0  0
    4.6007    1.0790   -2.0201 C   0  0  0  0  0  0  0  0  0  0  0  0
    3.9393    0.4574   -0.9544 C   0  0  0  0  0  0  0  0  0  0  0  0
    2.5280    0.4930   -0.9551 N   0  0  0  0  0  0  0  0  0  0  0  0
    1.6759   -0.2091   -0.1280 C   0  0  0  0  0  0  0  0  0  0  0  0
    1.9936   -1.0139    0.7379 O   0  0  0  0  0  0  0  0  0  0  0  0
    0.3567    0.0930   -0.4215 N   0  0  0  0  0  0  0  0  0  0  0  0
   -0.7000   -0.5142    0.3702 C   0  0  0  0  0  0  0  0  0  0  0  0
   -2.0622   -0.4592   -0.3426 C   0  0  0  0  0  0  0  0  0  0  0  0
   -3.1138   -1.3503    0.3707 C   0  0  0  0  0  0  0  0  0  0  0  0
   -3.4939   -0.7556    1.7419 C   0  0  0  0  0  0  0  0  0  0  0  0
   -4.0756    0.6587    1.5652 C   0  0  0  0  0  0  0  0  0  0  0  0
   -5.3317    0.5801    0.6801 C   0  0  0  0  0  0  0  0  0  0  0  0
   -4.9692   -0.0059   -0.6963 C   0  0  0  0  0  0  0  0  0  0  0  0
   -4.3834   -1.4162   -0.5025 C   0  0  0  0  0  0  0  0  0  0  0  0
   -3.9165    0.8930   -1.3683 C   0  0  0  0  0  0  0  0  0  0  0  0
   -2.6462    0.9734   -0.4933 C   0  0  0  0  0  0  0  0  0  0  0  0
   -3.0356    1.5595    0.8785 C   0  0  0  0  0  0  0  0  0  0  0  0
    4.6941   -0.1501    0.0560 C   0  0  0  0  0  0  0  0  0  0  0  0
    6.9319   -2.1211    2.6131 H   0  0  0  0  0  0  0  0  0  0  0  0
    5.3453   -1.8442    1.9803 H   0  0  0  0  0  0  0  0  0  0  0  0
    7.8268    0.4219   -1.1671 H   0  0  0  0  0  0  0  0  0  0  0  0
    6.5043    1.5512   -2.9263 H   0  0  0  0  0  0  0  0  0  0  0  0
    4.0431    1.5833   -2.8033 H   0  0  0  0  0  0  0  0  0  0  0  0
    2.0860    0.9276   -1.7513 H   0  0  0  0  0  0  0  0  0  0  0  0
    0.2110    1.0547   -0.6875 H   0  0  0  0  0  0  0  0  0  0  0  0
   -0.4286   -1.5613    0.5523 H   0  0  0  0  0  0  0  0  0  0  0  0
   -0.7067   -0.0118    1.3420 H   0  0  0  0  0  0  0  0  0  0  0  0
   -1.9048   -0.8639   -1.3555 H   0  0  0  0  0  0  0  0  0  0  0  0
   -2.7190   -2.3642    0.5065 H   0  0  0  0  0  0  0  0  0  0  0  0
   -4.2319   -1.4009    2.2334 H   0  0  0  0  0  0  0  0  0  0  0  0
   -2.6225   -0.7231    2.4059 H   0  0  0  0  0  0  0  0  0  0  0  0
   -4.3387    1.0742    2.5452 H   0  0  0  0  0  0  0  0  0  0  0  0
   -6.0925   -0.0431    1.1655 H   0  0  0  0  0  0  0  0  0  0  0  0
   -5.7688    1.5792    0.5603 H   0  0  0  0  0  0  0  0  0  0  0  0
   -5.8664   -0.0612   -1.3235 H   0  0  0  0  0  0  0  0  0  0  0  0
   -5.1281   -2.0682   -0.0308 H   0  0  0  0  0  0  0  0  0  0  0  0
   -4.1455   -1.8622   -1.4762 H   0  0  0  0  0  0  0  0  0  0  0  0
   -4.3279    1.8987   -1.5261 H   0  0  0  0  0  0  0  0  0  0  0  0
   -3.6635    0.4933   -2.3575 H   0  0  0  0  0  0  0  0  0  0  0  0
   -1.9232    1.6339   -0.9834 H   0  0  0  0  0  0  0  0  0  0  0  0
   -2.1537    1.6730    1.5177 H   0  0  0  0  0  0  0  0  0  0  0  0
   -3.4500    2.5670    0.7450 H   0  0  0  0  0  0  0  0  0  0  0  0
    4.1885   -0.5732    0.9187 H   0  0  0  0  0  0  0  0  0  0  0  0
  1  2  1  0
  2  3  2  0
  2  4  1  0
  4  5  1  0
  5  6  2  0
  6  7  1  0
  7  8  2  0
  8  9  1  0
  9 10  1  0
 10 11  2  0
 10 12  1  0
 12 13  1  0
 13 14  1  0
 14 15  1  0
 15 16  1  0
 16 17  1  0
 17 18  1  0
 18 19  1  0
 19 20  1  0
 19 21  1  0
 21 22  1  0
 22 23  1  0
  8 24  1  0
 24  4  2  0
 22 14  1  0
 20 15  1  0
 23 17  1  0
  1 25  1  0
  1 26  1  0
  5 27  1  0
  6 28  1  0
  7 29  1  0
  9 30  1  0
 12 31  1  0
 13 32  1  0
 13 33  1  0
 14 34  1  0
 15 35  1  0
 16 36  1  0
 16 37  1  0
 17 38  1  0
 18 39  1  0
 18 40  1  0
 19 41  1  0
 20 42  1  0
 20 43  1  0
 21 44  1  0
 21 45  1  0
 22 46  1  0
 23 47  1  0
 23 48  1  0
 24 49  1  0
M  END
$$$$
OCNT-2313383
     RDKit          3D

 44 46  0  0  0  0  0  0  0  0999 V2000
    6.6048   -0.1874   -0.8796 C   0  0  0  0  0  0  0  0  0  0  0  0
    5.1546   -0.1021   -0.8132 N   0  0  0  0  0  0  0  0  0  0  0  0
    4.5809    0.6437    0.1972 C   0  0  0  0  0  0  0  0  0  0  0  0
    3.2522    0.7591    0.3043 C   0  0  0  0  0  0  0  0  0  0  0  0
    2.3731    0.0968   -0.6403 C   0  0  0  0  0  0  0  0  0  0  0  0
    1.0204    0.2911   -0.4418 N   0  0  0  0  0  0  0  0  0  0  0  0
   -0.0377   -0.3285   -1.0760 C   0  0  0  0  0  0  0  0  0  0  0  0
    0.0893   -1.2791   -1.8440 O   0  0  0  0  0  0  0  0  0  0  0  0
   -1.2970    0.2007   -0.7504 N   0  0  0  0  0  0  0  0  0  0  0  0
   -2.4537   -0.6300   -1.1030 C   0  0  0  0  0  0  0  0  0  0  0  0
   -2.9227   -1.4672    0.0662 C   0  0  0  0  0  0  0  0  0  0  0  0
   -2.1905   -2.5958    0.4719 C   0  0  0  0  0  0  0  0  0  0  0  0
   -2.6083   -3.3665    1.5602 C   0  0  0  0  0  0  0  0  0  0  0  0
   -3.7632   -3.0170    2.2560 C   0  0  0  0  0  0  0  0  0  0  0  0
   -4.4902   -1.9028    1.8557 C   0  0  0  0  0  0  0  0  0  0  0  0
   -5.6012   -1.5654    2.5240 F   0  0  0  0  0  0  0  0  0  0  0  0
   -4.0844   -1.1288    0.7726 C   0  0  0  0  0  0  0  0  0  0  0  0
   -1.5205    1.4188    0.0845 C   0  0  0  0  0  0  0  0  0  0  0  0
   -0.8142    2.7142   -0.4202 C   0  0  0  0  0  0  0  0  0  0  0  0
   -2.0359    3.4939    0.0995 C   0  0  0  0  0  0  0  0  0  0  0  0
   -2.8470    2.2057   -0.1302 C   0  0  0  0  0  0  0  0  0  0  0  0
    2.9121   -0.6233   -1.6358 C   0  0  0  0  0  0  0  0  0  0  0  0
    4.3881   -0.7616   -1.7715 C   0  0  0  0  0  0  0  0  0  0  0  0
    4.8475   -1.4273   -2.6960 O   0  0  0  0  0  0  0  0  0  0  0  0
    6.9392   -0.8267   -1.7010 H   0  0  0  0  0  0  0  0  0  0  0  0
    6.9821   -0.6006    0.0614 H   0  0  0  0  0  0  0  0  0  0  0  0
    7.0133    0.8172   -1.0283 H   0  0  0  0  0  0  0  0  0  0  0  0
    5.2526    1.1312    0.8976 H   0  0  0  0  0  0  0  0  0  0  0  0
    2.8299    1.3531    1.1075 H   0  0  0  0  0  0  0  0  0  0  0  0
    0.7674    0.8308    0.3696 H   0  0  0  0  0  0  0  0  0  0  0  0
   -3.2627    0.0086   -1.4698 H   0  0  0  0  0  0  0  0  0  0  0  0
   -2.2198   -1.2979   -1.9405 H   0  0  0  0  0  0  0  0  0  0  0  0
   -1.2871   -2.8830   -0.0661 H   0  0  0  0  0  0  0  0  0  0  0  0
   -2.0324   -4.2384    1.8602 H   0  0  0  0  0  0  0  0  0  0  0  0
   -4.1016   -3.6055    3.1025 H   0  0  0  0  0  0  0  0  0  0  0  0
   -4.6856   -0.2699    0.4912 H   0  0  0  0  0  0  0  0  0  0  0  0
   -1.3305    1.2041    1.1452 H   0  0  0  0  0  0  0  0  0  0  0  0
    0.1308    2.9746    0.0637 H   0  0  0  0  0  0  0  0  0  0  0  0
   -0.6853    2.7710   -1.5078 H   0  0  0  0  0  0  0  0  0  0  0  0
   -1.9594    3.7885    1.1524 H   0  0  0  0  0  0  0  0  0  0  0  0
   -2.3367    4.3606   -0.4939 H   0  0  0  0  0  0  0  0  0  0  0  0
   -3.6373    2.0203    0.6013 H   0  0  0  0  0  0  0  0  0  0  0  0
   -3.2733    2.1582   -1.1387 H   0  0  0  0  0  0  0  0  0  0  0  0
    2.3400   -1.1376   -2.3959 H   0  0  0  0  0  0  0  0  0  0  0  0
  1  2  1  0
  2  3  1  0
  3  4  2  0
  4  5  1  0
  5  6  1  0
  6  7  1  0
  7  8  2  0
  7  9  1  0
  9 10  1  0
 10 11  1  0
 11 12  2  0
 12 13  1  0
 13 14  2  0
 14 15  1  0
 15 16  1  0
 15 17  2  0
  9 18  1  0
 18 19  1  0
 19 20  1  0
 20 21  1  0
  5 22  2  0
 22 23  1  0
 23 24  2  0
 23  2  1  0
 17 11  1  0
 21 18  1  0
  1 25  1  0
  1 26  1  0
  1 27  1  0
  3 28  1  0
  4 29  1  0
  6 30  1  0
 10 31  1  0
 10 32  1  0
 12 33  1  0
 13 34  1  0
 14 35  1  0
 17 36  1  0
 18 37  1  0
 19 38  1  0
 19 39  1  0
 20 40  1  0
 20 41  1  0
 21 42  1  0
 21 43  1  0
 22 44  1  0
M  END
$$$$
OCNT-2313386
     RDKit          3D

 53 55  0  0  0  0  0  0  0  0999 V2000
   -9.8762   -0.8247   -0.0976 C   0  0  0  0  0  0  0  0  0  0  0  0
   -8.8304   -0.7233   -1.0559 O   0  0  0  0  0  0  0  0  0  0  0  0
   -7.5510   -0.8549   -0.5918 C   0  0  0  0  0  0  0  0  0  0  0  0
   -7.1731   -1.0251    0.7399 C   0  0  0  0  0  0  0  0  0  0  0  0
   -5.8197   -1.1449    1.0787 C   0  0  0  0  0  0  0  0  0  0  0  0
   -4.8283   -1.1019    0.0901 C   0  0  0  0  0  0  0  0  0  0  0  0
   -3.3696   -1.2093    0.4500 C   0  0  0  0  0  0  0  0  0  0  0  0
   -2.7577    0.0988    0.4824 N   0  0  0  0  0  0  0  0  0  0  0  0
   -1.9330    0.5474   -0.5227 C   0  0  0  0  0  0  0  0  0  0  0  0
   -1.6203   -0.1297   -1.5012 O   0  0  0  0  0  0  0  0  0  0  0  0
   -1.4696    1.9972   -0.3579 C   0  0  0  0  0  0  0  0  0  0  0  0
   -0.1762    2.1565   -0.9962 N   0  0  0  0  0  0  0  0  0  0  0  0
    0.9801    2.0282   -0.2552 C   0  0  0  0  0  0  0  0  0  0  0  0
    0.9896    1.9855    0.9693 O   0  0  0  0  0  0  0  0  0  0  0  0
    2.2275    1.9787   -1.1180 C   0  0  0  0  0  0  0  0  0  0  0  0
    3.5085    1.7194   -0.3284 C   0  0  0  0  0  0  0  0  0  0  0  0
    3.6042    0.2755    0.1769 C   0  0  0  0  0  0  0  0  0  0  0  0
    4.9083    0.0097    0.8615 C   0  0  0  0  0  0  0  0  0  0  0  0
    5.1682    0.1702    2.2084 C   0  0  0  0  0  0  0  0  0  0  0  0
    6.4731   -0.1697    2.4389 N   0  0  0  0  0  0  0  0  0  0  0  0
    7.0810   -0.5501    1.2655 C   0  0  0  0  0  0  0  0  0  0  0  0
    8.3946   -0.9716    1.0252 C   0  0  0  0  0  0  0  0  0  0  0  0
    8.7399   -1.3001   -0.2888 C   0  0  0  0  0  0  0  0  0  0  0  0
    7.8073   -1.2091   -1.3193 C   0  0  0  0  0  0  0  0  0  0  0  0
    6.4985   -0.7849   -1.0614 C   0  0  0  0  0  0  0  0  0  0  0  0
    6.1231   -0.4488    0.2561 C   0  0  0  0  0  0  0  0  0  0  0  0
   -5.2141   -0.9233   -1.2441 C   0  0  0  0  0  0  0  0  0  0  0  0
   -6.5646   -0.8024   -1.5788 C   0  0  0  0  0  0  0  0  0  0  0  0
   -9.8724   -1.8052    0.3902 H   0  0  0  0  0  0  0  0  0  0  0  0
   -9.8162   -0.0169    0.6386 H   0  0  0  0  0  0  0  0  0  0  0  0
  -10.8273   -0.7212   -0.6286 H   0  0  0  0  0  0  0  0  0  0  0  0
   -7.9048   -1.0677    1.5398 H   0  0  0  0  0  0  0  0  0  0  0  0
   -5.5473   -1.2766    2.1234 H   0  0  0  0  0  0  0  0  0  0  0  0
   -3.2510   -1.6469    1.4473 H   0  0  0  0  0  0  0  0  0  0  0  0
   -2.8529   -1.8689   -0.2560 H   0  0  0  0  0  0  0  0  0  0  0  0
   -3.0423    0.7334    1.2162 H   0  0  0  0  0  0  0  0  0  0  0  0
   -2.1819    2.6456   -0.8762 H   0  0  0  0  0  0  0  0  0  0  0  0
   -1.4215    2.2749    0.6989 H   0  0  0  0  0  0  0  0  0  0  0  0
   -0.1340    1.8614   -1.9655 H   0  0  0  0  0  0  0  0  0  0  0  0
    2.3125    2.9506   -1.6190 H   0  0  0  0  0  0  0  0  0  0  0  0
    2.0989    1.2125   -1.8914 H   0  0  0  0  0  0  0  0  0  0  0  0
    3.5832    2.4177    0.5151 H   0  0  0  0  0  0  0  0  0  0  0  0
    4.3642    1.9298   -0.9831 H   0  0  0  0  0  0  0  0  0  0  0  0
    2.7846    0.0582    0.8721 H   0  0  0  0  0  0  0  0  0  0  0  0
    3.4873   -0.4206   -0.6630 H   0  0  0  0  0  0  0  0  0  0  0  0
    4.5311    0.4997    3.0187 H   0  0  0  0  0  0  0  0  0  0  0  0
    6.9309   -0.1456    3.3390 H   0  0  0  0  0  0  0  0  0  0  0  0
    9.1232   -1.0433    1.8260 H   0  0  0  0  0  0  0  0  0  0  0  0
    9.7520   -1.6320   -0.5083 H   0  0  0  0  0  0  0  0  0  0  0  0
    8.0961   -1.4706   -2.3339 H   0  0  0  0  0  0  0  0  0  0  0  0
    5.7797   -0.7177   -1.8718 H   0  0  0  0  0  0  0  0  0  0  0  0
   -4.4624   -0.8767   -2.0305 H   0  0  0  0  0  0  0  0  0  0  0  0
   -6.8497   -0.6673   -2.6194 H   0  0  0  0  0  0  0  0  0  0  0  0
  1  2  1  0
  2  3  1  0
  3  4  1  0
  4  5  2  0
  5  6  1  0
  6  7  1  0
  7  8  1  0
  8  9  1  0
  9 10  2  0
  9 11  1  0
 11 12  1  0
 12 13  1  0
 13 14  2  0
 13 15  1  0
 15 16  1  0
 16 17  1  0
 17 18  1  0
 18 19  2  0
 19 20  1  0
 20 21  1  0
 21 22  2  0
 22 23  1  0
 23 24  2  0
 24 25  1  0
 25 26  2  0
  6 27  2  0
 27 28  1  0
 28  3  2  0
 26 18  1  0
 26 21  1  0
  1 29  1  0
  1 30  1  0
  1 31  1  0
  4 32  1  0
  5 33  1  0
  7 34  1  0
  7 35  1  0
  8 36  1  0
 11 37  1  0
 11 38  1  0
 12 39  1  0
 15 40  1  0
 15 41  1  0
 16 42  1  0
 16 43  1  0
 17 44  1  0
 17 45  1  0
 19 46  1  0
 20 47  1  0
 22 48  1  0
 23 49  1  0
 24 50  1  0
 25 51  1  0
 27 52  1  0
 28 53  1  0
M  END
$$$$
OCNT-2313388
     RDKit          3D

 41 43  0  0  0  0  0  0  0  0999 V2000
   -0.2420    0.1689    1.6729 C   0  0  0  0  0  0  0  0  0  0  0  0
   -0.3325   -0.9394    0.7249 N   0  0  0  0  0  0  0  0  0  0  0  0
    0.6501   -1.2192   -0.2316 C   0  0  0  0  0  0  0  0  0  0  0  0
    0.4497   -2.0464   -1.1212 O   0  0  0  0  0  0  0  0  0  0  0  0
    1.9147   -0.5125   -0.1583 C   0  0  0  0  0  0  0  0  0  0  0  0
    2.4582    0.3316   -1.1015 C   0  0  0  0  0  0  0  0  0  0  0  0
    3.7591    0.8288   -0.7362 C   0  0  0  0  0  0  0  0  0  0  0  0
    4.6540    1.7165   -1.3649 C   0  0  0  0  0  0  0  0  0  0  0  0
    4.1833    2.3987   -2.8555 Cl  0  0  0  0  0  0  0  0  0  0  0  0
    5.8602    2.0041   -0.7556 C   0  0  0  0  0  0  0  0  0  0  0  0
    6.2421    1.4757    0.4245 N   0  0  0  0  0  0  0  0  0  0  0  0
    5.4093    0.6122    1.0530 C   0  0  0  0  0  0  0  0  0  0  0  0
    4.1715    0.2845    0.4869 C   0  0  0  0  0  0  0  0  0  0  0  0
    2.9915   -0.7919    1.1330 S   0  0  0  0  0  0  0  0  0  0  0  0
   -1.5973   -1.7235    0.7586 C   0  0  0  0  0  0  0  0  0  0  0  0
   -1.3525   -3.2405    0.9561 C   0  0  0  0  0  0  0  0  0  0  0  0
   -1.1203   -3.9503   -0.2543 O   0  0  0  0  0  0  0  0  0  0  0  0
   -2.5232   -1.4478   -0.4497 C   0  0  0  0  0  0  0  0  0  0  0  0
   -2.9979   -0.0135   -0.5228 C   0  0  0  0  0  0  0  0  0  0  0  0
   -4.0600    0.4279    0.2781 C   0  0  0  0  0  0  0  0  0  0  0  0
   -4.4778    1.7585    0.2257 C   0  0  0  0  0  0  0  0  0  0  0  0
   -3.8389    2.6584   -0.6255 C   0  0  0  0  0  0  0  0  0  0  0  0
   -2.7833    2.2290   -1.4275 C   0  0  0  0  0  0  0  0  0  0  0  0
   -2.3642    0.8991   -1.3774 C   0  0  0  0  0  0  0  0  0  0  0  0
   -0.0291   -0.2435    2.6633 H   0  0  0  0  0  0  0  0  0  0  0  0
   -1.1954    0.7036    1.7055 H   0  0  0  0  0  0  0  0  0  0  0  0
    0.5283    0.8926    1.4022 H   0  0  0  0  0  0  0  0  0  0  0  0
    1.9404    0.5914   -2.0184 H   0  0  0  0  0  0  0  0  0  0  0  0
    6.5730    2.6857   -1.2103 H   0  0  0  0  0  0  0  0  0  0  0  0
    5.7521    0.2009    1.9963 H   0  0  0  0  0  0  0  0  0  0  0  0
   -2.1163   -1.4002    1.6719 H   0  0  0  0  0  0  0  0  0  0  0  0
   -2.2416   -3.6903    1.4112 H   0  0  0  0  0  0  0  0  0  0  0  0
   -0.5099   -3.4191    1.6326 H   0  0  0  0  0  0  0  0  0  0  0  0
   -0.4376   -3.4523   -0.7559 H   0  0  0  0  0  0  0  0  0  0  0  0
   -3.4079   -2.0956   -0.3866 H   0  0  0  0  0  0  0  0  0  0  0  0
   -2.0360   -1.7103   -1.3959 H   0  0  0  0  0  0  0  0  0  0  0  0
   -4.5716   -0.2629    0.9443 H   0  0  0  0  0  0  0  0  0  0  0  0
   -5.3053    2.0927    0.8461 H   0  0  0  0  0  0  0  0  0  0  0  0
   -4.1678    3.6934   -0.6685 H   0  0  0  0  0  0  0  0  0  0  0  0
   -2.2889    2.9289   -2.0961 H   0  0  0  0  0  0  0  0  0  0  0  0
   -1.5404    0.5760   -2.0104 H   0  0  0  0  0  0  0  0  0  0  0  0
  1  2  1  0
  2  3  1  0
  3  4  2  0
  3  5  1  0
  5  6  2  0
  6  7  1  0
  7  8  2  0
  8  9  1  0
  8 10  1  0
 10 11  2  0
 11 12  1  0
 12 13  2  0
 13 14  1  0
  2 15  1  0
 15 16  1  0
 16 17  1  0
 15 18  1  0
 18 19  1  0
 19 20  2  0
 20 21  1  0
 21 22  2  0
 22 23  1  0
 23 24  2  0
 14  5  1  0
 24 19  1  0
 13  7  1  0
  1 25  1  0
  1 26  1  0
  1 27  1  0
  6 28  1  0
 10 29  1  0
 12 30  1  0
 15 31  1  0
 16 32  1  0
 16 33  1  0
 17 34  1  0
 18 35  1  0
 18 36  1  0
 20 37  1  0
 21 38  1  0
 22 39  1  0
 23 40  1  0
 24 41  1  0
M  END
$$$$
OCNT-2313389
     RDKit          3D

 49 52  0  0  0  0  0  0  0  0999 V2000
   -2.6760   -2.3606   -1.4608 C   0  0  0  0  0  0  0  0  0  0  0  0
   -2.8007   -1.4215   -0.2455 C   0  0  0  0  0  0  0  0  0  0  0  0
   -3.9420   -0.4474   -0.5376 C   0  0  0  0  0  0  0  0  0  0  0  0
   -5.1766   -0.5919    0.1149 C   0  0  0  0  0  0  0  0  0  0  0  0
   -6.2287    0.2861   -0.1537 C   0  0  0  0  0  0  0  0  0  0  0  0
   -6.0616    1.3159   -1.0776 C   0  0  0  0  0  0  0  0  0  0  0  0
   -4.8432    1.4700   -1.7355 C   0  0  0  0  0  0  0  0  0  0  0  0
   -3.7904    0.5936   -1.4692 C   0  0  0  0  0  0  0  0  0  0  0  0
   -1.5329   -0.7201    0.0844 N   0  0  0  0  0  0  0  0  0  0  0  0
   -0.3790   -1.6344    0.1639 C   0  0  0  0  0  0  0  0  0  0  0  0
    0.8064   -1.0757    0.9607 C   0  0  0  0  0  0  0  0  0  0  0  0
    0.8545    0.4444    0.8532 C   0  0  0  0  0  0  0  0  0  0  0  0
    1.9958    0.9746    1.5982 N   0  0  0  0  0  0  0  0  0  0  0  0
    3.2864    0.9674    1.1183 C   0  0  0  0  0  0  0  0  0  0  0  0
    3.5109    0.6549   -0.1309 N   0  0  0  0  0  0  0  0  0  0  0  0
    4.8250    0.6712   -0.4902 N   0  0  0  0  0  0  0  0  0  0  0  0
    5.9079    0.9896    0.2981 C   0  0  0  0  0  0  0  0  0  0  0  0
    7.0121    0.9085   -0.4099 N   0  0  0  0  0  0  0  0  0  0  0  0
    6.6609    0.5241   -1.6858 N   0  0  0  0  0  0  0  0  0  0  0  0
    5.3475    0.3802   -1.7218 C   0  0  0  0  0  0  0  0  0  0  0  0
    4.4813   -0.0237   -2.8414 C   0  0  0  0  0  0  0  0  0  0  0  0
    4.0924   -1.3247   -2.7234 F   0  0  0  0  0  0  0  0  0  0  0  0
    5.1236    0.0641   -4.0401 F   0  0  0  0  0  0  0  0  0  0  0  0
    5.6530    1.3298    1.6384 C   0  0  0  0  0  0  0  0  0  0  0  0
    4.3876    1.3288    2.0744 C   0  0  0  0  0  0  0  0  0  0  0  0
   -0.4463    1.0551    1.3948 C   0  0  0  0  0  0  0  0  0  0  0  0
   -1.6359    0.0921    1.3016 C   0  0  0  0  0  0  0  0  0  0  0  0
   -2.0041   -3.2006   -1.2571 H   0  0  0  0  0  0  0  0  0  0  0  0
   -2.2987   -1.8329   -2.3445 H   0  0  0  0  0  0  0  0  0  0  0  0
   -3.6494   -2.7910   -1.7253 H   0  0  0  0  0  0  0  0  0  0  0  0
   -3.0819   -2.0423    0.6168 H   0  0  0  0  0  0  0  0  0  0  0  0
   -5.3278   -1.3911    0.8366 H   0  0  0  0  0  0  0  0  0  0  0  0
   -7.1805    0.1652    0.3570 H   0  0  0  0  0  0  0  0  0  0  0  0
   -6.8814    1.9980   -1.2863 H   0  0  0  0  0  0  0  0  0  0  0  0
   -4.7109    2.2723   -2.4564 H   0  0  0  0  0  0  0  0  0  0  0  0
   -2.8415    0.7254   -1.9854 H   0  0  0  0  0  0  0  0  0  0  0  0
   -0.6601   -2.5917    0.6212 H   0  0  0  0  0  0  0  0  0  0  0  0
   -0.0364   -1.8457   -0.8562 H   0  0  0  0  0  0  0  0  0  0  0  0
    0.7137   -1.3682    2.0155 H   0  0  0  0  0  0  0  0  0  0  0  0
    1.7363   -1.5291    0.5974 H   0  0  0  0  0  0  0  0  0  0  0  0
    0.9447    0.7291   -0.2037 H   0  0  0  0  0  0  0  0  0  0  0  0
    1.8753    0.9904    2.6046 H   0  0  0  0  0  0  0  0  0  0  0  0
    3.5811    0.5938   -2.9094 H   0  0  0  0  0  0  0  0  0  0  0  0
    6.4835    1.5876    2.2849 H   0  0  0  0  0  0  0  0  0  0  0  0
    4.1297    1.5891    3.0922 H   0  0  0  0  0  0  0  0  0  0  0  0
   -0.6632    1.9682    0.8247 H   0  0  0  0  0  0  0  0  0  0  0  0
   -0.3388    1.3700    2.4406 H   0  0  0  0  0  0  0  0  0  0  0  0
   -1.6776   -0.5511    2.1908 H   0  0  0  0  0  0  0  0  0  0  0  0
   -2.5442    0.7041    1.3226 H   0  0  0  0  0  0  0  0  0  0  0  0
  1  2  1  0
  2  3  1  0
  3  4  2  0
  4  5  1  0
  5  6  2  0
  6  7  1  0
  7  8  2  0
  2  9  1  0
  9 10  1  0
 10 11  1  0
 11 12  1  0
 12 13  1  0
 13 14  1  0
 14 15  2  0
 15 16  1  0
 16 17  1  0
 17 18  2  0
 18 19  1  0
 19 20  2  0
 20 21  1  0
 21 22  1  0
 21 23  1  0
 17 24  1  0
 24 25  2  0
 12 26  1  0
 26 27  1  0
  8  3  1  0
 27  9  1  0
 25 14  1  0
 20 16  1  0
  1 28  1  0
  1 29  1  0
  1 30  1  0
  2 31  1  0
  4 32  1  0
  5 33  1  0
  6 34  1  0
  7 35  1  0
  8 36  1  0
 10 37  1  0
 10 38  1  0
 11 39  1  0
 11 40  1  0
 12 41  1  0
 13 42  1  0
 21 43  1  0
 24 44  1  0
 25 45  1  0
 26 46  1  0
 26 47  1  0
 27 48  1  0
 27 49  1  0
M  END
$$$$
OCNT-2313400
     RDKit          3D

 51 54  0  0  0  0  0  0  0  0999 V2000
   -4.3682   -0.9586    3.1419 O   0  0  0  0  0  0  0  0  0  0  0  0
   -3.7623   -0.4585    1.9430 C   0  0  0  0  0  0  0  0  0  0  0  0
   -3.9647    1.0556    1.9127 C   0  0  0  0  0  0  0  0  0  0  0  0
   -5.4392    1.4515    1.8028 C   0  0  0  0  0  0  0  0  0  0  0  0
   -6.2678    0.4957    0.9444 C   0  0  0  0  0  0  0  0  0  0  0  0
   -5.4032   -0.2870   -0.0357 C   0  0  0  0  0  0  0  0  0  0  0  0
   -4.3748   -1.1636    0.7062 C   0  0  0  0  0  0  0  0  0  0  0  0
   -3.3070   -1.6705   -0.2118 C   0  0  0  0  0  0  0  0  0  0  0  0
   -2.4899   -1.0003   -1.0972 C   0  0  0  0  0  0  0  0  0  0  0  0
   -1.6949   -1.9786   -1.6186 N   0  0  0  0  0  0  0  0  0  0  0  0
   -0.6554   -1.8488   -2.6227 C   0  0  0  0  0  0  0  0  0  0  0  0
    0.5800   -1.1891   -2.0612 C   0  0  0  0  0  0  0  0  0  0  0  0
    1.3635   -1.8430   -1.0986 C   0  0  0  0  0  0  0  0  0  0  0  0
    2.5066   -1.2335   -0.5693 C   0  0  0  0  0  0  0  0  0  0  0  0
    2.8838    0.0383   -0.9976 C   0  0  0  0  0  0  0  0  0  0  0  0
    3.9703    0.7466   -0.5664 O   0  0  0  0  0  0  0  0  0  0  0  0
    4.7795    0.1465    0.4433 C   0  0  0  0  0  0  0  0  0  0  0  0
    5.9163    1.0844    0.7613 C   0  0  0  0  0  0  0  0  0  0  0  0
    6.8376    1.4447   -0.2275 C   0  0  0  0  0  0  0  0  0  0  0  0
    7.8744    2.3008    0.1079 C   0  0  0  0  0  0  0  0  0  0  0  0
    8.0560    2.8121    1.3438 N   0  0  0  0  0  0  0  0  0  0  0  0
    7.1546    2.4564    2.2834 C   0  0  0  0  0  0  0  0  0  0  0  0
    6.0841    1.6075    2.0462 C   0  0  0  0  0  0  0  0  0  0  0  0
    2.1096    0.6906   -1.9596 C   0  0  0  0  0  0  0  0  0  0  0  0
    0.9670    0.0863   -2.4895 C   0  0  0  0  0  0  0  0  0  0  0  0
   -2.0011   -3.1821   -1.1026 N   0  0  0  0  0  0  0  0  0  0  0  0
   -2.9849   -3.0040   -0.2324 N   0  0  0  0  0  0  0  0  0  0  0  0
   -4.1294   -1.9007    3.2111 H   0  0  0  0  0  0  0  0  0  0  0  0
   -2.6896   -0.6691    2.0335 H   0  0  0  0  0  0  0  0  0  0  0  0
   -3.5493    1.5116    2.8194 H   0  0  0  0  0  0  0  0  0  0  0  0
   -3.4122    1.4765    1.0634 H   0  0  0  0  0  0  0  0  0  0  0  0
   -5.4978    2.4655    1.3886 H   0  0  0  0  0  0  0  0  0  0  0  0
   -5.8872    1.5072    2.8025 H   0  0  0  0  0  0  0  0  0  0  0  0
   -7.0376    1.0591    0.4047 H   0  0  0  0  0  0  0  0  0  0  0  0
   -6.8002   -0.2087    1.5959 H   0  0  0  0  0  0  0  0  0  0  0  0
   -6.0382   -0.9224   -0.6658 H   0  0  0  0  0  0  0  0  0  0  0  0
   -4.9094    0.4192   -0.7154 H   0  0  0  0  0  0  0  0  0  0  0  0
   -4.9242   -2.0467    1.0644 H   0  0  0  0  0  0  0  0  0  0  0  0
   -2.4006    0.0387   -1.3774 H   0  0  0  0  0  0  0  0  0  0  0  0
   -0.4124   -2.8457   -3.0083 H   0  0  0  0  0  0  0  0  0  0  0  0
   -1.0808   -1.2697   -3.4504 H   0  0  0  0  0  0  0  0  0  0  0  0
    1.0836   -2.8358   -0.7461 H   0  0  0  0  0  0  0  0  0  0  0  0
    3.0737   -1.7828    0.1748 H   0  0  0  0  0  0  0  0  0  0  0  0
    5.2025   -0.8025    0.0905 H   0  0  0  0  0  0  0  0  0  0  0  0
    4.1807   -0.0343    1.3446 H   0  0  0  0  0  0  0  0  0  0  0  0
    6.7451    1.0722   -1.2427 H   0  0  0  0  0  0  0  0  0  0  0  0
    8.6079    2.6072   -0.6323 H   0  0  0  0  0  0  0  0  0  0  0  0
    7.3196    2.8862    3.2674 H   0  0  0  0  0  0  0  0  0  0  0  0
    5.3978    1.3680    2.8515 H   0  0  0  0  0  0  0  0  0  0  0  0
    2.4002    1.6827   -2.2985 H   0  0  0  0  0  0  0  0  0  0  0  0
    0.3878    0.6247   -3.2365 H   0  0  0  0  0  0  0  0  0  0  0  0
  1  2  1  0
  2  3  1  0
  3  4  1  0
  4  5  1  0
  5  6  1  0
  6  7  1  0
  7  8  1  0
  8  9  2  0
  9 10  1  0
 10 11  1  0
 11 12  1  0
 12 13  1  0
 13 14  2  0
 14 15  1  0
 15 16  1  0
 16 17  1  0
 17 18  1  0
 18 19  2  0
 19 20  1  0
 20 21  2  0
 21 22  1  0
 22 23  2  0
 15 24  2  0
 24 25  1  0
 10 26  1  0
 26 27  2  0
  7  2  1  0
 27  8  1  0
 25 12  2  0
 23 18  1  0
  1 28  1  0
  2 29  1  0
  3 30  1  0
  3 31  1  0
  4 32  1  0
  4 33  1  0
  5 34  1  0
  5 35  1  0
  6 36  1  0
  6 37  1  0
  7 38  1  0
  9 39  1  0
 11 40  1  0
 11 41  1  0
 13 42  1  0
 14 43  1  0
 17 44  1  0
 17 45  1  0
 19 46  1  0
 20 47  1  0
 22 48  1  0
 23 49  1  0
 24 50  1  0
 25 51  1  0
M  END
$$$$
OCNT-2313402
     RDKit          3D

 41 43  0  0  0  0  0  0  0  0999 V2000
   -2.8546   -1.9566    0.2789 C   0  0  0  0  0  0  0  0  0  0  0  0
   -2.3867   -0.7613   -0.5619 C   0  0  0  0  0  0  0  0  0  0  0  0
   -1.1474   -0.0829    0.0457 C   0  0  0  0  0  0  0  0  0  0  0  0
    0.1210   -0.8990   -0.1198 C   0  0  0  0  0  0  0  0  0  0  0  0
    0.1945   -1.9255   -0.7842 O   0  0  0  0  0  0  0  0  0  0  0  0
    1.1994   -0.3505    0.5491 N   0  0  0  0  0  0  0  0  0  0  0  0
    2.5363   -0.9214    0.4298 C   0  0  0  0  0  0  0  0  0  0  0  0
    3.3973   -0.5368    1.6460 C   0  0  0  0  0  0  0  0  0  0  0  0
    4.2371    0.7121    1.3887 C   0  0  0  0  0  0  0  0  0  0  0  0
    5.1345    0.5062    0.2025 C   0  0  0  0  0  0  0  0  0  0  0  0
    4.6916   -0.4714   -0.8469 C   0  0  0  0  0  0  0  0  0  0  0  0
    3.1685   -0.5147   -0.9158 C   0  0  0  0  0  0  0  0  0  0  0  0
    6.5747    0.7142    0.3789 N   0  0  0  0  0  0  0  0  0  0  0  0
    5.9804    1.6305   -0.2107 N   0  0  0  0  0  0  0  0  0  0  0  0
   -3.5152    0.2482   -0.7349 C   0  0  0  0  0  0  0  0  0  0  0  0
   -4.1015    0.8960    0.3663 C   0  0  0  0  0  0  0  0  0  0  0  0
   -5.1289    1.8225    0.1796 C   0  0  0  0  0  0  0  0  0  0  0  0
   -5.5726    2.1054   -1.1057 C   0  0  0  0  0  0  0  0  0  0  0  0
   -6.5578    2.9955   -1.2828 F   0  0  0  0  0  0  0  0  0  0  0  0
   -5.0089    1.4790   -2.2094 C   0  0  0  0  0  0  0  0  0  0  0  0
   -3.9817    0.5519   -2.0253 C   0  0  0  0  0  0  0  0  0  0  0  0
   -2.0866   -2.7352    0.3220 H   0  0  0  0  0  0  0  0  0  0  0  0
   -3.7566   -2.4061   -0.1517 H   0  0  0  0  0  0  0  0  0  0  0  0
   -3.0877   -1.6665    1.3091 H   0  0  0  0  0  0  0  0  0  0  0  0
   -2.1228   -1.1509   -1.5543 H   0  0  0  0  0  0  0  0  0  0  0  0
   -0.9682    0.8804   -0.4501 H   0  0  0  0  0  0  0  0  0  0  0  0
   -1.2987    0.1175    1.1137 H   0  0  0  0  0  0  0  0  0  0  0  0
    1.1068    0.5975    0.8934 H   0  0  0  0  0  0  0  0  0  0  0  0
    2.4189   -2.0129    0.4421 H   0  0  0  0  0  0  0  0  0  0  0  0
    2.7769   -0.3969    2.5392 H   0  0  0  0  0  0  0  0  0  0  0  0
    4.0792   -1.3693    1.8657 H   0  0  0  0  0  0  0  0  0  0  0  0
    3.5803    1.5714    1.2075 H   0  0  0  0  0  0  0  0  0  0  0  0
    4.8277    0.9402    2.2840 H   0  0  0  0  0  0  0  0  0  0  0  0
    5.0911   -0.1940   -1.8296 H   0  0  0  0  0  0  0  0  0  0  0  0
    5.0826   -1.4681   -0.6094 H   0  0  0  0  0  0  0  0  0  0  0  0
    2.8480   -1.2104   -1.7004 H   0  0  0  0  0  0  0  0  0  0  0  0
    2.8025    0.4766   -1.2168 H   0  0  0  0  0  0  0  0  0  0  0  0
   -3.7664    0.6827    1.3786 H   0  0  0  0  0  0  0  0  0  0  0  0
   -5.5862    2.3229    1.0270 H   0  0  0  0  0  0  0  0  0  0  0  0
   -5.3721    1.7140   -3.2046 H   0  0  0  0  0  0  0  0  0  0  0  0
   -3.5486    0.0659   -2.8976 H   0  0  0  0  0  0  0  0  0  0  0  0
  1  2  1  0
  2  3  1  0
  3  4  1  0
  4  5  2  0
  4  6  1  0
  6  7  1  0
  7  8  1  0
  8  9  1  0
  9 10  1  0
 10 11  1  0
 11 12  1  0
 10 13  1  0
 13 14  2  0
  2 15  1  0
 15 16  1  0
 16 17  2  0
 17 18  1  0
 18 19  1  0
 18 20  2  0
 20 21  1  0
 12  7  1  0
 21 15  2  0
 14 10  1  0
  1 22  1  0
  1 23  1  0
  1 24  1  0
  2 25  1  0
  3 26  1  0
  3 27  1  0
  6 28  1  0
  7 29  1  0
  8 30  1  0
  8 31  1  0
  9 32  1  0
  9 33  1  0
 11 34  1  0
 11 35  1  0
 12 36  1  0
 12 37  1  0
 16 38  1  0
 17 39  1  0
 20 40  1  0
 21 41  1  0
M  END
$$$$
OCNT-2313423
     RDKit          3D

 49 51  0  0  0  0  0  0  0  0999 V2000
   -6.7277    0.9004    0.3260 C   0  0  0  0  0  0  0  0  0  0  0  0
   -6.1674    0.2417   -0.9245 C   0  0  0  0  0  0  0  0  0  0  0  0
   -4.9598   -0.6770   -0.6914 C   0  0  0  0  0  0  0  0  0  0  0  0
   -3.6917    0.0209   -0.4888 N   0  0  0  0  0  0  0  0  0  0  0  0
   -3.5391    0.6772    0.8245 C   0  0  0  0  0  0  0  0  0  0  0  0
   -2.0897    0.5297    1.1677 C   0  0  0  0  0  0  0  0  0  0  0  0
   -1.3687    1.1408    2.1802 C   0  0  0  0  0  0  0  0  0  0  0  0
   -0.0174    0.8187    2.3144 C   0  0  0  0  0  0  0  0  0  0  0  0
    0.5838   -0.1099    1.4491 C   0  0  0  0  0  0  0  0  0  0  0  0
   -0.1614   -0.7293    0.4418 C   0  0  0  0  0  0  0  0  0  0  0  0
    0.4676   -1.6574   -0.4302 N   0  0  0  0  0  0  0  0  0  0  0  0
    1.2427   -1.0653   -1.8098 S   0  0  0  0  0  0  0  0  0  0  0  0
    1.5254   -2.2139   -2.6440 O   0  0  0  0  0  0  0  0  0  0  0  0
    0.4865    0.0507   -2.3355 O   0  0  0  0  0  0  0  0  0  0  0  0
    2.7950   -0.4577   -1.1735 C   0  0  0  0  0  0  0  0  0  0  0  0
    2.9881    0.9339   -1.1621 C   0  0  0  0  0  0  0  0  0  0  0  0
    4.1832    1.4840   -0.6909 C   0  0  0  0  0  0  0  0  0  0  0  0
    5.2001    0.6485   -0.2354 C   0  0  0  0  0  0  0  0  0  0  0  0
    6.4122    1.0624    0.2473 O   0  0  0  0  0  0  0  0  0  0  0  0
    6.6768    2.4590    0.2339 C   0  0  0  0  0  0  0  0  0  0  0  0
    4.9968   -0.7393   -0.2573 C   0  0  0  0  0  0  0  0  0  0  0  0
    5.9832   -1.5423    0.1772 F   0  0  0  0  0  0  0  0  0  0  0  0
    3.8034   -1.3213   -0.7135 C   0  0  0  0  0  0  0  0  0  0  0  0
    3.6893   -2.8182   -0.7226 C   0  0  0  0  0  0  0  0  0  0  0  0
   -1.4955   -0.3889    0.3021 C   0  0  0  0  0  0  0  0  0  0  0  0
   -2.5261   -0.8812   -0.6612 C   0  0  0  0  0  0  0  0  0  0  0  0
   -7.6879    1.3749    0.0978 H   0  0  0  0  0  0  0  0  0  0  0  0
   -6.8962    0.1649    1.1187 H   0  0  0  0  0  0  0  0  0  0  0  0
   -6.0669    1.6816    0.7073 H   0  0  0  0  0  0  0  0  0  0  0  0
   -6.9673   -0.3661   -1.3666 H   0  0  0  0  0  0  0  0  0  0  0  0
   -5.9209    1.0101   -1.6671 H   0  0  0  0  0  0  0  0  0  0  0  0
   -5.1652   -1.3788    0.1271 H   0  0  0  0  0  0  0  0  0  0  0  0
   -4.8666   -1.2854   -1.6013 H   0  0  0  0  0  0  0  0  0  0  0  0
   -4.1335    0.1896    1.6057 H   0  0  0  0  0  0  0  0  0  0  0  0
   -3.8039    1.7358    0.7500 H   0  0  0  0  0  0  0  0  0  0  0  0
   -1.8378    1.8534    2.8514 H   0  0  0  0  0  0  0  0  0  0  0  0
    0.5747    1.2845    3.0987 H   0  0  0  0  0  0  0  0  0  0  0  0
    1.6328   -0.3562    1.5899 H   0  0  0  0  0  0  0  0  0  0  0  0
   -0.0218   -2.5279   -0.6315 H   0  0  0  0  0  0  0  0  0  0  0  0
    2.2068    1.6049   -1.5185 H   0  0  0  0  0  0  0  0  0  0  0  0
    4.2851    2.5645   -0.6978 H   0  0  0  0  0  0  0  0  0  0  0  0
    5.9817    2.9977    0.8862 H   0  0  0  0  0  0  0  0  0  0  0  0
    7.6870    2.6118    0.6258 H   0  0  0  0  0  0  0  0  0  0  0  0
    6.6515    2.8566   -0.7861 H   0  0  0  0  0  0  0  0  0  0  0  0
    3.8122   -3.2011   -1.7401 H   0  0  0  0  0  0  0  0  0  0  0  0
    2.7300   -3.1478   -0.3154 H   0  0  0  0  0  0  0  0  0  0  0  0
    4.4587   -3.2849   -0.0982 H   0  0  0  0  0  0  0  0  0  0  0  0
   -2.7717   -1.9195   -0.4067 H   0  0  0  0  0  0  0  0  0  0  0  0
   -2.1707   -0.8289   -1.6944 H   0  0  0  0  0  0  0  0  0  0  0  0
  1  2  1  0
  2  3  1  0
  3  4  1  0
  4  5  1  0
  5  6  1  0
  6  7  2  0
  7  8  1  0
  8  9  2  0
  9 10  1  0
 10 11  1  0
 11 12  1  0
 12 13  2  0
 12 14  2  0
 12 15  1  0
 15 16  1  0
 16 17  2  0
 17 18  1  0
 18 19  1  0
 19 20  1  0
 18 21  2  0
 21 22  1  0
 21 23  1  0
 23 24  1  0
 10 25  2  0
 25 26  1  0
 26  4  1  0
 25  6  1  0
 23 15  2  0
  1 27  1  0
  1 28  1  0
  1 29  1  0
  2 30  1  0
  2 31  1  0
  3 32  1  0
  3 33  1  0
  5 34  1  0
  5 35  1  0
  7 36  1  0
  8 37  1  0
  9 38  1  0
 11 39  1  0
 16 40  1  0
 17 41  1  0
 20 42  1  0
 20 43  1  0
 20 44  1  0
 24 45  1  0
 24 46  1  0
 24 47  1  0
 26 48  1  0
 26 49  1  0
M  END
$$$$
OCNT-2313433
     RDKit          3D

 43 46  0  0  0  0  0  0  0  0999 V2000
    7.1402    3.1980    0.2631 Cl  0  0  0  0  0  0  0  0  0  0  0  0
    5.8378    2.0802    0.1555 C   0  0  0  0  0  0  0  0  0  0  0  0
    4.7007    2.4069   -0.5752 C   0  0  0  0  0  0  0  0  0  0  0  0
    3.6415    1.4951   -0.6633 C   0  0  0  0  0  0  0  0  0  0  0  0
    3.6897    0.2614   -0.0023 C   0  0  0  0  0  0  0  0  0  0  0  0
    2.6964   -0.7184   -0.1086 N   0  0  0  0  0  0  0  0  0  0  0  0
    1.3515   -0.3418   -0.5471 C   0  0  0  0  0  0  0  0  0  0  0  0
    0.4116   -1.5618   -0.5111 C   0  0  0  0  0  0  0  0  0  0  0  0
    0.1862   -2.0610    0.9336 C   0  0  0  0  0  0  0  0  0  0  0  0
   -1.2272   -2.5963    1.1275 C   0  0  0  0  0  0  0  0  0  0  0  0
   -2.2775   -1.5200    0.8291 C   0  0  0  0  0  0  0  0  0  0  0  0
   -1.8376   -0.6144   -0.2514 N   0  0  0  0  0  0  0  0  0  0  0  0
   -2.9429   -0.0077   -0.8704 C   0  0  0  0  0  0  0  0  0  0  0  0
   -3.3456   -0.3546   -2.1145 N   0  0  0  0  0  0  0  0  0  0  0  0
   -4.4239    0.2585   -2.6496 C   0  0  0  0  0  0  0  0  0  0  0  0
   -5.1881    1.2135   -2.1070 N   0  0  0  0  0  0  0  0  0  0  0  0
   -4.7641    1.5716   -0.8835 C   0  0  0  0  0  0  0  0  0  0  0  0
   -3.6745    0.9972   -0.2585 C   0  0  0  0  0  0  0  0  0  0  0  0
   -3.5683    1.6642    0.9301 N   0  0  0  0  0  0  0  0  0  0  0  0
   -4.5871    2.5738    0.9876 C   0  0  0  0  0  0  0  0  0  0  0  0
   -5.3322    2.5378   -0.0951 N   0  0  0  0  0  0  0  0  0  0  0  0
   -0.9195   -1.2330   -1.2175 C   0  0  0  0  0  0  0  0  0  0  0  0
    4.8654   -0.0583    0.6955 C   0  0  0  0  0  0  0  0  0  0  0  0
    5.9285    0.8460    0.7881 C   0  0  0  0  0  0  0  0  0  0  0  0
    4.6310    3.3619   -1.0887 H   0  0  0  0  0  0  0  0  0  0  0  0
    2.7814    1.7767   -1.2630 H   0  0  0  0  0  0  0  0  0  0  0  0
    2.7016   -1.3338    0.7010 H   0  0  0  0  0  0  0  0  0  0  0  0
    1.4039    0.0289   -1.5777 H   0  0  0  0  0  0  0  0  0  0  0  0
    0.9530    0.4606    0.0863 H   0  0  0  0  0  0  0  0  0  0  0  0
    0.8886   -2.3693   -1.0839 H   0  0  0  0  0  0  0  0  0  0  0  0
    0.3555   -1.2510    1.6546 H   0  0  0  0  0  0  0  0  0  0  0  0
    0.9151   -2.8454    1.1692 H   0  0  0  0  0  0  0  0  0  0  0  0
   -1.3817   -3.4555    0.4623 H   0  0  0  0  0  0  0  0  0  0  0  0
   -1.3600   -2.9681    2.1497 H   0  0  0  0  0  0  0  0  0  0  0  0
   -2.4380   -0.9269    1.7375 H   0  0  0  0  0  0  0  0  0  0  0  0
   -3.2261   -2.0188    0.5887 H   0  0  0  0  0  0  0  0  0  0  0  0
   -4.7059   -0.0666   -3.6465 H   0  0  0  0  0  0  0  0  0  0  0  0
   -2.8476    1.5187    1.6225 H   0  0  0  0  0  0  0  0  0  0  0  0
   -4.7316    3.2333    1.8334 H   0  0  0  0  0  0  0  0  0  0  0  0
   -0.7283   -0.5701   -2.0716 H   0  0  0  0  0  0  0  0  0  0  0  0
   -1.3584   -2.1563   -1.6211 H   0  0  0  0  0  0  0  0  0  0  0  0
    4.9656   -1.0290    1.1755 H   0  0  0  0  0  0  0  0  0  0  0  0
    6.8210    0.5738    1.3442 H   0  0  0  0  0  0  0  0  0  0  0  0
  1  2  1  0
  2  3  1  0
  3  4  2  0
  4  5  1  0
  5  6  1  0
  6  7  1  0
  7  8  1  0
  8  9  1  0
  9 10  1  0
 10 11  1  0
 11 12  1  0
 12 13  1  0
 13 14  1  0
 14 15  2  0
 15 16  1  0
 16 17  2  0
 17 18  1  0
 18 19  1  0
 19 20  1  0
 20 21  2  0
 12 22  1  0
  5 23  2  0
 23 24  1  0
 24  2  2  0
 22  8  1  0
 18 13  2  0
 21 17  1  0
  3 25  1  0
  4 26  1  0
  6 27  1  0
  7 28  1  0
  7 29  1  0
  8 30  1  0
  9 31  1  0
  9 32  1  0
 10 33  1  0
 10 34  1  0
 11 35  1  0
 11 36  1  0
 15 37  1  0
 19 38  1  0
 20 39  1  0
 22 40  1  0
 22 41  1  0
 23 42  1  0
 24 43  1  0
M  END
$$$$
OCNT-2313460
     RDKit          3D

 38 40  0  0  0  0  0  0  0  0999 V2000
   -1.8322   -1.9388    0.9531 C   0  0  0  0  0  0  0  0  0  0  0  0
   -1.0462   -0.6545    0.5982 C   0  0  0  0  0  0  0  0  0  0  0  0
   -1.2446    0.3768    1.7293 C   0  0  0  0  0  0  0  0  0  0  0  0
   -0.6163   -0.0544    2.9333 O   0  0  0  0  0  0  0  0  0  0  0  0
    0.4480   -1.0752    0.4656 C   0  0  0  0  0  0  0  0  0  0  0  0
    1.3163    0.0800    0.2344 N   0  0  0  0  0  0  0  0  0  0  0  0
    2.6276   -0.2231   -0.1570 C   0  0  0  0  0  0  0  0  0  0  0  0
    2.9028   -1.3962   -0.7713 N   0  0  0  0  0  0  0  0  0  0  0  0
    4.1657   -1.6586   -1.1429 C   0  0  0  0  0  0  0  0  0  0  0  0
    5.2419   -0.8856   -0.9829 N   0  0  0  0  0  0  0  0  0  0  0  0
    4.9407    0.2776   -0.3838 C   0  0  0  0  0  0  0  0  0  0  0  0
    3.6885    0.6850    0.0497 C   0  0  0  0  0  0  0  0  0  0  0  0
    3.7587    1.9999    0.6294 C   0  0  0  0  0  0  0  0  0  0  0  0
    5.0356    2.5176    0.6216 C   0  0  0  0  0  0  0  0  0  0  0  0
    6.1561    1.4358   -0.0829 S   0  0  0  0  0  0  0  0  0  0  0  0
   -1.5161   -0.0785   -0.7695 C   0  0  0  0  0  0  0  0  0  0  0  0
   -2.9687    0.3195   -0.8453 C   0  0  0  0  0  0  0  0  0  0  0  0
   -4.0575   -0.4732   -1.1543 C   0  0  0  0  0  0  0  0  0  0  0  0
   -5.2812    0.2558   -1.1518 C   0  0  0  0  0  0  0  0  0  0  0  0
   -5.0864    1.5869   -0.8620 C   0  0  0  0  0  0  0  0  0  0  0  0
   -3.4375    1.9524   -0.6030 S   0  0  0  0  0  0  0  0  0  0  0  0
   -1.7913   -2.6658    0.1341 H   0  0  0  0  0  0  0  0  0  0  0  0
   -1.4198   -2.4242    1.8452 H   0  0  0  0  0  0  0  0  0  0  0  0
   -2.8852   -1.7268    1.1643 H   0  0  0  0  0  0  0  0  0  0  0  0
   -2.3082    0.5196    1.9486 H   0  0  0  0  0  0  0  0  0  0  0  0
   -0.8213    1.3509    1.4624 H   0  0  0  0  0  0  0  0  0  0  0  0
   -0.9123    0.5481    3.6386 H   0  0  0  0  0  0  0  0  0  0  0  0
    0.5220   -1.7911   -0.3640 H   0  0  0  0  0  0  0  0  0  0  0  0
    0.7839   -1.5978    1.3707 H   0  0  0  0  0  0  0  0  0  0  0  0
    1.3335    0.7116    1.0300 H   0  0  0  0  0  0  0  0  0  0  0  0
    4.3297   -2.6147   -1.6303 H   0  0  0  0  0  0  0  0  0  0  0  0
    2.9072    2.5382    1.0264 H   0  0  0  0  0  0  0  0  0  0  0  0
    5.3657    3.4788    0.9917 H   0  0  0  0  0  0  0  0  0  0  0  0
   -0.8973    0.7872   -1.0412 H   0  0  0  0  0  0  0  0  0  0  0  0
   -1.3343   -0.8242   -1.5565 H   0  0  0  0  0  0  0  0  0  0  0  0
   -3.9812   -1.5325   -1.3701 H   0  0  0  0  0  0  0  0  0  0  0  0
   -6.2536   -0.1732   -1.3599 H   0  0  0  0  0  0  0  0  0  0  0  0
   -5.8326    2.3670   -0.7995 H   0  0  0  0  0  0  0  0  0  0  0  0
  1  2  1  0
  2  3  1  0
  3  4  1  0
  2  5  1  0
  5  6  1  0
  6  7  1  0
  7  8  1  0
  8  9  2  0
  9 10  1  0
 10 11  2  0
 11 12  1  0
 12 13  1  0
 13 14  2  0
 14 15  1  0
  2 16  1  0
 16 17  1  0
 17 18  2  0
 18 19  1  0
 19 20  2  0
 20 21  1  0
 12  7  2  0
 21 17  1  0
 15 11  1  0
  1 22  1  0
  1 23  1  0
  1 24  1  0
  3 25  1  0
  3 26  1  0
  4 27  1  0
  5 28  1  0
  5 29  1  0
  6 30  1  0
  9 31  1  0
 13 32  1  0
 14 33  1  0
 16 34  1  0
 16 35  1  0
 18 36  1  0
 19 37  1  0
 20 38  1  0
M  END
$$$$
OCNT-2313465
     RDKit          3D

 39 41  0  0  0  0  0  0  0  0999 V2000
   -0.9470    0.4061    2.5819 O   0  0  0  0  0  0  0  0  0  0  0  0
   -1.1987    0.2697    1.3861 C   0  0  0  0  0  0  0  0  0  0  0  0
   -0.1751    0.1791    0.4611 N   0  0  0  0  0  0  0  0  0  0  0  0
    1.2175    0.1455    0.8845 C   0  0  0  0  0  0  0  0  0  0  0  0
    2.2225    0.2225   -0.2930 C   0  0  0  0  0  0  0  0  0  0  0  0
    1.7402   -0.7496   -1.2712 O   0  0  0  0  0  0  0  0  0  0  0  0
    3.6522   -0.1812    0.1002 C   0  0  0  0  0  0  0  0  0  0  0  0
    4.5643   -0.5665   -0.9035 C   0  0  0  0  0  0  0  0  0  0  0  0
    5.8737   -0.9349   -0.5895 C   0  0  0  0  0  0  0  0  0  0  0  0
    6.3022   -0.9189    0.7333 C   0  0  0  0  0  0  0  0  0  0  0  0
    5.4242   -0.5275    1.7397 C   0  0  0  0  0  0  0  0  0  0  0  0
    4.1126   -0.1573    1.4278 C   0  0  0  0  0  0  0  0  0  0  0  0
    2.2106    1.6672   -0.8670 C   0  0  0  0  0  0  0  0  0  0  0  0
    2.5759    2.5791    0.0660 F   0  0  0  0  0  0  0  0  0  0  0  0
    0.9801    2.0243   -1.3118 F   0  0  0  0  0  0  0  0  0  0  0  0
    3.0551    1.8069   -1.9184 F   0  0  0  0  0  0  0  0  0  0  0  0
   -2.5398    0.1680    0.8284 C   0  0  0  0  0  0  0  0  0  0  0  0
   -2.9704    0.2930   -0.4788 C   0  0  0  0  0  0  0  0  0  0  0  0
   -4.3876    0.1190   -0.6326 C   0  0  0  0  0  0  0  0  0  0  0  0
   -5.2004    0.1670   -1.7908 C   0  0  0  0  0  0  0  0  0  0  0  0
   -6.5806   -0.0353   -1.6953 C   0  0  0  0  0  0  0  0  0  0  0  0
   -7.1683   -0.2836   -0.4627 C   0  0  0  0  0  0  0  0  0  0  0  0
   -6.3914   -0.3334    0.6969 C   0  0  0  0  0  0  0  0  0  0  0  0
   -5.0015   -0.1291    0.5956 C   0  0  0  0  0  0  0  0  0  0  0  0
   -3.8559   -0.1369    1.8776 S   0  0  0  0  0  0  0  0  0  0  0  0
   -0.3831   -0.1879   -0.4607 H   0  0  0  0  0  0  0  0  0  0  0  0
    1.3300   -0.8119    1.4101 H   0  0  0  0  0  0  0  0  0  0  0  0
    1.3828    0.9443    1.6171 H   0  0  0  0  0  0  0  0  0  0  0  0
    2.1282   -1.6114   -1.0317 H   0  0  0  0  0  0  0  0  0  0  0  0
    4.2627   -0.5717   -1.9513 H   0  0  0  0  0  0  0  0  0  0  0  0
    6.5609   -1.2267   -1.3801 H   0  0  0  0  0  0  0  0  0  0  0  0
    7.3226   -1.2015    0.9796 H   0  0  0  0  0  0  0  0  0  0  0  0
    5.7631   -0.5031    2.7731 H   0  0  0  0  0  0  0  0  0  0  0  0
    3.4744    0.1565    2.2514 H   0  0  0  0  0  0  0  0  0  0  0  0
   -2.3127    0.5161   -1.3099 H   0  0  0  0  0  0  0  0  0  0  0  0
   -4.7526    0.3628   -2.7619 H   0  0  0  0  0  0  0  0  0  0  0  0
   -7.1947    0.0040   -2.5917 H   0  0  0  0  0  0  0  0  0  0  0  0
   -8.2427   -0.4386   -0.3957 H   0  0  0  0  0  0  0  0  0  0  0  0
   -6.8536   -0.5241    1.6615 H   0  0  0  0  0  0  0  0  0  0  0  0
  1  2  2  0
  2  3  1  0
  3  4  1  0
  4  5  1  0
  5  6  1  0
  5  7  1  0
  7  8  2  0
  8  9  1  0
  9 10  2  0
 10 11  1  0
 11 12  2  0
  5 13  1  0
 13 14  1  0
 13 15  1  0
 13 16  1  0
  2 17  1  0
 17 18  2  0
 18 19  1  0
 19 20  2  0
 20 21  1  0
 21 22  2  0
 22 23  1  0
 23 24  2  0
 24 25  1  0
 12  7  1  0
 25 17  1  0
 24 19  1  0
  3 26  1  0
  4 27  1  0
  4 28  1  0
  6 29  1  0
  8 30  1  0
  9 31  1  0
 10 32  1  0
 11 33  1  0
 12 34  1  0
 18 35  1  0
 20 36  1  0
 21 37  1  0
 22 38  1  0
 23 39  1  0
M  END
$$$$
OCNT-2313489
     RDKit          3D

 43 44  0  0  0  0  0  0  0  0999 V2000
    3.2800    3.5386   -1.8899 C   0  0  0  0  0  0  0  0  0  0  0  0
    2.7435    2.2327   -1.3847 C   0  0  0  0  0  0  0  0  0  0  0  0
    3.0446    1.0381   -2.0439 C   0  0  0  0  0  0  0  0  0  0  0  0
    2.5142   -0.1727   -1.5913 C   0  0  0  0  0  0  0  0  0  0  0  0
    1.6553   -0.2193   -0.4793 C   0  0  0  0  0  0  0  0  0  0  0  0
    1.0897   -1.5782   -0.0421 C   0  0  0  0  0  0  0  0  0  0  0  0
   -0.2839   -1.4959    0.6908 C   0  0  0  0  0  0  0  0  0  0  0  0
   -1.3239   -0.8368   -0.0959 N   0  0  0  0  0  0  0  0  0  0  0  0
   -2.6320   -0.8114    0.3588 C   0  0  0  0  0  0  0  0  0  0  0  0
   -2.9970   -1.5278    1.2949 O   0  0  0  0  0  0  0  0  0  0  0  0
   -3.5723    0.1145   -0.4179 C   0  0  0  0  0  0  0  0  0  0  0  0
   -5.0394    0.2832    0.0609 C   0  0  0  0  0  0  0  0  0  0  0  0
   -5.0242    1.7942   -0.2473 C   0  0  0  0  0  0  0  0  0  0  0  0
   -3.2718    1.8110   -0.0136 S   0  0  0  0  0  0  0  0  0  0  0  0
   -2.9206    2.0220    1.3743 O   0  0  0  0  0  0  0  0  0  0  0  0
   -2.5953    2.4890   -1.0999 O   0  0  0  0  0  0  0  0  0  0  0  0
    2.1371   -2.3769    0.6412 N   0  0  0  0  0  0  0  0  0  0  0  0
    1.8320   -3.8066    0.6460 C   0  0  0  0  0  0  0  0  0  0  0  0
    2.4416   -1.9170    1.9953 C   0  0  0  0  0  0  0  0  0  0  0  0
    1.3666    0.9849    0.1812 C   0  0  0  0  0  0  0  0  0  0  0  0
    1.8937    2.1971   -0.2752 C   0  0  0  0  0  0  0  0  0  0  0  0
    2.5852    3.9730   -2.6151 H   0  0  0  0  0  0  0  0  0  0  0  0
    3.4222    4.2471   -1.0670 H   0  0  0  0  0  0  0  0  0  0  0  0
    4.2540    3.4012   -2.3713 H   0  0  0  0  0  0  0  0  0  0  0  0
    3.6992    1.0390   -2.9123 H   0  0  0  0  0  0  0  0  0  0  0  0
    2.7796   -1.0920   -2.1103 H   0  0  0  0  0  0  0  0  0  0  0  0
    0.8685   -2.0876   -0.9932 H   0  0  0  0  0  0  0  0  0  0  0  0
   -0.6502   -2.5019    0.9233 H   0  0  0  0  0  0  0  0  0  0  0  0
   -0.2082   -0.9575    1.6422 H   0  0  0  0  0  0  0  0  0  0  0  0
   -1.0208   -0.1207   -0.7507 H   0  0  0  0  0  0  0  0  0  0  0  0
   -3.5053   -0.0492   -1.5017 H   0  0  0  0  0  0  0  0  0  0  0  0
   -5.1960    0.0614    1.1241 H   0  0  0  0  0  0  0  0  0  0  0  0
   -5.7770   -0.2896   -0.5098 H   0  0  0  0  0  0  0  0  0  0  0  0
   -5.3091    2.0545   -1.2715 H   0  0  0  0  0  0  0  0  0  0  0  0
   -5.5756    2.4206    0.4580 H   0  0  0  0  0  0  0  0  0  0  0  0
    1.6441   -4.1693   -0.3706 H   0  0  0  0  0  0  0  0  0  0  0  0
    2.6891   -4.3765    1.0226 H   0  0  0  0  0  0  0  0  0  0  0  0
    0.9652   -4.0524    1.2681 H   0  0  0  0  0  0  0  0  0  0  0  0
    1.5993   -2.0484    2.6830 H   0  0  0  0  0  0  0  0  0  0  0  0
    3.2932   -2.4758    2.4007 H   0  0  0  0  0  0  0  0  0  0  0  0
    2.7394   -0.8641    2.0072 H   0  0  0  0  0  0  0  0  0  0  0  0
    0.7293    1.0095    1.0616 H   0  0  0  0  0  0  0  0  0  0  0  0
    1.6362    3.1160    0.2479 H   0  0  0  0  0  0  0  0  0  0  0  0
  1  2  1  0
  2  3  1  0
  3  4  2  0
  4  5  1  0
  5  6  1  0
  6  7  1  0
  7  8  1  0
  8  9  1  0
  9 10  2  0
  9 11  1  0
 11 12  1  0
 12 13  1  0
 13 14  1  0
 14 15  2  0
 14 16  2  0
  6 17  1  0
 17 18  1  0
 17 19  1  0
  5 20  2  0
 20 21  1  0
 21  2  2  0
 14 11  1  0
  1 22  1  0
  1 23  1  0
  1 24  1  0
  3 25  1  0
  4 26  1  0
  6 27  1  0
  7 28  1  0
  7 29  1  0
  8 30  1  0
 11 31  1  0
 12 32  1  0
 12 33  1  0
 13 34  1  0
 13 35  1  0
 18 36  1  0
 18 37  1  0
 18 38  1  0
 19 39  1  0
 19 40  1  0
 19 41  1  0
 20 42  1  0
 21 43  1  0
M  END
$$$$
OCNT-2313504
     RDKit          3D

 33 36  0  0  0  0  0  0  0  0999 V2000
    4.7714   -0.9020   -1.6774 C   0  0  0  0  0  0  0  0  0  0  0  0
    3.6608   -0.0681   -1.6371 C   0  0  0  0  0  0  0  0  0  0  0  0
    2.8662   -0.0205   -0.4839 C   0  0  0  0  0  0  0  0  0  0  0  0
    1.7336    0.8103   -0.3990 C   0  0  0  0  0  0  0  0  0  0  0  0
    0.9510    0.8440    0.7634 C   0  0  0  0  0  0  0  0  0  0  0  0
   -0.2602    1.7423    0.8543 C   0  0  0  0  0  0  0  0  0  0  0  0
   -1.2882    1.3294   -0.0861 N   0  0  0  0  0  0  0  0  0  0  0  0
   -2.2477    0.4219    0.3606 C   0  0  0  0  0  0  0  0  0  0  0  0
   -3.4404    0.1974   -0.3605 C   0  0  0  0  0  0  0  0  0  0  0  0
   -3.9600    0.7301   -1.5920 C   0  0  0  0  0  0  0  0  0  0  0  0
   -5.1937    0.2104   -1.9183 C   0  0  0  0  0  0  0  0  0  0  0  0
   -5.7347   -0.9208   -0.7565 S   0  0  0  0  0  0  0  0  0  0  0  0
   -4.3229   -0.7251    0.1802 C   0  0  0  0  0  0  0  0  0  0  0  0
   -4.1549   -1.4259    1.3128 N   0  0  0  0  0  0  0  0  0  0  0  0
   -2.9920   -1.1474    1.9050 C   0  0  0  0  0  0  0  0  0  0  0  0
   -2.0548   -0.2739    1.5040 N   0  0  0  0  0  0  0  0  0  0  0  0
    1.3158    0.0246    1.8349 C   0  0  0  0  0  0  0  0  0  0  0  0
    2.4438   -0.7989    1.7462 C   0  0  0  0  0  0  0  0  0  0  0  0
    3.2327   -0.8378    0.6057 C   0  0  0  0  0  0  0  0  0  0  0  0
    4.3096   -1.6442    0.5712 N   0  0  0  0  0  0  0  0  0  0  0  0
    5.0509   -1.6625   -0.5581 C   0  0  0  0  0  0  0  0  0  0  0  0
    5.4006   -0.9576   -2.5580 H   0  0  0  0  0  0  0  0  0  0  0  0
    3.4172    0.5398   -2.5041 H   0  0  0  0  0  0  0  0  0  0  0  0
    1.4503    1.4297   -1.2473 H   0  0  0  0  0  0  0  0  0  0  0  0
   -0.6374    1.8188    1.8822 H   0  0  0  0  0  0  0  0  0  0  0  0
    0.0630    2.7580    0.5915 H   0  0  0  0  0  0  0  0  0  0  0  0
   -1.6887    2.0805   -0.6320 H   0  0  0  0  0  0  0  0  0  0  0  0
   -3.4443    1.4545   -2.2095 H   0  0  0  0  0  0  0  0  0  0  0  0
   -5.8025    0.4354   -2.7835 H   0  0  0  0  0  0  0  0  0  0  0  0
   -2.7787   -1.6874    2.8223 H   0  0  0  0  0  0  0  0  0  0  0  0
    0.7172    0.0085    2.7432 H   0  0  0  0  0  0  0  0  0  0  0  0
    2.7104   -1.4322    2.5887 H   0  0  0  0  0  0  0  0  0  0  0  0
    5.9065   -2.3315   -0.5357 H   0  0  0  0  0  0  0  0  0  0  0  0
  1  2  2  0
  2  3  1  0
  3  4  2  0
  4  5  1  0
  5  6  1  0
  6  7  1  0
  7  8  1  0
  8  9  2  0
  9 10  1  0
 10 11  2  0
 11 12  1  0
 12 13  1  0
 13 14  2  0
 14 15  1  0
 15 16  2  0
  5 17  2  0
 17 18  1  0
 18 19  2  0
 19 20  1  0
 20 21  2  0
 21  1  1  0
 19  3  1  0
 16  8  1  0
 13  9  1  0
  1 22  1  0
  2 23  1  0
  4 24  1  0
  6 25  1  0
  6 26  1  0
  7 27  1  0
 10 28  1  0
 11 29  1  0
 15 30  1  0
 17 31  1  0
 18 32  1  0
 21 33  1  0
M  END
$$$$
OCNT-2313520
     RDKit          3D

 51 54  0  0  0  0  0  0  0  0999 V2000
    8.4591   -1.1963   -1.8808 C   0  0  0  0  0  0  0  0  0  0  0  0
    7.1760   -1.0330   -1.2418 N   0  0  0  0  0  0  0  0  0  0  0  0
    6.0512   -0.4775   -1.7822 C   0  0  0  0  0  0  0  0  0  0  0  0
    5.0794   -0.5311   -0.8025 C   0  0  0  0  0  0  0  0  0  0  0  0
    3.7197   -0.0393   -0.9349 C   0  0  0  0  0  0  0  0  0  0  0  0
    3.1032    0.1164   -2.1760 C   0  0  0  0  0  0  0  0  0  0  0  0
    1.8380    0.5739   -2.3575 N   0  0  0  0  0  0  0  0  0  0  0  0
    1.1423    0.8887   -1.2395 C   0  0  0  0  0  0  0  0  0  0  0  0
    1.6464    0.7489    0.0461 C   0  0  0  0  0  0  0  0  0  0  0  0
    0.8566    1.1046    1.2503 C   0  0  0  0  0  0  0  0  0  0  0  0
    1.4620    1.5148    2.2340 O   0  0  0  0  0  0  0  0  0  0  0  0
   -0.5000    0.9004    1.1466 N   0  0  0  0  0  0  0  0  0  0  0  0
   -1.5026    1.1732    2.1015 C   0  0  0  0  0  0  0  0  0  0  0  0
   -1.2715    1.7890    3.3309 C   0  0  0  0  0  0  0  0  0  0  0  0
   -2.3356    2.0183    4.2056 C   0  0  0  0  0  0  0  0  0  0  0  0
   -3.6289    1.6347    3.8555 C   0  0  0  0  0  0  0  0  0  0  0  0
   -3.8680    1.0202    2.6252 C   0  0  0  0  0  0  0  0  0  0  0  0
   -2.8141    0.7856    1.7319 C   0  0  0  0  0  0  0  0  0  0  0  0
   -3.0028    0.1567    0.4746 N   0  0  0  0  0  0  0  0  0  0  0  0
   -3.8444    0.9399   -0.4462 C   0  0  0  0  0  0  0  0  0  0  0  0
   -4.1830    0.0900   -1.6625 C   0  0  0  0  0  0  0  0  0  0  0  0
   -5.0318   -1.1140   -1.2520 C   0  0  0  0  0  0  0  0  0  0  0  0
   -4.8081   -2.1605   -2.1959 O   0  0  0  0  0  0  0  0  0  0  0  0
   -4.7320   -1.6080    0.1657 C   0  0  0  0  0  0  0  0  0  0  0  0
   -3.2984   -1.2873    0.5798 C   0  0  0  0  0  0  0  0  0  0  0  0
    2.9612    0.2912    0.1929 C   0  0  0  0  0  0  0  0  0  0  0  0
    5.7398   -1.1395    0.2925 C   0  0  0  0  0  0  0  0  0  0  0  0
    7.0100   -1.4520    0.0237 N   0  0  0  0  0  0  0  0  0  0  0  0
    8.4105   -0.8058   -2.9003 H   0  0  0  0  0  0  0  0  0  0  0  0
    8.7009   -2.2619   -1.9008 H   0  0  0  0  0  0  0  0  0  0  0  0
    9.2042   -0.6428   -1.3040 H   0  0  0  0  0  0  0  0  0  0  0  0
    6.0501   -0.0902   -2.7914 H   0  0  0  0  0  0  0  0  0  0  0  0
    3.6153   -0.1342   -3.1012 H   0  0  0  0  0  0  0  0  0  0  0  0
    0.1487    1.2839   -1.4303 H   0  0  0  0  0  0  0  0  0  0  0  0
   -0.8928    0.4359    0.3310 H   0  0  0  0  0  0  0  0  0  0  0  0
   -0.2769    2.1016    3.6320 H   0  0  0  0  0  0  0  0  0  0  0  0
   -2.1497    2.4977    5.1636 H   0  0  0  0  0  0  0  0  0  0  0  0
   -4.4517    1.8137    4.5429 H   0  0  0  0  0  0  0  0  0  0  0  0
   -4.8816    0.7245    2.3747 H   0  0  0  0  0  0  0  0  0  0  0  0
   -4.7727    1.2806    0.0295 H   0  0  0  0  0  0  0  0  0  0  0  0
   -3.2910    1.8302   -0.7680 H   0  0  0  0  0  0  0  0  0  0  0  0
   -3.2618   -0.2411   -2.1601 H   0  0  0  0  0  0  0  0  0  0  0  0
   -4.7287    0.6855   -2.4040 H   0  0  0  0  0  0  0  0  0  0  0  0
   -6.0942   -0.8504   -1.3176 H   0  0  0  0  0  0  0  0  0  0  0  0
   -5.4444   -2.8724   -2.0087 H   0  0  0  0  0  0  0  0  0  0  0  0
   -4.9043   -2.6872    0.2478 H   0  0  0  0  0  0  0  0  0  0  0  0
   -5.4195   -1.1170    0.8650 H   0  0  0  0  0  0  0  0  0  0  0  0
   -2.6030   -1.8186   -0.0821 H   0  0  0  0  0  0  0  0  0  0  0  0
   -3.1087   -1.6720    1.5903 H   0  0  0  0  0  0  0  0  0  0  0  0
    3.3804    0.2062    1.1933 H   0  0  0  0  0  0  0  0  0  0  0  0
    5.3471   -1.3739    1.2738 H   0  0  0  0  0  0  0  0  0  0  0  0
  1  2  1  0
  2  3  1  0
  3  4  2  0
  4  5  1  0
  5  6  2  0
  6  7  1  0
  7  8  2  0
  8  9  1  0
  9 10  1  0
 10 11  2  0
 10 12  1  0
 12 13  1  0
 13 14  2  0
 14 15  1  0
 15 16  2  0
 16 17  1  0
 17 18  2  0
 18 19  1  0
 19 20  1  0
 20 21  1  0
 21 22  1  0
 22 23  1  0
 22 24  1  0
 24 25  1  0
  9 26  2  0
  4 27  1  0
 27 28  2  0
 28  2  1  0
 26  5  1  0
 18 13  1  0
 25 19  1  0
  1 29  1  0
  1 30  1  0
  1 31  1  0
  3 32  1  0
  6 33  1  0
  8 34  1  0
 12 35  1  0
 14 36  1  0
 15 37  1  0
 16 38  1  0
 17 39  1  0
 20 40  1  0
 20 41  1  0
 21 42  1  0
 21 43  1  0
 22 44  1  0
 23 45  1  0
 24 46  1  0
 24 47  1  0
 25 48  1  0
 25 49  1  0
 26 50  1  0
 27 51  1  0
M  END
$$$$
OCNT-2313522
     RDKit          3D

 40 43  0  0  0  0  0  0  0  0999 V2000
    1.0528   -2.7898    1.3759 O   0  0  0  0  0  0  0  0  0  0  0  0
    0.8800   -1.7241    0.7877 C   0  0  0  0  0  0  0  0  0  0  0  0
    2.0335   -1.1367    0.0676 C   0  0  0  0  0  0  0  0  0  0  0  0
    1.9322   -0.8078   -1.2875 C   0  0  0  0  0  0  0  0  0  0  0  0
    3.0233   -0.2678   -1.9754 C   0  0  0  0  0  0  0  0  0  0  0  0
    4.2135   -0.0878   -1.2597 C   0  0  0  0  0  0  0  0  0  0  0  0
    5.4295    0.4111   -1.6715 N   0  0  0  0  0  0  0  0  0  0  0  0
    6.3238    0.3962   -0.6343 C   0  0  0  0  0  0  0  0  0  0  0  0
    5.6826   -0.1224    0.4672 C   0  0  0  0  0  0  0  0  0  0  0  0
    4.3473   -0.4306    0.0870 C   0  0  0  0  0  0  0  0  0  0  0  0
    3.2400   -0.9751    0.7639 C   0  0  0  0  0  0  0  0  0  0  0  0
   -0.3425   -1.0543    0.7656 N   0  0  0  0  0  0  0  0  0  0  0  0
   -1.4967   -1.7250    1.3548 C   0  0  0  0  0  0  0  0  0  0  0  0
   -2.8069   -1.1611    0.8243 C   0  0  0  0  0  0  0  0  0  0  0  0
   -2.9383    0.3438    1.1198 C   0  0  0  0  0  0  0  0  0  0  0  0
   -3.8274    1.0070    0.1107 C   0  0  0  0  0  0  0  0  0  0  0  0
   -5.1429    1.3988    0.2415 C   0  0  0  0  0  0  0  0  0  0  0  0
   -5.4796    1.9411   -0.9675 N   0  0  0  0  0  0  0  0  0  0  0  0
   -4.3812    1.8620   -1.7740 C   0  0  0  0  0  0  0  0  0  0  0  0
   -3.3682    1.3042   -1.1530 N   0  0  0  0  0  0  0  0  0  0  0  0
   -1.5707    1.0428    1.2257 C   0  0  0  0  0  0  0  0  0  0  0  0
   -0.5114    0.3505    0.3741 C   0  0  0  0  0  0  0  0  0  0  0  0
    1.0002   -0.9816   -1.8209 H   0  0  0  0  0  0  0  0  0  0  0  0
    2.9459   -0.0091   -3.0264 H   0  0  0  0  0  0  0  0  0  0  0  0
    5.6281    0.7355   -2.6078 H   0  0  0  0  0  0  0  0  0  0  0  0
    7.3367    0.7508   -0.7696 H   0  0  0  0  0  0  0  0  0  0  0  0
    6.1242   -0.2677    1.4445 H   0  0  0  0  0  0  0  0  0  0  0  0
    3.3152   -1.2660    1.8078 H   0  0  0  0  0  0  0  0  0  0  0  0
   -1.4334   -1.6013    2.4427 H   0  0  0  0  0  0  0  0  0  0  0  0
   -1.4393   -2.7991    1.1446 H   0  0  0  0  0  0  0  0  0  0  0  0
   -2.8556   -1.3478   -0.2572 H   0  0  0  0  0  0  0  0  0  0  0  0
   -3.6544   -1.6990    1.2665 H   0  0  0  0  0  0  0  0  0  0  0  0
   -3.4225    0.4541    2.1007 H   0  0  0  0  0  0  0  0  0  0  0  0
   -5.8438    1.3379    1.0619 H   0  0  0  0  0  0  0  0  0  0  0  0
   -6.3765    2.3294   -1.2247 H   0  0  0  0  0  0  0  0  0  0  0  0
   -4.3799    2.2232   -2.7937 H   0  0  0  0  0  0  0  0  0  0  0  0
   -1.6386    2.1035    0.9555 H   0  0  0  0  0  0  0  0  0  0  0  0
   -1.2431    1.0110    2.2738 H   0  0  0  0  0  0  0  0  0  0  0  0
   -0.7931    0.3660   -0.6842 H   0  0  0  0  0  0  0  0  0  0  0  0
    0.4374    0.8853    0.4805 H   0  0  0  0  0  0  0  0  0  0  0  0
  1  2  2  0
  2  3  1  0
  3  4  2  0
  4  5  1  0
  5  6  2  0
  6  7  1  0
  7  8  1  0
  8  9  2  0
  9 10  1  0
 10 11  2  0
  2 12  1  0
 12 13  1  0
 13 14  1  0
 14 15  1  0
 15 16  1  0
 16 17  2  0
 17 18  1  0
 18 19  1  0
 19 20  2  0
 15 21  1  0
 21 22  1  0
 11  3  1  0
 22 12  1  0
 10  6  1  0
 20 16  1  0
  4 23  1  0
  5 24  1  0
  7 25  1  0
  8 26  1  0
  9 27  1  0
 11 28  1  0
 13 29  1  0
 13 30  1  0
 14 31  1  0
 14 32  1  0
 15 33  1  0
 17 34  1  0
 18 35  1  0
 19 36  1  0
 21 37  1  0
 21 38  1  0
 22 39  1  0
 22 40  1  0
M  END
$$$$
OCNT-2313533
     RDKit          3D

 39 42  0  0  0  0  0  0  0  0999 V2000
    0.6959    3.1106   -0.5554 O   0  0  0  0  0  0  0  0  0  0  0  0
    0.8037    2.0227   -1.1171 C   0  0  0  0  0  0  0  0  0  0  0  0
    2.0492    1.6313   -1.8914 C   0  0  0  0  0  0  0  0  0  0  0  0
    2.8578    0.5595   -1.1956 C   0  0  0  0  0  0  0  0  0  0  0  0
    3.0213   -0.7015   -1.7897 C   0  0  0  0  0  0  0  0  0  0  0  0
    3.7583   -1.7135   -1.1580 C   0  0  0  0  0  0  0  0  0  0  0  0
    4.3420   -1.4449    0.0916 C   0  0  0  0  0  0  0  0  0  0  0  0
    5.1311   -2.1544    1.0240 C   0  0  0  0  0  0  0  0  0  0  0  0
    5.4401   -1.4268    2.1008 N   0  0  0  0  0  0  0  0  0  0  0  0
    4.8461   -0.2438    1.8579 N   0  0  0  0  0  0  0  0  0  0  0  0
    4.1729   -0.1906    0.6648 C   0  0  0  0  0  0  0  0  0  0  0  0
    3.4431    0.8344    0.0540 C   0  0  0  0  0  0  0  0  0  0  0  0
   -0.1812    1.0517   -1.1197 N   0  0  0  0  0  0  0  0  0  0  0  0
   -1.3816    1.1959   -0.3547 C   0  0  0  0  0  0  0  0  0  0  0  0
   -2.5216    2.0399   -0.8364 C   0  0  0  0  0  0  0  0  0  0  0  0
   -2.6637    0.5384   -0.8327 C   0  0  0  0  0  0  0  0  0  0  0  0
   -3.5378   -0.1840    0.1728 C   0  0  0  0  0  0  0  0  0  0  0  0
   -4.7957    0.3340    0.5373 C   0  0  0  0  0  0  0  0  0  0  0  0
   -5.6261   -0.3233    1.4509 C   0  0  0  0  0  0  0  0  0  0  0  0
   -5.2228   -1.5276    2.0188 C   0  0  0  0  0  0  0  0  0  0  0  0
   -3.9902   -2.0747    1.6715 C   0  0  0  0  0  0  0  0  0  0  0  0
   -3.1621   -1.4122    0.7575 C   0  0  0  0  0  0  0  0  0  0  0  0
   -1.6552   -2.1651    0.3509 Cl  0  0  0  0  0  0  0  0  0  0  0  0
    2.6735    2.5216   -2.0319 H   0  0  0  0  0  0  0  0  0  0  0  0
    1.7444    1.3087   -2.8944 H   0  0  0  0  0  0  0  0  0  0  0  0
    2.5762   -0.9160   -2.7612 H   0  0  0  0  0  0  0  0  0  0  0  0
    3.8761   -2.6852   -1.6285 H   0  0  0  0  0  0  0  0  0  0  0  0
    5.4915   -3.1723    0.9597 H   0  0  0  0  0  0  0  0  0  0  0  0
    4.9371    0.4921    2.5488 H   0  0  0  0  0  0  0  0  0  0  0  0
    3.3289    1.8052    0.5303 H   0  0  0  0  0  0  0  0  0  0  0  0
    0.1004    0.1051   -1.3551 H   0  0  0  0  0  0  0  0  0  0  0  0
   -1.1914    1.2166    0.7166 H   0  0  0  0  0  0  0  0  0  0  0  0
   -2.4154    2.5399   -1.7923 H   0  0  0  0  0  0  0  0  0  0  0  0
   -3.0368    2.6350   -0.0918 H   0  0  0  0  0  0  0  0  0  0  0  0
   -2.6338    0.0731   -1.8161 H   0  0  0  0  0  0  0  0  0  0  0  0
   -5.1392    1.2713    0.1019 H   0  0  0  0  0  0  0  0  0  0  0  0
   -6.5889    0.1080    1.7149 H   0  0  0  0  0  0  0  0  0  0  0  0
   -5.8676   -2.0407    2.7280 H   0  0  0  0  0  0  0  0  0  0  0  0
   -3.6789   -3.0186    2.1121 H   0  0  0  0  0  0  0  0  0  0  0  0
  1  2  2  0
  2  3  1  0
  3  4  1  0
  4  5  2  0
  5  6  1  0
  6  7  2  0
  7  8  1  0
  8  9  2  0
  9 10  1  0
 10 11  1  0
 11 12  2  0
  2 13  1  0
 13 14  1  0
 14 15  1  0
 15 16  1  0
 16 17  1  0
 17 18  2  0
 18 19  1  0
 19 20  2  0
 20 21  1  0
 21 22  2  0
 22 23  1  0
 12  4  1  0
 16 14  1  0
 22 17  1  0
 11  7  1  0
  3 24  1  0
  3 25  1  0
  5 26  1  0
  6 27  1  0
  8 28  1  0
 10 29  1  0
 12 30  1  0
 13 31  1  0
 14 32  1  0
 15 33  1  0
 15 34  1  0
 16 35  1  0
 18 36  1  0
 19 37  1  0
 20 38  1  0
 21 39  1  0
M  END
$$$$
OCNT-2313558
     RDKit          3D

 43 45  0  0  0  0  0  0  0  0999 V2000
    4.8487   -0.2667   -2.3592 C   0  0  0  0  0  0  0  0  0  0  0  0
    5.1810   -0.3180   -0.8992 C   0  0  0  0  0  0  0  0  0  0  0  0
    6.4269   -0.7658   -0.6057 N   0  0  0  0  0  0  0  0  0  0  0  0
    6.8344   -0.8521    0.6869 N   0  0  0  0  0  0  0  0  0  0  0  0
    5.9861   -0.4919    1.6663 C   0  0  0  0  0  0  0  0  0  0  0  0
    4.7075   -0.0331    1.4177 C   0  0  0  0  0  0  0  0  0  0  0  0
    4.2783    0.0689    0.0989 C   0  0  0  0  0  0  0  0  0  0  0  0
    2.9797    0.5181   -0.2496 N   0  0  0  0  0  0  0  0  0  0  0  0
    2.0388    1.0808    0.5853 C   0  0  0  0  0  0  0  0  0  0  0  0
    2.1930    1.3842    1.7597 O   0  0  0  0  0  0  0  0  0  0  0  0
    0.8525    1.2947   -0.0894 N   0  0  0  0  0  0  0  0  0  0  0  0
   -0.3032    1.8559    0.5890 C   0  0  0  0  0  0  0  0  0  0  0  0
   -1.0538    0.8421    1.4575 C   0  0  0  0  0  0  0  0  0  0  0  0
   -1.8067   -0.2313    0.6554 C   0  0  0  0  0  0  0  0  0  0  0  0
   -1.9935   -1.3520    1.5408 O   0  0  0  0  0  0  0  0  0  0  0  0
   -2.8343   -2.4082    1.0602 C   0  0  0  0  0  0  0  0  0  0  0  0
   -3.3128   -2.2727   -0.3871 C   0  0  0  0  0  0  0  0  0  0  0  0
   -3.8663   -0.8860   -0.5664 C   0  0  0  0  0  0  0  0  0  0  0  0
   -5.0561   -0.6379   -1.2543 C   0  0  0  0  0  0  0  0  0  0  0  0
   -5.5421    0.6639   -1.3382 C   0  0  0  0  0  0  0  0  0  0  0  0
   -4.8440    1.7088   -0.7344 C   0  0  0  0  0  0  0  0  0  0  0  0
   -3.6443    1.4631   -0.0596 C   0  0  0  0  0  0  0  0  0  0  0  0
   -3.1290    0.1658    0.0158 C   0  0  0  0  0  0  0  0  0  0  0  0
    3.9939   -0.9136   -2.5797 H   0  0  0  0  0  0  0  0  0  0  0  0
    4.6187    0.7593   -2.6629 H   0  0  0  0  0  0  0  0  0  0  0  0
    5.6932   -0.6123   -2.9650 H   0  0  0  0  0  0  0  0  0  0  0  0
    6.3697   -0.5876    2.6756 H   0  0  0  0  0  0  0  0  0  0  0  0
    4.0802    0.2250    2.2617 H   0  0  0  0  0  0  0  0  0  0  0  0
    2.7600    0.5760   -1.2313 H   0  0  0  0  0  0  0  0  0  0  0  0
    0.6787    0.7256   -0.9037 H   0  0  0  0  0  0  0  0  0  0  0  0
   -0.9415    2.2848   -0.1872 H   0  0  0  0  0  0  0  0  0  0  0  0
    0.0441    2.6799    1.2228 H   0  0  0  0  0  0  0  0  0  0  0  0
   -0.3398    0.3505    2.1314 H   0  0  0  0  0  0  0  0  0  0  0  0
   -1.7549    1.3710    2.1152 H   0  0  0  0  0  0  0  0  0  0  0  0
   -1.1429   -0.5784   -0.1475 H   0  0  0  0  0  0  0  0  0  0  0  0
   -2.2900   -3.3499    1.1871 H   0  0  0  0  0  0  0  0  0  0  0  0
   -3.6981   -2.4501    1.7348 H   0  0  0  0  0  0  0  0  0  0  0  0
   -4.0667   -3.0378   -0.6013 H   0  0  0  0  0  0  0  0  0  0  0  0
   -2.4800   -2.4123   -1.0863 H   0  0  0  0  0  0  0  0  0  0  0  0
   -5.6152   -1.4516   -1.7089 H   0  0  0  0  0  0  0  0  0  0  0  0
   -6.4733    0.8642   -1.8618 H   0  0  0  0  0  0  0  0  0  0  0  0
   -5.2366    2.7216   -0.7876 H   0  0  0  0  0  0  0  0  0  0  0  0
   -3.1403    2.3048    0.4046 H   0  0  0  0  0  0  0  0  0  0  0  0
  1  2  1  0
  2  3  1  0
  3  4  2  0
  4  5  1  0
  5  6  2  0
  6  7  1  0
  7  8  1  0
  8  9  1  0
  9 10  2  0
  9 11  1  0
 11 12  1  0
 12 13  1  0
 13 14  1  0
 14 15  1  0
 15 16  1  0
 16 17  1  0
 17 18  1  0
 18 19  2  0
 19 20  1  0
 20 21  2  0
 21 22  1  0
 22 23  2  0
  7  2  2  0
 23 14  1  0
 23 18  1  0
  1 24  1  0
  1 25  1  0
  1 26  1  0
  5 27  1  0
  6 28  1  0
  8 29  1  0
 11 30  1  0
 12 31  1  0
 12 32  1  0
 13 33  1  0
 13 34  1  0
 14 35  1  0
 16 36  1  0
 16 37  1  0
 17 38  1  0
 17 39  1  0
 19 40  1  0
 20 41  1  0
 21 42  1  0
 22 43  1  0
M  END
$$$$
OCNT-2313581
     RDKit          3D

 47 48  0  0  0  0  0  0  0  0999 V2000
   -2.5379    3.8355   -1.9897 C   0  0  0  0  0  0  0  0  0  0  0  0
   -2.3401    2.4716   -1.3988 C   0  0  0  0  0  0  0  0  0  0  0  0
   -2.0439    2.3224   -0.0406 C   0  0  0  0  0  0  0  0  0  0  0  0
   -1.8920    1.0501    0.5205 C   0  0  0  0  0  0  0  0  0  0  0  0
   -2.0309   -0.1044   -0.2647 C   0  0  0  0  0  0  0  0  0  0  0  0
   -1.8673   -1.5265    0.2910 C   0  0  0  0  0  0  0  0  0  0  0  0
   -0.7928   -1.6431    1.4199 C   0  0  0  0  0  0  0  0  0  0  0  0
    0.5339   -1.2120    1.0049 N   0  0  0  0  0  0  0  0  0  0  0  0
    1.3283   -1.9983    0.1931 C   0  0  0  0  0  0  0  0  0  0  0  0
    1.0486   -3.1545   -0.1103 O   0  0  0  0  0  0  0  0  0  0  0  0
    2.5794   -1.2800   -0.3352 C   0  0  0  0  0  0  0  0  0  0  0  0
    2.9150   -0.1229    0.5187 N   0  0  0  0  0  0  0  0  0  0  0  0
    4.0350    0.6521    0.1894 C   0  0  0  0  0  0  0  0  0  0  0  0
    4.5477    0.7761   -1.1027 C   0  0  0  0  0  0  0  0  0  0  0  0
    5.6198    1.6328   -1.3617 C   0  0  0  0  0  0  0  0  0  0  0  0
    6.1411    2.3751   -0.3173 C   0  0  0  0  0  0  0  0  0  0  0  0
    5.6609    2.3265    0.9396 N   0  0  0  0  0  0  0  0  0  0  0  0
    4.6177    1.4865    1.1512 C   0  0  0  0  0  0  0  0  0  0  0  0
   -3.1953   -2.1147    0.6011 N   0  0  0  0  0  0  0  0  0  0  0  0
   -3.7961   -1.6228    1.8376 C   0  0  0  0  0  0  0  0  0  0  0  0
   -3.1557   -3.5772    0.5978 C   0  0  0  0  0  0  0  0  0  0  0  0
   -2.3628    0.0567   -1.6210 C   0  0  0  0  0  0  0  0  0  0  0  0
   -2.5158    1.3275   -2.1813 C   0  0  0  0  0  0  0  0  0  0  0  0
   -2.2597    3.8464   -3.0488 H   0  0  0  0  0  0  0  0  0  0  0  0
   -1.9104    4.5757   -1.4821 H   0  0  0  0  0  0  0  0  0  0  0  0
   -3.5860    4.1359   -1.8959 H   0  0  0  0  0  0  0  0  0  0  0  0
   -1.9350    3.1989    0.5944 H   0  0  0  0  0  0  0  0  0  0  0  0
   -1.6785    0.9834    1.5832 H   0  0  0  0  0  0  0  0  0  0  0  0
   -1.4592   -2.0962   -0.5574 H   0  0  0  0  0  0  0  0  0  0  0  0
   -0.7059   -2.6850    1.7471 H   0  0  0  0  0  0  0  0  0  0  0  0
   -1.0557   -1.0466    2.2989 H   0  0  0  0  0  0  0  0  0  0  0  0
    0.7316   -0.2143    0.9562 H   0  0  0  0  0  0  0  0  0  0  0  0
    3.4074   -1.9971   -0.3376 H   0  0  0  0  0  0  0  0  0  0  0  0
    2.3467   -0.9626   -1.3569 H   0  0  0  0  0  0  0  0  0  0  0  0
    2.9419   -0.3975    1.5018 H   0  0  0  0  0  0  0  0  0  0  0  0
    4.1290    0.2207   -1.9352 H   0  0  0  0  0  0  0  0  0  0  0  0
    6.0297    1.7239   -2.3614 H   0  0  0  0  0  0  0  0  0  0  0  0
    6.9744    3.0542   -0.4718 H   0  0  0  0  0  0  0  0  0  0  0  0
    4.2414    1.5012    2.1707 H   0  0  0  0  0  0  0  0  0  0  0  0
   -3.8969   -0.5335    1.8324 H   0  0  0  0  0  0  0  0  0  0  0  0
   -3.2279   -1.9158    2.7270 H   0  0  0  0  0  0  0  0  0  0  0  0
   -4.8127   -2.0184    1.9469 H   0  0  0  0  0  0  0  0  0  0  0  0
   -2.5473   -3.9847    1.4119 H   0  0  0  0  0  0  0  0  0  0  0  0
   -2.7632   -3.9557   -0.3524 H   0  0  0  0  0  0  0  0  0  0  0  0
   -4.1682   -3.9852    0.6962 H   0  0  0  0  0  0  0  0  0  0  0  0
   -2.5140   -0.8190   -2.2497 H   0  0  0  0  0  0  0  0  0  0  0  0
   -2.7786    1.4147   -3.2330 H   0  0  0  0  0  0  0  0  0  0  0  0
  1  2  1  0
  2  3  1  0
  3  4  2  0
  4  5  1  0
  5  6  1  0
  6  7  1  0
  7  8  1  0
  8  9  1  0
  9 10  2  0
  9 11  1  0
 11 12  1  0
 12 13  1  0
 13 14  1  0
 14 15  2  0
 15 16  1  0
 16 17  2  0
 17 18  1  0
  6 19  1  0
 19 20  1  0
 19 21  1  0
  5 22  2  0
 22 23  1  0
 23  2  2  0
 18 13  2  0
  1 24  1  0
  1 25  1  0
  1 26  1  0
  3 27  1  0
  4 28  1  0
  6 29  1  0
  7 30  1  0
  7 31  1  0
  8 32  1  0
 11 33  1  0
 11 34  1  0
 12 35  1  0
 14 36  1  0
 15 37  1  0
 16 38  1  0
 18 39  1  0
 20 40  1  0
 20 41  1  0
 20 42  1  0
 21 43  1  0
 21 44  1  0
 21 45  1  0
 22 46  1  0
 23 47  1  0
M  END
$$$$
OCNT-2313630
     RDKit          3D

 48 51  0  0  0  0  0  0  0  0999 V2000
    1.6734   -0.7173    0.4346 O   0  0  0  0  0  0  0  0  0  0  0  0
    1.6059   -0.4018   -0.7489 C   0  0  0  0  0  0  0  0  0  0  0  0
    0.4833   -0.6966   -1.4971 N   0  0  0  0  0  0  0  0  0  0  0  0
   -0.6997   -1.2910   -0.8802 C   0  0  0  0  0  0  0  0  0  0  0  0
   -1.6267   -1.8654   -1.9549 C   0  0  0  0  0  0  0  0  0  0  0  0
   -2.8601   -2.5410   -1.3474 C   0  0  0  0  0  0  0  0  0  0  0  0
   -3.2325   -1.9979    0.0346 C   0  0  0  0  0  0  0  0  0  0  0  0
   -2.9018   -0.5705    0.0888 N   0  0  0  0  0  0  0  0  0  0  0  0
   -3.7438    0.2811    0.8062 C   0  0  0  0  0  0  0  0  0  0  0  0
   -5.1426    0.1930    0.6658 C   0  0  0  0  0  0  0  0  0  0  0  0
   -6.0200    1.0440    1.3514 C   0  0  0  0  0  0  0  0  0  0  0  0
   -5.5133    2.0233    2.1945 C   0  0  0  0  0  0  0  0  0  0  0  0
   -4.1395    2.1436    2.3297 C   0  0  0  0  0  0  0  0  0  0  0  0
   -3.6401    3.0949    3.1304 F   0  0  0  0  0  0  0  0  0  0  0  0
   -3.2654    1.2971    1.6466 C   0  0  0  0  0  0  0  0  0  0  0  0
   -1.4549   -0.2821    0.0301 C   0  0  0  0  0  0  0  0  0  0  0  0
    2.6436    0.3098   -1.4588 C   0  0  0  0  0  0  0  0  0  0  0  0
    2.7743    0.5986   -2.8105 C   0  0  0  0  0  0  0  0  0  0  0  0
    3.9671    1.3256   -2.9316 C   0  0  0  0  0  0  0  0  0  0  0  0
    4.5708    1.4964   -1.7601 N   0  0  0  0  0  0  0  0  0  0  0  0
    3.7760    0.8518   -0.8785 N   0  0  0  0  0  0  0  0  0  0  0  0
    4.0908    0.8106    0.5702 C   0  0  0  0  0  0  0  0  0  0  0  0
    4.7571   -0.5219    1.0023 C   0  0  0  0  0  0  0  0  0  0  0  0
    5.6338    0.3180    1.9545 C   0  0  0  0  0  0  0  0  0  0  0  0
    5.4221    1.4971    0.9816 C   0  0  0  0  0  0  0  0  0  0  0  0
    0.3601   -0.2257   -2.3816 H   0  0  0  0  0  0  0  0  0  0  0  0
   -0.3507   -2.1212   -0.2512 H   0  0  0  0  0  0  0  0  0  0  0  0
   -1.9538   -1.0557   -2.6214 H   0  0  0  0  0  0  0  0  0  0  0  0
   -1.0905   -2.5801   -2.5911 H   0  0  0  0  0  0  0  0  0  0  0  0
   -2.6936   -3.6219   -1.2679 H   0  0  0  0  0  0  0  0  0  0  0  0
   -3.7033   -2.4100   -2.0369 H   0  0  0  0  0  0  0  0  0  0  0  0
   -2.6625   -2.5265    0.8103 H   0  0  0  0  0  0  0  0  0  0  0  0
   -4.2848   -2.2274    0.2298 H   0  0  0  0  0  0  0  0  0  0  0  0
   -5.5779   -0.5299   -0.0199 H   0  0  0  0  0  0  0  0  0  0  0  0
   -7.0929    0.9424    1.2128 H   0  0  0  0  0  0  0  0  0  0  0  0
   -6.1711    2.6944    2.7355 H   0  0  0  0  0  0  0  0  0  0  0  0
   -2.2053    1.4531    1.8090 H   0  0  0  0  0  0  0  0  0  0  0  0
   -1.3118    0.7321   -0.3651 H   0  0  0  0  0  0  0  0  0  0  0  0
   -1.0104   -0.3184    1.0329 H   0  0  0  0  0  0  0  0  0  0  0  0
    2.1048    0.3232   -3.6125 H   0  0  0  0  0  0  0  0  0  0  0  0
    4.4213    1.7398   -3.8231 H   0  0  0  0  0  0  0  0  0  0  0  0
    3.2504    1.1295    1.1994 H   0  0  0  0  0  0  0  0  0  0  0  0
    5.3289   -1.0324    0.2174 H   0  0  0  0  0  0  0  0  0  0  0  0
    4.1067   -1.2493    1.4945 H   0  0  0  0  0  0  0  0  0  0  0  0
    6.6656   -0.0213    2.0761 H   0  0  0  0  0  0  0  0  0  0  0  0
    5.1886    0.4747    2.9435 H   0  0  0  0  0  0  0  0  0  0  0  0
    5.3201    2.4783    1.4524 H   0  0  0  0  0  0  0  0  0  0  0  0
    6.2046    1.5535    0.2162 H   0  0  0  0  0  0  0  0  0  0  0  0
  1  2  2  0
  2  3  1  0
  3  4  1  0
  4  5  1  0
  5  6  1  0
  6  7  1  0
  7  8  1  0
  8  9  1  0
  9 10  2  0
 10 11  1  0
 11 12  2  0
 12 13  1  0
 13 14  1  0
 13 15  2  0
  8 16  1  0
  2 17  1  0
 17 18  2  0
 18 19  1  0
 19 20  2  0
 20 21  1  0
 21 22  1  0
 22 23  1  0
 23 24  1  0
 24 25  1  0
 16  4  1  0
 21 17  1  0
 25 22  1  0
 15  9  1  0
  3 26  1  0
  4 27  1  0
  5 28  1  0
  5 29  1  0
  6 30  1  0
  6 31  1  0
  7 32  1  0
  7 33  1  0
 10 34  1  0
 11 35  1  0
 12 36  1  0
 15 37  1  0
 16 38  1  0
 16 39  1  0
 18 40  1  0
 19 41  1  0
 22 42  1  0
 23 43  1  0
 23 44  1  0
 24 45  1  0
 24 46  1  0
 25 47  1  0
 25 48  1  0
M  END
$$$$
OCNT-2313636
     RDKit          3D

 48 51  0  0  0  0  0  0  0  0999 V2000
   -2.2566   -0.2817   -3.6562 C   0  0  0  0  0  0  0  0  0  0  0  0
   -2.6741   -0.1538   -2.2723 N   0  0  0  0  0  0  0  0  0  0  0  0
   -1.9950   -0.9796   -1.2833 C   0  0  0  0  0  0  0  0  0  0  0  0
   -2.1042   -0.4365    0.1442 C   0  0  0  0  0  0  0  0  0  0  0  0
   -1.1189    0.7248    0.3421 C   0  0  0  0  0  0  0  0  0  0  0  0
   -1.4881    1.8991    0.2715 O   0  0  0  0  0  0  0  0  0  0  0  0
    0.2185    0.4157    0.5722 N   0  0  0  0  0  0  0  0  0  0  0  0
    1.1952    1.5088    0.6049 C   0  0  0  0  0  0  0  0  0  0  0  0
    2.5507    1.1044   -0.0038 C   0  0  0  0  0  0  0  0  0  0  0  0
    3.0882   -0.1384    0.5923 N   0  0  0  0  0  0  0  0  0  0  0  0
    4.4629   -0.3406    0.6274 C   0  0  0  0  0  0  0  0  0  0  0  0
    5.1116   -1.1238    1.5961 C   0  0  0  0  0  0  0  0  0  0  0  0
    6.4488   -1.3669    1.6688 N   0  0  0  0  0  0  0  0  0  0  0  0
    7.2083   -0.7975    0.7109 C   0  0  0  0  0  0  0  0  0  0  0  0
    6.6857   -0.0125   -0.2959 C   0  0  0  0  0  0  0  0  0  0  0  0
    7.4847    0.5220   -1.2281 F   0  0  0  0  0  0  0  0  0  0  0  0
    5.3135    0.2140   -0.3388 C   0  0  0  0  0  0  0  0  0  0  0  0
    2.1797   -0.9087    1.4540 C   0  0  0  0  0  0  0  0  0  0  0  0
    0.7445   -0.9182    0.8861 C   0  0  0  0  0  0  0  0  0  0  0  0
   -3.5363   -0.0512    0.4479 C   0  0  0  0  0  0  0  0  0  0  0  0
   -4.0021   -0.0386    1.7730 C   0  0  0  0  0  0  0  0  0  0  0  0
   -5.3175    0.3320    2.0558 C   0  0  0  0  0  0  0  0  0  0  0  0
   -6.1778    0.7005    1.0238 C   0  0  0  0  0  0  0  0  0  0  0  0
   -5.7232    0.7014   -0.2950 C   0  0  0  0  0  0  0  0  0  0  0  0
   -4.4052    0.3271   -0.5888 C   0  0  0  0  0  0  0  0  0  0  0  0
   -3.9497    0.3467   -2.0099 C   0  0  0  0  0  0  0  0  0  0  0  0
   -4.6961    0.7784   -2.8839 O   0  0  0  0  0  0  0  0  0  0  0  0
   -2.5360   -1.2758   -4.0173 H   0  0  0  0  0  0  0  0  0  0  0  0
   -2.7357    0.4736   -4.2854 H   0  0  0  0  0  0  0  0  0  0  0  0
   -1.1721   -0.1550   -3.7190 H   0  0  0  0  0  0  0  0  0  0  0  0
   -0.9471   -1.0814   -1.5841 H   0  0  0  0  0  0  0  0  0  0  0  0
   -2.4554   -1.9747   -1.3384 H   0  0  0  0  0  0  0  0  0  0  0  0
   -1.8429   -1.2479    0.8305 H   0  0  0  0  0  0  0  0  0  0  0  0
    1.3224    1.7889    1.6578 H   0  0  0  0  0  0  0  0  0  0  0  0
    0.8120    2.3882    0.0766 H   0  0  0  0  0  0  0  0  0  0  0  0
    3.2421    1.9431    0.1433 H   0  0  0  0  0  0  0  0  0  0  0  0
    2.4282    0.9454   -1.0820 H   0  0  0  0  0  0  0  0  0  0  0  0
    4.5575   -1.5954    2.4023 H   0  0  0  0  0  0  0  0  0  0  0  0
    8.2735   -0.9921    0.7687 H   0  0  0  0  0  0  0  0  0  0  0  0
    4.9284    0.8132   -1.1566 H   0  0  0  0  0  0  0  0  0  0  0  0
    2.5022   -1.9533    1.5357 H   0  0  0  0  0  0  0  0  0  0  0  0
    2.1785   -0.4725    2.4605 H   0  0  0  0  0  0  0  0  0  0  0  0
    0.7232   -1.4982   -0.0428 H   0  0  0  0  0  0  0  0  0  0  0  0
    0.0824   -1.4064    1.6071 H   0  0  0  0  0  0  0  0  0  0  0  0
   -3.3416   -0.3066    2.5945 H   0  0  0  0  0  0  0  0  0  0  0  0
   -5.6700    0.3441    3.0843 H   0  0  0  0  0  0  0  0  0  0  0  0
   -7.2000    0.9975    1.2443 H   0  0  0  0  0  0  0  0  0  0  0  0
   -6.3970    1.0016   -1.0951 H   0  0  0  0  0  0  0  0  0  0  0  0
  1  2  1  0
  2  3  1  0
  3  4  1  0
  4  5  1  0
  5  6  2  0
  5  7  1  0
  7  8  1  0
  8  9  1  0
  9 10  1  0
 10 11  1  0
 11 12  2  0
 12 13  1  0
 13 14  2  0
 14 15  1  0
 15 16  1  0
 15 17  2  0
 10 18  1  0
 18 19  1  0
  4 20  1  0
 20 21  2  0
 21 22  1  0
 22 23  2  0
 23 24  1  0
 24 25  2  0
 25 26  1  0
 26 27  2  0
 26  2  1  0
 19  7  1  0
 25 20  1  0
 17 11  1  0
  1 28  1  0
  1 29  1  0
  1 30  1  0
  3 31  1  0
  3 32  1  0
  4 33  1  0
  8 34  1  0
  8 35  1  0
  9 36  1  0
  9 37  1  0
 12 38  1  0
 14 39  1  0
 17 40  1  0
 18 41  1  0
 18 42  1  0
 19 43  1  0
 19 44  1  0
 21 45  1  0
 22 46  1  0
 23 47  1  0
 24 48  1  0
M  END
$$$$
OCNT-2313647
     RDKit          3D

 42 45  0  0  0  0  0  0  0  0999 V2000
    0.6337    1.5270   -2.7393 C   0  0  0  0  0  0  0  0  0  0  0  0
    1.6913    1.1738   -1.7707 C   0  0  0  0  0  0  0  0  0  0  0  0
    1.7650    0.3636   -0.6540 C   0  0  0  0  0  0  0  0  0  0  0  0
    0.7010   -0.4293   -0.0821 C   0  0  0  0  0  0  0  0  0  0  0  0
    0.8872   -1.5472    0.3889 O   0  0  0  0  0  0  0  0  0  0  0  0
   -0.5409    0.1555   -0.0869 N   0  0  0  0  0  0  0  0  0  0  0  0
   -1.7040   -0.5430    0.4266 C   0  0  1  0  0  0  0  0  0  0  0  0
   -2.8821    0.3862    0.4875 C   0  0  0  0  0  0  0  0  0  0  0  0
   -3.1185    1.4025    1.4009 C   0  0  0  0  0  0  0  0  0  0  0  0
   -4.2679    2.1794    1.2449 C   0  0  0  0  0  0  0  0  0  0  0  0
   -5.1538    1.9401    0.1828 C   0  0  0  0  0  0  0  0  0  0  0  0
   -4.9048    0.9194   -0.7372 C   0  0  0  0  0  0  0  0  0  0  0  0
   -3.7690    0.1457   -0.5688 C   0  0  0  0  0  0  0  0  0  0  0  0
   -3.2875   -0.9758   -1.4354 C   0  0  0  0  0  0  0  0  0  0  0  0
   -2.2494   -1.6584   -0.5238 C   0  0  1  0  0  0  0  0  0  0  0  0
   -1.2506   -2.3041   -1.3080 O   0  0  0  0  0  0  0  0  0  0  0  0
    3.1408    0.4352   -0.2634 C   0  0  0  0  0  0  0  0  0  0  0  0
    3.8373   -0.2106    0.8460 C   0  0  0  0  0  0  0  0  0  0  0  0
    5.1540   -0.6620    0.7014 C   0  0  0  0  0  0  0  0  0  0  0  0
    5.8114   -1.2538    1.7787 C   0  0  0  0  0  0  0  0  0  0  0  0
    5.1319   -1.3693    2.9794 C   0  0  0  0  0  0  0  0  0  0  0  0
    3.8668   -0.9385    3.1676 N   0  0  0  0  0  0  0  0  0  0  0  0
    3.2513   -0.3732    2.0977 C   0  0  0  0  0  0  0  0  0  0  0  0
    3.8141    1.2577   -1.0864 N   0  0  0  0  0  0  0  0  0  0  0  0
    2.9099    1.7158   -2.0132 O   0  0  0  0  0  0  0  0  0  0  0  0
    1.0638    1.8357   -3.6975 H   0  0  0  0  0  0  0  0  0  0  0  0
    0.0276    2.3537   -2.3569 H   0  0  0  0  0  0  0  0  0  0  0  0
   -0.0234    0.6731   -2.9307 H   0  0  0  0  0  0  0  0  0  0  0  0
   -0.6705    1.0874   -0.4539 H   0  0  0  0  0  0  0  0  0  0  0  0
   -1.4666   -0.9699    1.4076 H   0  0  0  0  0  0  0  0  0  0  0  0
   -2.4306    1.5948    2.2188 H   0  0  0  0  0  0  0  0  0  0  0  0
   -4.4794    2.9801    1.9501 H   0  0  0  0  0  0  0  0  0  0  0  0
   -6.0426    2.5579    0.0753 H   0  0  0  0  0  0  0  0  0  0  0  0
   -5.5894    0.7407   -1.5608 H   0  0  0  0  0  0  0  0  0  0  0  0
   -2.8310   -0.5908   -2.3537 H   0  0  0  0  0  0  0  0  0  0  0  0
   -4.0917   -1.6699   -1.6981 H   0  0  0  0  0  0  0  0  0  0  0  0
   -2.7573   -2.4236    0.0790 H   0  0  0  0  0  0  0  0  0  0  0  0
   -0.5217   -2.5427   -0.6980 H   0  0  0  0  0  0  0  0  0  0  0  0
    5.6734   -0.5555   -0.2485 H   0  0  0  0  0  0  0  0  0  0  0  0
    6.8300   -1.6122    1.6817 H   0  0  0  0  0  0  0  0  0  0  0  0
    5.6018   -1.8224    3.8477 H   0  0  0  0  0  0  0  0  0  0  0  0
    2.2406   -0.0346    2.3050 H   0  0  0  0  0  0  0  0  0  0  0  0
  1  2  1  0
  2  3  2  0
  3  4  1  0
  4  5  2  0
  4  6  1  0
  6  7  1  0
  7  8  1  0
  8  9  2  0
  9 10  1  0
 10 11  2  0
 11 12  1  0
 12 13  2  0
 13 14  1  0
 14 15  1  0
 15 16  1  0
  3 17  1  0
 17 18  1  0
 18 19  1  0
 19 20  2  0
 20 21  1  0
 21 22  2  0
 22 23  1  0
 17 24  2  0
 24 25  1  0
 25  2  1  0
 15  7  1  0
 23 18  2  0
 13  8  1  0
  1 26  1  0
  1 27  1  0
  1 28  1  0
  6 29  1  0
  7 30  1  1
  9 31  1  0
 10 32  1  0
 11 33  1  0
 12 34  1  0
 14 35  1  0
 14 36  1  0
 15 37  1  1
 16 38  1  0
 19 39  1  0
 20 40  1  0
 21 41  1  0
 23 42  1  0
M  END
$$$$
OCNT-2313652
     RDKit          3D

  0  0  0  0  0  0  0  0  0  0999 V3000
M  V30 BEGIN CTAB
M  V30 COUNTS 44 46 0 0 0
M  V30 BEGIN ATOM
M  V30 1 C 2.961805 -1.938664 -0.419657 0
M  V30 2 C 2.923152 -0.436585 -0.556671 0
M  V30 3 C 3.218260 0.137374 -1.804178 0
M  V30 4 C 3.205918 1.523882 -1.973958 0
M  V30 5 C 2.904148 2.360931 -0.900383 0
M  V30 6 C 2.607685 1.808772 0.344583 0
M  V30 7 C 2.607175 0.411314 0.534415 0
M  V30 8 C 2.187740 -0.127297 1.891382 0
M  V30 9 C 0.681238 -0.129029 2.145716 0
M  V30 10 O 0.229091 -0.174657 3.284995 0
M  V30 11 N -0.117151 -0.156709 1.032779 0
M  V30 12 C -1.551365 0.115281 1.023067 0 CFG=1
M  V30 13 C -1.885398 0.680787 -0.338980 0
M  V30 14 C -1.583280 2.018649 -0.643047 0
M  V30 15 C -1.841475 2.530130 -1.914134 0
M  V30 16 C -2.403908 1.712597 -2.889298 0
M  V30 17 C -2.702988 0.382025 -2.597230 0
M  V30 18 C -2.436322 -0.137856 -1.332000 0
M  V30 19 O -2.765236 -1.453631 -1.152781 0
M  V30 20 C -2.333399 -2.047403 0.076040 0
M  V30 21 C -2.452835 -1.105692 1.265801 0 CFG=1
M  V30 22 C -2.204590 -1.824526 2.582254 0
M  V30 23 O -2.275893 -0.884533 3.649592 0
M  V30 24 H 3.775798 -2.226693 0.260155 0
M  V30 25 H 2.004659 -2.316423 -0.042965 0
M  V30 26 H 3.140977 -2.425063 -1.383107 0
M  V30 27 H 3.458980 -0.495826 -2.657243 0
M  V30 28 H 3.429231 1.953531 -2.945721 0
M  V30 29 H 2.897644 3.442476 -1.032503 0
M  V30 30 H 2.362231 2.479561 1.169176 0
M  V30 31 H 2.652773 0.496356 2.667429 0
M  V30 32 H 2.561696 -1.146121 2.048479 0
M  V30 33 H 0.327026 -0.231385 0.119380 0
M  V30 34 H -1.759029 0.870686 1.792029 0
M  V30 35 H -1.138414 2.664386 0.111544 0
M  V30 36 H -1.603744 3.565825 -2.142872 0
M  V30 37 H -2.606528 2.108714 -3.878699 0
M  V30 38 H -3.140695 -0.255326 -3.361029 0
M  V30 39 H -2.960013 -2.931351 0.234148 0
M  V30 40 H -1.306623 -2.407641 -0.056772 0
M  V30 41 H -3.487106 -0.728929 1.293374 0
M  V30 42 H -2.984799 -2.581427 2.745913 0
M  V30 43 H -1.235092 -2.345730 2.600528 0
M  V30 44 H -1.361344 -0.754777 4.017243 0
M  V30 END ATOM
M  V30 BEGIN BOND
M  V30 1 1 1 2
M  V30 2 2 2 3
M  V30 3 1 3 4
M  V30 4 2 4 5
M  V30 5 1 5 6
M  V30 6 2 6 7
M  V30 7 1 7 8
M  V30 8 1 8 9
M  V30 9 2 9 10
M  V30 10 1 9 11
M  V30 11 1 11 12
M  V30 12 1 12 13
M  V30 13 2 13 14
M  V30 14 1 14 15
M  V30 15 2 15 16
M  V30 16 1 16 17
M  V30 17 2 17 18
M  V30 18 1 18 19
M  V30 19 1 19 20
M  V30 20 1 20 21
M  V30 21 1 21 22
M  V30 22 1 22 23
M  V30 23 1 7 2
M  V30 24 1 21 12
M  V30 25 1 18 13
M  V30 26 1 1 24
M  V30 27 1 1 25
M  V30 28 1 1 26
M  V30 29 1 3 27
M  V30 30 1 4 28
M  V30 31 1 5 29
M  V30 32 1 6 30
M  V30 33 1 8 31
M  V30 34 1 8 32
M  V30 35 1 11 33
M  V30 36 1 12 34 CFG=1
M  V30 37 1 14 35
M  V30 38 1 15 36
M  V30 39 1 16 37
M  V30 40 1 17 38
M  V30 41 1 20 39
M  V30 42 1 20 40
M  V30 43 1 21 41 CFG=1
M  V30 44 1 22 42
M  V30 45 1 22 43
M  V30 46 1 23 44
M  V30 END BOND
M  V30 BEGIN COLLECTION
M  V30 MDLV30/STERAC1 ATOMS=(2 12 21)
M  V30 END COLLECTION
M  V30 END CTAB
M  END
>  <_CXSMILES_Data>  (757) 
|&1:11,20|

$$$$
OCNT-2313654
     RDKit          3D

 40 42  0  0  0  0  0  0  0  0999 V2000
   -5.0176   -1.3919    3.1786 C   0  0  0  0  0  0  0  0  0  0  0  0
   -3.9381   -0.8390    2.3849 N   0  0  0  0  0  0  0  0  0  0  0  0
   -4.1760   -0.2218    1.1879 C   0  0  0  0  0  0  0  0  0  0  0  0
   -3.2558   -0.0102    0.1634 C   0  0  0  0  0  0  0  0  0  0  0  0
   -1.8674   -0.4442    0.2588 C   0  0  0  0  0  0  0  0  0  0  0  0
   -1.5362   -1.4833    0.8251 O   0  0  0  0  0  0  0  0  0  0  0  0
   -0.9454    0.4259   -0.2922 N   0  0  0  0  0  0  0  0  0  0  0  0
    0.4996    0.1617   -0.2225 C   0  0  2  0  0  0  0  0  0  0  0  0
    1.3686    1.1606   -1.0179 C   0  0  0  0  0  0  0  0  0  0  0  0
    2.2564   -0.0461   -1.4475 C   0  0  1  0  0  0  0  0  0  0  0  0
    3.6042   -0.2778   -0.6234 C   0  0  0  0  0  0  0  0  0  0  0  0
    3.7441   -1.2240    0.4130 C   0  0  0  0  0  0  0  0  0  0  0  0
    4.9495   -1.3852    1.1053 C   0  0  0  0  0  0  0  0  0  0  0  0
    6.0440   -0.5992    0.7736 C   0  0  0  0  0  0  0  0  0  0  0  0
    7.1959   -0.7554    1.4383 F   0  0  0  0  0  0  0  0  0  0  0  0
    5.9576    0.3442   -0.2341 C   0  0  0  0  0  0  0  0  0  0  0  0
    4.7513    0.4913   -0.9120 C   0  0  0  0  0  0  0  0  0  0  0  0
    4.6792    1.4139   -1.8841 F   0  0  0  0  0  0  0  0  0  0  0  0
    1.0027   -0.9293   -1.1945 C   0  0  0  0  0  0  0  0  0  0  0  0
   -3.8987    0.6305   -0.9631 C   0  0  0  0  0  0  0  0  0  0  0  0
   -3.2893    0.9226   -2.2931 C   0  0  0  0  0  0  0  0  0  0  0  0
   -5.1736    0.9749   -0.7923 N   0  0  0  0  0  0  0  0  0  0  0  0
   -5.6683    0.4846    0.7011 S   0  0  0  0  0  0  0  0  0  0  0  0
   -5.5558   -2.1685    2.6253 H   0  0  0  0  0  0  0  0  0  0  0  0
   -4.6039   -1.8493    4.0830 H   0  0  0  0  0  0  0  0  0  0  0  0
   -5.7209   -0.6160    3.4977 H   0  0  0  0  0  0  0  0  0  0  0  0
   -3.0825   -1.4018    2.4266 H   0  0  0  0  0  0  0  0  0  0  0  0
   -1.2761    1.3529   -0.5300 H   0  0  0  0  0  0  0  0  0  0  0  0
    0.8404    0.0269    0.8117 H   0  0  0  0  0  0  0  0  0  0  0  0
    1.8584    1.9328   -0.4174 H   0  0  0  0  0  0  0  0  0  0  0  0
    0.8592    1.6462   -1.8596 H   0  0  0  0  0  0  0  0  0  0  0  0
    2.4950   -0.0121   -2.5210 H   0  0  0  0  0  0  0  0  0  0  0  0
    2.9018   -1.8520    0.6970 H   0  0  0  0  0  0  0  0  0  0  0  0
    5.0363   -2.1197    1.9005 H   0  0  0  0  0  0  0  0  0  0  0  0
    6.8120    0.9583   -0.4914 H   0  0  0  0  0  0  0  0  0  0  0  0
    1.1653   -1.9177   -0.7581 H   0  0  0  0  0  0  0  0  0  0  0  0
    0.3811   -1.0585   -2.0904 H   0  0  0  0  0  0  0  0  0  0  0  0
   -2.7359    1.8662   -2.2594 H   0  0  0  0  0  0  0  0  0  0  0  0
   -4.0555    1.0080   -3.0716 H   0  0  0  0  0  0  0  0  0  0  0  0
   -2.6057    0.1233   -2.5960 H   0  0  0  0  0  0  0  0  0  0  0  0
  1  2  1  0
  2  3  1  0
  3  4  2  0
  4  5  1  0
  5  6  2  0
  5  7  1  0
  7  8  1  0
  8  9  1  0
  9 10  1  0
 10 11  1  0
 11 12  1  0
 12 13  2  0
 13 14  1  0
 14 15  1  0
 14 16  2  0
 16 17  1  0
 17 18  1  0
 10 19  1  0
  4 20  1  0
 20 21  1  0
 20 22  2  0
 22 23  1  0
 23  3  1  0
 19  8  1  0
 17 11  2  0
  1 24  1  0
  1 25  1  0
  1 26  1  0
  2 27  1  0
  7 28  1  0
  8 29  1  1
  9 30  1  0
  9 31  1  0
 10 32  1  6
 12 33  1  0
 13 34  1  0
 16 35  1  0
 19 36  1  0
 19 37  1  0
 21 38  1  0
 21 39  1  0
 21 40  1  0
M  END
$$$$
OCNT-2313664
     RDKit          3D

  0  0  0  0  0  0  0  0  0  0999 V3000
M  V30 BEGIN CTAB
M  V30 COUNTS 47 50 0 0 0
M  V30 BEGIN ATOM
M  V30 1 O 3.634318 -2.238956 -1.126376 0
M  V30 2 C 3.253759 -1.391384 -0.326313 0
M  V30 3 N 3.848667 -0.154062 -0.165054 0
M  V30 4 C 4.983522 0.242439 -0.937587 0
M  V30 5 C 5.453568 1.671292 -0.929303 0
M  V30 6 C 4.808011 1.102169 -2.158154 0
M  V30 7 C 2.098983 -1.685759 0.565409 0
M  V30 8 C 1.854865 -3.019625 0.921819 0
M  V30 9 C 0.788790 -3.344390 1.763811 0
M  V30 10 C -0.053307 -2.340210 2.238664 0
M  V30 11 C 0.164113 -1.015079 1.846301 0
M  V30 12 S -0.906298 0.259410 2.459917 0
M  V30 13 O -0.251400 1.531003 2.256929 0
M  V30 14 O -1.347382 -0.149703 3.775537 0
M  V30 15 N -2.257105 0.166667 1.484731 0
M  V30 16 C -2.303254 0.306514 0.014253 0 CFG=2
M  V30 17 C -1.463489 1.448461 -0.562305 0
M  V30 18 C -2.307787 2.688033 -0.305900 0
M  V30 19 C -3.726087 2.235967 -0.630752 0
M  V30 20 C -3.742197 0.727302 -0.369264 0 CFG=1
M  V30 21 C -4.049617 -0.113735 -1.599483 0
M  V30 22 N -3.417326 -1.400703 -1.296288 0
M  V30 23 C -2.115866 -1.049423 -0.695118 0
M  V30 24 C 1.245533 -0.677319 1.025194 0
M  V30 25 H 3.601509 0.418827 0.632097 0
M  V30 26 H 5.754945 -0.524140 -0.987376 0
M  V30 27 H 6.522347 1.850714 -0.955819 0
M  V30 28 H 4.894772 2.405065 -0.361285 0
M  V30 29 H 3.808376 1.432831 -2.413421 0
M  V30 30 H 5.435090 0.886110 -3.015432 0
M  V30 31 H 2.506467 -3.809809 0.550376 0
M  V30 32 H 0.620264 -4.380606 2.049278 0
M  V30 33 H -0.875349 -2.596301 2.904246 0
M  V30 34 H -3.038046 -0.305095 1.940227 0
M  V30 35 H -0.460279 1.540939 -0.148826 0
M  V30 36 H -1.339991 1.327799 -1.646891 0
M  V30 37 H -1.996468 3.536823 -0.921793 0
M  V30 38 H -2.239136 2.990622 0.745225 0
M  V30 39 H -4.451962 2.760261 -0.000243 0
M  V30 40 H -3.974937 2.467022 -1.672621 0
M  V30 41 H -4.466742 0.489726 0.421312 0
M  V30 42 H -3.612627 0.304862 -2.513724 0
M  V30 43 H -5.126153 -0.225869 -1.761027 0
M  V30 44 H -3.981908 -1.884956 -0.596780 0
M  V30 45 H -1.813722 -1.853866 -0.020077 0
M  V30 46 H -1.361265 -0.987750 -1.487291 0
M  V30 47 H 1.401800 0.357882 0.734838 0
M  V30 END ATOM
M  V30 BEGIN BOND
M  V30 1 2 1 2
M  V30 2 1 2 3
M  V30 3 1 3 4
M  V30 4 1 4 5
M  V30 5 1 5 6
M  V30 6 1 2 7
M  V30 7 1 7 8
M  V30 8 2 8 9
M  V30 9 1 9 10
M  V30 10 2 10 11
M  V30 11 1 11 12
M  V30 12 2 12 13
M  V30 13 2 12 14
M  V30 14 1 12 15
M  V30 15 1 16 15 CFG=1
M  V30 16 1 16 17
M  V30 17 1 17 18
M  V30 18 1 18 19
M  V30 19 1 19 20
M  V30 20 1 20 21
M  V30 21 1 21 22
M  V30 22 1 22 23
M  V30 23 1 11 24
M  V30 24 1 6 4
M  V30 25 2 24 7
M  V30 26 1 20 16
M  V30 27 1 23 16
M  V30 28 1 3 25
M  V30 29 1 4 26
M  V30 30 1 5 27
M  V30 31 1 5 28
M  V30 32 1 6 29
M  V30 33 1 6 30
M  V30 34 1 8 31
M  V30 35 1 9 32
M  V30 36 1 10 33
M  V30 37 1 15 34
M  V30 38 1 17 35
M  V30 39 1 17 36
M  V30 40 1 18 37
M  V30 41 1 18 38
M  V30 42 1 19 39
M  V30 43 1 19 40
M  V30 44 1 20 41 CFG=1
M  V30 45 1 21 42
M  V30 46 1 21 43
M  V30 47 1 22 44
M  V30 48 1 23 45
M  V30 49 1 23 46
M  V30 50 1 24 47
M  V30 END BOND
M  V30 BEGIN COLLECTION
M  V30 MDLV30/STERAC1 ATOMS=(2 16 20)
M  V30 END COLLECTION
M  V30 END CTAB
M  END
>  <_CXSMILES_Data>  (759) 
|&1:15,19|

$$$$
OCNT-2313666
     RDKit          3D

 43 45  0  0  0  0  0  0  0  0999 V2000
   -1.3019   -0.3817   -1.3915 O   0  0  0  0  0  0  0  0  0  0  0  0
   -1.7549    0.5315   -0.7070 C   0  0  0  0  0  0  0  0  0  0  0  0
   -1.0158    1.6576   -0.4161 N   0  0  0  0  0  0  0  0  0  0  0  0
    0.4068    1.7216   -0.7467 C   0  0  0  0  0  0  0  0  0  0  0  0
    1.3053    1.1004    0.3371 C   0  0  0  0  0  0  0  0  0  0  0  0
    1.0991    1.8059    1.4948 F   0  0  0  0  0  0  0  0  0  0  0  0
    0.9225   -0.1743    0.6057 F   0  0  0  0  0  0  0  0  0  0  0  0
    2.8232    1.1389    0.0120 C   0  0  0  0  0  0  0  0  0  0  0  0
    3.2339    2.5113   -0.1816 O   0  0  0  0  0  0  0  0  0  0  0  0
    3.6607    0.5824    1.1911 C   0  0  0  0  0  0  0  0  0  0  0  0
    4.0081   -0.8912    1.0162 C   0  0  0  0  0  0  0  0  0  0  0  0
    4.8494   -1.1240   -0.2392 C   0  0  0  0  0  0  0  0  0  0  0  0
    4.5635   -0.1176   -1.3546 C   0  0  0  0  0  0  0  0  0  0  0  0
    3.1226    0.3834   -1.3026 C   0  0  0  0  0  0  0  0  0  0  0  0
   -3.0803    0.5052   -0.1489 C   0  0  0  0  0  0  0  0  0  0  0  0
   -3.8431    1.4507    0.5317 C   0  0  0  0  0  0  0  0  0  0  0  0
   -5.0950    0.9699    0.8804 N   0  0  0  0  0  0  0  0  0  0  0  0
   -5.0981   -0.2488    0.4129 C   0  0  0  0  0  0  0  0  0  0  0  0
   -6.0371   -1.3854    0.3737 C   0  0  0  0  0  0  0  0  0  0  0  0
   -5.0984   -2.5501   -0.0310 C   0  0  0  0  0  0  0  0  0  0  0  0
   -3.8853   -1.9014   -0.7255 C   0  0  0  0  0  0  0  0  0  0  0  0
   -3.9255   -0.5523   -0.2021 N   0  0  0  0  0  0  0  0  0  0  0  0
   -1.3524    2.2789    0.3062 H   0  0  0  0  0  0  0  0  0  0  0  0
    0.6404    2.7843   -0.8663 H   0  0  0  0  0  0  0  0  0  0  0  0
    0.5537    1.2206   -1.7081 H   0  0  0  0  0  0  0  0  0  0  0  0
    3.1296    2.9676    0.6753 H   0  0  0  0  0  0  0  0  0  0  0  0
    4.5934    1.1540    1.2927 H   0  0  0  0  0  0  0  0  0  0  0  0
    3.1307    0.7228    2.1406 H   0  0  0  0  0  0  0  0  0  0  0  0
    4.5511   -1.2595    1.8940 H   0  0  0  0  0  0  0  0  0  0  0  0
    3.0852   -1.4804    0.9531 H   0  0  0  0  0  0  0  0  0  0  0  0
    5.9158   -1.0764    0.0124 H   0  0  0  0  0  0  0  0  0  0  0  0
    4.6663   -2.1431   -0.6009 H   0  0  0  0  0  0  0  0  0  0  0  0
    5.2486    0.7346   -1.2641 H   0  0  0  0  0  0  0  0  0  0  0  0
    4.7693   -0.5803   -2.3266 H   0  0  0  0  0  0  0  0  0  0  0  0
    2.4551   -0.4810   -1.4108 H   0  0  0  0  0  0  0  0  0  0  0  0
    2.9500    1.0392   -2.1647 H   0  0  0  0  0  0  0  0  0  0  0  0
   -3.5680    2.4648    0.7902 H   0  0  0  0  0  0  0  0  0  0  0  0
   -6.5167   -1.5734    1.3376 H   0  0  0  0  0  0  0  0  0  0  0  0
   -6.8043   -1.2228   -0.3898 H   0  0  0  0  0  0  0  0  0  0  0  0
   -5.5975   -3.2911   -0.6627 H   0  0  0  0  0  0  0  0  0  0  0  0
   -4.7588   -3.0684    0.8755 H   0  0  0  0  0  0  0  0  0  0  0  0
   -4.0100   -1.8433   -1.8104 H   0  0  0  0  0  0  0  0  0  0  0  0
   -2.9413   -2.3793   -0.4545 H   0  0  0  0  0  0  0  0  0  0  0  0
  1  2  2  0
  2  3  1  0
  3  4  1  0
  4  5  1  0
  5  6  1  0
  5  7  1  0
  5  8  1  0
  8  9  1  0
  8 10  1  0
 10 11  1  0
 11 12  1  0
 12 13  1  0
 13 14  1  0
  2 15  1  0
 15 16  2  0
 16 17  1  0
 17 18  2  0
 18 19  1  0
 19 20  1  0
 20 21  1  0
 21 22  1  0
 14  8  1  0
 22 15  1  0
 22 18  1  0
  3 23  1  0
  4 24  1  0
  4 25  1  0
  9 26  1  0
 10 27  1  0
 10 28  1  0
 11 29  1  0
 11 30  1  0
 12 31  1  0
 12 32  1  0
 13 33  1  0
 13 34  1  0
 14 35  1  0
 14 36  1  0
 16 37  1  0
 19 38  1  0
 19 39  1  0
 20 40  1  0
 20 41  1  0
 21 42  1  0
 21 43  1  0
M  END
$$$$
OCNT-2313669
     RDKit          3D

  0  0  0  0  0  0  0  0  0  0999 V3000
M  V30 BEGIN CTAB
M  V30 COUNTS 42 44 0 0 0
M  V30 BEGIN ATOM
M  V30 1 C -4.791839 -1.058490 0.965841 0
M  V30 2 C -4.686551 -0.670663 -0.505791 0 CFG=1
M  V30 3 C -4.861476 0.842319 -0.732148 0
M  V30 4 N -3.706356 1.611512 -0.249378 0
M  V30 5 C -2.494044 1.097998 -0.907311 0
M  V30 6 C -2.295671 -0.435444 -0.803166 0 CFG=1
M  V30 7 C -1.525454 -0.884996 0.469893 0
M  V30 8 O -1.896507 -1.798578 1.204032 0
M  V30 9 N -0.322287 -0.229911 0.680393 0
M  V30 10 C 0.580469 -0.668640 1.731767 0
M  V30 11 C 1.626458 0.389320 2.090725 0
M  V30 12 C 2.527174 0.751574 0.946505 0
M  V30 13 C 2.497812 1.931627 0.227151 0
M  V30 14 N 3.479325 1.881416 -0.724452 0
M  V30 15 C 4.151451 0.683401 -0.651951 0
M  V30 16 C 5.214970 0.189691 -1.416415 0
M  V30 17 Cl 5.892742 1.112327 -2.697856 0
M  V30 18 C 5.716343 -1.077795 -1.114335 0
M  V30 19 C 5.169234 -1.826530 -0.074849 0
M  V30 20 C 4.105728 -1.322533 0.684732 0
M  V30 21 C 3.581500 -0.045155 0.393356 0
M  V30 22 O -3.486627 -1.160872 -1.125680 0
M  V30 23 H -5.795674 -0.846307 1.348420 0
M  V30 24 H -4.591425 -2.126632 1.097439 0
M  V30 25 H -4.081818 -0.508615 1.589926 0
M  V30 26 H -5.507113 -1.178812 -1.026614 0
M  V30 27 H -5.766457 1.197042 -0.226931 0
M  V30 28 H -4.990944 1.035838 -1.804565 0
M  V30 29 H -3.833767 2.594902 -0.485752 0
M  V30 30 H -1.631623 1.643549 -0.512406 0
M  V30 31 H -2.561030 1.358740 -1.972205 0
M  V30 32 H -1.600839 -0.705930 -1.611216 0
M  V30 33 H 0.111396 0.215830 -0.118470 0
M  V30 34 H 1.053803 -1.594259 1.385417 0
M  V30 35 H -0.009211 -0.914072 2.622384 0
M  V30 36 H 2.239518 0.020752 2.922216 0
M  V30 37 H 1.118501 1.292845 2.451691 0
M  V30 38 H 1.868331 2.807222 0.321869 0
M  V30 39 H 3.697962 2.613472 -1.387799 0
M  V30 40 H 6.541894 -1.487298 -1.691356 0
M  V30 41 H 5.570569 -2.811834 0.151389 0
M  V30 42 H 3.691534 -1.918014 1.493863 0
M  V30 END ATOM
M  V30 BEGIN BOND
M  V30 1 1 1 2
M  V30 2 1 2 3
M  V30 3 1 3 4
M  V30 4 1 4 5
M  V30 5 1 5 6
M  V30 6 1 6 7
M  V30 7 2 7 8
M  V30 8 1 7 9
M  V30 9 1 9 10
M  V30 10 1 10 11
M  V30 11 1 11 12
M  V30 12 2 12 13
M  V30 13 1 13 14
M  V30 14 1 14 15
M  V30 15 2 15 16
M  V30 16 1 16 17
M  V30 17 1 16 18
M  V30 18 2 18 19
M  V30 19 1 19 20
M  V30 20 2 20 21
M  V30 21 1 6 22
M  V30 22 1 22 2
M  V30 23 1 21 12
M  V30 24 1 21 15
M  V30 25 1 1 23
M  V30 26 1 1 24
M  V30 27 1 1 25
M  V30 28 1 2 26 CFG=3
M  V30 29 1 3 27
M  V30 30 1 3 28
M  V30 31 1 4 29
M  V30 32 1 5 30
M  V30 33 1 5 31
M  V30 34 1 6 32 CFG=3
M  V30 35 1 9 33
M  V30 36 1 10 34
M  V30 37 1 10 35
M  V30 38 1 11 36
M  V30 39 1 11 37
M  V30 40 1 13 38
M  V30 41 1 14 39
M  V30 42 1 18 40
M  V30 43 1 19 41
M  V30 44 1 20 42
M  V30 END BOND
M  V30 BEGIN COLLECTION
M  V30 MDLV30/STERAC1 ATOMS=(2 2 6)
M  V30 END COLLECTION
M  V30 END CTAB
M  END
>  <_CXSMILES_Data>  (761) 
|&1:1,5|

$$$$
OCNT-2313683
     RDKit          3D

 47 49  0  0  0  0  0  0  0  0999 V2000
   -1.6104    4.5958   -0.9756 C   0  0  0  0  0  0  0  0  0  0  0  0
   -1.3377    3.2097   -0.5270 C   0  0  0  0  0  0  0  0  0  0  0  0
   -1.9684    2.1769   -1.0905 N   0  0  0  0  0  0  0  0  0  0  0  0
   -1.4843    1.0956   -0.4490 N   0  0  0  0  0  0  0  0  0  0  0  0
   -2.0440   -0.2006   -0.7908 C   0  0  0  0  0  0  0  0  0  0  0  0
   -3.5120   -0.3316   -0.3488 C   0  0  0  0  0  0  0  0  0  0  0  0
   -3.9993   -1.6570   -0.9115 C   0  0  0  0  0  0  0  0  0  0  0  0
   -3.1737   -1.8345   -2.4875 S   0  0  0  0  0  0  0  0  0  0  0  0
   -4.1059   -1.5044   -3.5439 O   0  0  0  0  0  0  0  0  0  0  0  0
   -2.4333   -3.0798   -2.4663 O   0  0  0  0  0  0  0  0  0  0  0  0
   -2.0169   -0.4960   -2.2893 C   0  0  0  0  0  0  0  0  0  0  0  0
   -0.5570    1.4082    0.5239 C   0  0  0  0  0  0  0  0  0  0  0  0
    0.0884    0.4691    1.3120 N   0  0  0  0  0  0  0  0  0  0  0  0
    1.0140    0.8069    2.2945 C   0  0  0  0  0  0  0  0  0  0  0  0
    1.3214    1.9431    2.6407 O   0  0  0  0  0  0  0  0  0  0  0  0
    1.6804   -0.4281    2.9310 C   0  0  0  0  0  0  0  0  0  0  0  0
    2.9522   -0.7943    2.2523 N   0  0  0  0  0  0  0  0  0  0  0  0
    4.0668    0.1151    2.5572 C   0  0  0  0  0  0  0  0  0  0  0  0
    2.8087   -1.2415    0.9323 C   0  0  0  0  0  0  0  0  0  0  0  0
    3.3927   -0.5890   -0.1658 C   0  0  0  0  0  0  0  0  0  0  0  0
    3.1853   -1.0390   -1.4740 C   0  0  0  0  0  0  0  0  0  0  0  0
    2.3931   -2.1574   -1.7027 C   0  0  0  0  0  0  0  0  0  0  0  0
    2.1815   -2.5595   -2.9644 F   0  0  0  0  0  0  0  0  0  0  0  0
    1.8213   -2.8388   -0.6347 C   0  0  0  0  0  0  0  0  0  0  0  0
    0.8290   -4.2228   -0.8933 Cl  0  0  0  0  0  0  0  0  0  0  0  0
    2.0376   -2.3900    0.6699 C   0  0  0  0  0  0  0  0  0  0  0  0
   -0.4608    2.7848    0.4937 C   0  0  0  0  0  0  0  0  0  0  0  0
   -1.7191    4.6407   -2.0632 H   0  0  0  0  0  0  0  0  0  0  0  0
   -0.7947    5.2678   -0.6902 H   0  0  0  0  0  0  0  0  0  0  0  0
   -2.5351    4.9671   -0.5195 H   0  0  0  0  0  0  0  0  0  0  0  0
   -1.4564   -0.9713   -0.2786 H   0  0  0  0  0  0  0  0  0  0  0  0
   -3.6099   -0.2976    0.7413 H   0  0  0  0  0  0  0  0  0  0  0  0
   -4.1156    0.4864   -0.7598 H   0  0  0  0  0  0  0  0  0  0  0  0
   -5.0786   -1.6808   -1.0552 H   0  0  0  0  0  0  0  0  0  0  0  0
   -3.6864   -2.4923   -0.2782 H   0  0  0  0  0  0  0  0  0  0  0  0
   -1.0287   -0.8112   -2.6308 H   0  0  0  0  0  0  0  0  0  0  0  0
   -2.3669    0.3360   -2.9046 H   0  0  0  0  0  0  0  0  0  0  0  0
   -0.0376   -0.5149    1.1174 H   0  0  0  0  0  0  0  0  0  0  0  0
    0.9777   -1.2713    2.9417 H   0  0  0  0  0  0  0  0  0  0  0  0
    1.8703   -0.1952    3.9869 H   0  0  0  0  0  0  0  0  0  0  0  0
    5.0150   -0.2879    2.1906 H   0  0  0  0  0  0  0  0  0  0  0  0
    4.1680    0.2236    3.6438 H   0  0  0  0  0  0  0  0  0  0  0  0
    3.9093    1.1132    2.1299 H   0  0  0  0  0  0  0  0  0  0  0  0
    4.0016    0.3033   -0.0309 H   0  0  0  0  0  0  0  0  0  0  0  0
    3.6340   -0.5136   -2.3147 H   0  0  0  0  0  0  0  0  0  0  0  0
    1.6161   -2.9563    1.4964 H   0  0  0  0  0  0  0  0  0  0  0  0
    0.1680    3.4134    1.1113 H   0  0  0  0  0  0  0  0  0  0  0  0
  1  2  1  0
  2  3  2  0
  3  4  1  0
  4  5  1  0
  5  6  1  0
  6  7  1  0
  7  8  1  0
  8  9  2  0
  8 10  2  0
  8 11  1  0
  4 12  1  0
 12 13  1  0
 13 14  1  0
 14 15  2  0
 14 16  1  0
 16 17  1  0
 17 18  1  0
 17 19  1  0
 19 20  1  0
 20 21  2  0
 21 22  1  0
 22 23  1  0
 22 24  2  0
 24 25  1  0
 24 26  1  0
 12 27  2  0
 27  2  1  0
 11  5  1  0
 26 19  2  0
  1 28  1  0
  1 29  1  0
  1 30  1  0
  5 31  1  0
  6 32  1  0
  6 33  1  0
  7 34  1  0
  7 35  1  0
 11 36  1  0
 11 37  1  0
 13 38  1  0
 16 39  1  0
 16 40  1  0
 18 41  1  0
 18 42  1  0
 18 43  1  0
 20 44  1  0
 21 45  1  0
 26 46  1  0
 27 47  1  0
M  END
$$$$
OCNT-2313726
     RDKit          3D

 39 41  0  0  0  0  0  0  0  0999 V2000
    5.4000    1.6897    0.2687 C   0  0  0  0  0  0  0  0  0  0  0  0
    4.1349    0.8928    0.1443 C   0  0  0  0  0  0  0  0  0  0  0  0
    2.9049    1.4898    0.4238 C   0  0  0  0  0  0  0  0  0  0  0  0
    1.7116    0.8622    0.3427 N   0  0  0  0  0  0  0  0  0  0  0  0
    1.7480   -0.4422   -0.0424 C   0  0  0  0  0  0  0  0  0  0  0  0
    0.4240   -1.1380   -0.1348 C   0  0  0  0  0  0  0  0  0  0  0  0
    0.3212   -2.3121   -0.4759 O   0  0  0  0  0  0  0  0  0  0  0  0
   -0.6578   -0.3471    0.1775 N   0  0  0  0  0  0  0  0  0  0  0  0
   -2.0085   -0.8603    0.2055 C   0  0  1  0  0  0  0  0  0  0  0  0
   -3.0263    0.1755    0.5854 C   0  0  0  0  0  0  0  0  0  0  0  0
   -2.9736    1.1001    1.6192 C   0  0  0  0  0  0  0  0  0  0  0  0
   -4.0662    1.9483    1.8122 C   0  0  0  0  0  0  0  0  0  0  0  0
   -5.1977    1.8542    0.9883 C   0  0  0  0  0  0  0  0  0  0  0  0
   -5.2538    0.9086   -0.0372 C   0  0  0  0  0  0  0  0  0  0  0  0
   -4.1608    0.0789   -0.2292 C   0  0  0  0  0  0  0  0  0  0  0  0
   -4.0222   -1.0268   -1.2294 C   0  0  0  0  0  0  0  0  0  0  0  0
   -2.5086   -1.3004   -1.2033 C   0  0  2  0  0  0  0  0  0  0  0  0
   -2.2470   -2.6814   -1.4529 O   0  0  0  0  0  0  0  0  0  0  0  0
    2.9151   -1.1316   -0.3431 C   0  0  0  0  0  0  0  0  0  0  0  0
    4.1375   -0.4569   -0.2498 C   0  0  0  0  0  0  0  0  0  0  0  0
    5.4133   -1.1834   -0.5712 C   0  0  0  0  0  0  0  0  0  0  0  0
    5.9167    1.7366   -0.6951 H   0  0  0  0  0  0  0  0  0  0  0  0
    5.1975    2.7187    0.5847 H   0  0  0  0  0  0  0  0  0  0  0  0
    6.0615    1.2396    1.0156 H   0  0  0  0  0  0  0  0  0  0  0  0
    2.8447    2.5312    0.7326 H   0  0  0  0  0  0  0  0  0  0  0  0
   -0.4609    0.6181    0.4292 H   0  0  0  0  0  0  0  0  0  0  0  0
   -2.0417   -1.7034    0.9067 H   0  0  0  0  0  0  0  0  0  0  0  0
   -2.1091    1.1628    2.2730 H   0  0  0  0  0  0  0  0  0  0  0  0
   -4.0452    2.6825    2.6141 H   0  0  0  0  0  0  0  0  0  0  0  0
   -6.0427    2.5173    1.1574 H   0  0  0  0  0  0  0  0  0  0  0  0
   -6.1369    0.8255   -0.6631 H   0  0  0  0  0  0  0  0  0  0  0  0
   -4.3442   -0.7170   -2.2285 H   0  0  0  0  0  0  0  0  0  0  0  0
   -4.6010   -1.9042   -0.9216 H   0  0  0  0  0  0  0  0  0  0  0  0
   -2.0168   -0.7146   -1.9915 H   0  0  0  0  0  0  0  0  0  0  0  0
   -1.2987   -2.8187   -1.2298 H   0  0  0  0  0  0  0  0  0  0  0  0
    2.8675   -2.1742   -0.6440 H   0  0  0  0  0  0  0  0  0  0  0  0
    6.0739   -1.1960    0.3015 H   0  0  0  0  0  0  0  0  0  0  0  0
    5.9248   -0.7005   -1.4097 H   0  0  0  0  0  0  0  0  0  0  0  0
    5.2223   -2.2237   -0.8555 H   0  0  0  0  0  0  0  0  0  0  0  0
  1  2  1  0
  2  3  1  0
  3  4  2  0
  4  5  1  0
  5  6  1  0
  6  7  2  0
  6  8  1  0
  8  9  1  0
  9 10  1  0
 10 11  2  0
 11 12  1  0
 12 13  2  0
 13 14  1  0
 14 15  2  0
 15 16  1  0
 16 17  1  0
 17 18  1  0
  5 19  2  0
 19 20  1  0
 20 21  1  0
 20  2  2  0
 17  9  1  0
 15 10  1  0
  1 22  1  0
  1 23  1  0
  1 24  1  0
  3 25  1  0
  8 26  1  0
  9 27  1  1
 11 28  1  0
 12 29  1  0
 13 30  1  0
 14 31  1  0
 16 32  1  0
 16 33  1  0
 17 34  1  6
 18 35  1  0
 19 36  1  0
 21 37  1  0
 21 38  1  0
 21 39  1  0
M  END
$$$$
OCNT-2313749
     RDKit          3D

 41 44  0  0  0  0  0  0  0  0999 V2000
    0.6614   -1.9728    1.6115 O   0  0  0  0  0  0  0  0  0  0  0  0
    0.9209   -1.2172    0.6758 C   0  0  0  0  0  0  0  0  0  0  0  0
    2.2808   -0.8173    0.4125 C   0  0  0  0  0  0  0  0  0  0  0  0
    3.0506   -0.8313   -0.7354 C   0  0  0  0  0  0  0  0  0  0  0  0
    2.6142   -1.3962   -2.2835 Cl  0  0  0  0  0  0  0  0  0  0  0  0
    4.3451   -0.3235   -0.4151 C   0  0  0  0  0  0  0  0  0  0  0  0
    5.5227   -0.0771   -1.1530 C   0  0  0  0  0  0  0  0  0  0  0  0
    6.6453    0.4297   -0.4918 C   0  0  0  0  0  0  0  0  0  0  0  0
    8.0835    0.7409   -1.3875 Cl  0  0  0  0  0  0  0  0  0  0  0  0
    6.6218    0.6852    0.8768 C   0  0  0  0  0  0  0  0  0  0  0  0
    5.4703    0.4384    1.6307 C   0  0  0  0  0  0  0  0  0  0  0  0
    4.3518   -0.0636    0.9553 C   0  0  0  0  0  0  0  0  0  0  0  0
    3.1133   -0.4167    1.4346 N   0  0  0  0  0  0  0  0  0  0  0  0
   -0.0878   -0.6564   -0.0804 N   0  0  0  0  0  0  0  0  0  0  0  0
   -0.0047    0.4730   -0.9895 C   0  0  0  0  0  0  0  0  0  0  0  0
   -1.4111    1.0632   -0.9887 C   0  0  0  0  0  0  0  0  0  0  0  0
   -2.3155   -0.1727   -0.8336 C   0  0  0  0  0  0  0  0  0  0  0  0
   -2.3717   -0.8284   -2.1097 O   0  0  0  0  0  0  0  0  0  0  0  0
   -3.7409    0.1068   -0.3823 C   0  0  0  0  0  0  0  0  0  0  0  0
   -4.3907    1.3071   -0.7260 C   0  0  0  0  0  0  0  0  0  0  0  0
   -5.7109    1.5465   -0.3362 C   0  0  0  0  0  0  0  0  0  0  0  0
   -6.3987    0.5828    0.3872 C   0  0  0  0  0  0  0  0  0  0  0  0
   -7.6647    0.8122    0.7582 F   0  0  0  0  0  0  0  0  0  0  0  0
   -5.7938   -0.6205    0.7209 C   0  0  0  0  0  0  0  0  0  0  0  0
   -4.4738   -0.8615    0.3315 C   0  0  0  0  0  0  0  0  0  0  0  0
   -1.4781   -1.0283    0.1496 C   0  0  0  0  0  0  0  0  0  0  0  0
    5.5537   -0.2779   -2.2199 H   0  0  0  0  0  0  0  0  0  0  0  0
    7.5074    1.0757    1.3730 H   0  0  0  0  0  0  0  0  0  0  0  0
    5.4543    0.6271    2.6998 H   0  0  0  0  0  0  0  0  0  0  0  0
    2.8331   -0.3818    2.4064 H   0  0  0  0  0  0  0  0  0  0  0  0
    0.7507    1.1964   -0.6715 H   0  0  0  0  0  0  0  0  0  0  0  0
    0.2431    0.0972   -1.9858 H   0  0  0  0  0  0  0  0  0  0  0  0
   -1.5230    1.7393   -0.1314 H   0  0  0  0  0  0  0  0  0  0  0  0
   -1.5932    1.6274   -1.9093 H   0  0  0  0  0  0  0  0  0  0  0  0
   -3.2974   -1.0624   -2.2957 H   0  0  0  0  0  0  0  0  0  0  0  0
   -3.8813    2.0711   -1.3097 H   0  0  0  0  0  0  0  0  0  0  0  0
   -6.2070    2.4759   -0.5982 H   0  0  0  0  0  0  0  0  0  0  0  0
   -6.3533   -1.3662    1.2772 H   0  0  0  0  0  0  0  0  0  0  0  0
   -4.0299   -1.8213    0.5904 H   0  0  0  0  0  0  0  0  0  0  0  0
   -1.7077   -0.7978    1.1970 H   0  0  0  0  0  0  0  0  0  0  0  0
   -1.5891   -2.1051   -0.0183 H   0  0  0  0  0  0  0  0  0  0  0  0
  1  2  2  0
  2  3  1  0
  3  4  2  0
  4  5  1  0
  4  6  1  0
  6  7  2  0
  7  8  1  0
  8  9  1  0
  8 10  2  0
 10 11  1  0
 11 12  2  0
 12 13  1  0
  2 14  1  0
 14 15  1  0
 15 16  1  0
 16 17  1  0
 17 18  1  0
 17 19  1  0
 19 20  1  0
 20 21  2  0
 21 22  1  0
 22 23  1  0
 22 24  2  0
 24 25  1  0
 17 26  1  0
 13  3  1  0
 26 14  1  0
 12  6  1  0
 25 19  2  0
  7 27  1  0
 10 28  1  0
 11 29  1  0
 13 30  1  0
 15 31  1  0
 15 32  1  0
 16 33  1  0
 16 34  1  0
 18 35  1  0
 20 36  1  0
 21 37  1  0
 24 38  1  0
 25 39  1  0
 26 40  1  0
 26 41  1  0
M  END
$$$$
OCNT-2313756
     RDKit          3D

 47 50  0  0  0  0  0  0  0  0999 V2000
    2.9184   -0.2097   -2.2479 O   0  0  0  0  0  0  0  0  0  0  0  0
    2.5603   -0.0287   -1.0812 C   0  0  0  0  0  0  0  0  0  0  0  0
    3.5344    0.2357   -0.0372 C   0  0  0  0  0  0  0  0  0  0  0  0
    4.8770   -0.0413    0.0346 C   0  0  0  0  0  0  0  0  0  0  0  0
    5.9299   -0.7048   -0.7567 C   0  0  0  0  0  0  0  0  0  0  0  0
    7.0912   -0.8136    0.2870 C   0  0  0  0  0  0  0  0  0  0  0  0
    6.8140    0.2491    1.4025 C   0  0  0  0  0  0  0  0  0  0  0  0
    5.3704    0.4945    1.2348 C   0  0  0  0  0  0  0  0  0  0  0  0
    4.3245    1.1029    1.8620 C   0  0  0  0  0  0  0  0  0  0  0  0
    3.1991    0.9643    1.0921 O   0  0  0  0  0  0  0  0  0  0  0  0
    1.1964   -0.0519   -0.7472 N   0  0  0  0  0  0  0  0  0  0  0  0
    0.7182   -0.5968    0.5271 C   0  0  0  0  0  0  0  0  0  0  0  0
   -0.7081   -0.1220    0.8573 C   0  0  0  0  0  0  0  0  0  0  0  0
   -1.6675   -0.4083   -0.2353 N   0  0  0  0  0  0  0  0  0  0  0  0
   -3.0093    0.0804    0.1372 C   0  0  0  0  0  0  0  0  0  0  0  0
   -4.1176   -0.4000   -0.8155 C   0  0  0  0  0  0  0  0  0  0  0  0
   -5.4870   -0.0002   -0.3223 C   0  0  0  0  0  0  0  0  0  0  0  0
   -6.2320   -0.8584    0.4903 C   0  0  0  0  0  0  0  0  0  0  0  0
   -7.4767   -0.4390    0.9345 C   0  0  0  0  0  0  0  0  0  0  0  0
   -8.0184    0.7600    0.6323 N   0  0  0  0  0  0  0  0  0  0  0  0
   -7.2815    1.5752   -0.1515 C   0  0  0  0  0  0  0  0  0  0  0  0
   -6.0278    1.2471   -0.6449 C   0  0  0  0  0  0  0  0  0  0  0  0
   -1.1738    0.2191   -1.4819 C   0  0  0  0  0  0  0  0  0  0  0  0
    0.2531   -0.2319   -1.8488 C   0  0  0  0  0  0  0  0  0  0  0  0
    5.6337   -1.6915   -1.1226 H   0  0  0  0  0  0  0  0  0  0  0  0
    6.2331   -0.0774   -1.6010 H   0  0  0  0  0  0  0  0  0  0  0  0
    8.0755   -0.6837   -0.1736 H   0  0  0  0  0  0  0  0  0  0  0  0
    7.0689   -1.8145    0.7383 H   0  0  0  0  0  0  0  0  0  0  0  0
    7.0703   -0.1403    2.3914 H   0  0  0  0  0  0  0  0  0  0  0  0
    7.3870    1.1618    1.2097 H   0  0  0  0  0  0  0  0  0  0  0  0
    4.1979    1.6541    2.7829 H   0  0  0  0  0  0  0  0  0  0  0  0
    1.3777   -0.3498    1.3583 H   0  0  0  0  0  0  0  0  0  0  0  0
    0.7376   -1.6905    0.4329 H   0  0  0  0  0  0  0  0  0  0  0  0
   -1.0316   -0.6315    1.7729 H   0  0  0  0  0  0  0  0  0  0  0  0
   -0.6857    0.9556    1.0685 H   0  0  0  0  0  0  0  0  0  0  0  0
   -3.2505   -0.2949    1.1411 H   0  0  0  0  0  0  0  0  0  0  0  0
   -3.0186    1.1766    0.2067 H   0  0  0  0  0  0  0  0  0  0  0  0
   -4.0753   -1.4916   -0.9227 H   0  0  0  0  0  0  0  0  0  0  0  0
   -3.9777    0.0105   -1.8224 H   0  0  0  0  0  0  0  0  0  0  0  0
   -5.8559   -1.8355    0.7751 H   0  0  0  0  0  0  0  0  0  0  0  0
   -8.0885   -1.0768    1.5660 H   0  0  0  0  0  0  0  0  0  0  0  0
   -7.7391    2.5334   -0.3807 H   0  0  0  0  0  0  0  0  0  0  0  0
   -5.4899    1.9533   -1.2684 H   0  0  0  0  0  0  0  0  0  0  0  0
   -1.1846    1.3126   -1.3814 H   0  0  0  0  0  0  0  0  0  0  0  0
   -1.8250   -0.0411   -2.3229 H   0  0  0  0  0  0  0  0  0  0  0  0
    0.5943    0.3348   -2.7229 H   0  0  0  0  0  0  0  0  0  0  0  0
    0.2591   -1.2950   -2.1213 H   0  0  0  0  0  0  0  0  0  0  0  0
  1  2  2  0
  2  3  1  0
  3  4  2  0
  4  5  1  0
  5  6  1  0
  6  7  1  0
  7  8  1  0
  8  9  2  0
  9 10  1  0
  2 11  1  0
 11 12  1  0
 12 13  1  0
 13 14  1  0
 14 15  1  0
 15 16  1  0
 16 17  1  0
 17 18  2  0
 18 19  1  0
 19 20  2  0
 20 21  1  0
 21 22  2  0
 14 23  1  0
 23 24  1  0
 10  3  1  0
 24 11  1  0
  8  4  1  0
 22 17  1  0
  5 25  1  0
  5 26  1  0
  6 27  1  0
  6 28  1  0
  7 29  1  0
  7 30  1  0
  9 31  1  0
 12 32  1  0
 12 33  1  0
 13 34  1  0
 13 35  1  0
 15 36  1  0
 15 37  1  0
 16 38  1  0
 16 39  1  0
 18 40  1  0
 19 41  1  0
 21 42  1  0
 22 43  1  0
 23 44  1  0
 23 45  1  0
 24 46  1  0
 24 47  1  0
M  END
$$$$
OCNT-2313761
     RDKit          3D

 49 52  0  0  0  0  0  0  0  0999 V2000
   -7.6831   -1.1356   -0.3640 C   0  0  0  0  0  0  0  0  0  0  0  0
   -6.5462   -0.9377    0.5304 N   0  0  0  0  0  0  0  0  0  0  0  0
   -6.1254    0.4806    0.5289 C   0  0  0  0  0  0  0  0  0  0  0  0
   -4.6441    0.7041    0.9129 C   0  0  0  0  0  0  0  0  0  0  0  0
   -3.7565    0.0147   -0.0381 N   0  0  0  0  0  0  0  0  0  0  0  0
   -2.4438    0.4101   -0.2328 C   0  0  0  0  0  0  0  0  0  0  0  0
   -1.7751    1.2478    0.6730 C   0  0  0  0  0  0  0  0  0  0  0  0
   -0.4478    1.6522    0.4741 C   0  0  0  0  0  0  0  0  0  0  0  0
    0.2627    1.2355   -0.6540 C   0  0  0  0  0  0  0  0  0  0  0  0
    1.6964    1.6637   -0.8616 C   0  0  0  0  0  0  0  0  0  0  0  0
    2.5400    0.9689    0.0872 N   0  0  0  0  0  0  0  0  0  0  0  0
    3.8969    1.1221   -0.1326 C   0  0  0  0  0  0  0  0  0  0  0  0
    4.3799    2.2627   -0.6389 N   0  0  0  0  0  0  0  0  0  0  0  0
    5.7106    2.3449   -0.8063 C   0  0  0  0  0  0  0  0  0  0  0  0
    6.5811    1.3290   -0.4966 C   0  0  0  0  0  0  0  0  0  0  0  0
    5.9974    0.1873    0.0093 C   0  0  0  0  0  0  0  0  0  0  0  0
    6.7947   -0.9354    0.3656 N   0  0  0  0  0  0  0  0  0  0  0  0
    6.3243   -2.1245    0.8824 C   0  0  0  0  0  0  0  0  0  0  0  0
    7.4281   -2.9194    1.0720 C   0  0  0  0  0  0  0  0  0  0  0  0
    8.5664   -2.2650    0.6905 N   0  0  0  0  0  0  0  0  0  0  0  0
    8.1600   -1.0841    0.2760 C   0  0  0  0  0  0  0  0  0  0  0  0
    4.6603    0.0734    0.1897 N   0  0  0  0  0  0  0  0  0  0  0  0
   -0.3802    0.3980   -1.5675 C   0  0  0  0  0  0  0  0  0  0  0  0
   -1.7081   -0.0001   -1.3564 C   0  0  0  0  0  0  0  0  0  0  0  0
   -4.2922   -1.2064   -0.6634 C   0  0  0  0  0  0  0  0  0  0  0  0
   -5.4188   -1.8319    0.1940 C   0  0  0  0  0  0  0  0  0  0  0  0
   -8.0592   -2.1616   -0.2850 H   0  0  0  0  0  0  0  0  0  0  0  0
   -7.4251   -0.9434   -1.4116 H   0  0  0  0  0  0  0  0  0  0  0  0
   -8.5121   -0.4759   -0.0844 H   0  0  0  0  0  0  0  0  0  0  0  0
   -6.7643    1.0346    1.2263 H   0  0  0  0  0  0  0  0  0  0  0  0
   -6.2764    0.9215   -0.4665 H   0  0  0  0  0  0  0  0  0  0  0  0
   -4.4570    0.3394    1.9302 H   0  0  0  0  0  0  0  0  0  0  0  0
   -4.4632    1.7857    0.8976 H   0  0  0  0  0  0  0  0  0  0  0  0
   -2.2682    1.5877    1.5793 H   0  0  0  0  0  0  0  0  0  0  0  0
    0.0325    2.2877    1.2157 H   0  0  0  0  0  0  0  0  0  0  0  0
    1.9969    1.4422   -1.8944 H   0  0  0  0  0  0  0  0  0  0  0  0
    1.7596    2.7513   -0.7274 H   0  0  0  0  0  0  0  0  0  0  0  0
    2.3582   -0.0239    0.1745 H   0  0  0  0  0  0  0  0  0  0  0  0
    6.0672    3.2882   -1.2105 H   0  0  0  0  0  0  0  0  0  0  0  0
    7.6411    1.4607   -0.6538 H   0  0  0  0  0  0  0  0  0  0  0  0
    5.2718   -2.2906    1.0654 H   0  0  0  0  0  0  0  0  0  0  0  0
    7.4606   -3.9281    1.4640 H   0  0  0  0  0  0  0  0  0  0  0  0
    8.8210   -0.3142   -0.0951 H   0  0  0  0  0  0  0  0  0  0  0  0
    0.1384    0.0483   -2.4571 H   0  0  0  0  0  0  0  0  0  0  0  0
   -2.1679   -0.6292   -2.1135 H   0  0  0  0  0  0  0  0  0  0  0  0
   -3.5088   -1.9663   -0.7718 H   0  0  0  0  0  0  0  0  0  0  0  0
   -4.6744   -0.9652   -1.6624 H   0  0  0  0  0  0  0  0  0  0  0  0
   -5.7731   -2.7545   -0.2826 H   0  0  0  0  0  0  0  0  0  0  0  0
   -4.9751   -2.1494    1.1473 H   0  0  0  0  0  0  0  0  0  0  0  0
  1  2  1  0
  2  3  1  0
  3  4  1  0
  4  5  1  0
  5  6  1  0
  6  7  1  0
  7  8  2  0
  8  9  1  0
  9 10  1  0
 10 11  1  0
 11 12  1  0
 12 13  2  0
 13 14  1  0
 14 15  2  0
 15 16  1  0
 16 17  1  0
 17 18  1  0
 18 19  2  0
 19 20  1  0
 20 21  2  0
 16 22  2  0
  9 23  2  0
 23 24  1  0
  5 25  1  0
 25 26  1  0
 26  2  1  0
 24  6  2  0
 22 12  1  0
 21 17  1  0
  1 27  1  0
  1 28  1  0
  1 29  1  0
  3 30  1  0
  3 31  1  0
  4 32  1  0
  4 33  1  0
  7 34  1  0
  8 35  1  0
 10 36  1  0
 10 37  1  0
 11 38  1  0
 14 39  1  0
 15 40  1  0
 18 41  1  0
 19 42  1  0
 21 43  1  0
 23 44  1  0
 24 45  1  0
 25 46  1  0
 25 47  1  0
 26 48  1  0
 26 49  1  0
M  END
$$$$
OCNT-2313767
     RDKit          3D

 54 56  0  0  0  0  0  0  0  0999 V2000
   -3.3710   -0.0313   -2.6651 C   0  0  0  0  0  0  0  0  0  0  0  0
   -3.1376    0.2899   -1.2332 C   0  0  0  0  0  0  0  0  0  0  0  0
   -3.5983    1.4372   -0.7300 N   0  0  0  0  0  0  0  0  0  0  0  0
   -3.2691    1.3942    0.5692 N   0  0  0  0  0  0  0  0  0  0  0  0
   -3.6965    2.4861    1.4161 C   0  0  0  0  0  0  0  0  0  0  0  0
   -4.9512    2.1442    2.1720 C   0  0  0  0  0  0  0  0  0  0  0  0
   -5.3504    3.2170    2.9076 F   0  0  0  0  0  0  0  0  0  0  0  0
   -5.9854    1.8042    1.3751 F   0  0  0  0  0  0  0  0  0  0  0  0
   -4.7513    1.1304    3.0488 F   0  0  0  0  0  0  0  0  0  0  0  0
   -2.5079    0.2978    0.8996 C   0  0  0  0  0  0  0  0  0  0  0  0
   -1.9448    0.0641    2.2567 C   0  0  0  0  0  0  0  0  0  0  0  0
   -2.4492   -0.4739   -0.2514 C   0  0  0  0  0  0  0  0  0  0  0  0
   -1.8230   -1.8130   -0.4442 C   0  0  0  0  0  0  0  0  0  0  0  0
   -0.5231   -1.7156   -1.2211 C   0  0  0  0  0  0  0  0  0  0  0  0
   -0.4718   -1.8276   -2.4433 O   0  0  0  0  0  0  0  0  0  0  0  0
    0.5840   -1.4800   -0.4402 N   0  0  0  0  0  0  0  0  0  0  0  0
    1.9141   -1.4017   -1.0025 C   0  0  0  0  0  0  0  0  0  0  0  0
    2.5223   -2.8145   -1.1965 C   0  0  0  0  0  0  0  0  0  0  0  0
    2.9570   -3.4669    0.1353 C   0  0  0  0  0  0  0  0  0  0  0  0
    4.0113   -2.6265    0.8830 C   0  0  0  0  0  0  0  0  0  0  0  0
    3.6649   -1.1830    0.8440 C   0  0  0  0  0  0  0  0  0  0  0  0
    2.7377   -0.6435   -0.0242 C   0  0  0  0  0  0  0  0  0  0  0  0
    2.7249    0.7051    0.2079 N   0  0  0  0  0  0  0  0  0  0  0  0
    1.9195    1.7289   -0.4559 C   0  0  0  0  0  0  0  0  0  0  0  0
    2.7994    2.6809   -1.2647 C   0  0  0  0  0  0  0  0  0  0  0  0
    1.0462    2.4917    0.5429 C   0  0  0  0  0  0  0  0  0  0  0  0
    3.5749    1.0610    1.2003 N   0  0  0  0  0  0  0  0  0  0  0  0
    4.1514   -0.0859    1.5712 C   0  0  0  0  0  0  0  0  0  0  0  0
   -3.3704   -1.1110   -2.8362 H   0  0  0  0  0  0  0  0  0  0  0  0
   -2.5905    0.4196   -3.2892 H   0  0  0  0  0  0  0  0  0  0  0  0
   -4.3422    0.3504   -2.9983 H   0  0  0  0  0  0  0  0  0  0  0  0
   -3.8589    3.3676    0.7815 H   0  0  0  0  0  0  0  0  0  0  0  0
   -2.8795    2.7316    2.1037 H   0  0  0  0  0  0  0  0  0  0  0  0
   -2.7090   -0.3368    2.9308 H   0  0  0  0  0  0  0  0  0  0  0  0
   -1.1110   -0.6497    2.2248 H   0  0  0  0  0  0  0  0  0  0  0  0
   -1.5496    0.9947    2.6821 H   0  0  0  0  0  0  0  0  0  0  0  0
   -2.5012   -2.4697   -0.9997 H   0  0  0  0  0  0  0  0  0  0  0  0
   -1.6405   -2.3084    0.5135 H   0  0  0  0  0  0  0  0  0  0  0  0
    0.4858   -1.4366    0.5660 H   0  0  0  0  0  0  0  0  0  0  0  0
    1.8703   -0.8947   -1.9732 H   0  0  0  0  0  0  0  0  0  0  0  0
    3.4051   -2.7359   -1.8447 H   0  0  0  0  0  0  0  0  0  0  0  0
    1.8084   -3.4713   -1.7075 H   0  0  0  0  0  0  0  0  0  0  0  0
    2.0746   -3.5979    0.7748 H   0  0  0  0  0  0  0  0  0  0  0  0
    3.3598   -4.4685   -0.0553 H   0  0  0  0  0  0  0  0  0  0  0  0
    4.9888   -2.7673    0.4068 H   0  0  0  0  0  0  0  0  0  0  0  0
    4.0948   -2.9758    1.9172 H   0  0  0  0  0  0  0  0  0  0  0  0
    1.2524    1.2136   -1.1555 H   0  0  0  0  0  0  0  0  0  0  0  0
    3.4934    3.2340   -0.6231 H   0  0  0  0  0  0  0  0  0  0  0  0
    3.3973    2.1296   -2.0002 H   0  0  0  0  0  0  0  0  0  0  0  0
    2.1881    3.4111   -1.8059 H   0  0  0  0  0  0  0  0  0  0  0  0
    0.3869    3.1982    0.0242 H   0  0  0  0  0  0  0  0  0  0  0  0
    0.4184    1.8035    1.1175 H   0  0  0  0  0  0  0  0  0  0  0  0
    1.6511    3.0679    1.2508 H   0  0  0  0  0  0  0  0  0  0  0  0
    4.9008   -0.0676    2.3527 H   0  0  0  0  0  0  0  0  0  0  0  0
  1  2  1  0
  2  3  2  0
  3  4  1  0
  4  5  1  0
  5  6  1  0
  6  7  1  0
  6  8  1  0
  6  9  1  0
  4 10  1  0
 10 11  1  0
 10 12  2  0
 12 13  1  0
 13 14  1  0
 14 15  2  0
 14 16  1  0
 16 17  1  0
 17 18  1  0
 18 19  1  0
 19 20  1  0
 20 21  1  0
 21 22  2  0
 22 23  1  0
 23 24  1  0
 24 25  1  0
 24 26  1  0
 23 27  1  0
 27 28  2  0
 12  2  1  0
 22 17  1  0
 28 21  1  0
  1 29  1  0
  1 30  1  0
  1 31  1  0
  5 32  1  0
  5 33  1  0
 11 34  1  0
 11 35  1  0
 11 36  1  0
 13 37  1  0
 13 38  1  0
 16 39  1  0
 17 40  1  0
 18 41  1  0
 18 42  1  0
 19 43  1  0
 19 44  1  0
 20 45  1  0
 20 46  1  0
 24 47  1  0
 25 48  1  0
 25 49  1  0
 25 50  1  0
 26 51  1  0
 26 52  1  0
 26 53  1  0
 28 54  1  0
M  END
$$$$
OCNT-2313769
     RDKit          3D

 56 59  0  0  0  0  0  0  0  0999 V2000
    5.8675   -2.2461    0.2480 O   0  0  0  0  0  0  0  0  0  0  0  0
    4.9455   -1.5900   -0.6567 S   0  0  0  0  0  0  0  0  0  0  0  0
    4.9302   -1.8953   -2.0718 O   0  0  0  0  0  0  0  0  0  0  0  0
    3.3147   -2.0408   -0.0652 C   0  0  0  0  0  0  0  0  0  0  0  0
    2.8115   -3.2675    0.3539 C   0  0  0  0  0  0  0  0  0  0  0  0
    1.4601   -3.0782    0.7213 C   0  0  0  0  0  0  0  0  0  0  0  0
    1.1902   -1.7444    0.5135 C   0  0  0  0  0  0  0  0  0  0  0  0
   -0.0337   -0.9118    0.6847 C   0  0  0  0  0  0  0  0  0  0  0  0
   -0.9939   -1.2371   -0.3716 N   0  0  0  0  0  0  0  0  0  0  0  0
   -2.3252   -0.5686   -0.2990 C   0  0  0  0  0  0  0  0  0  0  0  0
   -2.1355    0.9820   -0.4379 C   0  0  0  0  0  0  0  0  0  0  0  0
   -3.3695    1.8606   -0.4539 C   0  0  0  0  0  0  0  0  0  0  0  0
   -3.9575    2.2417   -1.6716 C   0  0  0  0  0  0  0  0  0  0  0  0
   -5.0870    3.0616   -1.6882 C   0  0  0  0  0  0  0  0  0  0  0  0
   -5.6249    3.5110   -0.4892 C   0  0  0  0  0  0  0  0  0  0  0  0
   -6.7060    4.3010   -0.5052 F   0  0  0  0  0  0  0  0  0  0  0  0
   -5.0519    3.1599    0.7266 C   0  0  0  0  0  0  0  0  0  0  0  0
   -3.9221    2.3402    0.7451 C   0  0  0  0  0  0  0  0  0  0  0  0
   -3.0284   -0.9794    1.0242 C   0  0  0  0  0  0  0  0  0  0  0  0
   -4.5125   -1.2590    0.8149 C   0  0  0  0  0  0  0  0  0  0  0  0
   -4.7385   -2.3463   -0.0839 O   0  0  0  0  0  0  0  0  0  0  0  0
   -3.7745   -2.4709   -1.1326 C   0  0  0  0  0  0  0  0  0  0  0  0
   -3.1399   -1.1339   -1.4969 C   0  0  0  0  0  0  0  0  0  0  0  0
    2.2997   -1.1098    0.0436 O   0  0  0  0  0  0  0  0  0  0  0  0
    5.1343    0.0855   -0.4765 N   0  0  0  0  0  0  0  0  0  0  0  0
    5.0069    0.6277    0.8978 C   0  0  0  0  0  0  0  0  0  0  0  0
    5.8496    1.8939    0.8740 C   0  0  0  0  0  0  0  0  0  0  0  0
    7.0171    1.4847   -0.0005 C   0  0  0  0  0  0  0  0  0  0  0  0
    6.3582    0.6581   -1.0975 C   0  0  0  0  0  0  0  0  0  0  0  0
    3.3785   -4.1885    0.3772 H   0  0  0  0  0  0  0  0  0  0  0  0
    0.7590   -3.8196    1.0798 H   0  0  0  0  0  0  0  0  0  0  0  0
   -0.4455   -1.1101    1.6800 H   0  0  0  0  0  0  0  0  0  0  0  0
    0.2532    0.1445    0.6468 H   0  0  0  0  0  0  0  0  0  0  0  0
   -0.5507   -1.0350   -1.2700 H   0  0  0  0  0  0  0  0  0  0  0  0
   -1.5050    1.3547    0.3806 H   0  0  0  0  0  0  0  0  0  0  0  0
   -1.5611    1.1904   -1.3527 H   0  0  0  0  0  0  0  0  0  0  0  0
   -3.5391    1.9019   -2.6172 H   0  0  0  0  0  0  0  0  0  0  0  0
   -5.5469    3.3546   -2.6268 H   0  0  0  0  0  0  0  0  0  0  0  0
   -5.4842    3.5311    1.6504 H   0  0  0  0  0  0  0  0  0  0  0  0
   -3.4737    2.0866    1.7034 H   0  0  0  0  0  0  0  0  0  0  0  0
   -2.5910   -1.9131    1.4060 H   0  0  0  0  0  0  0  0  0  0  0  0
   -2.8759   -0.2295    1.8077 H   0  0  0  0  0  0  0  0  0  0  0  0
   -5.0441   -0.3819    0.4334 H   0  0  0  0  0  0  0  0  0  0  0  0
   -4.9808   -1.5240    1.7689 H   0  0  0  0  0  0  0  0  0  0  0  0
   -4.2922   -2.8919   -2.0011 H   0  0  0  0  0  0  0  0  0  0  0  0
   -3.0200   -3.2027   -0.8228 H   0  0  0  0  0  0  0  0  0  0  0  0
   -3.9517   -0.4540   -1.7722 H   0  0  0  0  0  0  0  0  0  0  0  0
   -2.5136   -1.2401   -2.3914 H   0  0  0  0  0  0  0  0  0  0  0  0
    3.9637    0.8527    1.1333 H   0  0  0  0  0  0  0  0  0  0  0  0
    5.4030   -0.0721    1.6414 H   0  0  0  0  0  0  0  0  0  0  0  0
    5.2940    2.7159    0.4052 H   0  0  0  0  0  0  0  0  0  0  0  0
    6.1571    2.2111    1.8748 H   0  0  0  0  0  0  0  0  0  0  0  0
    7.5723    2.3390   -0.3980 H   0  0  0  0  0  0  0  0  0  0  0  0
    7.7138    0.8603    0.5725 H   0  0  0  0  0  0  0  0  0  0  0  0
    7.0463   -0.1033   -1.4766 H   0  0  0  0  0  0  0  0  0  0  0  0
    6.0504    1.2942   -1.9351 H   0  0  0  0  0  0  0  0  0  0  0  0
  1  2  2  0
  2  3  2  0
  2  4  1  0
  4  5  2  0
  5  6  1  0
  6  7  2  0
  7  8  1  0
  8  9  1  0
  9 10  1  0
 10 11  1  0
 11 12  1  0
 12 13  1  0
 13 14  2  0
 14 15  1  0
 15 16  1  0
 15 17  2  0
 17 18  1  0
 10 19  1  0
 19 20  1  0
 20 21  1  0
 21 22  1  0
 22 23  1  0
  7 24  1  0
  2 25  1  0
 25 26  1  0
 26 27  1  0
 27 28  1  0
 28 29  1  0
 24  4  1  0
 29 25  1  0
 23 10  1  0
 18 12  2  0
  5 30  1  0
  6 31  1  0
  8 32  1  0
  8 33  1  0
  9 34  1  0
 11 35  1  0
 11 36  1  0
 13 37  1  0
 14 38  1  0
 17 39  1  0
 18 40  1  0
 19 41  1  0
 19 42  1  0
 20 43  1  0
 20 44  1  0
 22 45  1  0
 22 46  1  0
 23 47  1  0
 23 48  1  0
 26 49  1  0
 26 50  1  0
 27 51  1  0
 27 52  1  0
 28 53  1  0
 28 54  1  0
 29 55  1  0
 29 56  1  0
M  END
$$$$
OCNT-2313778
     RDKit          3D

  0  0  0  0  0  0  0  0  0  0999 V3000
M  V30 BEGIN CTAB
M  V30 COUNTS 49 53 0 0 0
M  V30 BEGIN ATOM
M  V30 1 O -0.335852 -1.882377 -1.977666 0
M  V30 2 C -0.256763 -0.960248 -1.170270 0
M  V30 3 C 1.071158 -0.327975 -0.966588 0
M  V30 4 C 1.871709 -0.071928 -2.083991 0
M  V30 5 C 3.134992 0.502393 -1.924068 0
M  V30 6 C 3.617695 0.811851 -0.643196 0
M  V30 7 C 4.982237 1.434386 -0.469057 0
M  V30 8 N 5.882562 0.568729 0.269818 0
M  V30 9 C 6.471321 -0.580653 -0.159052 0
M  V30 10 N 7.258358 -1.047789 0.782664 0
M  V30 11 C 7.111609 -0.133507 1.786740 0
M  V30 12 N 6.284236 0.880756 1.519165 0
M  V30 13 C 2.812292 0.534884 0.474128 0
M  V30 14 C 1.550476 -0.042459 0.315195 0
M  V30 15 N -1.337050 -0.474876 -0.446164 0
M  V30 16 C -1.459050 0.903035 0.017456 0
M  V30 17 C -2.930495 1.257315 -0.211300 0 CFG=2
M  V30 18 C -3.371166 2.442547 0.596280 0
M  V30 19 C -3.675681 2.374206 2.072085 0
M  V30 20 C -4.789966 2.594037 1.083719 0
M  V30 21 C -3.620556 -0.078703 0.051947 0
M  V30 22 C -2.652306 -1.101180 -0.561131 0 CFG=2
M  V30 23 C -2.694425 -2.398117 0.197803 0
M  V30 24 C -2.472275 -3.715621 -0.502194 0
M  V30 25 C -3.843233 -3.356308 -0.004932 0
M  V30 26 H 1.510228 -0.324066 -3.079124 0
M  V30 27 H 3.736446 0.697664 -2.809832 0
M  V30 28 H 4.895581 2.387275 0.065625 0
M  V30 29 H 5.458878 1.638623 -1.434743 0
M  V30 30 H 6.296391 -1.019316 -1.131478 0
M  V30 31 H 7.624588 -0.208438 2.737083 0
M  V30 32 H 3.172650 0.752287 1.479715 0
M  V30 33 H 0.957166 -0.285488 1.192961 0
M  V30 34 H -0.793058 1.580482 -0.525583 0
M  V30 35 H -1.202841 0.922310 1.082624 0
M  V30 36 H -3.069551 1.504041 -1.273324 0
M  V30 37 H -2.880048 3.346622 0.243761 0
M  V30 38 H -3.633182 1.423700 2.589355 0
M  V30 39 H -3.377448 3.214799 2.690228 0
M  V30 40 H -5.238533 3.580820 1.037363 0
M  V30 41 H -5.498958 1.788541 0.933567 0
M  V30 42 H -4.613390 -0.136883 -0.406511 0
M  V30 43 H -3.748229 -0.261470 1.125022 0
M  V30 44 H -2.875830 -1.243931 -1.626129 0
M  V30 45 H -2.303097 -2.299013 1.204909 0
M  V30 46 H -1.913497 -4.478217 0.027914 0
M  V30 47 H -2.293795 -3.707770 -1.572178 0
M  V30 48 H -4.221483 -3.885650 0.862083 0
M  V30 49 H -4.598814 -3.119317 -0.745191 0
M  V30 END ATOM
M  V30 BEGIN BOND
M  V30 1 2 1 2
M  V30 2 1 2 3
M  V30 3 1 3 4
M  V30 4 2 4 5
M  V30 5 1 5 6
M  V30 6 1 6 7
M  V30 7 1 7 8
M  V30 8 1 8 9
M  V30 9 2 9 10
M  V30 10 1 10 11
M  V30 11 2 11 12
M  V30 12 2 6 13
M  V30 13 1 13 14
M  V30 14 1 2 15
M  V30 15 1 15 16
M  V30 16 1 16 17
M  V30 17 1 17 18
M  V30 18 1 18 19
M  V30 19 1 19 20
M  V30 20 1 17 21
M  V30 21 1 21 22
M  V30 22 1 22 23
M  V30 23 1 23 24
M  V30 24 1 24 25
M  V30 25 2 14 3
M  V30 26 1 22 15
M  V30 27 1 25 23
M  V30 28 1 12 8
M  V30 29 1 20 18
M  V30 30 1 4 26
M  V30 31 1 5 27
M  V30 32 1 7 28
M  V30 33 1 7 29
M  V30 34 1 9 30
M  V30 35 1 11 31
M  V30 36 1 13 32
M  V30 37 1 14 33
M  V30 38 1 16 34
M  V30 39 1 16 35
M  V30 40 1 17 36 CFG=3
M  V30 41 1 18 37
M  V30 42 1 19 38
M  V30 43 1 19 39
M  V30 44 1 20 40
M  V30 45 1 20 41
M  V30 46 1 21 42
M  V30 47 1 21 43
M  V30 48 1 22 44 CFG=3
M  V30 49 1 23 45
M  V30 50 1 24 46
M  V30 51 1 24 47
M  V30 52 1 25 48
M  V30 53 1 25 49
M  V30 END BOND
M  V30 BEGIN COLLECTION
M  V30 MDLV30/STERAC1 ATOMS=(2 17 22)
M  V30 END COLLECTION
M  V30 END CTAB
M  END
>  <_CXSMILES_Data>  (769) 
|&1:16,21|

$$$$
OCNT-2313789
     RDKit          3D

 42 45  0  0  0  0  0  0  0  0999 V2000
   -1.1937    0.9527    0.6928 O   0  0  0  0  0  0  0  0  0  0  0  0
   -0.6232    1.0731   -0.3878 C   0  0  0  0  0  0  0  0  0  0  0  0
   -1.1321    0.4931   -1.6198 C   0  0  0  0  0  0  0  0  0  0  0  0
   -0.4367    0.7534   -2.7825 C   0  0  0  0  0  0  0  0  0  0  0  0
    0.6922    1.4948   -2.9060 N   0  0  0  0  0  0  0  0  0  0  0  0
    1.1387    1.9725   -1.7903 C   0  0  0  0  0  0  0  0  0  0  0  0
    0.5703    1.7843   -0.5429 N   0  0  0  0  0  0  0  0  0  0  0  0
    1.1632    2.4198    0.6238 C   0  0  0  0  0  0  0  0  0  0  0  0
    1.7922    1.4485    1.6323 C   0  0  0  0  0  0  0  0  0  0  0  0
    3.0080    0.6754    1.1105 C   0  0  0  0  0  0  0  0  0  0  0  0
    3.8105    0.0375    2.2461 C   0  0  0  0  0  0  0  0  0  0  0  0
    4.3929   -1.2406    1.6566 C   0  0  0  0  0  0  0  0  0  0  0  0
    3.9135   -1.3195    0.2731 N   0  0  0  0  0  0  0  0  0  0  0  0
    2.6800   -0.5286    0.2377 C   0  0  0  0  0  0  0  0  0  0  0  0
   -1.1620    0.0221   -4.1410 S   0  0  0  0  0  0  0  0  0  0  0  0
   -2.4102   -0.6520   -3.1871 C   0  0  0  0  0  0  0  0  0  0  0  0
   -2.2875   -0.3277   -1.8485 C   0  0  0  0  0  0  0  0  0  0  0  0
   -3.2529   -0.8281   -0.8805 C   0  0  0  0  0  0  0  0  0  0  0  0
   -4.6016   -0.4581   -0.9708 C   0  0  0  0  0  0  0  0  0  0  0  0
   -5.5282   -0.9457   -0.0452 C   0  0  0  0  0  0  0  0  0  0  0  0
   -5.1072   -1.8031    0.9699 C   0  0  0  0  0  0  0  0  0  0  0  0
   -6.2487   -2.4030    2.1090 Cl  0  0  0  0  0  0  0  0  0  0  0  0
   -3.7687   -2.1780    1.0681 C   0  0  0  0  0  0  0  0  0  0  0  0
   -2.8415   -1.6914    0.1426 C   0  0  0  0  0  0  0  0  0  0  0  0
    2.0565    2.5822   -1.7889 H   0  0  0  0  0  0  0  0  0  0  0  0
    1.9158    3.1506    0.3053 H   0  0  0  0  0  0  0  0  0  0  0  0
    0.3702    2.9822    1.1324 H   0  0  0  0  0  0  0  0  0  0  0  0
    2.1085    2.0479    2.4963 H   0  0  0  0  0  0  0  0  0  0  0  0
    1.0391    0.7461    2.0082 H   0  0  0  0  0  0  0  0  0  0  0  0
    3.6700    1.3589    0.5608 H   0  0  0  0  0  0  0  0  0  0  0  0
    4.5946    0.7161    2.5987 H   0  0  0  0  0  0  0  0  0  0  0  0
    3.1691   -0.2084    3.1010 H   0  0  0  0  0  0  0  0  0  0  0  0
    5.4873   -1.2382    1.6877 H   0  0  0  0  0  0  0  0  0  0  0  0
    4.0477   -2.1141    2.2206 H   0  0  0  0  0  0  0  0  0  0  0  0
    4.6041   -0.8777   -0.3352 H   0  0  0  0  0  0  0  0  0  0  0  0
    2.4381   -0.2566   -0.7917 H   0  0  0  0  0  0  0  0  0  0  0  0
    1.8477   -1.1162    0.6427 H   0  0  0  0  0  0  0  0  0  0  0  0
   -3.1696   -1.2619   -3.6586 H   0  0  0  0  0  0  0  0  0  0  0  0
   -4.9384    0.2176   -1.7538 H   0  0  0  0  0  0  0  0  0  0  0  0
   -6.5712   -0.6506   -0.1197 H   0  0  0  0  0  0  0  0  0  0  0  0
   -3.4385   -2.8428    1.8616 H   0  0  0  0  0  0  0  0  0  0  0  0
   -1.7985   -1.9865    0.2311 H   0  0  0  0  0  0  0  0  0  0  0  0
  1  2  2  0
  2  3  1  0
  3  4  2  0
  4  5  1  0
  5  6  2  0
  6  7  1  0
  7  8  1  0
  8  9  1  0
  9 10  1  0
 10 11  1  0
 11 12  1  0
 12 13  1  0
 13 14  1  0
  4 15  1  0
 15 16  1  0
 16 17  2  0
 17 18  1  0
 18 19  1  0
 19 20  2  0
 20 21  1  0
 21 22  1  0
 21 23  2  0
 23 24  1  0
  7  2  1  0
 14 10  1  0
 24 18  2  0
 17  3  1  0
  6 25  1  0
  8 26  1  0
  8 27  1  0
  9 28  1  0
  9 29  1  0
 10 30  1  0
 11 31  1  0
 11 32  1  0
 12 33  1  0
 12 34  1  0
 13 35  1  0
 14 36  1  0
 14 37  1  0
 16 38  1  0
 19 39  1  0
 20 40  1  0
 23 41  1  0
 24 42  1  0
M  END
$$$$
OCNT-2313799
     RDKit          3D

 45 48  0  0  0  0  0  0  0  0999 V2000
    2.0188   -0.9889    2.0314 O   0  0  0  0  0  0  0  0  0  0  0  0
    2.2335   -0.3514    1.0097 C   0  0  0  0  0  0  0  0  0  0  0  0
    1.4098    0.6410    0.5157 N   0  0  0  0  0  0  0  0  0  0  0  0
    0.1795    1.0161    1.1866 C   0  0  0  0  0  0  0  0  0  0  0  0
   -1.0680    0.4471    0.4665 C   0  0  0  0  0  0  0  0  0  0  0  0
   -2.2952    0.8293    1.3440 C   0  0  0  0  0  0  0  0  0  0  0  0
   -3.6507    0.4168    0.8213 C   0  0  0  0  0  0  0  0  0  0  0  0
   -4.2042   -0.8230    1.1716 C   0  0  0  0  0  0  0  0  0  0  0  0
   -5.4605   -1.2019    0.6952 C   0  0  0  0  0  0  0  0  0  0  0  0
   -6.1827   -0.3425   -0.1293 C   0  0  0  0  0  0  0  0  0  0  0  0
   -5.6517    0.8985   -0.4731 C   0  0  0  0  0  0  0  0  0  0  0  0
   -4.3953    1.2782    0.0029 C   0  0  0  0  0  0  0  0  0  0  0  0
   -0.9832   -1.0518    0.0153 C   0  0  0  0  0  0  0  0  0  0  0  0
   -1.5277   -0.6437   -1.3648 C   0  0  0  0  0  0  0  0  0  0  0  0
   -1.1609    0.8175   -1.0530 C   0  0  0  0  0  0  0  0  0  0  0  0
    3.4202   -0.6502    0.1841 C   0  0  0  0  0  0  0  0  0  0  0  0
    3.7950   -1.9800   -0.0515 C   0  0  0  0  0  0  0  0  0  0  0  0
    4.8975   -2.2802   -0.8529 C   0  0  0  0  0  0  0  0  0  0  0  0
    5.6629   -1.2588   -1.4329 C   0  0  0  0  0  0  0  0  0  0  0  0
    5.3163    0.0805   -1.1789 C   0  0  0  0  0  0  0  0  0  0  0  0
    4.2155    0.3582   -0.3751 C   0  0  0  0  0  0  0  0  0  0  0  0
    4.1811    1.7239   -0.2713 N   0  0  0  0  0  0  0  0  0  0  0  0
    5.1139    2.3534   -1.0062 N   0  0  0  0  0  0  0  0  0  0  0  0
    5.8159    1.3509   -1.5418 C   0  0  0  0  0  0  0  0  0  0  0  0
    1.5524    0.9522   -0.4368 H   0  0  0  0  0  0  0  0  0  0  0  0
    0.1457    2.1112    1.1884 H   0  0  0  0  0  0  0  0  0  0  0  0
    0.2132    0.6744    2.2269 H   0  0  0  0  0  0  0  0  0  0  0  0
   -2.3058    1.9175    1.4961 H   0  0  0  0  0  0  0  0  0  0  0  0
   -2.1705    0.3984    2.3471 H   0  0  0  0  0  0  0  0  0  0  0  0
   -3.6594   -1.5042    1.8217 H   0  0  0  0  0  0  0  0  0  0  0  0
   -5.8759   -2.1677    0.9708 H   0  0  0  0  0  0  0  0  0  0  0  0
   -7.1610   -0.6375   -0.4990 H   0  0  0  0  0  0  0  0  0  0  0  0
   -6.2174    1.5734   -1.1100 H   0  0  0  0  0  0  0  0  0  0  0  0
   -4.0026    2.2551   -0.2690 H   0  0  0  0  0  0  0  0  0  0  0  0
   -1.5938   -1.7687    0.5694 H   0  0  0  0  0  0  0  0  0  0  0  0
    0.0216   -1.4794   -0.0547 H   0  0  0  0  0  0  0  0  0  0  0  0
   -1.0016   -1.0812   -2.2184 H   0  0  0  0  0  0  0  0  0  0  0  0
   -2.5991   -0.8215   -1.4980 H   0  0  0  0  0  0  0  0  0  0  0  0
   -0.2220    1.1209   -1.5283 H   0  0  0  0  0  0  0  0  0  0  0  0
   -1.9107    1.5610   -1.3344 H   0  0  0  0  0  0  0  0  0  0  0  0
    3.2138   -2.7877    0.3908 H   0  0  0  0  0  0  0  0  0  0  0  0
    5.1671   -3.3195   -1.0293 H   0  0  0  0  0  0  0  0  0  0  0  0
    6.5192   -1.5029   -2.0556 H   0  0  0  0  0  0  0  0  0  0  0  0
    3.5427    2.2847    0.2837 H   0  0  0  0  0  0  0  0  0  0  0  0
    6.6643    1.5830   -2.1727 H   0  0  0  0  0  0  0  0  0  0  0  0
  1  2  2  0
  2  3  1  0
  3  4  1  0
  4  5  1  0
  5  6  1  0
  6  7  1  0
  7  8  2  0
  8  9  1  0
  9 10  2  0
 10 11  1  0
 11 12  2  0
  5 13  1  0
 13 14  1  0
 14 15  1  0
  2 16  1  0
 16 17  1  0
 17 18  2  0
 18 19  1  0
 19 20  2  0
 20 21  1  0
 21 22  1  0
 22 23  1  0
 23 24  2  0
 15  5  1  0
 21 16  2  0
 12  7  1  0
 24 20  1  0
  3 25  1  0
  4 26  1  0
  4 27  1  0
  6 28  1  0
  6 29  1  0
  8 30  1  0
  9 31  1  0
 10 32  1  0
 11 33  1  0
 12 34  1  0
 13 35  1  0
 13 36  1  0
 14 37  1  0
 14 38  1  0
 15 39  1  0
 15 40  1  0
 17 41  1  0
 18 42  1  0
 19 43  1  0
 22 44  1  0
 24 45  1  0
M  END
$$$$
OCNT-2313808
     RDKit          3D

 45 48  0  0  0  0  0  0  0  0999 V2000
    1.5737   -1.2870    2.9727 O   0  0  0  0  0  0  0  0  0  0  0  0
    1.8139   -0.6948    1.9273 C   0  0  0  0  0  0  0  0  0  0  0  0
    0.9165    0.1099    1.2652 N   0  0  0  0  0  0  0  0  0  0  0  0
   -0.4483    0.3122    1.7010 C   0  0  0  0  0  0  0  0  0  0  0  0
   -1.3267   -0.6513    0.9046 C   0  0  0  0  0  0  0  0  0  0  0  0
   -1.3067   -2.1298    1.3813 C   0  0  0  0  0  0  0  0  0  0  0  0
   -2.8259   -2.0930    1.1462 C   0  0  0  0  0  0  0  0  0  0  0  0
   -2.7578   -0.6241    1.3204 N   0  0  0  0  0  0  0  0  0  0  0  0
   -3.6859    0.1062    0.4383 C   0  0  0  0  0  0  0  0  0  0  0  0
   -3.5817    1.6273    0.6731 C   0  0  0  0  0  0  0  0  0  0  0  0
   -2.9519    2.3258   -0.5206 C   0  0  0  0  0  0  0  0  0  0  0  0
   -3.6989    2.1466   -1.7237 O   0  0  0  0  0  0  0  0  0  0  0  0
   -4.3999    0.9079   -1.8270 C   0  0  0  0  0  0  0  0  0  0  0  0
   -3.7119   -0.2197   -1.0703 C   0  0  0  0  0  0  0  0  0  0  0  0
    3.1044   -0.7822    1.2380 C   0  0  0  0  0  0  0  0  0  0  0  0
    4.1835   -1.5097    1.7038 C   0  0  0  0  0  0  0  0  0  0  0  0
    5.5028   -1.3671    0.6234 S   0  0  0  0  0  0  0  0  0  0  0  0
    4.5573   -0.3541   -0.3895 C   0  0  0  0  0  0  0  0  0  0  0  0
    5.0973    0.2569   -1.7183 C   0  0  0  0  0  0  0  0  0  0  0  0
    4.3640    1.0707   -2.5493 C   0  0  0  0  0  0  0  0  0  0  0  0
    5.1091    1.4402   -3.6246 O   0  0  0  0  0  0  0  0  0  0  0  0
    6.3279    0.8572   -3.4769 C   0  0  0  0  0  0  0  0  0  0  0  0
    6.3725    0.1166   -2.3173 C   0  0  0  0  0  0  0  0  0  0  0  0
    3.3297   -0.1195    0.0256 N   0  0  0  0  0  0  0  0  0  0  0  0
    1.2385    0.5082    0.3876 H   0  0  0  0  0  0  0  0  0  0  0  0
   -0.5310    0.1524    2.7812 H   0  0  0  0  0  0  0  0  0  0  0  0
   -0.6972    1.3530    1.4768 H   0  0  0  0  0  0  0  0  0  0  0  0
   -1.1486   -0.5645   -0.1735 H   0  0  0  0  0  0  0  0  0  0  0  0
   -1.0315   -2.2786    2.4321 H   0  0  0  0  0  0  0  0  0  0  0  0
   -0.7413   -2.8277    0.7587 H   0  0  0  0  0  0  0  0  0  0  0  0
   -3.1090   -2.4643    0.1558 H   0  0  0  0  0  0  0  0  0  0  0  0
   -3.4253   -2.6139    1.8985 H   0  0  0  0  0  0  0  0  0  0  0  0
   -4.6824   -0.1658    0.8174 H   0  0  0  0  0  0  0  0  0  0  0  0
   -3.0352    1.8653    1.5925 H   0  0  0  0  0  0  0  0  0  0  0  0
   -4.5966    2.0235    0.8144 H   0  0  0  0  0  0  0  0  0  0  0  0
   -1.9315    1.9666   -0.6943 H   0  0  0  0  0  0  0  0  0  0  0  0
   -2.8847    3.4027   -0.3353 H   0  0  0  0  0  0  0  0  0  0  0  0
   -4.4738    0.6604   -2.8908 H   0  0  0  0  0  0  0  0  0  0  0  0
   -5.4217    1.0585   -1.4596 H   0  0  0  0  0  0  0  0  0  0  0  0
   -4.2466   -1.1591   -1.2485 H   0  0  0  0  0  0  0  0  0  0  0  0
   -2.7040   -0.3342   -1.4786 H   0  0  0  0  0  0  0  0  0  0  0  0
    4.2472   -2.0999    2.6080 H   0  0  0  0  0  0  0  0  0  0  0  0
    3.3557    1.4591   -2.5196 H   0  0  0  0  0  0  0  0  0  0  0  0
    7.0404    1.0612   -4.2644 H   0  0  0  0  0  0  0  0  0  0  0  0
    7.2214   -0.4483   -1.9593 H   0  0  0  0  0  0  0  0  0  0  0  0
  1  2  2  0
  2  3  1  0
  3  4  1  0
  4  5  1  0
  5  6  1  0
  6  7  1  0
  7  8  1  0
  8  9  1  0
  9 10  1  0
 10 11  1  0
 11 12  1  0
 12 13  1  0
 13 14  1  0
  2 15  1  0
 15 16  2  0
 16 17  1  0
 17 18  1  0
 18 19  1  0
 19 20  2  0
 20 21  1  0
 21 22  1  0
 22 23  2  0
 18 24  2  0
  8  5  1  0
 14  9  1  0
 24 15  1  0
 23 19  1  0
  3 25  1  0
  4 26  1  0
  4 27  1  0
  5 28  1  0
  6 29  1  0
  6 30  1  0
  7 31  1  0
  7 32  1  0
  9 33  1  0
 10 34  1  0
 10 35  1  0
 11 36  1  0
 11 37  1  0
 13 38  1  0
 13 39  1  0
 14 40  1  0
 14 41  1  0
 16 42  1  0
 20 43  1  0
 22 44  1  0
 23 45  1  0
M  END
$$$$
OCNT-2313826
     RDKit          3D

  0  0  0  0  0  0  0  0  0  0999 V3000
M  V30 BEGIN CTAB
M  V30 COUNTS 43 45 0 0 0
M  V30 BEGIN ATOM
M  V30 1 C 6.912904 -0.851349 0.486670 0
M  V30 2 O 5.536035 -0.558932 0.250213 0
M  V30 3 C 4.698696 -1.005171 1.227746 0
M  V30 4 O 5.067475 -1.600960 2.232507 0
M  V30 5 C 3.326632 -0.626459 0.946983 0
M  V30 6 C 2.314323 -0.549178 1.889265 0
M  V30 7 C 1.154489 -0.054369 1.259348 0
M  V30 8 C 1.439772 0.145433 -0.083747 0
M  V30 9 C 0.594826 0.703579 -1.132511 0
M  V30 10 O 1.026356 1.102142 -2.210715 0
M  V30 11 N -0.750026 0.748498 -0.833746 0
M  V30 12 C -1.757001 1.249956 -1.785085 0 CFG=1
M  V30 13 C -2.282808 0.183224 -2.769178 0
M  V30 14 C -3.687215 0.785663 -2.588086 0
M  V30 15 C -3.214216 1.369164 -1.227810 0 CFG=1
M  V30 16 C -3.579678 0.620107 0.141419 0
M  V30 17 C -3.937609 -0.740457 0.216012 0
M  V30 18 C -4.218534 -1.368993 1.433616 0
M  V30 19 C -4.148860 -0.650648 2.621701 0
M  V30 20 C -3.800948 0.694161 2.590519 0
M  V30 21 C -3.522887 1.313928 1.369033 0
M  V30 22 N 2.748625 -0.291267 -0.268755 0
M  V30 23 C 3.379936 -0.442631 -1.568062 0
M  V30 24 H 7.257190 -0.364836 1.404871 0
M  V30 25 H 7.491198 -0.454518 -0.352163 0
M  V30 26 H 7.072790 -1.932674 0.535526 0
M  V30 27 H 2.430121 -0.780553 2.942027 0
M  V30 28 H 0.219528 0.168351 1.758679 0
M  V30 29 H -1.049156 0.313005 0.028877 0
M  V30 30 H -1.428119 2.174258 -2.278431 0
M  V30 31 H -1.878471 0.239081 -3.783578 0
M  V30 32 H -2.196294 -0.850470 -2.415524 0
M  V30 33 H -3.927670 1.557598 -3.329548 0
M  V30 34 H -4.511747 0.069049 -2.565131 0
M  V30 35 H -3.519094 2.423662 -1.144551 0
M  V30 36 H -3.997511 -1.334810 -0.693404 0
M  V30 37 H -4.492814 -2.420818 1.449552 0
M  V30 38 H -4.368509 -1.137095 3.568446 0
M  V30 39 H -3.746983 1.265268 3.513929 0
M  V30 40 H -3.249930 2.368708 1.369039 0
M  V30 41 H 2.627816 -0.706957 -2.314693 0
M  V30 42 H 3.874539 0.497791 -1.821150 0
M  V30 43 H 4.092830 -1.269477 -1.535432 0
M  V30 END ATOM
M  V30 BEGIN BOND
M  V30 1 1 1 2
M  V30 2 1 2 3
M  V30 3 2 3 4
M  V30 4 1 3 5
M  V30 5 2 5 6
M  V30 6 1 6 7
M  V30 7 2 7 8
M  V30 8 1 8 9
M  V30 9 2 9 10
M  V30 10 1 9 11
M  V30 11 1 11 12
M  V30 12 1 12 13
M  V30 13 1 13 14
M  V30 14 1 14 15
M  V30 15 1 15 16
M  V30 16 2 16 17
M  V30 17 1 17 18
M  V30 18 2 18 19
M  V30 19 1 19 20
M  V30 20 2 20 21
M  V30 21 1 8 22
M  V30 22 1 22 23
M  V30 23 1 22 5
M  V30 24 1 15 12
M  V30 25 1 21 16
M  V30 26 1 1 24
M  V30 27 1 1 25
M  V30 28 1 1 26
M  V30 29 1 6 27
M  V30 30 1 7 28
M  V30 31 1 11 29
M  V30 32 1 12 30 CFG=3
M  V30 33 1 13 31
M  V30 34 1 13 32
M  V30 35 1 14 33
M  V30 36 1 14 34
M  V30 37 1 15 35 CFG=1
M  V30 38 1 17 36
M  V30 39 1 18 37
M  V30 40 1 19 38
M  V30 41 1 20 39
M  V30 42 1 21 40
M  V30 43 1 23 41
M  V30 44 1 23 42
M  V30 45 1 23 43
M  V30 END BOND
M  V30 BEGIN COLLECTION
M  V30 MDLV30/STERAC1 ATOMS=(2 12 15)
M  V30 END COLLECTION
M  V30 END CTAB
M  END
>  <_CXSMILES_Data>  (773) 
|&1:11,14|

$$$$
OCNT-2313861
     RDKit          3D

 53 54  0  0  0  0  0  0  0  0999 V2000
   -5.8220   -1.6862   -0.2380 C   0  0  0  0  0  0  0  0  0  0  0  0
   -4.4750   -1.5620    0.4645 C   0  0  0  0  0  0  0  0  0  0  0  0
   -3.6065   -2.7849    0.1766 C   0  0  0  0  0  0  0  0  0  0  0  0
   -3.7351   -0.3676   -0.0137 N   0  0  0  0  0  0  0  0  0  0  0  0
   -4.3112    1.1295    0.4844 S   0  0  0  0  0  0  0  0  0  0  0  0
   -4.6890    1.0394    1.8728 O   0  0  0  0  0  0  0  0  0  0  0  0
   -5.2192    1.5825   -0.5404 O   0  0  0  0  0  0  0  0  0  0  0  0
   -2.8927    2.0068    0.3690 N   0  0  0  0  0  0  0  0  0  0  0  0
   -2.4471    2.4111   -0.9873 C   0  0  0  0  0  0  0  0  0  0  0  0
   -0.9729    2.8512   -0.9800 C   0  0  0  0  0  0  0  0  0  0  0  0
   -0.0601    1.7568   -0.5817 N   0  0  0  0  0  0  0  0  0  0  0  0
    1.3066    2.2734   -0.3475 C   0  0  0  0  0  0  0  0  0  0  0  0
    2.4029    1.2696   -0.7852 C   0  0  0  0  0  0  0  0  0  0  0  0
    2.1059    0.8335   -2.1174 O   0  0  0  0  0  0  0  0  0  0  0  0
    2.5400    0.0404    0.1202 C   0  0  0  0  0  0  0  0  0  0  0  0
    3.7196   -0.8629   -0.2616 C   0  0  0  0  0  0  0  0  0  0  0  0
    5.0931   -0.2151   -0.0897 C   0  0  0  0  0  0  0  0  0  0  0  0
    6.0685   -1.3863    0.0124 C   0  0  0  0  0  0  0  0  0  0  0  0
    5.2312   -2.6137    0.3695 C   0  0  0  0  0  0  0  0  0  0  0  0
    3.8278   -2.0901    0.6426 C   0  0  0  0  0  0  0  0  0  0  0  0
   -0.6026    1.0080    0.5783 C   0  0  0  0  0  0  0  0  0  0  0  0
   -1.7951    1.6609    1.3071 C   0  0  0  0  0  0  0  0  0  0  0  0
   -6.4822   -0.8514    0.0180 H   0  0  0  0  0  0  0  0  0  0  0  0
   -5.7055   -1.6941   -1.3274 H   0  0  0  0  0  0  0  0  0  0  0  0
   -6.3306   -2.6102    0.0567 H   0  0  0  0  0  0  0  0  0  0  0  0
   -4.6182   -1.5024    1.5488 H   0  0  0  0  0  0  0  0  0  0  0  0
   -3.4168   -2.8972   -0.8968 H   0  0  0  0  0  0  0  0  0  0  0  0
   -2.6349   -2.6965    0.6753 H   0  0  0  0  0  0  0  0  0  0  0  0
   -4.0890   -3.7000    0.5358 H   0  0  0  0  0  0  0  0  0  0  0  0
   -3.6484   -0.3563   -1.0298 H   0  0  0  0  0  0  0  0  0  0  0  0
   -2.5723    1.5854   -1.6967 H   0  0  0  0  0  0  0  0  0  0  0  0
   -3.0681    3.2488   -1.3231 H   0  0  0  0  0  0  0  0  0  0  0  0
   -0.8589    3.7117   -0.3067 H   0  0  0  0  0  0  0  0  0  0  0  0
   -0.7048    3.1870   -1.9888 H   0  0  0  0  0  0  0  0  0  0  0  0
    1.4541    3.1597   -0.9802 H   0  0  0  0  0  0  0  0  0  0  0  0
    1.4531    2.6054    0.6875 H   0  0  0  0  0  0  0  0  0  0  0  0
    3.3554    1.8085   -0.8252 H   0  0  0  0  0  0  0  0  0  0  0  0
    1.1322    0.7340   -2.1314 H   0  0  0  0  0  0  0  0  0  0  0  0
    1.6327   -0.5713    0.0518 H   0  0  0  0  0  0  0  0  0  0  0  0
    2.6445    0.3642    1.1629 H   0  0  0  0  0  0  0  0  0  0  0  0
    3.6074   -1.1994   -1.3011 H   0  0  0  0  0  0  0  0  0  0  0  0
    5.3491    0.4484   -0.9218 H   0  0  0  0  0  0  0  0  0  0  0  0
    5.1312    0.3765    0.8335 H   0  0  0  0  0  0  0  0  0  0  0  0
    6.5840   -1.5474   -0.9414 H   0  0  0  0  0  0  0  0  0  0  0  0
    6.8358   -1.1885    0.7690 H   0  0  0  0  0  0  0  0  0  0  0  0
    5.2150   -3.3085   -0.4787 H   0  0  0  0  0  0  0  0  0  0  0  0
    5.6386   -3.1538    1.2301 H   0  0  0  0  0  0  0  0  0  0  0  0
    3.7342   -1.8083    1.6985 H   0  0  0  0  0  0  0  0  0  0  0  0
    3.0609   -2.8393    0.4229 H   0  0  0  0  0  0  0  0  0  0  0  0
   -0.9237    0.0315    0.1960 H   0  0  0  0  0  0  0  0  0  0  0  0
    0.1718    0.7982    1.3244 H   0  0  0  0  0  0  0  0  0  0  0  0
   -2.1406    0.9883    2.0994 H   0  0  0  0  0  0  0  0  0  0  0  0
   -1.4729    2.5828    1.8064 H   0  0  0  0  0  0  0  0  0  0  0  0
  1  2  1  0
  2  3  1  0
  2  4  1  0
  4  5  1  0
  5  6  2  0
  5  7  2  0
  5  8  1  0
  8  9  1  0
  9 10  1  0
 10 11  1  0
 11 12  1  0
 12 13  1  0
 13 14  1  0
 13 15  1  0
 15 16  1  0
 16 17  1  0
 17 18  1  0
 18 19  1  0
 19 20  1  0
 11 21  1  0
 21 22  1  0
 22  8  1  0
 20 16  1  0
  1 23  1  0
  1 24  1  0
  1 25  1  0
  2 26  1  0
  3 27  1  0
  3 28  1  0
  3 29  1  0
  4 30  1  0
  9 31  1  0
  9 32  1  0
 10 33  1  0
 10 34  1  0
 12 35  1  0
 12 36  1  0
 13 37  1  0
 14 38  1  0
 15 39  1  0
 15 40  1  0
 16 41  1  0
 17 42  1  0
 17 43  1  0
 18 44  1  0
 18 45  1  0
 19 46  1  0
 19 47  1  0
 20 48  1  0
 20 49  1  0
 21 50  1  0
 21 51  1  0
 22 52  1  0
 22 53  1  0
M  END
$$$$
OCNT-2313871
     RDKit          3D

 60 62  0  0  0  0  0  0  0  0999 V2000
   -3.2600   -1.1768   -4.0174 C   0  0  0  0  0  0  0  0  0  0  0  0
   -3.1456   -1.6047   -2.5584 C   0  0  0  0  0  0  0  0  0  0  0  0
   -4.3924   -2.3141   -2.0366 C   0  0  0  0  0  0  0  0  0  0  0  0
   -2.6286   -0.5423   -1.7394 O   0  0  0  0  0  0  0  0  0  0  0  0
   -3.4692    0.2591   -1.0176 C   0  0  0  0  0  0  0  0  0  0  0  0
   -4.5691    0.8902   -1.6143 C   0  0  0  0  0  0  0  0  0  0  0  0
   -5.3928    1.7447   -0.8783 C   0  0  0  0  0  0  0  0  0  0  0  0
   -5.1007    1.9910    0.4612 C   0  0  0  0  0  0  0  0  0  0  0  0
   -6.1228    3.0891    1.4102 S   0  0  0  0  0  0  0  0  0  0  0  0
   -6.7763    2.0639    2.7037 C   0  0  0  0  0  0  0  0  0  0  0  0
   -7.2357    3.4852    0.5658 O   0  0  0  0  0  0  0  0  0  0  0  0
   -5.2431    4.0803    1.9971 O   0  0  0  0  0  0  0  0  0  0  0  0
   -3.9860    1.4055    1.0648 C   0  0  0  0  0  0  0  0  0  0  0  0
   -3.1597    0.5344    0.3319 C   0  0  0  0  0  0  0  0  0  0  0  0
   -2.0004   -0.0529    1.0800 C   0  0  0  0  0  0  0  0  0  0  0  0
   -1.9197    0.0933    2.2979 O   0  0  0  0  0  0  0  0  0  0  0  0
   -1.0564   -0.7329    0.3521 N   0  0  0  0  0  0  0  0  0  0  0  0
    0.1361   -1.3029    0.9509 C   0  0  0  0  0  0  0  0  0  0  0  0
    1.2268   -0.2420    1.2015 C   0  0  0  0  0  0  0  0  0  0  0  0
    2.5134   -0.8088    1.6501 N   0  0  0  0  0  0  0  0  0  0  0  0
    3.4448    0.2585    2.0821 C   0  0  0  0  0  0  0  0  0  0  0  0
    4.3669    0.8395    0.9831 C   0  0  0  0  0  0  0  0  0  0  0  0
    5.0938   -0.2239    0.2799 N   0  0  0  0  0  0  0  0  0  0  0  0
    6.4215   -0.0039   -0.0300 C   0  0  0  0  0  0  0  0  0  0  0  0
    7.2163   -1.0611   -0.2749 N   0  0  0  0  0  0  0  0  0  0  0  0
    8.5036   -0.8214   -0.5919 C   0  0  0  0  0  0  0  0  0  0  0  0
    9.0395    0.4359   -0.6833 C   0  0  0  0  0  0  0  0  0  0  0  0
    8.1620    1.4558   -0.4303 C   0  0  0  0  0  0  0  0  0  0  0  0
    6.8695    1.2620   -0.1070 N   0  0  0  0  0  0  0  0  0  0  0  0
    4.6730   -1.6004    0.5322 C   0  0  0  0  0  0  0  0  0  0  0  0
    3.1300   -1.6628    0.6050 C   0  0  0  0  0  0  0  0  0  0  0  0
   -4.1239   -0.5312   -4.1929 H   0  0  0  0  0  0  0  0  0  0  0  0
   -2.3693   -0.6192   -4.3271 H   0  0  0  0  0  0  0  0  0  0  0  0
   -3.3719   -2.0478   -4.6680 H   0  0  0  0  0  0  0  0  0  0  0  0
   -2.3454   -2.3538   -2.5304 H   0  0  0  0  0  0  0  0  0  0  0  0
   -4.2731   -2.5792   -0.9817 H   0  0  0  0  0  0  0  0  0  0  0  0
   -4.5764   -3.2304   -2.6050 H   0  0  0  0  0  0  0  0  0  0  0  0
   -5.2886   -1.6957   -2.1230 H   0  0  0  0  0  0  0  0  0  0  0  0
   -4.8002    0.7473   -2.6636 H   0  0  0  0  0  0  0  0  0  0  0  0
   -6.2427    2.2224   -1.3638 H   0  0  0  0  0  0  0  0  0  0  0  0
   -5.9590    1.7118    3.3352 H   0  0  0  0  0  0  0  0  0  0  0  0
   -7.3151    1.2264    2.2546 H   0  0  0  0  0  0  0  0  0  0  0  0
   -7.4642    2.6701    3.2998 H   0  0  0  0  0  0  0  0  0  0  0  0
   -3.7412    1.6382    2.1013 H   0  0  0  0  0  0  0  0  0  0  0  0
   -1.1629   -0.7668   -0.6623 H   0  0  0  0  0  0  0  0  0  0  0  0
   -0.1385   -1.7903    1.8943 H   0  0  0  0  0  0  0  0  0  0  0  0
    0.4792   -2.0757    0.2563 H   0  0  0  0  0  0  0  0  0  0  0  0
    1.3683    0.3641    0.2956 H   0  0  0  0  0  0  0  0  0  0  0  0
    0.8468    0.4425    1.9714 H   0  0  0  0  0  0  0  0  0  0  0  0
    4.0846   -0.1783    2.8610 H   0  0  0  0  0  0  0  0  0  0  0  0
    2.9086    1.0738    2.5840 H   0  0  0  0  0  0  0  0  0  0  0  0
    3.7674    1.4008    0.2539 H   0  0  0  0  0  0  0  0  0  0  0  0
    5.0398    1.5535    1.4761 H   0  0  0  0  0  0  0  0  0  0  0  0
    9.1070   -1.7060   -0.7798 H   0  0  0  0  0  0  0  0  0  0  0  0
   10.0754    0.6096   -0.9411 H   0  0  0  0  0  0  0  0  0  0  0  0
    8.4746    2.4939   -0.4779 H   0  0  0  0  0  0  0  0  0  0  0  0
    5.1130   -1.9730    1.4657 H   0  0  0  0  0  0  0  0  0  0  0  0
    4.9917   -2.2635   -0.2803 H   0  0  0  0  0  0  0  0  0  0  0  0
    2.7537   -1.3802   -0.3880 H   0  0  0  0  0  0  0  0  0  0  0  0
    2.8235   -2.7005    0.7800 H   0  0  0  0  0  0  0  0  0  0  0  0
  1  2  1  0
  2  3  1  0
  2  4  1  0
  4  5  1  0
  5  6  1  0
  6  7  2  0
  7  8  1  0
  8  9  1  0
  9 10  1  0
  9 11  2  0
  9 12  2  0
  8 13  2  0
 13 14  1  0
 14 15  1  0
 15 16  2  0
 15 17  1  0
 17 18  1  0
 18 19  1  0
 19 20  1  0
 20 21  1  0
 21 22  1  0
 22 23  1  0
 23 24  1  0
 24 25  2  0
 25 26  1  0
 26 27  2  0
 27 28  1  0
 28 29  2  0
 23 30  1  0
 30 31  1  0
 14  5  2  0
 31 20  1  0
 29 24  1  0
  1 32  1  0
  1 33  1  0
  1 34  1  0
  2 35  1  0
  3 36  1  0
  3 37  1  0
  3 38  1  0
  6 39  1  0
  7 40  1  0
 10 41  1  0
 10 42  1  0
 10 43  1  0
 13 44  1  0
 17 45  1  0
 18 46  1  0
 18 47  1  0
 19 48  1  0
 19 49  1  0
 21 50  1  0
 21 51  1  0
 22 52  1  0
 22 53  1  0
 26 54  1  0
 27 55  1  0
 28 56  1  0
 30 57  1  0
 30 58  1  0
 31 59  1  0
 31 60  1  0
M  END
$$$$
OCNT-2313891
     RDKit          3D

 52 54  0  0  0  0  0  0  0  0999 V2000
   -3.1414    1.2845    0.4381 C   0  0  0  0  0  0  0  0  0  0  0  0
   -3.3751   -0.1634    0.6013 N   0  0  0  0  0  0  0  0  0  0  0  0
   -4.6590   -0.4984    1.2657 C   0  0  0  0  0  0  0  0  0  0  0  0
   -5.9117    0.0460    0.6201 C   0  0  0  0  0  0  0  0  0  0  0  0
   -6.5031   -0.6169   -0.4643 C   0  0  0  0  0  0  0  0  0  0  0  0
   -7.6560   -0.1080   -1.0647 C   0  0  0  0  0  0  0  0  0  0  0  0
   -8.2328    1.0666   -0.5867 C   0  0  0  0  0  0  0  0  0  0  0  0
   -7.6576    1.7344    0.4920 C   0  0  0  0  0  0  0  0  0  0  0  0
   -6.5033    1.2281    1.0924 C   0  0  0  0  0  0  0  0  0  0  0  0
   -2.9594   -1.1424   -0.7242 S   0  0  0  0  0  0  0  0  0  0  0  0
   -3.5080   -0.5470   -1.9236 O   0  0  0  0  0  0  0  0  0  0  0  0
   -3.2321   -2.5225   -0.3808 O   0  0  0  0  0  0  0  0  0  0  0  0
   -1.1906   -0.9684   -0.7802 C   0  0  0  0  0  0  0  0  0  0  0  0
   -0.4174   -1.5790    0.2088 C   0  0  0  0  0  0  0  0  0  0  0  0
    0.9734   -1.4548    0.1670 C   0  0  0  0  0  0  0  0  0  0  0  0
    1.5961   -0.7275   -0.8571 C   0  0  0  0  0  0  0  0  0  0  0  0
    2.9968   -0.6513   -0.8252 N   0  0  0  0  0  0  0  0  0  0  0  0
    3.8451    0.0459   -1.6664 C   0  0  0  0  0  0  0  0  0  0  0  0
    3.5217    0.7423   -2.6239 O   0  0  0  0  0  0  0  0  0  0  0  0
    5.3258   -0.1825   -1.3168 C   0  0  0  0  0  0  0  0  0  0  0  0
    5.4910   -0.5319    0.1233 N   0  0  0  0  0  0  0  0  0  0  0  0
    6.8506   -1.0374    0.3820 C   0  0  0  0  0  0  0  0  0  0  0  0
    7.7336    0.1901    0.5334 C   0  0  0  0  0  0  0  0  0  0  0  0
    6.7938    1.2926    0.9979 C   0  0  0  0  0  0  0  0  0  0  0  0
    5.4028    0.6726    0.9742 C   0  0  0  0  0  0  0  0  0  0  0  0
    0.8085   -0.1326   -1.8467 C   0  0  0  0  0  0  0  0  0  0  0  0
   -0.5849   -0.2542   -1.8147 C   0  0  0  0  0  0  0  0  0  0  0  0
   -2.0854    1.4846    0.2386 H   0  0  0  0  0  0  0  0  0  0  0  0
   -3.7454    1.7004   -0.3731 H   0  0  0  0  0  0  0  0  0  0  0  0
   -3.3893    1.8127    1.3647 H   0  0  0  0  0  0  0  0  0  0  0  0
   -4.5986   -0.1288    2.2987 H   0  0  0  0  0  0  0  0  0  0  0  0
   -4.7554   -1.5843    1.3865 H   0  0  0  0  0  0  0  0  0  0  0  0
   -6.0665   -1.5341   -0.8558 H   0  0  0  0  0  0  0  0  0  0  0  0
   -8.0994   -0.6283   -1.9098 H   0  0  0  0  0  0  0  0  0  0  0  0
   -9.1292    1.4615   -1.0574 H   0  0  0  0  0  0  0  0  0  0  0  0
   -8.1077    2.6509    0.8644 H   0  0  0  0  0  0  0  0  0  0  0  0
   -6.0687    1.7638    1.9332 H   0  0  0  0  0  0  0  0  0  0  0  0
   -0.8897   -2.1498    1.0052 H   0  0  0  0  0  0  0  0  0  0  0  0
    1.5642   -1.9356    0.9431 H   0  0  0  0  0  0  0  0  0  0  0  0
    3.4878   -1.1152   -0.0627 H   0  0  0  0  0  0  0  0  0  0  0  0
    5.6526   -1.0208   -1.9442 H   0  0  0  0  0  0  0  0  0  0  0  0
    5.8980    0.7084   -1.5989 H   0  0  0  0  0  0  0  0  0  0  0  0
    7.2147   -1.7256   -0.3884 H   0  0  0  0  0  0  0  0  0  0  0  0
    6.8375   -1.5987    1.3249 H   0  0  0  0  0  0  0  0  0  0  0  0
    8.5464    0.0201    1.2463 H   0  0  0  0  0  0  0  0  0  0  0  0
    8.1827    0.4648   -0.4282 H   0  0  0  0  0  0  0  0  0  0  0  0
    6.8551    2.1488    0.3168 H   0  0  0  0  0  0  0  0  0  0  0  0
    7.0526    1.6433    2.0023 H   0  0  0  0  0  0  0  0  0  0  0  0
    5.1292    0.3550    1.9883 H   0  0  0  0  0  0  0  0  0  0  0  0
    4.6359    1.3859    0.6533 H   0  0  0  0  0  0  0  0  0  0  0  0
    1.2517    0.4277   -2.6648 H   0  0  0  0  0  0  0  0  0  0  0  0
   -1.1800    0.2087   -2.5990 H   0  0  0  0  0  0  0  0  0  0  0  0
  1  2  1  0
  2  3  1  0
  3  4  1  0
  4  5  2  0
  5  6  1  0
  6  7  2  0
  7  8  1  0
  8  9  2  0
  2 10  1  0
 10 11  2  0
 10 12  2  0
 10 13  1  0
 13 14  1  0
 14 15  2  0
 15 16  1  0
 16 17  1  0
 17 18  1  0
 18 19  2  0
 18 20  1  0
 20 21  1  0
 21 22  1  0
 22 23  1  0
 23 24  1  0
 24 25  1  0
 16 26  2  0
 26 27  1  0
  9  4  1  0
 27 13  2  0
 25 21  1  0
  1 28  1  0
  1 29  1  0
  1 30  1  0
  3 31  1  0
  3 32  1  0
  5 33  1  0
  6 34  1  0
  7 35  1  0
  8 36  1  0
  9 37  1  0
 14 38  1  0
 15 39  1  0
 17 40  1  0
 20 41  1  0
 20 42  1  0
 22 43  1  0
 22 44  1  0
 23 45  1  0
 23 46  1  0
 24 47  1  0
 24 48  1  0
 25 49  1  0
 25 50  1  0
 26 51  1  0
 27 52  1  0
M  END
$$$$
OCNT-2313919
     RDKit          3D

 36 37  0  0  0  0  0  0  0  0999 V2000
   -2.3779   -2.8501   -1.7982 C   0  0  0  0  0  0  0  0  0  0  0  0
   -1.5596   -1.7487   -1.2037 C   0  0  0  0  0  0  0  0  0  0  0  0
   -2.0689   -0.5718   -0.6639 C   0  0  0  0  0  0  0  0  0  0  0  0
   -3.4695   -0.1618   -0.5630 C   0  0  0  0  0  0  0  0  0  0  0  0
   -4.4036   -0.8367   -0.9926 O   0  0  0  0  0  0  0  0  0  0  0  0
   -3.7018    1.0452    0.0665 N   0  0  0  0  0  0  0  0  0  0  0  0
   -5.0457    1.4559    0.4277 C   0  0  0  0  0  0  0  0  0  0  0  0
   -5.4334    0.8916    1.7844 C   0  0  0  0  0  0  0  0  0  0  0  0
   -4.6823    0.4350    2.6324 O   0  0  0  0  0  0  0  0  0  0  0  0
   -6.7563    0.9918    2.0291 O   0  0  0  0  0  0  0  0  0  0  0  0
   -0.8088    0.4377   -0.0825 S   0  0  0  0  0  0  0  0  0  0  0  0
    0.3998   -0.6545   -0.5282 C   0  0  0  0  0  0  0  0  0  0  0  0
    1.7448   -0.4130   -0.3157 N   0  0  0  0  0  0  0  0  0  0  0  0
    2.3035    0.6897    0.3008 C   0  0  0  0  0  0  0  0  0  0  0  0
    1.7154    1.6686    0.7474 O   0  0  0  0  0  0  0  0  0  0  0  0
    3.7964    0.7064    0.3715 C   0  0  0  0  0  0  0  0  0  0  0  0
    4.4090    1.9662    0.2195 C   0  0  0  0  0  0  0  0  0  0  0  0
    5.7977    2.0954    0.2664 C   0  0  0  0  0  0  0  0  0  0  0  0
    6.5787    0.9676    0.4731 C   0  0  0  0  0  0  0  0  0  0  0  0
    7.9112    1.0871    0.5187 F   0  0  0  0  0  0  0  0  0  0  0  0
    5.9992   -0.2841    0.6395 C   0  0  0  0  0  0  0  0  0  0  0  0
    4.6067   -0.4193    0.5940 C   0  0  0  0  0  0  0  0  0  0  0  0
    3.9798   -2.0089    0.8561 Cl  0  0  0  0  0  0  0  0  0  0  0  0
   -0.1264   -1.7810   -1.1166 C   0  0  0  0  0  0  0  0  0  0  0  0
   -3.0737   -3.2557   -1.0568 H   0  0  0  0  0  0  0  0  0  0  0  0
   -2.9476   -2.4844   -2.6584 H   0  0  0  0  0  0  0  0  0  0  0  0
   -1.7421   -3.6719   -2.1438 H   0  0  0  0  0  0  0  0  0  0  0  0
   -2.9257    1.4341    0.5906 H   0  0  0  0  0  0  0  0  0  0  0  0
   -5.7561    1.1097   -0.3286 H   0  0  0  0  0  0  0  0  0  0  0  0
   -5.0565    2.5476    0.4843 H   0  0  0  0  0  0  0  0  0  0  0  0
   -6.8622    0.5914    2.9178 H   0  0  0  0  0  0  0  0  0  0  0  0
    2.3670   -1.1534   -0.6171 H   0  0  0  0  0  0  0  0  0  0  0  0
    3.7982    2.8553    0.0627 H   0  0  0  0  0  0  0  0  0  0  0  0
    6.2695    3.0664    0.1473 H   0  0  0  0  0  0  0  0  0  0  0  0
    6.6431   -1.1416    0.8129 H   0  0  0  0  0  0  0  0  0  0  0  0
    0.4782   -2.6059   -1.4739 H   0  0  0  0  0  0  0  0  0  0  0  0
  1  2  1  0
  2  3  2  0
  3  4  1  0
  4  5  2  0
  4  6  1  0
  6  7  1  0
  7  8  1  0
  8  9  2  0
  8 10  1  0
  3 11  1  0
 11 12  1  0
 12 13  1  0
 13 14  1  0
 14 15  2  0
 14 16  1  0
 16 17  1  0
 17 18  2  0
 18 19  1  0
 19 20  1  0
 19 21  2  0
 21 22  1  0
 22 23  1  0
 12 24  2  0
 24  2  1  0
 22 16  2  0
  1 25  1  0
  1 26  1  0
  1 27  1  0
  6 28  1  0
  7 29  1  0
  7 30  1  0
 10 31  1  0
 13 32  1  0
 17 33  1  0
 18 34  1  0
 21 35  1  0
 24 36  1  0
M  END
$$$$
OCNT-2313933
     RDKit          3D

 37 41  0  0  0  0  0  0  0  0999 V2000
   -3.6143    0.8633    0.8554 C   0  0  0  0  0  0  0  0  0  0  0  0
   -4.8680    0.2802    1.0634 C   0  0  0  0  0  0  0  0  0  0  0  0
   -5.3377   -0.5857    0.1010 C   0  0  0  0  0  0  0  0  0  0  0  0
   -4.6092   -0.8773   -1.0280 C   0  0  0  0  0  0  0  0  0  0  0  0
   -3.3700   -0.3183   -1.2612 C   0  0  0  0  0  0  0  0  0  0  0  0
   -2.8586    0.5765   -0.3069 C   0  0  0  0  0  0  0  0  0  0  0  0
   -1.4990    1.2100   -0.4992 C   0  0  0  0  0  0  0  0  0  0  0  0
   -0.5562    0.5863    0.4094 N   0  0  0  0  0  0  0  0  0  0  0  0
    0.7702    0.9958    0.2739 C   0  0  0  0  0  0  0  0  0  0  0  0
    1.0670    2.2315   -0.2143 N   0  0  0  0  0  0  0  0  0  0  0  0
    2.3607    2.6103   -0.3106 C   0  0  0  0  0  0  0  0  0  0  0  0
    3.4594    1.9041    0.0122 N   0  0  0  0  0  0  0  0  0  0  0  0
    3.1220    0.6885    0.4824 C   0  0  0  0  0  0  0  0  0  0  0  0
    1.8479    0.1740    0.6433 C   0  0  0  0  0  0  0  0  0  0  0  0
    1.9213   -1.1000    1.1516 N   0  0  0  0  0  0  0  0  0  0  0  0
    3.2072   -1.3993    1.3207 N   0  0  0  0  0  0  0  0  0  0  0  0
    3.9233   -0.3330    0.9135 N   0  0  0  0  0  0  0  0  0  0  0  0
    5.3982   -0.2807    0.9729 C   0  0  0  0  0  0  0  0  0  0  0  0
    6.2660   -1.4765    0.6545 C   0  0  0  0  0  0  0  0  0  0  0  0
    6.2518   -0.2989   -0.2740 C   0  0  0  0  0  0  0  0  0  0  0  0
   -5.2490   -1.7556   -1.8460 O   0  0  0  0  0  0  0  0  0  0  0  0
   -6.4631   -1.9843   -1.1006 C   0  0  0  0  0  0  0  0  0  0  0  0
   -6.5275   -1.2431    0.1352 O   0  0  0  0  0  0  0  0  0  0  0  0
   -3.2107    1.5427    1.6051 H   0  0  0  0  0  0  0  0  0  0  0  0
   -5.4485    0.4972    1.9528 H   0  0  0  0  0  0  0  0  0  0  0  0
   -2.8171   -0.5720   -2.1593 H   0  0  0  0  0  0  0  0  0  0  0  0
   -1.5848    2.2872   -0.3073 H   0  0  0  0  0  0  0  0  0  0  0  0
   -1.1778    1.0848   -1.5413 H   0  0  0  0  0  0  0  0  0  0  0  0
   -0.6378   -0.4241    0.4877 H   0  0  0  0  0  0  0  0  0  0  0  0
    2.5327    3.6105   -0.6989 H   0  0  0  0  0  0  0  0  0  0  0  0
    5.7357    0.3576    1.7840 H   0  0  0  0  0  0  0  0  0  0  0  0
    5.7857   -2.3913    0.3240 H   0  0  0  0  0  0  0  0  0  0  0  0
    7.1478   -1.6372    1.2642 H   0  0  0  0  0  0  0  0  0  0  0  0
    7.1236    0.3451   -0.2974 H   0  0  0  0  0  0  0  0  0  0  0  0
    5.7633   -0.4161   -1.2350 H   0  0  0  0  0  0  0  0  0  0  0  0
   -6.5378   -3.0538   -0.8722 H   0  0  0  0  0  0  0  0  0  0  0  0
   -7.3169   -1.6983   -1.7257 H   0  0  0  0  0  0  0  0  0  0  0  0
  1  2  2  0
  2  3  1  0
  3  4  2  0
  4  5  1  0
  5  6  2  0
  6  7  1  0
  7  8  1  0
  8  9  1  0
  9 10  1  0
 10 11  2  0
 11 12  1  0
 12 13  2  0
 13 14  1  0
 14 15  1  0
 15 16  2  0
 16 17  1  0
 17 18  1  0
 18 19  1  0
 19 20  1  0
  4 21  1  0
 21 22  1  0
 22 23  1  0
  6  1  1  0
 14  9  2  0
 20 18  1  0
 23  3  1  0
 17 13  1  0
  1 24  1  0
  2 25  1  0
  5 26  1  0
  7 27  1  0
  7 28  1  0
  8 29  1  0
 11 30  1  0
 18 31  1  0
 19 32  1  0
 19 33  1  0
 20 34  1  0
 20 35  1  0
 22 36  1  0
 22 37  1  0
M  END
$$$$
OCNT-2313944
     RDKit          3D

 58 61  0  0  0  0  0  0  0  0999 V2000
    7.6979    1.0751    0.9713 C   0  0  0  0  0  0  0  0  0  0  0  0
    6.3421    0.6375    0.7511 N   0  0  0  0  0  0  0  0  0  0  0  0
    5.8958    0.3150   -0.5135 C   0  0  0  0  0  0  0  0  0  0  0  0
    6.6059    0.4236   -1.5095 O   0  0  0  0  0  0  0  0  0  0  0  0
    4.4683   -0.2270   -0.5769 C   0  0  0  0  0  0  0  0  0  0  0  0
    4.3963   -1.5969    0.1144 C   0  0  0  0  0  0  0  0  0  0  0  0
    3.9559   -0.3174   -2.0286 C   0  0  0  0  0  0  0  0  0  0  0  0
    2.4430   -0.2084   -1.8983 C   0  0  0  0  0  0  0  0  0  0  0  0
    2.2288    0.5531   -0.6798 N   0  0  0  0  0  0  0  0  0  0  0  0
    1.0596    1.1045   -0.2218 C   0  0  0  0  0  0  0  0  0  0  0  0
    1.0083    1.8058    0.7841 O   0  0  0  0  0  0  0  0  0  0  0  0
   -0.0458    0.8108   -0.9739 N   0  0  0  0  0  0  0  0  0  0  0  0
   -1.3780    1.2064   -0.5318 C   0  0  0  0  0  0  0  0  0  0  0  0
   -1.9224    0.3175    0.6078 C   0  0  0  0  0  0  0  0  0  0  0  0
   -2.0413   -1.1711    0.2719 C   0  0  0  0  0  0  0  0  0  0  0  0
   -2.6225   -1.5879   -0.9461 C   0  0  0  0  0  0  0  0  0  0  0  0
   -2.7284   -2.9410   -1.2789 C   0  0  0  0  0  0  0  0  0  0  0  0
   -2.2536   -3.9069   -0.3990 C   0  0  0  0  0  0  0  0  0  0  0  0
   -2.3739   -5.5721   -0.8122 Cl  0  0  0  0  0  0  0  0  0  0  0  0
   -1.6794   -3.5327    0.8107 C   0  0  0  0  0  0  0  0  0  0  0  0
   -1.5744   -2.1773    1.1465 C   0  0  0  0  0  0  0  0  0  0  0  0
   -0.8319   -1.8265    2.6717 Cl  0  0  0  0  0  0  0  0  0  0  0  0
   -3.2781    0.7213    1.1509 C   0  0  0  0  0  0  0  0  0  0  0  0
   -3.5793    0.7559    2.5047 C   0  0  0  0  0  0  0  0  0  0  0  0
   -4.8704    1.1662    2.6647 N   0  0  0  0  0  0  0  0  0  0  0  0
   -5.4403    1.4202    1.4413 C   0  0  0  0  0  0  0  0  0  0  0  0
   -6.7346    1.8645    1.1398 C   0  0  0  0  0  0  0  0  0  0  0  0
   -7.0645    2.0509   -0.2032 C   0  0  0  0  0  0  0  0  0  0  0  0
   -6.1313    1.8055   -1.2041 C   0  0  0  0  0  0  0  0  0  0  0  0
   -4.8406    1.3639   -0.8836 C   0  0  0  0  0  0  0  0  0  0  0  0
   -4.4720    1.1578    0.4660 C   0  0  0  0  0  0  0  0  0  0  0  0
    3.4766    0.7695    0.0340 C   0  0  0  0  0  0  0  0  0  0  0  0
    8.0102    1.7632    0.1804 H   0  0  0  0  0  0  0  0  0  0  0  0
    8.3527    0.1993    0.9724 H   0  0  0  0  0  0  0  0  0  0  0  0
    7.7473    1.5754    1.9416 H   0  0  0  0  0  0  0  0  0  0  0  0
    5.7983    0.3642    1.5608 H   0  0  0  0  0  0  0  0  0  0  0  0
    4.6800   -1.5327    1.1700 H   0  0  0  0  0  0  0  0  0  0  0  0
    5.0796   -2.3091   -0.3621 H   0  0  0  0  0  0  0  0  0  0  0  0
    3.3886   -2.0239    0.0764 H   0  0  0  0  0  0  0  0  0  0  0  0
    4.3227    0.5286   -2.6240 H   0  0  0  0  0  0  0  0  0  0  0  0
    4.2615   -1.2338   -2.5431 H   0  0  0  0  0  0  0  0  0  0  0  0
    1.9836    0.2926   -2.7559 H   0  0  0  0  0  0  0  0  0  0  0  0
    1.9788   -1.1920   -1.7707 H   0  0  0  0  0  0  0  0  0  0  0  0
    0.0121   -0.0185   -1.5431 H   0  0  0  0  0  0  0  0  0  0  0  0
   -2.0029    1.1798   -1.4264 H   0  0  0  0  0  0  0  0  0  0  0  0
   -1.3352    2.2508   -0.1984 H   0  0  0  0  0  0  0  0  0  0  0  0
   -1.2033    0.4400    1.4258 H   0  0  0  0  0  0  0  0  0  0  0  0
   -3.0142   -0.8633   -1.6554 H   0  0  0  0  0  0  0  0  0  0  0  0
   -3.1868   -3.2304   -2.2225 H   0  0  0  0  0  0  0  0  0  0  0  0
   -1.3113   -4.2939    1.4948 H   0  0  0  0  0  0  0  0  0  0  0  0
   -2.9705    0.5195    3.3686 H   0  0  0  0  0  0  0  0  0  0  0  0
   -5.3409    1.2802    3.5522 H   0  0  0  0  0  0  0  0  0  0  0  0
   -7.4617    2.0606    1.9216 H   0  0  0  0  0  0  0  0  0  0  0  0
   -8.0617    2.3948   -0.4678 H   0  0  0  0  0  0  0  0  0  0  0  0
   -6.4029    1.9590   -2.2462 H   0  0  0  0  0  0  0  0  0  0  0  0
   -4.1432    1.1886   -1.6943 H   0  0  0  0  0  0  0  0  0  0  0  0
    3.3273    0.6298    1.1106 H   0  0  0  0  0  0  0  0  0  0  0  0
    3.7762    1.8115   -0.1356 H   0  0  0  0  0  0  0  0  0  0  0  0
  1  2  1  0
  2  3  1  0
  3  4  2  0
  3  5  1  0
  5  6  1  0
  5  7  1  0
  7  8  1  0
  8  9  1  0
  9 10  1  0
 10 11  2  0
 10 12  1  0
 12 13  1  0
 13 14  1  0
 14 15  1  0
 15 16  1  0
 16 17  2  0
 17 18  1  0
 18 19  1  0
 18 20  2  0
 20 21  1  0
 21 22  1  0
 14 23  1  0
 23 24  2  0
 24 25  1  0
 25 26  1  0
 26 27  2  0
 27 28  1  0
 28 29  2  0
 29 30  1  0
 30 31  2  0
  9 32  1  0
 32  5  1  0
 21 15  2  0
 31 23  1  0
 31 26  1  0
  1 33  1  0
  1 34  1  0
  1 35  1  0
  2 36  1  0
  6 37  1  0
  6 38  1  0
  6 39  1  0
  7 40  1  0
  7 41  1  0
  8 42  1  0
  8 43  1  0
 12 44  1  0
 13 45  1  0
 13 46  1  0
 14 47  1  0
 16 48  1  0
 17 49  1  0
 20 50  1  0
 24 51  1  0
 25 52  1  0
 27 53  1  0
 28 54  1  0
 29 55  1  0
 30 56  1  0
 32 57  1  0
 32 58  1  0
M  END
$$$$
OCNT-2313982
     RDKit          3D

 47 48  0  0  0  0  0  0  0  0999 V2000
   -2.5349   -3.7700    0.1640 C   0  0  0  0  0  0  0  0  0  0  0  0
   -2.8256   -2.5045    0.9134 C   0  0  0  0  0  0  0  0  0  0  0  0
   -1.7321   -1.7509    1.2167 N   0  0  0  0  0  0  0  0  0  0  0  0
   -1.8976   -0.5859    1.8789 C   0  0  0  0  0  0  0  0  0  0  0  0
   -0.7845    0.2367    2.1748 N   0  0  0  0  0  0  0  0  0  0  0  0
    0.2044   -0.5515    2.9257 C   0  0  0  0  0  0  0  0  0  0  0  0
   -0.2259    0.7748    0.9101 C   0  0  0  0  0  0  0  0  0  0  0  0
    0.3633    2.1790    1.1578 C   0  0  0  0  0  0  0  0  0  0  0  0
    0.9839    2.7627   -0.0429 N   0  0  0  0  0  0  0  0  0  0  0  0
    0.0987    3.4604   -0.9701 C   0  0  0  0  0  0  0  0  0  0  0  0
    2.2514    2.2808   -0.3921 C   0  0  0  0  0  0  0  0  0  0  0  0
    2.9215    1.6031    0.3902 O   0  0  0  0  0  0  0  0  0  0  0  0
    2.7974    2.6763   -1.7597 C   0  0  0  0  0  0  0  0  0  0  0  0
    3.8999    1.7278   -2.2248 C   0  0  0  0  0  0  0  0  0  0  0  0
    3.3636    0.3648   -2.5353 C   0  0  0  0  0  0  0  0  0  0  0  0
    2.1461    0.0586   -2.9456 N   0  0  0  0  0  0  0  0  0  0  0  0
    2.1157   -1.3074   -3.0299 C   0  0  0  0  0  0  0  0  0  0  0  0
    3.3551   -1.8390   -2.7438 C   0  0  0  0  0  0  0  0  0  0  0  0
    4.1398   -0.7622   -2.4374 N   0  0  0  0  0  0  0  0  0  0  0  0
   -3.1571   -0.1316    2.2674 C   0  0  0  0  0  0  0  0  0  0  0  0
   -4.2817   -0.8921    1.9694 C   0  0  0  0  0  0  0  0  0  0  0  0
   -4.1088   -2.0911    1.2741 C   0  0  0  0  0  0  0  0  0  0  0  0
   -5.2824   -2.8817    0.9584 N   0  0  0  0  0  0  0  0  0  0  0  0
   -5.3518   -3.3868   -0.1692 O   0  0  0  0  0  0  0  0  0  0  0  0
   -6.1541   -2.9833    1.8436 O   0  0  0  0  0  0  0  0  0  0  0  0
   -3.0256   -4.6224    0.6351 H   0  0  0  0  0  0  0  0  0  0  0  0
   -2.8640   -3.6723   -0.8770 H   0  0  0  0  0  0  0  0  0  0  0  0
   -1.4596   -3.9743    0.1485 H   0  0  0  0  0  0  0  0  0  0  0  0
    1.0565    0.0822    3.1997 H   0  0  0  0  0  0  0  0  0  0  0  0
    0.5964   -1.4041    2.3502 H   0  0  0  0  0  0  0  0  0  0  0  0
   -0.2295   -0.9224    3.8615 H   0  0  0  0  0  0  0  0  0  0  0  0
    0.5414    0.0965    0.4960 H   0  0  0  0  0  0  0  0  0  0  0  0
   -1.0113    0.8727    0.1358 H   0  0  0  0  0  0  0  0  0  0  0  0
    1.1184    2.1277    1.9499 H   0  0  0  0  0  0  0  0  0  0  0  0
   -0.4206    2.8570    1.5240 H   0  0  0  0  0  0  0  0  0  0  0  0
    0.6661    4.1439   -1.6073 H   0  0  0  0  0  0  0  0  0  0  0  0
   -0.4160    2.7239   -1.5880 H   0  0  0  0  0  0  0  0  0  0  0  0
   -0.6317    4.0512   -0.4080 H   0  0  0  0  0  0  0  0  0  0  0  0
    1.9893    2.6903   -2.5115 H   0  0  0  0  0  0  0  0  0  0  0  0
    3.2087    3.6890   -1.6717 H   0  0  0  0  0  0  0  0  0  0  0  0
    4.6983    1.6610   -1.4716 H   0  0  0  0  0  0  0  0  0  0  0  0
    4.3588    2.1328   -3.1414 H   0  0  0  0  0  0  0  0  0  0  0  0
    1.2041   -1.8357   -3.3120 H   0  0  0  0  0  0  0  0  0  0  0  0
    3.7241   -2.8577   -2.7095 H   0  0  0  0  0  0  0  0  0  0  0  0
    5.1111   -0.7837   -2.1498 H   0  0  0  0  0  0  0  0  0  0  0  0
   -3.2524    0.8041    2.8091 H   0  0  0  0  0  0  0  0  0  0  0  0
   -5.2670   -0.5466    2.2699 H   0  0  0  0  0  0  0  0  0  0  0  0
  1  2  1  0
  2  3  1  0
  3  4  2  0
  4  5  1  0
  5  6  1  0
  5  7  1  0
  7  8  1  0
  8  9  1  0
  9 10  1  0
  9 11  1  0
 11 12  2  0
 11 13  1  0
 13 14  1  0
 14 15  1  0
 15 16  2  0
 16 17  1  0
 17 18  2  0
 18 19  1  0
  4 20  1  0
 20 21  2  0
 21 22  1  0
 22 23  1  0
 23 24  2  0
 23 25  1  0
 22  2  2  0
 19 15  1  0
  1 26  1  0
  1 27  1  0
  1 28  1  0
  6 29  1  0
  6 30  1  0
  6 31  1  0
  7 32  1  0
  7 33  1  0
  8 34  1  0
  8 35  1  0
 10 36  1  0
 10 37  1  0
 10 38  1  0
 13 39  1  0
 13 40  1  0
 14 41  1  0
 14 42  1  0
 17 43  1  0
 18 44  1  0
 19 45  1  0
 20 46  1  0
 21 47  1  0
M  CHG  2  23   1  25  -1
M  END
$$$$
OCNT-2313984
     RDKit          3D

 45 47  0  0  0  0  0  0  0  0999 V2000
    6.6361    0.6785   -0.3282 C   0  0  0  0  0  0  0  0  0  0  0  0
    5.2342    0.4389    0.1475 C   0  0  0  0  0  0  0  0  0  0  0  0
    4.8991   -0.7550    0.7952 C   0  0  0  0  0  0  0  0  0  0  0  0
    3.6014   -0.9659    1.2680 C   0  0  0  0  0  0  0  0  0  0  0  0
    2.6161    0.0160    1.1069 C   0  0  0  0  0  0  0  0  0  0  0  0
    1.2054   -0.2104    1.6122 C   0  0  0  0  0  0  0  0  0  0  0  0
    0.1820   -0.8410    0.6038 C   0  0  0  0  0  0  0  0  0  0  0  0
    0.6602   -2.2449    0.1785 C   0  0  0  0  0  0  0  0  0  0  0  0
   -1.1517   -0.9882    1.3642 C   0  0  0  0  0  0  0  0  0  0  0  0
    0.0706    0.0618   -0.5680 N   0  0  0  0  0  0  0  0  0  0  0  0
   -0.9509   -0.2657   -1.5756 C   0  0  0  0  0  0  0  0  0  0  0  0
   -2.3401    0.2861   -1.2971 C   0  0  0  0  0  0  0  0  0  0  0  0
   -2.4916    1.6337   -0.9488 C   0  0  0  0  0  0  0  0  0  0  0  0
   -3.7654    2.1542   -0.7102 C   0  0  0  0  0  0  0  0  0  0  0  0
   -4.8530    1.2808   -0.8417 C   0  0  0  0  0  0  0  0  0  0  0  0
   -6.2635    1.3802   -0.6970 C   0  0  0  0  0  0  0  0  0  0  0  0
   -6.8005    0.1389   -0.9704 C   0  0  0  0  0  0  0  0  0  0  0  0
   -5.7640   -0.7069   -1.2754 N   0  0  0  0  0  0  0  0  0  0  0  0
   -4.5764   -0.0323   -1.2021 C   0  0  0  0  0  0  0  0  0  0  0  0
   -3.3744   -0.5835   -1.4454 N   0  0  0  0  0  0  0  0  0  0  0  0
    2.9606    1.2193    0.4777 C   0  0  0  0  0  0  0  0  0  0  0  0
    4.2578    1.4302    0.0050 C   0  0  0  0  0  0  0  0  0  0  0  0
    6.6446    1.3376   -1.2027 H   0  0  0  0  0  0  0  0  0  0  0  0
    7.2280    1.1396    0.4684 H   0  0  0  0  0  0  0  0  0  0  0  0
    7.1136   -0.2610   -0.6257 H   0  0  0  0  0  0  0  0  0  0  0  0
    5.6483   -1.5305    0.9380 H   0  0  0  0  0  0  0  0  0  0  0  0
    3.3671   -1.9036    1.7666 H   0  0  0  0  0  0  0  0  0  0  0  0
    0.8146    0.7531    1.9711 H   0  0  0  0  0  0  0  0  0  0  0  0
    1.2654   -0.8389    2.5124 H   0  0  0  0  0  0  0  0  0  0  0  0
    1.5474   -2.1977   -0.4622 H   0  0  0  0  0  0  0  0  0  0  0  0
   -0.1122   -2.7905   -0.3740 H   0  0  0  0  0  0  0  0  0  0  0  0
    0.9137   -2.8532    1.0545 H   0  0  0  0  0  0  0  0  0  0  0  0
   -1.5661   -0.0119    1.6397 H   0  0  0  0  0  0  0  0  0  0  0  0
   -1.9016   -1.5314    0.7808 H   0  0  0  0  0  0  0  0  0  0  0  0
   -1.0104   -1.5540    2.2930 H   0  0  0  0  0  0  0  0  0  0  0  0
    0.9776    0.0585   -1.0392 H   0  0  0  0  0  0  0  0  0  0  0  0
   -0.6337    0.1897   -2.5229 H   0  0  0  0  0  0  0  0  0  0  0  0
   -1.0004   -1.3413   -1.7733 H   0  0  0  0  0  0  0  0  0  0  0  0
   -1.6186    2.2727   -0.8527 H   0  0  0  0  0  0  0  0  0  0  0  0
   -3.9023    3.1931   -0.4319 H   0  0  0  0  0  0  0  0  0  0  0  0
   -6.8248    2.2636   -0.4226 H   0  0  0  0  0  0  0  0  0  0  0  0
   -7.8229   -0.2140   -0.9744 H   0  0  0  0  0  0  0  0  0  0  0  0
   -5.8354   -1.6833   -1.5195 H   0  0  0  0  0  0  0  0  0  0  0  0
    2.2154    2.0029    0.3538 H   0  0  0  0  0  0  0  0  0  0  0  0
    4.5005    2.3759   -0.4739 H   0  0  0  0  0  0  0  0  0  0  0  0
  1  2  1  0
  2  3  1  0
  3  4  2  0
  4  5  1  0
  5  6  1  0
  6  7  1  0
  7  8  1  0
  7  9  1  0
  7 10  1  0
 10 11  1  0
 11 12  1  0
 12 13  1  0
 13 14  2  0
 14 15  1  0
 15 16  1  0
 16 17  2  0
 17 18  1  0
 18 19  1  0
 19 20  1  0
  5 21  2  0
 21 22  1  0
 22  2  2  0
 20 12  2  0
 19 15  2  0
  1 23  1  0
  1 24  1  0
  1 25  1  0
  3 26  1  0
  4 27  1  0
  6 28  1  0
  6 29  1  0
  8 30  1  0
  8 31  1  0
  8 32  1  0
  9 33  1  0
  9 34  1  0
  9 35  1  0
 10 36  1  0
 11 37  1  0
 11 38  1  0
 13 39  1  0
 14 40  1  0
 16 41  1  0
 17 42  1  0
 18 43  1  0
 21 44  1  0
 22 45  1  0
M  END
$$$$
OCNT-2313985
     RDKit          3D

  0  0  0  0  0  0  0  0  0  0999 V3000
M  V30 BEGIN CTAB
M  V30 COUNTS 50 53 0 0 0
M  V30 BEGIN ATOM
M  V30 1 O -1.735033 -1.042663 1.464501 0
M  V30 2 C -1.414085 -0.324768 0.527978 0
M  V30 3 N -0.134926 -0.066632 0.084852 0
M  V30 4 C 1.078243 -0.500267 0.658168 0
M  V30 5 C 1.165067 -1.132997 1.891148 0
M  V30 6 C 2.410423 -1.514558 2.367123 0
M  V30 7 F 2.500762 -2.131046 3.554100 0
M  V30 8 C 3.574290 -1.273627 1.639328 0
M  V30 9 C 3.535227 -0.629464 0.397548 0
M  V30 10 N 4.684656 -0.384174 -0.333182 0
M  V30 11 C 6.019564 -0.372883 0.292610 0
M  V30 12 C 6.946791 0.603967 -0.452679 0
M  V30 13 O 7.122478 0.301732 -1.844330 0
M  V30 14 C 5.999045 -0.374681 -2.424871 0
M  V30 15 C 4.653337 -0.032359 -1.763548 0
M  V30 16 C 2.259671 -0.252111 -0.067029 0
M  V30 17 N -2.335827 0.338422 -0.262577 0
M  V30 18 C -3.769176 0.289376 0.049767 0 CFG=2
M  V30 19 C -4.333378 -1.142880 0.046832 0
M  V30 20 C -5.736647 -1.009792 -0.530965 0
M  V30 21 C -5.562590 0.029401 -1.628433 0
M  V30 22 C -4.574551 1.039361 -1.046667 0 CFG=1
M  V30 23 C -5.245543 2.203284 -0.318313 0
M  V30 24 N -4.380353 2.433572 0.837064 0
M  V30 25 C -4.096386 1.078024 1.336081 0
M  V30 26 H -0.083335 0.354805 -0.830117 0
M  V30 27 H 0.297064 -1.343975 2.504487 0
M  V30 28 H 4.506715 -1.626463 2.066511 0
M  V30 29 H 5.969900 -0.049191 1.339699 0
M  V30 30 H 6.435770 -1.386249 0.254272 0
M  V30 31 H 7.938659 0.608553 0.010620 0
M  V30 32 H 6.552562 1.626055 -0.385630 0
M  V30 33 H 6.192288 -1.452827 -2.360050 0
M  V30 34 H 5.972281 -0.112530 -3.488344 0
M  V30 35 H 4.453255 1.041573 -1.862193 0
M  V30 36 H 3.869865 -0.590232 -2.289975 0
M  V30 37 H 2.176073 0.267992 -1.017070 0
M  V30 38 H -2.023446 1.263692 -0.526739 0
M  V30 39 H -4.347315 -1.598982 1.042349 0
M  V30 40 H -3.737987 -1.793912 -0.607424 0
M  V30 41 H -6.434914 -0.649916 0.233974 0
M  V30 42 H -6.115264 -1.960294 -0.918986 0
M  V30 43 H -6.512086 0.479545 -1.932536 0
M  V30 44 H -5.121082 -0.448049 -2.512918 0
M  V30 45 H -3.927763 1.432992 -1.841070 0
M  V30 46 H -6.261728 1.954535 0.010007 0
M  V30 47 H -5.302104 3.094445 -0.951986 0
M  V30 48 H -4.869190 2.975257 1.550685 0
M  V30 49 H -3.275417 1.101317 2.058042 0
M  V30 50 H -4.983862 0.679621 1.843627 0
M  V30 END ATOM
M  V30 BEGIN BOND
M  V30 1 2 1 2
M  V30 2 1 2 3
M  V30 3 1 3 4
M  V30 4 1 4 5
M  V30 5 2 5 6
M  V30 6 1 6 7
M  V30 7 1 6 8
M  V30 8 2 8 9
M  V30 9 1 9 10
M  V30 10 1 10 11
M  V30 11 1 11 12
M  V30 12 1 12 13
M  V30 13 1 13 14
M  V30 14 1 14 15
M  V30 15 1 9 16
M  V30 16 1 2 17
M  V30 17 1 18 17 CFG=3
M  V30 18 1 18 19
M  V30 19 1 19 20
M  V30 20 1 20 21
M  V30 21 1 21 22
M  V30 22 1 22 23
M  V30 23 1 23 24
M  V30 24 1 24 25
M  V30 25 2 16 4
M  V30 26 1 22 18
M  V30 27 1 15 10
M  V30 28 1 25 18
M  V30 29 1 3 26
M  V30 30 1 5 27
M  V30 31 1 8 28
M  V30 32 1 11 29
M  V30 33 1 11 30
M  V30 34 1 12 31
M  V30 35 1 12 32
M  V30 36 1 14 33
M  V30 37 1 14 34
M  V30 38 1 15 35
M  V30 39 1 15 36
M  V30 40 1 16 37
M  V30 41 1 17 38
M  V30 42 1 19 39
M  V30 43 1 19 40
M  V30 44 1 20 41
M  V30 45 1 20 42
M  V30 46 1 21 43
M  V30 47 1 21 44
M  V30 48 1 22 45 CFG=3
M  V30 49 1 23 46
M  V30 50 1 23 47
M  V30 51 1 24 48
M  V30 52 1 25 49
M  V30 53 1 25 50
M  V30 END BOND
M  V30 BEGIN COLLECTION
M  V30 MDLV30/STERAC1 ATOMS=(2 18 22)
M  V30 END COLLECTION
M  V30 END CTAB
M  END
>  <_CXSMILES_Data>  (782) 
|&1:17,21|

$$$$
OCNT-2313994
     RDKit          3D

 45 47  0  0  0  0  0  0  0  0999 V2000
   -6.0533   -2.0760    0.9211 C   0  0  0  0  0  0  0  0  0  0  0  0
   -5.7086   -1.7219   -0.5158 C   0  0  0  0  0  0  0  0  0  0  0  0
   -4.3007   -1.8155   -0.7405 O   0  0  0  0  0  0  0  0  0  0  0  0
   -3.5828   -0.6713   -0.4476 C   0  0  0  0  0  0  0  0  0  0  0  0
   -2.2330   -0.7269   -0.6987 C   0  0  0  0  0  0  0  0  0  0  0  0
   -1.4941    0.4028   -0.4066 C   0  0  0  0  0  0  0  0  0  0  0  0
   -0.1016    0.4060   -0.6610 N   0  0  0  0  0  0  0  0  0  0  0  0
    0.4797    1.7571   -0.6025 C   0  0  0  0  0  0  0  0  0  0  0  0
    1.9308    1.7089   -1.0815 C   0  0  0  0  0  0  0  0  0  0  0  0
    2.7600    0.7108   -0.2574 C   0  0  0  0  0  0  0  0  0  0  0  0
    4.1985    0.6457   -0.7985 C   0  0  0  0  0  0  0  0  0  0  0  0
    5.1168   -0.1574    0.0574 C   0  0  0  0  0  0  0  0  0  0  0  0
    5.8115   -1.3067   -0.2544 C   0  0  0  0  0  0  0  0  0  0  0  0
    6.5050   -1.6269    0.8794 N   0  0  0  0  0  0  0  0  0  0  0  0
    6.2141   -0.6815    1.8200 C   0  0  0  0  0  0  0  0  0  0  0  0
    5.3797    0.2184    1.3545 N   0  0  0  0  0  0  0  0  0  0  0  0
    2.0731   -0.6653   -0.2775 C   0  0  0  0  0  0  0  0  0  0  0  0
    0.6154   -0.5709    0.1759 C   0  0  0  0  0  0  0  0  0  0  0  0
   -2.0929    1.5053    0.0804 N   0  0  0  0  0  0  0  0  0  0  0  0
   -3.4188    1.4596    0.3050 C   0  0  0  0  0  0  0  0  0  0  0  0
   -4.0716    2.6999    0.8284 C   0  0  0  0  0  0  0  0  0  0  0  0
   -4.2044    0.4025    0.0571 N   0  0  0  0  0  0  0  0  0  0  0  0
   -7.1374   -2.0879    1.0662 H   0  0  0  0  0  0  0  0  0  0  0  0
   -5.6171   -1.3605    1.6246 H   0  0  0  0  0  0  0  0  0  0  0  0
   -5.6523   -3.0615    1.1800 H   0  0  0  0  0  0  0  0  0  0  0  0
   -6.1752   -2.4627   -1.1753 H   0  0  0  0  0  0  0  0  0  0  0  0
   -6.1225   -0.7511   -0.8140 H   0  0  0  0  0  0  0  0  0  0  0  0
   -1.7846   -1.6107   -1.1289 H   0  0  0  0  0  0  0  0  0  0  0  0
    0.4432    2.1584    0.4192 H   0  0  0  0  0  0  0  0  0  0  0  0
   -0.0692    2.4426   -1.2609 H   0  0  0  0  0  0  0  0  0  0  0  0
    1.9540    1.4231   -2.1413 H   0  0  0  0  0  0  0  0  0  0  0  0
    2.3690    2.7114   -1.0092 H   0  0  0  0  0  0  0  0  0  0  0  0
    2.7860    1.0664    0.7822 H   0  0  0  0  0  0  0  0  0  0  0  0
    4.1965    0.2425   -1.8192 H   0  0  0  0  0  0  0  0  0  0  0  0
    4.6085    1.6615   -0.8670 H   0  0  0  0  0  0  0  0  0  0  0  0
    5.8704   -1.9010   -1.1550 H   0  0  0  0  0  0  0  0  0  0  0  0
    7.1241   -2.4157    1.0044 H   0  0  0  0  0  0  0  0  0  0  0  0
    6.6369   -0.7000    2.8156 H   0  0  0  0  0  0  0  0  0  0  0  0
    2.6012   -1.3678    0.3771 H   0  0  0  0  0  0  0  0  0  0  0  0
    2.1098   -1.0812   -1.2929 H   0  0  0  0  0  0  0  0  0  0  0  0
    0.5701   -0.2750    1.2326 H   0  0  0  0  0  0  0  0  0  0  0  0
    0.1782   -1.5729    0.0951 H   0  0  0  0  0  0  0  0  0  0  0  0
   -4.9519    2.4487    1.4280 H   0  0  0  0  0  0  0  0  0  0  0  0
   -4.3829    3.3330   -0.0075 H   0  0  0  0  0  0  0  0  0  0  0  0
   -3.3775    3.2637    1.4591 H   0  0  0  0  0  0  0  0  0  0  0  0
  1  2  1  0
  2  3  1  0
  3  4  1  0
  4  5  2  0
  5  6  1  0
  6  7  1  0
  7  8  1  0
  8  9  1  0
  9 10  1  0
 10 11  1  0
 11 12  1  0
 12 13  2  0
 13 14  1  0
 14 15  1  0
 15 16  2  0
 10 17  1  0
 17 18  1  0
  6 19  2  0
 19 20  1  0
 20 21  1  0
 20 22  2  0
 22  4  1  0
 18  7  1  0
 16 12  1  0
  1 23  1  0
  1 24  1  0
  1 25  1  0
  2 26  1  0
  2 27  1  0
  5 28  1  0
  8 29  1  0
  8 30  1  0
  9 31  1  0
  9 32  1  0
 10 33  1  0
 11 34  1  0
 11 35  1  0
 13 36  1  0
 14 37  1  0
 15 38  1  0
 17 39  1  0
 17 40  1  0
 18 41  1  0
 18 42  1  0
 21 43  1  0
 21 44  1  0
 21 45  1  0
M  END
$$$$
OCNT-2313997
     RDKit          3D

  0  0  0  0  0  0  0  0  0  0999 V3000
M  V30 BEGIN CTAB
M  V30 COUNTS 48 51 0 0 0
M  V30 BEGIN ATOM
M  V30 1 C -3.307049 -1.280544 2.281969 0
M  V30 2 C -3.005743 -1.348019 0.802372 0 CFG=2
M  V30 3 C -3.111596 -0.003505 0.087733 0
M  V30 4 C -2.079757 0.948534 0.153011 0
M  V30 5 C -2.187404 2.189789 -0.480271 0
M  V30 6 C -3.337277 2.511606 -1.193458 0
M  V30 7 C -4.380695 1.595628 -1.266315 0
M  V30 8 C -4.267961 0.357511 -0.627823 0
M  V30 9 C -3.465127 -2.588518 0.058674 0
M  V30 10 C -1.997086 -2.402049 0.347326 0 CFG=1
M  V30 11 C -1.042338 -2.150013 -0.768257 0
M  V30 12 O -1.401094 -2.262510 -1.935804 0
M  V30 13 N 0.245178 -1.813496 -0.414588 0
M  V30 14 C 0.811903 -1.744455 0.920113 0
M  V30 15 C 2.316667 -1.654851 0.691481 0
M  V30 16 C 2.435297 -0.916327 -0.645554 0 CFG=2
M  V30 17 N 2.301243 0.534385 -0.425782 0
M  V30 18 C 3.421963 1.355579 -0.233261 0
M  V30 19 C 4.661063 0.840045 0.171878 0
M  V30 20 C 5.725016 1.699193 0.417933 0
M  V30 21 N 5.646131 3.038219 0.312579 0
M  V30 22 C 4.442018 3.537410 -0.040334 0
M  V30 23 C 3.319420 2.758231 -0.306658 0
M  V30 24 C 2.105436 3.426622 -0.654437 0
M  V30 25 N 1.125985 3.976421 -0.947371 0
M  V30 26 C 1.235446 -1.487389 -1.425443 0
M  V30 27 H -2.581282 -0.638819 2.792827 0
M  V30 28 H -4.309813 -0.874207 2.452413 0
M  V30 29 H -3.264602 -2.268958 2.752788 0
M  V30 30 H -1.175045 0.726709 0.711301 0
M  V30 31 H -1.373820 2.907294 -0.414457 0
M  V30 32 H -3.418245 3.475365 -1.688594 0
M  V30 33 H -5.283355 1.840602 -1.819102 0
M  V30 34 H -5.099332 -0.340993 -0.692276 0
M  V30 35 H -3.789712 -2.503285 -0.973871 0
M  V30 36 H -3.995343 -3.359044 0.606663 0
M  V30 37 H -1.609758 -3.082484 1.099076 0
M  V30 38 H 0.424895 -0.848017 1.413880 0
M  V30 39 H 0.539708 -2.622115 1.512085 0
M  V30 40 H 2.729896 -2.665594 0.583763 0
M  V30 41 H 2.826144 -1.168063 1.528036 0
M  V30 42 H 3.360181 -1.145295 -1.185768 0
M  V30 43 H 1.556650 0.955977 -0.983815 0
M  V30 44 H 4.826126 -0.221952 0.309366 0
M  V30 45 H 6.694419 1.313770 0.722875 0
M  V30 46 H 4.404565 4.623331 -0.100055 0
M  V30 47 H 1.507937 -2.423557 -1.926602 0
M  V30 48 H 0.820148 -0.798165 -2.167822 0
M  V30 END ATOM
M  V30 BEGIN BOND
M  V30 1 1 2 1 CFG=1
M  V30 2 1 2 3
M  V30 3 2 3 4
M  V30 4 1 4 5
M  V30 5 2 5 6
M  V30 6 1 6 7
M  V30 7 2 7 8
M  V30 8 1 2 9
M  V30 9 1 9 10
M  V30 10 1 10 11
M  V30 11 2 11 12
M  V30 12 1 11 13
M  V30 13 1 13 14
M  V30 14 1 14 15
M  V30 15 1 15 16
M  V30 16 1 16 17
M  V30 17 1 17 18
M  V30 18 2 18 19
M  V30 19 1 19 20
M  V30 20 2 20 21
M  V30 21 1 21 22
M  V30 22 2 22 23
M  V30 23 1 23 24
M  V30 24 3 24 25
M  V30 25 1 16 26
M  V30 26 1 10 2
M  V30 27 1 26 13
M  V30 28 1 8 3
M  V30 29 1 23 18
M  V30 30 1 1 27
M  V30 31 1 1 28
M  V30 32 1 1 29
M  V30 33 1 4 30
M  V30 34 1 5 31
M  V30 35 1 6 32
M  V30 36 1 7 33
M  V30 37 1 8 34
M  V30 38 1 9 35
M  V30 39 1 9 36
M  V30 40 1 10 37 CFG=1
M  V30 41 1 14 38
M  V30 42 1 14 39
M  V30 43 1 15 40
M  V30 44 1 15 41
M  V30 45 1 16 42 CFG=3
M  V30 46 1 17 43
M  V30 47 1 19 44
M  V30 48 1 20 45
M  V30 49 1 22 46
M  V30 50 1 26 47
M  V30 51 1 26 48
M  V30 END BOND
M  V30 BEGIN COLLECTION
M  V30 MDLV30/STEABS ATOMS=(1 16)
M  V30 MDLV30/STERAC1 ATOMS=(2 2 10)
M  V30 END COLLECTION
M  V30 END CTAB
M  END
>  <_CXSMILES_Data>  (784) 
|a:15,&1:1,9|

$$$$
OCNT-2314003
     RDKit          3D

 33 35  0  0  0  0  0  0  0  0999 V2000
   -0.7148   -0.2107   -2.2026 C   0  0  0  0  0  0  0  0  0  0  0  0
   -0.6556   -0.8956   -0.9196 N   0  0  0  0  0  0  0  0  0  0  0  0
   -1.8622   -1.5951   -0.4911 C   0  0  0  0  0  0  0  0  0  0  0  0
   -2.9354   -0.6472   -0.0150 C   0  0  0  0  0  0  0  0  0  0  0  0
   -4.0137   -0.3069   -0.8369 C   0  0  0  0  0  0  0  0  0  0  0  0
   -4.9636    0.5800   -0.3536 C   0  0  0  0  0  0  0  0  0  0  0  0
   -4.9122    1.1440    0.8713 N   0  0  0  0  0  0  0  0  0  0  0  0
   -3.8604    0.8075    1.6481 C   0  0  0  0  0  0  0  0  0  0  0  0
   -2.8617   -0.0694    1.2562 C   0  0  0  0  0  0  0  0  0  0  0  0
    0.3887   -0.7570    0.0088 C   0  0  0  0  0  0  0  0  0  0  0  0
    0.3788   -1.4078    1.0576 O   0  0  0  0  0  0  0  0  0  0  0  0
    1.5161    0.1707   -0.2555 C   0  0  0  0  0  0  0  0  0  0  0  0
    1.4669    1.2053   -1.1244 N   0  0  0  0  0  0  0  0  0  0  0  0
    2.6721    1.7942   -1.0114 N   0  0  0  0  0  0  0  0  0  0  0  0
    3.4987    1.1990   -0.1105 C   0  0  0  0  0  0  0  0  0  0  0  0
    4.7519    1.5859    0.1943 N   0  0  0  0  0  0  0  0  0  0  0  0
    5.3203    0.7987    1.1432 C   0  0  0  0  0  0  0  0  0  0  0  0
    4.7150   -0.2930    1.7569 C   0  0  0  0  0  0  0  0  0  0  0  0
    5.6419   -1.2900    3.0642 Br  0  0  0  0  0  0  0  0  0  0  0  0
    3.4147   -0.6478    1.3982 C   0  0  0  0  0  0  0  0  0  0  0  0
    2.7821    0.1373    0.4171 C   0  0  0  0  0  0  0  0  0  0  0  0
   -1.4284   -0.7150   -2.8616 H   0  0  0  0  0  0  0  0  0  0  0  0
   -1.0380    0.8223   -2.0467 H   0  0  0  0  0  0  0  0  0  0  0  0
    0.2584   -0.2406   -2.6981 H   0  0  0  0  0  0  0  0  0  0  0  0
   -2.2251   -2.2025   -1.3294 H   0  0  0  0  0  0  0  0  0  0  0  0
   -1.6389   -2.3077    0.3117 H   0  0  0  0  0  0  0  0  0  0  0  0
   -4.1182   -0.7190   -1.8346 H   0  0  0  0  0  0  0  0  0  0  0  0
   -5.8175    0.8698   -0.9593 H   0  0  0  0  0  0  0  0  0  0  0  0
   -3.8386    1.2766    2.6275 H   0  0  0  0  0  0  0  0  0  0  0  0
   -2.0415   -0.2959    1.9309 H   0  0  0  0  0  0  0  0  0  0  0  0
    2.8804    2.6105   -1.5730 H   0  0  0  0  0  0  0  0  0  0  0  0
    6.3341    1.0902    1.4100 H   0  0  0  0  0  0  0  0  0  0  0  0
    2.9056   -1.4909    1.8550 H   0  0  0  0  0  0  0  0  0  0  0  0
  1  2  1  0
  2  3  1  0
  3  4  1  0
  4  5  2  0
  5  6  1  0
  6  7  2  0
  7  8  1  0
  8  9  2  0
  2 10  1  0
 10 11  2  0
 10 12  1  0
 12 13  2  0
 13 14  1  0
 14 15  1  0
 15 16  1  0
 16 17  2  0
 17 18  1  0
 18 19  1  0
 18 20  2  0
 20 21  1  0
  9  4  1  0
 21 12  1  0
 21 15  2  0
  1 22  1  0
  1 23  1  0
  1 24  1  0
  3 25  1  0
  3 26  1  0
  5 27  1  0
  6 28  1  0
  8 29  1  0
  9 30  1  0
 14 31  1  0
 17 32  1  0
 20 33  1  0
M  END
$$$$
OCNT-2314020
     RDKit          3D

 49 51  0  0  0  0  0  0  0  0999 V2000
   -5.3505    1.2536   -0.7825 C   0  0  0  0  0  0  0  0  0  0  0  0
   -4.6829   -0.1128   -0.5404 C   0  0  0  0  0  0  0  0  0  0  0  0
   -4.9523   -1.0018   -1.7758 C   0  0  0  0  0  0  0  0  0  0  0  0
   -5.3383   -0.7951    0.6763 C   0  0  0  0  0  0  0  0  0  0  0  0
   -3.1373    0.0484   -0.3593 C   0  0  0  0  0  0  0  0  0  0  0  0
   -2.7222    1.0039    0.7825 C   0  0  0  0  0  0  0  0  0  0  0  0
   -1.5925    0.4999    1.6830 C   0  0  0  0  0  0  0  0  0  0  0  0
   -0.2948    0.3300    1.0293 N   0  0  0  0  0  0  0  0  0  0  0  0
    0.8165    0.2435    1.8754 C   0  0  0  0  0  0  0  0  0  0  0  0
    0.7367    0.2342    3.1018 O   0  0  0  0  0  0  0  0  0  0  0  0
    2.1720    0.1952    1.2823 C   0  0  0  0  0  0  0  0  0  0  0  0
    3.0612   -0.7946    1.7037 C   0  0  0  0  0  0  0  0  0  0  0  0
    4.3534   -0.8411    1.1712 C   0  0  0  0  0  0  0  0  0  0  0  0
    4.7745    0.1071    0.2257 C   0  0  0  0  0  0  0  0  0  0  0  0
    6.1231    0.0465   -0.3158 C   0  0  0  0  0  0  0  0  0  0  0  0
    6.5179    0.5435   -1.5409 C   0  0  0  0  0  0  0  0  0  0  0  0
    7.8497    0.2667   -1.6607 N   0  0  0  0  0  0  0  0  0  0  0  0
    8.3571   -0.3853   -0.6038 N   0  0  0  0  0  0  0  0  0  0  0  0
    7.3094   -0.5168    0.2140 C   0  0  0  0  0  0  0  0  0  0  0  0
    3.8776    1.1135   -0.1664 C   0  0  0  0  0  0  0  0  0  0  0  0
    2.5839    1.1638    0.3628 C   0  0  0  0  0  0  0  0  0  0  0  0
   -0.2879   -0.1637   -0.3531 C   0  0  0  0  0  0  0  0  0  0  0  0
   -1.2027   -1.3785   -0.5850 C   0  0  0  0  0  0  0  0  0  0  0  0
   -2.5610   -1.2436   -0.1550 O   0  0  0  0  0  0  0  0  0  0  0  0
   -4.8908    1.7708   -1.6320 H   0  0  0  0  0  0  0  0  0  0  0  0
   -5.2730    1.9089    0.0907 H   0  0  0  0  0  0  0  0  0  0  0  0
   -6.4177    1.1372   -1.0038 H   0  0  0  0  0  0  0  0  0  0  0  0
   -4.5419   -2.0094   -1.6465 H   0  0  0  0  0  0  0  0  0  0  0  0
   -4.5032   -0.5704   -2.6772 H   0  0  0  0  0  0  0  0  0  0  0  0
   -6.0275   -1.1077   -1.9604 H   0  0  0  0  0  0  0  0  0  0  0  0
   -4.9025   -1.7815    0.8670 H   0  0  0  0  0  0  0  0  0  0  0  0
   -6.4125   -0.9391    0.5113 H   0  0  0  0  0  0  0  0  0  0  0  0
   -5.2312   -0.2011    1.5885 H   0  0  0  0  0  0  0  0  0  0  0  0
   -2.7575    0.4539   -1.3076 H   0  0  0  0  0  0  0  0  0  0  0  0
   -2.4466    1.9721    0.3449 H   0  0  0  0  0  0  0  0  0  0  0  0
   -3.5741    1.2178    1.4355 H   0  0  0  0  0  0  0  0  0  0  0  0
   -1.4643    1.2157    2.5051 H   0  0  0  0  0  0  0  0  0  0  0  0
   -1.8632   -0.4555    2.1502 H   0  0  0  0  0  0  0  0  0  0  0  0
    2.7506   -1.5265    2.4462 H   0  0  0  0  0  0  0  0  0  0  0  0
    5.0215   -1.6317    1.5051 H   0  0  0  0  0  0  0  0  0  0  0  0
    5.9870    1.0522   -2.3323 H   0  0  0  0  0  0  0  0  0  0  0  0
    8.4704    0.4874   -2.4328 H   0  0  0  0  0  0  0  0  0  0  0  0
    7.4545   -1.0139    1.1646 H   0  0  0  0  0  0  0  0  0  0  0  0
    4.1803    1.8840   -0.8712 H   0  0  0  0  0  0  0  0  0  0  0  0
    1.9093    1.9634    0.0684 H   0  0  0  0  0  0  0  0  0  0  0  0
   -0.5869    0.6783   -0.9860 H   0  0  0  0  0  0  0  0  0  0  0  0
    0.7178   -0.4494   -0.6693 H   0  0  0  0  0  0  0  0  0  0  0  0
   -0.7950   -2.2489   -0.0594 H   0  0  0  0  0  0  0  0  0  0  0  0
   -1.2139   -1.6232   -1.6531 H   0  0  0  0  0  0  0  0  0  0  0  0
  1  2  1  0
  2  3  1  0
  2  4  1  0
  2  5  1  0
  5  6  1  0
  6  7  1  0
  7  8  1  0
  8  9  1  0
  9 10  2  0
  9 11  1  0
 11 12  1  0
 12 13  2  0
 13 14  1  0
 14 15  1  0
 15 16  2  0
 16 17  1  0
 17 18  1  0
 18 19  2  0
 14 20  2  0
 20 21  1  0
  8 22  1  0
 22 23  1  0
 23 24  1  0
 24  5  1  0
 21 11  2  0
 19 15  1  0
  1 25  1  0
  1 26  1  0
  1 27  1  0
  3 28  1  0
  3 29  1  0
  3 30  1  0
  4 31  1  0
  4 32  1  0
  4 33  1  0
  5 34  1  0
  6 35  1  0
  6 36  1  0
  7 37  1  0
  7 38  1  0
 12 39  1  0
 13 40  1  0
 16 41  1  0
 17 42  1  0
 19 43  1  0
 20 44  1  0
 21 45  1  0
 22 46  1  0
 22 47  1  0
 23 48  1  0
 23 49  1  0
M  END
$$$$
OCNT-2314025
     RDKit          3D

 50 53  0  0  0  0  0  0  0  0999 V2000
   -4.0648   -1.8093    0.3180 C   0  0  0  0  0  0  0  0  0  0  0  0
   -3.3505   -0.5865    0.0346 N   0  0  0  0  0  0  0  0  0  0  0  0
   -3.7873    0.4114   -0.8093 C   0  0  0  0  0  0  0  0  0  0  0  0
   -4.8963    0.5319   -1.6660 C   0  0  0  0  0  0  0  0  0  0  0  0
   -5.0181    1.7249   -2.3966 C   0  0  0  0  0  0  0  0  0  0  0  0
   -4.0812    2.7534   -2.2671 C   0  0  0  0  0  0  0  0  0  0  0  0
   -2.9913    2.6105   -1.4010 C   0  0  0  0  0  0  0  0  0  0  0  0
   -2.1028    3.6130   -1.3022 F   0  0  0  0  0  0  0  0  0  0  0  0
   -2.8356    1.4212   -0.6627 C   0  0  0  0  0  0  0  0  0  0  0  0
   -1.8551    1.0405    0.2284 N   0  0  0  0  0  0  0  0  0  0  0  0
   -2.1537   -0.1879    0.5947 C   0  0  0  0  0  0  0  0  0  0  0  0
   -1.4489   -0.9930    1.4404 N   0  0  0  0  0  0  0  0  0  0  0  0
   -0.6499   -0.2836    2.4560 C   0  0  0  0  0  0  0  0  0  0  0  0
    0.4357   -1.1701    3.0541 C   0  0  0  0  0  0  0  0  0  0  0  0
    1.3586   -1.7708    1.9861 C   0  0  0  0  0  0  0  0  0  0  0  0
    2.6219   -0.9358    1.7864 C   0  0  0  0  0  0  0  0  0  0  0  0
    3.7306   -1.3901    2.0671 O   0  0  0  0  0  0  0  0  0  0  0  0
    2.4306    0.3323    1.2890 N   0  0  0  0  0  0  0  0  0  0  0  0
    3.5469    1.1564    0.8751 C   0  0  0  0  0  0  0  0  0  0  0  0
    3.7675    1.0349   -0.6152 C   0  0  0  0  0  0  0  0  0  0  0  0
    4.5326   -0.0263   -1.1290 C   0  0  0  0  0  0  0  0  0  0  0  0
    4.7125   -0.1654   -2.5048 C   0  0  0  0  0  0  0  0  0  0  0  0
    4.1228    0.7564   -3.3708 C   0  0  0  0  0  0  0  0  0  0  0  0
    4.2847    0.6203   -4.6937 F   0  0  0  0  0  0  0  0  0  0  0  0
    3.3591    1.8119   -2.8829 C   0  0  0  0  0  0  0  0  0  0  0  0
    3.1738    1.9481   -1.5063 C   0  0  0  0  0  0  0  0  0  0  0  0
    0.6490   -2.0293    0.6521 C   0  0  0  0  0  0  0  0  0  0  0  0
   -0.8485   -2.2047    0.8516 C   0  0  0  0  0  0  0  0  0  0  0  0
   -3.7807   -2.1923    1.3045 H   0  0  0  0  0  0  0  0  0  0  0  0
   -3.8179   -2.5370   -0.4590 H   0  0  0  0  0  0  0  0  0  0  0  0
   -5.1416   -1.6097    0.3197 H   0  0  0  0  0  0  0  0  0  0  0  0
   -5.6264   -0.2662   -1.7710 H   0  0  0  0  0  0  0  0  0  0  0  0
   -5.8572    1.8531   -3.0826 H   0  0  0  0  0  0  0  0  0  0  0  0
   -4.1822    3.6727   -2.8407 H   0  0  0  0  0  0  0  0  0  0  0  0
   -0.1877    0.6227    2.0456 H   0  0  0  0  0  0  0  0  0  0  0  0
   -1.3230    0.0464    3.2584 H   0  0  0  0  0  0  0  0  0  0  0  0
   -0.0471   -1.9880    3.6032 H   0  0  0  0  0  0  0  0  0  0  0  0
    1.0108   -0.6010    3.7933 H   0  0  0  0  0  0  0  0  0  0  0  0
    1.7024   -2.7412    2.3785 H   0  0  0  0  0  0  0  0  0  0  0  0
    1.5368    0.5682    0.8798 H   0  0  0  0  0  0  0  0  0  0  0  0
    4.4594    0.8846    1.4230 H   0  0  0  0  0  0  0  0  0  0  0  0
    3.3049    2.1915    1.1391 H   0  0  0  0  0  0  0  0  0  0  0  0
    4.9855   -0.7514   -0.4517 H   0  0  0  0  0  0  0  0  0  0  0  0
    5.3040   -0.9838   -2.9076 H   0  0  0  0  0  0  0  0  0  0  0  0
    2.9134    2.5194   -3.5771 H   0  0  0  0  0  0  0  0  0  0  0  0
    2.5620    2.7680   -1.1330 H   0  0  0  0  0  0  0  0  0  0  0  0
    1.0688   -2.9331    0.1916 H   0  0  0  0  0  0  0  0  0  0  0  0
    0.8239   -1.2227   -0.0691 H   0  0  0  0  0  0  0  0  0  0  0  0
   -1.3015   -2.4535   -0.1195 H   0  0  0  0  0  0  0  0  0  0  0  0
   -1.0487   -3.0609    1.5120 H   0  0  0  0  0  0  0  0  0  0  0  0
  1  2  1  0
  2  3  1  0
  3  4  2  0
  4  5  1  0
  5  6  2  0
  6  7  1  0
  7  8  1  0
  7  9  2  0
  9 10  1  0
 10 11  2  0
 11 12  1  0
 12 13  1  0
 13 14  1  0
 14 15  1  0
 15 16  1  0
 16 17  2  0
 16 18  1  0
 18 19  1  0
 19 20  1  0
 20 21  1  0
 21 22  2  0
 22 23  1  0
 23 24  1  0
 23 25  2  0
 25 26  1  0
 15 27  1  0
 27 28  1  0
 11  2  1  0
 28 12  1  0
  9  3  1  0
 26 20  2  0
  1 29  1  0
  1 30  1  0
  1 31  1  0
  4 32  1  0
  5 33  1  0
  6 34  1  0
 13 35  1  0
 13 36  1  0
 14 37  1  0
 14 38  1  0
 15 39  1  0
 18 40  1  0
 19 41  1  0
 19 42  1  0
 21 43  1  0
 22 44  1  0
 25 45  1  0
 26 46  1  0
 27 47  1  0
 27 48  1  0
 28 49  1  0
 28 50  1  0
M  END
$$$$
OCNT-2314028
     RDKit          3D

 52 56  0  0  0  0  0  0  0  0999 V2000
    0.3806   -0.0162   -3.8969 O   0  0  0  0  0  0  0  0  0  0  0  0
    0.3898   -0.1729   -2.6787 C   0  0  0  0  0  0  0  0  0  0  0  0
    1.7012   -0.3078   -2.0353 C   0  0  0  0  0  0  0  0  0  0  0  0
    2.1453   -1.5226   -1.5272 C   0  0  0  0  0  0  0  0  0  0  0  0
    3.4094   -1.5766   -0.9417 C   0  0  0  0  0  0  0  0  0  0  0  0
    4.2025   -0.4273   -0.8929 C   0  0  0  0  0  0  0  0  0  0  0  0
    5.4525   -0.5216   -0.2601 N   0  0  0  0  0  0  0  0  0  0  0  0
    6.2380    0.7047   -0.2968 C   0  0  0  0  0  0  0  0  0  0  0  0
    7.5580    0.4341    0.3683 C   0  0  0  0  0  0  0  0  0  0  0  0
    8.2593    1.5159    1.1515 C   0  0  0  0  0  0  0  0  0  0  0  0
    7.6551    0.3413    1.8707 C   0  0  0  0  0  0  0  0  0  0  0  0
    3.7716    0.7502   -1.3939 N   0  0  0  0  0  0  0  0  0  0  0  0
    2.5441    0.7861   -1.9704 C   0  0  0  0  0  0  0  0  0  0  0  0
   -0.7603   -0.2277   -1.8934 N   0  0  0  0  0  0  0  0  0  0  0  0
   -2.0263   -0.3467   -2.6085 C   0  0  0  0  0  0  0  0  0  0  0  0
   -3.2102   -0.0218   -1.7510 C   0  0  0  0  0  0  0  0  0  0  0  0
   -3.1540    0.2991   -0.4471 C   0  0  0  0  0  0  0  0  0  0  0  0
   -4.2970    0.6155    0.3514 C   0  0  0  0  0  0  0  0  0  0  0  0
   -4.3991    1.7310    1.1548 C   0  0  0  0  0  0  0  0  0  0  0  0
   -5.6312    1.7116    1.7523 N   0  0  0  0  0  0  0  0  0  0  0  0
   -6.3332    0.5942    1.3610 C   0  0  0  0  0  0  0  0  0  0  0  0
   -7.6164    0.1651    1.7212 C   0  0  0  0  0  0  0  0  0  0  0  0
   -8.0700   -1.0282    1.1619 C   0  0  0  0  0  0  0  0  0  0  0  0
   -9.2926   -1.4723    1.4847 F   0  0  0  0  0  0  0  0  0  0  0  0
   -7.2913   -1.7709    0.2853 C   0  0  0  0  0  0  0  0  0  0  0  0
   -6.0106   -1.3281   -0.0647 C   0  0  0  0  0  0  0  0  0  0  0  0
   -5.5178   -0.1189    0.4764 C   0  0  0  0  0  0  0  0  0  0  0  0
   -1.8342    0.3266    0.2756 C   0  0  0  0  0  0  0  0  0  0  0  0
   -0.7769   -0.5036   -0.4539 C   0  0  0  0  0  0  0  0  0  0  0  0
    1.5254   -2.4117   -1.5836 H   0  0  0  0  0  0  0  0  0  0  0  0
    3.7722   -2.5083   -0.5188 H   0  0  0  0  0  0  0  0  0  0  0  0
    5.9646   -1.3052   -0.6518 H   0  0  0  0  0  0  0  0  0  0  0  0
    5.7111    1.5136    0.2245 H   0  0  0  0  0  0  0  0  0  0  0  0
    6.4286    1.0205   -1.3298 H   0  0  0  0  0  0  0  0  0  0  0  0
    8.1782   -0.2324   -0.2202 H   0  0  0  0  0  0  0  0  0  0  0  0
    7.7744    2.4793    1.2625 H   0  0  0  0  0  0  0  0  0  0  0  0
    9.3404    1.5689    1.0863 H   0  0  0  0  0  0  0  0  0  0  0  0
    8.3239   -0.4013    2.2900 H   0  0  0  0  0  0  0  0  0  0  0  0
    6.7554    0.5071    2.4537 H   0  0  0  0  0  0  0  0  0  0  0  0
    2.2528    1.7488   -2.3809 H   0  0  0  0  0  0  0  0  0  0  0  0
   -2.0170    0.3129   -3.4829 H   0  0  0  0  0  0  0  0  0  0  0  0
   -2.1073   -1.3790   -2.9675 H   0  0  0  0  0  0  0  0  0  0  0  0
   -4.1701   -0.0309   -2.2621 H   0  0  0  0  0  0  0  0  0  0  0  0
   -3.7113    2.5445    1.3440 H   0  0  0  0  0  0  0  0  0  0  0  0
   -5.9801    2.4145    2.3897 H   0  0  0  0  0  0  0  0  0  0  0  0
   -8.2423    0.7248    2.4062 H   0  0  0  0  0  0  0  0  0  0  0  0
   -7.6824   -2.6970   -0.1237 H   0  0  0  0  0  0  0  0  0  0  0  0
   -5.4013   -1.9150   -0.7455 H   0  0  0  0  0  0  0  0  0  0  0  0
   -1.9303   -0.0604    1.2973 H   0  0  0  0  0  0  0  0  0  0  0  0
   -1.4913    1.3669    0.3474 H   0  0  0  0  0  0  0  0  0  0  0  0
   -0.9753   -1.5761   -0.3334 H   0  0  0  0  0  0  0  0  0  0  0  0
    0.1956   -0.2970    0.0004 H   0  0  0  0  0  0  0  0  0  0  0  0
  1  2  2  0
  2  3  1  0
  3  4  2  0
  4  5  1  0
  5  6  2  0
  6  7  1  0
  7  8  1  0
  8  9  1  0
  9 10  1  0
 10 11  1  0
  6 12  1  0
 12 13  2  0
  2 14  1  0
 14 15  1  0
 15 16  1  0
 16 17  2  0
 17 18  1  0
 18 19  2  0
 19 20  1  0
 20 21  1  0
 21 22  2  0
 22 23  1  0
 23 24  1  0
 23 25  2  0
 25 26  1  0
 26 27  2  0
 17 28  1  0
 28 29  1  0
 13  3  1  0
 29 14  1  0
 11  9  1  0
 27 18  1  0
 27 21  1  0
  4 30  1  0
  5 31  1  0
  7 32  1  0
  8 33  1  0
  8 34  1  0
  9 35  1  0
 10 36  1  0
 10 37  1  0
 11 38  1  0
 11 39  1  0
 13 40  1  0
 15 41  1  0
 15 42  1  0
 16 43  1  0
 19 44  1  0
 20 45  1  0
 22 46  1  0
 25 47  1  0
 26 48  1  0
 28 49  1  0
 28 50  1  0
 29 51  1  0
 29 52  1  0
M  END
$$$$
OCNT-2314054
     RDKit          3D

 40 43  0  0  0  0  0  0  0  0999 V2000
   -2.5891   -0.1338    2.1123 C   0  0  0  0  0  0  0  0  0  0  0  0
   -2.3343   -0.7631    0.7435 C   0  0  2  0  0  0  0  0  0  0  0  0
   -1.1112   -0.2181    0.1550 N   0  0  0  0  0  0  0  0  0  0  0  0
    0.2191   -0.4597    0.4917 C   0  0  0  0  0  0  0  0  0  0  0  0
    1.2018    0.3197   -0.0004 C   0  0  0  0  0  0  0  0  0  0  0  0
    2.6100    0.0019    0.3974 C   0  0  0  0  0  0  0  0  0  0  0  0
    3.6742    0.8940   -0.1490 C   0  0  0  0  0  0  0  0  0  0  0  0
    4.9190    0.3342   -0.4657 C   0  0  0  0  0  0  0  0  0  0  0  0
    5.9413    1.1358   -0.9765 C   0  0  0  0  0  0  0  0  0  0  0  0
    5.7292    2.5006   -1.1637 C   0  0  0  0  0  0  0  0  0  0  0  0
    4.4988    3.0679   -0.8333 C   0  0  0  0  0  0  0  0  0  0  0  0
    3.4723    2.2693   -0.3222 C   0  0  0  0  0  0  0  0  0  0  0  0
    2.9574   -0.9954    1.1566 N   0  0  0  0  0  0  0  0  0  0  0  0
    1.9528   -1.7795    1.6387 C   0  0  0  0  0  0  0  0  0  0  0  0
    2.0428   -2.8327    2.4222 N   0  0  0  0  0  0  0  0  0  0  0  0
    0.7528   -3.2172    2.5856 C   0  0  0  0  0  0  0  0  0  0  0  0
   -0.1629   -2.4818    1.9602 N   0  0  0  0  0  0  0  0  0  0  0  0
    0.6020   -1.5373    1.3348 N   0  0  0  0  0  0  0  0  0  0  0  0
   -3.5076   -0.4305   -0.1844 C   0  0  0  0  0  0  0  0  0  0  0  0
   -4.5594   -1.3361   -0.3353 C   0  0  0  0  0  0  0  0  0  0  0  0
   -5.6234   -1.0046   -1.1740 C   0  0  0  0  0  0  0  0  0  0  0  0
   -5.6124    0.2172   -1.8346 C   0  0  0  0  0  0  0  0  0  0  0  0
   -6.9032    0.6612   -2.8741 Cl  0  0  0  0  0  0  0  0  0  0  0  0
   -4.5364    1.0663   -1.6318 C   0  0  0  0  0  0  0  0  0  0  0  0
   -3.4864    0.7765   -0.8240 N   0  0  0  0  0  0  0  0  0  0  0  0
   -2.6813    0.9568    2.0423 H   0  0  0  0  0  0  0  0  0  0  0  0
   -1.7740   -0.3451    2.8113 H   0  0  0  0  0  0  0  0  0  0  0  0
   -3.5155   -0.5168    2.5545 H   0  0  0  0  0  0  0  0  0  0  0  0
   -2.2657   -1.8525    0.8177 H   0  0  0  0  0  0  0  0  0  0  0  0
   -1.3025    0.6236   -0.3909 H   0  0  0  0  0  0  0  0  0  0  0  0
    1.0006    1.1336   -0.6829 H   0  0  0  0  0  0  0  0  0  0  0  0
    5.0982   -0.7290   -0.3167 H   0  0  0  0  0  0  0  0  0  0  0  0
    6.9040    0.6945   -1.2226 H   0  0  0  0  0  0  0  0  0  0  0  0
    6.5279    3.1247   -1.5575 H   0  0  0  0  0  0  0  0  0  0  0  0
    4.3430    4.1361   -0.9644 H   0  0  0  0  0  0  0  0  0  0  0  0
    2.5366    2.7441   -0.0418 H   0  0  0  0  0  0  0  0  0  0  0  0
    0.4667   -4.0709    3.1869 H   0  0  0  0  0  0  0  0  0  0  0  0
   -4.5541   -2.2880    0.1876 H   0  0  0  0  0  0  0  0  0  0  0  0
   -6.4485   -1.6987   -1.3055 H   0  0  0  0  0  0  0  0  0  0  0  0
   -4.4827    2.0328   -2.1245 H   0  0  0  0  0  0  0  0  0  0  0  0
  1  2  1  0
  2  3  1  0
  3  4  1  0
  4  5  2  0
  5  6  1  0
  6  7  1  0
  7  8  2  0
  8  9  1  0
  9 10  2  0
 10 11  1  0
 11 12  2  0
  6 13  2  0
 13 14  1  0
 14 15  2  0
 15 16  1  0
 16 17  2  0
 17 18  1  0
  2 19  1  0
 19 20  2  0
 20 21  1  0
 21 22  2  0
 22 23  1  0
 22 24  1  0
 24 25  2  0
 18  4  1  0
 25 19  1  0
 12  7  1  0
 18 14  1  0
  1 26  1  0
  1 27  1  0
  1 28  1  0
  2 29  1  1
  3 30  1  0
  5 31  1  0
  8 32  1  0
  9 33  1  0
 10 34  1  0
 11 35  1  0
 12 36  1  0
 16 37  1  0
 20 38  1  0
 21 39  1  0
 24 40  1  0
M  END
$$$$
OCNT-2314062
     RDKit          3D

 41 44  0  0  0  0  0  0  0  0999 V2000
   -6.9922    2.7653   -1.7321 C   0  0  0  0  0  0  0  0  0  0  0  0
   -6.4933    1.7720   -1.2764 C   0  0  0  0  0  0  0  0  0  0  0  0
   -5.8831    0.5604   -0.7158 C   0  0  0  0  0  0  0  0  0  0  0  0
   -5.5532    0.7993    0.6778 N   0  0  0  0  0  0  0  0  0  0  0  0
   -5.1215   -0.4849    1.6488 S   0  0  0  0  0  0  0  0  0  0  0  0
   -4.7256    0.0680    2.9240 O   0  0  0  0  0  0  0  0  0  0  0  0
   -6.1445   -1.4996    1.5359 O   0  0  0  0  0  0  0  0  0  0  0  0
   -3.6517   -1.0942    0.8566 C   0  0  0  0  0  0  0  0  0  0  0  0
   -3.7003   -2.2727    0.1089 C   0  0  0  0  0  0  0  0  0  0  0  0
   -2.5388   -2.7417   -0.4990 C   0  0  0  0  0  0  0  0  0  0  0  0
   -1.3393   -2.0383   -0.3506 C   0  0  0  0  0  0  0  0  0  0  0  0
   -1.2763   -0.8592    0.4119 C   0  0  0  0  0  0  0  0  0  0  0  0
   -0.0030   -0.1602    0.5448 C   0  0  0  0  0  0  0  0  0  0  0  0
    1.1741   -0.4556    0.0415 N   0  0  0  0  0  0  0  0  0  0  0  0
    1.9712    0.5714    0.5049 C   0  0  0  0  0  0  0  0  0  0  0  0
    3.3946    0.6561    0.1895 C   0  0  0  0  0  0  0  0  0  0  0  0
    4.1790    1.7109    0.6785 C   0  0  0  0  0  0  0  0  0  0  0  0
    5.5457    1.8095    0.3867 C   0  0  0  0  0  0  0  0  0  0  0  0
    6.1077    0.8123   -0.4158 C   0  0  0  0  0  0  0  0  0  0  0  0
    7.4017    0.6512   -0.8585 N   0  0  0  0  0  0  0  0  0  0  0  0
    7.5013   -0.4781   -1.6273 C   0  0  0  0  0  0  0  0  0  0  0  0
    6.2553   -1.0594   -1.6847 C   0  0  0  0  0  0  0  0  0  0  0  0
    5.3654   -0.2532   -0.9227 C   0  0  0  0  0  0  0  0  0  0  0  0
    3.9921   -0.3313   -0.6155 C   0  0  0  0  0  0  0  0  0  0  0  0
    1.3127    1.4692    1.2578 N   0  0  0  0  0  0  0  0  0  0  0  0
    0.0077    0.9853    1.2864 O   0  0  0  0  0  0  0  0  0  0  0  0
   -2.4497   -0.3934    1.0219 C   0  0  0  0  0  0  0  0  0  0  0  0
   -7.4409    3.6456   -2.1321 H   0  0  0  0  0  0  0  0  0  0  0  0
   -6.5759   -0.2809   -0.8136 H   0  0  0  0  0  0  0  0  0  0  0  0
   -4.9728    0.3299   -1.2782 H   0  0  0  0  0  0  0  0  0  0  0  0
   -5.1716    1.7031    0.9457 H   0  0  0  0  0  0  0  0  0  0  0  0
   -4.6286   -2.8302    0.0004 H   0  0  0  0  0  0  0  0  0  0  0  0
   -2.5606   -3.6589   -1.0839 H   0  0  0  0  0  0  0  0  0  0  0  0
   -0.4399   -2.4232   -0.8319 H   0  0  0  0  0  0  0  0  0  0  0  0
    3.7303    2.4820    1.3036 H   0  0  0  0  0  0  0  0  0  0  0  0
    6.1384    2.6320    0.7738 H   0  0  0  0  0  0  0  0  0  0  0  0
    8.1636    1.2793   -0.6431 H   0  0  0  0  0  0  0  0  0  0  0  0
    8.4465   -0.7697   -2.0650 H   0  0  0  0  0  0  0  0  0  0  0  0
    6.0072   -1.9683   -2.2171 H   0  0  0  0  0  0  0  0  0  0  0  0
    3.4046   -1.1585   -1.0052 H   0  0  0  0  0  0  0  0  0  0  0  0
   -2.4363    0.5085    1.6322 H   0  0  0  0  0  0  0  0  0  0  0  0
  1  2  3  0
  2  3  1  0
  3  4  1  0
  4  5  1  0
  5  6  2  0
  5  7  2  0
  5  8  1  0
  8  9  2  0
  9 10  1  0
 10 11  2  0
 11 12  1  0
 12 13  1  0
 13 14  2  0
 14 15  1  0
 15 16  1  0
 16 17  2  0
 17 18  1  0
 18 19  2  0
 19 20  1  0
 20 21  1  0
 21 22  2  0
 22 23  1  0
 23 24  2  0
 15 25  2  0
 25 26  1  0
 12 27  2  0
 27  8  1  0
 26 13  1  0
 24 16  1  0
 23 19  1  0
  1 28  1  0
  3 29  1  0
  3 30  1  0
  4 31  1  0
  9 32  1  0
 10 33  1  0
 11 34  1  0
 17 35  1  0
 18 36  1  0
 20 37  1  0
 21 38  1  0
 22 39  1  0
 24 40  1  0
 27 41  1  0
M  END
$$$$
OCNT-2314087
     RDKit          3D

 54 59  0  0  0  0  0  0  0  0999 V2000
    9.7440    1.7109    1.6730 C   0  0  0  0  0  0  0  0  0  0  0  0
    9.0050    0.9014    0.6865 C   0  0  0  0  0  0  0  0  0  0  0  0
    9.4764    0.3237   -0.3944 N   0  0  0  0  0  0  0  0  0  0  0  0
    8.4350   -0.3299   -1.0106 N   0  0  0  0  0  0  0  0  0  0  0  0
    7.3346   -0.1397   -0.3046 C   0  0  0  0  0  0  0  0  0  0  0  0
    5.9981   -0.6560   -0.6098 C   0  0  0  0  0  0  0  0  0  0  0  0
    5.8160   -1.4498   -1.7519 C   0  0  0  0  0  0  0  0  0  0  0  0
    4.5596   -1.9594   -2.0821 C   0  0  0  0  0  0  0  0  0  0  0  0
    3.4612   -1.6817   -1.2710 C   0  0  0  0  0  0  0  0  0  0  0  0
    3.6087   -0.8933   -0.1224 C   0  0  0  0  0  0  0  0  0  0  0  0
    2.4545   -0.6077    0.7237 C   0  0  0  0  0  0  0  0  0  0  0  0
    2.5143    0.1098    1.8582 N   0  0  0  0  0  0  0  0  0  0  0  0
    1.2012    0.1150    2.3201 O   0  0  0  0  0  0  0  0  0  0  0  0
    0.4706   -0.5976    1.4186 C   0  0  0  0  0  0  0  0  0  0  0  0
   -0.9768   -0.7182    1.6796 C   0  0  0  0  0  0  0  0  0  0  0  0
   -1.5315   -2.0995    1.3805 C   0  0  0  0  0  0  0  0  0  0  0  0
   -2.9779   -1.8185    1.0530 C   0  0  0  0  0  0  0  0  0  0  0  0
   -3.8336   -2.6877    1.0771 O   0  0  0  0  0  0  0  0  0  0  0  0
   -3.0873   -0.4652    0.6990 N   0  0  0  0  0  0  0  0  0  0  0  0
   -4.2497    0.1907    0.2033 C   0  0  0  0  0  0  0  0  0  0  0  0
   -4.1720    1.5228   -0.2698 C   0  0  0  0  0  0  0  0  0  0  0  0
   -5.2925    2.2004   -0.7682 C   0  0  0  0  0  0  0  0  0  0  0  0
   -6.5043    1.5415   -0.7832 C   0  0  0  0  0  0  0  0  0  0  0  0
   -7.8207    2.0284   -1.2986 C   0  0  0  0  0  0  0  0  0  0  0  0
   -8.7830    1.0190   -0.6553 C   0  0  0  0  0  0  0  0  0  0  0  0
   -7.9989   -0.2902   -0.4895 C   0  0  0  0  0  0  0  0  0  0  0  0
   -6.6040    0.2285   -0.3246 C   0  0  0  0  0  0  0  0  0  0  0  0
   -5.4955   -0.4530    0.1608 C   0  0  0  0  0  0  0  0  0  0  0  0
   -1.7991    0.1855    0.7794 C   0  0  0  0  0  0  0  0  0  0  0  0
    1.1859   -1.0544    0.4189 N   0  0  0  0  0  0  0  0  0  0  0  0
    4.8819   -0.3862    0.1981 C   0  0  0  0  0  0  0  0  0  0  0  0
    7.6658    0.6373    0.7783 N   0  0  0  0  0  0  0  0  0  0  0  0
    9.5675    1.3404    2.6881 H   0  0  0  0  0  0  0  0  0  0  0  0
    9.4299    2.7578    1.6238 H   0  0  0  0  0  0  0  0  0  0  0  0
   10.8204    1.6691    1.4783 H   0  0  0  0  0  0  0  0  0  0  0  0
    6.6642   -1.6763   -2.3975 H   0  0  0  0  0  0  0  0  0  0  0  0
    4.4405   -2.5734   -2.9717 H   0  0  0  0  0  0  0  0  0  0  0  0
    2.4881   -2.0874   -1.5428 H   0  0  0  0  0  0  0  0  0  0  0  0
   -1.1925   -0.4745    2.7291 H   0  0  0  0  0  0  0  0  0  0  0  0
   -1.4546   -2.7574    2.2505 H   0  0  0  0  0  0  0  0  0  0  0  0
   -1.0662   -2.5813    0.5145 H   0  0  0  0  0  0  0  0  0  0  0  0
   -3.2311    2.0650   -0.2814 H   0  0  0  0  0  0  0  0  0  0  0  0
   -5.2026    3.2175   -1.1375 H   0  0  0  0  0  0  0  0  0  0  0  0
   -7.8466    1.9585   -2.3905 H   0  0  0  0  0  0  0  0  0  0  0  0
   -8.0433    3.0507   -0.9817 H   0  0  0  0  0  0  0  0  0  0  0  0
   -9.7003    0.8857   -1.2370 H   0  0  0  0  0  0  0  0  0  0  0  0
   -9.0796    1.3877    0.3363 H   0  0  0  0  0  0  0  0  0  0  0  0
   -8.3438   -0.8553    0.3809 H   0  0  0  0  0  0  0  0  0  0  0  0
   -8.0665   -0.9084   -1.3906 H   0  0  0  0  0  0  0  0  0  0  0  0
   -5.6333   -1.4746    0.4977 H   0  0  0  0  0  0  0  0  0  0  0  0
   -1.3864    0.2687   -0.2336 H   0  0  0  0  0  0  0  0  0  0  0  0
   -1.8823    1.1824    1.2262 H   0  0  0  0  0  0  0  0  0  0  0  0
    4.9863    0.2255    1.0902 H   0  0  0  0  0  0  0  0  0  0  0  0
    7.0459    0.9525    1.5067 H   0  0  0  0  0  0  0  0  0  0  0  0
  1  2  1  0
  2  3  2  0
  3  4  1  0
  4  5  2  0
  5  6  1  0
  6  7  2  0
  7  8  1  0
  8  9  2  0
  9 10  1  0
 10 11  1  0
 11 12  2  0
 12 13  1  0
 13 14  1  0
 14 15  1  0
 15 16  1  0
 16 17  1  0
 17 18  2  0
 17 19  1  0
 19 20  1  0
 20 21  1  0
 21 22  2  0
 22 23  1  0
 23 24  1  0
 24 25  1  0
 25 26  1  0
 26 27  1  0
 27 28  1  0
 19 29  1  0
 14 30  2  0
 10 31  2  0
  5 32  1  0
 32  2  1  0
 31  6  1  0
 30 11  1  0
 29 15  1  0
 28 20  2  0
 27 23  2  0
  1 33  1  0
  1 34  1  0
  1 35  1  0
  7 36  1  0
  8 37  1  0
  9 38  1  0
 15 39  1  0
 16 40  1  0
 16 41  1  0
 21 42  1  0
 22 43  1  0
 24 44  1  0
 24 45  1  0
 25 46  1  0
 25 47  1  0
 26 48  1  0
 26 49  1  0
 28 50  1  0
 29 51  1  0
 29 52  1  0
 31 53  1  0
 32 54  1  0
M  END
$$$$
OCNT-2314112
     RDKit          3D

 46 48  0  0  0  0  0  0  0  0999 V2000
   -2.6034    1.1697   -1.8168 C   0  0  0  0  0  0  0  0  0  0  0  0
   -1.2471    1.1350   -1.1070 C   0  0  0  0  0  0  0  0  0  0  0  0
   -1.0037    2.4640   -0.3841 C   0  0  0  0  0  0  0  0  0  0  0  0
   -1.0540   -0.1228   -0.2011 C   0  0  0  0  0  0  0  0  0  0  0  0
   -1.9146   -0.1361    1.0977 C   0  0  0  0  0  0  0  0  0  0  0  0
   -3.3984   -0.3603    0.9251 C   0  0  0  0  0  0  0  0  0  0  0  0
   -3.8871   -1.5262    0.3185 C   0  0  0  0  0  0  0  0  0  0  0  0
   -5.2610   -1.7318    0.1802 C   0  0  0  0  0  0  0  0  0  0  0  0
   -6.1612   -0.7808    0.6558 C   0  0  0  0  0  0  0  0  0  0  0  0
   -5.6888    0.3740    1.2753 C   0  0  0  0  0  0  0  0  0  0  0  0
   -4.3154    0.5812    1.4144 C   0  0  0  0  0  0  0  0  0  0  0  0
    0.3704   -0.2328    0.2117 N   0  0  0  0  0  0  0  0  0  0  0  0
    1.2210   -0.8075   -0.8422 C   0  0  0  0  0  0  0  0  0  0  0  0
    2.6771   -0.7706   -0.3758 C   0  0  0  0  0  0  0  0  0  0  0  0
    3.4709    0.1481   -0.8591 N   0  0  0  0  0  0  0  0  0  0  0  0
    4.7605    0.1589   -0.4024 C   0  0  0  0  0  0  0  0  0  0  0  0
    5.8451    0.9621   -0.6752 C   0  0  0  0  0  0  0  0  0  0  0  0
    5.8891    2.0624   -1.5746 C   0  0  0  0  0  0  0  0  0  0  0  0
    5.9757    2.9644   -2.3001 N   0  0  0  0  0  0  0  0  0  0  0  0
    6.8908    0.4643    0.1180 C   0  0  0  0  0  0  0  0  0  0  0  0
    6.5244   -0.5875    0.8557 N   0  0  0  0  0  0  0  0  0  0  0  0
    5.2128   -0.7694    0.5348 N   0  0  0  0  0  0  0  0  0  0  0  0
    4.3587   -1.7569    1.0404 C   0  0  0  0  0  0  0  0  0  0  0  0
    4.8462   -2.6667    1.9646 O   0  0  0  0  0  0  0  0  0  0  0  0
    3.0876   -1.8121    0.6249 C   0  0  0  0  0  0  0  0  0  0  0  0
   -2.8370    0.2014   -2.2706 H   0  0  0  0  0  0  0  0  0  0  0  0
   -2.5871    1.9133   -2.6219 H   0  0  0  0  0  0  0  0  0  0  0  0
   -3.4173    1.4511   -1.1454 H   0  0  0  0  0  0  0  0  0  0  0  0
   -0.5077    1.0815   -1.9158 H   0  0  0  0  0  0  0  0  0  0  0  0
   -1.0284    3.2952   -1.0978 H   0  0  0  0  0  0  0  0  0  0  0  0
   -1.7696    2.6617    0.3722 H   0  0  0  0  0  0  0  0  0  0  0  0
   -0.0244    2.4819    0.1041 H   0  0  0  0  0  0  0  0  0  0  0  0
   -1.3083   -1.0174   -0.7842 H   0  0  0  0  0  0  0  0  0  0  0  0
   -1.7340    0.7778    1.6771 H   0  0  0  0  0  0  0  0  0  0  0  0
   -1.5724   -0.9540    1.7489 H   0  0  0  0  0  0  0  0  0  0  0  0
   -3.2031   -2.2877   -0.0476 H   0  0  0  0  0  0  0  0  0  0  0  0
   -5.6296   -2.6367   -0.2957 H   0  0  0  0  0  0  0  0  0  0  0  0
   -7.2305   -0.9415    0.5482 H   0  0  0  0  0  0  0  0  0  0  0  0
   -6.3898    1.1144    1.6516 H   0  0  0  0  0  0  0  0  0  0  0  0
   -3.9657    1.4887    1.9020 H   0  0  0  0  0  0  0  0  0  0  0  0
    0.4413   -0.8137    1.0458 H   0  0  0  0  0  0  0  0  0  0  0  0
    0.9398   -1.8475   -1.0431 H   0  0  0  0  0  0  0  0  0  0  0  0
    1.1544   -0.2466   -1.7791 H   0  0  0  0  0  0  0  0  0  0  0  0
    7.9106    0.8238    0.1902 H   0  0  0  0  0  0  0  0  0  0  0  0
    5.7857   -2.4205    2.1095 H   0  0  0  0  0  0  0  0  0  0  0  0
    2.3776   -2.5479    0.9725 H   0  0  0  0  0  0  0  0  0  0  0  0
  1  2  1  0
  2  3  1  0
  2  4  1  0
  4  5  1  0
  5  6  1  0
  6  7  2  0
  7  8  1  0
  8  9  2  0
  9 10  1  0
 10 11  2  0
  4 12  1  0
 12 13  1  0
 13 14  1  0
 14 15  2  0
 15 16  1  0
 16 17  2  0
 17 18  1  0
 18 19  3  0
 17 20  1  0
 20 21  2  0
 21 22  1  0
 22 23  1  0
 23 24  1  0
 23 25  2  0
 11  6  1  0
 25 14  1  0
 22 16  1  0
  1 26  1  0
  1 27  1  0
  1 28  1  0
  2 29  1  0
  3 30  1  0
  3 31  1  0
  3 32  1  0
  4 33  1  0
  5 34  1  0
  5 35  1  0
  7 36  1  0
  8 37  1  0
  9 38  1  0
 10 39  1  0
 11 40  1  0
 12 41  1  0
 13 42  1  0
 13 43  1  0
 20 44  1  0
 24 45  1  0
 25 46  1  0
M  END
$$$$
OCNT-2314118
     RDKit          3D

 55 57  0  0  0  0  0  0  0  0999 V2000
   -2.7247   -0.7718    0.7651 O   0  0  0  0  0  0  0  0  0  0  0  0
   -2.4685   -0.0563   -0.1947 C   0  0  0  0  0  0  0  0  0  0  0  0
   -3.5181    0.6655   -1.0239 C   0  0  0  0  0  0  0  0  0  0  0  0
   -4.9530    0.5042   -0.5004 C   0  0  0  0  0  0  0  0  0  0  0  0
   -5.4967   -0.9154   -0.7360 C   0  0  0  0  0  0  0  0  0  0  0  0
   -6.9399   -1.0494   -0.2567 C   0  0  0  0  0  0  0  0  0  0  0  0
   -7.8475   -0.0148   -0.9134 C   0  0  0  0  0  0  0  0  0  0  0  0
   -7.3210    1.4017   -0.7192 C   0  0  0  0  0  0  0  0  0  0  0  0
   -5.8731    1.5379   -1.1783 C   0  0  0  0  0  0  0  0  0  0  0  0
   -1.1847    0.1748   -0.6554 N   0  0  0  0  0  0  0  0  0  0  0  0
   -0.0158   -0.3410    0.0435 C   0  0  0  0  0  0  0  0  0  0  0  0
    0.3066    0.5164    1.2741 C   0  0  0  0  0  0  0  0  0  0  0  0
    1.5728    0.0337    1.9770 C   0  0  0  0  0  0  0  0  0  0  0  0
    2.7714   -0.0015    1.0235 C   0  0  0  0  0  0  0  0  0  0  0  0
    4.0154   -0.5323    1.7284 C   0  0  0  0  0  0  0  0  0  0  0  0
    3.9812   -1.1613    2.7810 O   0  0  0  0  0  0  0  0  0  0  0  0
    5.1832   -0.2671    1.0572 N   0  0  0  0  0  0  0  0  0  0  0  0
    6.4526   -0.5981    1.6600 C   0  0  0  0  0  0  0  0  0  0  0  0
    7.5157   -0.4045    0.6389 C   0  0  0  0  0  0  0  0  0  0  0  0
    8.3891   -1.3285    0.1106 C   0  0  0  0  0  0  0  0  0  0  0  0
    9.1716   -0.6305   -0.7667 N   0  0  0  0  0  0  0  0  0  0  0  0
    8.7365    0.6627   -0.7661 C   0  0  0  0  0  0  0  0  0  0  0  0
    7.7278    0.8309    0.0581 N   0  0  0  0  0  0  0  0  0  0  0  0
    2.4591   -0.8570   -0.2114 C   0  0  0  0  0  0  0  0  0  0  0  0
    1.1815   -0.3999   -0.9116 C   0  0  0  0  0  0  0  0  0  0  0  0
   -3.2505    1.7297   -1.0165 H   0  0  0  0  0  0  0  0  0  0  0  0
   -3.4487    0.3104   -2.0591 H   0  0  0  0  0  0  0  0  0  0  0  0
   -4.9574    0.7018    0.5806 H   0  0  0  0  0  0  0  0  0  0  0  0
   -5.4454   -1.1616   -1.8035 H   0  0  0  0  0  0  0  0  0  0  0  0
   -4.8873   -1.6570   -0.2125 H   0  0  0  0  0  0  0  0  0  0  0  0
   -7.3090   -2.0575   -0.4809 H   0  0  0  0  0  0  0  0  0  0  0  0
   -6.9759   -0.9299    0.8336 H   0  0  0  0  0  0  0  0  0  0  0  0
   -7.9263   -0.2289   -1.9855 H   0  0  0  0  0  0  0  0  0  0  0  0
   -8.8564   -0.0931   -0.4971 H   0  0  0  0  0  0  0  0  0  0  0  0
   -7.9497    2.1051   -1.2770 H   0  0  0  0  0  0  0  0  0  0  0  0
   -7.3947    1.6778    0.3384 H   0  0  0  0  0  0  0  0  0  0  0  0
   -5.5229    2.5553   -0.9565 H   0  0  0  0  0  0  0  0  0  0  0  0
   -5.8287    1.4188   -2.2707 H   0  0  0  0  0  0  0  0  0  0  0  0
   -1.0479    0.9301   -1.3181 H   0  0  0  0  0  0  0  0  0  0  0  0
   -0.2520   -1.3577    0.3808 H   0  0  0  0  0  0  0  0  0  0  0  0
    0.4304    1.5676    0.9764 H   0  0  0  0  0  0  0  0  0  0  0  0
   -0.5294    0.4954    1.9830 H   0  0  0  0  0  0  0  0  0  0  0  0
    1.7947    0.6966    2.8222 H   0  0  0  0  0  0  0  0  0  0  0  0
    1.3930   -0.9636    2.4014 H   0  0  0  0  0  0  0  0  0  0  0  0
    2.9832    1.0296    0.7056 H   0  0  0  0  0  0  0  0  0  0  0  0
    5.2092    0.4945    0.3916 H   0  0  0  0  0  0  0  0  0  0  0  0
    6.4288   -1.6291    2.0251 H   0  0  0  0  0  0  0  0  0  0  0  0
    6.6150    0.0680    2.5114 H   0  0  0  0  0  0  0  0  0  0  0  0
    8.5227   -2.3864    0.2872 H   0  0  0  0  0  0  0  0  0  0  0  0
    9.9316   -1.0068   -1.3211 H   0  0  0  0  0  0  0  0  0  0  0  0
    9.1926    1.4299   -1.3790 H   0  0  0  0  0  0  0  0  0  0  0  0
    3.2919   -0.8155   -0.9247 H   0  0  0  0  0  0  0  0  0  0  0  0
    2.3580   -1.9094    0.0849 H   0  0  0  0  0  0  0  0  0  0  0  0
    0.9591   -1.0776   -1.7459 H   0  0  0  0  0  0  0  0  0  0  0  0
    1.3505    0.5896   -1.3580 H   0  0  0  0  0  0  0  0  0  0  0  0
  1  2  2  0
  2  3  1  0
  3  4  1  0
  4  5  1  0
  5  6  1  0
  6  7  1  0
  7  8  1  0
  8  9  1  0
  2 10  1  0
 10 11  1  0
 11 12  1  0
 12 13  1  0
 13 14  1  0
 14 15  1  0
 15 16  2  0
 15 17  1  0
 17 18  1  0
 18 19  1  0
 19 20  2  0
 20 21  1  0
 21 22  1  0
 22 23  2  0
 14 24  1  0
 24 25  1  0
  9  4  1  0
 25 11  1  0
 23 19  1  0
  3 26  1  0
  3 27  1  0
  4 28  1  0
  5 29  1  0
  5 30  1  0
  6 31  1  0
  6 32  1  0
  7 33  1  0
  7 34  1  0
  8 35  1  0
  8 36  1  0
  9 37  1  0
  9 38  1  0
 10 39  1  0
 11 40  1  0
 12 41  1  0
 12 42  1  0
 13 43  1  0
 13 44  1  0
 14 45  1  0
 17 46  1  0
 18 47  1  0
 18 48  1  0
 20 49  1  0
 21 50  1  0
 22 51  1  0
 24 52  1  0
 24 53  1  0
 25 54  1  0
 25 55  1  0
M  END
$$$$
OCNT-2314120
     RDKit          3D

 35 38  0  0  0  0  0  0  0  0999 V2000
   -2.2399   -0.9832    1.7877 C   0  0  0  0  0  0  0  0  0  0  0  0
   -3.0482   -0.3272    0.6973 C   0  0  0  0  0  0  0  0  0  0  0  0
   -4.4463   -0.3928    0.8179 C   0  0  0  0  0  0  0  0  0  0  0  0
   -5.2604    0.1430   -0.1662 C   0  0  0  0  0  0  0  0  0  0  0  0
   -4.6821    0.7415   -1.2809 C   0  0  0  0  0  0  0  0  0  0  0  0
   -3.3077    0.8386   -1.4380 C   0  0  0  0  0  0  0  0  0  0  0  0
   -2.8842    1.4285   -2.5574 N   0  0  0  0  0  0  0  0  0  0  0  0
   -1.5662    1.5277   -2.7243 C   0  0  0  0  0  0  0  0  0  0  0  0
   -0.6381    1.1138   -1.8662 N   0  0  0  0  0  0  0  0  0  0  0  0
   -1.0702    0.5343   -0.7284 C   0  0  0  0  0  0  0  0  0  0  0  0
   -0.0939    0.1805    0.2391 N   0  0  0  0  0  0  0  0  0  0  0  0
    1.3010    0.0090    0.0642 C   0  0  0  0  0  0  0  0  0  0  0  0
    1.8573   -0.4374   -1.1394 C   0  0  0  0  0  0  0  0  0  0  0  0
    3.2310   -0.6763   -1.2840 C   0  0  0  0  0  0  0  0  0  0  0  0
    4.0414   -0.4813   -0.1632 C   0  0  0  0  0  0  0  0  0  0  0  0
    5.4002   -0.6364   -0.0080 N   0  0  0  0  0  0  0  0  0  0  0  0
    5.7648   -0.3471    1.2805 C   0  0  0  0  0  0  0  0  0  0  0  0
    4.6266    0.0021    1.9712 C   0  0  0  0  0  0  0  0  0  0  0  0
    3.5307   -0.0750    1.0675 C   0  0  0  0  0  0  0  0  0  0  0  0
    2.1443    0.1564    1.1822 C   0  0  0  0  0  0  0  0  0  0  0  0
   -2.4511    0.3291   -0.4425 C   0  0  0  0  0  0  0  0  0  0  0  0
   -1.5143   -1.6848    1.3656 H   0  0  0  0  0  0  0  0  0  0  0  0
   -2.8770   -1.5695    2.4599 H   0  0  0  0  0  0  0  0  0  0  0  0
   -1.7373   -0.2290    2.4000 H   0  0  0  0  0  0  0  0  0  0  0  0
   -4.9082   -0.8759    1.6770 H   0  0  0  0  0  0  0  0  0  0  0  0
   -6.3420    0.0865   -0.0774 H   0  0  0  0  0  0  0  0  0  0  0  0
   -5.3291    1.1472   -2.0567 H   0  0  0  0  0  0  0  0  0  0  0  0
   -1.2183    1.9945   -3.6387 H   0  0  0  0  0  0  0  0  0  0  0  0
   -0.2901    0.7051    1.0848 H   0  0  0  0  0  0  0  0  0  0  0  0
    1.2165   -0.6131   -2.0004 H   0  0  0  0  0  0  0  0  0  0  0  0
    3.6371   -1.0088   -2.2332 H   0  0  0  0  0  0  0  0  0  0  0  0
    6.0306   -0.9257   -0.7429 H   0  0  0  0  0  0  0  0  0  0  0  0
    6.7980   -0.4151    1.5930 H   0  0  0  0  0  0  0  0  0  0  0  0
    4.5843    0.2851    3.0146 H   0  0  0  0  0  0  0  0  0  0  0  0
    1.7408    0.4558    2.1440 H   0  0  0  0  0  0  0  0  0  0  0  0
  1  2  1  0
  2  3  2  0
  3  4  1  0
  4  5  2  0
  5  6  1  0
  6  7  2  0
  7  8  1  0
  8  9  2  0
  9 10  1  0
 10 11  1  0
 11 12  1  0
 12 13  2  0
 13 14  1  0
 14 15  2  0
 15 16  1  0
 16 17  1  0
 17 18  2  0
 18 19  1  0
 19 20  2  0
 10 21  2  0
 21  2  1  0
 21  6  1  0
 20 12  1  0
 19 15  1  0
  1 22  1  0
  1 23  1  0
  1 24  1  0
  3 25  1  0
  4 26  1  0
  5 27  1  0
  8 28  1  0
 11 29  1  0
 13 30  1  0
 14 31  1  0
 16 32  1  0
 17 33  1  0
 18 34  1  0
 20 35  1  0
M  END
$$$$
OCNT-2314135
     RDKit          3D

 41 43  0  0  0  0  0  0  0  0999 V2000
   -4.8474    2.7940    1.2805 C   0  0  0  0  0  0  0  0  0  0  0  0
   -4.8135    1.7230    0.2492 C   0  0  0  0  0  0  0  0  0  0  0  0
   -5.8970    1.4909   -0.5039 N   0  0  0  0  0  0  0  0  0  0  0  0
   -5.5288    0.4825   -1.3037 N   0  0  0  0  0  0  0  0  0  0  0  0
   -6.4661   -0.0281   -2.2737 C   0  0  0  0  0  0  0  0  0  0  0  0
   -4.2486    0.0589   -1.0943 C   0  0  0  0  0  0  0  0  0  0  0  0
   -3.7296    0.8536   -0.0838 C   0  0  0  0  0  0  0  0  0  0  0  0
   -2.3972    0.8307    0.5252 C   0  0  0  0  0  0  0  0  0  0  0  0
   -2.1186    1.5967    1.4406 O   0  0  0  0  0  0  0  0  0  0  0  0
   -1.5349   -0.1013   -0.0260 N   0  0  0  0  0  0  0  0  0  0  0  0
   -0.2016   -0.3744    0.3464 C   0  0  0  0  0  0  0  0  0  0  0  0
    0.4747   -1.3598   -0.3842 C   0  0  0  0  0  0  0  0  0  0  0  0
    1.7989   -1.6939   -0.0829 C   0  0  0  0  0  0  0  0  0  0  0  0
    2.4749   -1.0482    0.9585 C   0  0  0  0  0  0  0  0  0  0  0  0
    3.9088   -1.3992    1.2830 C   0  0  0  0  0  0  0  0  0  0  0  0
    4.9030   -0.9426    0.2416 C   0  0  0  0  0  0  0  0  0  0  0  0
    5.6566   -1.8695   -0.4837 C   0  0  0  0  0  0  0  0  0  0  0  0
    6.5622   -1.3994   -1.4230 C   0  0  0  0  0  0  0  0  0  0  0  0
    6.7656   -0.0900   -1.6861 N   0  0  0  0  0  0  0  0  0  0  0  0
    6.0292    0.7891   -0.9752 C   0  0  0  0  0  0  0  0  0  0  0  0
    5.1024    0.4186   -0.0140 C   0  0  0  0  0  0  0  0  0  0  0  0
    1.7971   -0.0652    1.6892 C   0  0  0  0  0  0  0  0  0  0  0  0
    0.4714    0.2685    1.3850 C   0  0  0  0  0  0  0  0  0  0  0  0
   -4.1544    3.5993    1.0171 H   0  0  0  0  0  0  0  0  0  0  0  0
   -4.5661    2.3939    2.2594 H   0  0  0  0  0  0  0  0  0  0  0  0
   -5.8472    3.2291    1.3749 H   0  0  0  0  0  0  0  0  0  0  0  0
   -7.3708   -0.3431   -1.7475 H   0  0  0  0  0  0  0  0  0  0  0  0
   -6.6922    0.7704   -2.9851 H   0  0  0  0  0  0  0  0  0  0  0  0
   -6.0223   -0.8785   -2.7961 H   0  0  0  0  0  0  0  0  0  0  0  0
   -3.8349   -0.7497   -1.6790 H   0  0  0  0  0  0  0  0  0  0  0  0
   -1.8915   -0.6491   -0.7929 H   0  0  0  0  0  0  0  0  0  0  0  0
   -0.0145   -1.8811   -1.2025 H   0  0  0  0  0  0  0  0  0  0  0  0
    2.3020   -2.4573   -0.6725 H   0  0  0  0  0  0  0  0  0  0  0  0
    3.9730   -2.4865    1.4208 H   0  0  0  0  0  0  0  0  0  0  0  0
    4.1988   -0.9688    2.2494 H   0  0  0  0  0  0  0  0  0  0  0  0
    5.5476   -2.9371   -0.3275 H   0  0  0  0  0  0  0  0  0  0  0  0
    7.1670   -2.0879   -2.0084 H   0  0  0  0  0  0  0  0  0  0  0  0
    6.2096    1.8365   -1.2031 H   0  0  0  0  0  0  0  0  0  0  0  0
    4.5439    1.1789    0.5201 H   0  0  0  0  0  0  0  0  0  0  0  0
    2.2928    0.4574    2.5048 H   0  0  0  0  0  0  0  0  0  0  0  0
   -0.0025    1.0386    1.9850 H   0  0  0  0  0  0  0  0  0  0  0  0
  1  2  1  0
  2  3  2  0
  3  4  1  0
  4  5  1  0
  4  6  1  0
  6  7  2  0
  7  8  1  0
  8  9  2  0
  8 10  1  0
 10 11  1  0
 11 12  1  0
 12 13  2  0
 13 14  1  0
 14 15  1  0
 15 16  1  0
 16 17  2  0
 17 18  1  0
 18 19  2  0
 19 20  1  0
 20 21  2  0
 14 22  2  0
 22 23  1  0
  7  2  1  0
 23 11  2  0
 21 16  1  0
  1 24  1  0
  1 25  1  0
  1 26  1  0
  5 27  1  0
  5 28  1  0
  5 29  1  0
  6 30  1  0
 10 31  1  0
 12 32  1  0
 13 33  1  0
 15 34  1  0
 15 35  1  0
 17 36  1  0
 18 37  1  0
 20 38  1  0
 21 39  1  0
 22 40  1  0
 23 41  1  0
M  END
$$$$
OCNT-2314136
     RDKit          3D

 33 36  0  0  0  0  0  0  0  0999 V2000
   -6.0232   -0.8882   -0.1068 F   0  0  0  0  0  0  0  0  0  0  0  0
   -5.4796    0.1446   -0.7931 C   0  0  0  0  0  0  0  0  0  0  0  0
   -6.4946    0.7778   -1.4193 F   0  0  0  0  0  0  0  0  0  0  0  0
   -4.2625   -0.2246   -1.6716 C   0  0  0  0  0  0  0  0  0  0  0  0
   -3.3780    0.1156   -0.4506 C   0  0  0  0  0  0  0  0  0  0  0  0
   -2.0511    0.8379   -0.7807 C   0  0  0  0  0  0  0  0  0  0  0  0
   -1.9304    1.8455   -1.6139 N   0  0  0  0  0  0  0  0  0  0  0  0
   -0.6071    2.2278   -1.6132 N   0  0  0  0  0  0  0  0  0  0  0  0
    0.0564    1.4223   -0.8139 C   0  0  0  0  0  0  0  0  0  0  0  0
    1.3580    1.4720   -0.4701 N   0  0  0  0  0  0  0  0  0  0  0  0
    2.2057    0.4390   -0.0225 C   0  0  0  0  0  0  0  0  0  0  0  0
    1.9458   -0.9315   -0.2525 C   0  0  0  0  0  0  0  0  0  0  0  0
    2.7858   -1.9309    0.2572 C   0  0  0  0  0  0  0  0  0  0  0  0
    3.8758   -1.5358    0.9981 C   0  0  0  0  0  0  0  0  0  0  0  0
    4.7920   -2.3598    1.5711 O   0  0  0  0  0  0  0  0  0  0  0  0
    5.6744   -1.3982    2.1876 C   0  0  0  0  0  0  0  0  0  0  0  0
    5.2627   -0.0296    1.9814 O   0  0  0  0  0  0  0  0  0  0  0  0
    4.1436   -0.2094    1.2298 C   0  0  0  0  0  0  0  0  0  0  0  0
    3.3331    0.7938    0.7381 C   0  0  0  0  0  0  0  0  0  0  0  0
   -0.8291    0.5468   -0.2484 N   0  0  0  0  0  0  0  0  0  0  0  0
   -4.5207    1.0399    0.0243 C   0  0  0  0  0  0  0  0  0  0  0  0
   -4.1438    0.4280   -2.5455 H   0  0  0  0  0  0  0  0  0  0  0  0
   -4.2231   -1.2674   -2.0000 H   0  0  0  0  0  0  0  0  0  0  0  0
   -3.2287   -0.7431    0.2175 H   0  0  0  0  0  0  0  0  0  0  0  0
    1.8657    2.2874   -0.8055 H   0  0  0  0  0  0  0  0  0  0  0  0
    1.1108   -1.2395   -0.8769 H   0  0  0  0  0  0  0  0  0  0  0  0
    2.5928   -2.9809    0.0654 H   0  0  0  0  0  0  0  0  0  0  0  0
    5.7097   -1.5943    3.2661 H   0  0  0  0  0  0  0  0  0  0  0  0
    6.6808   -1.5296    1.7724 H   0  0  0  0  0  0  0  0  0  0  0  0
    3.5652    1.8316    0.9547 H   0  0  0  0  0  0  0  0  0  0  0  0
   -0.6113   -0.1418    0.4533 H   0  0  0  0  0  0  0  0  0  0  0  0
   -4.4783    2.0742   -0.3354 H   0  0  0  0  0  0  0  0  0  0  0  0
   -4.6970    1.0480    1.1030 H   0  0  0  0  0  0  0  0  0  0  0  0
  1  2  1  0
  2  3  1  0
  2  4  1  0
  4  5  1  0
  5  6  1  0
  6  7  2  0
  7  8  1  0
  8  9  2  0
  9 10  1  0
 10 11  1  0
 11 12  1  0
 12 13  2  0
 13 14  1  0
 14 15  1  0
 15 16  1  0
 16 17  1  0
 17 18  1  0
 18 19  1  0
  9 20  1  0
  5 21  1  0
 21  2  1  0
 20  6  1  0
 19 11  2  0
 18 14  2  0
  4 22  1  0
  4 23  1  0
  5 24  1  0
 10 25  1  0
 12 26  1  0
 13 27  1  0
 16 28  1  0
 16 29  1  0
 19 30  1  0
 20 31  1  0
 21 32  1  0
 21 33  1  0
M  END
$$$$
OCNT-2314144
     RDKit          3D

 42 45  0  0  0  0  0  0  0  0999 V2000
    6.3907    3.7846   -0.5678 F   0  0  0  0  0  0  0  0  0  0  0  0
    5.6572    2.6716   -0.4395 C   0  0  0  0  0  0  0  0  0  0  0  0
    4.5007    2.5215   -1.1875 C   0  0  0  0  0  0  0  0  0  0  0  0
    3.7393    1.3576   -1.0487 C   0  0  0  0  0  0  0  0  0  0  0  0
    4.1097    0.3183   -0.1673 C   0  0  0  0  0  0  0  0  0  0  0  0
    3.2136   -0.9883   -0.0288 C   0  0  0  0  0  0  0  0  0  0  0  0
    3.8934   -2.3838    0.0825 C   0  0  0  0  0  0  0  0  0  0  0  0
    2.7312   -2.7976    1.0103 C   0  0  0  0  0  0  0  0  0  0  0  0
    2.5752   -1.2995    1.3612 C   0  0  0  0  0  0  0  0  0  0  0  0
    1.1114   -0.8100    1.5315 C   0  0  0  0  0  0  0  0  0  0  0  0
    0.1791   -0.9281    0.6144 N   0  0  0  0  0  0  0  0  0  0  0  0
   -0.9258   -0.3565    1.2145 C   0  0  0  0  0  0  0  0  0  0  0  0
   -2.2243   -0.2547    0.5528 C   0  0  0  0  0  0  0  0  0  0  0  0
   -3.3186    0.3236    1.1925 C   0  0  0  0  0  0  0  0  0  0  0  0
   -4.5468    0.4399    0.6173 N   0  0  0  0  0  0  0  0  0  0  0  0
   -4.6404   -0.0452   -0.6390 C   0  0  0  0  0  0  0  0  0  0  0  0
   -5.8387    0.0106   -1.3155 O   0  0  0  0  0  0  0  0  0  0  0  0
   -6.8607    0.7079   -0.5896 C   0  0  0  0  0  0  0  0  0  0  0  0
   -8.1300    0.7375   -1.4223 C   0  0  0  0  0  0  0  0  0  0  0  0
   -9.1834    1.0964   -0.6451 F   0  0  0  0  0  0  0  0  0  0  0  0
   -8.0263    1.6848   -2.3909 F   0  0  0  0  0  0  0  0  0  0  0  0
   -3.5589   -0.6253   -1.2866 C   0  0  0  0  0  0  0  0  0  0  0  0
   -2.3354   -0.7436   -0.7132 N   0  0  0  0  0  0  0  0  0  0  0  0
   -0.6850    0.0919    2.4597 N   0  0  0  0  0  0  0  0  0  0  0  0
    0.6584   -0.2057    2.6684 O   0  0  0  0  0  0  0  0  0  0  0  0
    5.2933    0.5206    0.5747 C   0  0  0  0  0  0  0  0  0  0  0  0
    6.0615    1.6815    0.4422 C   0  0  0  0  0  0  0  0  0  0  0  0
    4.1951    3.3057   -1.8724 H   0  0  0  0  0  0  0  0  0  0  0  0
    2.8303    1.2543   -1.6408 H   0  0  0  0  0  0  0  0  0  0  0  0
    2.4660   -1.0149   -0.8396 H   0  0  0  0  0  0  0  0  0  0  0  0
    4.8698   -2.3932    0.5791 H   0  0  0  0  0  0  0  0  0  0  0  0
    3.9702   -2.9473   -0.8515 H   0  0  0  0  0  0  0  0  0  0  0  0
    3.0062   -3.4527    1.8414 H   0  0  0  0  0  0  0  0  0  0  0  0
    1.8838   -3.2426    0.4752 H   0  0  0  0  0  0  0  0  0  0  0  0
    3.2018   -0.9998    2.2116 H   0  0  0  0  0  0  0  0  0  0  0  0
   -3.2483    0.7185    2.2016 H   0  0  0  0  0  0  0  0  0  0  0  0
   -6.5453    1.7377   -0.3822 H   0  0  0  0  0  0  0  0  0  0  0  0
   -7.0719    0.1876    0.3526 H   0  0  0  0  0  0  0  0  0  0  0  0
   -8.3466   -0.2225   -1.8992 H   0  0  0  0  0  0  0  0  0  0  0  0
   -3.6486   -1.0142   -2.2946 H   0  0  0  0  0  0  0  0  0  0  0  0
    5.6279   -0.2419    1.2754 H   0  0  0  0  0  0  0  0  0  0  0  0
    6.9691    1.8155    1.0217 H   0  0  0  0  0  0  0  0  0  0  0  0
  1  2  1  0
  2  3  1  0
  3  4  2  0
  4  5  1  0
  5  6  1  0
  6  7  1  0
  7  8  1  0
  8  9  1  0
  9 10  1  0
 10 11  2  0
 11 12  1  0
 12 13  1  0
 13 14  1  0
 14 15  2  0
 15 16  1  0
 16 17  1  0
 17 18  1  0
 18 19  1  0
 19 20  1  0
 19 21  1  0
 16 22  2  0
 22 23  1  0
 12 24  2  0
 24 25  1  0
  5 26  2  0
 26 27  1  0
 27  2  2  0
  9  6  1  0
 25 10  1  0
 23 13  2  0
  3 28  1  0
  4 29  1  0
  6 30  1  0
  7 31  1  0
  7 32  1  0
  8 33  1  0
  8 34  1  0
  9 35  1  0
 14 36  1  0
 18 37  1  0
 18 38  1  0
 19 39  1  0
 22 40  1  0
 26 41  1  0
 27 42  1  0
M  END
$$$$
OCNT-2314158
     RDKit          3D

 40 43  0  0  0  0  0  0  0  0999 V2000
    5.6680   -0.6284   -0.5589 C   0  0  0  0  0  0  0  0  0  0  0  0
    4.4661   -1.2745   -1.2267 C   0  0  0  0  0  0  0  0  0  0  0  0
    3.2129   -0.9721   -0.4934 C   0  0  0  0  0  0  0  0  0  0  0  0
    2.6179   -1.6716    0.4492 N   0  0  0  0  0  0  0  0  0  0  0  0
    1.5206   -0.9107    0.7900 C   0  0  0  0  0  0  0  0  0  0  0  0
    0.6281   -1.3464    1.8853 C   0  0  0  0  0  0  0  0  0  0  0  0
    1.4680    0.2172   -0.0114 C   0  0  0  0  0  0  0  0  0  0  0  0
    0.5809    1.3533   -0.0959 C   0  0  0  0  0  0  0  0  0  0  0  0
    1.0317    2.5011   -0.0539 O   0  0  0  0  0  0  0  0  0  0  0  0
   -0.8095    1.1512   -0.1311 N   0  0  0  0  0  0  0  0  0  0  0  0
   -1.5265   -0.0332   -0.5356 C   0  0  0  0  0  0  0  0  0  0  0  0
   -0.9738   -1.0590   -1.2995 C   0  0  0  0  0  0  0  0  0  0  0  0
   -1.7608   -2.1621   -1.6057 C   0  0  0  0  0  0  0  0  0  0  0  0
   -3.0492   -2.3060   -1.2322 N   0  0  0  0  0  0  0  0  0  0  0  0
   -3.5966   -1.2786   -0.5471 C   0  0  0  0  0  0  0  0  0  0  0  0
   -2.9014   -0.1260   -0.1907 C   0  0  0  0  0  0  0  0  0  0  0  0
   -3.5914    0.9477    0.4915 N   0  0  0  0  0  0  0  0  0  0  0  0
   -3.0750    1.0015    1.8911 C   0  0  0  0  0  0  0  0  0  0  0  0
   -1.9308    2.0300    1.8858 C   0  0  0  0  0  0  0  0  0  0  0  0
   -1.6568    2.2540    0.3955 C   0  0  0  0  0  0  0  0  0  0  0  0
   -3.0832    2.1834   -0.1563 C   0  0  0  0  0  0  0  0  0  0  0  0
    2.5747    0.1881   -0.8249 O   0  0  0  0  0  0  0  0  0  0  0  0
    6.5831   -0.8679   -1.1096 H   0  0  0  0  0  0  0  0  0  0  0  0
    5.7873   -0.9835    0.4706 H   0  0  0  0  0  0  0  0  0  0  0  0
    5.5653    0.4618   -0.5273 H   0  0  0  0  0  0  0  0  0  0  0  0
    4.6097   -2.3600   -1.2661 H   0  0  0  0  0  0  0  0  0  0  0  0
    4.3857   -0.9234   -2.2616 H   0  0  0  0  0  0  0  0  0  0  0  0
    0.0872   -0.5024    2.3215 H   0  0  0  0  0  0  0  0  0  0  0  0
   -0.1001   -2.0761    1.5197 H   0  0  0  0  0  0  0  0  0  0  0  0
    1.2083   -1.8177    2.6851 H   0  0  0  0  0  0  0  0  0  0  0  0
    0.0325   -1.0297   -1.6963 H   0  0  0  0  0  0  0  0  0  0  0  0
   -1.3576   -2.9853   -2.1904 H   0  0  0  0  0  0  0  0  0  0  0  0
   -4.6460   -1.3930   -0.2928 H   0  0  0  0  0  0  0  0  0  0  0  0
   -3.8791    1.3417    2.5536 H   0  0  0  0  0  0  0  0  0  0  0  0
   -2.7430    0.0235    2.2625 H   0  0  0  0  0  0  0  0  0  0  0  0
   -1.0599    1.6791    2.4473 H   0  0  0  0  0  0  0  0  0  0  0  0
   -2.2765    2.9614    2.3506 H   0  0  0  0  0  0  0  0  0  0  0  0
   -1.1936    3.2264    0.2051 H   0  0  0  0  0  0  0  0  0  0  0  0
   -3.1338    2.1472   -1.2522 H   0  0  0  0  0  0  0  0  0  0  0  0
   -3.6834    3.0391    0.1773 H   0  0  0  0  0  0  0  0  0  0  0  0
  1  2  1  0
  2  3  1  0
  3  4  2  0
  4  5  1  0
  5  6  1  0
  5  7  2  0
  7  8  1  0
  8  9  2  0
  8 10  1  0
 10 11  1  0
 11 12  2  0
 12 13  1  0
 13 14  2  0
 14 15  1  0
 15 16  2  0
 16 17  1  0
 17 18  1  0
 18 19  1  0
 19 20  1  0
 20 21  1  0
  7 22  1  0
 22  3  1  0
 20 10  1  0
 16 11  1  0
 21 17  1  0
  1 23  1  0
  1 24  1  0
  1 25  1  0
  2 26  1  0
  2 27  1  0
  6 28  1  0
  6 29  1  0
  6 30  1  0
 12 31  1  0
 13 32  1  0
 15 33  1  0
 18 34  1  0
 18 35  1  0
 19 36  1  0
 19 37  1  0
 20 38  1  0
 21 39  1  0
 21 40  1  0
M  END
$$$$
OCNT-2314160
     RDKit          3D

 47 48  0  0  0  0  0  0  0  0999 V2000
    2.2008    2.6529   -1.8401 C   0  0  0  0  0  0  0  0  0  0  0  0
    2.2574    1.3908   -1.1837 O   0  0  0  0  0  0  0  0  0  0  0  0
    1.9685    1.3622    0.1579 C   0  0  0  0  0  0  0  0  0  0  0  0
    1.5794    2.4772    0.9080 C   0  0  0  0  0  0  0  0  0  0  0  0
    1.2877    2.3497    2.2679 C   0  0  0  0  0  0  0  0  0  0  0  0
    1.3836    1.1095    2.8898 C   0  0  0  0  0  0  0  0  0  0  0  0
    1.7735   -0.0073    2.1536 C   0  0  0  0  0  0  0  0  0  0  0  0
    2.0670    0.1023    0.7836 C   0  0  0  0  0  0  0  0  0  0  0  0
    2.4859   -1.1417    0.0166 C   0  0  0  0  0  0  0  0  0  0  0  0
    1.3457   -1.8985   -0.7377 C   0  0  0  0  0  0  0  0  0  0  0  0
    1.9959   -3.0312   -1.5512 C   0  0  0  0  0  0  0  0  0  0  0  0
    0.3549   -2.5001    0.2638 C   0  0  0  0  0  0  0  0  0  0  0  0
    0.7141   -0.9609   -1.6866 N   0  0  0  0  0  0  0  0  0  0  0  0
   -0.7682   -1.0999   -2.4225 S   0  0  0  0  0  0  0  0  0  0  0  0
   -0.9890   -2.4885   -2.7568 O   0  0  0  0  0  0  0  0  0  0  0  0
   -0.8156   -0.0616   -3.4290 O   0  0  0  0  0  0  0  0  0  0  0  0
   -1.9053   -0.6341   -1.1698 C   0  0  0  0  0  0  0  0  0  0  0  0
   -2.9401   -1.4782   -0.8271 C   0  0  0  0  0  0  0  0  0  0  0  0
   -3.8352   -1.1904    0.1488 N   0  0  0  0  0  0  0  0  0  0  0  0
   -3.6970   -0.0181    0.7985 C   0  0  0  0  0  0  0  0  0  0  0  0
   -4.6474    0.2269    1.7859 N   0  0  0  0  0  0  0  0  0  0  0  0
   -2.6947    0.9097    0.4998 C   0  0  0  0  0  0  0  0  0  0  0  0
   -2.5779    2.2123    1.2320 C   0  0  0  0  0  0  0  0  0  0  0  0
   -1.7800    0.5832   -0.5073 C   0  0  0  0  0  0  0  0  0  0  0  0
    1.1844    3.0596   -1.8215 H   0  0  0  0  0  0  0  0  0  0  0  0
    2.4763    2.4955   -2.8873 H   0  0  0  0  0  0  0  0  0  0  0  0
    2.9202    3.3560   -1.4079 H   0  0  0  0  0  0  0  0  0  0  0  0
    1.4916    3.4639    0.4655 H   0  0  0  0  0  0  0  0  0  0  0  0
    0.9881    3.2227    2.8424 H   0  0  0  0  0  0  0  0  0  0  0  0
    1.1596    1.0117    3.9490 H   0  0  0  0  0  0  0  0  0  0  0  0
    1.8476   -0.9692    2.6568 H   0  0  0  0  0  0  0  0  0  0  0  0
    3.2749   -0.8551   -0.6930 H   0  0  0  0  0  0  0  0  0  0  0  0
    2.9825   -1.8320    0.7132 H   0  0  0  0  0  0  0  0  0  0  0  0
    1.2499   -3.6321   -2.0811 H   0  0  0  0  0  0  0  0  0  0  0  0
    2.5617   -3.7092   -0.9022 H   0  0  0  0  0  0  0  0  0  0  0  0
    2.6858   -2.6332   -2.3046 H   0  0  0  0  0  0  0  0  0  0  0  0
   -0.3863   -3.1380   -0.2279 H   0  0  0  0  0  0  0  0  0  0  0  0
   -0.1874   -1.7307    0.8206 H   0  0  0  0  0  0  0  0  0  0  0  0
    0.8751   -3.1289    0.9959 H   0  0  0  0  0  0  0  0  0  0  0  0
    1.2714   -0.1590   -1.9939 H   0  0  0  0  0  0  0  0  0  0  0  0
   -3.0930   -2.4346   -1.3200 H   0  0  0  0  0  0  0  0  0  0  0  0
   -5.2360   -0.6017    1.8328 H   0  0  0  0  0  0  0  0  0  0  0  0
   -4.2124    0.4275    2.6779 H   0  0  0  0  0  0  0  0  0  0  0  0
   -1.8245    2.8624    0.7746 H   0  0  0  0  0  0  0  0  0  0  0  0
   -3.5295    2.7533    1.2094 H   0  0  0  0  0  0  0  0  0  0  0  0
   -2.2842    2.0365    2.2717 H   0  0  0  0  0  0  0  0  0  0  0  0
   -0.9796    1.2680   -0.7734 H   0  0  0  0  0  0  0  0  0  0  0  0
  1  2  1  0
  2  3  1  0
  3  4  2  0
  4  5  1  0
  5  6  2  0
  6  7  1  0
  7  8  2  0
  8  9  1  0
  9 10  1  0
 10 11  1  0
 10 12  1  0
 10 13  1  0
 13 14  1  0
 14 15  2  0
 14 16  2  0
 14 17  1  0
 17 18  1  0
 18 19  2  0
 19 20  1  0
 20 21  1  0
 20 22  2  0
 22 23  1  0
 22 24  1  0
  8  3  1  0
 24 17  2  0
  1 25  1  0
  1 26  1  0
  1 27  1  0
  4 28  1  0
  5 29  1  0
  6 30  1  0
  7 31  1  0
  9 32  1  0
  9 33  1  0
 11 34  1  0
 11 35  1  0
 11 36  1  0
 12 37  1  0
 12 38  1  0
 12 39  1  0
 13 40  1  0
 18 41  1  0
 21 42  1  0
 21 43  1  0
 23 44  1  0
 23 45  1  0
 23 46  1  0
 24 47  1  0
M  END
$$$$
OCNT-2314169
     RDKit          3D

 48 52  0  0  0  0  0  0  0  0999 V2000
   -1.8790   -2.5349   -0.9495 O   0  0  0  0  0  0  0  0  0  0  0  0
   -2.0136   -1.4217   -0.4471 C   0  0  0  0  0  0  0  0  0  0  0  0
   -3.0777   -0.5384   -0.8753 C   0  0  0  0  0  0  0  0  0  0  0  0
   -3.9939    0.2156   -0.1681 C   0  0  0  0  0  0  0  0  0  0  0  0
   -4.3643    0.4354    1.2553 C   0  0  0  0  0  0  0  0  0  0  0  0
   -5.2886    1.6792    1.2858 C   0  0  0  0  0  0  0  0  0  0  0  0
   -6.0056    1.8492   -0.3788 S   0  0  0  0  0  0  0  0  0  0  0  0
   -5.7791    3.1714   -0.9152 O   0  0  0  0  0  0  0  0  0  0  0  0
   -7.2394    1.1072   -0.4958 O   0  0  0  0  0  0  0  0  0  0  0  0
   -4.8182    0.8589   -1.1051 C   0  0  0  0  0  0  0  0  0  0  0  0
   -4.4571    0.4955   -2.3696 C   0  0  0  0  0  0  0  0  0  0  0  0
   -3.4189   -0.3967   -2.2167 N   0  0  0  0  0  0  0  0  0  0  0  0
   -1.1427   -0.9428    0.5339 N   0  0  0  0  0  0  0  0  0  0  0  0
   -0.1246   -1.8674    1.0431 C   0  0  0  0  0  0  0  0  0  0  0  0
    1.2546   -1.6123    0.4045 C   0  0  0  0  0  0  0  0  0  0  0  0
    1.6312   -0.1715    0.4577 N   0  0  0  0  0  0  0  0  0  0  0  0
    3.0022    0.0344    0.7134 C   0  0  0  0  0  0  0  0  0  0  0  0
    3.4582    0.3736    1.9899 C   0  0  0  0  0  0  0  0  0  0  0  0
    4.8165    0.5106    2.2029 C   0  0  0  0  0  0  0  0  0  0  0  0
    5.7498    0.3375    1.2492 N   0  0  0  0  0  0  0  0  0  0  0  0
    5.3321    0.0253    0.0131 C   0  0  0  0  0  0  0  0  0  0  0  0
    6.2912   -0.1406   -0.9779 C   0  0  0  0  0  0  0  0  0  0  0  0
    5.9482   -0.4476   -2.2962 C   0  0  0  0  0  0  0  0  0  0  0  0
    4.6126   -0.5866   -2.6420 C   0  0  0  0  0  0  0  0  0  0  0  0
    3.6318   -0.4271   -1.6641 C   0  0  0  0  0  0  0  0  0  0  0  0
    3.9671   -0.1346   -0.3200 C   0  0  0  0  0  0  0  0  0  0  0  0
    0.6615    0.7167    1.1243 C   0  0  0  0  0  0  0  0  0  0  0  0
   -0.7474    0.4789    0.5393 C   0  0  0  0  0  0  0  0  0  0  0  0
   -3.5047    0.5782    1.9132 H   0  0  0  0  0  0  0  0  0  0  0  0
   -4.9193   -0.4387    1.6163 H   0  0  0  0  0  0  0  0  0  0  0  0
   -6.0903    1.5899    2.0218 H   0  0  0  0  0  0  0  0  0  0  0  0
   -4.7049    2.5866    1.4724 H   0  0  0  0  0  0  0  0  0  0  0  0
   -4.8485    0.7532   -3.3446 H   0  0  0  0  0  0  0  0  0  0  0  0
   -2.9541   -0.8931   -2.9679 H   0  0  0  0  0  0  0  0  0  0  0  0
   -0.4253   -2.9092    0.8897 H   0  0  0  0  0  0  0  0  0  0  0  0
   -0.0695   -1.7121    2.1275 H   0  0  0  0  0  0  0  0  0  0  0  0
    1.2192   -1.9186   -0.6471 H   0  0  0  0  0  0  0  0  0  0  0  0
    1.9947   -2.2440    0.9120 H   0  0  0  0  0  0  0  0  0  0  0  0
    2.7841    0.5037    2.8264 H   0  0  0  0  0  0  0  0  0  0  0  0
    5.2042    0.7639    3.1855 H   0  0  0  0  0  0  0  0  0  0  0  0
    7.3399   -0.0215   -0.7151 H   0  0  0  0  0  0  0  0  0  0  0  0
    6.7256   -0.5671   -3.0459 H   0  0  0  0  0  0  0  0  0  0  0  0
    4.3304   -0.8117   -3.6668 H   0  0  0  0  0  0  0  0  0  0  0  0
    2.5881   -0.5156   -1.9559 H   0  0  0  0  0  0  0  0  0  0  0  0
    0.9368    1.7669    0.9697 H   0  0  0  0  0  0  0  0  0  0  0  0
    0.6368    0.5289    2.2046 H   0  0  0  0  0  0  0  0  0  0  0  0
   -0.7702    0.8482   -0.4934 H   0  0  0  0  0  0  0  0  0  0  0  0
   -1.4801    1.0448    1.1192 H   0  0  0  0  0  0  0  0  0  0  0  0
  1  2  2  0
  2  3  1  0
  3  4  2  0
  4  5  1  0
  5  6  1  0
  6  7  1  0
  7  8  2  0
  7  9  2  0
  7 10  1  0
 10 11  2  0
 11 12  1  0
  2 13  1  0
 13 14  1  0
 14 15  1  0
 15 16  1  0
 16 17  1  0
 17 18  2  0
 18 19  1  0
 19 20  2  0
 20 21  1  0
 21 22  2  0
 22 23  1  0
 23 24  2  0
 24 25  1  0
 25 26  2  0
 16 27  1  0
 27 28  1  0
 12  3  1  0
 28 13  1  0
 10  4  1  0
 26 17  1  0
 26 21  1  0
  5 29  1  0
  5 30  1  0
  6 31  1  0
  6 32  1  0
 11 33  1  0
 12 34  1  0
 14 35  1  0
 14 36  1  0
 15 37  1  0
 15 38  1  0
 18 39  1  0
 19 40  1  0
 22 41  1  0
 23 42  1  0
 24 43  1  0
 25 44  1  0
 27 45  1  0
 27 46  1  0
 28 47  1  0
 28 48  1  0
M  END
$$$$
OCNT-2314176
     RDKit          3D

 38 40  0  0  0  0  0  0  0  0999 V2000
    7.4603    0.3694   -0.9451 F   0  0  0  0  0  0  0  0  0  0  0  0
    6.5199    0.4627    0.0273 C   0  0  0  0  0  0  0  0  0  0  0  0
    6.0953   -0.7924    0.2866 F   0  0  0  0  0  0  0  0  0  0  0  0
    7.1345    0.9347    1.1337 F   0  0  0  0  0  0  0  0  0  0  0  0
    5.3901    1.3751   -0.4284 C   0  0  0  0  0  0  0  0  0  0  0  0
    4.4266    1.6442    0.5958 O   0  0  0  0  0  0  0  0  0  0  0  0
    3.3594    0.8057    0.7403 C   0  0  0  0  0  0  0  0  0  0  0  0
    2.4424    1.2073    1.7152 C   0  0  0  0  0  0  0  0  0  0  0  0
    1.2969    0.4523    1.9797 C   0  0  0  0  0  0  0  0  0  0  0  0
    1.0509   -0.7275    1.2687 C   0  0  0  0  0  0  0  0  0  0  0  0
   -0.1837   -1.5500    1.5405 C   0  0  0  0  0  0  0  0  0  0  0  0
   -1.1432   -1.4423    0.4572 N   0  0  0  0  0  0  0  0  0  0  0  0
   -1.9889   -0.4080    0.1813 C   0  0  0  0  0  0  0  0  0  0  0  0
   -2.7087   -0.8455   -0.9117 C   0  0  0  0  0  0  0  0  0  0  0  0
   -3.7761   -0.1789   -1.6956 C   0  0  0  0  0  0  0  0  0  0  0  0
   -4.8404    0.3004   -0.8321 N   0  0  0  0  0  0  0  0  0  0  0  0
   -5.8697   -0.4399   -0.3180 C   0  0  0  0  0  0  0  0  0  0  0  0
   -6.6169    0.4536    0.4132 C   0  0  0  0  0  0  0  0  0  0  0  0
   -6.0740    1.7114    0.3463 N   0  0  0  0  0  0  0  0  0  0  0  0
   -5.0111    1.5905   -0.4165 C   0  0  0  0  0  0  0  0  0  0  0  0
   -2.2728   -2.1005   -1.2555 N   0  0  0  0  0  0  0  0  0  0  0  0
   -1.3192   -2.4580   -0.4072 N   0  0  0  0  0  0  0  0  0  0  0  0
    1.9744   -1.1295    0.2932 C   0  0  0  0  0  0  0  0  0  0  0  0
    3.1205   -0.3691    0.0312 C   0  0  0  0  0  0  0  0  0  0  0  0
    5.8299    2.3461   -0.6839 H   0  0  0  0  0  0  0  0  0  0  0  0
    4.9219    1.0164   -1.3518 H   0  0  0  0  0  0  0  0  0  0  0  0
    2.6225    2.1213    2.2775 H   0  0  0  0  0  0  0  0  0  0  0  0
    0.6062    0.7972    2.7463 H   0  0  0  0  0  0  0  0  0  0  0  0
    0.0800   -2.6059    1.6717 H   0  0  0  0  0  0  0  0  0  0  0  0
   -0.6912   -1.2230    2.4553 H   0  0  0  0  0  0  0  0  0  0  0  0
   -2.0096    0.5029    0.7617 H   0  0  0  0  0  0  0  0  0  0  0  0
   -4.2286   -0.8660   -2.4192 H   0  0  0  0  0  0  0  0  0  0  0  0
   -3.3721    0.6764   -2.2478 H   0  0  0  0  0  0  0  0  0  0  0  0
   -5.9769   -1.5006   -0.5000 H   0  0  0  0  0  0  0  0  0  0  0  0
   -7.5165    0.2589    0.9827 H   0  0  0  0  0  0  0  0  0  0  0  0
   -4.3405    2.3947   -0.6908 H   0  0  0  0  0  0  0  0  0  0  0  0
    1.8073   -2.0441   -0.2758 H   0  0  0  0  0  0  0  0  0  0  0  0
    3.8010   -0.7399   -0.7275 H   0  0  0  0  0  0  0  0  0  0  0  0
  1  2  1  0
  2  3  1  0
  2  4  1  0
  2  5  1  0
  5  6  1  0
  6  7  1  0
  7  8  1  0
  8  9  2  0
  9 10  1  0
 10 11  1  0
 11 12  1  0
 12 13  1  0
 13 14  2  0
 14 15  1  0
 15 16  1  0
 16 17  1  0
 17 18  2  0
 18 19  1  0
 19 20  2  0
 14 21  1  0
 21 22  2  0
 10 23  2  0
 23 24  1  0
 24  7  2  0
 22 12  1  0
 20 16  1  0
  5 25  1  0
  5 26  1  0
  8 27  1  0
  9 28  1  0
 11 29  1  0
 11 30  1  0
 13 31  1  0
 15 32  1  0
 15 33  1  0
 17 34  1  0
 18 35  1  0
 20 36  1  0
 23 37  1  0
 24 38  1  0
M  END
$$$$
OCNT-2314178
     RDKit          3D

 46 49  0  0  0  0  0  0  0  0999 V2000
    3.8084   -0.5500   -2.4641 C   0  0  0  0  0  0  0  0  0  0  0  0
    3.1666   -0.1537   -1.2597 O   0  0  0  0  0  0  0  0  0  0  0  0
    3.8560   -0.3016   -0.0866 C   0  0  0  0  0  0  0  0  0  0  0  0
    5.2106   -0.6544   -0.0195 C   0  0  0  0  0  0  0  0  0  0  0  0
    5.8556   -0.7797    1.2119 C   0  0  0  0  0  0  0  0  0  0  0  0
    5.1546   -0.5508    2.3884 C   0  0  0  0  0  0  0  0  0  0  0  0
    3.8079   -0.1953    2.3333 C   0  0  0  0  0  0  0  0  0  0  0  0
    3.1355   -0.0635    1.1016 C   0  0  0  0  0  0  0  0  0  0  0  0
    1.6705    0.3221    1.1391 C   0  0  0  0  0  0  0  0  0  0  0  0
    1.3040    1.6327    0.4429 C   0  0  0  0  0  0  0  0  0  0  0  0
   -0.2205    1.5542    0.3107 C   0  0  0  0  0  0  0  0  0  0  0  0
   -0.5641    0.1257    0.4348 N   0  0  0  0  0  0  0  0  0  0  0  0
   -1.5475   -0.3285   -0.4486 C   0  0  0  0  0  0  0  0  0  0  0  0
   -1.2054   -1.2336   -1.3853 N   0  0  0  0  0  0  0  0  0  0  0  0
   -2.1473   -1.6146   -2.2596 C   0  0  0  0  0  0  0  0  0  0  0  0
   -3.4116   -1.1847   -2.3015 N   0  0  0  0  0  0  0  0  0  0  0  0
   -3.7464   -0.3142   -1.3354 C   0  0  0  0  0  0  0  0  0  0  0  0
   -2.8579    0.1326   -0.3614 C   0  0  0  0  0  0  0  0  0  0  0  0
   -3.3801    1.0739    0.6859 C   0  0  0  0  0  0  0  0  0  0  0  0
   -4.7731    0.6613    1.1758 C   0  0  0  0  0  0  0  0  0  0  0  0
   -5.7393    0.1993    0.0769 C   0  0  0  0  0  0  0  0  0  0  0  0
   -5.1498    0.2298   -1.3300 C   0  0  0  0  0  0  0  0  0  0  0  0
    0.6823   -0.6599    0.4933 C   0  0  0  0  0  0  0  0  0  0  0  0
    4.6572    0.1036   -2.6894 H   0  0  0  0  0  0  0  0  0  0  0  0
    4.1147   -1.6006   -2.4251 H   0  0  0  0  0  0  0  0  0  0  0  0
    3.0841   -0.4453   -3.2777 H   0  0  0  0  0  0  0  0  0  0  0  0
    5.7983   -0.8344   -0.9135 H   0  0  0  0  0  0  0  0  0  0  0  0
    6.9065   -1.0544    1.2493 H   0  0  0  0  0  0  0  0  0  0  0  0
    5.6533   -0.6474    3.3492 H   0  0  0  0  0  0  0  0  0  0  0  0
    3.2801   -0.0209    3.2692 H   0  0  0  0  0  0  0  0  0  0  0  0
    1.3696    0.4304    2.1927 H   0  0  0  0  0  0  0  0  0  0  0  0
    1.6206    2.5121    1.0135 H   0  0  0  0  0  0  0  0  0  0  0  0
    1.7487    1.7188   -0.5537 H   0  0  0  0  0  0  0  0  0  0  0  0
   -0.6877    2.1132    1.1285 H   0  0  0  0  0  0  0  0  0  0  0  0
   -0.5390    1.9989   -0.6400 H   0  0  0  0  0  0  0  0  0  0  0  0
   -1.8498   -2.3379   -3.0103 H   0  0  0  0  0  0  0  0  0  0  0  0
   -2.7231    1.1090    1.5608 H   0  0  0  0  0  0  0  0  0  0  0  0
   -3.4160    2.0848    0.2618 H   0  0  0  0  0  0  0  0  0  0  0  0
   -4.6617   -0.1616    1.8951 H   0  0  0  0  0  0  0  0  0  0  0  0
   -5.2189    1.4892    1.7402 H   0  0  0  0  0  0  0  0  0  0  0  0
   -6.6535    0.8042    0.1039 H   0  0  0  0  0  0  0  0  0  0  0  0
   -6.0533   -0.8275    0.3080 H   0  0  0  0  0  0  0  0  0  0  0  0
   -5.1243    1.2601   -1.7056 H   0  0  0  0  0  0  0  0  0  0  0  0
   -5.7875   -0.3458   -2.0107 H   0  0  0  0  0  0  0  0  0  0  0  0
    0.5512   -1.5556    1.1107 H   0  0  0  0  0  0  0  0  0  0  0  0
    1.0214   -0.9710   -0.4996 H   0  0  0  0  0  0  0  0  0  0  0  0
  1  2  1  0
  2  3  1  0
  3  4  2  0
  4  5  1  0
  5  6  2  0
  6  7  1  0
  7  8  2  0
  8  9  1  0
  9 10  1  0
 10 11  1  0
 11 12  1  0
 12 13  1  0
 13 14  1  0
 14 15  2  0
 15 16  1  0
 16 17  2  0
 17 18  1  0
 18 19  1  0
 19 20  1  0
 20 21  1  0
 21 22  1  0
 12 23  1  0
  8  3  1  0
 23  9  1  0
 18 13  2  0
 22 17  1  0
  1 24  1  0
  1 25  1  0
  1 26  1  0
  4 27  1  0
  5 28  1  0
  6 29  1  0
  7 30  1  0
  9 31  1  0
 10 32  1  0
 10 33  1  0
 11 34  1  0
 11 35  1  0
 15 36  1  0
 19 37  1  0
 19 38  1  0
 20 39  1  0
 20 40  1  0
 21 41  1  0
 21 42  1  0
 22 43  1  0
 22 44  1  0
 23 45  1  0
 23 46  1  0
M  END
$$$$
OCNT-2314182
     RDKit          3D

 41 43  0  0  0  0  0  0  0  0999 V2000
    6.2853   -1.4663   -0.1446 C   0  0  0  0  0  0  0  0  0  0  0  0
    6.2818   -0.3407    0.7243 O   0  0  0  0  0  0  0  0  0  0  0  0
    5.1125    0.3632    0.8209 C   0  0  0  0  0  0  0  0  0  0  0  0
    5.1637    1.4606    1.6816 C   0  0  0  0  0  0  0  0  0  0  0  0
    4.0423    2.2655    1.8705 C   0  0  0  0  0  0  0  0  0  0  0  0
    2.8571    1.9745    1.1950 C   0  0  0  0  0  0  0  0  0  0  0  0
    2.7758    0.8764    0.3239 C   0  0  0  0  0  0  0  0  0  0  0  0
    1.5245    0.5689   -0.3882 C   0  0  0  0  0  0  0  0  0  0  0  0
    0.8956    1.5310   -1.1942 C   0  0  0  0  0  0  0  0  0  0  0  0
   -0.2925    1.2406   -1.8733 C   0  0  0  0  0  0  0  0  0  0  0  0
   -0.8793   -0.0256   -1.7672 C   0  0  0  0  0  0  0  0  0  0  0  0
   -2.1708   -0.3412   -2.4757 C   0  0  0  0  0  0  0  0  0  0  0  0
   -3.2971   -0.1579   -1.5958 N   0  0  0  0  0  0  0  0  0  0  0  0
   -3.8858   -1.1980   -0.9118 C   0  0  0  0  0  0  0  0  0  0  0  0
   -3.6092   -2.3803   -1.0789 O   0  0  0  0  0  0  0  0  0  0  0  0
   -4.9136   -0.7739    0.0917 C   0  0  0  0  0  0  0  0  0  0  0  0
   -5.5767   -1.7315    0.8283 C   0  0  0  0  0  0  0  0  0  0  0  0
   -6.4955   -1.2450    1.7229 C   0  0  0  0  0  0  0  0  0  0  0  0
   -6.7478    0.0677    1.8871 N   0  0  0  0  0  0  0  0  0  0  0  0
   -6.0414    0.9098    1.1170 C   0  0  0  0  0  0  0  0  0  0  0  0
   -5.1209    0.5628    0.2102 N   0  0  0  0  0  0  0  0  0  0  0  0
   -0.2647   -0.9880   -0.9568 C   0  0  0  0  0  0  0  0  0  0  0  0
    0.9229   -0.6945   -0.2798 C   0  0  0  0  0  0  0  0  0  0  0  0
    3.9216    0.0763    0.1479 C   0  0  0  0  0  0  0  0  0  0  0  0
    6.0931   -1.1665   -1.1801 H   0  0  0  0  0  0  0  0  0  0  0  0
    7.2833   -1.9135   -0.1079 H   0  0  0  0  0  0  0  0  0  0  0  0
    5.5687   -2.2245    0.1883 H   0  0  0  0  0  0  0  0  0  0  0  0
    6.0867    1.6886    2.2091 H   0  0  0  0  0  0  0  0  0  0  0  0
    4.0909    3.1159    2.5452 H   0  0  0  0  0  0  0  0  0  0  0  0
    1.9865    2.6056    1.3620 H   0  0  0  0  0  0  0  0  0  0  0  0
    1.3370    2.5194   -1.3070 H   0  0  0  0  0  0  0  0  0  0  0  0
   -0.7527    2.0116   -2.4871 H   0  0  0  0  0  0  0  0  0  0  0  0
   -2.1489   -1.3652   -2.8655 H   0  0  0  0  0  0  0  0  0  0  0  0
   -2.3115    0.3289   -3.3308 H   0  0  0  0  0  0  0  0  0  0  0  0
   -3.5346    0.7775   -1.2804 H   0  0  0  0  0  0  0  0  0  0  0  0
   -5.3866   -2.7895    0.7108 H   0  0  0  0  0  0  0  0  0  0  0  0
   -7.0744   -1.9131    2.3545 H   0  0  0  0  0  0  0  0  0  0  0  0
   -6.2374    1.9692    1.2438 H   0  0  0  0  0  0  0  0  0  0  0  0
   -0.7156   -1.9729   -0.8430 H   0  0  0  0  0  0  0  0  0  0  0  0
    1.3697   -1.4611    0.3502 H   0  0  0  0  0  0  0  0  0  0  0  0
    3.8581   -0.7650   -0.5355 H   0  0  0  0  0  0  0  0  0  0  0  0
  1  2  1  0
  2  3  1  0
  3  4  1  0
  4  5  2  0
  5  6  1  0
  6  7  2  0
  7  8  1  0
  8  9  1  0
  9 10  2  0
 10 11  1  0
 11 12  1  0
 12 13  1  0
 13 14  1  0
 14 15  2  0
 14 16  1  0
 16 17  1  0
 17 18  2  0
 18 19  1  0
 19 20  2  0
 20 21  1  0
 11 22  2  0
 22 23  1  0
  7 24  1  0
 24  3  2  0
 23  8  2  0
 21 16  2  0
  1 25  1  0
  1 26  1  0
  1 27  1  0
  4 28  1  0
  5 29  1  0
  6 30  1  0
  9 31  1  0
 10 32  1  0
 12 33  1  0
 12 34  1  0
 13 35  1  0
 17 36  1  0
 18 37  1  0
 20 38  1  0
 22 39  1  0
 23 40  1  0
 24 41  1  0
M  END
$$$$
OCNT-2314210
     RDKit          3D

 34 36  0  0  0  0  0  0  0  0999 V2000
   -3.0896   -2.8106    0.4044 C   0  0  0  0  0  0  0  0  0  0  0  0
   -2.5945   -1.4236    0.1266 C   0  0  0  0  0  0  0  0  0  0  0  0
   -1.2516   -1.2507    0.1135 N   0  0  0  0  0  0  0  0  0  0  0  0
   -0.7283   -0.0290   -0.1575 C   0  0  0  0  0  0  0  0  0  0  0  0
    0.6558    0.1598   -0.1734 N   0  0  0  0  0  0  0  0  0  0  0  0
    1.4196   -0.8380    0.5614 C   0  0  0  0  0  0  0  0  0  0  0  0
    2.8918   -0.5462    0.4085 C   0  0  0  0  0  0  0  0  0  0  0  0
    3.4890   -0.5182   -0.8620 C   0  0  0  0  0  0  0  0  0  0  0  0
    4.8525   -0.2607   -0.9886 C   0  0  0  0  0  0  0  0  0  0  0  0
    5.3916   -0.2366   -2.2161 F   0  0  0  0  0  0  0  0  0  0  0  0
    5.6397   -0.0332    0.1393 C   0  0  0  0  0  0  0  0  0  0  0  0
    7.3240    0.2854   -0.0145 Cl  0  0  0  0  0  0  0  0  0  0  0  0
    5.0622   -0.0637    1.4062 C   0  0  0  0  0  0  0  0  0  0  0  0
    3.6985   -0.3210    1.5287 C   0  0  0  0  0  0  0  0  0  0  0  0
    3.1606   -0.3476    2.7558 F   0  0  0  0  0  0  0  0  0  0  0  0
   -1.6274    1.0079   -0.4322 C   0  0  0  0  0  0  0  0  0  0  0  0
   -1.5813    2.3759   -0.7726 C   0  0  0  0  0  0  0  0  0  0  0  0
   -2.7952    2.9179   -0.9237 N   0  0  0  0  0  0  0  0  0  0  0  0
   -3.6282    1.8757   -0.6926 N   0  0  0  0  0  0  0  0  0  0  0  0
   -5.0529    2.0748   -0.7787 C   0  0  0  0  0  0  0  0  0  0  0  0
   -2.9768    0.7096   -0.3936 C   0  0  0  0  0  0  0  0  0  0  0  0
   -3.5268   -0.4846   -0.1212 N   0  0  0  0  0  0  0  0  0  0  0  0
   -4.0722   -2.7806    0.8850 H   0  0  0  0  0  0  0  0  0  0  0  0
   -3.1721   -3.3662   -0.5342 H   0  0  0  0  0  0  0  0  0  0  0  0
   -2.3999   -3.3399    1.0690 H   0  0  0  0  0  0  0  0  0  0  0  0
    0.9066    1.1169    0.0476 H   0  0  0  0  0  0  0  0  0  0  0  0
    1.1319   -0.8268    1.6197 H   0  0  0  0  0  0  0  0  0  0  0  0
    1.2395   -1.8491    0.1740 H   0  0  0  0  0  0  0  0  0  0  0  0
    2.8954   -0.6927   -1.7567 H   0  0  0  0  0  0  0  0  0  0  0  0
    5.6556    0.1083    2.2986 H   0  0  0  0  0  0  0  0  0  0  0  0
   -0.7107    3.0019   -0.9174 H   0  0  0  0  0  0  0  0  0  0  0  0
   -5.3378    2.8387   -0.0509 H   0  0  0  0  0  0  0  0  0  0  0  0
   -5.2930    2.4047   -1.7927 H   0  0  0  0  0  0  0  0  0  0  0  0
   -5.5761    1.1415   -0.5594 H   0  0  0  0  0  0  0  0  0  0  0  0
  1  2  1  0
  2  3  2  0
  3  4  1  0
  4  5  1  0
  5  6  1  0
  6  7  1  0
  7  8  2  0
  8  9  1  0
  9 10  1  0
  9 11  2  0
 11 12  1  0
 11 13  1  0
 13 14  2  0
 14 15  1  0
  4 16  2  0
 16 17  1  0
 17 18  2  0
 18 19  1  0
 19 20  1  0
 19 21  1  0
 21 22  2  0
 22  2  1  0
 14  7  1  0
 21 16  1  0
  1 23  1  0
  1 24  1  0
  1 25  1  0
  5 26  1  0
  6 27  1  0
  6 28  1  0
  8 29  1  0
 13 30  1  0
 17 31  1  0
 20 32  1  0
 20 33  1  0
 20 34  1  0
M  END
$$$$
OCNT-2314213
     RDKit          3D

 59 61  0  0  0  0  0  0  0  0999 V2000
   -4.0814   -2.6936    2.0569 C   0  0  0  0  0  0  0  0  0  0  0  0
   -3.3175   -1.6668    1.2266 C   0  0  0  0  0  0  0  0  0  0  0  0
   -1.9378   -1.4002    1.8394 C   0  0  0  0  0  0  0  0  0  0  0  0
   -1.1470   -0.4624    1.0624 N   0  0  0  0  0  0  0  0  0  0  0  0
   -0.5379   -0.8202   -0.1183 C   0  0  0  0  0  0  0  0  0  0  0  0
   -0.4909   -1.9692   -0.5390 O   0  0  0  0  0  0  0  0  0  0  0  0
    0.0829    0.2912   -0.8897 C   0  0  0  0  0  0  0  0  0  0  0  0
   -0.6439    1.4862   -1.0381 C   0  0  0  0  0  0  0  0  0  0  0  0
   -0.1303    2.5335   -1.7995 C   0  0  0  0  0  0  0  0  0  0  0  0
    1.0983    2.3874   -2.4335 C   0  0  0  0  0  0  0  0  0  0  0  0
    1.8202    1.1989   -2.3019 C   0  0  0  0  0  0  0  0  0  0  0  0
    1.3417    0.1358   -1.5097 C   0  0  0  0  0  0  0  0  0  0  0  0
    2.1281   -1.1566   -1.3914 C   0  0  0  0  0  0  0  0  0  0  0  0
    3.5685   -0.9443   -1.3294 N   0  0  0  0  0  0  0  0  0  0  0  0
    4.3122   -0.5591   -0.2498 C   0  0  0  0  0  0  0  0  0  0  0  0
    5.6029   -0.5245   -0.7296 C   0  0  0  0  0  0  0  0  0  0  0  0
    6.8095   -0.1697   -0.0014 C   0  0  0  0  0  0  0  0  0  0  0  0
    6.7739    0.2449    1.3394 C   0  0  0  0  0  0  0  0  0  0  0  0
    7.9508    0.5801    2.0165 C   0  0  0  0  0  0  0  0  0  0  0  0
    9.1778    0.5055    1.3609 C   0  0  0  0  0  0  0  0  0  0  0  0
    9.2233    0.0960    0.0307 C   0  0  0  0  0  0  0  0  0  0  0  0
   10.7393    0.0043   -0.7790 Cl  0  0  0  0  0  0  0  0  0  0  0  0
    8.0522   -0.2395   -0.6494 C   0  0  0  0  0  0  0  0  0  0  0  0
    5.5937   -0.8919   -2.0532 N   0  0  0  0  0  0  0  0  0  0  0  0
    4.3438   -1.1564   -2.4075 N   0  0  0  0  0  0  0  0  0  0  0  0
   -4.1196   -0.3824    1.1408 C   0  0  0  0  0  0  0  0  0  0  0  0
   -3.8389    0.6561    1.7239 O   0  0  0  0  0  0  0  0  0  0  0  0
   -5.1793   -0.5602    0.3057 O   0  0  0  0  0  0  0  0  0  0  0  0
   -6.0932    0.5286    0.0154 C   0  0  0  0  0  0  0  0  0  0  0  0
   -6.8221    0.9949    1.2799 C   0  0  0  0  0  0  0  0  0  0  0  0
   -5.3731    1.6824   -0.6914 C   0  0  0  0  0  0  0  0  0  0  0  0
   -7.1236   -0.0742   -0.9512 C   0  0  0  0  0  0  0  0  0  0  0  0
   -4.2683   -2.3236    3.0715 H   0  0  0  0  0  0  0  0  0  0  0  0
   -5.0540   -2.9202    1.6066 H   0  0  0  0  0  0  0  0  0  0  0  0
   -3.5200   -3.6308    2.1319 H   0  0  0  0  0  0  0  0  0  0  0  0
   -3.1846   -2.0440    0.2049 H   0  0  0  0  0  0  0  0  0  0  0  0
   -1.3735   -2.3376    1.9129 H   0  0  0  0  0  0  0  0  0  0  0  0
   -2.0250   -0.9818    2.8487 H   0  0  0  0  0  0  0  0  0  0  0  0
   -1.1916    0.5130    1.3367 H   0  0  0  0  0  0  0  0  0  0  0  0
   -1.6300    1.5999   -0.5927 H   0  0  0  0  0  0  0  0  0  0  0  0
   -0.6976    3.4534   -1.9174 H   0  0  0  0  0  0  0  0  0  0  0  0
    1.4942    3.1946   -3.0462 H   0  0  0  0  0  0  0  0  0  0  0  0
    2.7669    1.1151   -2.8364 H   0  0  0  0  0  0  0  0  0  0  0  0
    1.8965   -1.6953   -0.4674 H   0  0  0  0  0  0  0  0  0  0  0  0
    1.9134   -1.8088   -2.2449 H   0  0  0  0  0  0  0  0  0  0  0  0
    3.8665   -0.3533    0.7109 H   0  0  0  0  0  0  0  0  0  0  0  0
    5.8331    0.3155    1.8789 H   0  0  0  0  0  0  0  0  0  0  0  0
    7.9084    0.8997    3.0549 H   0  0  0  0  0  0  0  0  0  0  0  0
   10.0908    0.7667    1.8891 H   0  0  0  0  0  0  0  0  0  0  0  0
    8.1099   -0.5577   -1.6889 H   0  0  0  0  0  0  0  0  0  0  0  0
   -6.1487    1.5050    1.9753 H   0  0  0  0  0  0  0  0  0  0  0  0
   -7.6332    1.6915    1.0382 H   0  0  0  0  0  0  0  0  0  0  0  0
   -7.2457    0.1408    1.8206 H   0  0  0  0  0  0  0  0  0  0  0  0
   -6.0848    2.4298   -1.0600 H   0  0  0  0  0  0  0  0  0  0  0  0
   -4.7854    1.3123   -1.5391 H   0  0  0  0  0  0  0  0  0  0  0  0
   -4.6731    2.1968   -0.0259 H   0  0  0  0  0  0  0  0  0  0  0  0
   -7.6328   -0.9303   -0.4933 H   0  0  0  0  0  0  0  0  0  0  0  0
   -6.6344   -0.4530   -1.8557 H   0  0  0  0  0  0  0  0  0  0  0  0
   -7.8802    0.6597   -1.2488 H   0  0  0  0  0  0  0  0  0  0  0  0
  1  2  1  0
  2  3  1  0
  3  4  1  0
  4  5  1  0
  5  6  2  0
  5  7  1  0
  7  8  2  0
  8  9  1  0
  9 10  2  0
 10 11  1  0
 11 12  2  0
 12 13  1  0
 13 14  1  0
 14 15  1  0
 15 16  2  0
 16 17  1  0
 17 18  2  0
 18 19  1  0
 19 20  2  0
 20 21  1  0
 21 22  1  0
 21 23  2  0
 16 24  1  0
 24 25  2  0
  2 26  1  0
 26 27  2  0
 26 28  1  0
 28 29  1  0
 29 30  1  0
 29 31  1  0
 29 32  1  0
 12  7  1  0
 25 14  1  0
 23 17  1  0
  1 33  1  0
  1 34  1  0
  1 35  1  0
  2 36  1  0
  3 37  1  0
  3 38  1  0
  4 39  1  0
  8 40  1  0
  9 41  1  0
 10 42  1  0
 11 43  1  0
 13 44  1  0
 13 45  1  0
 15 46  1  0
 18 47  1  0
 19 48  1  0
 20 49  1  0
 23 50  1  0
 30 51  1  0
 30 52  1  0
 30 53  1  0
 31 54  1  0
 31 55  1  0
 31 56  1  0
 32 57  1  0
 32 58  1  0
 32 59  1  0
M  END
$$$$
OCNT-2314219
     RDKit          3D

 36 38  0  0  0  0  0  0  0  0999 V2000
   -4.1178   -0.5269   -1.1799 C   0  0  0  0  0  0  0  0  0  0  0  0
   -3.5657    0.4759   -0.1981 C   0  0  0  0  0  0  0  0  0  0  0  0
   -4.4371    1.1835    0.6587 C   0  0  0  0  0  0  0  0  0  0  0  0
   -6.3244    0.9285    0.6271 Br  0  0  0  0  0  0  0  0  0  0  0  0
   -3.9508    2.1231    1.5733 C   0  0  0  0  0  0  0  0  0  0  0  0
   -2.5884    2.3851    1.6450 C   0  0  0  0  0  0  0  0  0  0  0  0
   -1.7130    1.7168    0.7949 C   0  0  0  0  0  0  0  0  0  0  0  0
   -2.1820    0.7718   -0.1388 C   0  0  0  0  0  0  0  0  0  0  0  0
   -1.1469    0.1025   -1.0210 C   0  0  0  0  0  0  0  0  0  0  0  0
   -0.6150   -1.1927   -0.3962 C   0  0  0  0  0  0  0  0  0  0  0  0
    0.4085   -1.7882   -1.2476 N   0  0  0  0  0  0  0  0  0  0  0  0
    1.7459   -1.6487   -0.8802 C   0  0  0  0  0  0  0  0  0  0  0  0
    2.5559   -2.6851   -1.2274 N   0  0  0  0  0  0  0  0  0  0  0  0
    3.8712   -2.6239   -0.9251 C   0  0  0  0  0  0  0  0  0  0  0  0
    4.5339   -1.6394   -0.2907 N   0  0  0  0  0  0  0  0  0  0  0  0
    3.6977   -0.6389    0.0346 C   0  0  0  0  0  0  0  0  0  0  0  0
    2.3377   -0.5606   -0.2125 C   0  0  0  0  0  0  0  0  0  0  0  0
    1.8575    0.6266    0.2861 N   0  0  0  0  0  0  0  0  0  0  0  0
    2.8711    1.2882    0.8361 N   0  0  0  0  0  0  0  0  0  0  0  0
    3.9768    0.5306    0.6793 N   0  0  0  0  0  0  0  0  0  0  0  0
    5.2448    0.9914    1.1719 C   0  0  0  0  0  0  0  0  0  0  0  0
   -4.6016   -0.0075   -2.0131 H   0  0  0  0  0  0  0  0  0  0  0  0
   -3.3518   -1.1869   -1.5925 H   0  0  0  0  0  0  0  0  0  0  0  0
   -4.8389   -1.1929   -0.6950 H   0  0  0  0  0  0  0  0  0  0  0  0
   -4.6292    2.6594    2.2319 H   0  0  0  0  0  0  0  0  0  0  0  0
   -2.2071    3.1142    2.3549 H   0  0  0  0  0  0  0  0  0  0  0  0
   -0.6477    1.9412    0.8586 H   0  0  0  0  0  0  0  0  0  0  0  0
   -0.3233    0.8044   -1.2034 H   0  0  0  0  0  0  0  0  0  0  0  0
   -1.5569   -0.0863   -2.0203 H   0  0  0  0  0  0  0  0  0  0  0  0
   -1.4380   -1.9129   -0.3086 H   0  0  0  0  0  0  0  0  0  0  0  0
   -0.2594   -1.0329    0.6295 H   0  0  0  0  0  0  0  0  0  0  0  0
    0.2570   -2.7657   -1.4835 H   0  0  0  0  0  0  0  0  0  0  0  0
    4.4666   -3.4791   -1.2330 H   0  0  0  0  0  0  0  0  0  0  0  0
    6.0207    0.2548    0.9515 H   0  0  0  0  0  0  0  0  0  0  0  0
    5.1656    1.1328    2.2528 H   0  0  0  0  0  0  0  0  0  0  0  0
    5.4839    1.9379    0.6806 H   0  0  0  0  0  0  0  0  0  0  0  0
  1  2  1  0
  2  3  2  0
  3  4  1  0
  3  5  1  0
  5  6  2  0
  6  7  1  0
  7  8  2  0
  8  9  1  0
  9 10  1  0
 10 11  1  0
 11 12  1  0
 12 13  1  0
 13 14  2  0
 14 15  1  0
 15 16  2  0
 16 17  1  0
 17 18  1  0
 18 19  2  0
 19 20  1  0
 20 21  1  0
  8  2  1  0
 17 12  2  0
 20 16  1  0
  1 22  1  0
  1 23  1  0
  1 24  1  0
  5 25  1  0
  6 26  1  0
  7 27  1  0
  9 28  1  0
  9 29  1  0
 10 30  1  0
 10 31  1  0
 11 32  1  0
 14 33  1  0
 21 34  1  0
 21 35  1  0
 21 36  1  0
M  END
$$$$
OCNT-2314223
     RDKit          3D

 38 40  0  0  0  0  0  0  0  0999 V2000
   -0.2241    0.6646    2.6613 C   0  0  0  0  0  0  0  0  0  0  0  0
   -0.9780    0.2035    1.5191 N   0  0  0  0  0  0  0  0  0  0  0  0
   -2.3246    0.2098    1.6398 N   0  0  0  0  0  0  0  0  0  0  0  0
   -2.7964   -0.0404    0.4115 C   0  0  0  0  0  0  0  0  0  0  0  0
   -4.2378   -0.0939    0.1422 C   0  0  0  0  0  0  0  0  0  0  0  0
   -4.7335   -0.2923   -1.1492 C   0  0  0  0  0  0  0  0  0  0  0  0
   -6.1071   -0.3322   -1.3356 C   0  0  0  0  0  0  0  0  0  0  0  0
   -7.0067   -0.1905   -0.3413 N   0  0  0  0  0  0  0  0  0  0  0  0
   -6.5106   -0.0000    0.8987 C   0  0  0  0  0  0  0  0  0  0  0  0
   -5.1573    0.0551    1.1857 C   0  0  0  0  0  0  0  0  0  0  0  0
   -1.7178   -0.2226   -0.4911 C   0  0  0  0  0  0  0  0  0  0  0  0
   -0.5562   -0.1120    0.2475 C   0  0  0  0  0  0  0  0  0  0  0  0
    0.7257   -0.2599   -0.2603 N   0  0  0  0  0  0  0  0  0  0  0  0
    1.8695   -0.5121    0.4766 C   0  0  0  0  0  0  0  0  0  0  0  0
    1.9277   -0.6864    1.6868 O   0  0  0  0  0  0  0  0  0  0  0  0
    3.1098   -0.5982   -0.4085 C   0  0  0  0  0  0  0  0  0  0  0  0
    3.4164    0.7442   -1.1050 C   0  0  0  0  0  0  0  0  0  0  0  0
    4.8338    1.1223   -0.6843 C   0  0  0  0  0  0  0  0  0  0  0  0
    5.4655   -0.2132   -0.3720 C   0  0  0  0  0  0  0  0  0  0  0  0
    5.7728   -0.8587   -1.5214 F   0  0  0  0  0  0  0  0  0  0  0  0
    6.5913   -0.0903    0.3486 F   0  0  0  0  0  0  0  0  0  0  0  0
    4.3834   -0.9624    0.3672 C   0  0  0  0  0  0  0  0  0  0  0  0
    0.6122    1.2792    2.3224 H   0  0  0  0  0  0  0  0  0  0  0  0
    0.1000   -0.2043    3.2373 H   0  0  0  0  0  0  0  0  0  0  0  0
   -0.8706    1.2881    3.2871 H   0  0  0  0  0  0  0  0  0  0  0  0
   -4.0837   -0.4138   -2.0068 H   0  0  0  0  0  0  0  0  0  0  0  0
   -6.5327   -0.4841   -2.3235 H   0  0  0  0  0  0  0  0  0  0  0  0
   -7.2522    0.1111    1.6845 H   0  0  0  0  0  0  0  0  0  0  0  0
   -4.8286    0.2108    2.2087 H   0  0  0  0  0  0  0  0  0  0  0  0
   -1.7784   -0.4443   -1.5460 H   0  0  0  0  0  0  0  0  0  0  0  0
    0.7870   -0.3900   -1.2642 H   0  0  0  0  0  0  0  0  0  0  0  0
    2.9229   -1.3685   -1.1687 H   0  0  0  0  0  0  0  0  0  0  0  0
    2.7125    1.5446   -0.8547 H   0  0  0  0  0  0  0  0  0  0  0  0
    3.3784    0.6034   -2.1922 H   0  0  0  0  0  0  0  0  0  0  0  0
    5.3611    1.6581   -1.4787 H   0  0  0  0  0  0  0  0  0  0  0  0
    4.8170    1.7591    0.2074 H   0  0  0  0  0  0  0  0  0  0  0  0
    4.5571   -2.0432    0.3557 H   0  0  0  0  0  0  0  0  0  0  0  0
    4.3522   -0.6405    1.4140 H   0  0  0  0  0  0  0  0  0  0  0  0
  1  2  1  0
  2  3  1  0
  3  4  2  0
  4  5  1  0
  5  6  2  0
  6  7  1  0
  7  8  2  0
  8  9  1  0
  9 10  2  0
  4 11  1  0
 11 12  2  0
 12 13  1  0
 13 14  1  0
 14 15  2  0
 14 16  1  0
 16 17  1  0
 17 18  1  0
 18 19  1  0
 19 20  1  0
 19 21  1  0
 19 22  1  0
 12  2  1  0
 22 16  1  0
 10  5  1  0
  1 23  1  0
  1 24  1  0
  1 25  1  0
  6 26  1  0
  7 27  1  0
  9 28  1  0
 10 29  1  0
 11 30  1  0
 13 31  1  0
 16 32  1  0
 17 33  1  0
 17 34  1  0
 18 35  1  0
 18 36  1  0
 22 37  1  0
 22 38  1  0
M  END
$$$$
OCNT-2314226
     RDKit          3D

 48 50  0  0  0  0  0  0  0  0999 V2000
   -5.5498    1.3923   -0.1714 C   0  0  0  0  0  0  0  0  0  0  0  0
   -4.0085    1.3954   -0.0545 C   0  0  0  0  0  0  0  0  0  0  0  0
   -3.6450    2.2805    1.1572 C   0  0  0  0  0  0  0  0  0  0  0  0
   -3.4556    2.0439   -1.3423 C   0  0  0  0  0  0  0  0  0  0  0  0
   -3.3958   -0.0050    0.1253 C   0  0  0  0  0  0  0  0  0  0  0  0
   -4.1719   -1.1675    0.1815 C   0  0  0  0  0  0  0  0  0  0  0  0
   -3.5751   -2.4190    0.3467 C   0  0  0  0  0  0  0  0  0  0  0  0
   -2.1905   -2.5469    0.4642 C   0  0  0  0  0  0  0  0  0  0  0  0
   -1.7666   -3.8351    0.6075 O   0  0  0  0  0  0  0  0  0  0  0  0
   -1.3721   -1.4154    0.4131 C   0  0  0  0  0  0  0  0  0  0  0  0
    0.0434   -1.3707    0.4871 N   0  0  0  0  0  0  0  0  0  0  0  0
    0.9368   -2.3826    0.7554 C   0  0  0  0  0  0  0  0  0  0  0  0
    0.6589   -3.5323    1.0716 O   0  0  0  0  0  0  0  0  0  0  0  0
    2.3664   -1.9861    0.6772 C   0  0  0  0  0  0  0  0  0  0  0  0
    3.2431   -2.4335    1.6687 C   0  0  0  0  0  0  0  0  0  0  0  0
    4.5844   -2.0576    1.6273 C   0  0  0  0  0  0  0  0  0  0  0  0
    5.0539   -1.2520    0.5878 C   0  0  0  0  0  0  0  0  0  0  0  0
    4.1928   -0.8264   -0.4358 C   0  0  0  0  0  0  0  0  0  0  0  0
    4.7177    0.0327   -1.5606 C   0  0  0  0  0  0  0  0  0  0  0  0
    4.5051    1.4415   -1.2907 N   0  0  0  0  0  0  0  0  0  0  0  0
    3.4635    2.2156   -1.7000 C   0  0  0  0  0  0  0  0  0  0  0  0
    3.6279    3.4414   -1.2597 N   0  0  0  0  0  0  0  0  0  0  0  0
    4.8185    3.3699   -0.5919 C   0  0  0  0  0  0  0  0  0  0  0  0
    5.4007    2.1674   -0.5923 N   0  0  0  0  0  0  0  0  0  0  0  0
    2.8395   -1.1968   -0.3813 C   0  0  0  0  0  0  0  0  0  0  0  0
   -1.9962   -0.1609    0.2418 C   0  0  0  0  0  0  0  0  0  0  0  0
   -6.0219    0.9777    0.7269 H   0  0  0  0  0  0  0  0  0  0  0  0
   -5.9385    2.4099   -0.2985 H   0  0  0  0  0  0  0  0  0  0  0  0
   -5.8878    0.8084   -1.0356 H   0  0  0  0  0  0  0  0  0  0  0  0
   -4.1005    3.2742    1.0717 H   0  0  0  0  0  0  0  0  0  0  0  0
   -2.5641    2.4313    1.2518 H   0  0  0  0  0  0  0  0  0  0  0  0
   -3.9977    1.8315    2.0934 H   0  0  0  0  0  0  0  0  0  0  0  0
   -3.9056    3.0289   -1.5132 H   0  0  0  0  0  0  0  0  0  0  0  0
   -3.6697    1.4225   -2.2200 H   0  0  0  0  0  0  0  0  0  0  0  0
   -2.3709    2.1911   -1.3005 H   0  0  0  0  0  0  0  0  0  0  0  0
   -5.2546   -1.1394    0.0993 H   0  0  0  0  0  0  0  0  0  0  0  0
   -4.1975   -3.3106    0.3849 H   0  0  0  0  0  0  0  0  0  0  0  0
   -0.8118   -3.8319    0.8280 H   0  0  0  0  0  0  0  0  0  0  0  0
    0.4428   -0.4434    0.4088 H   0  0  0  0  0  0  0  0  0  0  0  0
    2.8811   -3.0646    2.4780 H   0  0  0  0  0  0  0  0  0  0  0  0
    5.2658   -2.3900    2.4074 H   0  0  0  0  0  0  0  0  0  0  0  0
    6.1031   -0.9574    0.5816 H   0  0  0  0  0  0  0  0  0  0  0  0
    5.7915   -0.1240   -1.7172 H   0  0  0  0  0  0  0  0  0  0  0  0
    4.2141   -0.2139   -2.5028 H   0  0  0  0  0  0  0  0  0  0  0  0
    2.6379    1.8507   -2.2947 H   0  0  0  0  0  0  0  0  0  0  0  0
    5.2732    4.2178   -0.0951 H   0  0  0  0  0  0  0  0  0  0  0  0
    2.1601   -0.8929   -1.1747 H   0  0  0  0  0  0  0  0  0  0  0  0
   -1.3746    0.7315    0.2008 H   0  0  0  0  0  0  0  0  0  0  0  0
  1  2  1  0
  2  3  1  0
  2  4  1  0
  2  5  1  0
  5  6  1  0
  6  7  2  0
  7  8  1  0
  8  9  1  0
  8 10  2  0
 10 11  1  0
 11 12  1  0
 12 13  2  0
 12 14  1  0
 14 15  1  0
 15 16  2  0
 16 17  1  0
 17 18  2  0
 18 19  1  0
 19 20  1  0
 20 21  1  0
 21 22  2  0
 22 23  1  0
 23 24  2  0
 18 25  1  0
 10 26  1  0
 26  5  2  0
 25 14  2  0
 24 20  1  0
  1 27  1  0
  1 28  1  0
  1 29  1  0
  3 30  1  0
  3 31  1  0
  3 32  1  0
  4 33  1  0
  4 34  1  0
  4 35  1  0
  6 36  1  0
  7 37  1  0
  9 38  1  0
 11 39  1  0
 15 40  1  0
 16 41  1  0
 17 42  1  0
 19 43  1  0
 19 44  1  0
 21 45  1  0
 23 46  1  0
 25 47  1  0
 26 48  1  0
M  END
$$$$
OCNT-2314233
     RDKit          3D

 48 50  0  0  0  0  0  0  0  0999 V2000
   -4.3995    2.0299    2.1240 C   0  0  0  0  0  0  0  0  0  0  0  0
   -3.6989    0.8979    1.6238 O   0  0  0  0  0  0  0  0  0  0  0  0
   -4.4051    0.0084    0.8548 C   0  0  0  0  0  0  0  0  0  0  0  0
   -5.7928    0.0493    0.6744 C   0  0  0  0  0  0  0  0  0  0  0  0
   -6.4306   -0.8882   -0.1408 C   0  0  0  0  0  0  0  0  0  0  0  0
   -5.6886   -1.8720   -0.7841 C   0  0  0  0  0  0  0  0  0  0  0  0
   -4.3072   -1.9250   -0.6069 C   0  0  0  0  0  0  0  0  0  0  0  0
   -3.6465   -1.0001    0.2241 C   0  0  0  0  0  0  0  0  0  0  0  0
   -2.1326   -1.0480    0.3842 C   0  0  0  0  0  0  0  0  0  0  0  0
   -1.4446   -0.1234   -0.6531 C   0  0  0  0  0  0  0  0  0  0  0  0
    0.0139   -0.0847   -0.4822 N   0  0  0  0  0  0  0  0  0  0  0  0
    0.7150    0.9639   -1.0659 C   0  0  0  0  0  0  0  0  0  0  0  0
    0.1906    1.8109   -1.7850 O   0  0  0  0  0  0  0  0  0  0  0  0
    2.1699    1.0786   -0.8155 C   0  0  0  0  0  0  0  0  0  0  0  0
    3.0328    1.2014   -1.9074 C   0  0  0  0  0  0  0  0  0  0  0  0
    4.4066    1.3319   -1.6958 C   0  0  0  0  0  0  0  0  0  0  0  0
    4.9245    1.3598   -0.3926 C   0  0  0  0  0  0  0  0  0  0  0  0
    6.4093    1.4865   -0.1666 C   0  0  0  0  0  0  0  0  0  0  0  0
    7.1023    0.1344   -0.1448 C   0  0  0  0  0  0  0  0  0  0  0  0
    8.4310    0.3272    0.0774 F   0  0  0  0  0  0  0  0  0  0  0  0
    4.0474    1.2557    0.6971 C   0  0  0  0  0  0  0  0  0  0  0  0
    2.6728    1.1253    0.4882 C   0  0  0  0  0  0  0  0  0  0  0  0
    0.6256   -1.2834    0.1007 C   0  0  0  0  0  0  0  0  0  0  0  0
   -0.2382   -2.5389   -0.1153 C   0  0  0  0  0  0  0  0  0  0  0  0
   -1.6212   -2.4455    0.3683 N   0  0  0  0  0  0  0  0  0  0  0  0
   -4.8460    2.6128    1.3116 H   0  0  0  0  0  0  0  0  0  0  0  0
   -3.6747    2.6717    2.6339 H   0  0  0  0  0  0  0  0  0  0  0  0
   -5.1531    1.7307    2.8596 H   0  0  0  0  0  0  0  0  0  0  0  0
   -6.4104    0.8004    1.1553 H   0  0  0  0  0  0  0  0  0  0  0  0
   -7.5082   -0.8463   -0.2759 H   0  0  0  0  0  0  0  0  0  0  0  0
   -6.1816   -2.5984   -1.4247 H   0  0  0  0  0  0  0  0  0  0  0  0
   -3.7394   -2.6975   -1.1226 H   0  0  0  0  0  0  0  0  0  0  0  0
   -1.8757   -0.6673    1.3824 H   0  0  0  0  0  0  0  0  0  0  0  0
   -1.8334    0.8998   -0.5825 H   0  0  0  0  0  0  0  0  0  0  0  0
   -1.6426   -0.4708   -1.6758 H   0  0  0  0  0  0  0  0  0  0  0  0
    2.6336    1.2009   -2.9193 H   0  0  0  0  0  0  0  0  0  0  0  0
    5.0676    1.4242   -2.5555 H   0  0  0  0  0  0  0  0  0  0  0  0
    6.8558    2.1179   -0.9449 H   0  0  0  0  0  0  0  0  0  0  0  0
    6.6041    2.0153    0.7747 H   0  0  0  0  0  0  0  0  0  0  0  0
    6.7177   -0.5065    0.6548 H   0  0  0  0  0  0  0  0  0  0  0  0
    6.9936   -0.3939   -1.0971 H   0  0  0  0  0  0  0  0  0  0  0  0
    4.4282    1.2912    1.7160 H   0  0  0  0  0  0  0  0  0  0  0  0
    1.9985    1.0799    1.3392 H   0  0  0  0  0  0  0  0  0  0  0  0
    0.7453   -1.0974    1.1742 H   0  0  0  0  0  0  0  0  0  0  0  0
    1.6173   -1.4487   -0.3316 H   0  0  0  0  0  0  0  0  0  0  0  0
    0.2456   -3.4025    0.3545 H   0  0  0  0  0  0  0  0  0  0  0  0
   -0.2785   -2.7546   -1.1903 H   0  0  0  0  0  0  0  0  0  0  0  0
   -1.6994   -2.8133    1.3153 H   0  0  0  0  0  0  0  0  0  0  0  0
  1  2  1  0
  2  3  1  0
  3  4  2  0
  4  5  1  0
  5  6  2  0
  6  7  1  0
  7  8  2  0
  8  9  1  0
  9 10  1  0
 10 11  1  0
 11 12  1  0
 12 13  2  0
 12 14  1  0
 14 15  1  0
 15 16  2  0
 16 17  1  0
 17 18  1  0
 18 19  1  0
 19 20  1  0
 17 21  2  0
 21 22  1  0
 11 23  1  0
 23 24  1  0
 24 25  1  0
  8  3  1  0
 25  9  1  0
 22 14  2  0
  1 26  1  0
  1 27  1  0
  1 28  1  0
  4 29  1  0
  5 30  1  0
  6 31  1  0
  7 32  1  0
  9 33  1  0
 10 34  1  0
 10 35  1  0
 15 36  1  0
 16 37  1  0
 18 38  1  0
 18 39  1  0
 19 40  1  0
 19 41  1  0
 21 42  1  0
 22 43  1  0
 23 44  1  0
 23 45  1  0
 24 46  1  0
 24 47  1  0
 25 48  1  0
M  END
$$$$
OCNT-2314235
     RDKit          3D

 46 49  0  0  0  0  0  0  0  0999 V2000
   -2.7873    0.6616   -2.1230 C   0  0  0  0  0  0  0  0  0  0  0  0
   -2.7608   -0.7860   -1.6580 C   0  0  0  0  0  0  0  0  0  0  0  0
   -3.5060   -0.9908   -0.3766 C   0  0  0  0  0  0  0  0  0  0  0  0
   -4.7917   -1.4956   -0.2648 C   0  0  0  0  0  0  0  0  0  0  0  0
   -5.1386   -1.4981    1.0602 N   0  0  0  0  0  0  0  0  0  0  0  0
   -4.1111   -0.9994    1.8094 C   0  0  0  0  0  0  0  0  0  0  0  0
   -4.1560   -0.8497    3.1405 N   0  0  0  0  0  0  0  0  0  0  0  0
   -3.0151   -0.3214    3.6061 C   0  0  0  0  0  0  0  0  0  0  0  0
   -1.9109    0.0178    2.9130 N   0  0  0  0  0  0  0  0  0  0  0  0
   -1.8884   -0.1770    1.5663 C   0  0  0  0  0  0  0  0  0  0  0  0
   -0.7273    0.1234    0.8275 N   0  0  0  0  0  0  0  0  0  0  0  0
    0.0928   -1.0847    0.6749 C   0  0  0  0  0  0  0  0  0  0  0  0
    1.1785   -0.8220   -0.3742 C   0  0  0  0  0  0  0  0  0  0  0  0
    1.8963    0.5016   -0.1922 C   0  0  0  0  0  0  0  0  0  0  0  0
    3.0823    0.7976   -0.9046 C   0  0  0  0  0  0  0  0  0  0  0  0
    3.7193   -0.1889   -1.8616 C   0  0  0  0  0  0  0  0  0  0  0  0
    4.5030   -1.2890   -1.1733 C   0  0  0  0  0  0  0  0  0  0  0  0
    5.5918   -0.8897   -0.4493 N   0  0  0  0  0  0  0  0  0  0  0  0
    4.2273   -2.4804   -1.2783 O   0  0  0  0  0  0  0  0  0  0  0  0
    3.6952    2.0524   -0.7270 C   0  0  0  0  0  0  0  0  0  0  0  0
    3.1458    3.0030    0.1293 C   0  0  0  0  0  0  0  0  0  0  0  0
    1.9663    2.7210    0.8124 C   0  0  0  0  0  0  0  0  0  0  0  0
    1.3208    1.4844    0.6465 C   0  0  0  0  0  0  0  0  0  0  0  0
    0.0405    1.2221    1.4268 C   0  0  0  0  0  0  0  0  0  0  0  0
   -3.0575   -0.6920    0.9595 C   0  0  0  0  0  0  0  0  0  0  0  0
   -3.8162    0.9998   -2.2943 H   0  0  0  0  0  0  0  0  0  0  0  0
   -2.3348    1.3290   -1.3810 H   0  0  0  0  0  0  0  0  0  0  0  0
   -2.2301    0.7691   -3.0587 H   0  0  0  0  0  0  0  0  0  0  0  0
   -3.2019   -1.4183   -2.4398 H   0  0  0  0  0  0  0  0  0  0  0  0
   -1.7253   -1.1202   -1.5518 H   0  0  0  0  0  0  0  0  0  0  0  0
   -5.4879   -1.8419   -1.0175 H   0  0  0  0  0  0  0  0  0  0  0  0
   -6.0194   -1.8015    1.4486 H   0  0  0  0  0  0  0  0  0  0  0  0
   -2.9733   -0.1465    4.6766 H   0  0  0  0  0  0  0  0  0  0  0  0
   -0.5018   -1.9453    0.3434 H   0  0  0  0  0  0  0  0  0  0  0  0
    0.5546   -1.3619    1.6329 H   0  0  0  0  0  0  0  0  0  0  0  0
    0.7221   -0.8213   -1.3711 H   0  0  0  0  0  0  0  0  0  0  0  0
    1.8899   -1.6500   -0.3256 H   0  0  0  0  0  0  0  0  0  0  0  0
    2.9479   -0.6439   -2.4928 H   0  0  0  0  0  0  0  0  0  0  0  0
    4.3974    0.3282   -2.5532 H   0  0  0  0  0  0  0  0  0  0  0  0
    6.0366   -1.6237    0.0891 H   0  0  0  0  0  0  0  0  0  0  0  0
    5.6055    0.0374   -0.0433 H   0  0  0  0  0  0  0  0  0  0  0  0
    4.5984    2.3061   -1.2777 H   0  0  0  0  0  0  0  0  0  0  0  0
    3.6255    3.9720    0.2469 H   0  0  0  0  0  0  0  0  0  0  0  0
    1.5407    3.4763    1.4700 H   0  0  0  0  0  0  0  0  0  0  0  0
    0.3335    1.0028    2.4629 H   0  0  0  0  0  0  0  0  0  0  0  0
   -0.5708    2.1335    1.4161 H   0  0  0  0  0  0  0  0  0  0  0  0
  1  2  1  0
  2  3  1  0
  3  4  2  0
  4  5  1  0
  5  6  1  0
  6  7  2  0
  7  8  1  0
  8  9  2  0
  9 10  1  0
 10 11  1  0
 11 12  1  0
 12 13  1  0
 13 14  1  0
 14 15  2  0
 15 16  1  0
 16 17  1  0
 17 18  1  0
 17 19  2  0
 15 20  1  0
 20 21  2  0
 21 22  1  0
 22 23  2  0
 23 24  1  0
 10 25  2  0
 25  3  1  0
 25  6  1  0
 24 11  1  0
 23 14  1  0
  1 26  1  0
  1 27  1  0
  1 28  1  0
  2 29  1  0
  2 30  1  0
  4 31  1  0
  5 32  1  0
  8 33  1  0
 12 34  1  0
 12 35  1  0
 13 36  1  0
 13 37  1  0
 16 38  1  0
 16 39  1  0
 18 40  1  0
 18 41  1  0
 20 42  1  0
 21 43  1  0
 22 44  1  0
 24 45  1  0
 24 46  1  0
M  END
$$$$
OCNT-2314237
     RDKit          3D

 42 45  0  0  0  0  0  0  0  0999 V2000
    6.2437    0.4626   -1.5397 C   0  0  0  0  0  0  0  0  0  0  0  0
    6.5084    1.2084   -0.3955 C   0  0  0  0  0  0  0  0  0  0  0  0
    5.6760    1.1222    0.7250 C   0  0  0  0  0  0  0  0  0  0  0  0
    4.5655    0.2636    0.6642 C   0  0  0  0  0  0  0  0  0  0  0  0
    3.3740   -0.0570    1.8632 S   0  0  0  0  0  0  0  0  0  0  0  0
    2.5782   -1.1422    0.7896 C   0  0  0  0  0  0  0  0  0  0  0  0
    1.3275   -1.8680    1.2332 C   0  0  0  0  0  0  0  0  0  0  0  0
    0.0477   -1.3294    0.7392 N   0  0  0  0  0  0  0  0  0  0  0  0
   -0.2166    0.0484    1.1294 C   0  0  0  0  0  0  0  0  0  0  0  0
   -1.7000    0.3869    0.9255 C   0  0  0  0  0  0  0  0  0  0  0  0
   -2.3258   -0.3001   -0.3072 C   0  0  0  0  0  0  0  0  0  0  0  0
   -3.4179    0.5603   -0.9637 C   0  0  0  0  0  0  0  0  0  0  0  0
   -4.6126    0.7574   -0.0948 C   0  0  0  0  0  0  0  0  0  0  0  0
   -4.9798    1.8624    0.6438 C   0  0  0  0  0  0  0  0  0  0  0  0
   -6.1534    1.5143    1.2523 N   0  0  0  0  0  0  0  0  0  0  0  0
   -6.4550    0.2404    0.8664 C   0  0  0  0  0  0  0  0  0  0  0  0
   -5.5465   -0.2422    0.0514 N   0  0  0  0  0  0  0  0  0  0  0  0
   -1.2286   -0.6534   -1.3165 C   0  0  0  0  0  0  0  0  0  0  0  0
   -0.1639   -1.5690   -0.6930 C   0  0  0  0  0  0  0  0  0  0  0  0
    3.1548   -1.2947   -0.3855 N   0  0  0  0  0  0  0  0  0  0  0  0
    4.2803   -0.4936   -0.4727 C   0  0  0  0  0  0  0  0  0  0  0  0
    5.1355   -0.3895   -1.5885 C   0  0  0  0  0  0  0  0  0  0  0  0
    6.9004    0.5394   -2.4031 H   0  0  0  0  0  0  0  0  0  0  0  0
    7.3742    1.8670   -0.3700 H   0  0  0  0  0  0  0  0  0  0  0  0
    5.8842    1.7037    1.6178 H   0  0  0  0  0  0  0  0  0  0  0  0
    1.4147   -2.9180    0.9237 H   0  0  0  0  0  0  0  0  0  0  0  0
    1.2866   -1.9034    2.3298 H   0  0  0  0  0  0  0  0  0  0  0  0
    0.4036    0.7469    0.5530 H   0  0  0  0  0  0  0  0  0  0  0  0
    0.0202    0.2098    2.1882 H   0  0  0  0  0  0  0  0  0  0  0  0
   -1.7905    1.4778    0.8542 H   0  0  0  0  0  0  0  0  0  0  0  0
   -2.2687    0.0863    1.8152 H   0  0  0  0  0  0  0  0  0  0  0  0
   -2.7833   -1.2424    0.0280 H   0  0  0  0  0  0  0  0  0  0  0  0
   -3.7520    0.0792   -1.8921 H   0  0  0  0  0  0  0  0  0  0  0  0
   -3.0060    1.5350   -1.2545 H   0  0  0  0  0  0  0  0  0  0  0  0
   -4.5203    2.8300    0.7848 H   0  0  0  0  0  0  0  0  0  0  0  0
   -6.7034    2.0900    1.8743 H   0  0  0  0  0  0  0  0  0  0  0  0
   -7.3408   -0.2784    1.2074 H   0  0  0  0  0  0  0  0  0  0  0  0
   -0.7516    0.2691   -1.6737 H   0  0  0  0  0  0  0  0  0  0  0  0
   -1.6578   -1.1482   -2.1959 H   0  0  0  0  0  0  0  0  0  0  0  0
    0.7525   -1.4450   -1.2796 H   0  0  0  0  0  0  0  0  0  0  0  0
   -0.4784   -2.6124   -0.8170 H   0  0  0  0  0  0  0  0  0  0  0  0
    4.9246   -0.9742   -2.4783 H   0  0  0  0  0  0  0  0  0  0  0  0
  1  2  2  0
  2  3  1  0
  3  4  2  0
  4  5  1  0
  5  6  1  0
  6  7  1  0
  7  8  1  0
  8  9  1  0
  9 10  1  0
 10 11  1  0
 11 12  1  0
 12 13  1  0
 13 14  2  0
 14 15  1  0
 15 16  1  0
 16 17  2  0
 11 18  1  0
 18 19  1  0
  6 20  2  0
 20 21  1  0
 21 22  2  0
 22  1  1  0
 21  4  1  0
 19  8  1  0
 17 13  1  0
  1 23  1  0
  2 24  1  0
  3 25  1  0
  7 26  1  0
  7 27  1  0
  9 28  1  0
  9 29  1  0
 10 30  1  0
 10 31  1  0
 11 32  1  0
 12 33  1  0
 12 34  1  0
 14 35  1  0
 15 36  1  0
 16 37  1  0
 18 38  1  0
 18 39  1  0
 19 40  1  0
 19 41  1  0
 22 42  1  0
M  END
$$$$
OCNT-2314242
     RDKit          3D

 43 46  0  0  0  0  0  0  0  0999 V2000
   -2.3928    2.1613   -1.0571 C   0  0  0  0  0  0  0  0  0  0  0  0
   -2.6367    1.4017    0.2459 C   0  0  0  0  0  0  0  0  0  0  0  0
   -1.8777    2.0247    1.4189 C   0  0  0  0  0  0  0  0  0  0  0  0
   -2.4503   -0.0396    0.0884 N   0  0  0  0  0  0  0  0  0  0  0  0
   -3.4945   -0.9340   -0.0894 C   0  0  0  0  0  0  0  0  0  0  0  0
   -4.8848   -0.7860   -0.2070 C   0  0  0  0  0  0  0  0  0  0  0  0
   -5.6454   -1.9502   -0.3721 C   0  0  0  0  0  0  0  0  0  0  0  0
   -5.0432   -3.2071   -0.4182 C   0  0  0  0  0  0  0  0  0  0  0  0
   -3.6551   -3.3355   -0.3030 C   0  0  0  0  0  0  0  0  0  0  0  0
   -2.8783   -2.1787   -0.1397 C   0  0  0  0  0  0  0  0  0  0  0  0
   -1.5234   -2.0594   -0.0161 N   0  0  0  0  0  0  0  0  0  0  0  0
   -1.2712   -0.7681    0.0910 C   0  0  0  0  0  0  0  0  0  0  0  0
    0.0803   -0.2308    0.2142 C   0  0  0  0  0  0  0  0  0  0  0  0
    0.7351    0.3202   -0.8942 C   0  0  0  0  0  0  0  0  0  0  0  0
    2.0320    0.8240   -0.7689 C   0  0  0  0  0  0  0  0  0  0  0  0
    2.6898    0.7433    0.4599 C   0  0  0  0  0  0  0  0  0  0  0  0
    3.9405    1.2812    0.6394 O   0  0  0  0  0  0  0  0  0  0  0  0
    4.9877    0.6891   -0.0549 C   0  0  0  0  0  0  0  0  0  0  0  0
    6.2041    1.3591   -0.0498 C   0  0  0  0  0  0  0  0  0  0  0  0
    7.3098    0.8777   -0.6711 N   0  0  0  0  0  0  0  0  0  0  0  0
    7.1429   -0.3132   -1.2905 C   0  0  0  0  0  0  0  0  0  0  0  0
    5.9321   -0.9878   -1.2904 C   0  0  0  0  0  0  0  0  0  0  0  0
    4.8297   -0.5050   -0.6738 N   0  0  0  0  0  0  0  0  0  0  0  0
    2.0510    0.1894    1.5685 C   0  0  0  0  0  0  0  0  0  0  0  0
    0.7540   -0.3124    1.4407 C   0  0  0  0  0  0  0  0  0  0  0  0
   -1.3369    2.1643   -1.3384 H   0  0  0  0  0  0  0  0  0  0  0  0
   -2.7089    3.2053   -0.9566 H   0  0  0  0  0  0  0  0  0  0  0  0
   -2.9579    1.7180   -1.8842 H   0  0  0  0  0  0  0  0  0  0  0  0
   -3.6967    1.5354    0.4938 H   0  0  0  0  0  0  0  0  0  0  0  0
   -2.2845    3.0169    1.6452 H   0  0  0  0  0  0  0  0  0  0  0  0
   -1.9689    1.4123    2.3222 H   0  0  0  0  0  0  0  0  0  0  0  0
   -0.8161    2.1640    1.1988 H   0  0  0  0  0  0  0  0  0  0  0  0
   -5.3686    0.1839   -0.1757 H   0  0  0  0  0  0  0  0  0  0  0  0
   -6.7266   -1.8721   -0.4662 H   0  0  0  0  0  0  0  0  0  0  0  0
   -5.6543   -4.0970   -0.5468 H   0  0  0  0  0  0  0  0  0  0  0  0
   -3.1756   -4.3072   -0.3413 H   0  0  0  0  0  0  0  0  0  0  0  0
    0.2435    0.3463   -1.8637 H   0  0  0  0  0  0  0  0  0  0  0  0
    2.5300    1.2569   -1.6314 H   0  0  0  0  0  0  0  0  0  0  0  0
    6.3223    2.3088    0.4589 H   0  0  0  0  0  0  0  0  0  0  0  0
    8.0160   -0.7167   -1.7907 H   0  0  0  0  0  0  0  0  0  0  0  0
    5.8156   -1.9433   -1.7894 H   0  0  0  0  0  0  0  0  0  0  0  0
    2.5642    0.1322    2.5239 H   0  0  0  0  0  0  0  0  0  0  0  0
    0.2679   -0.7721    2.2985 H   0  0  0  0  0  0  0  0  0  0  0  0
  1  2  1  0
  2  3  1  0
  2  4  1  0
  4  5  1  0
  5  6  2  0
  6  7  1  0
  7  8  2  0
  8  9  1  0
  9 10  2  0
 10 11  1  0
 11 12  2  0
 12 13  1  0
 13 14  1  0
 14 15  2  0
 15 16  1  0
 16 17  1  0
 17 18  1  0
 18 19  2  0
 19 20  1  0
 20 21  2  0
 21 22  1  0
 22 23  2  0
 16 24  2  0
 24 25  1  0
 12  4  1  0
 25 13  2  0
 10  5  1  0
 23 18  1  0
  1 26  1  0
  1 27  1  0
  1 28  1  0
  2 29  1  0
  3 30  1  0
  3 31  1  0
  3 32  1  0
  6 33  1  0
  7 34  1  0
  8 35  1  0
  9 36  1  0
 14 37  1  0
 15 38  1  0
 19 39  1  0
 21 40  1  0
 22 41  1  0
 24 42  1  0
 25 43  1  0
M  END
$$$$
OCNT-2314243
     RDKit          3D

 49 52  0  0  0  0  0  0  0  0999 V2000
    6.7232    1.3559    0.3631 C   0  0  0  0  0  0  0  0  0  0  0  0
    5.4789    0.6509    0.7275 C   0  0  0  0  0  0  0  0  0  0  0  0
    4.7885    0.9278    1.8400 N   0  0  0  0  0  0  0  0  0  0  0  0
    3.7618    0.0686    1.7376 N   0  0  0  0  0  0  0  0  0  0  0  0
    3.8538   -0.6860    0.6043 C   0  0  0  0  0  0  0  0  0  0  0  0
    2.8494   -1.7296    0.2574 C   0  0  0  0  0  0  0  0  0  0  0  0
    1.4612   -1.2162    0.2972 N   0  0  0  0  0  0  0  0  0  0  0  0
    0.5490   -2.3855    0.3071 C   0  0  0  0  0  0  0  0  0  0  0  0
   -0.9032   -2.0253    0.2621 C   0  0  0  0  0  0  0  0  0  0  0  0
   -1.5287   -0.7828    0.2600 C   0  0  0  0  0  0  0  0  0  0  0  0
   -0.8495    0.5301    0.4842 C   0  0  0  0  0  0  0  0  0  0  0  0
    0.2717    0.8556   -0.5409 C   0  0  0  0  0  0  0  0  0  0  0  0
   -0.3277    1.3789   -1.8604 C   0  0  0  0  0  0  0  0  0  0  0  0
    1.1281    1.9908    0.0654 C   0  0  0  0  0  0  0  0  0  0  0  0
    1.1855   -0.3621   -0.8805 C   0  0  0  0  0  0  0  0  0  0  0  0
   -2.9007   -1.0239    0.1699 N   0  0  0  0  0  0  0  0  0  0  0  0
   -4.0122   -0.1408    0.0058 C   0  0  0  0  0  0  0  0  0  0  0  0
   -5.2952   -0.5957    0.3613 C   0  0  0  0  0  0  0  0  0  0  0  0
   -6.4131    0.2294    0.2147 C   0  0  0  0  0  0  0  0  0  0  0  0
   -6.2672    1.5118   -0.3048 C   0  0  0  0  0  0  0  0  0  0  0  0
   -5.0068    1.9627   -0.6891 C   0  0  0  0  0  0  0  0  0  0  0  0
   -3.8851    1.1385   -0.5418 C   0  0  0  0  0  0  0  0  0  0  0  0
   -3.1547   -2.3605    0.2610 N   0  0  0  0  0  0  0  0  0  0  0  0
   -1.9643   -2.9454    0.2561 C   0  0  0  0  0  0  0  0  0  0  0  0
    4.9365   -0.3341   -0.0576 N   0  0  0  0  0  0  0  0  0  0  0  0
    7.3619    0.7175   -0.2579 H   0  0  0  0  0  0  0  0  0  0  0  0
    7.2928    1.6383    1.2554 H   0  0  0  0  0  0  0  0  0  0  0  0
    6.4912    2.2647   -0.2028 H   0  0  0  0  0  0  0  0  0  0  0  0
    3.0305    0.0616    2.4395 H   0  0  0  0  0  0  0  0  0  0  0  0
    3.0815   -2.1658   -0.7230 H   0  0  0  0  0  0  0  0  0  0  0  0
    2.9701   -2.5331    0.9966 H   0  0  0  0  0  0  0  0  0  0  0  0
    0.7183   -2.9572    1.2290 H   0  0  0  0  0  0  0  0  0  0  0  0
    0.7687   -3.0531   -0.5377 H   0  0  0  0  0  0  0  0  0  0  0  0
   -1.5425    1.3682    0.5760 H   0  0  0  0  0  0  0  0  0  0  0  0
   -0.3996    0.4653    1.4871 H   0  0  0  0  0  0  0  0  0  0  0  0
   -0.9040    2.2965   -1.7005 H   0  0  0  0  0  0  0  0  0  0  0  0
   -0.9907    0.6378   -2.3199 H   0  0  0  0  0  0  0  0  0  0  0  0
    0.4609    1.6121   -2.5853 H   0  0  0  0  0  0  0  0  0  0  0  0
    1.5687    1.6939    1.0217 H   0  0  0  0  0  0  0  0  0  0  0  0
    0.5217    2.8854    0.2489 H   0  0  0  0  0  0  0  0  0  0  0  0
    1.9447    2.2783   -0.6063 H   0  0  0  0  0  0  0  0  0  0  0  0
    0.7578   -0.9581   -1.6997 H   0  0  0  0  0  0  0  0  0  0  0  0
    2.1174    0.0368   -1.3049 H   0  0  0  0  0  0  0  0  0  0  0  0
   -5.4385   -1.5945    0.7713 H   0  0  0  0  0  0  0  0  0  0  0  0
   -7.3955   -0.1343    0.5044 H   0  0  0  0  0  0  0  0  0  0  0  0
   -7.1363    2.1534   -0.4238 H   0  0  0  0  0  0  0  0  0  0  0  0
   -4.8967    2.9545   -1.1213 H   0  0  0  0  0  0  0  0  0  0  0  0
   -2.9440    1.5120   -0.9194 H   0  0  0  0  0  0  0  0  0  0  0  0
   -1.9177   -4.0271    0.2731 H   0  0  0  0  0  0  0  0  0  0  0  0
  1  2  1  0
  2  3  2  0
  3  4  1  0
  4  5  1  0
  5  6  1  0
  6  7  1  0
  7  8  1  0
  8  9  1  0
  9 10  2  0
 10 11  1  0
 11 12  1  0
 12 13  1  0
 12 14  1  0
 12 15  1  0
 10 16  1  0
 16 17  1  0
 17 18  2  0
 18 19  1  0
 19 20  2  0
 20 21  1  0
 21 22  2  0
 16 23  1  0
 23 24  2  0
  5 25  2  0
 25  2  1  0
 15  7  1  0
 22 17  1  0
 24  9  1  0
  1 26  1  0
  1 27  1  0
  1 28  1  0
  4 29  1  0
  6 30  1  0
  6 31  1  0
  8 32  1  0
  8 33  1  0
 11 34  1  0
 11 35  1  0
 13 36  1  0
 13 37  1  0
 13 38  1  0
 14 39  1  0
 14 40  1  0
 14 41  1  0
 15 42  1  0
 15 43  1  0
 18 44  1  0
 19 45  1  0
 20 46  1  0
 21 47  1  0
 22 48  1  0
 24 49  1  0
M  END
$$$$
OCNT-2314254
     RDKit          3D

 42 45  0  0  0  0  0  0  0  0999 V2000
   -1.7287   -2.0554    2.2644 O   0  0  0  0  0  0  0  0  0  0  0  0
   -1.6162   -1.1299    1.4656 C   0  0  0  0  0  0  0  0  0  0  0  0
   -0.4220   -0.4966    1.2343 N   0  0  0  0  0  0  0  0  0  0  0  0
    0.8197   -0.9796    1.8039 C   0  0  0  0  0  0  0  0  0  0  0  0
    1.9718    0.0068    1.5463 C   0  0  0  0  0  0  0  0  0  0  0  0
    2.0544    0.4620    0.1381 N   0  0  0  0  0  0  0  0  0  0  0  0
    2.3825   -0.6262   -0.8177 C   0  0  0  0  0  0  0  0  0  0  0  0
    3.7750   -1.2728   -0.6362 C   0  0  0  0  0  0  0  0  0  0  0  0
    4.7788   -0.2092   -0.3288 C   0  0  0  0  0  0  0  0  0  0  0  0
    4.4432    1.0925   -0.0092 C   0  0  0  0  0  0  0  0  0  0  0  0
    5.6119    1.8657    0.2704 C   0  0  0  0  0  0  0  0  0  0  0  0
    6.7679    1.1224    0.1557 C   0  0  0  0  0  0  0  0  0  0  0  0
    6.4500   -0.5008   -0.2879 S   0  0  0  0  0  0  0  0  0  0  0  0
    3.0209    1.5800   -0.0027 C   0  0  0  0  0  0  0  0  0  0  0  0
   -2.7336   -0.6440    0.6883 C   0  0  0  0  0  0  0  0  0  0  0  0
   -2.8606    0.3904   -0.2241 C   0  0  0  0  0  0  0  0  0  0  0  0
   -4.2048    0.4162   -0.6916 C   0  0  0  0  0  0  0  0  0  0  0  0
   -4.9088    1.2225   -1.6064 C   0  0  0  0  0  0  0  0  0  0  0  0
   -6.2654    0.9678   -1.8398 C   0  0  0  0  0  0  0  0  0  0  0  0
   -6.9181   -0.0697   -1.1770 C   0  0  0  0  0  0  0  0  0  0  0  0
   -6.2390   -0.8820   -0.2637 C   0  0  0  0  0  0  0  0  0  0  0  0
   -4.8834   -0.6128   -0.0436 C   0  0  0  0  0  0  0  0  0  0  0  0
   -3.9776   -1.2306    0.7837 N   0  0  0  0  0  0  0  0  0  0  0  0
   -0.3300    0.1118    0.4311 H   0  0  0  0  0  0  0  0  0  0  0  0
    0.6796   -1.1256    2.8808 H   0  0  0  0  0  0  0  0  0  0  0  0
    1.0317   -1.9606    1.3648 H   0  0  0  0  0  0  0  0  0  0  0  0
    2.9105   -0.4318    1.9029 H   0  0  0  0  0  0  0  0  0  0  0  0
    1.7770    0.8862    2.1747 H   0  0  0  0  0  0  0  0  0  0  0  0
    1.6127   -1.4058   -0.7974 H   0  0  0  0  0  0  0  0  0  0  0  0
    2.3227   -0.2040   -1.8308 H   0  0  0  0  0  0  0  0  0  0  0  0
    4.0467   -1.8172   -1.5475 H   0  0  0  0  0  0  0  0  0  0  0  0
    3.7439   -1.9927    0.1902 H   0  0  0  0  0  0  0  0  0  0  0  0
    5.6082    2.9152    0.5392 H   0  0  0  0  0  0  0  0  0  0  0  0
    7.7861    1.4522    0.3098 H   0  0  0  0  0  0  0  0  0  0  0  0
    2.8690    2.3278    0.7848 H   0  0  0  0  0  0  0  0  0  0  0  0
    2.8246    2.0914   -0.9537 H   0  0  0  0  0  0  0  0  0  0  0  0
   -2.0781    1.0707   -0.5319 H   0  0  0  0  0  0  0  0  0  0  0  0
   -4.4081    2.0335   -2.1265 H   0  0  0  0  0  0  0  0  0  0  0  0
   -6.8138    1.5873   -2.5451 H   0  0  0  0  0  0  0  0  0  0  0  0
   -7.9728   -0.2513   -1.3714 H   0  0  0  0  0  0  0  0  0  0  0  0
   -6.7498   -1.6884    0.2523 H   0  0  0  0  0  0  0  0  0  0  0  0
   -4.1778   -2.0152    1.3901 H   0  0  0  0  0  0  0  0  0  0  0  0
  1  2  2  0
  2  3  1  0
  3  4  1  0
  4  5  1  0
  5  6  1  0
  6  7  1  0
  7  8  1  0
  8  9  1  0
  9 10  2  0
 10 11  1  0
 11 12  2  0
 12 13  1  0
 10 14  1  0
  2 15  1  0
 15 16  2  0
 16 17  1  0
 17 18  2  0
 18 19  1  0
 19 20  2  0
 20 21  1  0
 21 22  2  0
 22 23  1  0
 14  6  1  0
 23 15  1  0
 13  9  1  0
 22 17  1  0
  3 24  1  0
  4 25  1  0
  4 26  1  0
  5 27  1  0
  5 28  1  0
  7 29  1  0
  7 30  1  0
  8 31  1  0
  8 32  1  0
 11 33  1  0
 12 34  1  0
 14 35  1  0
 14 36  1  0
 16 37  1  0
 18 38  1  0
 19 39  1  0
 20 40  1  0
 21 41  1  0
 23 42  1  0
M  END
$$$$
OCNT-2314255
     RDKit          3D

 48 51  0  0  0  0  0  0  0  0999 V2000
    0.4884    1.2234    2.7460 O   0  0  0  0  0  0  0  0  0  0  0  0
    0.2551    1.0446    1.5581 C   0  0  0  0  0  0  0  0  0  0  0  0
   -0.9737    0.7216    1.0574 N   0  0  0  0  0  0  0  0  0  0  0  0
   -2.1217    0.7088    1.9338 C   0  0  0  0  0  0  0  0  0  0  0  0
   -3.3314    0.4193    1.1115 C   0  0  0  0  0  0  0  0  0  0  0  0
   -4.4849   -0.2495    1.4671 C   0  0  0  0  0  0  0  0  0  0  0  0
   -5.2653   -0.2276    0.3501 N   0  0  0  0  0  0  0  0  0  0  0  0
   -6.6080   -0.7550    0.2181 C   0  0  0  0  0  0  0  0  0  0  0  0
   -7.0452   -0.8748   -1.2421 C   0  0  0  0  0  0  0  0  0  0  0  0
   -6.6707    0.3848   -2.0263 C   0  0  0  0  0  0  0  0  0  0  0  0
   -5.1570    0.6116   -2.0061 C   0  0  0  0  0  0  0  0  0  0  0  0
   -4.5893    0.4410   -0.6385 C   0  0  0  0  0  0  0  0  0  0  0  0
   -3.4125    0.8428   -0.2068 N   0  0  0  0  0  0  0  0  0  0  0  0
    1.1991    1.1249    0.5660 N   0  0  0  0  0  0  0  0  0  0  0  0
    2.6106    1.4045    0.8616 C   0  0  0  0  0  0  0  0  0  0  0  0
    3.4099    0.2003    1.4128 C   0  0  0  0  0  0  0  0  0  0  0  0
    4.6043    0.6844    0.5432 C   0  0  0  0  0  0  0  0  0  0  0  0
    5.5885   -0.3879   -0.0905 C   0  0  0  0  0  0  0  0  0  0  0  0
    5.1317   -1.5237   -0.7912 C   0  0  0  0  0  0  0  0  0  0  0  0
    6.0083   -2.4615   -1.3473 C   0  0  0  0  0  0  0  0  0  0  0  0
    7.3824   -2.2897   -1.2189 C   0  0  0  0  0  0  0  0  0  0  0  0
    7.8682   -1.1819   -0.5352 C   0  0  0  0  0  0  0  0  0  0  0  0
    9.5665   -0.9568   -0.3699 Cl  0  0  0  0  0  0  0  0  0  0  0  0
    6.9878   -0.2487    0.0185 C   0  0  0  0  0  0  0  0  0  0  0  0
    3.5427    1.3588   -0.3716 C   0  0  0  0  0  0  0  0  0  0  0  0
   -1.1898    1.0451    0.1230 H   0  0  0  0  0  0  0  0  0  0  0  0
   -1.9662   -0.0493    2.7083 H   0  0  0  0  0  0  0  0  0  0  0  0
   -2.2145    1.6897    2.4121 H   0  0  0  0  0  0  0  0  0  0  0  0
   -4.7966   -0.7141    2.3921 H   0  0  0  0  0  0  0  0  0  0  0  0
   -7.2665   -0.0663    0.7597 H   0  0  0  0  0  0  0  0  0  0  0  0
   -6.6402   -1.7323    0.7108 H   0  0  0  0  0  0  0  0  0  0  0  0
   -6.5594   -1.7444   -1.7025 H   0  0  0  0  0  0  0  0  0  0  0  0
   -8.1261   -1.0458   -1.2915 H   0  0  0  0  0  0  0  0  0  0  0  0
   -7.0173    0.3014   -3.0623 H   0  0  0  0  0  0  0  0  0  0  0  0
   -7.1808    1.2506   -1.5849 H   0  0  0  0  0  0  0  0  0  0  0  0
   -4.9287    1.6141   -2.3841 H   0  0  0  0  0  0  0  0  0  0  0  0
   -4.6700   -0.1075   -2.6757 H   0  0  0  0  0  0  0  0  0  0  0  0
    0.9313    0.6886   -0.3051 H   0  0  0  0  0  0  0  0  0  0  0  0
    2.7337    2.3211    1.4528 H   0  0  0  0  0  0  0  0  0  0  0  0
    3.5853    0.2120    2.4926 H   0  0  0  0  0  0  0  0  0  0  0  0
    3.0024   -0.7794    1.1370 H   0  0  0  0  0  0  0  0  0  0  0  0
    5.1776    1.4533    1.0874 H   0  0  0  0  0  0  0  0  0  0  0  0
    4.0607   -1.6842   -0.9068 H   0  0  0  0  0  0  0  0  0  0  0  0
    5.6143   -3.3242   -1.8786 H   0  0  0  0  0  0  0  0  0  0  0  0
    8.0638   -3.0175   -1.6499 H   0  0  0  0  0  0  0  0  0  0  0  0
    7.3923    0.6108    0.5501 H   0  0  0  0  0  0  0  0  0  0  0  0
    3.1819    0.7311   -1.1951 H   0  0  0  0  0  0  0  0  0  0  0  0
    3.8289    2.3337   -0.7770 H   0  0  0  0  0  0  0  0  0  0  0  0
  1  2  2  0
  2  3  1  0
  3  4  1  0
  4  5  1  0
  5  6  2  0
  6  7  1  0
  7  8  1  0
  8  9  1  0
  9 10  1  0
 10 11  1  0
 11 12  1  0
 12 13  2  0
  2 14  1  0
 14 15  1  0
 15 16  1  0
 16 17  1  0
 17 18  1  0
 18 19  2  0
 19 20  1  0
 20 21  2  0
 21 22  1  0
 22 23  1  0
 22 24  2  0
 17 25  1  0
 13  5  1  0
 25 15  1  0
 12  7  1  0
 24 18  1  0
  3 26  1  0
  4 27  1  0
  4 28  1  0
  6 29  1  0
  8 30  1  0
  8 31  1  0
  9 32  1  0
  9 33  1  0
 10 34  1  0
 10 35  1  0
 11 36  1  0
 11 37  1  0
 14 38  1  0
 15 39  1  0
 16 40  1  0
 16 41  1  0
 17 42  1  0
 19 43  1  0
 20 44  1  0
 21 45  1  0
 24 46  1  0
 25 47  1  0
 25 48  1  0
M  END
$$$$
OCNT-2314261
     RDKit          3D

 42 44  0  0  0  0  0  0  0  0999 V2000
    1.9589   -0.7793    2.6187 O   0  0  0  0  0  0  0  0  0  0  0  0
    1.5138   -0.6606    1.4814 C   0  0  0  0  0  0  0  0  0  0  0  0
    0.1367   -0.0439    1.1962 C   0  0  0  0  0  0  0  0  0  0  0  0
    0.1423    0.6018   -0.1309 N   0  0  0  0  0  0  0  0  0  0  0  0
   -1.1679    1.0656   -0.6301 C   0  0  0  0  0  0  0  0  0  0  0  0
   -1.6027    2.4369   -0.0751 C   0  0  0  0  0  0  0  0  0  0  0  0
   -2.0919    2.4859    1.3684 C   0  0  0  0  0  0  0  0  0  0  0  0
   -3.0538    1.3634    1.7176 C   0  0  0  0  0  0  0  0  0  0  0  0
   -3.9199    1.1073    0.6144 O   0  0  0  0  0  0  0  0  0  0  0  0
   -3.5024    0.0366   -0.1362 C   0  0  0  0  0  0  0  0  0  0  0  0
   -4.4353   -0.9924   -0.3547 C   0  0  0  0  0  0  0  0  0  0  0  0
   -6.1819   -0.9238    0.3923 Br  0  0  0  0  0  0  0  0  0  0  0  0
   -4.0978   -2.1109   -1.1171 C   0  0  0  0  0  0  0  0  0  0  0  0
   -2.8303   -2.2036   -1.6803 C   0  0  0  0  0  0  0  0  0  0  0  0
   -1.9090   -1.1737   -1.4881 C   0  0  0  0  0  0  0  0  0  0  0  0
   -2.2222   -0.0309   -0.7181 C   0  0  0  0  0  0  0  0  0  0  0  0
    2.1648   -1.0935    0.3481 N   0  0  0  0  0  0  0  0  0  0  0  0
    3.5165   -1.5879    0.3636 C   0  0  0  0  0  0  0  0  0  0  0  0
    4.4600   -0.4494    0.1413 C   0  0  0  0  0  0  0  0  0  0  0  0
    4.6599    0.1317   -1.2363 C   0  0  0  0  0  0  0  0  0  0  0  0
    5.7601   -0.6650   -0.5903 C   0  0  0  0  0  0  0  0  0  0  0  0
   -0.0577    0.6864    1.9839 H   0  0  0  0  0  0  0  0  0  0  0  0
   -0.5886   -0.8606    1.2580 H   0  0  0  0  0  0  0  0  0  0  0  0
    0.7821    1.3972   -0.0944 H   0  0  0  0  0  0  0  0  0  0  0  0
   -0.9628    1.2958   -1.6875 H   0  0  0  0  0  0  0  0  0  0  0  0
   -2.4043    2.8255   -0.7198 H   0  0  0  0  0  0  0  0  0  0  0  0
   -0.7790    3.1549   -0.1847 H   0  0  0  0  0  0  0  0  0  0  0  0
   -1.2571    2.5024    2.0757 H   0  0  0  0  0  0  0  0  0  0  0  0
   -2.6097    3.4448    1.5025 H   0  0  0  0  0  0  0  0  0  0  0  0
   -2.5303    0.4587    2.0506 H   0  0  0  0  0  0  0  0  0  0  0  0
   -3.6789    1.6738    2.5627 H   0  0  0  0  0  0  0  0  0  0  0  0
   -4.8155   -2.9110   -1.2774 H   0  0  0  0  0  0  0  0  0  0  0  0
   -2.5604   -3.0711   -2.2773 H   0  0  0  0  0  0  0  0  0  0  0  0
   -0.9275   -1.2574   -1.9536 H   0  0  0  0  0  0  0  0  0  0  0  0
    1.7544   -0.7830   -0.5275 H   0  0  0  0  0  0  0  0  0  0  0  0
    3.5950   -2.3385   -0.4298 H   0  0  0  0  0  0  0  0  0  0  0  0
    3.7296   -2.0726    1.3218 H   0  0  0  0  0  0  0  0  0  0  0  0
    4.4730    0.2305    0.9872 H   0  0  0  0  0  0  0  0  0  0  0  0
    4.7914    1.2048   -1.3177 H   0  0  0  0  0  0  0  0  0  0  0  0
    4.1362   -0.3160   -2.0730 H   0  0  0  0  0  0  0  0  0  0  0  0
    6.6342   -0.1302   -0.2353 H   0  0  0  0  0  0  0  0  0  0  0  0
    5.9778   -1.6485   -0.9911 H   0  0  0  0  0  0  0  0  0  0  0  0
  1  2  2  0
  2  3  1  0
  3  4  1  0
  4  5  1  0
  5  6  1  0
  6  7  1  0
  7  8  1  0
  8  9  1  0
  9 10  1  0
 10 11  2  0
 11 12  1  0
 11 13  1  0
 13 14  2  0
 14 15  1  0
 15 16  2  0
  2 17  1  0
 17 18  1  0
 18 19  1  0
 19 20  1  0
 20 21  1  0
 16  5  1  0
 21 19  1  0
 16 10  1  0
  3 22  1  0
  3 23  1  0
  4 24  1  0
  5 25  1  0
  6 26  1  0
  6 27  1  0
  7 28  1  0
  7 29  1  0
  8 30  1  0
  8 31  1  0
 13 32  1  0
 14 33  1  0
 15 34  1  0
 17 35  1  0
 18 36  1  0
 18 37  1  0
 19 38  1  0
 20 39  1  0
 20 40  1  0
 21 41  1  0
 21 42  1  0
M  END
$$$$
OCNT-2314262
     RDKit          3D

 50 53  0  0  0  0  0  0  0  0999 V2000
   -1.7640   -3.8855    1.7193 C   0  0  0  0  0  0  0  0  0  0  0  0
   -1.4029   -2.4687    1.9776 C   0  0  0  0  0  0  0  0  0  0  0  0
   -0.9012   -2.0066    3.1050 N   0  0  0  0  0  0  0  0  0  0  0  0
   -0.6880   -0.6728    2.9016 C   0  0  0  0  0  0  0  0  0  0  0  0
   -1.0575   -0.2985    1.6276 C   0  0  0  0  0  0  0  0  0  0  0  0
   -1.0146    1.0328    0.9691 C   0  0  0  0  0  0  0  0  0  0  0  0
   -0.0948    1.0516   -0.1672 N   0  0  0  0  0  0  0  0  0  0  0  0
    1.3105    0.7250    0.0702 C   0  0  0  0  0  0  0  0  0  0  0  0
    1.6671   -0.6398   -0.4432 C   0  0  0  0  0  0  0  0  0  0  0  0
    1.9056   -1.8034    0.4960 C   0  0  0  0  0  0  0  0  0  0  0  0
    3.0509   -1.1754   -0.2298 C   0  0  0  0  0  0  0  0  0  0  0  0
    3.9079   -1.8361   -1.2443 C   0  0  0  0  0  0  0  0  0  0  0  0
    5.0463   -1.6205   -0.2319 C   0  0  0  0  0  0  0  0  0  0  0  0
    4.2094   -0.4924    0.3957 C   0  0  0  0  0  0  0  0  0  0  0  0
   -0.4206    1.5555   -1.4314 C   0  0  0  0  0  0  0  0  0  0  0  0
    0.3460    1.4738   -2.3889 O   0  0  0  0  0  0  0  0  0  0  0  0
   -1.7271    2.1849   -1.6037 C   0  0  0  0  0  0  0  0  0  0  0  0
   -2.1695    3.3643   -1.0132 C   0  0  0  0  0  0  0  0  0  0  0  0
   -1.4990    4.3073   -0.0802 C   0  0  0  0  0  0  0  0  0  0  0  0
   -3.4453    3.6056   -1.4664 N   0  0  0  0  0  0  0  0  0  0  0  0
   -3.8124    2.6352   -2.3591 C   0  0  0  0  0  0  0  0  0  0  0  0
   -2.7613    1.7570   -2.4845 C   0  0  0  0  0  0  0  0  0  0  0  0
   -1.5434   -1.4543    1.0563 N   0  0  0  0  0  0  0  0  0  0  0  0
   -2.0880   -1.5768   -0.2760 C   0  0  0  0  0  0  0  0  0  0  0  0
   -1.4297   -4.5221    2.5448 H   0  0  0  0  0  0  0  0  0  0  0  0
   -2.8486   -3.9951    1.6257 H   0  0  0  0  0  0  0  0  0  0  0  0
   -1.2889   -4.2485    0.8021 H   0  0  0  0  0  0  0  0  0  0  0  0
   -0.2716   -0.0486    3.6822 H   0  0  0  0  0  0  0  0  0  0  0  0
   -2.0342    1.2951    0.6790 H   0  0  0  0  0  0  0  0  0  0  0  0
   -0.6744    1.8008    1.6737 H   0  0  0  0  0  0  0  0  0  0  0  0
    1.5354    0.8331    1.1380 H   0  0  0  0  0  0  0  0  0  0  0  0
    1.9266    1.4664   -0.4538 H   0  0  0  0  0  0  0  0  0  0  0  0
    1.2234   -0.8448   -1.4125 H   0  0  0  0  0  0  0  0  0  0  0  0
    1.5663   -2.7831    0.1801 H   0  0  0  0  0  0  0  0  0  0  0  0
    1.8284   -1.6402    1.5646 H   0  0  0  0  0  0  0  0  0  0  0  0
    3.6945   -2.8812   -1.4835 H   0  0  0  0  0  0  0  0  0  0  0  0
    4.0163   -1.2687   -2.1749 H   0  0  0  0  0  0  0  0  0  0  0  0
    6.0057   -1.3139   -0.6587 H   0  0  0  0  0  0  0  0  0  0  0  0
    5.2155   -2.4737    0.4367 H   0  0  0  0  0  0  0  0  0  0  0  0
    4.2400   -0.4476    1.4870 H   0  0  0  0  0  0  0  0  0  0  0  0
    4.4204    0.5026   -0.0119 H   0  0  0  0  0  0  0  0  0  0  0  0
   -1.9483    4.2410    0.9157 H   0  0  0  0  0  0  0  0  0  0  0  0
   -0.4316    4.0870    0.0117 H   0  0  0  0  0  0  0  0  0  0  0  0
   -1.5965    5.3378   -0.4354 H   0  0  0  0  0  0  0  0  0  0  0  0
   -4.0156    4.4007   -1.2075 H   0  0  0  0  0  0  0  0  0  0  0  0
   -4.7792    2.6653   -2.8445 H   0  0  0  0  0  0  0  0  0  0  0  0
   -2.7307    0.8949   -3.1389 H   0  0  0  0  0  0  0  0  0  0  0  0
   -1.2615   -1.5730   -0.9892 H   0  0  0  0  0  0  0  0  0  0  0  0
   -2.7640   -0.7393   -0.4614 H   0  0  0  0  0  0  0  0  0  0  0  0
   -2.6519   -2.5069   -0.3677 H   0  0  0  0  0  0  0  0  0  0  0  0
  1  2  1  0
  2  3  2  0
  3  4  1  0
  4  5  2  0
  5  6  1  0
  6  7  1  0
  7  8  1  0
  8  9  1  0
  9 10  1  0
 10 11  1  0
 11 12  1  0
 12 13  1  0
 13 14  1  0
  7 15  1  0
 15 16  2  0
 15 17  1  0
 17 18  2  0
 18 19  1  0
 18 20  1  0
 20 21  1  0
 21 22  2  0
  5 23  1  0
 23 24  1  0
 23  2  1  0
 11  9  1  0
 22 17  1  0
 14 11  1  0
  1 25  1  0
  1 26  1  0
  1 27  1  0
  4 28  1  0
  6 29  1  0
  6 30  1  0
  8 31  1  0
  8 32  1  0
  9 33  1  0
 10 34  1  0
 10 35  1  0
 12 36  1  0
 12 37  1  0
 13 38  1  0
 13 39  1  0
 14 40  1  0
 14 41  1  0
 19 42  1  0
 19 43  1  0
 19 44  1  0
 20 45  1  0
 21 46  1  0
 22 47  1  0
 24 48  1  0
 24 49  1  0
 24 50  1  0
M  END
$$$$
OCNT-2314263
     RDKit          3D

 33 35  0  0  0  0  0  0  0  0999 V2000
    6.9415   -2.2112   -0.1511 Cl  0  0  0  0  0  0  0  0  0  0  0  0
    5.4921   -1.3006    0.0210 C   0  0  0  0  0  0  0  0  0  0  0  0
    4.8833   -0.7530   -1.1037 C   0  0  0  0  0  0  0  0  0  0  0  0
    3.7079   -0.0137   -0.9615 C   0  0  0  0  0  0  0  0  0  0  0  0
    3.1306    0.1931    0.3068 C   0  0  0  0  0  0  0  0  0  0  0  0
    1.8505    0.9949    0.3905 C   0  0  0  0  0  0  0  0  0  0  0  0
    0.7412    0.1748   -0.0784 N   0  0  0  0  0  0  0  0  0  0  0  0
   -0.5632    0.6799   -0.0270 C   0  0  0  0  0  0  0  0  0  0  0  0
   -0.8683    2.0433   -0.0269 C   0  0  0  0  0  0  0  0  0  0  0  0
   -2.1940    2.4847   -0.0464 C   0  0  0  0  0  0  0  0  0  0  0  0
   -3.2425    1.5658   -0.0985 C   0  0  0  0  0  0  0  0  0  0  0  0
   -2.9750    0.1934   -0.1472 C   0  0  0  0  0  0  0  0  0  0  0  0
   -4.0349   -0.8136   -0.2242 C   0  0  0  0  0  0  0  0  0  0  0  0
   -3.8961   -2.1223   -0.0993 N   0  0  0  0  0  0  0  0  0  0  0  0
   -5.1295   -2.7145   -0.2416 N   0  0  0  0  0  0  0  0  0  0  0  0
   -6.0000   -1.7604   -0.4577 C   0  0  0  0  0  0  0  0  0  0  0  0
   -5.3642   -0.5582   -0.4562 N   0  0  0  0  0  0  0  0  0  0  0  0
   -1.6328   -0.2257   -0.1214 C   0  0  0  0  0  0  0  0  0  0  0  0
    3.7554   -0.3813    1.4256 C   0  0  0  0  0  0  0  0  0  0  0  0
    3.1106   -0.2216    3.0204 Cl  0  0  0  0  0  0  0  0  0  0  0  0
    4.9338   -1.1212    1.2835 C   0  0  0  0  0  0  0  0  0  0  0  0
    5.3116   -0.9012   -2.0918 H   0  0  0  0  0  0  0  0  0  0  0  0
    3.2276    0.3977   -1.8490 H   0  0  0  0  0  0  0  0  0  0  0  0
    1.6647    1.3599    1.4056 H   0  0  0  0  0  0  0  0  0  0  0  0
    1.9703    1.8821   -0.2444 H   0  0  0  0  0  0  0  0  0  0  0  0
    0.7803   -0.7737    0.2920 H   0  0  0  0  0  0  0  0  0  0  0  0
   -0.0844    2.7941   -0.0114 H   0  0  0  0  0  0  0  0  0  0  0  0
   -2.4056    3.5511   -0.0268 H   0  0  0  0  0  0  0  0  0  0  0  0
   -4.2575    1.9497   -0.1018 H   0  0  0  0  0  0  0  0  0  0  0  0
   -7.0614   -1.8817   -0.6174 H   0  0  0  0  0  0  0  0  0  0  0  0
   -5.7858    0.3432   -0.6121 H   0  0  0  0  0  0  0  0  0  0  0  0
   -1.4184   -1.2931   -0.1774 H   0  0  0  0  0  0  0  0  0  0  0  0
    5.4122   -1.5607    2.1550 H   0  0  0  0  0  0  0  0  0  0  0  0
  1  2  1  0
  2  3  1  0
  3  4  2  0
  4  5  1  0
  5  6  1  0
  6  7  1  0
  7  8  1  0
  8  9  2  0
  9 10  1  0
 10 11  2  0
 11 12  1  0
 12 13  1  0
 13 14  2  0
 14 15  1  0
 15 16  2  0
 16 17  1  0
 12 18  2  0
  5 19  2  0
 19 20  1  0
 19 21  1  0
 21  2  2  0
 18  8  1  0
 17 13  1  0
  3 22  1  0
  4 23  1  0
  6 24  1  0
  6 25  1  0
  7 26  1  0
  9 27  1  0
 10 28  1  0
 11 29  1  0
 16 30  1  0
 17 31  1  0
 18 32  1  0
 21 33  1  0
M  END
$$$$
OCNT-2314266
     RDKit          3D

 41 44  0  0  0  0  0  0  0  0999 V2000
    5.8391   -1.5112    0.9503 C   0  0  0  0  0  0  0  0  0  0  0  0
    5.3175   -0.2293    0.3782 C   0  0  0  0  0  0  0  0  0  0  0  0
    6.0965    0.8499    0.1605 C   0  0  0  0  0  0  0  0  0  0  0  0
    5.5127    2.0552   -0.4007 C   0  0  0  0  0  0  0  0  0  0  0  0
    4.2058    2.1265   -0.7109 C   0  0  0  0  0  0  0  0  0  0  0  0
    3.3727    0.9967   -0.4836 C   0  0  0  0  0  0  0  0  0  0  0  0
    2.0418    0.7273   -0.6831 C   0  0  0  0  0  0  0  0  0  0  0  0
    1.8547   -0.6099   -0.2400 C   0  0  0  0  0  0  0  0  0  0  0  0
    0.6043   -1.4111   -0.2347 C   0  0  0  0  0  0  0  0  0  0  0  0
    0.6301   -2.6372   -0.2278 O   0  0  0  0  0  0  0  0  0  0  0  0
   -0.5476   -0.6306   -0.2230 N   0  0  0  0  0  0  0  0  0  0  0  0
   -1.9002   -1.0569   -0.2567 C   0  0  0  0  0  0  0  0  0  0  0  0
   -2.2482   -2.4084   -0.3743 C   0  0  0  0  0  0  0  0  0  0  0  0
   -3.5836   -2.8150   -0.3773 C   0  0  0  0  0  0  0  0  0  0  0  0
   -4.5988   -1.8766   -0.2556 C   0  0  0  0  0  0  0  0  0  0  0  0
   -4.2864   -0.5183   -0.1374 C   0  0  0  0  0  0  0  0  0  0  0  0
   -2.9358   -0.0903   -0.1697 C   0  0  0  0  0  0  0  0  0  0  0  0
   -2.6349    1.3924   -0.0446 C   0  0  0  0  0  0  0  0  0  0  0  0
   -3.7649    2.2838   -0.3340 N   0  0  0  0  0  0  0  0  0  0  0  0
   -4.9343    1.8560    0.4371 C   0  0  0  0  0  0  0  0  0  0  0  0
   -5.4151    0.4795   -0.0238 C   0  0  0  0  0  0  0  0  0  0  0  0
    3.0131   -1.1291    0.2008 N   0  0  0  0  0  0  0  0  0  0  0  0
    3.9479   -0.1569    0.0541 N   0  0  0  0  0  0  0  0  0  0  0  0
    5.6856   -2.3379    0.2487 H   0  0  0  0  0  0  0  0  0  0  0  0
    6.9122   -1.4536    1.1623 H   0  0  0  0  0  0  0  0  0  0  0  0
    5.3298   -1.7502    1.8899 H   0  0  0  0  0  0  0  0  0  0  0  0
    7.1572    0.8515    0.3897 H   0  0  0  0  0  0  0  0  0  0  0  0
    6.1694    2.9045   -0.5659 H   0  0  0  0  0  0  0  0  0  0  0  0
    3.7834    3.0335   -1.1320 H   0  0  0  0  0  0  0  0  0  0  0  0
    1.3137    1.4002   -1.1122 H   0  0  0  0  0  0  0  0  0  0  0  0
   -0.3932    0.3563   -0.0953 H   0  0  0  0  0  0  0  0  0  0  0  0
   -1.5000   -3.1896   -0.4639 H   0  0  0  0  0  0  0  0  0  0  0  0
   -3.8239   -3.8714   -0.4682 H   0  0  0  0  0  0  0  0  0  0  0  0
   -5.6346   -2.2084   -0.2526 H   0  0  0  0  0  0  0  0  0  0  0  0
   -2.2624    1.5942    0.9671 H   0  0  0  0  0  0  0  0  0  0  0  0
   -1.8437    1.6684   -0.7503 H   0  0  0  0  0  0  0  0  0  0  0  0
   -3.9841    2.2042   -1.3277 H   0  0  0  0  0  0  0  0  0  0  0  0
   -5.7407    2.5858    0.3048 H   0  0  0  0  0  0  0  0  0  0  0  0
   -4.6946    1.8459    1.5081 H   0  0  0  0  0  0  0  0  0  0  0  0
   -6.1679    0.1124    0.6838 H   0  0  0  0  0  0  0  0  0  0  0  0
   -5.8926    0.5677   -1.0080 H   0  0  0  0  0  0  0  0  0  0  0  0
  1  2  1  0
  2  3  2  0
  3  4  1  0
  4  5  2  0
  5  6  1  0
  6  7  2  0
  7  8  1  0
  8  9  1  0
  9 10  2  0
  9 11  1  0
 11 12  1  0
 12 13  1  0
 13 14  2  0
 14 15  1  0
 15 16  2  0
 16 17  1  0
 17 18  1  0
 18 19  1  0
 19 20  1  0
 20 21  1  0
  8 22  2  0
 22 23  1  0
 23  2  1  0
 23  6  1  0
 17 12  2  0
 21 16  1  0
  1 24  1  0
  1 25  1  0
  1 26  1  0
  3 27  1  0
  4 28  1  0
  5 29  1  0
  7 30  1  0
 11 31  1  0
 13 32  1  0
 14 33  1  0
 15 34  1  0
 18 35  1  0
 18 36  1  0
 19 37  1  0
 20 38  1  0
 20 39  1  0
 21 40  1  0
 21 41  1  0
M  END
$$$$
OCNT-2314267
     RDKit          3D

 43 46  0  0  0  0  0  0  0  0999 V2000
    5.2199    0.5465   -2.4866 C   0  0  0  0  0  0  0  0  0  0  0  0
    4.9331    0.5543   -1.0135 C   0  0  0  0  0  0  0  0  0  0  0  0
    3.6296    0.2760   -0.5640 C   0  0  0  0  0  0  0  0  0  0  0  0
    3.3083    0.2739    0.8046 C   0  0  0  0  0  0  0  0  0  0  0  0
    1.9454   -0.0193    1.2376 C   0  0  0  0  0  0  0  0  0  0  0  0
    1.5364    0.0204    2.5176 N   0  0  0  0  0  0  0  0  0  0  0  0
    0.1850   -0.3045    2.4464 O   0  0  0  0  0  0  0  0  0  0  0  0
   -0.0922   -0.5275    1.1307 C   0  0  0  0  0  0  0  0  0  0  0  0
   -1.4885   -0.9328    0.8098 C   0  0  0  0  0  0  0  0  0  0  0  0
   -1.5765   -2.4369    0.5270 C   0  0  0  0  0  0  0  0  0  0  0  0
   -2.7733   -2.5364   -0.4012 C   0  0  0  0  0  0  0  0  0  0  0  0
   -2.5985   -1.3291   -1.3112 C   0  0  0  0  0  0  0  0  0  0  0  0
   -1.9610   -0.3159   -0.4540 N   0  0  0  0  0  0  0  0  0  0  0  0
   -2.5604    1.2475   -0.4330 S   0  0  0  0  0  0  0  0  0  0  0  0
   -2.6470    1.6959   -1.8074 O   0  0  0  0  0  0  0  0  0  0  0  0
   -1.8603    2.0099    0.5754 O   0  0  0  0  0  0  0  0  0  0  0  0
   -4.2705    1.1941    0.0908 C   0  0  0  0  0  0  0  0  0  0  0  0
   -5.4477    1.3514   -0.6193 C   0  0  0  0  0  0  0  0  0  0  0  0
   -6.6033    1.2229    0.2033 C   0  0  0  0  0  0  0  0  0  0  0  0
   -6.2718    0.9747    1.5163 C   0  0  0  0  0  0  0  0  0  0  0  0
   -4.5788    0.8994    1.7471 S   0  0  0  0  0  0  0  0  0  0  0  0
    0.9568   -0.3895    0.3499 N   0  0  0  0  0  0  0  0  0  0  0  0
    4.3179    0.5587    1.7328 C   0  0  0  0  0  0  0  0  0  0  0  0
    5.6160    0.8367    1.3010 C   0  0  0  0  0  0  0  0  0  0  0  0
    5.9160    0.8353   -0.0590 C   0  0  0  0  0  0  0  0  0  0  0  0
    7.2099    1.1227   -0.3880 O   0  0  0  0  0  0  0  0  0  0  0  0
    4.3345    0.2728   -3.0703 H   0  0  0  0  0  0  0  0  0  0  0  0
    6.0033   -0.1829   -2.7165 H   0  0  0  0  0  0  0  0  0  0  0  0
    5.5392    1.5408   -2.8147 H   0  0  0  0  0  0  0  0  0  0  0  0
    2.8470    0.0611   -1.2915 H   0  0  0  0  0  0  0  0  0  0  0  0
   -2.1629   -0.6873    1.6344 H   0  0  0  0  0  0  0  0  0  0  0  0
   -1.7058   -3.0238    1.4419 H   0  0  0  0  0  0  0  0  0  0  0  0
   -0.6788   -2.8082    0.0156 H   0  0  0  0  0  0  0  0  0  0  0  0
   -3.7027   -2.4454    0.1738 H   0  0  0  0  0  0  0  0  0  0  0  0
   -2.8039   -3.4779   -0.9565 H   0  0  0  0  0  0  0  0  0  0  0  0
   -3.5581   -1.0086   -1.7246 H   0  0  0  0  0  0  0  0  0  0  0  0
   -1.9223   -1.5584   -2.1419 H   0  0  0  0  0  0  0  0  0  0  0  0
   -5.4650    1.5576   -1.6838 H   0  0  0  0  0  0  0  0  0  0  0  0
   -7.6243    1.3160   -0.1480 H   0  0  0  0  0  0  0  0  0  0  0  0
   -6.9422    0.8409    2.3550 H   0  0  0  0  0  0  0  0  0  0  0  0
    4.1052    0.5690    2.7997 H   0  0  0  0  0  0  0  0  0  0  0  0
    6.3938    1.0584    2.0270 H   0  0  0  0  0  0  0  0  0  0  0  0
    7.2983    1.1475   -1.3530 H   0  0  0  0  0  0  0  0  0  0  0  0
  1  2  1  0
  2  3  1  0
  3  4  2  0
  4  5  1  0
  5  6  2  0
  6  7  1  0
  7  8  1  0
  8  9  1  0
  9 10  1  0
 10 11  1  0
 11 12  1  0
 12 13  1  0
 13 14  1  0
 14 15  2  0
 14 16  2  0
 14 17  1  0
 17 18  2  0
 18 19  1  0
 19 20  2  0
 20 21  1  0
  8 22  2  0
  4 23  1  0
 23 24  2  0
 24 25  1  0
 25 26  1  0
 25  2  2  0
 22  5  1  0
 13  9  1  0
 21 17  1  0
  1 27  1  0
  1 28  1  0
  1 29  1  0
  3 30  1  0
  9 31  1  0
 10 32  1  0
 10 33  1  0
 11 34  1  0
 11 35  1  0
 12 36  1  0
 12 37  1  0
 18 38  1  0
 19 39  1  0
 20 40  1  0
 23 41  1  0
 24 42  1  0
 26 43  1  0
M  END
$$$$
OCNT-2314271
     RDKit          3D

 47 49  0  0  0  0  0  0  0  0999 V2000
    0.2208    0.3738   -2.6920 C   0  0  0  0  0  0  0  0  0  0  0  0
   -0.4053    0.9729   -1.5069 N   0  0  0  0  0  0  0  0  0  0  0  0
   -1.7334    1.5250   -1.8245 C   0  0  0  0  0  0  0  0  0  0  0  0
   -2.7278    0.4755   -2.1904 C   0  0  0  0  0  0  0  0  0  0  0  0
   -3.3402    0.3362   -3.4253 C   0  0  0  0  0  0  0  0  0  0  0  0
   -4.1321   -0.8039   -3.3239 C   0  0  0  0  0  0  0  0  0  0  0  0
   -4.0554   -1.3617   -2.1229 N   0  0  0  0  0  0  0  0  0  0  0  0
   -3.2171   -0.5620   -1.3906 N   0  0  0  0  0  0  0  0  0  0  0  0
   -3.0122   -0.9075   -0.0107 C   0  0  0  0  0  0  0  0  0  0  0  0
   -3.5443   -2.1279    0.4610 C   0  0  0  0  0  0  0  0  0  0  0  0
   -3.3813   -2.5233    1.7920 C   0  0  0  0  0  0  0  0  0  0  0  0
   -2.6900   -1.7007    2.6661 C   0  0  0  0  0  0  0  0  0  0  0  0
   -2.5308   -2.0725    3.9427 F   0  0  0  0  0  0  0  0  0  0  0  0
   -2.1653   -0.4916    2.2330 C   0  0  0  0  0  0  0  0  0  0  0  0
   -2.3288   -0.0931    0.8992 C   0  0  0  0  0  0  0  0  0  0  0  0
    0.4510    2.0388   -0.9435 C   0  0  0  0  0  0  0  0  0  0  0  0
    1.7789    1.5649   -0.3066 C   0  0  0  0  0  0  0  0  0  0  0  0
    2.4516    2.7323    0.1919 O   0  0  0  0  0  0  0  0  0  0  0  0
    1.5399    0.5682    0.8415 C   0  0  0  0  0  0  0  0  0  0  0  0
    2.8300   -0.0204    1.3697 C   0  0  0  0  0  0  0  0  0  0  0  0
    3.4085    0.4717    2.5476 C   0  0  0  0  0  0  0  0  0  0  0  0
    4.6093   -0.0594    3.0199 C   0  0  0  0  0  0  0  0  0  0  0  0
    5.2418   -1.0858    2.3208 C   0  0  0  0  0  0  0  0  0  0  0  0
    4.6738   -1.5833    1.1495 C   0  0  0  0  0  0  0  0  0  0  0  0
    3.4733   -1.0535    0.6748 C   0  0  0  0  0  0  0  0  0  0  0  0
   -0.3874   -0.4415   -3.0976 H   0  0  0  0  0  0  0  0  0  0  0  0
    0.3856    1.1095   -3.4874 H   0  0  0  0  0  0  0  0  0  0  0  0
    1.1828   -0.0836   -2.4404 H   0  0  0  0  0  0  0  0  0  0  0  0
   -2.1432    2.1084   -0.9915 H   0  0  0  0  0  0  0  0  0  0  0  0
   -1.6425    2.2451   -2.6505 H   0  0  0  0  0  0  0  0  0  0  0  0
   -3.2028    0.9712   -4.2893 H   0  0  0  0  0  0  0  0  0  0  0  0
   -4.7607   -1.2622   -4.0764 H   0  0  0  0  0  0  0  0  0  0  0  0
   -4.0891   -2.7957   -0.2053 H   0  0  0  0  0  0  0  0  0  0  0  0
   -3.7898   -3.4651    2.1432 H   0  0  0  0  0  0  0  0  0  0  0  0
   -1.6314    0.1409    2.9357 H   0  0  0  0  0  0  0  0  0  0  0  0
   -1.9121    0.8656    0.6329 H   0  0  0  0  0  0  0  0  0  0  0  0
    0.6693    2.8018   -1.7040 H   0  0  0  0  0  0  0  0  0  0  0  0
   -0.1024    2.5710   -0.1567 H   0  0  0  0  0  0  0  0  0  0  0  0
    2.4288    1.1329   -1.0753 H   0  0  0  0  0  0  0  0  0  0  0  0
    3.3133    2.4310    0.5347 H   0  0  0  0  0  0  0  0  0  0  0  0
    1.0109    1.0668    1.6639 H   0  0  0  0  0  0  0  0  0  0  0  0
    0.9014   -0.2611    0.5150 H   0  0  0  0  0  0  0  0  0  0  0  0
    2.9261    1.2718    3.1055 H   0  0  0  0  0  0  0  0  0  0  0  0
    5.0500    0.3252    3.9362 H   0  0  0  0  0  0  0  0  0  0  0  0
    6.1751   -1.5014    2.6915 H   0  0  0  0  0  0  0  0  0  0  0  0
    5.1643   -2.3877    0.6073 H   0  0  0  0  0  0  0  0  0  0  0  0
    3.0390   -1.4557   -0.2381 H   0  0  0  0  0  0  0  0  0  0  0  0
  1  2  1  0
  2  3  1  0
  3  4  1  0
  4  5  2  0
  5  6  1  0
  6  7  2  0
  7  8  1  0
  8  9  1  0
  9 10  1  0
 10 11  2  0
 11 12  1  0
 12 13  1  0
 12 14  2  0
 14 15  1  0
  2 16  1  0
 16 17  1  0
 17 18  1  0
 17 19  1  0
 19 20  1  0
 20 21  2  0
 21 22  1  0
 22 23  2  0
 23 24  1  0
 24 25  2  0
  8  4  1  0
 15  9  2  0
 25 20  1  0
  1 26  1  0
  1 27  1  0
  1 28  1  0
  3 29  1  0
  3 30  1  0
  5 31  1  0
  6 32  1  0
 10 33  1  0
 11 34  1  0
 14 35  1  0
 15 36  1  0
 16 37  1  0
 16 38  1  0
 17 39  1  0
 18 40  1  0
 19 41  1  0
 19 42  1  0
 21 43  1  0
 22 44  1  0
 23 45  1  0
 24 46  1  0
 25 47  1  0
M  END
$$$$
OCNT-2314275
     RDKit          3D

 43 45  0  0  0  0  0  0  0  0999 V2000
   -2.1788   -2.7563    0.3723 C   0  0  0  0  0  0  0  0  0  0  0  0
   -2.2759   -1.7912   -0.7232 N   0  0  0  0  0  0  0  0  0  0  0  0
   -2.5018   -2.4978   -1.9869 C   0  0  0  0  0  0  0  0  0  0  0  0
   -1.0733   -0.9377   -0.8259 C   0  0  0  0  0  0  0  0  0  0  0  0
   -0.8437    0.0332    0.3689 C   0  0  0  0  0  0  0  0  0  0  0  0
    0.3983    0.9195    0.1132 C   0  0  0  0  0  0  0  0  0  0  0  0
    1.6246    0.1201    0.0894 N   0  0  0  0  0  0  0  0  0  0  0  0
    2.8880    0.5876   -0.2831 C   0  0  0  0  0  0  0  0  0  0  0  0
    3.1186    1.7772   -0.8697 C   0  0  0  0  0  0  0  0  0  0  0  0
    4.5332    2.1083   -1.1815 C   0  0  0  0  0  0  0  0  0  0  0  0
    5.5707    1.3706   -0.9482 N   0  0  0  0  0  0  0  0  0  0  0  0
    5.3211    0.1646   -0.3640 C   0  0  0  0  0  0  0  0  0  0  0  0
    6.1845   -0.7717   -0.0233 N   0  0  0  0  0  0  0  0  0  0  0  0
    5.4484   -1.7948    0.5055 C   0  0  0  0  0  0  0  0  0  0  0  0
    4.1097   -1.4904    0.5010 C   0  0  0  0  0  0  0  0  0  0  0  0
    4.0185   -0.2288   -0.0427 N   0  0  0  0  0  0  0  0  0  0  0  0
   -2.0378    0.9295    0.6864 C   0  0  0  0  0  0  0  0  0  0  0  0
   -2.4643    1.0655    2.0183 C   0  0  0  0  0  0  0  0  0  0  0  0
   -3.5400    1.8960    2.3422 C   0  0  0  0  0  0  0  0  0  0  0  0
   -4.1969    2.6007    1.3376 C   0  0  0  0  0  0  0  0  0  0  0  0
   -5.5207    3.6248    1.7359 Cl  0  0  0  0  0  0  0  0  0  0  0  0
   -3.7864    2.4831    0.0127 C   0  0  0  0  0  0  0  0  0  0  0  0
   -2.7099    1.6532   -0.3116 C   0  0  0  0  0  0  0  0  0  0  0  0
   -3.0729   -3.3895    0.4074 H   0  0  0  0  0  0  0  0  0  0  0  0
   -2.1296   -2.2531    1.3427 H   0  0  0  0  0  0  0  0  0  0  0  0
   -1.3026   -3.4070    0.2727 H   0  0  0  0  0  0  0  0  0  0  0  0
   -1.6692   -3.1632   -2.2426 H   0  0  0  0  0  0  0  0  0  0  0  0
   -2.6403   -1.7853   -2.8078 H   0  0  0  0  0  0  0  0  0  0  0  0
   -3.4192   -3.0950   -1.9366 H   0  0  0  0  0  0  0  0  0  0  0  0
   -1.1499   -0.3378   -1.7425 H   0  0  0  0  0  0  0  0  0  0  0  0
   -0.1861   -1.5725   -0.9548 H   0  0  0  0  0  0  0  0  0  0  0  0
   -0.6322   -0.5801    1.2552 H   0  0  0  0  0  0  0  0  0  0  0  0
    0.2787    1.4563   -0.8359 H   0  0  0  0  0  0  0  0  0  0  0  0
    0.4929    1.6720    0.9063 H   0  0  0  0  0  0  0  0  0  0  0  0
    1.6713   -0.5576    0.8494 H   0  0  0  0  0  0  0  0  0  0  0  0
    2.3607    2.5036   -1.1200 H   0  0  0  0  0  0  0  0  0  0  0  0
    4.6836    3.0922   -1.6568 H   0  0  0  0  0  0  0  0  0  0  0  0
    5.9230   -2.7020    0.8568 H   0  0  0  0  0  0  0  0  0  0  0  0
    3.2463   -2.0536    0.8174 H   0  0  0  0  0  0  0  0  0  0  0  0
   -1.9657    0.5199    2.8167 H   0  0  0  0  0  0  0  0  0  0  0  0
   -3.8605    1.9853    3.3766 H   0  0  0  0  0  0  0  0  0  0  0  0
   -4.3014    3.0291   -0.7732 H   0  0  0  0  0  0  0  0  0  0  0  0
   -2.4131    1.5726   -1.3545 H   0  0  0  0  0  0  0  0  0  0  0  0
  1  2  1  0
  2  3  1  0
  2  4  1  0
  4  5  1  0
  5  6  1  0
  6  7  1  0
  7  8  1  0
  8  9  2  0
  9 10  1  0
 10 11  2  0
 11 12  1  0
 12 13  2  0
 13 14  1  0
 14 15  2  0
 15 16  1  0
  5 17  1  0
 17 18  1  0
 18 19  2  0
 19 20  1  0
 20 21  1  0
 20 22  2  0
 22 23  1  0
 16  8  1  0
 23 17  2  0
 16 12  1  0
  1 24  1  0
  1 25  1  0
  1 26  1  0
  3 27  1  0
  3 28  1  0
  3 29  1  0
  4 30  1  0
  4 31  1  0
  5 32  1  0
  6 33  1  0
  6 34  1  0
  7 35  1  0
  9 36  1  0
 10 37  1  0
 14 38  1  0
 15 39  1  0
 18 40  1  0
 19 41  1  0
 22 42  1  0
 23 43  1  0
M  END
$$$$
OCNT-2314296
     RDKit          3D

 45 48  0  0  0  0  0  0  0  0999 V2000
   -6.5468   -1.4955    0.8382 C   0  0  0  0  0  0  0  0  0  0  0  0
   -5.1085   -1.3876    0.8010 N   0  0  0  0  0  0  0  0  0  0  0  0
   -4.2186   -2.0502    1.5821 C   0  0  0  0  0  0  0  0  0  0  0  0
   -2.9576   -1.6324    1.1920 C   0  0  0  0  0  0  0  0  0  0  0  0
   -1.7238   -2.1423    1.7763 C   0  0  0  0  0  0  0  0  0  0  0  0
   -1.7100   -2.6839    2.8771 O   0  0  0  0  0  0  0  0  0  0  0  0
   -0.6035   -2.0305    0.9882 N   0  0  0  0  0  0  0  0  0  0  0  0
    0.7190   -2.3196    1.4912 C   0  0  0  0  0  0  0  0  0  0  0  0
    1.5226   -1.0636    1.4416 C   0  0  0  0  0  0  0  0  0  0  0  0
    1.6518   -0.1660    2.3976 N   0  0  0  0  0  0  0  0  0  0  0  0
    2.4974    0.7903    1.8989 C   0  0  0  0  0  0  0  0  0  0  0  0
    2.8691    0.5054    0.6005 C   0  0  0  0  0  0  0  0  0  0  0  0
    3.7283    1.2070   -0.3432 C   0  0  0  0  0  0  0  0  0  0  0  0
    3.3729    1.3195   -1.6941 C   0  0  0  0  0  0  0  0  0  0  0  0
    4.2013    1.9978   -2.5918 C   0  0  0  0  0  0  0  0  0  0  0  0
    5.3925    2.5685   -2.1486 C   0  0  0  0  0  0  0  0  0  0  0  0
    5.7537    2.4674   -0.8069 C   0  0  0  0  0  0  0  0  0  0  0  0
    4.9238    1.7929    0.0921 C   0  0  0  0  0  0  0  0  0  0  0  0
    2.2374   -0.6863    0.3303 N   0  0  0  0  0  0  0  0  0  0  0  0
   -3.2167   -0.6549    0.1776 C   0  0  0  0  0  0  0  0  0  0  0  0
   -2.2787    0.1889   -0.5561 C   0  0  0  0  0  0  0  0  0  0  0  0
   -1.3340    0.9657    0.1162 C   0  0  0  0  0  0  0  0  0  0  0  0
   -0.4402    1.7053   -0.6384 C   0  0  0  0  0  0  0  0  0  0  0  0
   -0.4259    1.7137   -1.9897 N   0  0  0  0  0  0  0  0  0  0  0  0
   -1.3789    0.9903   -2.6149 C   0  0  0  0  0  0  0  0  0  0  0  0
   -2.3156    0.2194   -1.9510 C   0  0  0  0  0  0  0  0  0  0  0  0
   -4.5312   -0.5650   -0.0867 N   0  0  0  0  0  0  0  0  0  0  0  0
   -6.9611   -0.5075    1.0539 H   0  0  0  0  0  0  0  0  0  0  0  0
   -6.8389   -2.2012    1.6197 H   0  0  0  0  0  0  0  0  0  0  0  0
   -6.8907   -1.8533   -0.1355 H   0  0  0  0  0  0  0  0  0  0  0  0
   -4.5261   -2.7618    2.3369 H   0  0  0  0  0  0  0  0  0  0  0  0
   -0.6840   -1.6403    0.0629 H   0  0  0  0  0  0  0  0  0  0  0  0
    1.1568   -3.0878    0.8458 H   0  0  0  0  0  0  0  0  0  0  0  0
    0.6835   -2.7061    2.5141 H   0  0  0  0  0  0  0  0  0  0  0  0
    2.7842    1.6466    2.4962 H   0  0  0  0  0  0  0  0  0  0  0  0
    2.4337    0.9110   -2.0606 H   0  0  0  0  0  0  0  0  0  0  0  0
    3.9084    2.0904   -3.6345 H   0  0  0  0  0  0  0  0  0  0  0  0
    6.0348    3.0990   -2.8470 H   0  0  0  0  0  0  0  0  0  0  0  0
    6.6805    2.9154   -0.4579 H   0  0  0  0  0  0  0  0  0  0  0  0
    5.2259    1.7212    1.1346 H   0  0  0  0  0  0  0  0  0  0  0  0
    2.3051   -1.2017   -0.5357 H   0  0  0  0  0  0  0  0  0  0  0  0
   -1.2806    0.9963    1.2005 H   0  0  0  0  0  0  0  0  0  0  0  0
    0.3162    2.3223   -0.1600 H   0  0  0  0  0  0  0  0  0  0  0  0
   -1.3687    1.0472   -3.6997 H   0  0  0  0  0  0  0  0  0  0  0  0
   -3.0590   -0.3439   -2.5059 H   0  0  0  0  0  0  0  0  0  0  0  0
  1  2  1  0
  2  3  1  0
  3  4  2  0
  4  5  1  0
  5  6  2  0
  5  7  1  0
  7  8  1  0
  8  9  1  0
  9 10  2  0
 10 11  1  0
 11 12  2  0
 12 13  1  0
 13 14  2  0
 14 15  1  0
 15 16  2  0
 16 17  1  0
 17 18  2  0
 12 19  1  0
  4 20  1  0
 20 21  1  0
 21 22  2  0
 22 23  1  0
 23 24  2  0
 24 25  1  0
 25 26  2  0
 20 27  2  0
 27  2  1  0
 19  9  1  0
 26 21  1  0
 18 13  1  0
  1 28  1  0
  1 29  1  0
  1 30  1  0
  3 31  1  0
  7 32  1  0
  8 33  1  0
  8 34  1  0
 11 35  1  0
 14 36  1  0
 15 37  1  0
 16 38  1  0
 17 39  1  0
 18 40  1  0
 19 41  1  0
 22 42  1  0
 23 43  1  0
 25 44  1  0
 26 45  1  0
M  END
$$$$
OCNT-2314324
     RDKit          3D

 50 52  0  0  0  0  0  0  0  0999 V2000
    8.9759    1.3438   -0.5862 C   0  0  0  0  0  0  0  0  0  0  0  0
    8.4015    0.8685    0.7398 C   0  0  0  0  0  0  0  0  0  0  0  0
    6.9092    0.8235    0.7129 C   0  0  0  0  0  0  0  0  0  0  0  0
    5.9994    1.8231    0.9997 C   0  0  0  0  0  0  0  0  0  0  0  0
    4.6694    1.4724    0.8872 N   0  0  0  0  0  0  0  0  0  0  0  0
    4.5819    0.2237    0.5149 C   0  0  0  0  0  0  0  0  0  0  0  0
    3.4757   -0.5463    0.2883 N   0  0  0  0  0  0  0  0  0  0  0  0
    2.2001   -0.0391    0.3526 C   0  0  0  0  0  0  0  0  0  0  0  0
    1.8569    1.1196    0.5455 O   0  0  0  0  0  0  0  0  0  0  0  0
    1.1285   -1.0445    0.1247 C   0  0  0  0  0  0  0  0  0  0  0  0
    1.1995   -2.3280    0.6865 C   0  0  0  0  0  0  0  0  0  0  0  0
    0.1617   -3.2404    0.4797 C   0  0  0  0  0  0  0  0  0  0  0  0
   -0.9519   -2.8710   -0.2751 C   0  0  0  0  0  0  0  0  0  0  0  0
   -1.0269   -1.5822   -0.8145 C   0  0  0  0  0  0  0  0  0  0  0  0
   -2.4456   -1.1353   -1.7850 S   0  0  0  0  0  0  0  0  0  0  0  0
   -2.1714    0.1147   -2.4601 O   0  0  0  0  0  0  0  0  0  0  0  0
   -2.8458   -2.3146   -2.5233 O   0  0  0  0  0  0  0  0  0  0  0  0
   -3.6272   -0.8316   -0.5950 N   0  0  0  0  0  0  0  0  0  0  0  0
   -3.3943    0.3770    0.2681 C   0  0  0  0  0  0  0  0  0  0  0  0
   -4.3323    1.5286   -0.1324 C   0  0  0  0  0  0  0  0  0  0  0  0
   -4.0589    2.7763    0.6958 C   0  0  0  0  0  0  0  0  0  0  0  0
   -5.7196    1.1897    0.0436 O   0  0  0  0  0  0  0  0  0  0  0  0
   -6.0030   -0.2064   -0.1555 C   0  0  0  0  0  0  0  0  0  0  0  0
   -7.4403   -0.3146   -0.6455 C   0  0  0  0  0  0  0  0  0  0  0  0
   -5.0264   -0.8735   -1.1389 C   0  0  0  0  0  0  0  0  0  0  0  0
    0.0120   -0.6676   -0.6289 C   0  0  0  0  0  0  0  0  0  0  0  0
    6.0580   -0.6065    0.2894 S   0  0  0  0  0  0  0  0  0  0  0  0
   10.0688    1.3798   -0.5349 H   0  0  0  0  0  0  0  0  0  0  0  0
    8.6151    2.3468   -0.8385 H   0  0  0  0  0  0  0  0  0  0  0  0
    8.6968    0.6711   -1.4040 H   0  0  0  0  0  0  0  0  0  0  0  0
    8.8129   -0.1179    0.9838 H   0  0  0  0  0  0  0  0  0  0  0  0
    8.7286    1.5472    1.5368 H   0  0  0  0  0  0  0  0  0  0  0  0
    6.2514    2.8335    1.2989 H   0  0  0  0  0  0  0  0  0  0  0  0
    3.6474   -1.4984    0.0052 H   0  0  0  0  0  0  0  0  0  0  0  0
    2.0392   -2.6194    1.3129 H   0  0  0  0  0  0  0  0  0  0  0  0
    0.2139   -4.2356    0.9166 H   0  0  0  0  0  0  0  0  0  0  0  0
   -1.7601   -3.5831   -0.4344 H   0  0  0  0  0  0  0  0  0  0  0  0
   -3.5845    0.0684    1.3039 H   0  0  0  0  0  0  0  0  0  0  0  0
   -2.3524    0.7051    0.2214 H   0  0  0  0  0  0  0  0  0  0  0  0
   -4.1896    1.7771   -1.1912 H   0  0  0  0  0  0  0  0  0  0  0  0
   -3.0276    3.1197    0.5703 H   0  0  0  0  0  0  0  0  0  0  0  0
   -4.7348    3.5864    0.4018 H   0  0  0  0  0  0  0  0  0  0  0  0
   -4.2393    2.5863    1.7596 H   0  0  0  0  0  0  0  0  0  0  0  0
   -5.9309   -0.6940    0.8250 H   0  0  0  0  0  0  0  0  0  0  0  0
   -7.7396   -1.3587   -0.7775 H   0  0  0  0  0  0  0  0  0  0  0  0
   -7.5680    0.2111   -1.5983 H   0  0  0  0  0  0  0  0  0  0  0  0
   -8.1244    0.1575    0.0677 H   0  0  0  0  0  0  0  0  0  0  0  0
   -5.3068   -1.9222   -1.2895 H   0  0  0  0  0  0  0  0  0  0  0  0
   -5.0606   -0.3530   -2.1042 H   0  0  0  0  0  0  0  0  0  0  0  0
   -0.0416    0.3329   -1.0558 H   0  0  0  0  0  0  0  0  0  0  0  0
  1  2  1  0
  2  3  1  0
  3  4  2  0
  4  5  1  0
  5  6  2  0
  6  7  1  0
  7  8  1  0
  8  9  2  0
  8 10  1  0
 10 11  1  0
 11 12  2  0
 12 13  1  0
 13 14  2  0
 14 15  1  0
 15 16  2  0
 15 17  2  0
 15 18  1  0
 18 19  1  0
 19 20  1  0
 20 21  1  0
 20 22  1  0
 22 23  1  0
 23 24  1  0
 23 25  1  0
 14 26  1  0
  6 27  1  0
 27  3  1  0
 26 10  2  0
 25 18  1  0
  1 28  1  0
  1 29  1  0
  1 30  1  0
  2 31  1  0
  2 32  1  0
  4 33  1  0
  7 34  1  0
 11 35  1  0
 12 36  1  0
 13 37  1  0
 19 38  1  0
 19 39  1  0
 20 40  1  0
 21 41  1  0
 21 42  1  0
 21 43  1  0
 23 44  1  0
 24 45  1  0
 24 46  1  0
 24 47  1  0
 25 48  1  0
 25 49  1  0
 26 50  1  0
M  END
$$$$
OCNT-2314329
     RDKit          3D

 46 48  0  0  0  0  0  0  0  0999 V2000
   -4.8023   -0.5947   -0.9846 C   0  0  0  0  0  0  0  0  0  0  0  0
   -3.7033   -1.5772   -0.5727 C   0  0  0  0  0  0  0  0  0  0  0  0
   -3.9116   -2.9159   -1.2809 C   0  0  0  0  0  0  0  0  0  0  0  0
   -2.3203   -0.9678   -0.8679 C   0  0  0  0  0  0  0  0  0  0  0  0
   -1.1587   -1.8306   -0.3552 C   0  0  0  0  0  0  0  0  0  0  0  0
    0.1430   -1.1535   -0.4226 N   0  0  0  0  0  0  0  0  0  0  0  0
    0.6220   -0.5299    0.8130 C   0  0  0  0  0  0  0  0  0  0  0  0
   -0.0259    0.8044    1.1038 C   0  0  0  0  0  0  0  0  0  0  0  0
    0.3813    1.9666    0.4356 C   0  0  0  0  0  0  0  0  0  0  0  0
   -0.2390    3.1917    0.6957 C   0  0  0  0  0  0  0  0  0  0  0  0
   -1.2760    3.2735    1.6278 C   0  0  0  0  0  0  0  0  0  0  0  0
   -2.0017    4.8187    1.8930 Cl  0  0  0  0  0  0  0  0  0  0  0  0
   -1.6889    2.1233    2.3056 C   0  0  0  0  0  0  0  0  0  0  0  0
   -2.9644    2.1404    3.4709 Cl  0  0  0  0  0  0  0  0  0  0  0  0
   -1.0640    0.8976    2.0454 C   0  0  0  0  0  0  0  0  0  0  0  0
    0.7305   -1.0485   -1.6944 C   0  0  0  0  0  0  0  0  0  0  0  0
    0.1647   -1.5267   -2.6812 O   0  0  0  0  0  0  0  0  0  0  0  0
    2.0190   -0.3532   -1.8886 C   0  0  0  0  0  0  0  0  0  0  0  0
    2.4045    0.1189   -3.1356 C   0  0  0  0  0  0  0  0  0  0  0  0
    3.9378    0.8706   -3.0599 S   0  0  0  0  0  0  0  0  0  0  0  0
    4.0284    0.4843   -1.3955 C   0  0  0  0  0  0  0  0  0  0  0  0
    5.1587    0.8127   -0.5885 C   0  0  0  0  0  0  0  0  0  0  0  0
    6.2110    1.5312   -0.9208 N   0  0  0  0  0  0  0  0  0  0  0  0
    7.0528    1.5777    0.1713 N   0  0  0  0  0  0  0  0  0  0  0  0
    6.4934    0.8856    1.1361 C   0  0  0  0  0  0  0  0  0  0  0  0
    5.2993    0.3965    0.7075 N   0  0  0  0  0  0  0  0  0  0  0  0
    2.9816   -0.1468   -0.8979 N   0  0  0  0  0  0  0  0  0  0  0  0
   -4.6928    0.3555   -0.4507 H   0  0  0  0  0  0  0  0  0  0  0  0
   -5.7931   -0.9964   -0.7483 H   0  0  0  0  0  0  0  0  0  0  0  0
   -4.7682   -0.3861   -2.0593 H   0  0  0  0  0  0  0  0  0  0  0  0
   -3.7917   -1.7423    0.5090 H   0  0  0  0  0  0  0  0  0  0  0  0
   -4.9226   -3.2978   -1.1010 H   0  0  0  0  0  0  0  0  0  0  0  0
   -3.7755   -2.8174   -2.3629 H   0  0  0  0  0  0  0  0  0  0  0  0
   -3.2103   -3.6722   -0.9149 H   0  0  0  0  0  0  0  0  0  0  0  0
   -2.2141   -0.8014   -1.9472 H   0  0  0  0  0  0  0  0  0  0  0  0
   -2.2732    0.0263   -0.4098 H   0  0  0  0  0  0  0  0  0  0  0  0
   -1.0896   -2.7461   -0.9544 H   0  0  0  0  0  0  0  0  0  0  0  0
   -1.3406   -2.1473    0.6781 H   0  0  0  0  0  0  0  0  0  0  0  0
    1.7020   -0.4102    0.8308 H   0  0  0  0  0  0  0  0  0  0  0  0
    0.4234   -1.2283    1.6361 H   0  0  0  0  0  0  0  0  0  0  0  0
    1.1857    1.9330   -0.2957 H   0  0  0  0  0  0  0  0  0  0  0  0
    0.0904    4.0805    0.1621 H   0  0  0  0  0  0  0  0  0  0  0  0
   -1.3976    0.0072    2.5738 H   0  0  0  0  0  0  0  0  0  0  0  0
    1.8557    0.0562   -4.0658 H   0  0  0  0  0  0  0  0  0  0  0  0
    6.8981    0.7137    2.1241 H   0  0  0  0  0  0  0  0  0  0  0  0
    4.6422   -0.1756    1.2161 H   0  0  0  0  0  0  0  0  0  0  0  0
  1  2  1  0
  2  3  1  0
  2  4  1  0
  4  5  1  0
  5  6  1  0
  6  7  1  0
  7  8  1  0
  8  9  1  0
  9 10  2  0
 10 11  1  0
 11 12  1  0
 11 13  2  0
 13 14  1  0
 13 15  1  0
  6 16  1  0
 16 17  2  0
 16 18  1  0
 18 19  2  0
 19 20  1  0
 20 21  1  0
 21 22  1  0
 22 23  2  0
 23 24  1  0
 24 25  2  0
 25 26  1  0
 21 27  2  0
 15  8  2  0
 27 18  1  0
 26 22  1  0
  1 28  1  0
  1 29  1  0
  1 30  1  0
  2 31  1  0
  3 32  1  0
  3 33  1  0
  3 34  1  0
  4 35  1  0
  4 36  1  0
  5 37  1  0
  5 38  1  0
  7 39  1  0
  7 40  1  0
  9 41  1  0
 10 42  1  0
 15 43  1  0
 19 44  1  0
 25 45  1  0
 26 46  1  0
M  END
$$$$
OCNT-2314338
     RDKit          3D

 46 47  0  0  0  0  0  0  0  0999 V2000
   -8.4025    3.9009   -1.1564 N   0  0  0  0  0  0  0  0  0  0  0  0
   -7.7770    2.9304   -1.0243 C   0  0  0  0  0  0  0  0  0  0  0  0
   -7.0021    1.7421   -0.8239 C   0  0  0  0  0  0  0  0  0  0  0  0
   -6.0579    1.6913    0.2110 C   0  0  0  0  0  0  0  0  0  0  0  0
   -5.3051    0.5295    0.4276 C   0  0  0  0  0  0  0  0  0  0  0  0
   -5.4764   -0.5914   -0.4022 C   0  0  0  0  0  0  0  0  0  0  0  0
   -4.7214   -1.8801   -0.1926 C   0  0  0  0  0  0  0  0  0  0  0  0
   -3.4236   -1.7159    0.4358 N   0  0  0  0  0  0  0  0  0  0  0  0
   -2.3467   -1.3113   -0.3129 C   0  0  0  0  0  0  0  0  0  0  0  0
   -2.3993   -0.9685   -1.4852 O   0  0  0  0  0  0  0  0  0  0  0  0
   -1.1963   -1.3347    0.4241 N   0  0  0  0  0  0  0  0  0  0  0  0
    0.0836   -0.9483   -0.1424 C   0  0  0  0  0  0  0  0  0  0  0  0
    1.1547   -0.7922    0.9438 C   0  0  0  0  0  0  0  0  0  0  0  0
    1.3194   -2.0336    1.6485 O   0  0  0  0  0  0  0  0  0  0  0  0
    2.4968   -0.3568    0.3471 C   0  0  0  0  0  0  0  0  0  0  0  0
    3.4088   -0.1882    1.4446 O   0  0  0  0  0  0  0  0  0  0  0  0
    4.6820    0.2133    1.1482 C   0  0  0  0  0  0  0  0  0  0  0  0
    5.5431    0.2795    2.2465 C   0  0  0  0  0  0  0  0  0  0  0  0
    6.8645    0.6934    2.0894 C   0  0  0  0  0  0  0  0  0  0  0  0
    7.3403    1.0480    0.8282 C   0  0  0  0  0  0  0  0  0  0  0  0
    6.4946    0.9847   -0.2855 C   0  0  0  0  0  0  0  0  0  0  0  0
    6.9998    1.3406   -1.6623 C   0  0  0  0  0  0  0  0  0  0  0  0
    7.2355    0.2352   -2.4248 F   0  0  0  0  0  0  0  0  0  0  0  0
    8.1652    2.0478   -1.6533 F   0  0  0  0  0  0  0  0  0  0  0  0
    6.1100    2.0989   -2.3652 F   0  0  0  0  0  0  0  0  0  0  0  0
    5.1633    0.5510   -0.1178 C   0  0  0  0  0  0  0  0  0  0  0  0
   -6.4368   -0.5252   -1.4201 C   0  0  0  0  0  0  0  0  0  0  0  0
   -6.6611   -1.5940   -2.2030 F   0  0  0  0  0  0  0  0  0  0  0  0
   -7.1940    0.6253   -1.6405 C   0  0  0  0  0  0  0  0  0  0  0  0
   -5.9023    2.5584    0.8586 H   0  0  0  0  0  0  0  0  0  0  0  0
   -4.5825    0.5156    1.2470 H   0  0  0  0  0  0  0  0  0  0  0  0
   -4.5742   -2.4017   -1.1468 H   0  0  0  0  0  0  0  0  0  0  0  0
   -5.3160   -2.5217    0.4662 H   0  0  0  0  0  0  0  0  0  0  0  0
   -3.1829   -2.4195    1.1198 H   0  0  0  0  0  0  0  0  0  0  0  0
   -1.2634   -1.4233    1.4315 H   0  0  0  0  0  0  0  0  0  0  0  0
   -0.0485   -0.0040   -0.6890 H   0  0  0  0  0  0  0  0  0  0  0  0
    0.3595   -1.7288   -0.8631 H   0  0  0  0  0  0  0  0  0  0  0  0
    0.8240   -0.0580    1.6900 H   0  0  0  0  0  0  0  0  0  0  0  0
    2.1004   -1.9067    2.2182 H   0  0  0  0  0  0  0  0  0  0  0  0
    2.8824   -1.1431   -0.3194 H   0  0  0  0  0  0  0  0  0  0  0  0
    2.3677    0.5862   -0.2003 H   0  0  0  0  0  0  0  0  0  0  0  0
    5.1787    0.0175    3.2379 H   0  0  0  0  0  0  0  0  0  0  0  0
    7.5197    0.7505    2.9569 H   0  0  0  0  0  0  0  0  0  0  0  0
    8.3735    1.3805    0.7229 H   0  0  0  0  0  0  0  0  0  0  0  0
    4.5270    0.5015   -0.9947 H   0  0  0  0  0  0  0  0  0  0  0  0
   -7.9244    0.6248   -2.4493 H   0  0  0  0  0  0  0  0  0  0  0  0
  1  2  3  0
  2  3  1  0
  3  4  1  0
  4  5  2  0
  5  6  1  0
  6  7  1  0
  7  8  1  0
  8  9  1  0
  9 10  2  0
  9 11  1  0
 11 12  1  0
 12 13  1  0
 13 14  1  0
 13 15  1  0
 15 16  1  0
 16 17  1  0
 17 18  1  0
 18 19  2  0
 19 20  1  0
 20 21  2  0
 21 22  1  0
 22 23  1  0
 22 24  1  0
 22 25  1  0
 21 26  1  0
  6 27  2  0
 27 28  1  0
 27 29  1  0
 29  3  2  0
 26 17  2  0
  4 30  1  0
  5 31  1  0
  7 32  1  0
  7 33  1  0
  8 34  1  0
 11 35  1  0
 12 36  1  0
 12 37  1  0
 13 38  1  0
 14 39  1  0
 15 40  1  0
 15 41  1  0
 18 42  1  0
 19 43  1  0
 20 44  1  0
 26 45  1  0
 29 46  1  0
M  END
$$$$
OCNT-2314342
     RDKit          3D

 43 44  0  0  0  0  0  0  0  0999 V2000
   -2.9605    1.3879   -1.6478 C   0  0  0  0  0  0  0  0  0  0  0  0
   -2.1326    1.2654   -0.3453 C   0  0  0  0  0  0  0  0  0  0  0  0
   -0.9422    2.2433   -0.4538 C   0  0  0  0  0  0  0  0  0  0  0  0
   -3.0294    1.8036    0.7998 C   0  0  0  0  0  0  0  0  0  0  0  0
   -1.6473   -0.2353   -0.1051 C   0  0  0  0  0  0  0  0  0  0  0  0
   -0.6056   -0.7126   -1.1834 C   0  0  0  0  0  0  0  0  0  0  0  0
    0.7695   -0.3112   -0.9453 N   0  0  0  0  0  0  0  0  0  0  0  0
    1.6975   -1.1638   -0.3894 C   0  0  0  0  0  0  0  0  0  0  0  0
    1.4153   -2.2869    0.0174 O   0  0  0  0  0  0  0  0  0  0  0  0
    3.0814   -0.6447   -0.2100 C   0  0  0  0  0  0  0  0  0  0  0  0
    3.7263   -1.0505    0.9735 C   0  0  0  0  0  0  0  0  0  0  0  0
    5.0184   -0.6214    1.2667 C   0  0  0  0  0  0  0  0  0  0  0  0
    5.6837    0.2149    0.3765 C   0  0  0  0  0  0  0  0  0  0  0  0
    5.0615    0.6148   -0.8124 C   0  0  0  0  0  0  0  0  0  0  0  0
    6.0752    1.7503   -1.9577 Br  0  0  0  0  0  0  0  0  0  0  0  0
    3.7572    0.1854   -1.1212 C   0  0  0  0  0  0  0  0  0  0  0  0
    3.0298    0.6490   -2.6290 Cl  0  0  0  0  0  0  0  0  0  0  0  0
   -2.8135   -1.2541   -0.1308 C   0  0  0  0  0  0  0  0  0  0  0  0
   -2.3470   -2.4220    0.7397 C   0  0  0  0  0  0  0  0  0  0  0  0
   -1.1869   -1.9547    1.5074 N   0  0  0  0  0  0  0  0  0  0  0  0
   -1.1398   -0.4979    1.3282 C   0  0  0  0  0  0  0  0  0  0  0  0
   -2.3879    1.0996   -2.5335 H   0  0  0  0  0  0  0  0  0  0  0  0
   -3.8632    0.7696   -1.6124 H   0  0  0  0  0  0  0  0  0  0  0  0
   -3.2869    2.4227   -1.8082 H   0  0  0  0  0  0  0  0  0  0  0  0
   -1.2862    3.2848   -0.4571 H   0  0  0  0  0  0  0  0  0  0  0  0
   -0.3851    2.1042   -1.3848 H   0  0  0  0  0  0  0  0  0  0  0  0
   -0.2523    2.1318    0.3888 H   0  0  0  0  0  0  0  0  0  0  0  0
   -3.4302    2.7939    0.5500 H   0  0  0  0  0  0  0  0  0  0  0  0
   -2.4691    1.9275    1.7322 H   0  0  0  0  0  0  0  0  0  0  0  0
   -3.8891    1.1583    0.9973 H   0  0  0  0  0  0  0  0  0  0  0  0
   -0.6178   -1.8047   -1.2816 H   0  0  0  0  0  0  0  0  0  0  0  0
   -0.8685   -0.3370   -2.1760 H   0  0  0  0  0  0  0  0  0  0  0  0
    1.0891    0.5653   -1.3388 H   0  0  0  0  0  0  0  0  0  0  0  0
    3.2121   -1.7057    1.6771 H   0  0  0  0  0  0  0  0  0  0  0  0
    5.5030   -0.9406    2.1869 H   0  0  0  0  0  0  0  0  0  0  0  0
    6.6930    0.5455    0.6138 H   0  0  0  0  0  0  0  0  0  0  0  0
   -3.0627   -1.5845   -1.1454 H   0  0  0  0  0  0  0  0  0  0  0  0
   -3.7261   -0.8402    0.3089 H   0  0  0  0  0  0  0  0  0  0  0  0
   -2.0662   -3.2834    0.1240 H   0  0  0  0  0  0  0  0  0  0  0  0
   -3.1463   -2.7450    1.4146 H   0  0  0  0  0  0  0  0  0  0  0  0
   -0.3343   -2.3498    1.0837 H   0  0  0  0  0  0  0  0  0  0  0  0
   -0.1381   -0.1037    1.5210 H   0  0  0  0  0  0  0  0  0  0  0  0
   -1.7984   -0.0681    2.0888 H   0  0  0  0  0  0  0  0  0  0  0  0
  1  2  1  0
  2  3  1  0
  2  4  1  0
  2  5  1  0
  5  6  1  0
  6  7  1  0
  7  8  1  0
  8  9  2  0
  8 10  1  0
 10 11  2  0
 11 12  1  0
 12 13  2  0
 13 14  1  0
 14 15  1  0
 14 16  2  0
 16 17  1  0
  5 18  1  0
 18 19  1  0
 19 20  1  0
 20 21  1  0
 21  5  1  0
 16 10  1  0
  1 22  1  0
  1 23  1  0
  1 24  1  0
  3 25  1  0
  3 26  1  0
  3 27  1  0
  4 28  1  0
  4 29  1  0
  4 30  1  0
  6 31  1  0
  6 32  1  0
  7 33  1  0
 11 34  1  0
 12 35  1  0
 13 36  1  0
 18 37  1  0
 18 38  1  0
 19 39  1  0
 19 40  1  0
 20 41  1  0
 21 42  1  0
 21 43  1  0
M  END
$$$$
OCNT-2314356
     RDKit          3D

 41 44  0  0  0  0  0  0  0  0999 V2000
    0.0066   -1.8060   -2.3559 O   0  0  0  0  0  0  0  0  0  0  0  0
    0.0109   -0.8564   -1.5795 C   0  0  0  0  0  0  0  0  0  0  0  0
   -1.1047   -0.1030   -1.2928 N   0  0  0  0  0  0  0  0  0  0  0  0
   -2.3600   -0.3294   -1.9595 C   0  0  0  0  0  0  0  0  0  0  0  0
   -3.3978    0.5174   -1.3085 C   0  0  0  0  0  0  0  0  0  0  0  0
   -3.7664    1.7979   -1.6782 C   0  0  0  0  0  0  0  0  0  0  0  0
   -4.7495    2.2282   -0.8293 N   0  0  0  0  0  0  0  0  0  0  0  0
   -5.0353    1.2554    0.1000 C   0  0  0  0  0  0  0  0  0  0  0  0
   -5.9601    1.2594    1.1528 C   0  0  0  0  0  0  0  0  0  0  0  0
   -6.0316    0.1155    1.9516 C   0  0  0  0  0  0  0  0  0  0  0  0
   -5.2089   -0.9743    1.6981 C   0  0  0  0  0  0  0  0  0  0  0  0
   -5.2993   -2.0569    2.4831 F   0  0  0  0  0  0  0  0  0  0  0  0
   -4.2909   -0.9719    0.6485 C   0  0  0  0  0  0  0  0  0  0  0  0
   -4.2011    0.1690   -0.1740 C   0  0  0  0  0  0  0  0  0  0  0  0
    1.2597   -0.4384   -0.8803 C   0  0  0  0  0  0  0  0  0  0  0  0
    2.4400   -1.1408   -1.0527 C   0  0  0  0  0  0  0  0  0  0  0  0
    3.5786   -0.7040   -0.3736 C   0  0  0  0  0  0  0  0  0  0  0  0
    3.4664    0.4351    0.4245 C   0  0  0  0  0  0  0  0  0  0  0  0
    4.6299    0.9622    1.2183 C   0  0  0  0  0  0  0  0  0  0  0  0
    5.9778    0.4559    0.7091 C   0  0  0  0  0  0  0  0  0  0  0  0
    5.9311   -1.0531    0.4954 C   0  0  0  0  0  0  0  0  0  0  0  0
    4.8911   -1.4149   -0.5650 C   0  0  0  0  0  0  0  0  0  0  0  0
    2.2902    1.0921    0.5703 N   0  0  0  0  0  0  0  0  0  0  0  0
    1.1755    0.6561   -0.0878 N   0  0  0  0  0  0  0  0  0  0  0  0
   -0.9950    0.7095   -0.6929 H   0  0  0  0  0  0  0  0  0  0  0  0
   -2.6123   -1.3939   -1.9053 H   0  0  0  0  0  0  0  0  0  0  0  0
   -2.2391   -0.0671   -3.0164 H   0  0  0  0  0  0  0  0  0  0  0  0
   -3.4092    2.4367   -2.4755 H   0  0  0  0  0  0  0  0  0  0  0  0
   -5.2019    3.1312   -0.8715 H   0  0  0  0  0  0  0  0  0  0  0  0
   -6.5984    2.1152    1.3470 H   0  0  0  0  0  0  0  0  0  0  0  0
   -6.7317    0.0697    2.7805 H   0  0  0  0  0  0  0  0  0  0  0  0
   -3.6613   -1.8393    0.4818 H   0  0  0  0  0  0  0  0  0  0  0  0
    2.4697   -2.0092   -1.7037 H   0  0  0  0  0  0  0  0  0  0  0  0
    4.6235    2.0581    1.2000 H   0  0  0  0  0  0  0  0  0  0  0  0
    4.4944    0.6508    2.2614 H   0  0  0  0  0  0  0  0  0  0  0  0
    6.7633    0.7117    1.4289 H   0  0  0  0  0  0  0  0  0  0  0  0
    6.2318    0.9528   -0.2358 H   0  0  0  0  0  0  0  0  0  0  0  0
    6.9153   -1.4228    0.1870 H   0  0  0  0  0  0  0  0  0  0  0  0
    5.6842   -1.5488    1.4429 H   0  0  0  0  0  0  0  0  0  0  0  0
    4.7344   -2.5001   -0.5506 H   0  0  0  0  0  0  0  0  0  0  0  0
    5.2798   -1.1496   -1.5562 H   0  0  0  0  0  0  0  0  0  0  0  0
  1  2  2  0
  2  3  1  0
  3  4  1  0
  4  5  1  0
  5  6  2  0
  6  7  1  0
  7  8  1  0
  8  9  2  0
  9 10  1  0
 10 11  2  0
 11 12  1  0
 11 13  1  0
 13 14  2  0
  2 15  1  0
 15 16  2  0
 16 17  1  0
 17 18  2  0
 18 19  1  0
 19 20  1  0
 20 21  1  0
 21 22  1  0
 18 23  1  0
 23 24  2  0
 14  5  1  0
 24 15  1  0
 14  8  1  0
 22 17  1  0
  3 25  1  0
  4 26  1  0
  4 27  1  0
  6 28  1  0
  7 29  1  0
  9 30  1  0
 10 31  1  0
 13 32  1  0
 16 33  1  0
 19 34  1  0
 19 35  1  0
 20 36  1  0
 20 37  1  0
 21 38  1  0
 21 39  1  0
 22 40  1  0
 22 41  1  0
M  END
$$$$
OCNT-2314360
     RDKit          3D

 52 55  0  0  0  0  0  0  0  0999 V2000
    7.1014   -0.1274    0.5307 C   0  0  0  0  0  0  0  0  0  0  0  0
    6.2363    0.7222   -0.3249 C   0  0  0  0  0  0  0  0  0  0  0  0
    6.7697    1.6981   -1.0710 N   0  0  0  0  0  0  0  0  0  0  0  0
    5.7122    2.2414   -1.6977 N   0  0  0  0  0  0  0  0  0  0  0  0
    4.5112    1.6683   -1.3738 C   0  0  0  0  0  0  0  0  0  0  0  0
    3.2066    1.9467   -1.7955 C   0  0  0  0  0  0  0  0  0  0  0  0
    2.1850    1.1539   -1.2613 C   0  0  0  0  0  0  0  0  0  0  0  0
    2.4712    0.1294   -0.3496 C   0  0  0  0  0  0  0  0  0  0  0  0
    1.3827   -0.7127    0.2017 C   0  0  0  0  0  0  0  0  0  0  0  0
    1.5233   -1.9251    0.2969 O   0  0  0  0  0  0  0  0  0  0  0  0
    0.2539   -0.0340    0.5932 N   0  0  0  0  0  0  0  0  0  0  0  0
   -0.8849   -0.6838    1.2212 C   0  0  0  0  0  0  0  0  0  0  0  0
   -1.9200   -1.2604    0.2279 C   0  0  0  0  0  0  0  0  0  0  0  0
   -2.4050   -0.1886   -0.8042 C   0  0  0  0  0  0  0  0  0  0  0  0
   -3.0517    1.0664   -0.2559 C   0  0  0  0  0  0  0  0  0  0  0  0
   -4.4261    1.0916    0.0309 C   0  0  0  0  0  0  0  0  0  0  0  0
   -5.0291    2.2507    0.5240 C   0  0  0  0  0  0  0  0  0  0  0  0
   -4.2605    3.3889    0.7261 C   0  0  0  0  0  0  0  0  0  0  0  0
   -4.8378    4.4999    1.1974 F   0  0  0  0  0  0  0  0  0  0  0  0
   -2.9029    3.3944    0.4336 C   0  0  0  0  0  0  0  0  0  0  0  0
   -2.3011    2.2374   -0.0644 C   0  0  0  0  0  0  0  0  0  0  0  0
   -3.0854   -1.8962    1.0198 C   0  0  0  0  0  0  0  0  0  0  0  0
   -3.7624   -2.8580    0.0453 C   0  0  0  0  0  0  0  0  0  0  0  0
   -2.6928   -3.2453   -0.9773 C   0  0  0  0  0  0  0  0  0  0  0  0
   -1.4185   -2.5103   -0.5459 C   0  0  0  0  0  0  0  0  0  0  0  0
   -0.6928   -3.4069    0.2923 O   0  0  0  0  0  0  0  0  0  0  0  0
    3.7897   -0.1456    0.0440 C   0  0  0  0  0  0  0  0  0  0  0  0
    4.8239    0.6537   -0.4749 C   0  0  0  0  0  0  0  0  0  0  0  0
    6.8150   -0.0241    1.5828 H   0  0  0  0  0  0  0  0  0  0  0  0
    7.0048   -1.1807    0.2494 H   0  0  0  0  0  0  0  0  0  0  0  0
    8.1553    0.1521    0.4389 H   0  0  0  0  0  0  0  0  0  0  0  0
    5.8791    3.0079   -2.3381 H   0  0  0  0  0  0  0  0  0  0  0  0
    2.9916    2.7355   -2.5116 H   0  0  0  0  0  0  0  0  0  0  0  0
    1.1630    1.3259   -1.5898 H   0  0  0  0  0  0  0  0  0  0  0  0
    0.3130    0.9717    0.6723 H   0  0  0  0  0  0  0  0  0  0  0  0
   -0.5058   -1.4594    1.8993 H   0  0  0  0  0  0  0  0  0  0  0  0
   -1.3578    0.0727    1.8594 H   0  0  0  0  0  0  0  0  0  0  0  0
   -1.5555    0.1110   -1.4333 H   0  0  0  0  0  0  0  0  0  0  0  0
   -3.1160   -0.6287   -1.5153 H   0  0  0  0  0  0  0  0  0  0  0  0
   -5.0418    0.2101   -0.1367 H   0  0  0  0  0  0  0  0  0  0  0  0
   -6.0916    2.2720    0.7461 H   0  0  0  0  0  0  0  0  0  0  0  0
   -2.3252    4.3008    0.5874 H   0  0  0  0  0  0  0  0  0  0  0  0
   -1.2456    2.2658   -0.3178 H   0  0  0  0  0  0  0  0  0  0  0  0
   -3.7861   -1.1735    1.4412 H   0  0  0  0  0  0  0  0  0  0  0  0
   -2.6969   -2.4765    1.8674 H   0  0  0  0  0  0  0  0  0  0  0  0
   -4.1579   -3.7348    0.5672 H   0  0  0  0  0  0  0  0  0  0  0  0
   -4.6041   -2.3729   -0.4604 H   0  0  0  0  0  0  0  0  0  0  0  0
   -2.5581   -4.3324   -1.0069 H   0  0  0  0  0  0  0  0  0  0  0  0
   -3.0083   -2.9209   -1.9747 H   0  0  0  0  0  0  0  0  0  0  0  0
   -0.7941   -2.2646   -1.4103 H   0  0  0  0  0  0  0  0  0  0  0  0
    0.2230   -3.0512    0.3599 H   0  0  0  0  0  0  0  0  0  0  0  0
    4.0039   -0.9547    0.7397 H   0  0  0  0  0  0  0  0  0  0  0  0
  1  2  1  0
  2  3  2  0
  3  4  1  0
  4  5  1  0
  5  6  2  0
  6  7  1  0
  7  8  2  0
  8  9  1  0
  9 10  2  0
  9 11  1  0
 11 12  1  0
 12 13  1  0
 13 14  1  0
 14 15  1  0
 15 16  1  0
 16 17  2  0
 17 18  1  0
 18 19  1  0
 18 20  2  0
 20 21  1  0
 13 22  1  0
 22 23  1  0
 23 24  1  0
 24 25  1  0
 25 26  1  0
  8 27  1  0
 27 28  2  0
 28  2  1  0
 28  5  1  0
 25 13  1  0
 21 15  2  0
  1 29  1  0
  1 30  1  0
  1 31  1  0
  4 32  1  0
  6 33  1  0
  7 34  1  0
 11 35  1  0
 12 36  1  0
 12 37  1  0
 14 38  1  0
 14 39  1  0
 16 40  1  0
 17 41  1  0
 20 42  1  0
 21 43  1  0
 22 44  1  0
 22 45  1  0
 23 46  1  0
 23 47  1  0
 24 48  1  0
 24 49  1  0
 25 50  1  0
 26 51  1  0
 27 52  1  0
M  END
$$$$
OCNT-2314371
     RDKit          3D

 44 47  0  0  0  0  0  0  0  0999 V2000
    5.3234   -2.0529    0.5619 C   0  0  0  0  0  0  0  0  0  0  0  0
    4.7495   -0.6871    0.4940 C   0  0  0  0  0  0  0  0  0  0  0  0
    5.5532    0.3862    0.5202 N   0  0  0  0  0  0  0  0  0  0  0  0
    4.6973    1.4312    0.4582 N   0  0  0  0  0  0  0  0  0  0  0  0
    5.2160    2.7753    0.4807 C   0  0  0  0  0  0  0  0  0  0  0  0
    3.3823    1.0635    0.3700 C   0  0  0  0  0  0  0  0  0  0  0  0
    2.3096    1.8813    0.2895 N   0  0  0  0  0  0  0  0  0  0  0  0
    1.1371    1.2010    0.2266 C   0  0  0  0  0  0  0  0  0  0  0  0
    1.0037   -0.1840    0.2044 C   0  0  0  0  0  0  0  0  0  0  0  0
   -0.3265   -0.8186    0.1313 C   0  0  0  0  0  0  0  0  0  0  0  0
   -0.5632   -1.7503    0.8950 O   0  0  0  0  0  0  0  0  0  0  0  0
   -1.2380   -0.3381   -0.7982 N   0  0  0  0  0  0  0  0  0  0  0  0
   -0.8785    0.2823   -2.0690 C   0  0  0  0  0  0  0  0  0  0  0  0
   -1.8880   -0.2781   -3.0600 C   0  0  0  0  0  0  0  0  0  0  0  0
   -3.1420   -0.4305   -2.2112 C   0  0  0  0  0  0  0  0  0  0  0  0
   -2.5876   -0.9033   -0.8579 C   0  0  0  0  0  0  0  0  0  0  0  0
   -3.4618   -0.4718    0.3009 C   0  0  0  0  0  0  0  0  0  0  0  0
   -4.1559   -1.4340    1.0533 C   0  0  0  0  0  0  0  0  0  0  0  0
   -4.9730   -1.0556    2.1232 C   0  0  0  0  0  0  0  0  0  0  0  0
   -5.1065    0.2906    2.4548 C   0  0  0  0  0  0  0  0  0  0  0  0
   -4.4190    1.2458    1.7173 C   0  0  0  0  0  0  0  0  0  0  0  0
   -4.5443    2.5414    2.0354 F   0  0  0  0  0  0  0  0  0  0  0  0
   -3.6031    0.8805    0.6513 C   0  0  0  0  0  0  0  0  0  0  0  0
    2.1446   -0.9853    0.3114 C   0  0  0  0  0  0  0  0  0  0  0  0
    3.3806   -0.3258    0.3891 C   0  0  0  0  0  0  0  0  0  0  0  0
    6.3809   -2.0313    0.8454 H   0  0  0  0  0  0  0  0  0  0  0  0
    5.2408   -2.5473   -0.4113 H   0  0  0  0  0  0  0  0  0  0  0  0
    4.7898   -2.6571    1.3026 H   0  0  0  0  0  0  0  0  0  0  0  0
    4.4076    3.4838    0.6796 H   0  0  0  0  0  0  0  0  0  0  0  0
    5.6680    2.9824   -0.4935 H   0  0  0  0  0  0  0  0  0  0  0  0
    5.9669    2.8470    1.2729 H   0  0  0  0  0  0  0  0  0  0  0  0
    0.2570    1.8402    0.2024 H   0  0  0  0  0  0  0  0  0  0  0  0
   -1.0037    1.3647   -1.9583 H   0  0  0  0  0  0  0  0  0  0  0  0
    0.1504    0.0583   -2.3634 H   0  0  0  0  0  0  0  0  0  0  0  0
   -2.0339    0.3720   -3.9271 H   0  0  0  0  0  0  0  0  0  0  0  0
   -1.5603   -1.2621   -3.4168 H   0  0  0  0  0  0  0  0  0  0  0  0
   -3.6474    0.5402   -2.1369 H   0  0  0  0  0  0  0  0  0  0  0  0
   -3.8557   -1.1427   -2.6373 H   0  0  0  0  0  0  0  0  0  0  0  0
   -2.4800   -1.9961   -0.8716 H   0  0  0  0  0  0  0  0  0  0  0  0
   -4.0512   -2.4922    0.8194 H   0  0  0  0  0  0  0  0  0  0  0  0
   -5.4970   -1.8133    2.7003 H   0  0  0  0  0  0  0  0  0  0  0  0
   -5.7341    0.5996    3.2841 H   0  0  0  0  0  0  0  0  0  0  0  0
   -3.0792    1.6582    0.1045 H   0  0  0  0  0  0  0  0  0  0  0  0
    2.0713   -2.0679    0.3331 H   0  0  0  0  0  0  0  0  0  0  0  0
  1  2  1  0
  2  3  2  0
  3  4  1  0
  4  5  1  0
  4  6  1  0
  6  7  1  0
  7  8  2  0
  8  9  1  0
  9 10  1  0
 10 11  2  0
 10 12  1  0
 12 13  1  0
 13 14  1  0
 14 15  1  0
 15 16  1  0
 16 17  1  0
 17 18  2  0
 18 19  1  0
 19 20  2  0
 20 21  1  0
 21 22  1  0
 21 23  2  0
  9 24  2  0
 24 25  1  0
 25  2  1  0
 25  6  2  0
 16 12  1  0
 23 17  1  0
  1 26  1  0
  1 27  1  0
  1 28  1  0
  5 29  1  0
  5 30  1  0
  5 31  1  0
  8 32  1  0
 13 33  1  0
 13 34  1  0
 14 35  1  0
 14 36  1  0
 15 37  1  0
 15 38  1  0
 16 39  1  0
 18 40  1  0
 19 41  1  0
 20 42  1  0
 23 43  1  0
 24 44  1  0
M  END
$$$$
OCNT-2314377
     RDKit          3D

 47 51  0  0  0  0  0  0  0  0999 V2000
    0.2338    0.6225   -1.3502 O   0  0  0  0  0  0  0  0  0  0  0  0
    0.1747    0.1131   -0.2372 C   0  0  0  0  0  0  0  0  0  0  0  0
    1.2557   -0.1291    0.5822 N   0  0  0  0  0  0  0  0  0  0  0  0
    2.6111    0.1025    0.2784 C   0  0  0  0  0  0  0  0  0  0  0  0
    3.5751   -0.1131    1.2425 C   0  0  0  0  0  0  0  0  0  0  0  0
    4.9001    0.0681    1.0563 N   0  0  0  0  0  0  0  0  0  0  0  0
    5.2973    0.4844   -0.1637 C   0  0  0  0  0  0  0  0  0  0  0  0
    6.7690    0.7059   -0.4077 C   0  0  0  0  0  0  0  0  0  0  0  0
    7.7652   -0.3939   -0.1134 C   0  0  0  0  0  0  0  0  0  0  0  0
    7.4703   -0.0194   -1.5347 C   0  0  0  0  0  0  0  0  0  0  0  0
    4.4341    0.7247   -1.1713 N   0  0  0  0  0  0  0  0  0  0  0  0
    3.1150    0.5297   -0.9307 C   0  0  0  0  0  0  0  0  0  0  0  0
   -1.0225   -0.2673    0.3329 N   0  0  0  0  0  0  0  0  0  0  0  0
   -1.2861   -1.4069    1.2145 C   0  0  0  0  0  0  0  0  0  0  0  0
   -2.6506   -1.4599    0.5988 C   0  0  0  0  0  0  0  0  0  0  0  0
   -3.8576   -1.3508    1.5079 C   0  0  0  0  0  0  0  0  0  0  0  0
   -4.5589   -2.3517    0.5565 C   0  0  0  0  0  0  0  0  0  0  0  0
   -3.1557   -2.7862    0.0654 C   0  0  0  0  0  0  0  0  0  0  0  0
   -2.3079   -0.3760   -0.4012 C   0  0  0  0  0  0  0  0  0  0  0  0
   -3.1969    0.9372   -0.5016 C   0  0  0  0  0  0  0  0  0  0  0  0
   -2.9688    2.0870    0.2824 C   0  0  0  0  0  0  0  0  0  0  0  0
   -3.7722    3.2273    0.1832 C   0  0  0  0  0  0  0  0  0  0  0  0
   -4.8360    3.2532   -0.7113 C   0  0  0  0  0  0  0  0  0  0  0  0
   -5.0923    2.1418   -1.5054 C   0  0  0  0  0  0  0  0  0  0  0  0
   -4.2829    1.0067   -1.3995 C   0  0  0  0  0  0  0  0  0  0  0  0
    1.0309   -0.4133    1.5239 H   0  0  0  0  0  0  0  0  0  0  0  0
    3.3133   -0.4525    2.2402 H   0  0  0  0  0  0  0  0  0  0  0  0
    7.1040    1.7202   -0.2119 H   0  0  0  0  0  0  0  0  0  0  0  0
    7.3900   -1.3434    0.2518 H   0  0  0  0  0  0  0  0  0  0  0  0
    8.7222   -0.1055    0.3047 H   0  0  0  0  0  0  0  0  0  0  0  0
    8.2245    0.5258   -2.0893 H   0  0  0  0  0  0  0  0  0  0  0  0
    6.8924   -0.7117   -2.1371 H   0  0  0  0  0  0  0  0  0  0  0  0
    2.4830    0.7391   -1.7874 H   0  0  0  0  0  0  0  0  0  0  0  0
   -1.2404   -1.1358    2.2726 H   0  0  0  0  0  0  0  0  0  0  0  0
   -0.6377   -2.2653    1.0150 H   0  0  0  0  0  0  0  0  0  0  0  0
   -3.6994   -1.7597    2.5135 H   0  0  0  0  0  0  0  0  0  0  0  0
   -4.3470   -0.3801    1.6100 H   0  0  0  0  0  0  0  0  0  0  0  0
   -5.1670   -1.8717   -0.2185 H   0  0  0  0  0  0  0  0  0  0  0  0
   -5.1527   -3.1301    1.0423 H   0  0  0  0  0  0  0  0  0  0  0  0
   -3.0720   -2.9574   -1.0112 H   0  0  0  0  0  0  0  0  0  0  0  0
   -2.7664   -3.6647    0.5932 H   0  0  0  0  0  0  0  0  0  0  0  0
   -2.1154   -0.7813   -1.4069 H   0  0  0  0  0  0  0  0  0  0  0  0
   -2.1391    2.0974    0.9864 H   0  0  0  0  0  0  0  0  0  0  0  0
   -3.5596    4.0950    0.8020 H   0  0  0  0  0  0  0  0  0  0  0  0
   -5.4590    4.1394   -0.7935 H   0  0  0  0  0  0  0  0  0  0  0  0
   -5.9179    2.1559   -2.2118 H   0  0  0  0  0  0  0  0  0  0  0  0
   -4.4997    0.1501   -2.0358 H   0  0  0  0  0  0  0  0  0  0  0  0
  1  2  2  0
  2  3  1  0
  3  4  1  0
  4  5  2  0
  5  6  1  0
  6  7  2  0
  7  8  1  0
  8  9  1  0
  9 10  1  0
  7 11  1  0
 11 12  2  0
  2 13  1  0
 13 14  1  0
 14 15  1  0
 15 16  1  0
 16 17  1  0
 17 18  1  0
 15 19  1  0
 19 20  1  0
 20 21  2  0
 21 22  1  0
 22 23  2  0
 23 24  1  0
 24 25  2  0
 12  4  1  0
 19 13  1  0
 25 20  1  0
 10  8  1  0
 18 15  1  0
  3 26  1  0
  5 27  1  0
  8 28  1  0
  9 29  1  0
  9 30  1  0
 10 31  1  0
 10 32  1  0
 12 33  1  0
 14 34  1  0
 14 35  1  0
 16 36  1  0
 16 37  1  0
 17 38  1  0
 17 39  1  0
 18 40  1  0
 18 41  1  0
 19 42  1  0
 21 43  1  0
 22 44  1  0
 23 45  1  0
 24 46  1  0
 25 47  1  0
M  END
$$$$
OCNT-2314380
     RDKit          3D

 46 49  0  0  0  0  0  0  0  0999 V2000
    6.5259    1.1290    0.4852 C   0  0  0  0  0  0  0  0  0  0  0  0
    5.1302    0.8360    0.3973 O   0  0  0  0  0  0  0  0  0  0  0  0
    4.8451   -0.3713   -0.1742 C   0  0  0  0  0  0  0  0  0  0  0  0
    5.7068   -1.1475   -0.5832 O   0  0  0  0  0  0  0  0  0  0  0  0
    3.3750   -0.6283   -0.2402 C   0  0  0  0  0  0  0  0  0  0  0  0
    2.5767   -1.8065    0.3969 C   0  0  0  0  0  0  0  0  0  0  0  0
    1.4693   -0.9867   -0.3385 C   0  0  0  0  0  0  0  0  0  0  0  0
    0.0117   -1.3079   -0.4332 C   0  0  0  0  0  0  0  0  0  0  0  0
   -0.4113   -2.3700   -0.8928 O   0  0  0  0  0  0  0  0  0  0  0  0
   -0.8267   -0.3182    0.0344 N   0  0  0  0  0  0  0  0  0  0  0  0
   -2.2687   -0.4297   -0.0326 C   0  0  0  0  0  0  0  0  0  0  0  0
   -2.7487    0.6004   -1.0457 C   0  0  0  0  0  0  0  0  0  0  0  0
   -2.4008    0.2965   -2.5337 C   0  0  0  0  0  0  0  0  0  0  0  0
   -3.7645    0.9102   -2.9050 C   0  0  0  0  0  0  0  0  0  0  0  0
   -4.2394    0.5237   -1.4909 C   0  0  0  0  0  0  0  0  0  0  0  0
   -2.8905    0.0162    1.2927 C   0  0  0  0  0  0  0  0  0  0  0  0
   -2.4117    1.2870    2.0544 C   0  0  0  0  0  0  0  0  0  0  0  0
   -1.6069    0.3791    2.9998 C   0  0  0  0  0  0  0  0  0  0  0  0
   -2.4850   -0.8007    2.5510 C   0  0  0  0  0  0  0  0  0  0  0  0
    2.1922    0.2681    0.2409 C   0  0  0  0  0  0  0  0  0  0  0  0
    2.5008   -0.8858   -1.5059 C   0  0  0  0  0  0  0  0  0  0  0  0
    7.0337    0.3899    1.1126 H   0  0  0  0  0  0  0  0  0  0  0  0
    6.9737    1.1665   -0.5127 H   0  0  0  0  0  0  0  0  0  0  0  0
    6.6363    2.1122    0.9509 H   0  0  0  0  0  0  0  0  0  0  0  0
    2.5263   -1.8397    1.4907 H   0  0  0  0  0  0  0  0  0  0  0  0
    2.7860   -2.8124    0.0172 H   0  0  0  0  0  0  0  0  0  0  0  0
   -0.4220    0.5618    0.3246 H   0  0  0  0  0  0  0  0  0  0  0  0
   -2.5836   -1.4449   -0.2959 H   0  0  0  0  0  0  0  0  0  0  0  0
   -2.4608    1.6301   -0.7822 H   0  0  0  0  0  0  0  0  0  0  0  0
   -2.3223   -0.7699   -2.7765 H   0  0  0  0  0  0  0  0  0  0  0  0
   -1.5249    0.8157   -2.9316 H   0  0  0  0  0  0  0  0  0  0  0  0
   -3.7295    1.9918   -3.0793 H   0  0  0  0  0  0  0  0  0  0  0  0
   -4.2931    0.4315   -3.7328 H   0  0  0  0  0  0  0  0  0  0  0  0
   -4.9154    1.2359   -1.0105 H   0  0  0  0  0  0  0  0  0  0  0  0
   -4.6800   -0.4788   -1.4353 H   0  0  0  0  0  0  0  0  0  0  0  0
   -3.9860    0.0079    1.1867 H   0  0  0  0  0  0  0  0  0  0  0  0
   -1.8208    2.0136    1.4911 H   0  0  0  0  0  0  0  0  0  0  0  0
   -3.2276    1.8206    2.5567 H   0  0  0  0  0  0  0  0  0  0  0  0
   -1.6697    0.6338    4.0613 H   0  0  0  0  0  0  0  0  0  0  0  0
   -0.5508    0.2759    2.7288 H   0  0  0  0  0  0  0  0  0  0  0  0
   -3.3242   -0.9989    3.2283 H   0  0  0  0  0  0  0  0  0  0  0  0
   -1.9525   -1.7396    2.3749 H   0  0  0  0  0  0  0  0  0  0  0  0
    2.1041    0.4392    1.3194 H   0  0  0  0  0  0  0  0  0  0  0  0
    2.0418    1.2169   -0.2856 H   0  0  0  0  0  0  0  0  0  0  0  0
    2.3794   -0.0512   -2.2050 H   0  0  0  0  0  0  0  0  0  0  0  0
    2.7025   -1.8013   -2.0725 H   0  0  0  0  0  0  0  0  0  0  0  0
  1  2  1  0
  2  3  1  0
  3  4  2  0
  3  5  1  0
  5  6  1  0
  6  7  1  0
  7  8  1  0
  8  9  2  0
  8 10  1  0
 10 11  1  0
 11 12  1  0
 12 13  1  0
 13 14  1  0
 14 15  1  0
 11 16  1  0
 16 17  1  0
 17 18  1  0
 18 19  1  0
  7 20  1  0
  7 21  1  0
 20  5  1  0
 21  5  1  0
 15 12  1  0
 19 16  1  0
  1 22  1  0
  1 23  1  0
  1 24  1  0
  6 25  1  0
  6 26  1  0
 10 27  1  0
 11 28  1  0
 12 29  1  0
 13 30  1  0
 13 31  1  0
 14 32  1  0
 14 33  1  0
 15 34  1  0
 15 35  1  0
 16 36  1  0
 17 37  1  0
 17 38  1  0
 18 39  1  0
 18 40  1  0
 19 41  1  0
 19 42  1  0
 20 43  1  0
 20 44  1  0
 21 45  1  0
 21 46  1  0
M  END
$$$$
OCNT-2314381
     RDKit          3D

 46 49  0  0  0  0  0  0  0  0999 V2000
    4.3391   -3.1197    0.8191 C   0  0  0  0  0  0  0  0  0  0  0  0
    3.6882   -2.0295    0.1348 N   0  0  0  0  0  0  0  0  0  0  0  0
    2.3569   -1.9044   -0.1356 C   0  0  0  0  0  0  0  0  0  0  0  0
    2.2065   -0.7039   -0.8034 C   0  0  0  0  0  0  0  0  0  0  0  0
    0.9575   -0.0736   -1.3362 C   0  0  0  0  0  0  0  0  0  0  0  0
    0.2166    0.8249   -0.4428 N   0  0  0  0  0  0  0  0  0  0  0  0
   -0.3603    0.2794    0.7984 C   0  0  0  0  0  0  0  0  0  0  0  0
   -1.2798   -0.9356    0.5854 C   0  0  0  0  0  0  0  0  0  0  0  0
   -1.6976   -1.5609    1.9385 C   0  0  0  0  0  0  0  0  0  0  0  0
   -3.0150   -2.3033    1.6831 C   0  0  0  0  0  0  0  0  0  0  0  0
   -3.6150   -1.4513    0.6098 C   0  0  0  0  0  0  0  0  0  0  0  0
   -4.9380   -1.4160    0.2006 C   0  0  0  0  0  0  0  0  0  0  0  0
   -5.2851   -0.5594   -0.8449 C   0  0  0  0  0  0  0  0  0  0  0  0
   -4.3119    0.2350   -1.4687 C   0  0  0  0  0  0  0  0  0  0  0  0
   -2.9776    0.1823   -1.0577 C   0  0  0  0  0  0  0  0  0  0  0  0
   -2.6375   -0.6620   -0.0126 C   0  0  0  0  0  0  0  0  0  0  0  0
    0.7941    2.0901   -0.3048 C   0  0  0  0  0  0  0  0  0  0  0  0
    0.5791    2.7963    0.8188 N   0  0  0  0  0  0  0  0  0  0  0  0
    1.1154    4.0253    0.9265 C   0  0  0  0  0  0  0  0  0  0  0  0
    1.8679    4.6024   -0.0566 C   0  0  0  0  0  0  0  0  0  0  0  0
    2.0363    3.8247   -1.1744 C   0  0  0  0  0  0  0  0  0  0  0  0
    2.8017    4.3079   -2.2887 C   0  0  0  0  0  0  0  0  0  0  0  0
    3.4291    4.7336   -3.1693 N   0  0  0  0  0  0  0  0  0  0  0  0
    1.5174    2.5867   -1.3179 N   0  0  0  0  0  0  0  0  0  0  0  0
    3.5226   -0.1941   -0.8838 C   0  0  0  0  0  0  0  0  0  0  0  0
    4.4229   -0.9972   -0.3122 N   0  0  0  0  0  0  0  0  0  0  0  0
    3.5932   -3.8632    1.1107 H   0  0  0  0  0  0  0  0  0  0  0  0
    4.8360   -2.7216    1.7073 H   0  0  0  0  0  0  0  0  0  0  0  0
    5.0672   -3.5683    0.1388 H   0  0  0  0  0  0  0  0  0  0  0  0
    1.6424   -2.6599    0.1586 H   0  0  0  0  0  0  0  0  0  0  0  0
    0.2843   -0.8798   -1.6539 H   0  0  0  0  0  0  0  0  0  0  0  0
    1.1888    0.4243   -2.2885 H   0  0  0  0  0  0  0  0  0  0  0  0
   -0.9600    1.0461    1.3081 H   0  0  0  0  0  0  0  0  0  0  0  0
    0.4538    0.0004    1.4805 H   0  0  0  0  0  0  0  0  0  0  0  0
   -0.7936   -1.7143   -0.0118 H   0  0  0  0  0  0  0  0  0  0  0  0
   -0.9248   -2.2233    2.3427 H   0  0  0  0  0  0  0  0  0  0  0  0
   -1.8705   -0.7723    2.6847 H   0  0  0  0  0  0  0  0  0  0  0  0
   -3.6329   -2.3409    2.5846 H   0  0  0  0  0  0  0  0  0  0  0  0
   -2.8355   -3.3155    1.3065 H   0  0  0  0  0  0  0  0  0  0  0  0
   -5.6898   -2.0356    0.6785 H   0  0  0  0  0  0  0  0  0  0  0  0
   -6.3173   -0.5085   -1.1822 H   0  0  0  0  0  0  0  0  0  0  0  0
   -4.5976    0.8953   -2.2839 H   0  0  0  0  0  0  0  0  0  0  0  0
   -2.2320    0.7952   -1.5545 H   0  0  0  0  0  0  0  0  0  0  0  0
    0.9076    4.5411    1.8594 H   0  0  0  0  0  0  0  0  0  0  0  0
    2.2902    5.5923    0.0455 H   0  0  0  0  0  0  0  0  0  0  0  0
    3.8569    0.7310   -1.3366 H   0  0  0  0  0  0  0  0  0  0  0  0
  1  2  1  0
  2  3  1  0
  3  4  2  0
  4  5  1  0
  5  6  1  0
  6  7  1  0
  7  8  1  0
  8  9  1  0
  9 10  1  0
 10 11  1  0
 11 12  2  0
 12 13  1  0
 13 14  2  0
 14 15  1  0
 15 16  2  0
  6 17  1  0
 17 18  2  0
 18 19  1  0
 19 20  2  0
 20 21  1  0
 21 22  1  0
 22 23  3  0
 21 24  2  0
  4 25  1  0
 25 26  2  0
 26  2  1  0
 16  8  1  0
 24 17  1  0
 16 11  1  0
  1 27  1  0
  1 28  1  0
  1 29  1  0
  3 30  1  0
  5 31  1  0
  5 32  1  0
  7 33  1  0
  7 34  1  0
  8 35  1  0
  9 36  1  0
  9 37  1  0
 10 38  1  0
 10 39  1  0
 12 40  1  0
 13 41  1  0
 14 42  1  0
 15 43  1  0
 19 44  1  0
 20 45  1  0
 25 46  1  0
M  END
$$$$
OCNT-2314395
     RDKit          3D

 43 46  0  0  0  0  0  0  0  0999 V2000
   -2.2201    2.1440    0.4696 C   0  0  0  0  0  0  0  0  0  0  0  0
   -2.8187    0.8892    0.0864 N   0  0  0  0  0  0  0  0  0  0  0  0
   -4.1343    0.7063   -0.2701 C   0  0  0  0  0  0  0  0  0  0  0  0
   -5.2175    1.5693   -0.4353 C   0  0  0  0  0  0  0  0  0  0  0  0
   -6.4037    0.9470   -0.8032 C   0  0  0  0  0  0  0  0  0  0  0  0
   -6.5598   -0.3829   -0.9994 N   0  0  0  0  0  0  0  0  0  0  0  0
   -5.4852   -1.1993   -0.8291 C   0  0  0  0  0  0  0  0  0  0  0  0
   -4.2455   -0.6685   -0.4611 C   0  0  0  0  0  0  0  0  0  0  0  0
   -3.0414   -1.2930   -0.2401 N   0  0  0  0  0  0  0  0  0  0  0  0
   -2.1922   -0.3377    0.0619 C   0  0  0  0  0  0  0  0  0  0  0  0
   -0.8635   -0.4684    0.3360 N   0  0  0  0  0  0  0  0  0  0  0  0
   -0.4921   -1.7417    1.0076 C   0  0  0  0  0  0  0  0  0  0  0  0
    0.3973   -2.6130    0.1156 C   0  0  0  0  0  0  0  0  0  0  0  0
    1.6303   -1.9645   -0.2288 O   0  0  0  0  0  0  0  0  0  0  0  0
    1.4848   -0.5646   -0.5545 C   0  0  0  0  0  0  0  0  0  0  0  0
    2.1287    0.2963    0.5520 C   0  0  0  0  0  0  0  0  0  0  0  0
    3.6315    0.4088    0.4045 C   0  0  0  0  0  0  0  0  0  0  0  0
    4.2184    1.6076   -0.0238 C   0  0  0  0  0  0  0  0  0  0  0  0
    5.6041    1.7072   -0.1628 C   0  0  0  0  0  0  0  0  0  0  0  0
    6.4157    0.6111    0.1231 C   0  0  0  0  0  0  0  0  0  0  0  0
    5.8428   -0.5857    0.5480 C   0  0  0  0  0  0  0  0  0  0  0  0
    4.4580   -0.6868    0.6885 C   0  0  0  0  0  0  0  0  0  0  0  0
    0.0188   -0.1495   -0.8156 C   0  0  0  0  0  0  0  0  0  0  0  0
   -1.8419    2.6309   -0.4326 H   0  0  0  0  0  0  0  0  0  0  0  0
   -2.9728    2.7734    0.9509 H   0  0  0  0  0  0  0  0  0  0  0  0
   -1.4073    1.9677    1.1783 H   0  0  0  0  0  0  0  0  0  0  0  0
   -5.1521    2.6390   -0.2913 H   0  0  0  0  0  0  0  0  0  0  0  0
   -7.3059    1.5348   -0.9566 H   0  0  0  0  0  0  0  0  0  0  0  0
   -5.6391   -2.2581   -0.9923 H   0  0  0  0  0  0  0  0  0  0  0  0
    0.0594   -1.4771    1.9172 H   0  0  0  0  0  0  0  0  0  0  0  0
   -1.3686   -2.3155    1.3326 H   0  0  0  0  0  0  0  0  0  0  0  0
    0.6548   -3.5402    0.6375 H   0  0  0  0  0  0  0  0  0  0  0  0
   -0.1194   -2.8924   -0.8099 H   0  0  0  0  0  0  0  0  0  0  0  0
    2.0364   -0.4117   -1.4907 H   0  0  0  0  0  0  0  0  0  0  0  0
    1.9186   -0.1150    1.5464 H   0  0  0  0  0  0  0  0  0  0  0  0
    1.7045    1.3080    0.5356 H   0  0  0  0  0  0  0  0  0  0  0  0
    3.6029    2.4744   -0.2513 H   0  0  0  0  0  0  0  0  0  0  0  0
    6.0512    2.6406   -0.4944 H   0  0  0  0  0  0  0  0  0  0  0  0
    7.4940    0.6885    0.0138 H   0  0  0  0  0  0  0  0  0  0  0  0
    6.4730   -1.4432    0.7684 H   0  0  0  0  0  0  0  0  0  0  0  0
    4.0236   -1.6297    1.0152 H   0  0  0  0  0  0  0  0  0  0  0  0
   -0.0272    0.9229   -1.0393 H   0  0  0  0  0  0  0  0  0  0  0  0
   -0.3406   -0.6832   -1.7068 H   0  0  0  0  0  0  0  0  0  0  0  0
  1  2  1  0
  2  3  1  0
  3  4  2  0
  4  5  1  0
  5  6  2  0
  6  7  1  0
  7  8  2  0
  8  9  1  0
  9 10  2  0
 10 11  1  0
 11 12  1  0
 12 13  1  0
 13 14  1  0
 14 15  1  0
 15 16  1  0
 16 17  1  0
 17 18  2  0
 18 19  1  0
 19 20  2  0
 20 21  1  0
 21 22  2  0
 15 23  1  0
 10  2  1  0
 23 11  1  0
  8  3  1  0
 22 17  1  0
  1 24  1  0
  1 25  1  0
  1 26  1  0
  4 27  1  0
  5 28  1  0
  7 29  1  0
 12 30  1  0
 12 31  1  0
 13 32  1  0
 13 33  1  0
 15 34  1  0
 16 35  1  0
 16 36  1  0
 18 37  1  0
 19 38  1  0
 20 39  1  0
 21 40  1  0
 22 41  1  0
 23 42  1  0
 23 43  1  0
M  END
$$$$
OCNT-2314397
     RDKit          3D

 43 47  0  0  0  0  0  0  0  0999 V2000
   -3.3820    0.0852   -2.1306 C   0  0  0  0  0  0  0  0  0  0  0  0
   -3.5368   -0.0847   -0.6174 C   0  0  0  0  0  0  0  0  0  0  0  0
   -3.0608   -1.4904   -0.1653 C   0  0  0  0  0  0  0  0  0  0  0  0
   -3.3782   -1.7693    1.3157 C   0  0  0  0  0  0  0  0  0  0  0  0
   -3.1114   -0.5761    2.1627 C   0  0  0  0  0  0  0  0  0  0  0  0
   -3.1006   -0.6178    3.4964 N   0  0  0  0  0  0  0  0  0  0  0  0
   -2.8525    0.6555    3.8512 N   0  0  0  0  0  0  0  0  0  0  0  0
   -2.7415    1.5074    2.7881 C   0  0  0  0  0  0  0  0  0  0  0  0
   -2.8989    0.7300    1.6634 C   0  0  0  0  0  0  0  0  0  0  0  0
   -2.8664    1.0669    0.2041 C   0  0  0  0  0  0  0  0  0  0  0  0
   -1.4683    1.3668   -0.2374 C   0  0  0  0  0  0  0  0  0  0  0  0
   -0.4424    0.5680   -0.4396 N   0  0  0  0  0  0  0  0  0  0  0  0
    0.5457    1.4476   -0.8167 C   0  0  0  0  0  0  0  0  0  0  0  0
    1.9367    1.0147   -1.1486 C   0  0  0  0  0  0  0  0  0  0  0  0
    1.9263   -0.1584   -2.1279 C   0  0  0  0  0  0  0  0  0  0  0  0
    3.2569   -0.4669   -2.5694 O   0  0  0  0  0  0  0  0  0  0  0  0
    4.1297   -0.5163   -1.5129 C   0  0  0  0  0  0  0  0  0  0  0  0
    5.3642   -1.1182   -1.7482 C   0  0  0  0  0  0  0  0  0  0  0  0
    6.2945   -1.2242   -0.7129 C   0  0  0  0  0  0  0  0  0  0  0  0
    5.9896   -0.7260    0.5549 C   0  0  0  0  0  0  0  0  0  0  0  0
    4.7584   -0.1107    0.7869 C   0  0  0  0  0  0  0  0  0  0  0  0
    3.8352    0.0080   -0.2502 C   0  0  0  0  0  0  0  0  0  0  0  0
    2.6576    0.6447    0.0451 O   0  0  0  0  0  0  0  0  0  0  0  0
    0.1526    2.7279   -0.8901 N   0  0  0  0  0  0  0  0  0  0  0  0
   -1.1841    2.6784   -0.4960 O   0  0  0  0  0  0  0  0  0  0  0  0
   -4.0026   -0.6450   -2.6613 H   0  0  0  0  0  0  0  0  0  0  0  0
   -3.7022    1.0840   -2.4448 H   0  0  0  0  0  0  0  0  0  0  0  0
   -2.3482   -0.0654   -2.4572 H   0  0  0  0  0  0  0  0  0  0  0  0
   -4.6162   -0.0387   -0.4069 H   0  0  0  0  0  0  0  0  0  0  0  0
   -3.5353   -2.2661   -0.7787 H   0  0  0  0  0  0  0  0  0  0  0  0
   -1.9805   -1.5866   -0.3280 H   0  0  0  0  0  0  0  0  0  0  0  0
   -2.7929   -2.6287    1.6611 H   0  0  0  0  0  0  0  0  0  0  0  0
   -4.4382   -2.0354    1.4106 H   0  0  0  0  0  0  0  0  0  0  0  0
   -2.7776    0.8722    4.8396 H   0  0  0  0  0  0  0  0  0  0  0  0
   -2.5500    2.5616    2.9295 H   0  0  0  0  0  0  0  0  0  0  0  0
   -3.4738    1.9699    0.0503 H   0  0  0  0  0  0  0  0  0  0  0  0
    2.4747    1.8621   -1.5978 H   0  0  0  0  0  0  0  0  0  0  0  0
    1.3378    0.0834   -3.0203 H   0  0  0  0  0  0  0  0  0  0  0  0
    1.4940   -1.0640   -1.6814 H   0  0  0  0  0  0  0  0  0  0  0  0
    5.5970   -1.5146   -2.7326 H   0  0  0  0  0  0  0  0  0  0  0  0
    7.2549   -1.7003   -0.8936 H   0  0  0  0  0  0  0  0  0  0  0  0
    6.7124   -0.8139    1.3621 H   0  0  0  0  0  0  0  0  0  0  0  0
    4.5233    0.2837    1.7717 H   0  0  0  0  0  0  0  0  0  0  0  0
  1  2  1  0
  2  3  1  0
  3  4  1  0
  4  5  1  0
  5  6  2  0
  6  7  1  0
  7  8  1  0
  8  9  2  0
  9 10  1  0
 10 11  1  0
 11 12  2  0
 12 13  1  0
 13 14  1  0
 14 15  1  0
 15 16  1  0
 16 17  1  0
 17 18  2  0
 18 19  1  0
 19 20  2  0
 20 21  1  0
 21 22  2  0
 22 23  1  0
 13 24  2  0
 24 25  1  0
 10  2  1  0
 25 11  1  0
  9  5  1  0
 23 14  1  0
 22 17  1  0
  1 26  1  0
  1 27  1  0
  1 28  1  0
  2 29  1  0
  3 30  1  0
  3 31  1  0
  4 32  1  0
  4 33  1  0
  7 34  1  0
  8 35  1  0
 10 36  1  0
 14 37  1  0
 15 38  1  0
 15 39  1  0
 18 40  1  0
 19 41  1  0
 20 42  1  0
 21 43  1  0
M  END
$$$$
OCNT-2314412
     RDKit          3D

 41 44  0  0  0  0  0  0  0  0999 V2000
    4.9571    2.5442    2.0302 C   0  0  0  0  0  0  0  0  0  0  0  0
    5.9119    1.5019    1.8633 O   0  0  0  0  0  0  0  0  0  0  0  0
    5.3779    0.3613    1.2854 C   0  0  0  0  0  0  0  0  0  0  0  0
    6.2773   -0.6930    1.1260 C   0  0  0  0  0  0  0  0  0  0  0  0
    5.8405   -1.8906    0.5512 C   0  0  0  0  0  0  0  0  0  0  0  0
    4.4986   -1.9539    0.1654 C   0  0  0  0  0  0  0  0  0  0  0  0
    3.7658   -2.9580   -0.4179 N   0  0  0  0  0  0  0  0  0  0  0  0
    2.5435   -2.4695   -0.5505 C   0  0  0  0  0  0  0  0  0  0  0  0
    1.3655   -3.1571   -1.1565 C   0  0  0  0  0  0  0  0  0  0  0  0
   -0.0174   -3.3405    0.0064 S   0  0  0  0  0  0  0  0  0  0  0  0
   -0.9497   -1.8969   -0.4199 C   0  0  0  0  0  0  0  0  0  0  0  0
   -2.2731   -2.0551   -0.5789 N   0  0  0  0  0  0  0  0  0  0  0  0
   -2.9847   -0.9447   -0.8739 C   0  0  0  0  0  0  0  0  0  0  0  0
   -2.4261    0.3082   -1.0001 C   0  0  0  0  0  0  0  0  0  0  0  0
   -3.0793    1.4637   -1.3218 O   0  0  0  0  0  0  0  0  0  0  0  0
   -4.3981    1.5676   -0.9513 C   0  0  0  0  0  0  0  0  0  0  0  0
   -4.7795    1.5633    0.3923 C   0  0  0  0  0  0  0  0  0  0  0  0
   -6.1270    1.7008    0.7255 C   0  0  0  0  0  0  0  0  0  0  0  0
   -7.0823    1.8584   -0.2799 C   0  0  0  0  0  0  0  0  0  0  0  0
   -6.6923    1.8878   -1.6198 C   0  0  0  0  0  0  0  0  0  0  0  0
   -5.3460    1.7504   -1.9573 C   0  0  0  0  0  0  0  0  0  0  0  0
   -1.0597    0.3524   -0.8338 C   0  0  0  0  0  0  0  0  0  0  0  0
   -0.2951   -0.7244   -0.5385 N   0  0  0  0  0  0  0  0  0  0  0  0
    2.4795   -1.1761   -0.0815 N   0  0  0  0  0  0  0  0  0  0  0  0
    3.7125   -0.8309    0.3812 C   0  0  0  0  0  0  0  0  0  0  0  0
    4.0706    0.3463    0.9244 N   0  0  0  0  0  0  0  0  0  0  0  0
    4.5664    2.8833    1.0645 H   0  0  0  0  0  0  0  0  0  0  0  0
    4.1452    2.2365    2.6983 H   0  0  0  0  0  0  0  0  0  0  0  0
    5.4679    3.3918    2.4974 H   0  0  0  0  0  0  0  0  0  0  0  0
    7.3076   -0.5825    1.4472 H   0  0  0  0  0  0  0  0  0  0  0  0
    6.5036   -2.7347    0.4090 H   0  0  0  0  0  0  0  0  0  0  0  0
    1.0501   -2.6456   -2.0725 H   0  0  0  0  0  0  0  0  0  0  0  0
    1.6683   -4.1674   -1.4534 H   0  0  0  0  0  0  0  0  0  0  0  0
   -4.0479   -1.1177   -1.0138 H   0  0  0  0  0  0  0  0  0  0  0  0
   -4.0384    1.4591    1.1798 H   0  0  0  0  0  0  0  0  0  0  0  0
   -6.4332    1.6921    1.7687 H   0  0  0  0  0  0  0  0  0  0  0  0
   -8.1321    1.9682   -0.0180 H   0  0  0  0  0  0  0  0  0  0  0  0
   -7.4378    2.0230   -2.3995 H   0  0  0  0  0  0  0  0  0  0  0  0
   -5.0408    1.7830   -2.9995 H   0  0  0  0  0  0  0  0  0  0  0  0
   -0.5204    1.2911   -0.9324 H   0  0  0  0  0  0  0  0  0  0  0  0
    1.6510   -0.5957   -0.0638 H   0  0  0  0  0  0  0  0  0  0  0  0
  1  2  1  0
  2  3  1  0
  3  4  2  0
  4  5  1  0
  5  6  2  0
  6  7  1  0
  7  8  2  0
  8  9  1  0
  9 10  1  0
 10 11  1  0
 11 12  2  0
 12 13  1  0
 13 14  2  0
 14 15  1  0
 15 16  1  0
 16 17  2  0
 17 18  1  0
 18 19  2  0
 19 20  1  0
 20 21  2  0
 14 22  1  0
 22 23  2  0
  8 24  1  0
 24 25  1  0
 25 26  2  0
 26  3  1  0
 25  6  1  0
 23 11  1  0
 21 16  1  0
  1 27  1  0
  1 28  1  0
  1 29  1  0
  4 30  1  0
  5 31  1  0
  9 32  1  0
  9 33  1  0
 13 34  1  0
 17 35  1  0
 18 36  1  0
 19 37  1  0
 20 38  1  0
 21 39  1  0
 22 40  1  0
 24 41  1  0
M  END
$$$$
OCNT-2314426
     RDKit          3D

 50 53  0  0  0  0  0  0  0  0999 V2000
    1.7160   -1.9921   -0.2752 O   0  0  0  0  0  0  0  0  0  0  0  0
    1.5112   -0.8617    0.1511 C   0  0  0  0  0  0  0  0  0  0  0  0
    0.4039   -0.5159    0.9018 N   0  0  0  0  0  0  0  0  0  0  0  0
   -0.5332   -1.5319    1.3436 C   0  0  0  0  0  0  0  0  0  0  0  0
   -1.9087   -0.9418    1.6109 C   0  0  0  0  0  0  0  0  0  0  0  0
   -2.8897   -1.9500    2.2021 C   0  0  0  0  0  0  0  0  0  0  0  0
   -4.2481   -1.3033    1.9371 C   0  0  0  0  0  0  0  0  0  0  0  0
   -4.0455   -0.5487    0.7020 N   0  0  0  0  0  0  0  0  0  0  0  0
   -5.0643   -0.0354   -0.0648 C   0  0  0  0  0  0  0  0  0  0  0  0
   -4.8318    0.5079   -1.3397 C   0  0  0  0  0  0  0  0  0  0  0  0
   -5.8657    1.0364   -2.1242 C   0  0  0  0  0  0  0  0  0  0  0  0
   -7.1671    1.0340   -1.6418 C   0  0  0  0  0  0  0  0  0  0  0  0
   -8.4410    1.6830   -2.5969 Cl  0  0  0  0  0  0  0  0  0  0  0  0
   -7.4378    0.5086   -0.3860 C   0  0  0  0  0  0  0  0  0  0  0  0
   -6.3945   -0.0176    0.3876 C   0  0  0  0  0  0  0  0  0  0  0  0
   -2.6305   -0.4956    0.3342 C   0  0  0  0  0  0  0  0  0  0  0  0
    2.5004    0.2225   -0.1006 C   0  0  0  0  0  0  0  0  0  0  0  0
    2.1270    1.5670   -0.1556 C   0  0  0  0  0  0  0  0  0  0  0  0
    3.0954    2.5398   -0.3876 C   0  0  0  0  0  0  0  0  0  0  0  0
    4.4297    2.1685   -0.5801 C   0  0  0  0  0  0  0  0  0  0  0  0
    4.8458    0.8209   -0.5667 C   0  0  0  0  0  0  0  0  0  0  0  0
    6.3738    0.4062   -0.7918 C   0  0  0  0  0  0  0  0  0  0  0  0
    7.0998    0.4557    0.4717 O   0  0  0  0  0  0  0  0  0  0  0  0
    6.6518   -0.8765   -1.6376 C   0  0  0  0  0  0  0  0  0  0  0  0
    7.6929   -0.1877   -2.3830 O   0  0  0  0  0  0  0  0  0  0  0  0
    7.1230    1.0868   -1.9798 C   0  0  0  0  0  0  0  0  0  0  0  0
    3.8411   -0.1360   -0.3111 C   0  0  0  0  0  0  0  0  0  0  0  0
    0.4753    0.3230    1.4638 H   0  0  0  0  0  0  0  0  0  0  0  0
   -0.1193   -1.9643    2.2618 H   0  0  0  0  0  0  0  0  0  0  0  0
   -0.5859   -2.3348    0.5992 H   0  0  0  0  0  0  0  0  0  0  0  0
   -1.8253   -0.0851    2.2945 H   0  0  0  0  0  0  0  0  0  0  0  0
   -2.7203   -2.1339    3.2672 H   0  0  0  0  0  0  0  0  0  0  0  0
   -2.8242   -2.9105    1.6755 H   0  0  0  0  0  0  0  0  0  0  0  0
   -4.5156   -0.6224    2.7533 H   0  0  0  0  0  0  0  0  0  0  0  0
   -5.0190   -2.0755    1.8404 H   0  0  0  0  0  0  0  0  0  0  0  0
   -3.8296    0.5218   -1.7590 H   0  0  0  0  0  0  0  0  0  0  0  0
   -5.6406    1.4432   -3.1060 H   0  0  0  0  0  0  0  0  0  0  0  0
   -8.4511    0.5041    0.0046 H   0  0  0  0  0  0  0  0  0  0  0  0
   -6.6477   -0.4079    1.3692 H   0  0  0  0  0  0  0  0  0  0  0  0
   -2.3131    0.5156    0.0556 H   0  0  0  0  0  0  0  0  0  0  0  0
   -2.4350   -1.1795   -0.5004 H   0  0  0  0  0  0  0  0  0  0  0  0
    1.0910    1.8709   -0.0396 H   0  0  0  0  0  0  0  0  0  0  0  0
    2.8164    3.5902   -0.4216 H   0  0  0  0  0  0  0  0  0  0  0  0
    5.1698    2.9513   -0.7429 H   0  0  0  0  0  0  0  0  0  0  0  0
    8.0022    0.1683    0.2414 H   0  0  0  0  0  0  0  0  0  0  0  0
    5.8492   -1.2157   -2.3006 H   0  0  0  0  0  0  0  0  0  0  0  0
    7.0526   -1.7273   -1.0794 H   0  0  0  0  0  0  0  0  0  0  0  0
    7.8997    1.8022   -1.6946 H   0  0  0  0  0  0  0  0  0  0  0  0
    6.5023    1.5135   -2.7746 H   0  0  0  0  0  0  0  0  0  0  0  0
    4.1142   -1.1903   -0.2638 H   0  0  0  0  0  0  0  0  0  0  0  0
  1  2  2  0
  2  3  1  0
  3  4  1  0
  4  5  1  0
  5  6  1  0
  6  7  1  0
  7  8  1  0
  8  9  1  0
  9 10  1  0
 10 11  2  0
 11 12  1  0
 12 13  1  0
 12 14  2  0
 14 15  1  0
  8 16  1  0
  2 17  1  0
 17 18  1  0
 18 19  2  0
 19 20  1  0
 20 21  2  0
 21 22  1  0
 22 23  1  0
 22 24  1  0
 24 25  1  0
 25 26  1  0
 21 27  1  0
 16  5  1  0
 27 17  2  0
 15  9  2  0
 26 22  1  0
  3 28  1  0
  4 29  1  0
  4 30  1  0
  5 31  1  0
  6 32  1  0
  6 33  1  0
  7 34  1  0
  7 35  1  0
 10 36  1  0
 11 37  1  0
 14 38  1  0
 15 39  1  0
 16 40  1  0
 16 41  1  0
 18 42  1  0
 19 43  1  0
 20 44  1  0
 23 45  1  0
 24 46  1  0
 24 47  1  0
 26 48  1  0
 26 49  1  0
 27 50  1  0
M  END
$$$$
OCNT-2314434
     RDKit          3D

 59 62  0  0  0  0  0  0  0  0999 V2000
    3.2307    1.3932    1.0339 O   0  0  0  0  0  0  0  0  0  0  0  0
    3.1747    0.2458    0.5916 C   0  0  0  0  0  0  0  0  0  0  0  0
    4.1111   -0.8419    1.1009 C   0  0  0  0  0  0  0  0  0  0  0  0
    5.1607   -0.3215    2.0845 C   0  0  0  0  0  0  0  0  0  0  0  0
    6.3313    0.3092    1.4066 C   0  0  0  0  0  0  0  0  0  0  0  0
    7.5325   -0.2734    1.0591 C   0  0  0  0  0  0  0  0  0  0  0  0
    8.2794    0.7061    0.4729 N   0  0  0  0  0  0  0  0  0  0  0  0
    7.6485    1.8869    0.4008 N   0  0  0  0  0  0  0  0  0  0  0  0
    6.4660    1.6497    0.9745 C   0  0  0  0  0  0  0  0  0  0  0  0
    2.2276   -0.1359   -0.3640 N   0  0  0  0  0  0  0  0  0  0  0  0
    2.3250   -1.3854   -1.1229 C   0  0  0  0  0  0  0  0  0  0  0  0
    0.9733   -1.8353   -1.7014 C   0  0  0  0  0  0  0  0  0  0  0  0
    0.0066   -2.2289   -0.5645 C   0  0  0  0  0  0  0  0  0  0  0  0
   -1.2118   -1.3134   -0.4404 C   0  0  0  0  0  0  0  0  0  0  0  0
   -0.8867    0.1052   -0.5858 N   0  0  0  0  0  0  0  0  0  0  0  0
   -1.5537    1.1472    0.0482 C   0  0  0  0  0  0  0  0  0  0  0  0
   -1.3049    2.3279   -0.2104 O   0  0  0  0  0  0  0  0  0  0  0  0
   -2.6288    0.8225    1.0715 C   0  0  0  0  0  0  0  0  0  0  0  0
   -3.9641    0.4073    0.4352 C   0  0  0  0  0  0  0  0  0  0  0  0
   -4.6206    1.5826   -0.3102 C   0  0  0  0  0  0  0  0  0  0  0  0
   -5.9842    1.2009   -0.8823 C   0  0  0  0  0  0  0  0  0  0  0  0
   -6.9131    0.6507    0.1944 C   0  0  0  0  0  0  0  0  0  0  0  0
   -6.2746   -0.5160    0.9404 C   0  0  0  0  0  0  0  0  0  0  0  0
   -4.9119   -0.1382    1.5158 C   0  0  0  0  0  0  0  0  0  0  0  0
    0.1105    0.4728   -1.6149 C   0  0  0  0  0  0  0  0  0  0  0  0
    0.3946   -0.7046   -2.5498 C   0  0  0  0  0  0  0  0  0  0  0  0
    1.4393    0.9482   -0.9772 C   0  0  0  0  0  0  0  0  0  0  0  0
    3.4880   -1.5817    1.6179 H   0  0  0  0  0  0  0  0  0  0  0  0
    4.6086   -1.3258    0.2534 H   0  0  0  0  0  0  0  0  0  0  0  0
    5.5265   -1.1698    2.6782 H   0  0  0  0  0  0  0  0  0  0  0  0
    4.7207    0.3832    2.8003 H   0  0  0  0  0  0  0  0  0  0  0  0
    7.9170   -1.2756    1.1810 H   0  0  0  0  0  0  0  0  0  0  0  0
    9.2202    0.6416    0.0993 H   0  0  0  0  0  0  0  0  0  0  0  0
    5.7454    2.4557    1.0541 H   0  0  0  0  0  0  0  0  0  0  0  0
    2.7300   -2.1863   -0.4979 H   0  0  0  0  0  0  0  0  0  0  0  0
    3.0460   -1.2125   -1.9314 H   0  0  0  0  0  0  0  0  0  0  0  0
    1.1502   -2.7126   -2.3355 H   0  0  0  0  0  0  0  0  0  0  0  0
   -0.3480   -3.2537   -0.7314 H   0  0  0  0  0  0  0  0  0  0  0  0
    0.5327   -2.2532    0.3981 H   0  0  0  0  0  0  0  0  0  0  0  0
   -1.7098   -1.5149    0.5098 H   0  0  0  0  0  0  0  0  0  0  0  0
   -1.9345   -1.5527   -1.2296 H   0  0  0  0  0  0  0  0  0  0  0  0
   -2.2501    0.0568    1.7565 H   0  0  0  0  0  0  0  0  0  0  0  0
   -2.7722    1.7151    1.6948 H   0  0  0  0  0  0  0  0  0  0  0  0
   -3.7907   -0.3915   -0.2953 H   0  0  0  0  0  0  0  0  0  0  0  0
   -3.9762    1.9192   -1.1305 H   0  0  0  0  0  0  0  0  0  0  0  0
   -4.7417    2.4350    0.3703 H   0  0  0  0  0  0  0  0  0  0  0  0
   -5.8511    0.4489   -1.6697 H   0  0  0  0  0  0  0  0  0  0  0  0
   -6.4442    2.0774   -1.3525 H   0  0  0  0  0  0  0  0  0  0  0  0
   -7.8556    0.3269   -0.2613 H   0  0  0  0  0  0  0  0  0  0  0  0
   -7.1593    1.4482    0.9061 H   0  0  0  0  0  0  0  0  0  0  0  0
   -6.9378   -0.8426    1.7491 H   0  0  0  0  0  0  0  0  0  0  0  0
   -6.1591   -1.3672    0.2587 H   0  0  0  0  0  0  0  0  0  0  0  0
   -4.4664   -1.0203    1.9916 H   0  0  0  0  0  0  0  0  0  0  0  0
   -5.0492    0.6130    2.3040 H   0  0  0  0  0  0  0  0  0  0  0  0
   -0.3053    1.2996   -2.2042 H   0  0  0  0  0  0  0  0  0  0  0  0
    1.1022   -0.4101   -3.3345 H   0  0  0  0  0  0  0  0  0  0  0  0
   -0.5208   -1.0323   -3.0571 H   0  0  0  0  0  0  0  0  0  0  0  0
    2.0771    1.3910   -1.7528 H   0  0  0  0  0  0  0  0  0  0  0  0
    1.2499    1.7297   -0.2339 H   0  0  0  0  0  0  0  0  0  0  0  0
  1  2  2  0
  2  3  1  0
  3  4  1  0
  4  5  1  0
  5  6  2  0
  6  7  1  0
  7  8  1  0
  8  9  2  0
  2 10  1  0
 10 11  1  0
 11 12  1  0
 12 13  1  0
 13 14  1  0
 14 15  1  0
 15 16  1  0
 16 17  2  0
 16 18  1  0
 18 19  1  0
 19 20  1  0
 20 21  1  0
 21 22  1  0
 22 23  1  0
 23 24  1  0
 15 25  1  0
 25 26  1  0
 25 27  1  0
  9  5  1  0
 27 10  1  0
 26 12  1  0
 24 19  1  0
  3 28  1  0
  3 29  1  0
  4 30  1  0
  4 31  1  0
  6 32  1  0
  7 33  1  0
  9 34  1  0
 11 35  1  0
 11 36  1  0
 12 37  1  0
 13 38  1  0
 13 39  1  0
 14 40  1  0
 14 41  1  0
 18 42  1  0
 18 43  1  0
 19 44  1  0
 20 45  1  0
 20 46  1  0
 21 47  1  0
 21 48  1  0
 22 49  1  0
 22 50  1  0
 23 51  1  0
 23 52  1  0
 24 53  1  0
 24 54  1  0
 25 55  1  0
 26 56  1  0
 26 57  1  0
 27 58  1  0
 27 59  1  0
M  END
$$$$
OCNT-2314445
     RDKit          3D

 47 49  0  0  0  0  0  0  0  0999 V2000
    3.8588    1.6530    1.8206 C   0  0  0  0  0  0  0  0  0  0  0  0
    2.9527    1.0252    0.9220 O   0  0  0  0  0  0  0  0  0  0  0  0
    3.3527   -0.1685    0.3697 C   0  0  0  0  0  0  0  0  0  0  0  0
    4.6013   -0.7615    0.5505 C   0  0  0  0  0  0  0  0  0  0  0  0
    4.8728   -1.9863   -0.0588 C   0  0  0  0  0  0  0  0  0  0  0  0
    3.8896   -2.5815   -0.8394 C   0  0  0  0  0  0  0  0  0  0  0  0
    4.1416   -3.9037   -1.5013 C   0  0  0  0  0  0  0  0  0  0  0  0
    2.6815   -2.0127   -1.0411 N   0  0  0  0  0  0  0  0  0  0  0  0
    2.4166   -0.8344   -0.4399 C   0  0  0  0  0  0  0  0  0  0  0  0
    1.1815   -0.1943   -0.6281 N   0  0  0  0  0  0  0  0  0  0  0  0
    0.0600   -0.7303   -1.2070 C   0  0  0  0  0  0  0  0  0  0  0  0
   -0.0683   -1.9052   -1.5409 O   0  0  0  0  0  0  0  0  0  0  0  0
   -0.9844    0.1965   -1.3924 N   0  0  0  0  0  0  0  0  0  0  0  0
   -0.7814    1.6476   -1.4076 C   0  0  0  0  0  0  0  0  0  0  0  0
   -1.0142    2.3221   -0.0515 C   0  0  0  0  0  0  0  0  0  0  0  0
   -2.4850    2.5661    0.3008 C   0  0  0  0  0  0  0  0  0  0  0  0
   -3.2025    1.3459    0.8346 C   0  0  0  0  0  0  0  0  0  0  0  0
   -3.3661    1.2177    2.2275 C   0  0  0  0  0  0  0  0  0  0  0  0
   -4.0084    0.1080    2.7797 C   0  0  0  0  0  0  0  0  0  0  0  0
   -4.4933   -0.8944    1.9490 C   0  0  0  0  0  0  0  0  0  0  0  0
   -4.3361   -0.7871    0.5668 C   0  0  0  0  0  0  0  0  0  0  0  0
   -3.6974    0.3289   -0.0061 C   0  0  0  0  0  0  0  0  0  0  0  0
   -3.5190    0.3657   -1.5075 C   0  0  0  0  0  0  0  0  0  0  0  0
   -2.2311   -0.3285   -1.9635 C   0  0  0  0  0  0  0  0  0  0  0  0
    4.7685    1.9737    1.3040 H   0  0  0  0  0  0  0  0  0  0  0  0
    4.0929    1.0023    2.6706 H   0  0  0  0  0  0  0  0  0  0  0  0
    3.3685    2.5478    2.2154 H   0  0  0  0  0  0  0  0  0  0  0  0
    5.3787   -0.3055    1.1514 H   0  0  0  0  0  0  0  0  0  0  0  0
    5.8372   -2.4661    0.0766 H   0  0  0  0  0  0  0  0  0  0  0  0
    3.2572   -4.2359   -2.0557 H   0  0  0  0  0  0  0  0  0  0  0  0
    4.9769   -3.8235   -2.2062 H   0  0  0  0  0  0  0  0  0  0  0  0
    4.3759   -4.6641   -0.7485 H   0  0  0  0  0  0  0  0  0  0  0  0
    1.0797    0.6519   -0.0979 H   0  0  0  0  0  0  0  0  0  0  0  0
    0.2506    1.8451   -1.7213 H   0  0  0  0  0  0  0  0  0  0  0  0
   -1.4084    2.0963   -2.1865 H   0  0  0  0  0  0  0  0  0  0  0  0
   -0.5292    3.3064   -0.0991 H   0  0  0  0  0  0  0  0  0  0  0  0
   -0.5205    1.7689    0.7545 H   0  0  0  0  0  0  0  0  0  0  0  0
   -2.5213    3.3505    1.0708 H   0  0  0  0  0  0  0  0  0  0  0  0
   -3.0300    2.9959   -0.5483 H   0  0  0  0  0  0  0  0  0  0  0  0
   -2.9863    1.9859    2.8977 H   0  0  0  0  0  0  0  0  0  0  0  0
   -4.1224    0.0230    3.8581 H   0  0  0  0  0  0  0  0  0  0  0  0
   -4.9844   -1.7658    2.3747 H   0  0  0  0  0  0  0  0  0  0  0  0
   -4.7060   -1.5917   -0.0666 H   0  0  0  0  0  0  0  0  0  0  0  0
   -4.3741   -0.1355   -1.9807 H   0  0  0  0  0  0  0  0  0  0  0  0
   -3.5683    1.3926   -1.8800 H   0  0  0  0  0  0  0  0  0  0  0  0
   -2.1401   -0.2421   -3.0537 H   0  0  0  0  0  0  0  0  0  0  0  0
   -2.3169   -1.3986   -1.7393 H   0  0  0  0  0  0  0  0  0  0  0  0
  1  2  1  0
  2  3  1  0
  3  4  2  0
  4  5  1  0
  5  6  2  0
  6  7  1  0
  6  8  1  0
  8  9  2  0
  9 10  1  0
 10 11  1  0
 11 12  2  0
 11 13  1  0
 13 14  1  0
 14 15  1  0
 15 16  1  0
 16 17  1  0
 17 18  2  0
 18 19  1  0
 19 20  2  0
 20 21  1  0
 21 22  2  0
 22 23  1  0
 23 24  1  0
  9  3  1  0
 24 13  1  0
 22 17  1  0
  1 25  1  0
  1 26  1  0
  1 27  1  0
  4 28  1  0
  5 29  1  0
  7 30  1  0
  7 31  1  0
  7 32  1  0
 10 33  1  0
 14 34  1  0
 14 35  1  0
 15 36  1  0
 15 37  1  0
 16 38  1  0
 16 39  1  0
 18 40  1  0
 19 41  1  0
 20 42  1  0
 21 43  1  0
 23 44  1  0
 23 45  1  0
 24 46  1  0
 24 47  1  0
M  END
$$$$
OCNT-2314459
     RDKit          3D

 42 43  0  0  0  0  0  0  0  0999 V2000
    4.1998    2.0103    0.6775 C   0  0  0  0  0  0  0  0  0  0  0  0
    3.1579    1.6459   -0.3168 C   0  0  0  0  0  0  0  0  0  0  0  0
    2.6726    2.5878   -1.1372 N   0  0  0  0  0  0  0  0  0  0  0  0
    1.7533    1.9520   -1.8815 N   0  0  0  0  0  0  0  0  0  0  0  0
    1.0210    2.7096   -2.8721 C   0  0  0  0  0  0  0  0  0  0  0  0
    1.6205    0.6220   -1.5729 C   0  0  0  0  0  0  0  0  0  0  0  0
    0.6476   -0.2883   -2.2470 C   0  0  0  0  0  0  0  0  0  0  0  0
   -0.3330   -0.7993   -1.3018 N   0  0  0  0  0  0  0  0  0  0  0  0
   -0.5512   -2.1156   -1.0168 C   0  0  0  0  0  0  0  0  0  0  0  0
   -1.4083   -2.2510   -0.0318 N   0  0  0  0  0  0  0  0  0  0  0  0
   -1.8302   -0.9755    0.2854 C   0  0  0  0  0  0  0  0  0  0  0  0
   -2.8608   -0.7623    1.3730 C   0  0  0  0  0  0  0  0  0  0  0  0
   -4.2204   -1.3213    0.9124 C   0  0  0  0  0  0  0  0  0  0  0  0
   -2.4270   -1.4944    2.6590 C   0  0  0  0  0  0  0  0  0  0  0  0
   -3.0383    0.7314    1.7118 C   0  0  0  0  0  0  0  0  0  0  0  0
   -1.1771   -0.0607   -0.5169 C   0  0  0  0  0  0  0  0  0  0  0  0
    2.5454    0.3957   -0.5592 C   0  0  0  0  0  0  0  0  0  0  0  0
    2.8483   -1.0718    0.2856 S   0  0  0  0  0  0  0  0  0  0  0  0
    1.7083   -1.2063    1.5029 N   0  0  0  0  0  0  0  0  0  0  0  0
    4.1357   -0.9269    0.9188 O   0  0  0  0  0  0  0  0  0  0  0  0
    2.5758   -2.1144   -0.6754 O   0  0  0  0  0  0  0  0  0  0  0  0
    3.9016    1.6968    1.6828 H   0  0  0  0  0  0  0  0  0  0  0  0
    5.1534    1.5365    0.4247 H   0  0  0  0  0  0  0  0  0  0  0  0
    4.3621    3.0931    0.7060 H   0  0  0  0  0  0  0  0  0  0  0  0
    1.3458    3.7530   -2.8497 H   0  0  0  0  0  0  0  0  0  0  0  0
    1.2276    2.2791   -3.8557 H   0  0  0  0  0  0  0  0  0  0  0  0
   -0.0440    2.6492   -2.6353 H   0  0  0  0  0  0  0  0  0  0  0  0
    0.0780    0.2076   -3.0390 H   0  0  0  0  0  0  0  0  0  0  0  0
    1.1681   -1.1372   -2.7020 H   0  0  0  0  0  0  0  0  0  0  0  0
   -0.0366   -2.9243   -1.5215 H   0  0  0  0  0  0  0  0  0  0  0  0
   -4.9874   -1.1856    1.6832 H   0  0  0  0  0  0  0  0  0  0  0  0
   -4.5672   -0.8174    0.0019 H   0  0  0  0  0  0  0  0  0  0  0  0
   -4.1592   -2.3935    0.6900 H   0  0  0  0  0  0  0  0  0  0  0  0
   -2.3373   -2.5749    2.4967 H   0  0  0  0  0  0  0  0  0  0  0  0
   -3.1521   -1.3425    3.4670 H   0  0  0  0  0  0  0  0  0  0  0  0
   -1.4520   -1.1344    3.0101 H   0  0  0  0  0  0  0  0  0  0  0  0
   -3.3815    1.3031    0.8412 H   0  0  0  0  0  0  0  0  0  0  0  0
   -2.0966    1.1785    2.0517 H   0  0  0  0  0  0  0  0  0  0  0  0
   -3.7782    0.8723    2.5083 H   0  0  0  0  0  0  0  0  0  0  0  0
   -1.2214    1.0185   -0.5672 H   0  0  0  0  0  0  0  0  0  0  0  0
    0.8401   -1.6375    1.1654 H   0  0  0  0  0  0  0  0  0  0  0  0
    2.0970   -1.7071    2.3025 H   0  0  0  0  0  0  0  0  0  0  0  0
  1  2  1  0
  2  3  2  0
  3  4  1  0
  4  5  1  0
  4  6  1  0
  6  7  1  0
  7  8  1  0
  8  9  1  0
  9 10  2  0
 10 11  1  0
 11 12  1  0
 12 13  1  0
 12 14  1  0
 12 15  1  0
 11 16  2  0
  6 17  2  0
 17 18  1  0
 18 19  1  0
 18 20  2  0
 18 21  2  0
 17  2  1  0
 16  8  1  0
  1 22  1  0
  1 23  1  0
  1 24  1  0
  5 25  1  0
  5 26  1  0
  5 27  1  0
  7 28  1  0
  7 29  1  0
  9 30  1  0
 13 31  1  0
 13 32  1  0
 13 33  1  0
 14 34  1  0
 14 35  1  0
 14 36  1  0
 15 37  1  0
 15 38  1  0
 15 39  1  0
 16 40  1  0
 19 41  1  0
 19 42  1  0
M  END
$$$$
OCNT-2314462
     RDKit          3D

 34 36  0  0  0  0  0  0  0  0999 V2000
    3.4215    2.5055   -0.3624 C   0  0  0  0  0  0  0  0  0  0  0  0
    2.6848    1.1988   -0.3244 C   0  0  0  0  0  0  0  0  0  0  0  0
    2.1248    0.7331    0.8714 C   0  0  0  0  0  0  0  0  0  0  0  0
    1.4655   -0.5022    0.8980 C   0  0  0  0  0  0  0  0  0  0  0  0
    0.7298   -1.0716    2.4138 S   0  0  0  0  0  0  0  0  0  0  0  0
    1.3638   -0.3515    3.4990 O   0  0  0  0  0  0  0  0  0  0  0  0
    0.7038   -2.5174    2.3865 O   0  0  0  0  0  0  0  0  0  0  0  0
   -0.8432   -0.4708    2.3212 N   0  0  0  0  0  0  0  0  0  0  0  0
   -1.6468   -0.8008    1.1984 C   0  0  0  0  0  0  0  0  0  0  0  0
   -2.1379   -2.0996    1.0366 C   0  0  0  0  0  0  0  0  0  0  0  0
   -2.8810   -2.4495   -0.0884 C   0  0  0  0  0  0  0  0  0  0  0  0
   -3.1425   -1.5084   -1.0898 C   0  0  0  0  0  0  0  0  0  0  0  0
   -2.6433   -0.1981   -0.9563 C   0  0  0  0  0  0  0  0  0  0  0  0
   -1.9056    0.1314    0.1836 C   0  0  0  0  0  0  0  0  0  0  0  0
   -1.5252    1.4487    0.0436 N   0  0  0  0  0  0  0  0  0  0  0  0
   -2.0065    1.9629   -1.1303 C   0  0  0  0  0  0  0  0  0  0  0  0
   -2.7054    0.9662   -1.7703 C   0  0  0  0  0  0  0  0  0  0  0  0
    1.3961   -1.3047   -0.2431 C   0  0  0  0  0  0  0  0  0  0  0  0
    1.9597   -0.8408   -1.4267 C   0  0  0  0  0  0  0  0  0  0  0  0
    1.8518   -1.8978   -2.9901 Br  0  0  0  0  0  0  0  0  0  0  0  0
    2.6025    0.3986   -1.4729 C   0  0  0  0  0  0  0  0  0  0  0  0
    4.4792    2.3454   -0.1322 H   0  0  0  0  0  0  0  0  0  0  0  0
    3.0033    3.2104    0.3638 H   0  0  0  0  0  0  0  0  0  0  0  0
    3.3397    2.9709   -1.3503 H   0  0  0  0  0  0  0  0  0  0  0  0
    2.2070    1.3300    1.7783 H   0  0  0  0  0  0  0  0  0  0  0  0
   -0.9537    0.4433    2.7512 H   0  0  0  0  0  0  0  0  0  0  0  0
   -1.9424   -2.8522    1.7982 H   0  0  0  0  0  0  0  0  0  0  0  0
   -3.2573   -3.4646   -0.1920 H   0  0  0  0  0  0  0  0  0  0  0  0
   -3.7183   -1.7908   -1.9669 H   0  0  0  0  0  0  0  0  0  0  0  0
   -0.9586    1.9570    0.7070 H   0  0  0  0  0  0  0  0  0  0  0  0
   -1.8069    2.9883   -1.4117 H   0  0  0  0  0  0  0  0  0  0  0  0
   -3.2021    1.0582   -2.7276 H   0  0  0  0  0  0  0  0  0  0  0  0
    0.8964   -2.2701   -0.2104 H   0  0  0  0  0  0  0  0  0  0  0  0
    3.0471    0.7421   -2.4050 H   0  0  0  0  0  0  0  0  0  0  0  0
  1  2  1  0
  2  3  2  0
  3  4  1  0
  4  5  1  0
  5  6  2  0
  5  7  2  0
  5  8  1  0
  8  9  1  0
  9 10  1  0
 10 11  2  0
 11 12  1  0
 12 13  2  0
 13 14  1  0
 14 15  1  0
 15 16  1  0
 16 17  2  0
  4 18  2  0
 18 19  1  0
 19 20  1  0
 19 21  2  0
 21  2  1  0
 14  9  2  0
 17 13  1  0
  1 22  1  0
  1 23  1  0
  1 24  1  0
  3 25  1  0
  8 26  1  0
 10 27  1  0
 11 28  1  0
 12 29  1  0
 15 30  1  0
 16 31  1  0
 17 32  1  0
 18 33  1  0
 21 34  1  0
M  END
$$$$
OCNT-2314467
     RDKit          3D

 39 41  0  0  0  0  0  0  0  0999 V2000
    0.1763   -2.4803    2.2057 C   0  0  0  0  0  0  0  0  0  0  0  0
   -0.0111   -1.0160    2.0380 C   0  0  0  0  0  0  0  0  0  0  0  0
   -1.2066   -0.3312    1.8939 C   0  0  0  0  0  0  0  0  0  0  0  0
   -2.6158   -0.8460    1.8645 C   0  0  0  0  0  0  0  0  0  0  0  0
   -3.2018   -0.8950    0.4760 C   0  0  0  0  0  0  0  0  0  0  0  0
   -2.9467   -1.9719   -0.3770 C   0  0  0  0  0  0  0  0  0  0  0  0
   -2.2048   -3.0026    0.0533 F   0  0  0  0  0  0  0  0  0  0  0  0
   -3.4498   -2.0101   -1.6772 C   0  0  0  0  0  0  0  0  0  0  0  0
   -4.2288   -0.9552   -2.1492 C   0  0  0  0  0  0  0  0  0  0  0  0
   -4.5024    0.1266   -1.3110 C   0  0  0  0  0  0  0  0  0  0  0  0
   -3.9917    0.1477   -0.0137 C   0  0  0  0  0  0  0  0  0  0  0  0
   -4.2743    1.1976    0.7711 F   0  0  0  0  0  0  0  0  0  0  0  0
   -0.8867    1.3533    1.7813 S   0  0  0  0  0  0  0  0  0  0  0  0
    0.8017    1.0480    1.8818 C   0  0  0  0  0  0  0  0  0  0  0  0
    1.6771    2.0767    1.8147 N   0  0  0  0  0  0  0  0  0  0  0  0
    3.0444    1.8022    1.4049 C   0  0  0  0  0  0  0  0  0  0  0  0
    3.2745    1.7314   -0.0682 C   0  0  0  0  0  0  0  0  0  0  0  0
    2.8325    0.7673   -0.9538 C   0  0  0  0  0  0  0  0  0  0  0  0
    3.2946    1.1304   -2.1829 N   0  0  0  0  0  0  0  0  0  0  0  0
    3.1098    0.4175   -3.4239 C   0  0  0  0  0  0  0  0  0  0  0  0
    4.0020    2.2762   -2.1706 N   0  0  0  0  0  0  0  0  0  0  0  0
    4.0005    2.6310   -0.8831 C   0  0  0  0  0  0  0  0  0  0  0  0
    1.1216   -0.2178    2.0158 N   0  0  0  0  0  0  0  0  0  0  0  0
   -0.5148   -2.8803    2.9540 H   0  0  0  0  0  0  0  0  0  0  0  0
    1.1959   -2.7048    2.5401 H   0  0  0  0  0  0  0  0  0  0  0  0
    0.0088   -2.9992    1.2565 H   0  0  0  0  0  0  0  0  0  0  0  0
   -2.6559   -1.8529    2.3013 H   0  0  0  0  0  0  0  0  0  0  0  0
   -3.2516   -0.2330    2.5209 H   0  0  0  0  0  0  0  0  0  0  0  0
   -3.2244   -2.8617   -2.3112 H   0  0  0  0  0  0  0  0  0  0  0  0
   -4.6182   -0.9756   -3.1641 H   0  0  0  0  0  0  0  0  0  0  0  0
   -5.1091    0.9593   -1.6584 H   0  0  0  0  0  0  0  0  0  0  0  0
    1.3049    2.9357    1.4278 H   0  0  0  0  0  0  0  0  0  0  0  0
    3.6684    2.6080    1.8111 H   0  0  0  0  0  0  0  0  0  0  0  0
    3.4239    0.8855    1.8760 H   0  0  0  0  0  0  0  0  0  0  0  0
    2.2381   -0.1243   -0.7966 H   0  0  0  0  0  0  0  0  0  0  0  0
    2.5078    1.0348   -4.0956 H   0  0  0  0  0  0  0  0  0  0  0  0
    2.5968   -0.5284   -3.2258 H   0  0  0  0  0  0  0  0  0  0  0  0
    4.0937    0.2228   -3.8592 H   0  0  0  0  0  0  0  0  0  0  0  0
    4.5212    3.5346   -0.5927 H   0  0  0  0  0  0  0  0  0  0  0  0
  1  2  1  0
  2  3  2  0
  3  4  1  0
  4  5  1  0
  5  6  2  0
  6  7  1  0
  6  8  1  0
  8  9  2  0
  9 10  1  0
 10 11  2  0
 11 12  1  0
  3 13  1  0
 13 14  1  0
 14 15  1  0
 15 16  1  0
 16 17  1  0
 17 18  2  0
 18 19  1  0
 19 20  1  0
 19 21  1  0
 21 22  2  0
 14 23  2  0
 23  2  1  0
 11  5  1  0
 22 17  1  0
  1 24  1  0
  1 25  1  0
  1 26  1  0
  4 27  1  0
  4 28  1  0
  8 29  1  0
  9 30  1  0
 10 31  1  0
 15 32  1  0
 16 33  1  0
 16 34  1  0
 18 35  1  0
 20 36  1  0
 20 37  1  0
 20 38  1  0
 22 39  1  0
M  END
$$$$
OCNT-2314468
     RDKit          3D

  0  0  0  0  0  0  0  0  0  0999 V3000
M  V30 BEGIN CTAB
M  V30 COUNTS 42 46 0 0 0
M  V30 BEGIN ATOM
M  V30 1 F 4.996225 -1.271581 3.936472 0
M  V30 2 C 4.258155 -0.972358 2.858656 0
M  V30 3 C 2.877123 -0.920697 2.977984 0
M  V30 4 C 2.084379 -0.611161 1.865979 0
M  V30 5 C 2.696961 -0.346736 0.619042 0
M  V30 6 C 4.094288 -0.416727 0.545271 0
M  V30 7 C 4.900643 -0.725228 1.647710 0
M  V30 8 N 4.444342 -0.138986 -0.754430 0
M  V30 9 C 3.332204 0.102965 -1.506313 0
M  V30 10 N 3.361714 0.391463 -2.814662 0
M  V30 11 C 2.124712 0.574527 -3.298181 0
M  V30 12 N 0.957079 0.513312 -2.631957 0
M  V30 13 C 0.966960 0.229220 -1.304423 0
M  V30 14 N -0.231932 0.166013 -0.605998 0
M  V30 15 C -1.409369 0.791068 -1.192323 0 CFG=1
M  V30 16 C -2.179028 -0.185412 -2.082181 0
M  V30 17 C -3.601830 0.366427 -2.148204 0
M  V30 18 C -3.730668 1.384100 -1.011992 0
M  V30 19 C -2.466446 1.228871 -0.157549 0 CFG=1
M  V30 20 N -2.597397 0.329046 0.979083 0
M  V30 21 C -3.459997 -0.715102 1.162578 0
M  V30 22 C -3.183264 -1.234696 2.404938 0
M  V30 23 C -2.132555 -0.443885 2.896250 0
M  V30 24 N -1.760066 0.502166 2.031216 0
M  V30 25 C 2.215814 -0.003375 -0.691117 0
M  V30 26 H 2.415022 -1.123599 3.939196 0
M  V30 27 H 1.004269 -0.584527 1.976693 0
M  V30 28 H 5.981194 -0.775735 1.578451 0
M  V30 29 H 5.383073 -0.119307 -1.122536 0
M  V30 30 H 2.054602 0.802909 -4.357130 0
M  V30 31 H -0.123434 0.317689 0.396171 0
M  V30 32 H -1.137584 1.684034 -1.773668 0
M  V30 33 H -1.736404 -0.273742 -3.079675 0
M  V30 34 H -2.190060 -1.192717 -1.647285 0
M  V30 35 H -4.333539 -0.441950 -2.046344 0
M  V30 36 H -3.788394 0.852275 -3.112424 0
M  V30 37 H -3.748571 2.391365 -1.447706 0
M  V30 38 H -4.663619 1.263628 -0.452394 0
M  V30 39 H -2.197753 2.202915 0.272315 0
M  V30 40 H -4.185551 -1.007016 0.417548 0
M  V30 41 H -3.671476 -2.069664 2.886429 0
M  V30 42 H -1.619820 -0.519788 3.846513 0
M  V30 END ATOM
M  V30 BEGIN BOND
M  V30 1 1 1 2
M  V30 2 2 2 3
M  V30 3 1 3 4
M  V30 4 2 4 5
M  V30 5 1 5 6
M  V30 6 2 6 7
M  V30 7 1 6 8
M  V30 8 1 8 9
M  V30 9 2 9 10
M  V30 10 1 10 11
M  V30 11 2 11 12
M  V30 12 1 12 13
M  V30 13 1 13 14
M  V30 14 1 14 15
M  V30 15 1 15 16
M  V30 16 1 16 17
M  V30 17 1 17 18
M  V30 18 1 18 19
M  V30 19 1 19 20
M  V30 20 1 20 21
M  V30 21 2 21 22
M  V30 22 1 22 23
M  V30 23 2 23 24
M  V30 24 2 13 25
M  V30 25 1 7 2
M  V30 26 1 25 9
M  V30 27 1 25 5
M  V30 28 1 19 15
M  V30 29 1 24 20
M  V30 30 1 3 26
M  V30 31 1 4 27
M  V30 32 1 7 28
M  V30 33 1 8 29
M  V30 34 1 11 30
M  V30 35 1 14 31
M  V30 36 1 15 32 CFG=3
M  V30 37 1 16 33
M  V30 38 1 16 34
M  V30 39 1 17 35
M  V30 40 1 17 36
M  V30 41 1 18 37
M  V30 42 1 18 38
M  V30 43 1 19 39 CFG=1
M  V30 44 1 21 40
M  V30 45 1 22 41
M  V30 46 1 23 42
M  V30 END BOND
M  V30 BEGIN COLLECTION
M  V30 MDLV30/STERAC1 ATOMS=(2 15 19)
M  V30 END COLLECTION
M  V30 END CTAB
M  END
>  <_CXSMILES_Data>  (843) 
|&1:14,18|

$$$$
OCNT-2314473
     RDKit          3D

 40 43  0  0  0  0  0  0  0  0999 V2000
    3.8617    0.6185   -2.1227 F   0  0  0  0  0  0  0  0  0  0  0  0
    4.1130    0.1948   -0.8735 C   0  0  0  0  0  0  0  0  0  0  0  0
    5.3741   -0.3408   -0.6206 C   0  0  0  0  0  0  0  0  0  0  0  0
    5.6818   -0.7728    0.6590 C   0  0  0  0  0  0  0  0  0  0  0  0
    4.7068   -0.6441    1.6284 C   0  0  0  0  0  0  0  0  0  0  0  0
    3.4760   -0.1286    1.4005 N   0  0  0  0  0  0  0  0  0  0  0  0
    3.1541    0.2945    0.1501 C   0  0  0  0  0  0  0  0  0  0  0  0
    1.8798    0.8318   -0.0498 N   0  0  0  0  0  0  0  0  0  0  0  0
    1.0005    0.9307    1.1173 C   0  0  0  0  0  0  0  0  0  0  0  0
    0.2365   -0.3614    1.4000 C   0  0  0  0  0  0  0  0  0  0  0  0
   -0.3558   -1.0103    0.1548 C   0  0  0  0  0  0  0  0  0  0  0  0
   -1.0465   -0.0483   -0.6884 N   0  0  0  0  0  0  0  0  0  0  0  0
   -2.4099    0.2201   -0.6077 C   0  0  0  0  0  0  0  0  0  0  0  0
   -2.9226    1.0799   -1.5420 N   0  0  0  0  0  0  0  0  0  0  0  0
   -4.2337    1.3753   -1.5534 C   0  0  0  0  0  0  0  0  0  0  0  0
   -5.1812    0.9294   -0.7237 N   0  0  0  0  0  0  0  0  0  0  0  0
   -4.6664    0.1013    0.1936 C   0  0  0  0  0  0  0  0  0  0  0  0
   -3.3406   -0.3008    0.3328 C   0  0  0  0  0  0  0  0  0  0  0  0
   -3.3327   -1.1609    1.4774 C   0  0  0  0  0  0  0  0  0  0  0  0
   -4.6186   -1.2608    1.9665 C   0  0  0  0  0  0  0  0  0  0  0  0
   -5.4178   -0.4897    1.1707 N   0  0  0  0  0  0  0  0  0  0  0  0
   -0.2543    0.9303   -1.4689 C   0  0  0  0  0  0  0  0  0  0  0  0
    1.2828    0.7568   -1.4012 C   0  0  0  0  0  0  0  0  0  0  0  0
    6.0995   -0.4073   -1.4241 H   0  0  0  0  0  0  0  0  0  0  0  0
    6.6529   -1.1917    0.8955 H   0  0  0  0  0  0  0  0  0  0  0  0
    4.8894   -0.9598    2.6519 H   0  0  0  0  0  0  0  0  0  0  0  0
    0.2895    1.7518    0.9638 H   0  0  0  0  0  0  0  0  0  0  0  0
    1.5523    1.2383    2.0154 H   0  0  0  0  0  0  0  0  0  0  0  0
   -0.5559   -0.1362    2.1229 H   0  0  0  0  0  0  0  0  0  0  0  0
    0.8974   -1.0885    1.8867 H   0  0  0  0  0  0  0  0  0  0  0  0
    0.4442   -1.4920   -0.4207 H   0  0  0  0  0  0  0  0  0  0  0  0
   -0.9956   -1.8558    0.4204 H   0  0  0  0  0  0  0  0  0  0  0  0
   -4.5591    2.0586   -2.3312 H   0  0  0  0  0  0  0  0  0  0  0  0
   -2.4844   -1.6601    1.9215 H   0  0  0  0  0  0  0  0  0  0  0  0
   -5.0255   -1.8065    2.8074 H   0  0  0  0  0  0  0  0  0  0  0  0
   -6.4126   -0.3497    1.2708 H   0  0  0  0  0  0  0  0  0  0  0  0
   -0.4946    1.9505   -1.1404 H   0  0  0  0  0  0  0  0  0  0  0  0
   -0.5410    0.8538   -2.5260 H   0  0  0  0  0  0  0  0  0  0  0  0
    1.5337   -0.2014   -1.8744 H   0  0  0  0  0  0  0  0  0  0  0  0
    1.7230    1.5510   -2.0165 H   0  0  0  0  0  0  0  0  0  0  0  0
  1  2  1  0
  2  3  1  0
  3  4  2  0
  4  5  1  0
  5  6  2  0
  6  7  1  0
  7  8  1  0
  8  9  1  0
  9 10  1  0
 10 11  1  0
 11 12  1  0
 12 13  1  0
 13 14  1  0
 14 15  2  0
 15 16  1  0
 16 17  2  0
 17 18  1  0
 18 19  1  0
 19 20  2  0
 20 21  1  0
 12 22  1  0
 22 23  1  0
  7  2  2  0
 23  8  1  0
 18 13  2  0
 21 17  1  0
  3 24  1  0
  4 25  1  0
  5 26  1  0
  9 27  1  0
  9 28  1  0
 10 29  1  0
 10 30  1  0
 11 31  1  0
 11 32  1  0
 15 33  1  0
 19 34  1  0
 20 35  1  0
 21 36  1  0
 22 37  1  0
 22 38  1  0
 23 39  1  0
 23 40  1  0
M  END
$$$$
OCNT-2314478
     RDKit          3D

 57 60  0  0  0  0  0  0  0  0999 V2000
   -4.3070   -3.8244   -0.8219 C   0  0  0  0  0  0  0  0  0  0  0  0
   -3.8711   -2.4183   -0.5750 C   0  0  0  0  0  0  0  0  0  0  0  0
   -4.6921   -1.2974   -0.5432 C   0  0  0  0  0  0  0  0  0  0  0  0
   -6.1643   -1.2339   -0.7932 C   0  0  0  0  0  0  0  0  0  0  0  0
   -3.8878   -0.1782   -0.3477 N   0  0  0  0  0  0  0  0  0  0  0  0
   -4.3163    1.1804   -0.3703 C   0  0  0  0  0  0  0  0  0  0  0  0
   -3.6105    2.1127   -1.1438 C   0  0  0  0  0  0  0  0  0  0  0  0
   -4.0197    3.4463   -1.1683 C   0  0  0  0  0  0  0  0  0  0  0  0
   -5.1269    3.8500   -0.4238 C   0  0  0  0  0  0  0  0  0  0  0  0
   -5.8301    2.9223    0.3446 C   0  0  0  0  0  0  0  0  0  0  0  0
   -5.4292    1.5852    0.3723 C   0  0  0  0  0  0  0  0  0  0  0  0
   -2.5768   -0.6042   -0.1045 C   0  0  0  0  0  0  0  0  0  0  0  0
   -1.5879    0.2856    0.3276 N   0  0  0  0  0  0  0  0  0  0  0  0
   -0.5399   -0.1126    1.1537 C   0  0  0  0  0  0  0  0  0  0  0  0
   -0.4441   -1.2168    1.6793 O   0  0  0  0  0  0  0  0  0  0  0  0
    0.4664    1.0295    1.3925 C   0  0  0  0  0  0  0  0  0  0  0  0
    1.8305    0.5324    1.6540 N   0  0  0  0  0  0  0  0  0  0  0  0
    2.3994   -0.1614    0.4777 C   0  0  0  0  0  0  0  0  0  0  0  0
    3.8285   -0.6719    0.7404 C   0  0  0  0  0  0  0  0  0  0  0  0
    4.7152    0.3968    1.2188 N   0  0  0  0  0  0  0  0  0  0  0  0
    6.1127    0.2771    1.1722 C   0  0  0  0  0  0  0  0  0  0  0  0
    6.8106    0.7559    2.0687 O   0  0  0  0  0  0  0  0  0  0  0  0
    6.7241   -0.3929    0.0361 C   0  0  0  0  0  0  0  0  0  0  0  0
    7.9675   -0.9889   -0.0825 C   0  0  0  0  0  0  0  0  0  0  0  0
    8.0876   -1.4351   -1.4205 C   0  0  0  0  0  0  0  0  0  0  0  0
    6.9249   -1.0626   -2.0491 C   0  0  0  0  0  0  0  0  0  0  0  0
    6.1007   -0.4178   -1.1847 O   0  0  0  0  0  0  0  0  0  0  0  0
    4.1580    1.1596    2.3352 C   0  0  0  0  0  0  0  0  0  0  0  0
    2.7223    1.6379    2.0540 C   0  0  0  0  0  0  0  0  0  0  0  0
   -2.5357   -1.9667   -0.3601 C   0  0  0  0  0  0  0  0  0  0  0  0
   -1.3590   -2.7854   -0.4584 C   0  0  0  0  0  0  0  0  0  0  0  0
   -0.4328   -3.4617   -0.6390 N   0  0  0  0  0  0  0  0  0  0  0  0
   -4.9144   -3.8864   -1.7251 H   0  0  0  0  0  0  0  0  0  0  0  0
   -4.9030   -4.1865    0.0218 H   0  0  0  0  0  0  0  0  0  0  0  0
   -3.4587   -4.5038   -0.9456 H   0  0  0  0  0  0  0  0  0  0  0  0
   -6.7113   -1.1283    0.1483 H   0  0  0  0  0  0  0  0  0  0  0  0
   -6.5219   -2.1491   -1.2747 H   0  0  0  0  0  0  0  0  0  0  0  0
   -6.4255   -0.4073   -1.4601 H   0  0  0  0  0  0  0  0  0  0  0  0
   -2.7711    1.8083   -1.7652 H   0  0  0  0  0  0  0  0  0  0  0  0
   -3.4849    4.1699   -1.7788 H   0  0  0  0  0  0  0  0  0  0  0  0
   -5.4468    4.8894   -0.4456 H   0  0  0  0  0  0  0  0  0  0  0  0
   -6.6903    3.2431    0.9273 H   0  0  0  0  0  0  0  0  0  0  0  0
   -5.9713    0.8892    1.0066 H   0  0  0  0  0  0  0  0  0  0  0  0
   -1.8241    1.2703    0.3696 H   0  0  0  0  0  0  0  0  0  0  0  0
    0.0948    1.5795    2.2662 H   0  0  0  0  0  0  0  0  0  0  0  0
    0.4613    1.7133    0.5339 H   0  0  0  0  0  0  0  0  0  0  0  0
    2.4167    0.5170   -0.3858 H   0  0  0  0  0  0  0  0  0  0  0  0
    1.7838   -1.0246    0.2039 H   0  0  0  0  0  0  0  0  0  0  0  0
    3.8147   -1.4472    1.5178 H   0  0  0  0  0  0  0  0  0  0  0  0
    4.2086   -1.1493   -0.1625 H   0  0  0  0  0  0  0  0  0  0  0  0
    8.6924   -1.0817    0.7150 H   0  0  0  0  0  0  0  0  0  0  0  0
    8.9221   -1.9527   -1.8724 H   0  0  0  0  0  0  0  0  0  0  0  0
    6.5514   -1.1701   -3.0577 H   0  0  0  0  0  0  0  0  0  0  0  0
    4.1812    0.5165    3.2234 H   0  0  0  0  0  0  0  0  0  0  0  0
    4.7925    2.0290    2.5404 H   0  0  0  0  0  0  0  0  0  0  0  0
    2.3363    2.1164    2.9622 H   0  0  0  0  0  0  0  0  0  0  0  0
    2.7500    2.4031    1.2659 H   0  0  0  0  0  0  0  0  0  0  0  0
  1  2  1  0
  2  3  2  0
  3  4  1  0
  3  5  1  0
  5  6  1  0
  6  7  2  0
  7  8  1  0
  8  9  2  0
  9 10  1  0
 10 11  2  0
  5 12  1  0
 12 13  1  0
 13 14  1  0
 14 15  2  0
 14 16  1  0
 16 17  1  0
 17 18  1  0
 18 19  1  0
 19 20  1  0
 20 21  1  0
 21 22  2  0
 21 23  1  0
 23 24  2  0
 24 25  1  0
 25 26  2  0
 26 27  1  0
 20 28  1  0
 28 29  1  0
 12 30  2  0
 30 31  1  0
 31 32  3  0
 30  2  1  0
 11  6  1  0
 29 17  1  0
 27 23  1  0
  1 33  1  0
  1 34  1  0
  1 35  1  0
  4 36  1  0
  4 37  1  0
  4 38  1  0
  7 39  1  0
  8 40  1  0
  9 41  1  0
 10 42  1  0
 11 43  1  0
 13 44  1  0
 16 45  1  0
 16 46  1  0
 18 47  1  0
 18 48  1  0
 19 49  1  0
 19 50  1  0
 24 51  1  0
 25 52  1  0
 26 53  1  0
 28 54  1  0
 28 55  1  0
 29 56  1  0
 29 57  1  0
M  END
$$$$
OCNT-2314480
     RDKit          3D

 47 50  0  0  0  0  0  0  0  0999 V2000
    1.4965    3.0545   -0.8145 C   0  0  0  0  0  0  0  0  0  0  0  0
    2.0588    1.6851   -0.8133 C   0  0  0  0  0  0  0  0  0  0  0  0
    1.6442    0.4499   -1.2802 C   0  0  0  0  0  0  0  0  0  0  0  0
    0.3985    0.1016   -2.0302 C   0  0  0  0  0  0  0  0  0  0  0  0
   -0.5674   -0.6332   -1.1862 N   0  0  0  0  0  0  0  0  0  0  0  0
   -1.0413    0.1759   -0.0458 C   0  0  0  0  0  0  0  0  0  0  0  0
   -2.4268   -0.2311    0.4967 C   0  0  0  0  0  0  0  0  0  0  0  0
   -3.4670   -0.1918   -0.5401 N   0  0  0  0  0  0  0  0  0  0  0  0
   -4.8550   -0.2889   -0.3196 C   0  0  0  0  0  0  0  0  0  0  0  0
   -5.6201   -0.4458   -1.2776 O   0  0  0  0  0  0  0  0  0  0  0  0
   -5.4020   -0.2243    1.0302 C   0  0  0  0  0  0  0  0  0  0  0  0
   -6.6337   -0.6680    1.5113 C   0  0  0  0  0  0  0  0  0  0  0  0
   -6.7122   -0.3035    2.8679 C   0  0  0  0  0  0  0  0  0  0  0  0
   -5.5323    0.3471    3.1444 C   0  0  0  0  0  0  0  0  0  0  0  0
   -4.7403    0.4053    2.0434 O   0  0  0  0  0  0  0  0  0  0  0  0
   -2.9721   -0.3222   -1.9163 C   0  0  0  0  0  0  0  0  0  0  0  0
   -1.6869   -1.1597   -1.9890 C   0  0  0  0  0  0  0  0  0  0  0  0
    2.6045   -0.5051   -0.9762 N   0  0  0  0  0  0  0  0  0  0  0  0
    3.5413    0.1646   -0.3346 C   0  0  0  0  0  0  0  0  0  0  0  0
    4.7992   -0.3212    0.2332 C   0  0  0  0  0  0  0  0  0  0  0  0
    5.7348    0.5494    0.8149 C   0  0  0  0  0  0  0  0  0  0  0  0
    6.9360    0.0661    1.3367 C   0  0  0  0  0  0  0  0  0  0  0  0
    7.2150   -1.2956    1.2864 C   0  0  0  0  0  0  0  0  0  0  0  0
    6.2960   -2.1775    0.7166 C   0  0  0  0  0  0  0  0  0  0  0  0
    5.0971   -1.6931    0.1926 C   0  0  0  0  0  0  0  0  0  0  0  0
    3.2711    1.5089   -0.2030 O   0  0  0  0  0  0  0  0  0  0  0  0
    0.7667    3.1865   -1.6142 H   0  0  0  0  0  0  0  0  0  0  0  0
    0.9895    3.2592    0.1447 H   0  0  0  0  0  0  0  0  0  0  0  0
    2.2861    3.8068   -0.9511 H   0  0  0  0  0  0  0  0  0  0  0  0
   -0.0631    1.0023   -2.4611 H   0  0  0  0  0  0  0  0  0  0  0  0
    0.7071   -0.5309   -2.8717 H   0  0  0  0  0  0  0  0  0  0  0  0
   -1.1100    1.2341   -0.3342 H   0  0  0  0  0  0  0  0  0  0  0  0
   -0.3122    0.1072    0.7700 H   0  0  0  0  0  0  0  0  0  0  0  0
   -2.4035   -1.2494    0.8972 H   0  0  0  0  0  0  0  0  0  0  0  0
   -2.6733    0.4462    1.3077 H   0  0  0  0  0  0  0  0  0  0  0  0
   -7.3824   -1.1821    0.9258 H   0  0  0  0  0  0  0  0  0  0  0  0
   -7.5333   -0.4784    3.5571 H   0  0  0  0  0  0  0  0  0  0  0  0
   -5.1276    0.8101    4.0312 H   0  0  0  0  0  0  0  0  0  0  0  0
   -3.7244   -0.7708   -2.5688 H   0  0  0  0  0  0  0  0  0  0  0  0
   -2.7842    0.6935   -2.2854 H   0  0  0  0  0  0  0  0  0  0  0  0
   -1.9077   -2.1643   -1.6087 H   0  0  0  0  0  0  0  0  0  0  0  0
   -1.4017   -1.3002   -3.0381 H   0  0  0  0  0  0  0  0  0  0  0  0
    5.5388    1.6238    0.8577 H   0  0  0  0  0  0  0  0  0  0  0  0
    7.6516    0.7588    1.7771 H   0  0  0  0  0  0  0  0  0  0  0  0
    8.1498   -1.6653    1.6863 H   0  0  0  0  0  0  0  0  0  0  0  0
    6.5099   -3.2434    0.6762 H   0  0  0  0  0  0  0  0  0  0  0  0
    4.3883   -2.3911   -0.2540 H   0  0  0  0  0  0  0  0  0  0  0  0
  1  2  1  0
  2  3  2  0
  3  4  1  0
  4  5  1  0
  5  6  1  0
  6  7  1  0
  7  8  1  0
  8  9  1  0
  9 10  2  0
  9 11  1  0
 11 12  2  0
 12 13  1  0
 13 14  2  0
 14 15  1  0
  8 16  1  0
 16 17  1  0
  3 18  1  0
 18 19  2  0
 19 20  1  0
 20 21  2  0
 21 22  1  0
 22 23  2  0
 23 24  1  0
 24 25  2  0
 19 26  1  0
 26  2  1  0
 17  5  1  0
 25 20  1  0
 15 11  1  0
  1 27  1  0
  1 28  1  0
  1 29  1  0
  4 30  1  0
  4 31  1  0
  6 32  1  0
  6 33  1  0
  7 34  1  0
  7 35  1  0
 12 36  1  0
 13 37  1  0
 14 38  1  0
 16 39  1  0
 16 40  1  0
 17 41  1  0
 17 42  1  0
 21 43  1  0
 22 44  1  0
 23 45  1  0
 24 46  1  0
 25 47  1  0
M  END
$$$$
OCNT-2314484
     RDKit          3D

 51 53  0  0  0  0  0  0  0  0999 V2000
   -6.7370    0.8775   -0.7013 C   0  0  0  0  0  0  0  0  0  0  0  0
   -5.2443    0.5203   -0.5738 C   0  0  0  0  0  0  0  0  0  0  0  0
   -5.0243   -0.8494   -1.2152 C   0  0  0  0  0  0  0  0  0  0  0  0
   -4.8774    0.4836    0.9131 C   0  0  0  0  0  0  0  0  0  0  0  0
   -4.4993    1.6085   -1.2356 N   0  0  0  0  0  0  0  0  0  0  0  0
   -3.0011    1.5380   -1.9632 S   0  0  0  0  0  0  0  0  0  0  0  0
   -2.9480    0.4109   -2.8638 O   0  0  0  0  0  0  0  0  0  0  0  0
   -2.7345    2.8813   -2.4322 O   0  0  0  0  0  0  0  0  0  0  0  0
   -1.8887    1.2437   -0.6130 C   0  0  0  0  0  0  0  0  0  0  0  0
   -1.5708    2.2964    0.2469 C   0  0  0  0  0  0  0  0  0  0  0  0
   -0.6845    2.0761    1.3029 C   0  0  0  0  0  0  0  0  0  0  0  0
   -0.1034    0.8140    1.4957 C   0  0  0  0  0  0  0  0  0  0  0  0
    0.9305    0.6497    2.8711 Cl  0  0  0  0  0  0  0  0  0  0  0  0
   -0.4008   -0.2362    0.6125 C   0  0  0  0  0  0  0  0  0  0  0  0
    0.1542   -1.6135    0.7128 C   0  0  0  0  0  0  0  0  0  0  0  0
   -0.5375   -2.5681    0.3767 O   0  0  0  0  0  0  0  0  0  0  0  0
    1.4571   -1.7324    1.1259 N   0  0  0  0  0  0  0  0  0  0  0  0
    2.2009   -2.9760    1.0304 C   0  0  0  0  0  0  0  0  0  0  0  0
    3.0677   -3.0251   -0.2306 C   0  0  0  0  0  0  0  0  0  0  0  0
    4.1652   -2.0002   -0.1661 C   0  0  0  0  0  0  0  0  0  0  0  0
    3.9517   -0.7040   -0.0695 N   0  0  0  0  0  0  0  0  0  0  0  0
    5.1591   -0.0289   -0.0027 C   0  0  0  0  0  0  0  0  0  0  0  0
    5.3193    1.3670    0.1087 C   0  0  0  0  0  0  0  0  0  0  0  0
    6.6038    1.9164    0.1748 C   0  0  0  0  0  0  0  0  0  0  0  0
    7.7252    1.0934    0.1313 C   0  0  0  0  0  0  0  0  0  0  0  0
    7.5924   -0.2944    0.0203 C   0  0  0  0  0  0  0  0  0  0  0  0
    6.2974   -0.8353   -0.0455 C   0  0  0  0  0  0  0  0  0  0  0  0
    5.8119   -2.4817   -0.1804 S   0  0  0  0  0  0  0  0  0  0  0  0
   -1.2991   -0.0120   -0.4460 C   0  0  0  0  0  0  0  0  0  0  0  0
   -7.0366    0.9494   -1.7533 H   0  0  0  0  0  0  0  0  0  0  0  0
   -6.9566    1.8450   -0.2343 H   0  0  0  0  0  0  0  0  0  0  0  0
   -7.3715    0.1238   -0.2211 H   0  0  0  0  0  0  0  0  0  0  0  0
   -5.6712   -1.6062   -0.7548 H   0  0  0  0  0  0  0  0  0  0  0  0
   -3.9953   -1.1998   -1.0932 H   0  0  0  0  0  0  0  0  0  0  0  0
   -5.2536   -0.8309   -2.2868 H   0  0  0  0  0  0  0  0  0  0  0  0
   -5.5249   -0.2097    1.4624 H   0  0  0  0  0  0  0  0  0  0  0  0
   -3.8480    0.1527    1.0702 H   0  0  0  0  0  0  0  0  0  0  0  0
   -4.9784    1.4732    1.3734 H   0  0  0  0  0  0  0  0  0  0  0  0
   -4.8891    2.5497   -1.2045 H   0  0  0  0  0  0  0  0  0  0  0  0
   -2.0075    3.2830    0.1023 H   0  0  0  0  0  0  0  0  0  0  0  0
   -0.4514    2.8963    1.9797 H   0  0  0  0  0  0  0  0  0  0  0  0
    2.0147   -0.8880    1.2355 H   0  0  0  0  0  0  0  0  0  0  0  0
    2.8191   -3.0480    1.9321 H   0  0  0  0  0  0  0  0  0  0  0  0
    1.5016   -3.8188    1.0294 H   0  0  0  0  0  0  0  0  0  0  0  0
    2.4568   -2.8313   -1.1205 H   0  0  0  0  0  0  0  0  0  0  0  0
    3.4837   -4.0338   -0.3368 H   0  0  0  0  0  0  0  0  0  0  0  0
    4.4432    2.0049    0.1433 H   0  0  0  0  0  0  0  0  0  0  0  0
    6.7239    2.9936    0.2613 H   0  0  0  0  0  0  0  0  0  0  0  0
    8.7188    1.5334    0.1853 H   0  0  0  0  0  0  0  0  0  0  0  0
    8.4686   -0.9357   -0.0114 H   0  0  0  0  0  0  0  0  0  0  0  0
   -1.5318   -0.8223   -1.1370 H   0  0  0  0  0  0  0  0  0  0  0  0
  1  2  1  0
  2  3  1  0
  2  4  1  0
  2  5  1  0
  5  6  1  0
  6  7  2  0
  6  8  2  0
  6  9  1  0
  9 10  1  0
 10 11  2  0
 11 12  1  0
 12 13  1  0
 12 14  2  0
 14 15  1  0
 15 16  2  0
 15 17  1  0
 17 18  1  0
 18 19  1  0
 19 20  1  0
 20 21  2  0
 21 22  1  0
 22 23  2  0
 23 24  1  0
 24 25  2  0
 25 26  1  0
 26 27  2  0
 27 28  1  0
 14 29  1  0
 29  9  2  0
 28 20  1  0
 27 22  1  0
  1 30  1  0
  1 31  1  0
  1 32  1  0
  3 33  1  0
  3 34  1  0
  3 35  1  0
  4 36  1  0
  4 37  1  0
  4 38  1  0
  5 39  1  0
 10 40  1  0
 11 41  1  0
 17 42  1  0
 18 43  1  0
 18 44  1  0
 19 45  1  0
 19 46  1  0
 23 47  1  0
 24 48  1  0
 25 49  1  0
 26 50  1  0
 29 51  1  0
M  END
$$$$
OCNT-2314494
     RDKit          3D

 39 42  0  0  0  0  0  0  0  0999 V2000
   -0.0279    1.4488   -0.8125 O   0  0  0  0  0  0  0  0  0  0  0  0
   -0.2051    0.6803    0.1263 C   0  0  0  0  0  0  0  0  0  0  0  0
   -1.5606    0.5251    0.7921 C   0  0  0  0  0  0  0  0  0  0  0  0
   -2.6866    0.7450   -0.2153 C   0  0  0  0  0  0  0  0  0  0  0  0
   -2.7344   -0.4575   -1.0341 O   0  0  0  0  0  0  0  0  0  0  0  0
   -3.8708   -0.4963   -1.9108 C   0  0  0  0  0  0  0  0  0  0  0  0
   -5.1499   -0.7203   -1.0944 C   0  0  0  0  0  0  0  0  0  0  0  0
   -5.1975    0.2638    0.0299 C   0  0  0  0  0  0  0  0  0  0  0  0
   -4.0457    0.9164    0.4345 C   0  0  0  0  0  0  0  0  0  0  0  0
   -4.3592    2.0393    1.6804 S   0  0  0  0  0  0  0  0  0  0  0  0
   -6.0135    1.6061    1.7373 C   0  0  0  0  0  0  0  0  0  0  0  0
   -6.3329    0.6501    0.7982 C   0  0  0  0  0  0  0  0  0  0  0  0
    0.7755   -0.0718    0.7586 N   0  0  0  0  0  0  0  0  0  0  0  0
    2.1445   -0.1499    0.4283 C   0  0  0  0  0  0  0  0  0  0  0  0
    2.7397    0.5505   -0.6220 C   0  0  0  0  0  0  0  0  0  0  0  0
    4.1104    0.4182   -0.8870 C   0  0  0  0  0  0  0  0  0  0  0  0
    4.9083   -0.4228   -0.0991 C   0  0  0  0  0  0  0  0  0  0  0  0
    6.2871   -0.5454   -0.3790 N   0  0  0  0  0  0  0  0  0  0  0  0
    7.2607   -1.2924    0.2364 C   0  0  0  0  0  0  0  0  0  0  0  0
    8.4115   -1.0947   -0.3657 N   0  0  0  0  0  0  0  0  0  0  0  0
    8.1547   -0.2088   -1.3757 N   0  0  0  0  0  0  0  0  0  0  0  0
    6.8746    0.1318   -1.3956 N   0  0  0  0  0  0  0  0  0  0  0  0
    4.3094   -1.1199    0.9475 C   0  0  0  0  0  0  0  0  0  0  0  0
    5.0123   -1.9401    1.7397 F   0  0  0  0  0  0  0  0  0  0  0  0
    2.9443   -0.9879    1.2113 C   0  0  0  0  0  0  0  0  0  0  0  0
   -1.5823    1.2604    1.6037 H   0  0  0  0  0  0  0  0  0  0  0  0
   -1.6441   -0.4749    1.2356 H   0  0  0  0  0  0  0  0  0  0  0  0
   -2.4945    1.6004   -0.8743 H   0  0  0  0  0  0  0  0  0  0  0  0
   -3.9149    0.4309   -2.4953 H   0  0  0  0  0  0  0  0  0  0  0  0
   -3.7282   -1.3260   -2.6103 H   0  0  0  0  0  0  0  0  0  0  0  0
   -5.1390   -1.7294   -0.6651 H   0  0  0  0  0  0  0  0  0  0  0  0
   -6.0308   -0.6297   -1.7381 H   0  0  0  0  0  0  0  0  0  0  0  0
   -6.6749    2.0830    2.4475 H   0  0  0  0  0  0  0  0  0  0  0  0
   -7.3342    0.2582    0.6663 H   0  0  0  0  0  0  0  0  0  0  0  0
    0.4717   -0.6457    1.5360 H   0  0  0  0  0  0  0  0  0  0  0  0
    2.1667    1.2137   -1.2644 H   0  0  0  0  0  0  0  0  0  0  0  0
    4.5289    0.9853   -1.7184 H   0  0  0  0  0  0  0  0  0  0  0  0
    7.0997   -1.9396    1.0830 H   0  0  0  0  0  0  0  0  0  0  0  0
    2.5268   -1.5540    2.0389 H   0  0  0  0  0  0  0  0  0  0  0  0
  1  2  2  0
  2  3  1  0
  3  4  1  0
  4  5  1  0
  5  6  1  0
  6  7  1  0
  7  8  1  0
  8  9  2  0
  9 10  1  0
 10 11  1  0
 11 12  2  0
  2 13  1  0
 13 14  1  0
 14 15  1  0
 15 16  2  0
 16 17  1  0
 17 18  1  0
 18 19  1  0
 19 20  2  0
 20 21  1  0
 21 22  2  0
 17 23  2  0
 23 24  1  0
 23 25  1  0
  9  4  1  0
 25 14  2  0
 12  8  1  0
 22 18  1  0
  3 26  1  0
  3 27  1  0
  4 28  1  0
  6 29  1  0
  6 30  1  0
  7 31  1  0
  7 32  1  0
 11 33  1  0
 12 34  1  0
 13 35  1  0
 15 36  1  0
 16 37  1  0
 19 38  1  0
 25 39  1  0
M  END
$$$$
OCNT-2314500
     RDKit          3D

 41 43  0  0  0  0  0  0  0  0999 V2000
   -5.1225    1.8211    1.7993 C   0  0  0  0  0  0  0  0  0  0  0  0
   -4.0493    1.3144    0.8823 C   0  0  0  0  0  0  0  0  0  0  0  0
   -3.6397    2.0721   -0.2175 C   0  0  0  0  0  0  0  0  0  0  0  0
   -2.6139    1.6149   -1.0471 C   0  0  0  0  0  0  0  0  0  0  0  0
   -1.9661    0.3960   -0.7882 C   0  0  0  0  0  0  0  0  0  0  0  0
   -0.8752   -0.0654   -1.7327 C   0  0  0  0  0  0  0  0  0  0  0  0
   -0.1219   -1.2473   -1.2770 N   0  0  0  0  0  0  0  0  0  0  0  0
    1.1307   -0.9676   -0.7337 C   0  0  0  0  0  0  0  0  0  0  0  0
    1.2679   -0.9977    0.6146 N   0  0  0  0  0  0  0  0  0  0  0  0
    2.4645   -0.7047    1.1747 C   0  0  0  0  0  0  0  0  0  0  0  0
    3.5658   -0.3591    0.4305 C   0  0  0  0  0  0  0  0  0  0  0  0
    5.0858    0.0071    1.2266 S   0  0  0  0  0  0  0  0  0  0  0  0
    5.0833    1.6893    1.2395 N   0  0  0  0  0  0  0  0  0  0  0  0
    4.9877   -0.3917    2.6110 O   0  0  0  0  0  0  0  0  0  0  0  0
    6.1582   -0.4293    0.3660 O   0  0  0  0  0  0  0  0  0  0  0  0
    3.4600   -0.3669   -0.9550 C   0  0  0  0  0  0  0  0  0  0  0  0
    2.2273   -0.6870   -1.5569 C   0  0  0  0  0  0  0  0  0  0  0  0
    2.1234   -0.7740   -3.0535 C   0  0  0  0  0  0  0  0  0  0  0  0
    1.6512   -1.9651   -3.5122 F   0  0  0  0  0  0  0  0  0  0  0  0
    1.3283    0.1923   -3.5955 F   0  0  0  0  0  0  0  0  0  0  0  0
    3.3331   -0.6117   -3.6707 F   0  0  0  0  0  0  0  0  0  0  0  0
   -0.9302   -2.2435   -0.5577 C   0  0  0  0  0  0  0  0  0  0  0  0
   -1.6902   -1.6683    0.6391 C   0  0  0  0  0  0  0  0  0  0  0  0
   -2.3791   -0.3701    0.3123 C   0  0  0  0  0  0  0  0  0  0  0  0
   -3.4029    0.1021    1.1492 C   0  0  0  0  0  0  0  0  0  0  0  0
   -5.8404    2.4435    1.2548 H   0  0  0  0  0  0  0  0  0  0  0  0
   -4.6777    2.4152    2.6034 H   0  0  0  0  0  0  0  0  0  0  0  0
   -5.6831    0.9903    2.2406 H   0  0  0  0  0  0  0  0  0  0  0  0
   -4.1168    3.0247   -0.4364 H   0  0  0  0  0  0  0  0  0  0  0  0
   -2.3191    2.2207   -1.9016 H   0  0  0  0  0  0  0  0  0  0  0  0
   -0.2081    0.7847   -1.9231 H   0  0  0  0  0  0  0  0  0  0  0  0
   -1.3492   -0.3252   -2.6876 H   0  0  0  0  0  0  0  0  0  0  0  0
    2.4853   -0.7580    2.2601 H   0  0  0  0  0  0  0  0  0  0  0  0
    5.0810    2.0189    2.2072 H   0  0  0  0  0  0  0  0  0  0  0  0
    4.3389    2.1153    0.6893 H   0  0  0  0  0  0  0  0  0  0  0  0
    4.3342   -0.1507   -1.5694 H   0  0  0  0  0  0  0  0  0  0  0  0
   -1.6575   -2.6509   -1.2731 H   0  0  0  0  0  0  0  0  0  0  0  0
   -0.3162   -3.0978   -0.2443 H   0  0  0  0  0  0  0  0  0  0  0  0
   -1.0186   -1.4980    1.4871 H   0  0  0  0  0  0  0  0  0  0  0  0
   -2.4321   -2.4084    0.9634 H   0  0  0  0  0  0  0  0  0  0  0  0
   -3.6970   -0.4841    2.0182 H   0  0  0  0  0  0  0  0  0  0  0  0
  1  2  1  0
  2  3  1  0
  3  4  2  0
  4  5  1  0
  5  6  1  0
  6  7  1  0
  7  8  1  0
  8  9  1  0
  9 10  2  0
 10 11  1  0
 11 12  1  0
 12 13  1  0
 12 14  2  0
 12 15  2  0
 11 16  2  0
 16 17  1  0
 17 18  1  0
 18 19  1  0
 18 20  1  0
 18 21  1  0
  7 22  1  0
 22 23  1  0
 23 24  1  0
 24 25  1  0
 25  2  2  0
 24  5  2  0
 17  8  2  0
  1 26  1  0
  1 27  1  0
  1 28  1  0
  3 29  1  0
  4 30  1  0
  6 31  1  0
  6 32  1  0
 10 33  1  0
 13 34  1  0
 13 35  1  0
 16 36  1  0
 22 37  1  0
 22 38  1  0
 23 39  1  0
 23 40  1  0
 25 41  1  0
M  END
$$$$
OCNT-2314509
     RDKit          3D

 49 51  0  0  0  0  0  0  0  0999 V2000
   -5.7732    0.0908   -0.9147 C   0  0  0  0  0  0  0  0  0  0  0  0
   -4.5805    0.7122   -1.6771 C   0  0  0  0  0  0  0  0  0  0  0  0
   -4.5762    0.1913   -3.1338 C   0  0  0  0  0  0  0  0  0  0  0  0
   -4.8308    2.2399   -1.7333 C   0  0  0  0  0  0  0  0  0  0  0  0
   -3.2529    0.3196   -0.9976 C   0  0  0  0  0  0  0  0  0  0  0  0
   -2.9325   -1.0412   -0.8020 C   0  0  0  0  0  0  0  0  0  0  0  0
   -1.7360   -1.4318   -0.1924 C   0  0  0  0  0  0  0  0  0  0  0  0
   -0.8143   -0.4638    0.2051 C   0  0  0  0  0  0  0  0  0  0  0  0
    0.4433   -0.8416    0.8895 C   0  0  0  0  0  0  0  0  0  0  0  0
    0.7296   -0.2691    1.9391 O   0  0  0  0  0  0  0  0  0  0  0  0
    1.2837   -1.7822    0.3119 N   0  0  0  0  0  0  0  0  0  0  0  0
    1.2980   -2.0870   -1.1118 C   0  0  0  0  0  0  0  0  0  0  0  0
    2.5520   -3.3609   -1.3888 S   0  0  0  0  0  0  0  0  0  0  0  0
    2.8001   -3.6611    0.3893 C   0  0  0  0  0  0  0  0  0  0  0  0
    2.4481   -2.3167    1.0494 C   0  0  0  0  0  0  0  0  0  0  0  0
    3.6968   -1.3797    1.1090 C   0  0  0  0  0  0  0  0  0  0  0  0
    4.8391   -1.8186    0.9817 O   0  0  0  0  0  0  0  0  0  0  0  0
    3.3966   -0.0771    1.4595 N   0  0  0  0  0  0  0  0  0  0  0  0
    4.2771    1.0152    1.5884 C   0  0  0  0  0  0  0  0  0  0  0  0
    3.7141    2.2517    1.9195 C   0  0  0  0  0  0  0  0  0  0  0  0
    4.5462    3.3549    2.0290 C   0  0  0  0  0  0  0  0  0  0  0  0
    5.8782    3.3077    1.8289 N   0  0  0  0  0  0  0  0  0  0  0  0
    6.3978    2.0978    1.5223 C   0  0  0  0  0  0  0  0  0  0  0  0
    5.6489    0.9382    1.3894 C   0  0  0  0  0  0  0  0  0  0  0  0
   -1.1128    0.8894    0.0418 C   0  0  0  0  0  0  0  0  0  0  0  0
   -2.3179    1.2753   -0.5578 C   0  0  0  0  0  0  0  0  0  0  0  0
   -6.7267    0.3706   -1.3830 H   0  0  0  0  0  0  0  0  0  0  0  0
   -5.7344   -1.0051   -0.8995 H   0  0  0  0  0  0  0  0  0  0  0  0
   -5.8002    0.4348    0.1285 H   0  0  0  0  0  0  0  0  0  0  0  0
   -4.4948   -0.9023   -3.1826 H   0  0  0  0  0  0  0  0  0  0  0  0
   -3.7316    0.6046   -3.6984 H   0  0  0  0  0  0  0  0  0  0  0  0
   -5.4985    0.4727   -3.6608 H   0  0  0  0  0  0  0  0  0  0  0  0
   -5.7928    2.4716   -2.2169 H   0  0  0  0  0  0  0  0  0  0  0  0
   -4.0523    2.7550   -2.3110 H   0  0  0  0  0  0  0  0  0  0  0  0
   -4.8624    2.6792   -0.7228 H   0  0  0  0  0  0  0  0  0  0  0  0
   -3.6236   -1.8239   -1.1129 H   0  0  0  0  0  0  0  0  0  0  0  0
   -1.5479   -2.4898   -0.0118 H   0  0  0  0  0  0  0  0  0  0  0  0
    1.5307   -1.1727   -1.6647 H   0  0  0  0  0  0  0  0  0  0  0  0
    0.3298   -2.4694   -1.4375 H   0  0  0  0  0  0  0  0  0  0  0  0
    2.0824   -4.4412    0.7048 H   0  0  0  0  0  0  0  0  0  0  0  0
    3.8113   -4.0314    0.5906 H   0  0  0  0  0  0  0  0  0  0  0  0
    2.1526   -2.4856    2.1003 H   0  0  0  0  0  0  0  0  0  0  0  0
    2.4271    0.0941    1.7113 H   0  0  0  0  0  0  0  0  0  0  0  0
    2.6488    2.3706    2.0733 H   0  0  0  0  0  0  0  0  0  0  0  0
    4.1489    4.3353    2.2745 H   0  0  0  0  0  0  0  0  0  0  0  0
    7.4735    2.0770    1.3532 H   0  0  0  0  0  0  0  0  0  0  0  0
    6.1599    0.0077    1.1502 H   0  0  0  0  0  0  0  0  0  0  0  0
   -0.4166    1.6512    0.3874 H   0  0  0  0  0  0  0  0  0  0  0  0
   -2.5053    2.3437   -0.6590 H   0  0  0  0  0  0  0  0  0  0  0  0
  1  2  1  0
  2  3  1  0
  2  4  1  0
  2  5  1  0
  5  6  1  0
  6  7  2  0
  7  8  1  0
  8  9  1  0
  9 10  2  0
  9 11  1  0
 11 12  1  0
 12 13  1  0
 13 14  1  0
 14 15  1  0
 15 16  1  0
 16 17  2  0
 16 18  1  0
 18 19  1  0
 19 20  2  0
 20 21  1  0
 21 22  2  0
 22 23  1  0
 23 24  2  0
  8 25  2  0
 25 26  1  0
 26  5  2  0
 15 11  1  0
 24 19  1  0
  1 27  1  0
  1 28  1  0
  1 29  1  0
  3 30  1  0
  3 31  1  0
  3 32  1  0
  4 33  1  0
  4 34  1  0
  4 35  1  0
  6 36  1  0
  7 37  1  0
 12 38  1  0
 12 39  1  0
 14 40  1  0
 14 41  1  0
 15 42  1  0
 18 43  1  0
 20 44  1  0
 21 45  1  0
 23 46  1  0
 24 47  1  0
 25 48  1  0
 26 49  1  0
M  END
$$$$
OCNT-2314526
     RDKit          3D

 49 52  0  0  0  0  0  0  0  0999 V2000
   -0.6639    1.3586   -2.2279 C   0  0  0  0  0  0  0  0  0  0  0  0
   -0.2266    0.5295   -1.0139 C   0  0  0  0  0  0  0  0  0  0  0  0
   -0.9220   -0.7587   -0.9845 N   0  0  0  0  0  0  0  0  0  0  0  0
   -2.2550   -0.7770   -0.5677 C   0  0  0  0  0  0  0  0  0  0  0  0
   -2.9279   -1.9727   -0.5915 C   0  0  0  0  0  0  0  0  0  0  0  0
   -4.2184   -1.9426   -0.1243 C   0  0  0  0  0  0  0  0  0  0  0  0
   -5.0290   -3.1985   -0.1280 C   0  0  0  0  0  0  0  0  0  0  0  0
   -6.2969   -3.0803    0.3736 N   0  0  0  0  0  0  0  0  0  0  0  0
   -4.5975   -4.2630   -0.5511 O   0  0  0  0  0  0  0  0  0  0  0  0
   -4.8340   -0.8381    0.3529 N   0  0  0  0  0  0  0  0  0  0  0  0
   -4.1014    0.2862    0.3651 C   0  0  0  0  0  0  0  0  0  0  0  0
   -4.7079    1.5690    0.8925 C   0  0  0  0  0  0  0  0  0  0  0  0
   -6.1361    1.9377    0.5599 C   0  0  0  0  0  0  0  0  0  0  0  0
   -5.7746    1.5468    1.9637 C   0  0  0  0  0  0  0  0  0  0  0  0
   -2.8289    0.3351   -0.0801 N   0  0  0  0  0  0  0  0  0  0  0  0
    1.2694    0.2263   -0.9802 C   0  0  0  0  0  0  0  0  0  0  0  0
    1.8738   -0.0320    0.2650 C   0  0  0  0  0  0  0  0  0  0  0  0
    3.2338   -0.3356    0.3580 C   0  0  0  0  0  0  0  0  0  0  0  0
    4.0113   -0.3773   -0.7982 C   0  0  0  0  0  0  0  0  0  0  0  0
    5.3462   -0.7054   -0.7744 O   0  0  0  0  0  0  0  0  0  0  0  0
    6.1574    0.0113    0.0694 C   0  0  0  0  0  0  0  0  0  0  0  0
    6.0655    1.3834    0.2731 C   0  0  0  0  0  0  0  0  0  0  0  0
    6.8956    2.0827    1.0852 N   0  0  0  0  0  0  0  0  0  0  0  0
    7.8681    1.3790    1.7054 C   0  0  0  0  0  0  0  0  0  0  0  0
    8.0525    0.0138    1.5485 C   0  0  0  0  0  0  0  0  0  0  0  0
    7.1833   -0.6781    0.7090 C   0  0  0  0  0  0  0  0  0  0  0  0
    3.4260   -0.1638   -2.0439 C   0  0  0  0  0  0  0  0  0  0  0  0
    2.0639    0.1381   -2.1351 C   0  0  0  0  0  0  0  0  0  0  0  0
   -1.7104    1.6686   -2.1389 H   0  0  0  0  0  0  0  0  0  0  0  0
   -0.5817    0.7933   -3.1631 H   0  0  0  0  0  0  0  0  0  0  0  0
   -0.0594    2.2674   -2.3221 H   0  0  0  0  0  0  0  0  0  0  0  0
   -0.4462    1.1170   -0.1118 H   0  0  0  0  0  0  0  0  0  0  0  0
   -0.7815   -1.2901   -1.8374 H   0  0  0  0  0  0  0  0  0  0  0  0
   -2.4718   -2.8876   -0.9455 H   0  0  0  0  0  0  0  0  0  0  0  0
   -6.6171   -2.1860    0.7271 H   0  0  0  0  0  0  0  0  0  0  0  0
   -6.8957   -3.8920    0.4127 H   0  0  0  0  0  0  0  0  0  0  0  0
   -4.0085    2.4004    0.9475 H   0  0  0  0  0  0  0  0  0  0  0  0
   -6.7305    1.2430   -0.0231 H   0  0  0  0  0  0  0  0  0  0  0  0
   -6.3537    2.9806    0.3605 H   0  0  0  0  0  0  0  0  0  0  0  0
   -5.7456    2.3240    2.7187 H   0  0  0  0  0  0  0  0  0  0  0  0
   -6.1244    0.5887    2.3312 H   0  0  0  0  0  0  0  0  0  0  0  0
    1.2729   -0.0124    1.1732 H   0  0  0  0  0  0  0  0  0  0  0  0
    3.6706   -0.5489    1.3298 H   0  0  0  0  0  0  0  0  0  0  0  0
    5.3103    1.9831   -0.2257 H   0  0  0  0  0  0  0  0  0  0  0  0
    8.5206    1.9611    2.3502 H   0  0  0  0  0  0  0  0  0  0  0  0
    8.8559   -0.4986    2.0657 H   0  0  0  0  0  0  0  0  0  0  0  0
    7.3019   -1.7468    0.5573 H   0  0  0  0  0  0  0  0  0  0  0  0
    4.0283   -0.2327   -2.9459 H   0  0  0  0  0  0  0  0  0  0  0  0
    1.6394    0.2934   -3.1231 H   0  0  0  0  0  0  0  0  0  0  0  0
  1  2  1  0
  2  3  1  0
  3  4  1  0
  4  5  1  0
  5  6  2  0
  6  7  1  0
  7  8  1  0
  7  9  2  0
  6 10  1  0
 10 11  2  0
 11 12  1  0
 12 13  1  0
 13 14  1  0
 11 15  1  0
  2 16  1  0
 16 17  1  0
 17 18  2  0
 18 19  1  0
 19 20  1  0
 20 21  1  0
 21 22  2  0
 22 23  1  0
 23 24  2  0
 24 25  1  0
 25 26  2  0
 19 27  2  0
 27 28  1  0
 15  4  2  0
 28 16  2  0
 14 12  1  0
 26 21  1  0
  1 29  1  0
  1 30  1  0
  1 31  1  0
  2 32  1  0
  3 33  1  0
  5 34  1  0
  8 35  1  0
  8 36  1  0
 12 37  1  0
 13 38  1  0
 13 39  1  0
 14 40  1  0
 14 41  1  0
 17 42  1  0
 18 43  1  0
 22 44  1  0
 24 45  1  0
 25 46  1  0
 26 47  1  0
 27 48  1  0
 28 49  1  0
M  END
$$$$
OCNT-2314528
     RDKit          3D

 43 46  0  0  0  0  0  0  0  0999 V2000
    5.7990    1.1135    0.9476 C   0  0  0  0  0  0  0  0  0  0  0  0
    5.6337   -0.2654    0.9513 C   0  0  0  0  0  0  0  0  0  0  0  0
    4.5228   -0.8415    0.3215 C   0  0  0  0  0  0  0  0  0  0  0  0
    3.5475   -0.0681   -0.3292 C   0  0  0  0  0  0  0  0  0  0  0  0
    2.4566   -0.6409   -0.9410 N   0  0  0  0  0  0  0  0  0  0  0  0
    2.3145   -2.0750   -1.1756 C   0  0  0  0  0  0  0  0  0  0  0  0
    1.1614   -2.1711   -2.1726 C   0  0  0  0  0  0  0  0  0  0  0  0
    0.2981   -0.9471   -1.8604 C   0  0  0  0  0  0  0  0  0  0  0  0
   -0.6473   -1.2067   -0.6761 C   0  0  0  0  0  0  0  0  0  0  0  0
   -1.6309   -0.1238   -0.5771 N   0  0  0  0  0  0  0  0  0  0  0  0
   -2.6701   -0.3555    0.3604 C   0  0  0  0  0  0  0  0  0  0  0  0
   -2.6837   -1.5119    1.0451 N   0  0  0  0  0  0  0  0  0  0  0  0
   -3.6751   -1.6758    1.9270 C   0  0  0  0  0  0  0  0  0  0  0  0
   -4.6535   -0.8046    2.1942 N   0  0  0  0  0  0  0  0  0  0  0  0
   -4.6441    0.3342    1.4958 C   0  0  0  0  0  0  0  0  0  0  0  0
   -5.6492    1.2658    1.7286 C   0  0  0  0  0  0  0  0  0  0  0  0
   -5.7145    2.4750    1.0309 C   0  0  0  0  0  0  0  0  0  0  0  0
   -4.7571    2.7677    0.0699 C   0  0  0  0  0  0  0  0  0  0  0  0
   -3.7383    1.8510   -0.1798 C   0  0  0  0  0  0  0  0  0  0  0  0
   -3.6647    0.6280    0.5362 C   0  0  0  0  0  0  0  0  0  0  0  0
    1.3586    0.1137   -1.5425 C   0  0  0  0  0  0  0  0  0  0  0  0
    3.7453    1.3222   -0.3105 C   0  0  0  0  0  0  0  0  0  0  0  0
    4.8527    1.9094    0.3155 C   0  0  0  0  0  0  0  0  0  0  0  0
    6.6587    1.5644    1.4346 H   0  0  0  0  0  0  0  0  0  0  0  0
    6.3637   -0.9007    1.4452 H   0  0  0  0  0  0  0  0  0  0  0  0
    4.4311   -1.9230    0.3618 H   0  0  0  0  0  0  0  0  0  0  0  0
    3.2174   -2.5250   -1.6027 H   0  0  0  0  0  0  0  0  0  0  0  0
    2.0623   -2.5885   -0.2410 H   0  0  0  0  0  0  0  0  0  0  0  0
    1.5544   -2.0876   -3.1939 H   0  0  0  0  0  0  0  0  0  0  0  0
    0.6259   -3.1222   -2.0991 H   0  0  0  0  0  0  0  0  0  0  0  0
   -0.2919   -0.6552   -2.7374 H   0  0  0  0  0  0  0  0  0  0  0  0
   -0.0896   -1.2998    0.2641 H   0  0  0  0  0  0  0  0  0  0  0  0
   -1.1658   -2.1559   -0.8632 H   0  0  0  0  0  0  0  0  0  0  0  0
   -1.1922    0.7555   -0.3144 H   0  0  0  0  0  0  0  0  0  0  0  0
   -3.6852   -2.6071    2.4827 H   0  0  0  0  0  0  0  0  0  0  0  0
   -6.4088    1.0416    2.4747 H   0  0  0  0  0  0  0  0  0  0  0  0
   -6.5175    3.1778    1.2378 H   0  0  0  0  0  0  0  0  0  0  0  0
   -4.8046    3.6999   -0.4868 H   0  0  0  0  0  0  0  0  0  0  0  0
   -3.0039    2.0805   -0.9483 H   0  0  0  0  0  0  0  0  0  0  0  0
    0.9721    0.8897   -0.8742 H   0  0  0  0  0  0  0  0  0  0  0  0
    1.7045    0.5864   -2.4698 H   0  0  0  0  0  0  0  0  0  0  0  0
    3.0382    1.9865   -0.7982 H   0  0  0  0  0  0  0  0  0  0  0  0
    4.9697    2.9896    0.3036 H   0  0  0  0  0  0  0  0  0  0  0  0
  1  2  2  0
  2  3  1  0
  3  4  2  0
  4  5  1  0
  5  6  1  0
  6  7  1  0
  7  8  1  0
  8  9  1  0
  9 10  1  0
 10 11  1  0
 11 12  1  0
 12 13  2  0
 13 14  1  0
 14 15  2  0
 15 16  1  0
 16 17  2  0
 17 18  1  0
 18 19  2  0
 19 20  1  0
  8 21  1  0
  4 22  1  0
 22 23  2  0
 23  1  1  0
 21  5  1  0
 20 11  2  0
 20 15  1  0
  1 24  1  0
  2 25  1  0
  3 26  1  0
  6 27  1  0
  6 28  1  0
  7 29  1  0
  7 30  1  0
  8 31  1  0
  9 32  1  0
  9 33  1  0
 10 34  1  0
 13 35  1  0
 16 36  1  0
 17 37  1  0
 18 38  1  0
 19 39  1  0
 21 40  1  0
 21 41  1  0
 22 42  1  0
 23 43  1  0
M  END
$$$$
OCNT-2314548
     RDKit          3D

 58 62  0  0  0  0  0  0  0  0999 V2000
    2.1075   -3.4200   -0.8478 C   0  0  0  0  0  0  0  0  0  0  0  0
    2.4910   -2.6111    0.3925 C   0  0  1  0  0  0  0  0  0  0  0  0
    3.4998   -1.6199    0.0338 N   0  0  0  0  0  0  0  0  0  0  0  0
    4.3719   -1.0835    0.9689 C   0  0  0  0  0  0  0  0  0  0  0  0
    4.3321   -1.3972    2.1563 O   0  0  0  0  0  0  0  0  0  0  0  0
    5.3535   -0.1341    0.4147 C   0  0  0  0  0  0  0  0  0  0  0  0
    6.6130   -0.0821    0.8886 N   0  0  0  0  0  0  0  0  0  0  0  0
    7.2072    0.8694    0.1572 N   0  0  0  0  0  0  0  0  0  0  0  0
    6.3986    1.4486   -0.7803 C   0  0  0  0  0  0  0  0  0  0  0  0
    6.6443    2.4583   -1.7164 C   0  0  0  0  0  0  0  0  0  0  0  0
    5.5757    2.8500   -2.5283 C   0  0  0  0  0  0  0  0  0  0  0  0
    4.3203    2.2591   -2.3990 C   0  0  0  0  0  0  0  0  0  0  0  0
    4.0976    1.2484   -1.4545 C   0  0  0  0  0  0  0  0  0  0  0  0
    5.1641    0.8248   -0.6344 C   0  0  0  0  0  0  0  0  0  0  0  0
    1.2900   -1.9477    1.1235 C   0  0  0  0  0  0  0  0  0  0  0  0
    0.6640   -0.7826    0.3329 C   0  0  0  0  0  0  0  0  0  0  0  0
   -0.7730   -0.5250    0.7691 C   0  0  0  0  0  0  0  0  0  0  0  0
   -1.6151   -1.6885    0.4805 N   0  0  0  0  0  0  0  0  0  0  0  0
   -2.9851   -1.6494    0.2017 C   0  0  0  0  0  0  0  0  0  0  0  0
   -3.6834   -2.6612    0.2358 O   0  0  0  0  0  0  0  0  0  0  0  0
   -3.5928   -0.3771   -0.1411 C   0  0  0  0  0  0  0  0  0  0  0  0
   -4.7900    0.1052    0.3525 C   0  0  0  0  0  0  0  0  0  0  0  0
   -5.0393    1.3117   -0.2620 N   0  0  0  0  0  0  0  0  0  0  0  0
   -6.1408    2.1867   -0.0632 C   0  0  0  0  0  0  0  0  0  0  0  0
   -6.2082    3.3820   -0.7863 C   0  0  0  0  0  0  0  0  0  0  0  0
   -7.2901    4.2177   -0.5719 C   0  0  0  0  0  0  0  0  0  0  0  0
   -8.2870    3.9461    0.2966 N   0  0  0  0  0  0  0  0  0  0  0  0
   -8.2001    2.7857    0.9801 C   0  0  0  0  0  0  0  0  0  0  0  0
   -7.1602    1.8797    0.8405 C   0  0  0  0  0  0  0  0  0  0  0  0
   -4.0586    1.6194   -1.1518 N   0  0  0  0  0  0  0  0  0  0  0  0
   -3.2215    0.5831   -1.0994 C   0  0  0  0  0  0  0  0  0  0  0  0
   -1.0157   -3.0042    0.7076 C   0  0  0  0  0  0  0  0  0  0  0  0
    0.2277   -2.9619    1.5936 C   0  0  0  0  0  0  0  0  0  0  0  0
    1.6314   -2.7993   -1.6130 H   0  0  0  0  0  0  0  0  0  0  0  0
    1.4322   -4.2432   -0.5984 H   0  0  0  0  0  0  0  0  0  0  0  0
    3.0013   -3.8614   -1.3044 H   0  0  0  0  0  0  0  0  0  0  0  0
    2.9671   -3.3050    1.0982 H   0  0  0  0  0  0  0  0  0  0  0  0
    3.7009   -1.4562   -0.9437 H   0  0  0  0  0  0  0  0  0  0  0  0
    8.1783    1.0829    0.3496 H   0  0  0  0  0  0  0  0  0  0  0  0
    7.6180    2.9294   -1.8085 H   0  0  0  0  0  0  0  0  0  0  0  0
    5.7248    3.6364   -3.2657 H   0  0  0  0  0  0  0  0  0  0  0  0
    3.5012    2.5937   -3.0325 H   0  0  0  0  0  0  0  0  0  0  0  0
    3.1056    0.8188   -1.3554 H   0  0  0  0  0  0  0  0  0  0  0  0
    1.6970   -1.5057    2.0449 H   0  0  0  0  0  0  0  0  0  0  0  0
    1.2610    0.1244    0.4869 H   0  0  0  0  0  0  0  0  0  0  0  0
    0.6728   -0.9863   -0.7437 H   0  0  0  0  0  0  0  0  0  0  0  0
   -1.1418    0.3765    0.2828 H   0  0  0  0  0  0  0  0  0  0  0  0
   -0.8267   -0.3426    1.8494 H   0  0  0  0  0  0  0  0  0  0  0  0
   -5.4638   -0.3297    1.0740 H   0  0  0  0  0  0  0  0  0  0  0  0
   -5.4432    3.6680   -1.5018 H   0  0  0  0  0  0  0  0  0  0  0  0
   -7.3859    5.1567   -1.1095 H   0  0  0  0  0  0  0  0  0  0  0  0
   -9.0192    2.5949    1.6685 H   0  0  0  0  0  0  0  0  0  0  0  0
   -7.1797    0.9725    1.4310 H   0  0  0  0  0  0  0  0  0  0  0  0
   -2.3694    0.5714   -1.7669 H   0  0  0  0  0  0  0  0  0  0  0  0
   -1.7507   -3.6815    1.1568 H   0  0  0  0  0  0  0  0  0  0  0  0
   -0.7706   -3.4085   -0.2806 H   0  0  0  0  0  0  0  0  0  0  0  0
   -0.0934   -2.6708    2.6036 H   0  0  0  0  0  0  0  0  0  0  0  0
    0.6548   -3.9659    1.6972 H   0  0  0  0  0  0  0  0  0  0  0  0
  1  2  1  0
  2  3  1  0
  3  4  1  0
  4  5  2  0
  4  6  1  0
  6  7  2  0
  7  8  1  0
  8  9  1  0
  9 10  2  0
 10 11  1  0
 11 12  2  0
 12 13  1  0
 13 14  2  0
  2 15  1  0
 15 16  1  0
 16 17  1  0
 17 18  1  0
 18 19  1  0
 19 20  2  0
 19 21  1  0
 21 22  2  0
 22 23  1  0
 23 24  1  0
 24 25  2  0
 25 26  1  0
 26 27  2  0
 27 28  1  0
 28 29  2  0
 23 30  1  0
 30 31  2  0
 18 32  1  0
 32 33  1  0
 14  6  1  0
 33 15  1  0
 14  9  1  0
 31 21  1  0
 29 24  1  0
  1 34  1  0
  1 35  1  0
  1 36  1  0
  2 37  1  1
  3 38  1  0
  8 39  1  0
 10 40  1  0
 11 41  1  0
 12 42  1  0
 13 43  1  0
 15 44  1  0
 16 45  1  0
 16 46  1  0
 17 47  1  0
 17 48  1  0
 22 49  1  0
 25 50  1  0
 26 51  1  0
 28 52  1  0
 29 53  1  0
 31 54  1  0
 32 55  1  0
 32 56  1  0
 33 57  1  0
 33 58  1  0
M  END
$$$$
OCNT-2314551
     RDKit          3D

 53 56  0  0  0  0  0  0  0  0999 V2000
   -9.1915    0.2096    1.5547 C   0  0  0  0  0  0  0  0  0  0  0  0
   -8.2210   -0.4945    0.6064 C   0  0  0  0  0  0  0  0  0  0  0  0
   -8.9509   -1.0822   -0.6005 C   0  0  0  0  0  0  0  0  0  0  0  0
   -7.1411    0.3927    0.1912 N   0  0  0  0  0  0  0  0  0  0  0  0
   -7.4156    1.5455   -0.4701 N   0  0  0  0  0  0  0  0  0  0  0  0
   -6.2081    2.0780   -0.6821 C   0  0  0  0  0  0  0  0  0  0  0  0
   -5.1603    1.2882   -0.1650 C   0  0  0  0  0  0  0  0  0  0  0  0
   -3.7600    1.3495   -0.0972 C   0  0  0  0  0  0  0  0  0  0  0  0
   -3.1031    0.2877    0.5387 C   0  0  0  0  0  0  0  0  0  0  0  0
   -1.6331    0.2206    0.6840 C   0  0  0  0  0  0  0  0  0  0  0  0
   -1.0418   -0.7548    1.1180 O   0  0  0  0  0  0  0  0  0  0  0  0
   -1.0637    1.3893    0.2999 O   0  0  0  0  0  0  0  0  0  0  0  0
    0.3629    1.3631    0.2891 C   0  0  0  0  0  0  0  0  0  0  0  0
    0.9273    0.6130   -0.9203 C   0  0  0  0  0  0  0  0  0  0  0  0
    0.2543    0.3360   -1.9099 O   0  0  0  0  0  0  0  0  0  0  0  0
    2.2633    0.2884   -0.8022 N   0  0  0  0  0  0  0  0  0  0  0  0
    2.9928   -0.2980   -1.9144 C   0  0  0  0  0  0  0  0  0  0  0  0
    4.2793   -0.9781   -1.4485 C   0  0  0  0  0  0  0  0  0  0  0  0
    5.1290    0.0217   -0.8752 O   0  0  0  0  0  0  0  0  0  0  0  0
    6.3570   -0.3846   -0.4276 C   0  0  0  0  0  0  0  0  0  0  0  0
    6.8347   -1.7088   -0.4280 C   0  0  0  0  0  0  0  0  0  0  0  0
    8.1151   -2.0061    0.0571 C   0  0  0  0  0  0  0  0  0  0  0  0
    8.8826   -0.9651    0.5308 C   0  0  0  0  0  0  0  0  0  0  0  0
   10.1411   -1.0678    1.0342 O   0  0  0  0  0  0  0  0  0  0  0  0
   10.4170    0.3110    1.3578 C   0  0  0  0  0  0  0  0  0  0  0  0
    9.3265    1.2026    1.0449 O   0  0  0  0  0  0  0  0  0  0  0  0
    8.4187    0.3274    0.5357 C   0  0  0  0  0  0  0  0  0  0  0  0
    7.1635    0.6483    0.0649 C   0  0  0  0  0  0  0  0  0  0  0  0
   -3.8625   -0.7612    1.0545 C   0  0  0  0  0  0  0  0  0  0  0  0
   -5.2173   -0.8581    1.0166 N   0  0  0  0  0  0  0  0  0  0  0  0
   -5.7989    0.1909    0.3973 C   0  0  0  0  0  0  0  0  0  0  0  0
   -8.6607    0.6261    2.4178 H   0  0  0  0  0  0  0  0  0  0  0  0
   -9.9449   -0.4922    1.9278 H   0  0  0  0  0  0  0  0  0  0  0  0
   -9.7164    1.0330    1.0580 H   0  0  0  0  0  0  0  0  0  0  0  0
   -7.7589   -1.3218    1.1577 H   0  0  0  0  0  0  0  0  0  0  0  0
   -9.4578   -0.3054   -1.1835 H   0  0  0  0  0  0  0  0  0  0  0  0
   -8.2501   -1.5942   -1.2693 H   0  0  0  0  0  0  0  0  0  0  0  0
   -9.7050   -1.8091   -0.2808 H   0  0  0  0  0  0  0  0  0  0  0  0
   -6.1405    3.0229   -1.2057 H   0  0  0  0  0  0  0  0  0  0  0  0
   -3.2197    2.1847   -0.5298 H   0  0  0  0  0  0  0  0  0  0  0  0
    0.7062    2.4009    0.2221 H   0  0  0  0  0  0  0  0  0  0  0  0
    0.7554    0.9449    1.2236 H   0  0  0  0  0  0  0  0  0  0  0  0
    2.8175    0.7502   -0.0899 H   0  0  0  0  0  0  0  0  0  0  0  0
    3.2209    0.5213   -2.6049 H   0  0  0  0  0  0  0  0  0  0  0  0
    2.3480   -1.0173   -2.4297 H   0  0  0  0  0  0  0  0  0  0  0  0
    4.7710   -1.4372   -2.3138 H   0  0  0  0  0  0  0  0  0  0  0  0
    4.0394   -1.7409   -0.6982 H   0  0  0  0  0  0  0  0  0  0  0  0
    6.2322   -2.5326   -0.7981 H   0  0  0  0  0  0  0  0  0  0  0  0
    8.4925   -3.0226    0.0609 H   0  0  0  0  0  0  0  0  0  0  0  0
   10.6321    0.3826    2.4302 H   0  0  0  0  0  0  0  0  0  0  0  0
   11.3037    0.6319    0.7993 H   0  0  0  0  0  0  0  0  0  0  0  0
    6.8153    1.6746    0.0741 H   0  0  0  0  0  0  0  0  0  0  0  0
   -3.3765   -1.6040    1.5453 H   0  0  0  0  0  0  0  0  0  0  0  0
  1  2  1  0
  2  3  1  0
  2  4  1  0
  4  5  1  0
  5  6  2  0
  6  7  1  0
  7  8  1  0
  8  9  2  0
  9 10  1  0
 10 11  2  0
 10 12  1  0
 12 13  1  0
 13 14  1  0
 14 15  2  0
 14 16  1  0
 16 17  1  0
 17 18  1  0
 18 19  1  0
 19 20  1  0
 20 21  1  0
 21 22  2  0
 22 23  1  0
 23 24  1  0
 24 25  1  0
 25 26  1  0
 26 27  1  0
 27 28  1  0
  9 29  1  0
 29 30  2  0
 30 31  1  0
 31  4  1  0
 31  7  2  0
 28 20  2  0
 27 23  2  0
  1 32  1  0
  1 33  1  0
  1 34  1  0
  2 35  1  0
  3 36  1  0
  3 37  1  0
  3 38  1  0
  6 39  1  0
  8 40  1  0
 13 41  1  0
 13 42  1  0
 16 43  1  0
 17 44  1  0
 17 45  1  0
 18 46  1  0
 18 47  1  0
 21 48  1  0
 22 49  1  0
 25 50  1  0
 25 51  1  0
 28 52  1  0
 29 53  1  0
M  END
$$$$
OCNT-2314559
     RDKit          3D

 55 59  0  0  0  0  0  0  0  0999 V2000
    3.8458    2.1122    1.7677 C   0  0  0  0  0  0  0  0  0  0  0  0
    4.3193    1.5490    0.5074 N   0  0  0  0  0  0  0  0  0  0  0  0
    3.7899    2.0999   -0.7496 C   0  0  0  0  0  0  0  0  0  0  0  0
    2.5454    1.3899   -1.3281 C   0  0  0  0  0  0  0  0  0  0  0  0
    1.4071    1.2086   -0.3035 C   0  0  0  0  0  0  0  0  0  0  0  0
    0.2319    0.6644   -0.9911 N   0  0  0  0  0  0  0  0  0  0  0  0
   -0.9403    0.5638   -0.2674 C   0  0  0  0  0  0  0  0  0  0  0  0
   -1.9690   -0.1008   -0.8022 N   0  0  0  0  0  0  0  0  0  0  0  0
   -3.1187   -0.1826   -0.0959 C   0  0  0  0  0  0  0  0  0  0  0  0
   -4.1637   -0.9719   -0.7691 C   0  0  0  0  0  0  0  0  0  0  0  0
   -4.6906   -0.5519   -2.0018 C   0  0  0  0  0  0  0  0  0  0  0  0
   -5.6797   -1.2946   -2.6515 C   0  0  0  0  0  0  0  0  0  0  0  0
   -6.1519   -2.4749   -2.0816 C   0  0  0  0  0  0  0  0  0  0  0  0
   -5.6315   -2.9171   -0.8673 C   0  0  0  0  0  0  0  0  0  0  0  0
   -4.6414   -2.1741   -0.2190 C   0  0  0  0  0  0  0  0  0  0  0  0
   -3.2867    0.4255    1.1536 C   0  0  0  0  0  0  0  0  0  0  0  0
   -4.4729    0.4226    1.9354 C   0  0  0  0  0  0  0  0  0  0  0  0
   -4.5141    1.0623    3.1717 C   0  0  0  0  0  0  0  0  0  0  0  0
   -3.3806    1.7129    3.6374 C   0  0  0  0  0  0  0  0  0  0  0  0
   -2.2200    1.7246    2.8590 C   0  0  0  0  0  0  0  0  0  0  0  0
   -2.1553    1.0959    1.6208 C   0  0  0  0  0  0  0  0  0  0  0  0
   -1.0133    1.1639    0.9291 N   0  0  0  0  0  0  0  0  0  0  0  0
    0.4928   -0.3411   -2.0273 C   0  0  0  0  0  0  0  0  0  0  0  0
    1.9359   -0.8632   -1.9185 C   0  0  0  0  0  0  0  0  0  0  0  0
    2.9283    0.1698   -2.0033 O   0  0  0  0  0  0  0  0  0  0  0  0
    4.8592    0.2685    0.5873 C   0  0  0  0  0  0  0  0  0  0  0  0
    5.4907   -0.3437   -0.4901 C   0  0  0  0  0  0  0  0  0  0  0  0
    6.0289   -1.6236   -0.3645 C   0  0  0  0  0  0  0  0  0  0  0  0
    5.9290   -2.2568    0.8522 C   0  0  0  0  0  0  0  0  0  0  0  0
    5.3350   -1.6737    1.9030 N   0  0  0  0  0  0  0  0  0  0  0  0
    4.8092   -0.4066    1.7617 N   0  0  0  0  0  0  0  0  0  0  0  0
    2.9941    1.5522    2.1687 H   0  0  0  0  0  0  0  0  0  0  0  0
    3.5261    3.1524    1.6386 H   0  0  0  0  0  0  0  0  0  0  0  0
    4.6462    2.1234    2.5169 H   0  0  0  0  0  0  0  0  0  0  0  0
    4.5862    2.1170   -1.5033 H   0  0  0  0  0  0  0  0  0  0  0  0
    3.5306    3.1536   -0.5840 H   0  0  0  0  0  0  0  0  0  0  0  0
    2.1701    2.0392   -2.1316 H   0  0  0  0  0  0  0  0  0  0  0  0
    1.1774    2.1827    0.1452 H   0  0  0  0  0  0  0  0  0  0  0  0
    1.7079    0.5137    0.4893 H   0  0  0  0  0  0  0  0  0  0  0  0
   -4.3215    0.3630   -2.4625 H   0  0  0  0  0  0  0  0  0  0  0  0
   -6.0746   -0.9536   -3.6049 H   0  0  0  0  0  0  0  0  0  0  0  0
   -6.9185   -3.0547   -2.5890 H   0  0  0  0  0  0  0  0  0  0  0  0
   -5.9893   -3.8448   -0.4278 H   0  0  0  0  0  0  0  0  0  0  0  0
   -4.2334   -2.5443    0.7199 H   0  0  0  0  0  0  0  0  0  0  0  0
   -5.3723   -0.0726    1.5755 H   0  0  0  0  0  0  0  0  0  0  0  0
   -5.4256    1.0542    3.7637 H   0  0  0  0  0  0  0  0  0  0  0  0
   -3.3930    2.2169    4.6001 H   0  0  0  0  0  0  0  0  0  0  0  0
   -1.3381    2.2433    3.2295 H   0  0  0  0  0  0  0  0  0  0  0  0
    0.3522    0.1371   -3.0035 H   0  0  0  0  0  0  0  0  0  0  0  0
   -0.1798   -1.2045   -1.9731 H   0  0  0  0  0  0  0  0  0  0  0  0
    2.1373   -1.5766   -2.7241 H   0  0  0  0  0  0  0  0  0  0  0  0
    2.0829   -1.3958   -0.9708 H   0  0  0  0  0  0  0  0  0  0  0  0
    5.5784    0.1598   -1.4451 H   0  0  0  0  0  0  0  0  0  0  0  0
    6.5148   -2.1050   -1.2050 H   0  0  0  0  0  0  0  0  0  0  0  0
    6.3232   -3.2508    1.0226 H   0  0  0  0  0  0  0  0  0  0  0  0
  1  2  1  0
  2  3  1  0
  3  4  1  0
  4  5  1  0
  5  6  1  0
  6  7  1  0
  7  8  2  0
  8  9  1  0
  9 10  1  0
 10 11  2  0
 11 12  1  0
 12 13  2  0
 13 14  1  0
 14 15  2  0
  9 16  2  0
 16 17  1  0
 17 18  2  0
 18 19  1  0
 19 20  2  0
 20 21  1  0
 21 22  2  0
  6 23  1  0
 23 24  1  0
 24 25  1  0
  2 26  1  0
 26 27  2  0
 27 28  1  0
 28 29  2  0
 29 30  1  0
 30 31  2  0
 25  4  1  0
 31 26  1  0
 22  7  1  0
 15 10  1  0
 21 16  1  0
  1 32  1  0
  1 33  1  0
  1 34  1  0
  3 35  1  0
  3 36  1  0
  4 37  1  0
  5 38  1  0
  5 39  1  0
 11 40  1  0
 12 41  1  0
 13 42  1  0
 14 43  1  0
 15 44  1  0
 17 45  1  0
 18 46  1  0
 19 47  1  0
 20 48  1  0
 23 49  1  0
 23 50  1  0
 24 51  1  0
 24 52  1  0
 27 53  1  0
 28 54  1  0
 29 55  1  0
M  END
$$$$
OCNT-2314584
     RDKit          3D

 48 50  0  0  0  0  0  0  0  0999 V2000
   -5.6149    0.6114    0.5990 C   0  0  0  0  0  0  0  0  0  0  0  0
   -4.5178   -0.0611   -0.2195 C   0  0  0  0  0  0  0  0  0  0  0  0
   -3.0808    0.5307   -0.0532 C   0  0  0  0  0  0  0  0  0  0  0  0
   -2.6445    0.5882    1.4319 C   0  0  0  0  0  0  0  0  0  0  0  0
   -2.6434   -0.7550    2.1526 C   0  0  0  0  0  0  0  0  0  0  0  0
   -3.0004    1.9347   -0.6827 C   0  0  0  0  0  0  0  0  0  0  0  0
   -2.7648    1.6944   -2.0739 N   0  0  0  0  0  0  0  0  0  0  0  0
   -2.1715    0.4681   -2.3014 C   0  0  0  0  0  0  0  0  0  0  0  0
   -1.6727    0.1380   -3.3639 O   0  0  0  0  0  0  0  0  0  0  0  0
   -2.1092   -0.2870   -0.9676 C   0  0  0  0  0  0  0  0  0  0  0  0
   -0.7120   -0.2707   -0.5459 N   0  0  0  0  0  0  0  0  0  0  0  0
    0.0809   -1.3876   -0.7132 C   0  0  0  0  0  0  0  0  0  0  0  0
   -0.3885   -2.4830   -1.0020 O   0  0  0  0  0  0  0  0  0  0  0  0
    1.4937   -1.1594   -0.5131 C   0  0  0  0  0  0  0  0  0  0  0  0
    2.1763   -0.1026    0.0671 C   0  0  0  0  0  0  0  0  0  0  0  0
    3.5593   -0.4231    0.0039 C   0  0  0  0  0  0  0  0  0  0  0  0
    4.7041    0.3589    0.4833 C   0  0  0  0  0  0  0  0  0  0  0  0
    4.5301    1.5175    1.2447 C   0  0  0  0  0  0  0  0  0  0  0  0
    5.6544    2.2117    1.6653 C   0  0  0  0  0  0  0  0  0  0  0  0
    6.9192    1.8385    1.3840 N   0  0  0  0  0  0  0  0  0  0  0  0
    7.0683    0.7157    0.6509 C   0  0  0  0  0  0  0  0  0  0  0  0
    6.0096   -0.0455    0.1857 C   0  0  0  0  0  0  0  0  0  0  0  0
    3.7254   -1.6136   -0.5885 N   0  0  0  0  0  0  0  0  0  0  0  0
    2.4819   -2.0396   -0.8778 N   0  0  0  0  0  0  0  0  0  0  0  0
    2.3193   -3.3163   -1.5381 C   0  0  0  0  0  0  0  0  0  0  0  0
   -5.7035    1.6761    0.3690 H   0  0  0  0  0  0  0  0  0  0  0  0
   -6.5801    0.1451    0.3736 H   0  0  0  0  0  0  0  0  0  0  0  0
   -5.4455    0.5012    1.6735 H   0  0  0  0  0  0  0  0  0  0  0  0
   -4.5060   -1.1269    0.0416 H   0  0  0  0  0  0  0  0  0  0  0  0
   -4.8157   -0.0206   -1.2753 H   0  0  0  0  0  0  0  0  0  0  0  0
   -1.6381    1.0188    1.5104 H   0  0  0  0  0  0  0  0  0  0  0  0
   -3.2929    1.2808    1.9823 H   0  0  0  0  0  0  0  0  0  0  0  0
   -2.2555   -0.6298    3.1690 H   0  0  0  0  0  0  0  0  0  0  0  0
   -3.6522   -1.1685    2.2373 H   0  0  0  0  0  0  0  0  0  0  0  0
   -2.0130   -1.4894    1.6443 H   0  0  0  0  0  0  0  0  0  0  0  0
   -3.9022    2.5392   -0.5682 H   0  0  0  0  0  0  0  0  0  0  0  0
   -2.1460    2.5075   -0.3047 H   0  0  0  0  0  0  0  0  0  0  0  0
   -2.7496    2.4003   -2.8013 H   0  0  0  0  0  0  0  0  0  0  0  0
   -2.4638   -1.3116   -1.1180 H   0  0  0  0  0  0  0  0  0  0  0  0
   -0.2380    0.6204   -0.5816 H   0  0  0  0  0  0  0  0  0  0  0  0
    1.7349    0.7837    0.4973 H   0  0  0  0  0  0  0  0  0  0  0  0
    3.5506    1.8861    1.5225 H   0  0  0  0  0  0  0  0  0  0  0  0
    5.5629    3.1158    2.2607 H   0  0  0  0  0  0  0  0  0  0  0  0
    8.0949    0.4317    0.4383 H   0  0  0  0  0  0  0  0  0  0  0  0
    6.2031   -0.9390   -0.3999 H   0  0  0  0  0  0  0  0  0  0  0  0
    1.8096   -3.9970   -0.8523 H   0  0  0  0  0  0  0  0  0  0  0  0
    1.7411   -3.1666   -2.4530 H   0  0  0  0  0  0  0  0  0  0  0  0
    3.3028   -3.7206   -1.7933 H   0  0  0  0  0  0  0  0  0  0  0  0
  1  2  1  0
  2  3  1  0
  3  4  1  0
  4  5  1  0
  3  6  1  0
  6  7  1  0
  7  8  1  0
  8  9  2  0
  8 10  1  0
 10 11  1  0
 11 12  1  0
 12 13  2  0
 12 14  1  0
 14 15  2  0
 15 16  1  0
 16 17  1  0
 17 18  2  0
 18 19  1  0
 19 20  2  0
 20 21  1  0
 21 22  2  0
 16 23  2  0
 23 24  1  0
 24 25  1  0
 10  3  1  0
 24 14  1  0
 22 17  1  0
  1 26  1  0
  1 27  1  0
  1 28  1  0
  2 29  1  0
  2 30  1  0
  4 31  1  0
  4 32  1  0
  5 33  1  0
  5 34  1  0
  5 35  1  0
  6 36  1  0
  6 37  1  0
  7 38  1  0
 10 39  1  0
 11 40  1  0
 15 41  1  0
 18 42  1  0
 19 43  1  0
 21 44  1  0
 22 45  1  0
 25 46  1  0
 25 47  1  0
 25 48  1  0
M  END
$$$$
OCNT-2314588
     RDKit          3D

 46 49  0  0  0  0  0  0  0  0999 V2000
   -5.6733    1.4221   -2.7174 F   0  0  0  0  0  0  0  0  0  0  0  0
   -4.8550    0.9947   -1.7469 C   0  0  0  0  0  0  0  0  0  0  0  0
   -5.2031   -0.1234   -1.0006 C   0  0  0  0  0  0  0  0  0  0  0  0
   -4.3508   -0.5689    0.0113 C   0  0  0  0  0  0  0  0  0  0  0  0
   -3.1465    0.1019    0.2777 C   0  0  0  0  0  0  0  0  0  0  0  0
   -2.2213   -0.3839    1.3736 C   0  0  0  0  0  0  0  0  0  0  0  0
   -1.3063   -1.5126    0.9185 C   0  0  0  0  0  0  0  0  0  0  0  0
   -0.2276   -1.1176   -0.0827 C   0  0  0  0  0  0  0  0  0  0  0  0
    1.1265   -1.1913    0.4651 N   0  0  0  0  0  0  0  0  0  0  0  0
    1.4515   -0.1590    1.4453 C   0  0  0  0  0  0  0  0  0  0  0  0
    1.5762    1.1935    0.8239 C   0  0  0  0  0  0  0  0  0  0  0  0
    0.8202    2.3070    1.1390 C   0  0  0  0  0  0  0  0  0  0  0  0
    1.2530    3.3112    0.3324 N   0  0  0  0  0  0  0  0  0  0  0  0
    2.2325    2.9417   -0.4985 N   0  0  0  0  0  0  0  0  0  0  0  0
    2.4762    1.6568   -0.1930 C   0  0  0  0  0  0  0  0  0  0  0  0
    3.5230    0.9267   -0.8979 C   0  0  0  0  0  0  0  0  0  0  0  0
    4.4338    0.1018   -0.2348 C   0  0  0  0  0  0  0  0  0  0  0  0
    5.4015   -0.5875   -0.9645 C   0  0  0  0  0  0  0  0  0  0  0  0
    5.4302   -0.4254   -2.3402 C   0  0  0  0  0  0  0  0  0  0  0  0
    4.5763    0.3696   -3.0179 N   0  0  0  0  0  0  0  0  0  0  0  0
    3.6514    1.0351   -2.2798 C   0  0  0  0  0  0  0  0  0  0  0  0
   -0.9923   -2.6051    1.9399 C   0  0  0  0  0  0  0  0  0  0  0  0
   -1.9003   -2.9129    0.7958 C   0  0  0  0  0  0  0  0  0  0  0  0
   -2.8196    1.2341   -0.4864 C   0  0  0  0  0  0  0  0  0  0  0  0
   -3.6717    1.6779   -1.4990 C   0  0  0  0  0  0  0  0  0  0  0  0
   -6.1338   -0.6407   -1.2097 H   0  0  0  0  0  0  0  0  0  0  0  0
   -4.6353   -1.4414    0.5944 H   0  0  0  0  0  0  0  0  0  0  0  0
   -1.6195    0.4519    1.7483 H   0  0  0  0  0  0  0  0  0  0  0  0
   -2.8349   -0.7016    2.2273 H   0  0  0  0  0  0  0  0  0  0  0  0
   -0.2743   -1.8146   -0.9287 H   0  0  0  0  0  0  0  0  0  0  0  0
   -0.4101   -0.1330   -0.5211 H   0  0  0  0  0  0  0  0  0  0  0  0
    1.7926   -1.1500   -0.3043 H   0  0  0  0  0  0  0  0  0  0  0  0
    0.7170   -0.1469    2.2585 H   0  0  0  0  0  0  0  0  0  0  0  0
    2.4020   -0.4210    1.9223 H   0  0  0  0  0  0  0  0  0  0  0  0
    0.0254    2.4625    1.8546 H   0  0  0  0  0  0  0  0  0  0  0  0
    0.9246    4.2708    0.2901 H   0  0  0  0  0  0  0  0  0  0  0  0
    4.4140    0.0010    0.8459 H   0  0  0  0  0  0  0  0  0  0  0  0
    6.1201   -1.2317   -0.4700 H   0  0  0  0  0  0  0  0  0  0  0  0
    6.1656   -0.9420   -2.9505 H   0  0  0  0  0  0  0  0  0  0  0  0
    2.9872    1.6761   -2.8549 H   0  0  0  0  0  0  0  0  0  0  0  0
   -0.0122   -3.0706    1.9356 H   0  0  0  0  0  0  0  0  0  0  0  0
   -1.4261   -2.5336    2.9309 H   0  0  0  0  0  0  0  0  0  0  0  0
   -2.9470   -3.0737    1.0235 H   0  0  0  0  0  0  0  0  0  0  0  0
   -1.5249   -3.5726    0.0204 H   0  0  0  0  0  0  0  0  0  0  0  0
   -1.8952    1.7758   -0.3011 H   0  0  0  0  0  0  0  0  0  0  0  0
   -3.4196    2.5487   -2.0953 H   0  0  0  0  0  0  0  0  0  0  0  0
  1  2  1  0
  2  3  1  0
  3  4  2  0
  4  5  1  0
  5  6  1  0
  6  7  1  0
  7  8  1  0
  8  9  1  0
  9 10  1  0
 10 11  1  0
 11 12  2  0
 12 13  1  0
 13 14  1  0
 14 15  2  0
 15 16  1  0
 16 17  1  0
 17 18  2  0
 18 19  1  0
 19 20  2  0
 20 21  1  0
  7 22  1  0
 22 23  1  0
  5 24  2  0
 24 25  1  0
 25  2  2  0
 23  7  1  0
 15 11  1  0
 21 16  2  0
  3 26  1  0
  4 27  1  0
  6 28  1  0
  6 29  1  0
  8 30  1  0
  8 31  1  0
  9 32  1  0
 10 33  1  0
 10 34  1  0
 12 35  1  0
 13 36  1  0
 17 37  1  0
 18 38  1  0
 19 39  1  0
 21 40  1  0
 22 41  1  0
 22 42  1  0
 23 43  1  0
 23 44  1  0
 24 45  1  0
 25 46  1  0
M  END
$$$$
OCNT-2314592
     RDKit          3D

 46 48  0  0  0  0  0  0  0  0999 V2000
    6.9577    1.0024    1.5630 C   0  0  0  0  0  0  0  0  0  0  0  0
    5.9836    0.6499    0.5614 N   0  0  0  0  0  0  0  0  0  0  0  0
    4.6378    0.5887    0.8681 C   0  0  0  0  0  0  0  0  0  0  0  0
    4.1807    0.9018    1.9631 O   0  0  0  0  0  0  0  0  0  0  0  0
    3.8005    0.0753   -0.2883 C   0  0  0  0  0  0  0  0  0  0  0  0
    2.2880    0.1288   -0.0191 C   0  0  0  0  0  0  0  0  0  0  0  0
    1.7680    1.5731   -0.0243 C   0  0  0  0  0  0  0  0  0  0  0  0
    1.6197   -0.6256   -1.1022 N   0  0  0  0  0  0  0  0  0  0  0  0
    0.9203   -1.8233   -0.6102 C   0  0  0  0  0  0  0  0  0  0  0  0
   -0.3466   -1.4649    0.0929 C   0  0  0  0  0  0  0  0  0  0  0  0
   -1.5091   -0.8676   -0.3666 C   0  0  0  0  0  0  0  0  0  0  0  0
   -1.7952   -0.4762   -1.8426 C   0  0  0  0  0  0  0  0  0  0  0  0
   -2.9937   -1.0685   -2.5420 C   0  0  0  0  0  0  0  0  0  0  0  0
   -1.6183   -1.5018   -2.9347 C   0  0  0  0  0  0  0  0  0  0  0  0
   -2.2964   -0.7078    0.7662 N   0  0  0  0  0  0  0  0  0  0  0  0
   -3.5297   -0.0255    0.9659 C   0  0  0  0  0  0  0  0  0  0  0  0
   -4.2221   -0.2062    2.1755 C   0  0  0  0  0  0  0  0  0  0  0  0
   -5.4340    0.4490    2.4058 C   0  0  0  0  0  0  0  0  0  0  0  0
   -5.9635    1.2964    1.4383 C   0  0  0  0  0  0  0  0  0  0  0  0
   -5.2766    1.4970    0.2444 C   0  0  0  0  0  0  0  0  0  0  0  0
   -4.0630    0.8435    0.0085 C   0  0  0  0  0  0  0  0  0  0  0  0
   -1.6886   -1.3388    1.8067 N   0  0  0  0  0  0  0  0  0  0  0  0
   -0.4926   -1.7545    1.4200 N   0  0  0  0  0  0  0  0  0  0  0  0
    7.8829    1.3022    1.0610 H   0  0  0  0  0  0  0  0  0  0  0  0
    6.5869    1.8223    2.1828 H   0  0  0  0  0  0  0  0  0  0  0  0
    7.1432    0.1250    2.1910 H   0  0  0  0  0  0  0  0  0  0  0  0
    6.3068    0.1887   -0.2795 H   0  0  0  0  0  0  0  0  0  0  0  0
    4.1094   -0.9649   -0.4583 H   0  0  0  0  0  0  0  0  0  0  0  0
    4.0529    0.6511   -1.1896 H   0  0  0  0  0  0  0  0  0  0  0  0
    2.0749   -0.3051    0.9676 H   0  0  0  0  0  0  0  0  0  0  0  0
    0.6829    1.5986    0.1187 H   0  0  0  0  0  0  0  0  0  0  0  0
    1.9962    2.0803   -0.9693 H   0  0  0  0  0  0  0  0  0  0  0  0
    2.2142    2.1580    0.7844 H   0  0  0  0  0  0  0  0  0  0  0  0
    0.9463   -0.0354   -1.5872 H   0  0  0  0  0  0  0  0  0  0  0  0
    0.6907   -2.4643   -1.4681 H   0  0  0  0  0  0  0  0  0  0  0  0
    1.5778   -2.4153    0.0388 H   0  0  0  0  0  0  0  0  0  0  0  0
   -1.5226    0.5426   -2.0930 H   0  0  0  0  0  0  0  0  0  0  0  0
   -3.6131   -1.7818   -2.0122 H   0  0  0  0  0  0  0  0  0  0  0  0
   -3.5443   -0.4411   -3.2325 H   0  0  0  0  0  0  0  0  0  0  0  0
   -1.3348   -2.5156   -2.6825 H   0  0  0  0  0  0  0  0  0  0  0  0
   -1.2324   -1.1634   -3.8891 H   0  0  0  0  0  0  0  0  0  0  0  0
   -3.8361   -0.8647    2.9525 H   0  0  0  0  0  0  0  0  0  0  0  0
   -5.9625    0.2959    3.3437 H   0  0  0  0  0  0  0  0  0  0  0  0
   -6.9053    1.8076    1.6176 H   0  0  0  0  0  0  0  0  0  0  0  0
   -5.6855    2.1679   -0.5049 H   0  0  0  0  0  0  0  0  0  0  0  0
   -3.5553    1.0659   -0.9195 H   0  0  0  0  0  0  0  0  0  0  0  0
  1  2  1  0
  2  3  1  0
  3  4  2  0
  3  5  1  0
  5  6  1  0
  6  7  1  0
  6  8  1  0
  8  9  1  0
  9 10  1  0
 10 11  2  0
 11 12  1  0
 12 13  1  0
 13 14  1  0
 11 15  1  0
 15 16  1  0
 16 17  2  0
 17 18  1  0
 18 19  2  0
 19 20  1  0
 20 21  2  0
 15 22  1  0
 22 23  2  0
 23 10  1  0
 14 12  1  0
 21 16  1  0
  1 24  1  0
  1 25  1  0
  1 26  1  0
  2 27  1  0
  5 28  1  0
  5 29  1  0
  6 30  1  0
  7 31  1  0
  7 32  1  0
  7 33  1  0
  8 34  1  0
  9 35  1  0
  9 36  1  0
 12 37  1  0
 13 38  1  0
 13 39  1  0
 14 40  1  0
 14 41  1  0
 17 42  1  0
 18 43  1  0
 19 44  1  0
 20 45  1  0
 21 46  1  0
M  END
$$$$
OCNT-2314594
     RDKit          3D

 57 58  0  0  0  0  0  0  0  0999 V2000
    7.7081    1.5343    1.0076 C   0  0  0  0  0  0  0  0  0  0  0  0
    6.7643    1.3720   -0.0405 O   0  0  0  0  0  0  0  0  0  0  0  0
    5.4336    1.4941    0.2746 C   0  0  0  0  0  0  0  0  0  0  0  0
    4.9446    1.7308    1.5632 C   0  0  0  0  0  0  0  0  0  0  0  0
    3.5701    1.8352    1.7919 C   0  0  0  0  0  0  0  0  0  0  0  0
    2.6626    1.7087    0.7358 C   0  0  0  0  0  0  0  0  0  0  0  0
    1.1772    1.8214    0.9811 C   0  0  0  0  0  0  0  0  0  0  0  0
    0.5575    0.6134    1.7030 C   0  0  0  0  0  0  0  0  0  0  0  0
    0.4075   -0.5857    0.8684 N   0  0  0  0  0  0  0  0  0  0  0  0
    1.5554   -1.4763    0.7690 C   0  0  0  0  0  0  0  0  0  0  0  0
   -0.6040   -0.7516   -0.0891 C   0  0  0  0  0  0  0  0  0  0  0  0
   -0.4977   -1.5978   -0.9799 O   0  0  0  0  0  0  0  0  0  0  0  0
   -1.8418    0.1599    0.0532 C   0  0  0  0  0  0  0  0  0  0  0  0
   -2.8898   -0.1676   -0.9247 N   0  0  0  0  0  0  0  0  0  0  0  0
   -4.0043    0.7869   -0.8344 C   0  0  0  0  0  0  0  0  0  0  0  0
   -4.9384   -0.3075   -0.2625 C   0  0  0  0  0  0  0  0  0  0  0  0
   -6.2498   -0.4549   -1.0418 C   0  0  0  0  0  0  0  0  0  0  0  0
   -5.2588   -0.0850    1.2224 C   0  0  0  0  0  0  0  0  0  0  0  0
   -3.7721   -1.3251   -0.6140 C   0  0  0  0  0  0  0  0  0  0  0  0
   -3.3549   -2.2776    0.5112 C   0  0  0  0  0  0  0  0  0  0  0  0
   -3.9535   -2.1429   -1.9077 C   0  0  0  0  0  0  0  0  0  0  0  0
    3.1529    1.4775   -0.5583 C   0  0  0  0  0  0  0  0  0  0  0  0
    4.5281    1.3582   -0.7958 C   0  0  0  0  0  0  0  0  0  0  0  0
    5.0814    1.1218   -2.0305 O   0  0  0  0  0  0  0  0  0  0  0  0
    4.1983    0.7774   -3.0890 C   0  0  0  0  0  0  0  0  0  0  0  0
    7.6447    2.5356    1.4462 H   0  0  0  0  0  0  0  0  0  0  0  0
    7.5874    0.7587    1.7710 H   0  0  0  0  0  0  0  0  0  0  0  0
    8.7082    1.4233    0.5776 H   0  0  0  0  0  0  0  0  0  0  0  0
    5.6087    1.8386    2.4140 H   0  0  0  0  0  0  0  0  0  0  0  0
    3.2171    2.0225    2.8037 H   0  0  0  0  0  0  0  0  0  0  0  0
    1.0096    2.7189    1.5909 H   0  0  0  0  0  0  0  0  0  0  0  0
    0.6590    2.0061    0.0329 H   0  0  0  0  0  0  0  0  0  0  0  0
    1.1313    0.3433    2.5973 H   0  0  0  0  0  0  0  0  0  0  0  0
   -0.4340    0.9073    2.0601 H   0  0  0  0  0  0  0  0  0  0  0  0
    2.0878   -1.5132    1.7232 H   0  0  0  0  0  0  0  0  0  0  0  0
    1.2256   -2.4896    0.5186 H   0  0  0  0  0  0  0  0  0  0  0  0
    2.2209   -1.1269   -0.0230 H   0  0  0  0  0  0  0  0  0  0  0  0
   -2.2059    0.1369    1.0834 H   0  0  0  0  0  0  0  0  0  0  0  0
   -1.4965    1.1784   -0.1588 H   0  0  0  0  0  0  0  0  0  0  0  0
   -3.8497    1.6607   -0.1892 H   0  0  0  0  0  0  0  0  0  0  0  0
   -4.3034    1.1713   -1.8177 H   0  0  0  0  0  0  0  0  0  0  0  0
   -6.9215    0.3868   -0.8386 H   0  0  0  0  0  0  0  0  0  0  0  0
   -6.7680   -1.3763   -0.7552 H   0  0  0  0  0  0  0  0  0  0  0  0
   -6.0924   -0.4783   -2.1243 H   0  0  0  0  0  0  0  0  0  0  0  0
   -5.9345    0.7683    1.3506 H   0  0  0  0  0  0  0  0  0  0  0  0
   -4.3654    0.1263    1.8167 H   0  0  0  0  0  0  0  0  0  0  0  0
   -5.7487   -0.9664    1.6500 H   0  0  0  0  0  0  0  0  0  0  0  0
   -3.1321   -1.7760    1.4561 H   0  0  0  0  0  0  0  0  0  0  0  0
   -4.1646   -2.9878    0.7176 H   0  0  0  0  0  0  0  0  0  0  0  0
   -2.4770   -2.8708    0.2349 H   0  0  0  0  0  0  0  0  0  0  0  0
   -3.0407   -2.7001   -2.1493 H   0  0  0  0  0  0  0  0  0  0  0  0
   -4.7660   -2.8694   -1.7966 H   0  0  0  0  0  0  0  0  0  0  0  0
   -4.1818   -1.5107   -2.7731 H   0  0  0  0  0  0  0  0  0  0  0  0
    2.4382    1.3838   -1.3706 H   0  0  0  0  0  0  0  0  0  0  0  0
    4.8067    0.5251   -3.9629 H   0  0  0  0  0  0  0  0  0  0  0  0
    3.5634    1.6267   -3.3614 H   0  0  0  0  0  0  0  0  0  0  0  0
    3.5975   -0.1030   -2.8372 H   0  0  0  0  0  0  0  0  0  0  0  0
  1  2  1  0
  2  3  1  0
  3  4  1  0
  4  5  2  0
  5  6  1  0
  6  7  1  0
  7  8  1  0
  8  9  1  0
  9 10  1  0
  9 11  1  0
 11 12  2  0
 11 13  1  0
 13 14  1  0
 14 15  1  0
 15 16  1  0
 16 17  1  0
 16 18  1  0
 16 19  1  0
 19 20  1  0
 19 21  1  0
  6 22  2  0
 22 23  1  0
 23 24  1  0
 24 25  1  0
 23  3  2  0
 19 14  1  0
  1 26  1  0
  1 27  1  0
  1 28  1  0
  4 29  1  0
  5 30  1  0
  7 31  1  0
  7 32  1  0
  8 33  1  0
  8 34  1  0
 10 35  1  0
 10 36  1  0
 10 37  1  0
 13 38  1  0
 13 39  1  0
 15 40  1  0
 15 41  1  0
 17 42  1  0
 17 43  1  0
 17 44  1  0
 18 45  1  0
 18 46  1  0
 18 47  1  0
 20 48  1  0
 20 49  1  0
 20 50  1  0
 21 51  1  0
 21 52  1  0
 21 53  1  0
 22 54  1  0
 25 55  1  0
 25 56  1  0
 25 57  1  0
M  END
$$$$
OCNT-2314601
     RDKit          3D

 48 49  0  0  0  0  0  0  0  0999 V2000
    7.1790   -0.9050   -1.5331 C   0  0  0  0  0  0  0  0  0  0  0  0
    6.5692   -0.2269   -0.4388 O   0  0  0  0  0  0  0  0  0  0  0  0
    5.2059   -0.2238   -0.3546 C   0  0  0  0  0  0  0  0  0  0  0  0
    4.3864   -0.9165   -1.2558 C   0  0  0  0  0  0  0  0  0  0  0  0
    2.9903   -0.8848   -1.1468 C   0  0  0  0  0  0  0  0  0  0  0  0
    2.3760   -0.1602   -0.1331 C   0  0  0  0  0  0  0  0  0  0  0  0
    0.9799   -0.0735    0.0448 N   0  0  0  0  0  0  0  0  0  0  0  0
   -0.0072   -0.6769   -0.7202 C   0  0  0  0  0  0  0  0  0  0  0  0
    0.1688   -1.4017   -1.6926 O   0  0  0  0  0  0  0  0  0  0  0  0
   -1.3993   -0.3327   -0.2036 C   0  0  0  0  0  0  0  0  0  0  0  0
   -2.5019   -0.9983   -1.0318 C   0  0  0  0  0  0  0  0  0  0  0  0
   -3.9480   -0.7512   -0.5373 C   0  0  0  0  0  0  0  0  0  0  0  0
   -4.1516   -1.3473    0.8562 C   0  0  0  0  0  0  0  0  0  0  0  0
   -4.3188    0.7517   -0.6309 C   0  0  0  0  0  0  0  0  0  0  0  0
   -5.7083    1.1763   -0.4292 N   0  0  0  0  0  0  0  0  0  0  0  0
   -6.6754    0.4325   -1.2263 C   0  0  0  0  0  0  0  0  0  0  0  0
   -6.1190    1.2859    0.9624 C   0  0  0  0  0  0  0  0  0  0  0  0
    3.1841    0.5283    0.7771 C   0  0  0  0  0  0  0  0  0  0  0  0
    4.5960    0.5037    0.6823 C   0  0  0  0  0  0  0  0  0  0  0  0
    5.3321    1.2285    1.6607 N   0  0  0  0  0  0  0  0  0  0  0  0
    6.6820    1.3854    1.8616 C   0  0  0  0  0  0  0  0  0  0  0  0
    6.8887    2.1504    2.9107 N   0  0  0  0  0  0  0  0  0  0  0  0
    5.6502    2.4846    3.3780 N   0  0  0  0  0  0  0  0  0  0  0  0
    4.7004    1.9356    2.6370 N   0  0  0  0  0  0  0  0  0  0  0  0
    8.2607   -0.7580   -1.4547 H   0  0  0  0  0  0  0  0  0  0  0  0
    6.9852   -1.9808   -1.4844 H   0  0  0  0  0  0  0  0  0  0  0  0
    6.8563   -0.4834   -2.4904 H   0  0  0  0  0  0  0  0  0  0  0  0
    4.7971   -1.5063   -2.0710 H   0  0  0  0  0  0  0  0  0  0  0  0
    2.4153   -1.4449   -1.8786 H   0  0  0  0  0  0  0  0  0  0  0  0
    0.6647    0.4935    0.8234 H   0  0  0  0  0  0  0  0  0  0  0  0
   -1.4589   -0.6591    0.8407 H   0  0  0  0  0  0  0  0  0  0  0  0
   -1.5047    0.7566   -0.2351 H   0  0  0  0  0  0  0  0  0  0  0  0
   -2.3246   -2.0820   -1.0554 H   0  0  0  0  0  0  0  0  0  0  0  0
   -2.4219   -0.6624   -2.0745 H   0  0  0  0  0  0  0  0  0  0  0  0
   -4.5911   -1.3110   -1.2289 H   0  0  0  0  0  0  0  0  0  0  0  0
   -3.7508   -0.6947    1.6374 H   0  0  0  0  0  0  0  0  0  0  0  0
   -3.6617   -2.3224    0.9440 H   0  0  0  0  0  0  0  0  0  0  0  0
   -5.2131   -1.5149    1.0577 H   0  0  0  0  0  0  0  0  0  0  0  0
   -3.6796    1.3321    0.0448 H   0  0  0  0  0  0  0  0  0  0  0  0
   -4.0381    1.0937   -1.6369 H   0  0  0  0  0  0  0  0  0  0  0  0
   -6.7968   -0.6010   -0.8839 H   0  0  0  0  0  0  0  0  0  0  0  0
   -7.6572    0.9176   -1.1848 H   0  0  0  0  0  0  0  0  0  0  0  0
   -6.3797    0.4184   -2.2816 H   0  0  0  0  0  0  0  0  0  0  0  0
   -6.2665    0.3175    1.4467 H   0  0  0  0  0  0  0  0  0  0  0  0
   -7.0661    1.8341    1.0313 H   0  0  0  0  0  0  0  0  0  0  0  0
   -5.3892    1.8591    1.5445 H   0  0  0  0  0  0  0  0  0  0  0  0
    2.7044    1.0893    1.5763 H   0  0  0  0  0  0  0  0  0  0  0  0
    7.4567    0.9452    1.2572 H   0  0  0  0  0  0  0  0  0  0  0  0
  1  2  1  0
  2  3  1  0
  3  4  1  0
  4  5  2  0
  5  6  1  0
  6  7  1  0
  7  8  1  0
  8  9  2  0
  8 10  1  0
 10 11  1  0
 11 12  1  0
 12 13  1  0
 12 14  1  0
 14 15  1  0
 15 16  1  0
 15 17  1  0
  6 18  2  0
 18 19  1  0
 19 20  1  0
 20 21  1  0
 21 22  2  0
 22 23  1  0
 23 24  2  0
 19  3  2  0
 24 20  1  0
  1 25  1  0
  1 26  1  0
  1 27  1  0
  4 28  1  0
  5 29  1  0
  7 30  1  0
 10 31  1  0
 10 32  1  0
 11 33  1  0
 11 34  1  0
 12 35  1  0
 13 36  1  0
 13 37  1  0
 13 38  1  0
 14 39  1  0
 14 40  1  0
 16 41  1  0
 16 42  1  0
 16 43  1  0
 17 44  1  0
 17 45  1  0
 17 46  1  0
 18 47  1  0
 21 48  1  0
M  END
$$$$
OCNT-2314602
     RDKit          3D

 44 47  0  0  0  0  0  0  0  0999 V2000
    2.3241    1.7929    1.0100 C   0  0  0  0  0  0  0  0  0  0  0  0
    2.0000    1.2781   -0.3400 C   0  0  0  0  0  0  0  0  0  0  0  0
    0.8365    0.7265   -0.8542 C   0  0  0  0  0  0  0  0  0  0  0  0
   -0.4428    0.4962   -0.1810 C   0  0  0  0  0  0  0  0  0  0  0  0
   -0.6117    0.7861    0.9982 O   0  0  0  0  0  0  0  0  0  0  0  0
   -1.3758   -0.0666   -1.0322 N   0  0  0  0  0  0  0  0  0  0  0  0
   -2.7074   -0.4307   -0.7547 C   0  0  0  0  0  0  0  0  0  0  0  0
   -3.4417   -0.9836   -1.8091 C   0  0  0  0  0  0  0  0  0  0  0  0
   -4.7749   -1.3821   -1.6398 C   0  0  0  0  0  0  0  0  0  0  0  0
   -5.3883   -1.2212   -0.3843 C   0  0  0  0  0  0  0  0  0  0  0  0
   -6.6840   -1.5100    0.1235 C   0  0  0  0  0  0  0  0  0  0  0  0
   -6.7091   -1.1353    1.4474 C   0  0  0  0  0  0  0  0  0  0  0  0
   -5.4769   -0.6258    1.7622 N   0  0  0  0  0  0  0  0  0  0  0  0
   -5.1007   -0.1177    3.0628 C   0  0  0  0  0  0  0  0  0  0  0  0
   -4.6463   -0.6686    0.6607 C   0  0  0  0  0  0  0  0  0  0  0  0
   -3.3067   -0.2664    0.4990 C   0  0  0  0  0  0  0  0  0  0  0  0
    1.0444    0.3924   -2.1738 N   0  0  0  0  0  0  0  0  0  0  0  0
    2.2892    0.7068   -2.4929 N   0  0  0  0  0  0  0  0  0  0  0  0
    2.8764    1.2233   -1.3949 N   0  0  0  0  0  0  0  0  0  0  0  0
    4.2625    1.6582   -1.4687 C   0  0  0  0  0  0  0  0  0  0  0  0
    5.2010    0.6938   -0.7880 C   0  0  0  0  0  0  0  0  0  0  0  0
    6.0302    1.1199    0.2548 C   0  0  0  0  0  0  0  0  0  0  0  0
    6.8961    0.2045    0.8352 C   0  0  0  0  0  0  0  0  0  0  0  0
    6.9932   -1.0847    0.4505 N   0  0  0  0  0  0  0  0  0  0  0  0
    6.1886   -1.4799   -0.5576 C   0  0  0  0  0  0  0  0  0  0  0  0
    5.2936   -0.6404   -1.2028 C   0  0  0  0  0  0  0  0  0  0  0  0
    1.4796    2.3528    1.4255 H   0  0  0  0  0  0  0  0  0  0  0  0
    3.1823    2.4720    1.0025 H   0  0  0  0  0  0  0  0  0  0  0  0
    2.5517    0.9628    1.6870 H   0  0  0  0  0  0  0  0  0  0  0  0
   -1.0419   -0.2336   -1.9770 H   0  0  0  0  0  0  0  0  0  0  0  0
   -2.9903   -1.1162   -2.7889 H   0  0  0  0  0  0  0  0  0  0  0  0
   -5.3274   -1.8102   -2.4715 H   0  0  0  0  0  0  0  0  0  0  0  0
   -7.5088   -1.9484   -0.4227 H   0  0  0  0  0  0  0  0  0  0  0  0
   -7.5020   -1.1901    2.1817 H   0  0  0  0  0  0  0  0  0  0  0  0
   -4.8427    0.9391    2.9590 H   0  0  0  0  0  0  0  0  0  0  0  0
   -4.2446   -0.6925    3.4252 H   0  0  0  0  0  0  0  0  0  0  0  0
   -5.9386   -0.2281    3.7553 H   0  0  0  0  0  0  0  0  0  0  0  0
   -2.7731    0.1577    1.3405 H   0  0  0  0  0  0  0  0  0  0  0  0
    4.3112    2.6583   -1.0243 H   0  0  0  0  0  0  0  0  0  0  0  0
    4.5377    1.7589   -2.5254 H   0  0  0  0  0  0  0  0  0  0  0  0
    6.0140    2.1432    0.6162 H   0  0  0  0  0  0  0  0  0  0  0  0
    7.5573    0.4973    1.6452 H   0  0  0  0  0  0  0  0  0  0  0  0
    6.2859   -2.5227   -0.8477 H   0  0  0  0  0  0  0  0  0  0  0  0
    4.6802   -1.0287   -2.0109 H   0  0  0  0  0  0  0  0  0  0  0  0
  1  2  1  0
  2  3  2  0
  3  4  1  0
  4  5  2  0
  4  6  1  0
  6  7  1  0
  7  8  2  0
  8  9  1  0
  9 10  2  0
 10 11  1  0
 11 12  2  0
 12 13  1  0
 13 14  1  0
 13 15  1  0
 15 16  2  0
  3 17  1  0
 17 18  2  0
 18 19  1  0
 19 20  1  0
 20 21  1  0
 21 22  2  0
 22 23  1  0
 23 24  2  0
 24 25  1  0
 25 26  2  0
 19  2  1  0
 26 21  1  0
 16  7  1  0
 15 10  1  0
  1 27  1  0
  1 28  1  0
  1 29  1  0
  6 30  1  0
  8 31  1  0
  9 32  1  0
 11 33  1  0
 12 34  1  0
 14 35  1  0
 14 36  1  0
 14 37  1  0
 16 38  1  0
 20 39  1  0
 20 40  1  0
 22 41  1  0
 23 42  1  0
 25 43  1  0
 26 44  1  0
M  END
$$$$
OCNT-2314603
     RDKit          3D

 51 54  0  0  0  0  0  0  0  0999 V2000
   -2.3747   -0.4388   -1.6684 C   0  0  0  0  0  0  0  0  0  0  0  0
   -2.9445   -0.0541   -0.2953 C   0  0  0  0  0  0  0  0  0  0  0  0
   -2.2338    1.1892    0.2997 C   0  0  0  0  0  0  0  0  0  0  0  0
   -0.8419    0.9521    0.6485 N   0  0  0  0  0  0  0  0  0  0  0  0
    0.1907    1.2718   -0.2022 C   0  0  0  0  0  0  0  0  0  0  0  0
    0.0486    1.7565   -1.3170 O   0  0  0  0  0  0  0  0  0  0  0  0
    1.5442    0.9139    0.2743 C   0  0  0  0  0  0  0  0  0  0  0  0
    2.2903    0.1013   -0.5781 C   0  0  0  0  0  0  0  0  0  0  0  0
    3.5494   -0.2955   -0.1679 C   0  0  0  0  0  0  0  0  0  0  0  0
    4.4002   -1.1428   -1.0157 C   0  0  0  0  0  0  0  0  0  0  0  0
    4.9141   -0.6757   -2.2257 C   0  0  0  0  0  0  0  0  0  0  0  0
    5.7080   -1.5224   -2.9957 C   0  0  0  0  0  0  0  0  0  0  0  0
    5.9661   -2.8092   -2.5427 C   0  0  0  0  0  0  0  0  0  0  0  0
    5.4163   -3.2003   -1.3334 C   0  0  0  0  0  0  0  0  0  0  0  0
    4.6382   -2.4048   -0.5681 N   0  0  0  0  0  0  0  0  0  0  0  0
    4.0699    0.0893    1.0247 N   0  0  0  0  0  0  0  0  0  0  0  0
    3.3576    0.8911    1.8321 C   0  0  0  0  0  0  0  0  0  0  0  0
    3.9285    1.2802    3.0363 C   0  0  0  0  0  0  0  0  0  0  0  0
    3.2729    2.1344    3.9250 C   0  0  0  0  0  0  0  0  0  0  0  0
    2.0163    2.6255    3.6048 C   0  0  0  0  0  0  0  0  0  0  0  0
    1.4190    2.2470    2.4042 C   0  0  0  0  0  0  0  0  0  0  0  0
    2.0706    1.3606    1.5070 C   0  0  0  0  0  0  0  0  0  0  0  0
   -4.4151    0.1448   -0.2839 N   0  0  0  0  0  0  0  0  0  0  0  0
   -4.9018    1.0793   -1.2988 C   0  0  0  0  0  0  0  0  0  0  0  0
   -5.1697   -1.1216   -0.3060 C   0  0  0  0  0  0  0  0  0  0  0  0
   -5.3239   -1.9109    0.9658 C   0  0  0  0  0  0  0  0  0  0  0  0
   -6.5025   -1.1828    0.3934 C   0  0  0  0  0  0  0  0  0  0  0  0
   -2.4051    0.3982   -2.3737 H   0  0  0  0  0  0  0  0  0  0  0  0
   -1.3319   -0.7606   -1.5775 H   0  0  0  0  0  0  0  0  0  0  0  0
   -2.9231   -1.2776   -2.1091 H   0  0  0  0  0  0  0  0  0  0  0  0
   -2.7192   -0.8873    0.3855 H   0  0  0  0  0  0  0  0  0  0  0  0
   -2.7250    1.4828    1.2341 H   0  0  0  0  0  0  0  0  0  0  0  0
   -2.2875    2.0409   -0.3869 H   0  0  0  0  0  0  0  0  0  0  0  0
   -0.6458    0.4333    1.4961 H   0  0  0  0  0  0  0  0  0  0  0  0
    1.8847   -0.2237   -1.5322 H   0  0  0  0  0  0  0  0  0  0  0  0
    4.7124    0.3375   -2.5595 H   0  0  0  0  0  0  0  0  0  0  0  0
    6.1262   -1.1757   -3.9366 H   0  0  0  0  0  0  0  0  0  0  0  0
    6.5850   -3.4922   -3.1143 H   0  0  0  0  0  0  0  0  0  0  0  0
    5.5916   -4.1954   -0.9340 H   0  0  0  0  0  0  0  0  0  0  0  0
    4.9205    0.9093    3.2875 H   0  0  0  0  0  0  0  0  0  0  0  0
    3.7538    2.4205    4.8564 H   0  0  0  0  0  0  0  0  0  0  0  0
    1.5048    3.3062    4.2817 H   0  0  0  0  0  0  0  0  0  0  0  0
    0.4440    2.6667    2.1647 H   0  0  0  0  0  0  0  0  0  0  0  0
   -4.3897    2.0443   -1.2386 H   0  0  0  0  0  0  0  0  0  0  0  0
   -4.7913    0.6869   -2.3148 H   0  0  0  0  0  0  0  0  0  0  0  0
   -5.9665    1.2877   -1.1397 H   0  0  0  0  0  0  0  0  0  0  0  0
   -5.0884   -1.6974   -1.2267 H   0  0  0  0  0  0  0  0  0  0  0  0
   -5.3179   -2.9930    0.8987 H   0  0  0  0  0  0  0  0  0  0  0  0
   -4.8840   -1.5188    1.8755 H   0  0  0  0  0  0  0  0  0  0  0  0
   -6.8519   -0.2995    0.9165 H   0  0  0  0  0  0  0  0  0  0  0  0
   -7.2888   -1.7658   -0.0700 H   0  0  0  0  0  0  0  0  0  0  0  0
  1  2  1  0
  2  3  1  0
  3  4  1  0
  4  5  1  0
  5  6  2  0
  5  7  1  0
  7  8  2  0
  8  9  1  0
  9 10  1  0
 10 11  2  0
 11 12  1  0
 12 13  2  0
 13 14  1  0
 14 15  2  0
  9 16  2  0
 16 17  1  0
 17 18  2  0
 18 19  1  0
 19 20  2  0
 20 21  1  0
 21 22  2  0
  2 23  1  0
 23 24  1  0
 23 25  1  0
 25 26  1  0
 26 27  1  0
 22  7  1  0
 27 25  1  0
 15 10  1  0
 22 17  1  0
  1 28  1  0
  1 29  1  0
  1 30  1  0
  2 31  1  0
  3 32  1  0
  3 33  1  0
  4 34  1  0
  8 35  1  0
 11 36  1  0
 12 37  1  0
 13 38  1  0
 14 39  1  0
 18 40  1  0
 19 41  1  0
 20 42  1  0
 21 43  1  0
 24 44  1  0
 24 45  1  0
 24 46  1  0
 25 47  1  0
 26 48  1  0
 26 49  1  0
 27 50  1  0
 27 51  1  0
M  END
$$$$
OCNT-2314607
     RDKit          3D

 54 56  0  0  0  0  0  0  0  0999 V2000
    5.1843   -3.4531   -1.3128 C   0  0  0  0  0  0  0  0  0  0  0  0
    3.8358   -3.5285   -1.7558 O   0  0  0  0  0  0  0  0  0  0  0  0
    2.9134   -3.7485   -0.6777 C   0  0  0  0  0  0  0  0  0  0  0  0
    2.7126   -2.5475    0.2246 C   0  0  0  0  0  0  0  0  0  0  0  0
    3.4551   -2.4740    1.3434 N   0  0  0  0  0  0  0  0  0  0  0  0
    3.2512   -1.3878    2.0996 C   0  0  0  0  0  0  0  0  0  0  0  0
    2.3542   -0.3908    1.7814 C   0  0  0  0  0  0  0  0  0  0  0  0
    1.6199   -0.5310    0.6175 C   0  0  0  0  0  0  0  0  0  0  0  0
    0.7001    0.4165    0.1832 N   0  0  0  0  0  0  0  0  0  0  0  0
    0.5213    1.6868    0.9000 C   0  0  0  0  0  0  0  0  0  0  0  0
   -0.0976    2.8182    0.1247 C   0  0  0  0  0  0  0  0  0  0  0  0
   -1.2381    3.4217    0.4066 N   0  0  0  0  0  0  0  0  0  0  0  0
   -1.4116    4.3815   -0.5610 C   0  0  0  0  0  0  0  0  0  0  0  0
   -2.6084    5.2495   -0.5527 C   0  0  0  0  0  0  0  0  0  0  0  0
   -0.3558    4.3628   -1.4449 C   0  0  0  0  0  0  0  0  0  0  0  0
    0.4701    3.3679   -1.0015 N   0  0  0  0  0  0  0  0  0  0  0  0
    1.7032    2.9587   -1.6297 C   0  0  0  0  0  0  0  0  0  0  0  0
   -0.4165   -0.0706   -0.6512 C   0  0  0  0  0  0  0  0  0  0  0  0
   -1.6721   -0.4386    0.1687 C   0  0  0  0  0  0  0  0  0  0  0  0
   -1.4578   -1.6806    1.0559 C   0  0  0  0  0  0  0  0  0  0  0  0
   -2.7541   -2.4057    1.4311 C   0  0  0  0  0  0  0  0  0  0  0  0
   -3.9602   -1.4795    1.4061 C   0  0  0  0  0  0  0  0  0  0  0  0
   -4.1728   -0.8697    0.0207 C   0  0  0  0  0  0  0  0  0  0  0  0
   -2.8738   -0.6559   -0.7614 C   0  0  0  0  0  0  0  0  0  0  0  0
    1.8118   -1.6174   -0.1542 N   0  0  0  0  0  0  0  0  0  0  0  0
    5.3500   -2.5516   -0.7167 H   0  0  0  0  0  0  0  0  0  0  0  0
    5.8288   -3.3990   -2.1947 H   0  0  0  0  0  0  0  0  0  0  0  0
    5.4571   -4.3447   -0.7400 H   0  0  0  0  0  0  0  0  0  0  0  0
    1.9490   -4.0025   -1.1315 H   0  0  0  0  0  0  0  0  0  0  0  0
    3.2267   -4.6204   -0.0911 H   0  0  0  0  0  0  0  0  0  0  0  0
    3.8469   -1.3331    3.0061 H   0  0  0  0  0  0  0  0  0  0  0  0
    2.2413    0.4438    2.4572 H   0  0  0  0  0  0  0  0  0  0  0  0
   -0.0769    1.5105    1.8030 H   0  0  0  0  0  0  0  0  0  0  0  0
    1.4918    2.0697    1.2412 H   0  0  0  0  0  0  0  0  0  0  0  0
   -3.5115    4.6513   -0.7073 H   0  0  0  0  0  0  0  0  0  0  0  0
   -2.5580    6.0045   -1.3434 H   0  0  0  0  0  0  0  0  0  0  0  0
   -2.6965    5.7668    0.4076 H   0  0  0  0  0  0  0  0  0  0  0  0
   -0.1398    4.9525   -2.3248 H   0  0  0  0  0  0  0  0  0  0  0  0
    2.4807    2.8731   -0.8670 H   0  0  0  0  0  0  0  0  0  0  0  0
    2.0006    3.7109   -2.3652 H   0  0  0  0  0  0  0  0  0  0  0  0
    1.5381    2.0007   -2.1276 H   0  0  0  0  0  0  0  0  0  0  0  0
   -0.6815    0.7174   -1.3665 H   0  0  0  0  0  0  0  0  0  0  0  0
   -0.1261   -0.9141   -1.2901 H   0  0  0  0  0  0  0  0  0  0  0  0
   -1.9223    0.4054    0.8246 H   0  0  0  0  0  0  0  0  0  0  0  0
   -0.9438   -1.3710    1.9743 H   0  0  0  0  0  0  0  0  0  0  0  0
   -0.7994   -2.4049    0.5621 H   0  0  0  0  0  0  0  0  0  0  0  0
   -2.6459   -2.8627    2.4214 H   0  0  0  0  0  0  0  0  0  0  0  0
   -2.9225   -3.2300    0.7263 H   0  0  0  0  0  0  0  0  0  0  0  0
   -3.8140   -0.6771    2.1402 H   0  0  0  0  0  0  0  0  0  0  0  0
   -4.8626   -2.0206    1.7123 H   0  0  0  0  0  0  0  0  0  0  0  0
   -4.8364   -1.5122   -0.5707 H   0  0  0  0  0  0  0  0  0  0  0  0
   -4.6977    0.0865    0.1358 H   0  0  0  0  0  0  0  0  0  0  0  0
   -3.0030    0.1972   -1.4382 H   0  0  0  0  0  0  0  0  0  0  0  0
   -2.6872   -1.5308   -1.3979 H   0  0  0  0  0  0  0  0  0  0  0  0
  1  2  1  0
  2  3  1  0
  3  4  1  0
  4  5  2  0
  5  6  1  0
  6  7  2  0
  7  8  1  0
  8  9  1  0
  9 10  1  0
 10 11  1  0
 11 12  2  0
 12 13  1  0
 13 14  1  0
 13 15  2  0
 15 16  1  0
 16 17  1  0
  9 18  1  0
 18 19  1  0
 19 20  1  0
 20 21  1  0
 21 22  1  0
 22 23  1  0
 23 24  1  0
  8 25  2  0
 25  4  1  0
 16 11  1  0
 24 19  1  0
  1 26  1  0
  1 27  1  0
  1 28  1  0
  3 29  1  0
  3 30  1  0
  6 31  1  0
  7 32  1  0
 10 33  1  0
 10 34  1  0
 14 35  1  0
 14 36  1  0
 14 37  1  0
 15 38  1  0
 17 39  1  0
 17 40  1  0
 17 41  1  0
 18 42  1  0
 18 43  1  0
 19 44  1  0
 20 45  1  0
 20 46  1  0
 21 47  1  0
 21 48  1  0
 22 49  1  0
 22 50  1  0
 23 51  1  0
 23 52  1  0
 24 53  1  0
 24 54  1  0
M  END
$$$$
OCNT-2314611
     RDKit          3D

 42 45  0  0  0  0  0  0  0  0999 V2000
    0.3382    0.1208    2.5463 O   0  0  0  0  0  0  0  0  0  0  0  0
    0.5411    0.1940    1.3388 C   0  0  0  0  0  0  0  0  0  0  0  0
    1.9439    0.1874    0.8440 C   0  0  1  0  0  0  0  0  0  0  0  0
    3.0021   -0.6018    1.5960 C   0  0  2  0  0  0  0  0  0  0  0  0
    4.4543   -0.2870    1.4712 C   0  0  0  0  0  0  0  0  0  0  0  0
    4.6777   -0.2173    0.0188 N   0  0  0  0  0  0  0  0  0  0  0  0
    3.7026   -1.0945   -0.6418 C   0  0  0  0  0  0  0  0  0  0  0  0
    2.5340   -1.0967    0.2849 C   0  0  2  0  0  0  0  0  0  0  0  0
   -0.4717    0.2876    0.3867 N   0  0  0  0  0  0  0  0  0  0  0  0
   -1.8542    0.2587    0.8622 C   0  0  0  0  0  0  0  0  0  0  0  0
   -2.7618   -0.6688    0.0833 C   0  0  0  0  0  0  0  0  0  0  0  0
   -3.8012   -0.1153   -0.6887 C   0  0  0  0  0  0  0  0  0  0  0  0
   -4.6636   -0.9305   -1.4242 C   0  0  0  0  0  0  0  0  0  0  0  0
   -4.5058   -2.3126   -1.3982 C   0  0  0  0  0  0  0  0  0  0  0  0
   -3.4865   -2.8792   -0.6343 C   0  0  0  0  0  0  0  0  0  0  0  0
   -2.6198   -2.0657    0.1042 C   0  0  0  0  0  0  0  0  0  0  0  0
   -1.3919   -2.8529    1.0292 Cl  0  0  0  0  0  0  0  0  0  0  0  0
   -0.2090    0.6200   -1.0111 C   0  0  0  0  0  0  0  0  0  0  0  0
    0.1019    2.0729   -1.2477 C   0  0  0  0  0  0  0  0  0  0  0  0
   -1.0183    3.0793   -1.3698 C   0  0  0  0  0  0  0  0  0  0  0  0
   -0.0611    3.1701   -0.2177 C   0  0  0  0  0  0  0  0  0  0  0  0
    2.2722    1.1358    0.4317 H   0  0  0  0  0  0  0  0  0  0  0  0
    2.7325   -1.1188    2.5055 H   0  0  0  0  0  0  0  0  0  0  0  0
    5.0553   -1.0911    1.9094 H   0  0  0  0  0  0  0  0  0  0  0  0
    4.7127    0.6601    1.9525 H   0  0  0  0  0  0  0  0  0  0  0  0
    5.6276   -0.5007   -0.2081 H   0  0  0  0  0  0  0  0  0  0  0  0
    3.4395   -0.7120   -1.6316 H   0  0  0  0  0  0  0  0  0  0  0  0
    4.1082   -2.1070   -0.7421 H   0  0  0  0  0  0  0  0  0  0  0  0
    1.9222   -1.9855    0.2317 H   0  0  0  0  0  0  0  0  0  0  0  0
   -2.2311    1.2869    0.8180 H   0  0  0  0  0  0  0  0  0  0  0  0
   -1.9070   -0.0233    1.9203 H   0  0  0  0  0  0  0  0  0  0  0  0
   -3.9458    0.9630   -0.7226 H   0  0  0  0  0  0  0  0  0  0  0  0
   -5.4605   -0.4854   -2.0154 H   0  0  0  0  0  0  0  0  0  0  0  0
   -5.1772   -2.9499   -1.9680 H   0  0  0  0  0  0  0  0  0  0  0  0
   -3.3726   -3.9604   -0.6144 H   0  0  0  0  0  0  0  0  0  0  0  0
    0.6448    0.0255   -1.3515 H   0  0  0  0  0  0  0  0  0  0  0  0
   -1.0480    0.3119   -1.6419 H   0  0  0  0  0  0  0  0  0  0  0  0
    0.9192    2.1763   -1.9561 H   0  0  0  0  0  0  0  0  0  0  0  0
   -2.0335    2.7654   -1.1608 H   0  0  0  0  0  0  0  0  0  0  0  0
   -0.9430    3.8284   -2.1506 H   0  0  0  0  0  0  0  0  0  0  0  0
   -0.4339    2.9379    0.7722 H   0  0  0  0  0  0  0  0  0  0  0  0
    0.6672    3.9744   -0.2225 H   0  0  0  0  0  0  0  0  0  0  0  0
  1  2  2  0
  2  3  1  0
  3  4  1  0
  4  5  1  0
  5  6  1  0
  6  7  1  0
  7  8  1  0
  2  9  1  0
  9 10  1  0
 10 11  1  0
 11 12  2  0
 12 13  1  0
 13 14  2  0
 14 15  1  0
 15 16  2  0
 16 17  1  0
  9 18  1  0
 18 19  1  0
 19 20  1  0
 20 21  1  0
  8  3  1  0
 16 11  1  0
 21 19  1  0
  8  4  1  0
  3 22  1  6
  4 23  1  1
  5 24  1  0
  5 25  1  0
  6 26  1  0
  7 27  1  0
  7 28  1  0
  8 29  1  1
 10 30  1  0
 10 31  1  0
 12 32  1  0
 13 33  1  0
 14 34  1  0
 15 35  1  0
 18 36  1  0
 18 37  1  0
 19 38  1  0
 20 39  1  0
 20 40  1  0
 21 41  1  0
 21 42  1  0
M  END
$$$$
OCNT-2314615
     RDKit          3D

 42 44  0  0  0  0  0  0  0  0999 V2000
   -6.2888    3.2622    1.9535 C   0  0  0  0  0  0  0  0  0  0  0  0
   -5.1762    2.3643    1.5001 C   0  0  0  0  0  0  0  0  0  0  0  0
   -4.6353    2.4988    0.2183 C   0  0  0  0  0  0  0  0  0  0  0  0
   -3.5765    1.6829   -0.1933 C   0  0  0  0  0  0  0  0  0  0  0  0
   -3.0294    0.7223    0.6691 C   0  0  0  0  0  0  0  0  0  0  0  0
   -1.9295   -0.1092    0.2104 C   0  0  0  0  0  0  0  0  0  0  0  0
   -1.3287   -1.1519    0.8831 C   0  0  0  0  0  0  0  0  0  0  0  0
   -0.3632   -1.5873    0.0245 N   0  0  0  0  0  0  0  0  0  0  0  0
    0.5959   -2.6613    0.2196 C   0  0  0  0  0  0  0  0  0  0  0  0
    0.5584   -3.6920   -0.9063 C   0  0  0  0  0  0  0  0  0  0  0  0
    2.0096   -2.1139    0.4096 C   0  0  0  0  0  0  0  0  0  0  0  0
    2.6855   -2.5005    1.3621 O   0  0  0  0  0  0  0  0  0  0  0  0
    2.4349   -1.2436   -0.5818 N   0  0  0  0  0  0  0  0  0  0  0  0
    3.6988   -0.6347   -0.7167 C   0  0  0  0  0  0  0  0  0  0  0  0
    4.7930   -0.9131    0.1045 C   0  0  0  0  0  0  0  0  0  0  0  0
    6.0176   -0.2689   -0.0993 C   0  0  0  0  0  0  0  0  0  0  0  0
    6.1598    0.6590   -1.1292 C   0  0  0  0  0  0  0  0  0  0  0  0
    5.0740    0.9444   -1.9593 C   0  0  0  0  0  0  0  0  0  0  0  0
    5.2134    1.8951   -3.0230 C   0  0  0  0  0  0  0  0  0  0  0  0
    5.3270    2.6621   -3.8864 N   0  0  0  0  0  0  0  0  0  0  0  0
    3.8485    0.2978   -1.7521 C   0  0  0  0  0  0  0  0  0  0  0  0
   -0.3610   -0.8704   -1.1164 N   0  0  0  0  0  0  0  0  0  0  0  0
   -1.3161    0.0413   -1.0106 N   0  0  0  0  0  0  0  0  0  0  0  0
   -3.5657    0.6030    1.9584 C   0  0  0  0  0  0  0  0  0  0  0  0
   -4.6250    1.4196    2.3712 C   0  0  0  0  0  0  0  0  0  0  0  0
   -5.8771    4.1767    2.3911 H   0  0  0  0  0  0  0  0  0  0  0  0
   -6.9145    2.7629    2.7008 H   0  0  0  0  0  0  0  0  0  0  0  0
   -6.9389    3.5316    1.1144 H   0  0  0  0  0  0  0  0  0  0  0  0
   -5.0327    3.2392   -0.4726 H   0  0  0  0  0  0  0  0  0  0  0  0
   -3.1809    1.8082   -1.1998 H   0  0  0  0  0  0  0  0  0  0  0  0
   -1.4911   -1.6004    1.8517 H   0  0  0  0  0  0  0  0  0  0  0  0
    0.3096   -3.1580    1.1557 H   0  0  0  0  0  0  0  0  0  0  0  0
    0.8507   -3.2596   -1.8696 H   0  0  0  0  0  0  0  0  0  0  0  0
    1.2497   -4.5154   -0.6961 H   0  0  0  0  0  0  0  0  0  0  0  0
   -0.4474   -4.1104   -1.0201 H   0  0  0  0  0  0  0  0  0  0  0  0
    1.7195   -0.9312   -1.2403 H   0  0  0  0  0  0  0  0  0  0  0  0
    4.7311   -1.6321    0.9158 H   0  0  0  0  0  0  0  0  0  0  0  0
    6.8599   -0.4960    0.5506 H   0  0  0  0  0  0  0  0  0  0  0  0
    7.1181    1.1534   -1.2775 H   0  0  0  0  0  0  0  0  0  0  0  0
    3.0084    0.5315   -2.4047 H   0  0  0  0  0  0  0  0  0  0  0  0
   -3.1692   -0.1179    2.6678 H   0  0  0  0  0  0  0  0  0  0  0  0
   -5.0160    1.3115    3.3807 H   0  0  0  0  0  0  0  0  0  0  0  0
  1  2  1  0
  2  3  1  0
  3  4  2  0
  4  5  1  0
  5  6  1  0
  6  7  2  0
  7  8  1  0
  8  9  1  0
  9 10  1  0
  9 11  1  0
 11 12  2  0
 11 13  1  0
 13 14  1  0
 14 15  2  0
 15 16  1  0
 16 17  2  0
 17 18  1  0
 18 19  1  0
 19 20  3  0
 18 21  2  0
  8 22  1  0
 22 23  2  0
  5 24  2  0
 24 25  1  0
 25  2  2  0
 23  6  1  0
 21 14  1  0
  1 26  1  0
  1 27  1  0
  1 28  1  0
  3 29  1  0
  4 30  1  0
  7 31  1  0
  9 32  1  0
 10 33  1  0
 10 34  1  0
 10 35  1  0
 13 36  1  0
 15 37  1  0
 16 38  1  0
 17 39  1  0
 21 40  1  0
 24 41  1  0
 25 42  1  0
M  END
$$$$
OCNT-2314616
     RDKit          3D

 51 52  0  0  0  0  0  0  0  0999 V2000
    7.6562    1.9314    0.4620 C   0  0  0  0  0  0  0  0  0  0  0  0
    6.4382    1.1432    0.0685 C   0  0  0  0  0  0  0  0  0  0  0  0
    5.5247    1.8037   -0.6942 N   0  0  0  0  0  0  0  0  0  0  0  0
    4.4110    1.1322   -1.0767 C   0  0  0  0  0  0  0  0  0  0  0  0
    4.1632   -0.1756   -0.7120 C   0  0  0  0  0  0  0  0  0  0  0  0
    2.6992   -0.9630   -1.2809 S   0  0  0  0  0  0  0  0  0  0  0  0
    2.3742   -0.3953   -2.5692 O   0  0  0  0  0  0  0  0  0  0  0  0
    2.8504   -2.3884   -1.0918 O   0  0  0  0  0  0  0  0  0  0  0  0
    1.5638   -0.3982   -0.1978 N   0  0  0  0  0  0  0  0  0  0  0  0
    1.3342   -1.1339    1.0564 C   0  0  0  0  0  0  0  0  0  0  0  0
    0.1664   -0.4647    1.8114 C   0  0  0  0  0  0  0  0  0  0  0  0
   -0.9950   -0.1861    0.9378 N   0  0  0  0  0  0  0  0  0  0  0  0
   -1.9181    0.7427    1.6092 C   0  0  0  0  0  0  0  0  0  0  0  0
   -3.2282    0.9196    0.8909 C   0  0  0  0  0  0  0  0  0  0  0  0
   -3.6850    0.1044   -0.0828 C   0  0  0  0  0  0  0  0  0  0  0  0
   -5.0107    0.3039   -0.8452 C   0  0  0  0  0  0  0  0  0  0  0  0
   -5.6932    1.6592   -0.5449 C   0  0  0  0  0  0  0  0  0  0  0  0
   -6.0065   -0.8071   -0.4555 C   0  0  0  0  0  0  0  0  0  0  0  0
   -4.7657    0.2500   -2.3676 C   0  0  0  0  0  0  0  0  0  0  0  0
   -2.8272   -1.0942   -0.4579 C   0  0  0  0  0  0  0  0  0  0  0  0
   -1.7193   -1.4102    0.5640 C   0  0  0  0  0  0  0  0  0  0  0  0
    5.1026   -0.8570    0.0589 C   0  0  0  0  0  0  0  0  0  0  0  0
    6.2616   -0.1874    0.4626 C   0  0  0  0  0  0  0  0  0  0  0  0
    7.2311   -0.8687    1.2654 C   0  0  0  0  0  0  0  0  0  0  0  0
    8.0111   -1.4202    1.9238 N   0  0  0  0  0  0  0  0  0  0  0  0
    8.5614    1.4584    0.0686 H   0  0  0  0  0  0  0  0  0  0  0  0
    7.7267    2.0081    1.5515 H   0  0  0  0  0  0  0  0  0  0  0  0
    7.6068    2.9479    0.0575 H   0  0  0  0  0  0  0  0  0  0  0  0
    3.7184    1.7007   -1.6930 H   0  0  0  0  0  0  0  0  0  0  0  0
    0.7061   -0.0394   -0.6335 H   0  0  0  0  0  0  0  0  0  0  0  0
    2.2367   -1.1150    1.6751 H   0  0  0  0  0  0  0  0  0  0  0  0
    1.0797   -2.1758    0.8386 H   0  0  0  0  0  0  0  0  0  0  0  0
   -0.1176   -1.0733    2.6789 H   0  0  0  0  0  0  0  0  0  0  0  0
    0.5469    0.4898    2.1996 H   0  0  0  0  0  0  0  0  0  0  0  0
   -1.4360    1.7257    1.6744 H   0  0  0  0  0  0  0  0  0  0  0  0
   -2.1361    0.4141    2.6339 H   0  0  0  0  0  0  0  0  0  0  0  0
   -3.8042    1.7787    1.2197 H   0  0  0  0  0  0  0  0  0  0  0  0
   -6.6080    1.7806   -1.1376 H   0  0  0  0  0  0  0  0  0  0  0  0
   -5.0356    2.5019   -0.7879 H   0  0  0  0  0  0  0  0  0  0  0  0
   -5.9845    1.7418    0.5086 H   0  0  0  0  0  0  0  0  0  0  0  0
   -5.6559   -1.8001   -0.7558 H   0  0  0  0  0  0  0  0  0  0  0  0
   -6.1753   -0.8259    0.6275 H   0  0  0  0  0  0  0  0  0  0  0  0
   -6.9782   -0.6529   -0.9394 H   0  0  0  0  0  0  0  0  0  0  0  0
   -5.6894    0.4470   -2.9245 H   0  0  0  0  0  0  0  0  0  0  0  0
   -4.4052   -0.7331   -2.6902 H   0  0  0  0  0  0  0  0  0  0  0  0
   -4.0261    0.9978   -2.6763 H   0  0  0  0  0  0  0  0  0  0  0  0
   -2.3617   -0.8980   -1.4321 H   0  0  0  0  0  0  0  0  0  0  0  0
   -3.4447   -1.9916   -0.5655 H   0  0  0  0  0  0  0  0  0  0  0  0
   -2.1534   -1.8925    1.4505 H   0  0  0  0  0  0  0  0  0  0  0  0
   -1.0462   -2.1391    0.0996 H   0  0  0  0  0  0  0  0  0  0  0  0
    4.9365   -1.8957    0.3391 H   0  0  0  0  0  0  0  0  0  0  0  0
  1  2  1  0
  2  3  1  0
  3  4  2  0
  4  5  1  0
  5  6  1  0
  6  7  2  0
  6  8  2  0
  6  9  1  0
  9 10  1  0
 10 11  1  0
 11 12  1  0
 12 13  1  0
 13 14  1  0
 14 15  2  0
 15 16  1  0
 16 17  1  0
 16 18  1  0
 16 19  1  0
 15 20  1  0
 20 21  1  0
  5 22  2  0
 22 23  1  0
 23 24  1  0
 24 25  3  0
 23  2  2  0
 21 12  1  0
  1 26  1  0
  1 27  1  0
  1 28  1  0
  4 29  1  0
  9 30  1  0
 10 31  1  0
 10 32  1  0
 11 33  1  0
 11 34  1  0
 13 35  1  0
 13 36  1  0
 14 37  1  0
 17 38  1  0
 17 39  1  0
 17 40  1  0
 18 41  1  0
 18 42  1  0
 18 43  1  0
 19 44  1  0
 19 45  1  0
 19 46  1  0
 20 47  1  0
 20 48  1  0
 21 49  1  0
 21 50  1  0
 22 51  1  0
M  END
$$$$
OCNT-2314618
     RDKit          3D

 51 54  0  0  0  0  0  0  0  0999 V2000
    2.3608    3.7378   -0.1689 C   0  0  0  0  0  0  0  0  0  0  0  0
    2.6711    2.5401    0.5307 O   0  0  0  0  0  0  0  0  0  0  0  0
    1.5509    1.6437    0.6841 C   0  0  0  0  0  0  0  0  0  0  0  0
    1.2437    0.8721   -0.6199 C   0  0  0  0  0  0  0  0  0  0  0  0
    2.2505   -0.1533   -1.1057 C   0  0  0  0  0  0  0  0  0  0  0  0
    1.7898   -1.3910   -1.5899 C   0  0  0  0  0  0  0  0  0  0  0  0
    2.6832   -2.3489   -2.0715 C   0  0  0  0  0  0  0  0  0  0  0  0
    4.0423   -2.0685   -2.0862 C   0  0  0  0  0  0  0  0  0  0  0  0
    4.9018   -2.9863   -2.5488 F   0  0  0  0  0  0  0  0  0  0  0  0
    4.5218   -0.8468   -1.6341 C   0  0  0  0  0  0  0  0  0  0  0  0
    3.6271    0.1120   -1.1523 C   0  0  0  0  0  0  0  0  0  0  0  0
    1.8359    0.7579    1.9307 C   0  0  0  0  0  0  0  0  0  0  0  0
    0.7417    0.0451    2.5982 N   0  0  0  0  0  0  0  0  0  0  0  0
    0.4162   -1.2708    2.0307 C   0  0  0  0  0  0  0  0  0  0  0  0
   -1.0521   -1.6871    2.2465 C   0  0  0  0  0  0  0  0  0  0  0  0
   -1.9643   -0.6994    1.6245 N   0  0  0  0  0  0  0  0  0  0  0  0
   -2.5371   -0.9799    0.3656 C   0  0  0  0  0  0  0  0  0  0  0  0
   -3.6402   -0.3179   -0.0604 C   0  0  0  0  0  0  0  0  0  0  0  0
   -4.5403    0.6762    0.4300 C   0  0  0  0  0  0  0  0  0  0  0  0
   -5.4379    0.8527   -0.5531 C   0  0  0  0  0  0  0  0  0  0  0  0
   -5.2451    0.0655   -1.6809 N   0  0  0  0  0  0  0  0  0  0  0  0
   -4.1867   -0.6447   -1.3975 C   0  0  0  0  0  0  0  0  0  0  0  0
   -3.5516   -1.5945   -2.1221 N   0  0  0  0  0  0  0  0  0  0  0  0
   -2.4645   -2.2198   -1.5981 C   0  0  0  0  0  0  0  0  0  0  0  0
   -1.9431   -1.9696   -0.4357 N   0  0  0  0  0  0  0  0  0  0  0  0
   -1.6613    0.7024    2.0079 C   0  0  0  0  0  0  0  0  0  0  0  0
   -0.4391    0.8407    2.9488 C   0  0  0  0  0  0  0  0  0  0  0  0
    1.5592    4.2842    0.3372 H   0  0  0  0  0  0  0  0  0  0  0  0
    2.0832    3.5299   -1.2047 H   0  0  0  0  0  0  0  0  0  0  0  0
    3.2547    4.3679   -0.1761 H   0  0  0  0  0  0  0  0  0  0  0  0
    0.6814    2.2712    0.9127 H   0  0  0  0  0  0  0  0  0  0  0  0
    0.2714    0.3833   -0.4951 H   0  0  0  0  0  0  0  0  0  0  0  0
    1.1075    1.5810   -1.4446 H   0  0  0  0  0  0  0  0  0  0  0  0
    0.7257   -1.6208   -1.5830 H   0  0  0  0  0  0  0  0  0  0  0  0
    2.3272   -3.3077   -2.4330 H   0  0  0  0  0  0  0  0  0  0  0  0
    5.5875   -0.6435   -1.6597 H   0  0  0  0  0  0  0  0  0  0  0  0
    4.0249    1.0656   -0.8150 H   0  0  0  0  0  0  0  0  0  0  0  0
    2.2720    1.4199    2.6931 H   0  0  0  0  0  0  0  0  0  0  0  0
    2.6549    0.0597    1.7136 H   0  0  0  0  0  0  0  0  0  0  0  0
    0.6141   -1.2985    0.9599 H   0  0  0  0  0  0  0  0  0  0  0  0
    1.0705   -2.0185    2.4924 H   0  0  0  0  0  0  0  0  0  0  0  0
   -1.2189   -2.6973    1.8542 H   0  0  0  0  0  0  0  0  0  0  0  0
   -1.2754   -1.7474    3.3192 H   0  0  0  0  0  0  0  0  0  0  0  0
   -4.5245    1.1596    1.3886 H   0  0  0  0  0  0  0  0  0  0  0  0
   -6.2801    1.5330   -0.5122 H   0  0  0  0  0  0  0  0  0  0  0  0
   -3.9305   -1.8411   -3.0234 H   0  0  0  0  0  0  0  0  0  0  0  0
   -2.0308   -2.9893   -2.2571 H   0  0  0  0  0  0  0  0  0  0  0  0
   -1.4743    1.2969    1.1054 H   0  0  0  0  0  0  0  0  0  0  0  0
   -2.5319    1.1312    2.5160 H   0  0  0  0  0  0  0  0  0  0  0  0
   -0.1858    1.9003    3.0752 H   0  0  0  0  0  0  0  0  0  0  0  0
   -0.7549    0.5127    3.9484 H   0  0  0  0  0  0  0  0  0  0  0  0
  1  2  1  0
  2  3  1  0
  3  4  1  0
  4  5  1  0
  5  6  1  0
  6  7  2  0
  7  8  1  0
  8  9  1  0
  8 10  2  0
 10 11  1  0
  3 12  1  0
 12 13  1  0
 13 14  1  0
 14 15  1  0
 15 16  1  0
 16 17  1  0
 17 18  2  0
 18 19  1  0
 19 20  2  0
 20 21  1  0
 21 22  2  0
 22 23  1  0
 23 24  1  0
 24 25  2  0
 16 26  1  0
 26 27  1  0
 11  5  2  0
 27 13  1  0
 25 17  1  0
 22 18  1  0
  1 28  1  0
  1 29  1  0
  1 30  1  0
  3 31  1  0
  4 32  1  0
  4 33  1  0
  6 34  1  0
  7 35  1  0
 10 36  1  0
 11 37  1  0
 12 38  1  0
 12 39  1  0
 14 40  1  0
 14 41  1  0
 15 42  1  0
 15 43  1  0
 19 44  1  0
 20 45  1  0
 23 46  1  0
 24 47  1  0
 26 48  1  0
 26 49  1  0
 27 50  1  0
 27 51  1  0
M  END
$$$$
OCNT-2314625
     RDKit          3D

 40 43  0  0  0  0  0  0  0  0999 V2000
   -3.7959   -1.4302   -2.3544 C   0  0  0  0  0  0  0  0  0  0  0  0
   -4.2394   -1.0584   -1.0153 N   0  0  0  0  0  0  0  0  0  0  0  0
   -5.6381   -0.6218   -0.9086 C   0  0  0  0  0  0  0  0  0  0  0  0
   -5.9970   -0.3992    0.5549 C   0  0  0  0  0  0  0  0  0  0  0  0
   -5.2209    0.6617    1.1181 O   0  0  0  0  0  0  0  0  0  0  0  0
   -3.8805    0.5304    0.8282 C   0  0  0  0  0  0  0  0  0  0  0  0
   -3.0328    1.3066    1.6197 C   0  0  0  0  0  0  0  0  0  0  0  0
   -1.6516    1.2543    1.4350 C   0  0  0  0  0  0  0  0  0  0  0  0
   -1.1099    0.4222    0.4591 C   0  0  0  0  0  0  0  0  0  0  0  0
    0.2747    0.2878    0.2152 N   0  0  0  0  0  0  0  0  0  0  0  0
    1.3170    0.9299    0.8537 C   0  0  0  0  0  0  0  0  0  0  0  0
    1.2029    1.7517    1.7565 O   0  0  0  0  0  0  0  0  0  0  0  0
    2.6374    0.5621    0.3684 C   0  0  0  0  0  0  0  0  0  0  0  0
    3.0793   -0.3167   -0.6075 C   0  0  0  0  0  0  0  0  0  0  0  0
    4.5021   -0.2662   -0.6499 C   0  0  0  0  0  0  0  0  0  0  0  0
    5.4812   -0.9198   -1.4205 C   0  0  0  0  0  0  0  0  0  0  0  0
    6.8234   -0.6196   -1.1882 C   0  0  0  0  0  0  0  0  0  0  0  0
    7.7639   -1.2365   -1.9171 F   0  0  0  0  0  0  0  0  0  0  0  0
    7.2108    0.3011   -0.2223 C   0  0  0  0  0  0  0  0  0  0  0  0
    6.2542    0.9609    0.5539 C   0  0  0  0  0  0  0  0  0  0  0  0
    4.9088    0.6539    0.3143 C   0  0  0  0  0  0  0  0  0  0  0  0
    3.7694    1.1353    0.9115 N   0  0  0  0  0  0  0  0  0  0  0  0
   -1.9764   -0.3434   -0.3442 C   0  0  0  0  0  0  0  0  0  0  0  0
   -3.3755   -0.2926   -0.2031 C   0  0  0  0  0  0  0  0  0  0  0  0
   -4.5996   -1.9422   -2.8956 H   0  0  0  0  0  0  0  0  0  0  0  0
   -2.9572   -2.1326   -2.3151 H   0  0  0  0  0  0  0  0  0  0  0  0
   -3.5086   -0.5486   -2.9381 H   0  0  0  0  0  0  0  0  0  0  0  0
   -6.2975   -1.3891   -1.3298 H   0  0  0  0  0  0  0  0  0  0  0  0
   -5.7795    0.3034   -1.4824 H   0  0  0  0  0  0  0  0  0  0  0  0
   -5.8510   -1.3077    1.1531 H   0  0  0  0  0  0  0  0  0  0  0  0
   -7.0507   -0.1135    0.6388 H   0  0  0  0  0  0  0  0  0  0  0  0
   -3.4501    1.9471    2.3921 H   0  0  0  0  0  0  0  0  0  0  0  0
   -1.0327    1.8691    2.0797 H   0  0  0  0  0  0  0  0  0  0  0  0
    0.5266   -0.3598   -0.5155 H   0  0  0  0  0  0  0  0  0  0  0  0
    2.4649   -0.9433   -1.2393 H   0  0  0  0  0  0  0  0  0  0  0  0
    5.2137   -1.6438   -2.1821 H   0  0  0  0  0  0  0  0  0  0  0  0
    8.2677    0.5035   -0.0758 H   0  0  0  0  0  0  0  0  0  0  0  0
    6.5487    1.6812    1.3106 H   0  0  0  0  0  0  0  0  0  0  0  0
    3.7407    1.8218    1.6551 H   0  0  0  0  0  0  0  0  0  0  0  0
   -1.5424   -0.9992   -1.0913 H   0  0  0  0  0  0  0  0  0  0  0  0
  1  2  1  0
  2  3  1  0
  3  4  1  0
  4  5  1  0
  5  6  1  0
  6  7  1  0
  7  8  2  0
  8  9  1  0
  9 10  1  0
 10 11  1  0
 11 12  2  0
 11 13  1  0
 13 14  2  0
 14 15  1  0
 15 16  2  0
 16 17  1  0
 17 18  1  0
 17 19  2  0
 19 20  1  0
 20 21  2  0
 21 22  1  0
  9 23  2  0
 23 24  1  0
 24  2  1  0
 24  6  2  0
 22 13  1  0
 21 15  1  0
  1 25  1  0
  1 26  1  0
  1 27  1  0
  3 28  1  0
  3 29  1  0
  4 30  1  0
  4 31  1  0
  7 32  1  0
  8 33  1  0
 10 34  1  0
 14 35  1  0
 16 36  1  0
 19 37  1  0
 20 38  1  0
 22 39  1  0
 23 40  1  0
M  END
$$$$
OCNT-2314630
     RDKit          3D

 42 45  0  0  0  0  0  0  0  0999 V2000
   -3.1506    0.3341    2.5953 C   0  0  0  0  0  0  0  0  0  0  0  0
   -2.9797    0.0181    1.0981 C   0  0  0  0  0  0  0  0  0  0  0  0
   -3.6494   -1.3375    0.8062 C   0  0  0  0  0  0  0  0  0  0  0  0
   -1.4478   -0.0637    0.7792 C   0  0  0  0  0  0  0  0  0  0  0  0
   -1.2121   -0.1988   -0.6713 N   0  0  0  0  0  0  0  0  0  0  0  0
    0.1363   -0.3153   -1.0289 C   0  0  0  0  0  0  0  0  0  0  0  0
    1.0929   -0.0348   -0.1130 N   0  0  0  0  0  0  0  0  0  0  0  0
    2.4030   -0.1275   -0.4256 C   0  0  0  0  0  0  0  0  0  0  0  0
    3.3919    0.2141    0.6348 C   0  0  0  0  0  0  0  0  0  0  0  0
    4.7705    0.1168    0.4154 C   0  0  0  0  0  0  0  0  0  0  0  0
    5.6600    0.4468    1.4373 C   0  0  0  0  0  0  0  0  0  0  0  0
    5.1620    0.8687    2.6613 C   0  0  0  0  0  0  0  0  0  0  0  0
    3.7900    0.9438    2.8136 C   0  0  0  0  0  0  0  0  0  0  0  0
    2.9061    0.6311    1.8415 N   0  0  0  0  0  0  0  0  0  0  0  0
    2.8899   -0.4996   -1.6201 N   0  0  0  0  0  0  0  0  0  0  0  0
    1.9311   -0.8084   -2.5042 C   0  0  0  0  0  0  0  0  0  0  0  0
    0.5627   -0.7545   -2.3016 C   0  0  0  0  0  0  0  0  0  0  0  0
   -0.1350   -1.2066   -3.4764 C   0  0  0  0  0  0  0  0  0  0  0  0
    0.7136   -1.5421   -4.5081 C   0  0  0  0  0  0  0  0  0  0  0  0
    2.3522   -1.3340   -4.0720 S   0  0  0  0  0  0  0  0  0  0  0  0
   -2.0070    0.7066   -1.5231 C   0  0  0  0  0  0  0  0  0  0  0  0
   -2.8664    1.6874   -0.6948 C   0  0  0  0  0  0  0  0  0  0  0  0
   -3.7226    1.0382    0.3091 N   0  0  0  0  0  0  0  0  0  0  0  0
   -4.2081    0.3574    2.8840 H   0  0  0  0  0  0  0  0  0  0  0  0
   -2.6568   -0.4225    3.2159 H   0  0  0  0  0  0  0  0  0  0  0  0
   -2.7143    1.3076    2.8477 H   0  0  0  0  0  0  0  0  0  0  0  0
   -3.5860   -1.6044   -0.2547 H   0  0  0  0  0  0  0  0  0  0  0  0
   -4.7114   -1.3258    1.0795 H   0  0  0  0  0  0  0  0  0  0  0  0
   -3.1733   -2.1420    1.3785 H   0  0  0  0  0  0  0  0  0  0  0  0
   -1.0160   -0.9243    1.3080 H   0  0  0  0  0  0  0  0  0  0  0  0
   -0.9543    0.8420    1.1600 H   0  0  0  0  0  0  0  0  0  0  0  0
    5.1561   -0.2151   -0.5447 H   0  0  0  0  0  0  0  0  0  0  0  0
    6.7314    0.3729    1.2740 H   0  0  0  0  0  0  0  0  0  0  0  0
    5.8257    1.1323    3.4769 H   0  0  0  0  0  0  0  0  0  0  0  0
    3.3475    1.2677    3.7513 H   0  0  0  0  0  0  0  0  0  0  0  0
   -1.2123   -1.2877   -3.5480 H   0  0  0  0  0  0  0  0  0  0  0  0
    0.4514   -1.9061   -5.4923 H   0  0  0  0  0  0  0  0  0  0  0  0
   -1.3753    1.3018   -2.1950 H   0  0  0  0  0  0  0  0  0  0  0  0
   -2.6685    0.0958   -2.1488 H   0  0  0  0  0  0  0  0  0  0  0  0
   -3.5042    2.2627   -1.3749 H   0  0  0  0  0  0  0  0  0  0  0  0
   -2.2112    2.4108   -0.1928 H   0  0  0  0  0  0  0  0  0  0  0  0
   -4.1119    1.7522    0.9225 H   0  0  0  0  0  0  0  0  0  0  0  0
  1  2  1  0
  2  3  1  0
  2  4  1  0
  4  5  1  0
  5  6  1  0
  6  7  1  0
  7  8  2  0
  8  9  1  0
  9 10  2  0
 10 11  1  0
 11 12  2  0
 12 13  1  0
 13 14  2  0
  8 15  1  0
 15 16  2  0
 16 17  1  0
 17 18  1  0
 18 19  2  0
 19 20  1  0
  5 21  1  0
 21 22  1  0
 22 23  1  0
 23  2  1  0
 17  6  2  0
 14  9  1  0
 20 16  1  0
  1 24  1  0
  1 25  1  0
  1 26  1  0
  3 27  1  0
  3 28  1  0
  3 29  1  0
  4 30  1  0
  4 31  1  0
 10 32  1  0
 11 33  1  0
 12 34  1  0
 13 35  1  0
 18 36  1  0
 19 37  1  0
 21 38  1  0
 21 39  1  0
 22 40  1  0
 22 41  1  0
 23 42  1  0
M  END
$$$$
OCNT-2314632
     RDKit          3D

 35 37  0  0  0  0  0  0  0  0999 V2000
   -4.7780   -0.5939   -0.7272 C   0  0  0  0  0  0  0  0  0  0  0  0
   -3.3684   -0.4928   -0.8855 O   0  0  0  0  0  0  0  0  0  0  0  0
   -2.6826    0.6183   -0.2116 C   0  0  0  0  0  0  0  0  0  0  0  0
   -3.1592    1.9880   -0.6638 C   0  0  0  0  0  0  0  0  0  0  0  0
   -3.0689    2.1180   -2.0089 F   0  0  0  0  0  0  0  0  0  0  0  0
   -2.4379    2.9909   -0.1069 F   0  0  0  0  0  0  0  0  0  0  0  0
   -4.4545    2.1892   -0.3158 F   0  0  0  0  0  0  0  0  0  0  0  0
   -1.1444    0.5147   -0.2792 C   0  0  0  0  0  0  0  0  0  0  0  0
   -1.1621    0.1419    1.1305 N   0  0  0  0  0  0  0  0  0  0  0  0
   -0.5225   -0.9009    1.7690 C   0  0  0  0  0  0  0  0  0  0  0  0
   -1.0458   -1.4757    2.7234 O   0  0  0  0  0  0  0  0  0  0  0  0
    0.7779   -1.3220    1.2820 C   0  0  0  0  0  0  0  0  0  0  0  0
    1.7612   -0.6167    0.6085 C   0  0  0  0  0  0  0  0  0  0  0  0
    1.8447    0.6820    0.1747 N   0  0  0  0  0  0  0  0  0  0  0  0
    2.9490    1.0224   -0.4205 C   0  0  0  0  0  0  0  0  0  0  0  0
    4.1258    0.1404   -0.6791 C   0  0  0  0  0  0  0  0  0  0  0  0
    5.3086    0.7026   -1.3827 C   0  0  0  0  0  0  0  0  0  0  0  0
    3.9885   -1.1148   -0.2262 C   0  0  0  0  0  0  0  0  0  0  0  0
    2.8238   -1.5132    0.4224 N   0  0  0  0  0  0  0  0  0  0  0  0
    2.5580   -2.7325    0.9431 N   0  0  0  0  0  0  0  0  0  0  0  0
    1.3459   -2.6000    1.4792 C   0  0  0  0  0  0  0  0  0  0  0  0
   -2.5609    0.5112    1.3200 C   0  0  0  0  0  0  0  0  0  0  0  0
   -5.2767    0.1182   -1.3897 H   0  0  0  0  0  0  0  0  0  0  0  0
   -5.0838   -1.6047   -1.0097 H   0  0  0  0  0  0  0  0  0  0  0  0
   -5.0730   -0.4145    0.3099 H   0  0  0  0  0  0  0  0  0  0  0  0
   -0.7753   -0.2667   -0.9502 H   0  0  0  0  0  0  0  0  0  0  0  0
   -0.6056    1.4477   -0.4660 H   0  0  0  0  0  0  0  0  0  0  0  0
    3.0492    2.0608   -0.7800 H   0  0  0  0  0  0  0  0  0  0  0  0
    5.7249    1.5438   -0.8194 H   0  0  0  0  0  0  0  0  0  0  0  0
    6.0994   -0.0451   -1.5033 H   0  0  0  0  0  0  0  0  0  0  0  0
    5.0276    1.0580   -2.3792 H   0  0  0  0  0  0  0  0  0  0  0  0
    4.7500   -1.8770   -0.3265 H   0  0  0  0  0  0  0  0  0  0  0  0
    0.9043   -3.4453    1.9942 H   0  0  0  0  0  0  0  0  0  0  0  0
   -3.1686   -0.2712    1.7836 H   0  0  0  0  0  0  0  0  0  0  0  0
   -2.6705    1.4391    1.8896 H   0  0  0  0  0  0  0  0  0  0  0  0
  1  2  1  0
  2  3  1  0
  3  4  1  0
  4  5  1  0
  4  6  1  0
  4  7  1  0
  3  8  1  0
  8  9  1  0
  9 10  1  0
 10 11  2  0
 10 12  1  0
 12 13  2  0
 13 14  1  0
 14 15  2  0
 15 16  1  0
 16 17  1  0
 16 18  2  0
 18 19  1  0
 19 20  1  0
 20 21  2  0
  9 22  1  0
 22  3  1  0
 21 12  1  0
 19 13  1  0
  1 23  1  0
  1 24  1  0
  1 25  1  0
  8 26  1  0
  8 27  1  0
 15 28  1  0
 17 29  1  0
 17 30  1  0
 17 31  1  0
 18 32  1  0
 21 33  1  0
 22 34  1  0
 22 35  1  0
M  END
$$$$
OCNT-2314637
     RDKit          3D

 49 52  0  0  0  0  0  0  0  0999 V2000
    5.0539    2.4995   -1.3254 C   0  0  0  0  0  0  0  0  0  0  0  0
    3.9541    1.8827   -0.4748 C   0  0  0  0  0  0  0  0  0  0  0  0
    4.0638    0.3554   -0.4421 C   0  0  0  0  0  0  0  0  0  0  0  0
    3.0096   -0.3000    0.4683 C   0  0  0  0  0  0  0  0  0  0  0  0
    1.5502   -0.0052   -0.0161 C   0  0  0  0  0  0  0  0  0  0  0  0
    0.6519   -1.1598    0.2422 N   0  0  0  0  0  0  0  0  0  0  0  0
   -0.7109   -0.8518    0.1017 C   0  0  0  0  0  0  0  0  0  0  0  0
   -1.1510    0.4019    0.3204 N   0  0  0  0  0  0  0  0  0  0  0  0
   -2.4726    0.6651    0.1673 C   0  0  0  0  0  0  0  0  0  0  0  0
   -2.9222    2.0416    0.4185 C   0  0  0  0  0  0  0  0  0  0  0  0
   -4.2618    2.4390    0.2798 C   0  0  0  0  0  0  0  0  0  0  0  0
   -4.6461    3.7568    0.5283 C   0  0  0  0  0  0  0  0  0  0  0  0
   -3.6738    4.6611    0.9147 C   0  0  0  0  0  0  0  0  0  0  0  0
   -2.3740    4.3378    1.0646 N   0  0  0  0  0  0  0  0  0  0  0  0
   -2.0360    3.0449    0.8136 C   0  0  0  0  0  0  0  0  0  0  0  0
   -3.4018   -0.2389   -0.2011 N   0  0  0  0  0  0  0  0  0  0  0  0
   -2.9239   -1.4666   -0.4111 C   0  0  0  0  0  0  0  0  0  0  0  0
   -1.6006   -1.8287   -0.2708 C   0  0  0  0  0  0  0  0  0  0  0  0
   -1.3862   -3.2497   -0.6674 C   0  0  0  0  0  0  0  0  0  0  0  0
   -2.8201   -3.7974   -0.5936 C   0  0  0  0  0  0  0  0  0  0  0  0
   -3.7508   -2.6189   -0.9053 C   0  0  0  0  0  0  0  0  0  0  0  0
    0.9368   -1.7959    1.5429 C   0  0  0  0  0  0  0  0  0  0  0  0
    2.3734   -2.3775    1.5267 C   0  0  0  0  0  0  0  0  0  0  0  0
    3.2959   -1.7549    0.5496 N   0  0  0  0  0  0  0  0  0  0  0  0
    6.0434    2.2499   -0.9292 H   0  0  0  0  0  0  0  0  0  0  0  0
    4.9968    2.1429   -2.3587 H   0  0  0  0  0  0  0  0  0  0  0  0
    4.9580    3.5897   -1.3362 H   0  0  0  0  0  0  0  0  0  0  0  0
    2.9834    2.1885   -0.8797 H   0  0  0  0  0  0  0  0  0  0  0  0
    4.0220    2.2817    0.5439 H   0  0  0  0  0  0  0  0  0  0  0  0
    3.9757   -0.0393   -1.4627 H   0  0  0  0  0  0  0  0  0  0  0  0
    5.0662    0.0833   -0.0852 H   0  0  0  0  0  0  0  0  0  0  0  0
    3.1326    0.1190    1.4768 H   0  0  0  0  0  0  0  0  0  0  0  0
    1.5405    0.1869   -1.0961 H   0  0  0  0  0  0  0  0  0  0  0  0
    1.2129    0.9035    0.4988 H   0  0  0  0  0  0  0  0  0  0  0  0
   -5.0169    1.7169   -0.0254 H   0  0  0  0  0  0  0  0  0  0  0  0
   -5.6797    4.0656    0.4214 H   0  0  0  0  0  0  0  0  0  0  0  0
   -3.9215    5.6985    1.1198 H   0  0  0  0  0  0  0  0  0  0  0  0
   -0.9770    2.8344    0.9485 H   0  0  0  0  0  0  0  0  0  0  0  0
   -0.7241   -3.7966    0.0080 H   0  0  0  0  0  0  0  0  0  0  0  0
   -0.9987   -3.3013   -1.6903 H   0  0  0  0  0  0  0  0  0  0  0  0
   -3.0178   -4.1518    0.4278 H   0  0  0  0  0  0  0  0  0  0  0  0
   -2.9791   -4.6461   -1.2660 H   0  0  0  0  0  0  0  0  0  0  0  0
   -4.7057   -2.7006   -0.3797 H   0  0  0  0  0  0  0  0  0  0  0  0
   -3.9203   -2.5199   -1.9822 H   0  0  0  0  0  0  0  0  0  0  0  0
    0.2339   -2.6045    1.7744 H   0  0  0  0  0  0  0  0  0  0  0  0
    0.8533   -1.0493    2.3446 H   0  0  0  0  0  0  0  0  0  0  0  0
    2.3227   -3.4480    1.2942 H   0  0  0  0  0  0  0  0  0  0  0  0
    2.8029   -2.3048    2.5327 H   0  0  0  0  0  0  0  0  0  0  0  0
    3.0386   -2.1392   -0.3637 H   0  0  0  0  0  0  0  0  0  0  0  0
  1  2  1  0
  2  3  1  0
  3  4  1  0
  4  5  1  0
  5  6  1  0
  6  7  1  0
  7  8  1  0
  8  9  2  0
  9 10  1  0
 10 11  1  0
 11 12  2  0
 12 13  1  0
 13 14  2  0
 14 15  1  0
  9 16  1  0
 16 17  2  0
 17 18  1  0
 18 19  1  0
 19 20  1  0
 20 21  1  0
  6 22  1  0
 22 23  1  0
 23 24  1  0
 24  4  1  0
 18  7  2  0
 15 10  2  0
 21 17  1  0
  1 25  1  0
  1 26  1  0
  1 27  1  0
  2 28  1  0
  2 29  1  0
  3 30  1  0
  3 31  1  0
  4 32  1  0
  5 33  1  0
  5 34  1  0
 11 35  1  0
 12 36  1  0
 13 37  1  0
 15 38  1  0
 19 39  1  0
 19 40  1  0
 20 41  1  0
 20 42  1  0
 21 43  1  0
 21 44  1  0
 22 45  1  0
 22 46  1  0
 23 47  1  0
 23 48  1  0
 24 49  1  0
M  END
$$$$
OCNT-2314639
     RDKit          3D

 38 40  0  0  0  0  0  0  0  0999 V2000
    5.6368   -2.4447   -0.4621 C   0  0  0  0  0  0  0  0  0  0  0  0
    4.5659   -1.5146   -0.0308 C   0  0  0  0  0  0  0  0  0  0  0  0
    3.7034   -0.7254   -0.7636 C   0  0  0  0  0  0  0  0  0  0  0  0
    2.8702   -0.0198    0.1472 C   0  0  0  0  0  0  0  0  0  0  0  0
    1.8245    0.9111   -0.0020 C   0  0  0  0  0  0  0  0  0  0  0  0
    1.1874    1.4374    1.1372 C   0  0  0  0  0  0  0  0  0  0  0  0
    0.0482    2.4113    0.9732 C   0  0  0  0  0  0  0  0  0  0  0  0
   -1.1813    1.7074    0.6764 N   0  0  0  0  0  0  0  0  0  0  0  0
   -1.6729    1.6375   -0.6087 C   0  0  0  0  0  0  0  0  0  0  0  0
   -1.1877    2.2383   -1.5602 O   0  0  0  0  0  0  0  0  0  0  0  0
   -2.8454    0.7439   -0.8213 C   0  0  0  0  0  0  0  0  0  0  0  0
   -3.0329    0.1869   -2.0952 C   0  0  0  0  0  0  0  0  0  0  0  0
   -4.1186   -0.6538   -2.3515 C   0  0  0  0  0  0  0  0  0  0  0  0
   -5.0324   -0.9399   -1.3377 C   0  0  0  0  0  0  0  0  0  0  0  0
   -4.8541   -0.3719   -0.0687 C   0  0  0  0  0  0  0  0  0  0  0  0
   -5.8192   -0.6642    0.9983 N   0  0  0  0  0  0  0  0  0  0  0  0
   -5.5622   -0.2417    2.1347 O   0  0  0  0  0  0  0  0  0  0  0  0
   -6.8283   -1.3185    0.7015 O   0  0  0  0  0  0  0  0  0  0  0  0
   -3.7671    0.4740    0.1970 C   0  0  0  0  0  0  0  0  0  0  0  0
    1.5926    1.0197    2.4116 C   0  0  0  0  0  0  0  0  0  0  0  0
    2.6308    0.0966    2.5825 C   0  0  0  0  0  0  0  0  0  0  0  0
    3.2488   -0.4038    1.4317 C   0  0  0  0  0  0  0  0  0  0  0  0
    4.2786   -1.3072    1.2963 N   0  0  0  0  0  0  0  0  0  0  0  0
    6.6057   -2.1269   -0.0639 H   0  0  0  0  0  0  0  0  0  0  0  0
    5.4313   -3.4594   -0.1065 H   0  0  0  0  0  0  0  0  0  0  0  0
    5.7128   -2.4769   -1.5536 H   0  0  0  0  0  0  0  0  0  0  0  0
    3.6722   -0.6576   -1.8434 H   0  0  0  0  0  0  0  0  0  0  0  0
    1.5099    1.2186   -0.9971 H   0  0  0  0  0  0  0  0  0  0  0  0
   -0.1156    2.9670    1.9031 H   0  0  0  0  0  0  0  0  0  0  0  0
    0.2825    3.1450    0.1940 H   0  0  0  0  0  0  0  0  0  0  0  0
   -1.4685    1.0157    1.3536 H   0  0  0  0  0  0  0  0  0  0  0  0
   -2.3260    0.4083   -2.8944 H   0  0  0  0  0  0  0  0  0  0  0  0
   -4.2498   -1.0818   -3.3433 H   0  0  0  0  0  0  0  0  0  0  0  0
   -5.8738   -1.5965   -1.5520 H   0  0  0  0  0  0  0  0  0  0  0  0
   -3.6579    0.9370    1.1742 H   0  0  0  0  0  0  0  0  0  0  0  0
    1.0996    1.4162    3.2973 H   0  0  0  0  0  0  0  0  0  0  0  0
    2.9399   -0.2160    3.5745 H   0  0  0  0  0  0  0  0  0  0  0  0
    4.7523   -1.7515    2.0703 H   0  0  0  0  0  0  0  0  0  0  0  0
  1  2  1  0
  2  3  2  0
  3  4  1  0
  4  5  2  0
  5  6  1  0
  6  7  1  0
  7  8  1  0
  8  9  1  0
  9 10  2  0
  9 11  1  0
 11 12  1  0
 12 13  2  0
 13 14  1  0
 14 15  2  0
 15 16  1  0
 16 17  2  0
 16 18  1  0
 15 19  1  0
  6 20  2  0
 20 21  1  0
 21 22  2  0
 22 23  1  0
 23  2  1  0
 22  4  1  0
 19 11  2  0
  1 24  1  0
  1 25  1  0
  1 26  1  0
  3 27  1  0
  5 28  1  0
  7 29  1  0
  7 30  1  0
  8 31  1  0
 12 32  1  0
 13 33  1  0
 14 34  1  0
 19 35  1  0
 20 36  1  0
 21 37  1  0
 23 38  1  0
M  CHG  2  16   1  18  -1
M  END
$$$$
OCNT-2314641
     RDKit          3D

 47 50  0  0  0  0  0  0  0  0999 V2000
   -0.1018   -1.9238   -2.8642 O   0  0  0  0  0  0  0  0  0  0  0  0
    0.3077   -1.5242   -1.7780 C   0  0  0  0  0  0  0  0  0  0  0  0
   -0.2498   -0.4458   -1.1348 N   0  0  0  0  0  0  0  0  0  0  0  0
   -1.1962    0.4121   -1.7972 C   0  0  0  0  0  0  0  0  0  0  0  0
   -1.8342    1.2514   -0.7605 C   0  0  0  0  0  0  0  0  0  0  0  0
   -1.5657    2.5397   -0.3455 C   0  0  0  0  0  0  0  0  0  0  0  0
   -2.4151    2.9246    0.6588 N   0  0  0  0  0  0  0  0  0  0  0  0
   -3.2063    1.8940    0.8661 C   0  0  0  0  0  0  0  0  0  0  0  0
   -4.2922    1.7870    1.8810 C   0  0  0  0  0  0  0  0  0  0  0  0
   -5.2517    0.6377    1.5672 C   0  0  0  0  0  0  0  0  0  0  0  0
   -4.4780   -0.6325    1.2130 C   0  0  0  0  0  0  0  0  0  0  0  0
   -3.5956   -0.4091   -0.0157 C   0  0  0  0  0  0  0  0  0  0  0  0
   -2.8830    0.8537    0.0294 N   0  0  0  0  0  0  0  0  0  0  0  0
    1.4434   -2.2241   -1.1008 C   0  0  0  0  0  0  0  0  0  0  0  0
    1.7961   -3.4922   -1.5934 C   0  0  0  0  0  0  0  0  0  0  0  0
    2.8399   -4.2215   -1.0172 C   0  0  0  0  0  0  0  0  0  0  0  0
    3.5455   -3.6951    0.0620 C   0  0  0  0  0  0  0  0  0  0  0  0
    3.2165   -2.4349    0.5576 C   0  0  0  0  0  0  0  0  0  0  0  0
    2.1849   -1.6920   -0.0344 C   0  0  0  0  0  0  0  0  0  0  0  0
    1.8792   -0.4627    0.5018 O   0  0  0  0  0  0  0  0  0  0  0  0
    2.7758    0.5680    0.3058 C   0  0  0  0  0  0  0  0  0  0  0  0
    2.6904    1.6185    1.2230 C   0  0  0  0  0  0  0  0  0  0  0  0
    3.5260    2.7291    1.0985 C   0  0  0  0  0  0  0  0  0  0  0  0
    4.4419    2.7962    0.0498 C   0  0  0  0  0  0  0  0  0  0  0  0
    4.5181    1.7570   -0.8771 C   0  0  0  0  0  0  0  0  0  0  0  0
    3.6822    0.6446   -0.7551 C   0  0  0  0  0  0  0  0  0  0  0  0
    0.2217   -0.0718   -0.3201 H   0  0  0  0  0  0  0  0  0  0  0  0
   -1.9264   -0.1882   -2.3498 H   0  0  0  0  0  0  0  0  0  0  0  0
   -0.6472    1.0234   -2.5211 H   0  0  0  0  0  0  0  0  0  0  0  0
   -0.8006    3.2099   -0.7171 H   0  0  0  0  0  0  0  0  0  0  0  0
   -3.8338    1.6239    2.8638 H   0  0  0  0  0  0  0  0  0  0  0  0
   -4.8491    2.7290    1.9342 H   0  0  0  0  0  0  0  0  0  0  0  0
   -5.9024    0.4556    2.4294 H   0  0  0  0  0  0  0  0  0  0  0  0
   -5.9000    0.9145    0.7260 H   0  0  0  0  0  0  0  0  0  0  0  0
   -3.8532   -0.9251    2.0667 H   0  0  0  0  0  0  0  0  0  0  0  0
   -5.1711   -1.4594    1.0239 H   0  0  0  0  0  0  0  0  0  0  0  0
   -2.8624   -1.2169   -0.1022 H   0  0  0  0  0  0  0  0  0  0  0  0
   -4.2065   -0.3875   -0.9253 H   0  0  0  0  0  0  0  0  0  0  0  0
    1.2501   -3.9235   -2.4315 H   0  0  0  0  0  0  0  0  0  0  0  0
    3.0956   -5.2029   -1.4099 H   0  0  0  0  0  0  0  0  0  0  0  0
    4.3511   -4.2660    0.5173 H   0  0  0  0  0  0  0  0  0  0  0  0
    3.7650   -2.0280    1.4039 H   0  0  0  0  0  0  0  0  0  0  0  0
    1.9702    1.5756    2.0364 H   0  0  0  0  0  0  0  0  0  0  0  0
    3.4577    3.5434    1.8158 H   0  0  0  0  0  0  0  0  0  0  0  0
    5.0910    3.6623   -0.0499 H   0  0  0  0  0  0  0  0  0  0  0  0
    5.2245    1.8161   -1.7016 H   0  0  0  0  0  0  0  0  0  0  0  0
    3.7481   -0.1400   -1.5035 H   0  0  0  0  0  0  0  0  0  0  0  0
  1  2  2  0
  2  3  1  0
  3  4  1  0
  4  5  1  0
  5  6  2  0
  6  7  1  0
  7  8  2  0
  8  9  1  0
  9 10  1  0
 10 11  1  0
 11 12  1  0
 12 13  1  0
  2 14  1  0
 14 15  2  0
 15 16  1  0
 16 17  2  0
 17 18  1  0
 18 19  2  0
 19 20  1  0
 20 21  1  0
 21 22  2  0
 22 23  1  0
 23 24  2  0
 24 25  1  0
 25 26  2  0
 13  5  1  0
 19 14  1  0
 26 21  1  0
 13  8  1  0
  3 27  1  0
  4 28  1  0
  4 29  1  0
  6 30  1  0
  9 31  1  0
  9 32  1  0
 10 33  1  0
 10 34  1  0
 11 35  1  0
 11 36  1  0
 12 37  1  0
 12 38  1  0
 15 39  1  0
 16 40  1  0
 17 41  1  0
 18 42  1  0
 22 43  1  0
 23 44  1  0
 24 45  1  0
 25 46  1  0
 26 47  1  0
M  END
$$$$
OCNT-2314646
     RDKit          3D

 46 48  0  0  0  0  0  0  0  0999 V2000
    2.4361   -1.9135    0.9223 O   0  0  0  0  0  0  0  0  0  0  0  0
    2.0744   -0.6196    1.4220 C   0  0  0  0  0  0  0  0  0  0  0  0
    1.0204    0.0584    0.5136 C   0  0  0  0  0  0  0  0  0  0  0  0
   -0.3423   -0.4717    0.6785 N   0  0  0  0  0  0  0  0  0  0  0  0
   -0.4767   -1.8852    0.3213 C   0  0  0  0  0  0  0  0  0  0  0  0
   -1.9818   -2.0377    0.1614 C   0  0  0  0  0  0  0  0  0  0  0  0
   -2.3691   -0.7914   -0.6393 C   0  0  0  0  0  0  0  0  0  0  0  0
   -2.1025   -1.0892   -2.0250 O   0  0  0  0  0  0  0  0  0  0  0  0
   -3.8176   -0.3353   -0.5539 C   0  0  0  0  0  0  0  0  0  0  0  0
   -4.1811    0.9219   -1.0785 C   0  0  0  0  0  0  0  0  0  0  0  0
   -5.5056    1.3627   -1.0426 C   0  0  0  0  0  0  0  0  0  0  0  0
   -6.4826    0.5454   -0.4933 C   0  0  0  0  0  0  0  0  0  0  0  0
   -7.7541    0.9647   -0.4601 F   0  0  0  0  0  0  0  0  0  0  0  0
   -6.1602   -0.7061    0.0128 C   0  0  0  0  0  0  0  0  0  0  0  0
   -4.8346   -1.1483   -0.0233 C   0  0  0  0  0  0  0  0  0  0  0  0
   -1.3285    0.2559   -0.1517 C   0  0  0  0  0  0  0  0  0  0  0  0
    3.3575    0.2068    1.6158 C   0  0  0  0  0  0  0  0  0  0  0  0
    4.0844    0.5612    0.3123 C   0  0  0  0  0  0  0  0  0  0  0  0
    4.2922   -0.6324   -0.4825 O   0  0  0  0  0  0  0  0  0  0  0  0
    3.5472    1.7885   -0.4860 C   0  0  0  0  0  0  0  0  0  0  0  0
    5.0088    2.2144   -0.7094 C   0  0  0  0  0  0  0  0  0  0  0  0
    5.3742    1.4078    0.5481 C   0  0  0  0  0  0  0  0  0  0  0  0
    2.8450   -1.7567    0.0461 H   0  0  0  0  0  0  0  0  0  0  0  0
    1.6379   -0.7811    2.4153 H   0  0  0  0  0  0  0  0  0  0  0  0
    1.3231   -0.0355   -0.5365 H   0  0  0  0  0  0  0  0  0  0  0  0
    0.9862    1.1245    0.7678 H   0  0  0  0  0  0  0  0  0  0  0  0
    0.0346   -2.1245   -0.6196 H   0  0  0  0  0  0  0  0  0  0  0  0
   -0.1055   -2.5469    1.1096 H   0  0  0  0  0  0  0  0  0  0  0  0
   -2.2302   -2.9718   -0.3536 H   0  0  0  0  0  0  0  0  0  0  0  0
   -2.4478   -2.0460    1.1551 H   0  0  0  0  0  0  0  0  0  0  0  0
   -2.9406   -1.3738   -2.4286 H   0  0  0  0  0  0  0  0  0  0  0  0
   -3.4283    1.5664   -1.5300 H   0  0  0  0  0  0  0  0  0  0  0  0
   -5.7790    2.3334   -1.4436 H   0  0  0  0  0  0  0  0  0  0  0  0
   -6.9419   -1.3331    0.4301 H   0  0  0  0  0  0  0  0  0  0  0  0
   -4.6169   -2.1391    0.3687 H   0  0  0  0  0  0  0  0  0  0  0  0
   -1.7831    1.0249    0.4828 H   0  0  0  0  0  0  0  0  0  0  0  0
   -0.8585    0.7494   -1.0119 H   0  0  0  0  0  0  0  0  0  0  0  0
    3.1146    1.1213    2.1711 H   0  0  0  0  0  0  0  0  0  0  0  0
    4.0451   -0.3736    2.2451 H   0  0  0  0  0  0  0  0  0  0  0  0
    4.9813   -1.1321   -0.0049 H   0  0  0  0  0  0  0  0  0  0  0  0
    2.9684    2.5042    0.1091 H   0  0  0  0  0  0  0  0  0  0  0  0
    2.9951    1.5626   -1.4025 H   0  0  0  0  0  0  0  0  0  0  0  0
    5.2040    3.2884   -0.6588 H   0  0  0  0  0  0  0  0  0  0  0  0
    5.4475    1.8152   -1.6310 H   0  0  0  0  0  0  0  0  0  0  0  0
    6.3215    0.8644    0.4883 H   0  0  0  0  0  0  0  0  0  0  0  0
    5.3693    2.0021    1.4695 H   0  0  0  0  0  0  0  0  0  0  0  0
  1  2  1  0
  2  3  1  0
  3  4  1  0
  4  5  1  0
  5  6  1  0
  6  7  1  0
  7  8  1  0
  7  9  1  0
  9 10  1  0
 10 11  2  0
 11 12  1  0
 12 13  1  0
 12 14  2  0
 14 15  1  0
  7 16  1  0
  2 17  1  0
 17 18  1  0
 18 19  1  0
 18 20  1  0
 20 21  1  0
 21 22  1  0
 16  4  1  0
 22 18  1  0
 15  9  2  0
  1 23  1  0
  2 24  1  0
  3 25  1  0
  3 26  1  0
  5 27  1  0
  5 28  1  0
  6 29  1  0
  6 30  1  0
  8 31  1  0
 10 32  1  0
 11 33  1  0
 14 34  1  0
 15 35  1  0
 16 36  1  0
 16 37  1  0
 17 38  1  0
 17 39  1  0
 19 40  1  0
 20 41  1  0
 20 42  1  0
 21 43  1  0
 21 44  1  0
 22 45  1  0
 22 46  1  0
M  END
$$$$
OCNT-2314654
     RDKit          3D

 37 39  0  0  0  0  0  0  0  0999 V2000
    6.6467   -0.5684    1.9609 C   0  0  0  0  0  0  0  0  0  0  0  0
    5.7899    0.5444    1.7366 O   0  0  0  0  0  0  0  0  0  0  0  0
    4.5666    0.2815    1.1859 C   0  0  0  0  0  0  0  0  0  0  0  0
    4.0814   -0.9741    0.8228 C   0  0  0  0  0  0  0  0  0  0  0  0
    2.8017   -1.1013    0.2654 C   0  0  0  0  0  0  0  0  0  0  0  0
    1.9889    0.0236    0.0631 C   0  0  0  0  0  0  0  0  0  0  0  0
    0.6553   -0.1025   -0.5155 C   0  0  0  0  0  0  0  0  0  0  0  0
    0.1100   -1.2679   -0.9020 N   0  0  0  0  0  0  0  0  0  0  0  0
   -1.1472   -0.9088   -1.3776 O   0  0  0  0  0  0  0  0  0  0  0  0
   -1.2430    0.4429   -1.2376 C   0  0  0  0  0  0  0  0  0  0  0  0
   -2.5094    1.1074   -1.6555 C   0  0  0  0  0  0  0  0  0  0  0  0
   -3.1918    0.4003   -2.8266 C   0  0  0  0  0  0  0  0  0  0  0  0
   -3.4413    1.3336   -0.4550 C   0  0  0  0  0  0  0  0  0  0  0  0
   -4.0275    0.1370    0.1126 N   0  0  0  0  0  0  0  0  0  0  0  0
   -3.4750   -0.6604    1.0744 C   0  0  0  0  0  0  0  0  0  0  0  0
   -4.4122   -1.6408    1.3028 C   0  0  0  0  0  0  0  0  0  0  0  0
   -5.5230   -1.4418    0.5245 N   0  0  0  0  0  0  0  0  0  0  0  0
   -5.2690   -0.3570   -0.1709 C   0  0  0  0  0  0  0  0  0  0  0  0
   -0.1712    0.9865   -0.7095 N   0  0  0  0  0  0  0  0  0  0  0  0
    2.4850    1.2806    0.4308 C   0  0  0  0  0  0  0  0  0  0  0  0
    3.7623    1.4053    0.9867 C   0  0  0  0  0  0  0  0  0  0  0  0
    6.2018   -1.2720    2.6723 H   0  0  0  0  0  0  0  0  0  0  0  0
    6.9026   -1.0656    1.0195 H   0  0  0  0  0  0  0  0  0  0  0  0
    7.5749   -0.1919    2.4015 H   0  0  0  0  0  0  0  0  0  0  0  0
    4.6686   -1.8764    0.9579 H   0  0  0  0  0  0  0  0  0  0  0  0
    2.4475   -2.0937   -0.0089 H   0  0  0  0  0  0  0  0  0  0  0  0
   -2.2251    2.1052   -2.0185 H   0  0  0  0  0  0  0  0  0  0  0  0
   -4.0942    0.9404   -3.1323 H   0  0  0  0  0  0  0  0  0  0  0  0
   -2.5218    0.3525   -3.6927 H   0  0  0  0  0  0  0  0  0  0  0  0
   -3.4786   -0.6279   -2.5814 H   0  0  0  0  0  0  0  0  0  0  0  0
   -4.2720    1.9873   -0.7500 H   0  0  0  0  0  0  0  0  0  0  0  0
   -2.9117    1.8462    0.3585 H   0  0  0  0  0  0  0  0  0  0  0  0
   -2.4960   -0.4846    1.4993 H   0  0  0  0  0  0  0  0  0  0  0  0
   -4.3479   -2.4751    1.9894 H   0  0  0  0  0  0  0  0  0  0  0  0
   -5.9409    0.1006   -0.8855 H   0  0  0  0  0  0  0  0  0  0  0  0
    1.8829    2.1756    0.2879 H   0  0  0  0  0  0  0  0  0  0  0  0
    4.1328    2.3886    1.2667 H   0  0  0  0  0  0  0  0  0  0  0  0
  1  2  1  0
  2  3  1  0
  3  4  1  0
  4  5  2  0
  5  6  1  0
  6  7  1  0
  7  8  2  0
  8  9  1  0
  9 10  1  0
 10 11  1  0
 11 12  1  0
 11 13  1  0
 13 14  1  0
 14 15  1  0
 15 16  2  0
 16 17  1  0
 17 18  2  0
 10 19  2  0
  6 20  2  0
 20 21  1  0
 21  3  2  0
 19  7  1  0
 18 14  1  0
  1 22  1  0
  1 23  1  0
  1 24  1  0
  4 25  1  0
  5 26  1  0
 11 27  1  0
 12 28  1  0
 12 29  1  0
 12 30  1  0
 13 31  1  0
 13 32  1  0
 15 33  1  0
 16 34  1  0
 18 35  1  0
 20 36  1  0
 21 37  1  0
M  END
$$$$
OCNT-2314665
     RDKit          3D

 57 60  0  0  0  0  0  0  0  0999 V2000
    5.8979    0.4203    2.4042 C   0  0  0  0  0  0  0  0  0  0  0  0
    5.4425    0.7857    0.9804 C   0  0  0  0  0  0  0  0  0  0  0  0
    6.4796    1.7674    0.4074 C   0  0  0  0  0  0  0  0  0  0  0  0
    5.2913   -0.4162    0.1246 N   0  0  0  0  0  0  0  0  0  0  0  0
    4.3148   -1.4000    0.6480 C   0  0  0  0  0  0  0  0  0  0  0  0
    2.8377   -0.9446    0.5614 C   0  0  0  0  0  0  0  0  0  0  0  0
    2.4280   -0.5742   -0.8114 N   0  0  0  0  0  0  0  0  0  0  0  0
    1.0539   -0.0476   -0.8462 C   0  0  0  0  0  0  0  0  0  0  0  0
    0.5245    0.2138   -2.2674 C   0  0  0  0  0  0  0  0  0  0  0  0
   -0.9820    0.3180   -2.0666 C   0  0  0  0  0  0  0  0  0  0  0  0
   -1.2641   -0.5576   -0.9434 N   0  0  0  0  0  0  0  0  0  0  0  0
   -2.4940   -1.0240   -0.5262 C   0  0  0  0  0  0  0  0  0  0  0  0
   -2.5899   -1.8301    0.3989 O   0  0  0  0  0  0  0  0  0  0  0  0
   -3.7043   -0.4997   -1.2904 C   0  0  0  0  0  0  0  0  0  0  0  0
   -5.0137   -0.6100   -0.5317 C   0  0  0  0  0  0  0  0  0  0  0  0
   -5.9042   -1.6376   -0.8936 C   0  0  0  0  0  0  0  0  0  0  0  0
   -7.1257   -1.7858   -0.2439 C   0  0  0  0  0  0  0  0  0  0  0  0
   -7.4763   -0.9112    0.7796 C   0  0  0  0  0  0  0  0  0  0  0  0
   -6.6037    0.1174    1.1695 C   0  0  0  0  0  0  0  0  0  0  0  0
   -6.9342    1.0030    2.1992 C   0  0  0  0  0  0  0  0  0  0  0  0
   -6.1476    2.0136    2.6328 N   0  0  0  0  0  0  0  0  0  0  0  0
   -4.9598    2.1453    2.0157 C   0  0  0  0  0  0  0  0  0  0  0  0
   -4.5289    1.3269    0.9811 C   0  0  0  0  0  0  0  0  0  0  0  0
   -5.3568    0.2811    0.5249 C   0  0  0  0  0  0  0  0  0  0  0  0
   -0.0344   -0.9978   -0.3035 C   0  0  0  0  0  0  0  0  0  0  0  0
    3.4027    0.3730   -1.3934 C   0  0  0  0  0  0  0  0  0  0  0  0
    4.8675   -0.1111   -1.2615 C   0  0  0  0  0  0  0  0  0  0  0  0
    6.1385    1.3210    2.9806 H   0  0  0  0  0  0  0  0  0  0  0  0
    6.7920   -0.2131    2.3871 H   0  0  0  0  0  0  0  0  0  0  0  0
    5.1139   -0.1005    2.9622 H   0  0  0  0  0  0  0  0  0  0  0  0
    4.4921    1.3253    1.0675 H   0  0  0  0  0  0  0  0  0  0  0  0
    6.6822    2.5792    1.1157 H   0  0  0  0  0  0  0  0  0  0  0  0
    7.4305    1.2651    0.1958 H   0  0  0  0  0  0  0  0  0  0  0  0
    6.1258    2.2435   -0.5122 H   0  0  0  0  0  0  0  0  0  0  0  0
    4.4250   -2.3266    0.0668 H   0  0  0  0  0  0  0  0  0  0  0  0
    4.5530   -1.6977    1.6737 H   0  0  0  0  0  0  0  0  0  0  0  0
    2.6729   -0.1063    1.2500 H   0  0  0  0  0  0  0  0  0  0  0  0
    2.2207   -1.7788    0.9145 H   0  0  0  0  0  0  0  0  0  0  0  0
    0.9993    0.8945   -0.2806 H   0  0  0  0  0  0  0  0  0  0  0  0
    0.7525   -0.6363   -2.9236 H   0  0  0  0  0  0  0  0  0  0  0  0
    0.9343    1.1189   -2.7253 H   0  0  0  0  0  0  0  0  0  0  0  0
   -1.5456    0.0153   -2.9536 H   0  0  0  0  0  0  0  0  0  0  0  0
   -1.2746    1.3343   -1.7817 H   0  0  0  0  0  0  0  0  0  0  0  0
   -3.5606    0.5484   -1.5741 H   0  0  0  0  0  0  0  0  0  0  0  0
   -3.7648   -1.0651   -2.2289 H   0  0  0  0  0  0  0  0  0  0  0  0
   -5.6440   -2.3381   -1.6847 H   0  0  0  0  0  0  0  0  0  0  0  0
   -7.8015   -2.5868   -0.5319 H   0  0  0  0  0  0  0  0  0  0  0  0
   -8.4336   -1.0418    1.2793 H   0  0  0  0  0  0  0  0  0  0  0  0
   -7.8810    0.9196    2.7269 H   0  0  0  0  0  0  0  0  0  0  0  0
   -4.3341    2.9531    2.3843 H   0  0  0  0  0  0  0  0  0  0  0  0
   -3.5502    1.5105    0.5540 H   0  0  0  0  0  0  0  0  0  0  0  0
   -0.1297   -0.9565    0.7864 H   0  0  0  0  0  0  0  0  0  0  0  0
    0.1408   -2.0373   -0.6060 H   0  0  0  0  0  0  0  0  0  0  0  0
    3.3022    1.3620   -0.9290 H   0  0  0  0  0  0  0  0  0  0  0  0
    3.1992    0.4960   -2.4632 H   0  0  0  0  0  0  0  0  0  0  0  0
    4.9834   -1.0267   -1.8587 H   0  0  0  0  0  0  0  0  0  0  0  0
    5.5406    0.6071   -1.7398 H   0  0  0  0  0  0  0  0  0  0  0  0
  1  2  1  0
  2  3  1  0
  2  4  1  0
  4  5  1  0
  5  6  1  0
  6  7  1  0
  7  8  1  0
  8  9  1  0
  9 10  1  0
 10 11  1  0
 11 12  1  0
 12 13  2  0
 12 14  1  0
 14 15  1  0
 15 16  2  0
 16 17  1  0
 17 18  2  0
 18 19  1  0
 19 20  2  0
 20 21  1  0
 21 22  2  0
 22 23  1  0
 23 24  2  0
 11 25  1  0
  7 26  1  0
 26 27  1  0
 27  4  1  0
 25  8  1  0
 24 15  1  0
 24 19  1  0
  1 28  1  0
  1 29  1  0
  1 30  1  0
  2 31  1  0
  3 32  1  0
  3 33  1  0
  3 34  1  0
  5 35  1  0
  5 36  1  0
  6 37  1  0
  6 38  1  0
  8 39  1  0
  9 40  1  0
  9 41  1  0
 10 42  1  0
 10 43  1  0
 14 44  1  0
 14 45  1  0
 16 46  1  0
 17 47  1  0
 18 48  1  0
 20 49  1  0
 22 50  1  0
 23 51  1  0
 25 52  1  0
 25 53  1  0
 26 54  1  0
 26 55  1  0
 27 56  1  0
 27 57  1  0
M  END
$$$$
OCNT-2314682
     RDKit          3D

 47 50  0  0  0  0  0  0  0  0999 V2000
    2.0898   -0.6950   -2.4063 C   0  0  0  0  0  0  0  0  0  0  0  0
    2.3928   -0.6055   -0.9979 N   0  0  0  0  0  0  0  0  0  0  0  0
    3.6305   -0.3428   -0.4567 C   0  0  0  0  0  0  0  0  0  0  0  0
    4.8908   -0.0982   -1.0141 C   0  0  0  0  0  0  0  0  0  0  0  0
    5.9476    0.1356   -0.1245 C   0  0  0  0  0  0  0  0  0  0  0  0
    5.7602    0.1210    1.2678 C   0  0  0  0  0  0  0  0  0  0  0  0
    6.9135    0.3994    2.1982 C   0  0  0  0  0  0  0  0  0  0  0  0
    6.8016   -0.2322    3.4000 F   0  0  0  0  0  0  0  0  0  0  0  0
    8.1162    0.0101    1.6878 F   0  0  0  0  0  0  0  0  0  0  0  0
    7.0421    1.7249    2.4818 F   0  0  0  0  0  0  0  0  0  0  0  0
    4.4765   -0.1165    1.7932 C   0  0  0  0  0  0  0  0  0  0  0  0
    3.4081   -0.3511    0.9158 C   0  0  0  0  0  0  0  0  0  0  0  0
    2.0924   -0.5999    1.2023 N   0  0  0  0  0  0  0  0  0  0  0  0
    1.4896   -0.7415    0.0356 C   0  0  0  0  0  0  0  0  0  0  0  0
    0.0232   -1.0135   -0.1537 C   0  0  0  0  0  0  0  0  0  0  0  0
   -0.6466    0.0268   -0.9605 N   0  0  0  0  0  0  0  0  0  0  0  0
   -0.7763    1.2925   -0.2152 C   0  0  0  0  0  0  0  0  0  0  0  0
   -2.1134    1.2477    0.5210 C   0  0  0  0  0  0  0  0  0  0  0  0
   -2.8450    0.0255   -0.0359 C   0  0  0  0  0  0  0  0  0  0  0  0
   -4.3252    0.2702   -0.3248 C   0  0  0  0  0  0  0  0  0  0  0  0
   -5.1614    0.5905    0.8987 C   0  0  0  0  0  0  0  0  0  0  0  0
   -6.5620    0.2978    0.4028 C   0  0  0  0  0  0  0  0  0  0  0  0
   -6.4481   -0.7544   -0.5659 O   0  0  0  0  0  0  0  0  0  0  0  0
   -5.0599   -0.9441   -0.8727 C   0  0  0  0  0  0  0  0  0  0  0  0
   -2.0343   -0.3454   -1.2757 C   0  0  0  0  0  0  0  0  0  0  0  0
    1.3398   -1.4722   -2.5702 H   0  0  0  0  0  0  0  0  0  0  0  0
    1.7213    0.2777   -2.7406 H   0  0  0  0  0  0  0  0  0  0  0  0
    2.9925   -0.9635   -2.9600 H   0  0  0  0  0  0  0  0  0  0  0  0
    5.0534   -0.0840   -2.0865 H   0  0  0  0  0  0  0  0  0  0  0  0
    6.9394    0.3323   -0.5331 H   0  0  0  0  0  0  0  0  0  0  0  0
    4.2952   -0.1218    2.8641 H   0  0  0  0  0  0  0  0  0  0  0  0
   -0.0650   -1.9842   -0.6584 H   0  0  0  0  0  0  0  0  0  0  0  0
   -0.4450   -1.1300    0.8317 H   0  0  0  0  0  0  0  0  0  0  0  0
    0.0576    1.5087    0.4609 H   0  0  0  0  0  0  0  0  0  0  0  0
   -0.7985    2.1126   -0.9440 H   0  0  0  0  0  0  0  0  0  0  0  0
   -1.9623    1.1330    1.6004 H   0  0  0  0  0  0  0  0  0  0  0  0
   -2.6665    2.1788    0.3563 H   0  0  0  0  0  0  0  0  0  0  0  0
   -2.7583   -0.7883    0.6979 H   0  0  0  0  0  0  0  0  0  0  0  0
   -4.4331    1.0964   -1.0417 H   0  0  0  0  0  0  0  0  0  0  0  0
   -5.0502    1.6187    1.2539 H   0  0  0  0  0  0  0  0  0  0  0  0
   -4.9107   -0.0858    1.7250 H   0  0  0  0  0  0  0  0  0  0  0  0
   -7.2360   -0.0119    1.2064 H   0  0  0  0  0  0  0  0  0  0  0  0
   -6.9947    1.1690   -0.1003 H   0  0  0  0  0  0  0  0  0  0  0  0
   -4.7371   -1.8739   -0.3911 H   0  0  0  0  0  0  0  0  0  0  0  0
   -4.9404   -1.0533   -1.9547 H   0  0  0  0  0  0  0  0  0  0  0  0
   -2.1418   -1.4014   -1.5478 H   0  0  0  0  0  0  0  0  0  0  0  0
   -2.3625    0.2411   -2.1435 H   0  0  0  0  0  0  0  0  0  0  0  0
  1  2  1  0
  2  3  1  0
  3  4  2  0
  4  5  1  0
  5  6  2  0
  6  7  1  0
  7  8  1  0
  7  9  1  0
  7 10  1  0
  6 11  1  0
 11 12  2  0
 12 13  1  0
 13 14  2  0
 14 15  1  0
 15 16  1  0
 16 17  1  0
 17 18  1  0
 18 19  1  0
 19 20  1  0
 20 21  1  0
 21 22  1  0
 22 23  1  0
 23 24  1  0
 19 25  1  0
 14  2  1  0
 25 16  1  0
 12  3  1  0
 24 20  1  0
  1 26  1  0
  1 27  1  0
  1 28  1  0
  4 29  1  0
  5 30  1  0
 11 31  1  0
 15 32  1  0
 15 33  1  0
 17 34  1  0
 17 35  1  0
 18 36  1  0
 18 37  1  0
 19 38  1  0
 20 39  1  0
 21 40  1  0
 21 41  1  0
 22 42  1  0
 22 43  1  0
 24 44  1  0
 24 45  1  0
 25 46  1  0
 25 47  1  0
M  END
$$$$
OCNT-2314691
     RDKit          3D

 53 56  0  0  0  0  0  0  0  0999 V2000
   -0.6924    1.4365    0.8547 O   0  0  0  0  0  0  0  0  0  0  0  0
   -0.1991    0.4692    0.2727 C   0  0  0  0  0  0  0  0  0  0  0  0
    1.2810    0.4334   -0.0552 C   0  0  0  0  0  0  0  0  0  0  0  0
    1.9993    1.6640    0.4909 C   0  0  0  0  0  0  0  0  0  0  0  0
    3.4422    1.6141    0.1659 C   0  0  0  0  0  0  0  0  0  0  0  0
    4.3790    0.8277    0.6410 N   0  0  0  0  0  0  0  0  0  0  0  0
    5.4993    1.2479   -0.0465 C   0  0  0  0  0  0  0  0  0  0  0  0
    6.8098    0.6462    0.1644 C   0  0  0  0  0  0  0  0  0  0  0  0
    6.9682   -0.3878    1.0919 C   0  0  0  0  0  0  0  0  0  0  0  0
    8.2277   -0.9356    1.2636 C   0  0  0  0  0  0  0  0  0  0  0  0
    9.3202   -0.5291    0.5839 N   0  0  0  0  0  0  0  0  0  0  0  0
    9.1475    0.4715   -0.3056 C   0  0  0  0  0  0  0  0  0  0  0  0
    7.9295    1.0834   -0.5487 C   0  0  0  0  0  0  0  0  0  0  0  0
    5.2596    2.2423   -0.9183 N   0  0  0  0  0  0  0  0  0  0  0  0
    3.8958    2.4870   -0.7769 O   0  0  0  0  0  0  0  0  0  0  0  0
   -0.9616   -0.6385   -0.1069 N   0  0  0  0  0  0  0  0  0  0  0  0
   -0.4982   -1.6354   -1.0786 C   0  0  0  0  0  0  0  0  0  0  0  0
   -1.1035   -3.0139   -0.8386 C   0  0  0  0  0  0  0  0  0  0  0  0
   -2.6207   -2.9524   -0.7260 C   0  0  0  0  0  0  0  0  0  0  0  0
   -3.0225   -1.9508    0.3502 C   0  0  0  0  0  0  0  0  0  0  0  0
   -2.4249   -0.5530    0.1105 C   0  0  0  0  0  0  0  0  0  0  0  0
   -3.1077    0.2233   -1.0439 C   0  0  0  0  0  0  0  0  0  0  0  0
   -4.5423    0.6014   -0.7620 C   0  0  0  0  0  0  0  0  0  0  0  0
   -5.5969   -0.0523   -1.4139 C   0  0  0  0  0  0  0  0  0  0  0  0
   -6.9198    0.2992   -1.1414 C   0  0  0  0  0  0  0  0  0  0  0  0
   -7.1911    1.3033   -0.2205 C   0  0  0  0  0  0  0  0  0  0  0  0
   -8.4977    1.6138    0.0151 O   0  0  0  0  0  0  0  0  0  0  0  0
   -6.1595    1.9661    0.4353 C   0  0  0  0  0  0  0  0  0  0  0  0
   -4.8358    1.6148    0.1629 C   0  0  0  0  0  0  0  0  0  0  0  0
    1.7164   -0.4720    0.3844 H   0  0  0  0  0  0  0  0  0  0  0  0
    1.3999    0.3939   -1.1446 H   0  0  0  0  0  0  0  0  0  0  0  0
    1.8816    1.7194    1.5799 H   0  0  0  0  0  0  0  0  0  0  0  0
    1.5536    2.5781    0.0795 H   0  0  0  0  0  0  0  0  0  0  0  0
    6.1309   -0.7623    1.6727 H   0  0  0  0  0  0  0  0  0  0  0  0
    8.3961   -1.7404    1.9740 H   0  0  0  0  0  0  0  0  0  0  0  0
   10.0442    0.7797   -0.8365 H   0  0  0  0  0  0  0  0  0  0  0  0
    7.8645    1.8833   -1.2799 H   0  0  0  0  0  0  0  0  0  0  0  0
   -0.7667   -1.2666   -2.0756 H   0  0  0  0  0  0  0  0  0  0  0  0
    0.5901   -1.7278   -1.0576 H   0  0  0  0  0  0  0  0  0  0  0  0
   -0.8165   -3.6920   -1.6498 H   0  0  0  0  0  0  0  0  0  0  0  0
   -0.6919   -3.4310    0.0891 H   0  0  0  0  0  0  0  0  0  0  0  0
   -3.0119   -3.9442   -0.4721 H   0  0  0  0  0  0  0  0  0  0  0  0
   -3.0591   -2.6744   -1.6909 H   0  0  0  0  0  0  0  0  0  0  0  0
   -2.6587   -2.3219    1.3180 H   0  0  0  0  0  0  0  0  0  0  0  0
   -4.1134   -1.9070    0.4320 H   0  0  0  0  0  0  0  0  0  0  0  0
   -2.5844    0.0129    1.0378 H   0  0  0  0  0  0  0  0  0  0  0  0
   -3.0497   -0.3474   -1.9787 H   0  0  0  0  0  0  0  0  0  0  0  0
   -2.5557    1.1508   -1.2480 H   0  0  0  0  0  0  0  0  0  0  0  0
   -5.3981   -0.8401   -2.1364 H   0  0  0  0  0  0  0  0  0  0  0  0
   -7.7365   -0.2084   -1.6466 H   0  0  0  0  0  0  0  0  0  0  0  0
   -8.5296    2.3302    0.6701 H   0  0  0  0  0  0  0  0  0  0  0  0
   -6.3612    2.7531    1.1545 H   0  0  0  0  0  0  0  0  0  0  0  0
   -4.0289    2.1377    0.6750 H   0  0  0  0  0  0  0  0  0  0  0  0
  1  2  2  0
  2  3  1  0
  3  4  1  0
  4  5  1  0
  5  6  2  0
  6  7  1  0
  7  8  1  0
  8  9  2  0
  9 10  1  0
 10 11  2  0
 11 12  1  0
 12 13  2  0
  7 14  2  0
 14 15  1  0
  2 16  1  0
 16 17  1  0
 17 18  1  0
 18 19  1  0
 19 20  1  0
 20 21  1  0
 21 22  1  0
 22 23  1  0
 23 24  1  0
 24 25  2  0
 25 26  1  0
 26 27  1  0
 26 28  2  0
 28 29  1  0
 15  5  1  0
 21 16  1  0
 29 23  2  0
 13  8  1  0
  3 30  1  0
  3 31  1  0
  4 32  1  0
  4 33  1  0
  9 34  1  0
 10 35  1  0
 12 36  1  0
 13 37  1  0
 17 38  1  0
 17 39  1  0
 18 40  1  0
 18 41  1  0
 19 42  1  0
 19 43  1  0
 20 44  1  0
 20 45  1  0
 21 46  1  0
 22 47  1  0
 22 48  1  0
 24 49  1  0
 25 50  1  0
 27 51  1  0
 28 52  1  0
 29 53  1  0
M  END
$$$$
OCNT-2314695
     RDKit          3D

 41 43  0  0  0  0  0  0  0  0999 V2000
   -3.2316   -3.2399   -3.0019 F   0  0  0  0  0  0  0  0  0  0  0  0
   -1.9322   -3.1251   -2.6053 C   0  0  0  0  0  0  0  0  0  0  0  0
   -1.1945   -3.1392   -3.7549 F   0  0  0  0  0  0  0  0  0  0  0  0
   -1.6324   -4.2926   -1.9658 F   0  0  0  0  0  0  0  0  0  0  0  0
   -1.6529   -1.9064   -1.7444 C   0  0  0  0  0  0  0  0  0  0  0  0
   -0.3431   -1.4980   -1.5707 C   0  0  0  0  0  0  0  0  0  0  0  0
   -0.1187   -0.4010   -0.7659 C   0  0  0  0  0  0  0  0  0  0  0  0
    1.1947    0.0560   -0.6282 N   0  0  0  0  0  0  0  0  0  0  0  0
    1.4020    1.1822    0.2751 C   0  0  0  0  0  0  0  0  0  0  0  0
    2.8973    1.4246    0.5917 C   0  0  0  0  0  0  0  0  0  0  0  0
    3.4073    0.5365    1.7349 C   0  0  0  0  0  0  0  0  0  0  0  0
    3.5861   -0.9239    1.3289 C   0  0  0  0  0  0  0  0  0  0  0  0
    3.6581   -1.0980   -0.0884 O   0  0  0  0  0  0  0  0  0  0  0  0
    4.4751   -0.1057   -0.7109 C   0  0  0  0  0  0  0  0  0  0  0  0
    3.8219    1.2761   -0.6281 C   0  0  0  0  0  0  0  0  0  0  0  0
   -1.1317    0.2621   -0.1905 N   0  0  0  0  0  0  0  0  0  0  0  0
   -2.3812   -0.1905   -0.3921 C   0  0  0  0  0  0  0  0  0  0  0  0
   -3.4857    0.5295    0.2549 C   0  0  0  0  0  0  0  0  0  0  0  0
   -4.8289    0.1472    0.1089 C   0  0  0  0  0  0  0  0  0  0  0  0
   -5.8471    0.8571    0.7457 C   0  0  0  0  0  0  0  0  0  0  0  0
   -5.4994    1.9453    1.5244 C   0  0  0  0  0  0  0  0  0  0  0  0
   -4.2287    2.3592    1.6998 N   0  0  0  0  0  0  0  0  0  0  0  0
   -3.2629    1.6459    1.0624 C   0  0  0  0  0  0  0  0  0  0  0  0
   -2.6839   -1.2617   -1.1449 N   0  0  0  0  0  0  0  0  0  0  0  0
    0.4791   -2.0116   -2.0566 H   0  0  0  0  0  0  0  0  0  0  0  0
    1.8469   -0.7138   -0.4626 H   0  0  0  0  0  0  0  0  0  0  0  0
    0.8606    1.0439    1.2197 H   0  0  0  0  0  0  0  0  0  0  0  0
    1.0018    2.0850   -0.2041 H   0  0  0  0  0  0  0  0  0  0  0  0
    2.9632    2.4642    0.9417 H   0  0  0  0  0  0  0  0  0  0  0  0
    4.3855    0.9220    2.0526 H   0  0  0  0  0  0  0  0  0  0  0  0
    2.7654    0.6068    2.6206 H   0  0  0  0  0  0  0  0  0  0  0  0
    2.7359   -1.5176    1.6808 H   0  0  0  0  0  0  0  0  0  0  0  0
    4.4862   -1.3477    1.7884 H   0  0  0  0  0  0  0  0  0  0  0  0
    4.6195   -0.3874   -1.7589 H   0  0  0  0  0  0  0  0  0  0  0  0
    5.4650   -0.1032   -0.2378 H   0  0  0  0  0  0  0  0  0  0  0  0
    4.6191    2.0291   -0.5876 H   0  0  0  0  0  0  0  0  0  0  0  0
    3.2698    1.4881   -1.5517 H   0  0  0  0  0  0  0  0  0  0  0  0
   -5.0905   -0.7114   -0.5068 H   0  0  0  0  0  0  0  0  0  0  0  0
   -6.8849    0.5638    0.6340 H   0  0  0  0  0  0  0  0  0  0  0  0
   -6.2543    2.5293    2.0421 H   0  0  0  0  0  0  0  0  0  0  0  0
   -2.2556    2.0208    1.2333 H   0  0  0  0  0  0  0  0  0  0  0  0
  1  2  1  0
  2  3  1  0
  2  4  1  0
  2  5  1  0
  5  6  1  0
  6  7  2  0
  7  8  1  0
  8  9  1  0
  9 10  1  0
 10 11  1  0
 11 12  1  0
 12 13  1  0
 13 14  1  0
 14 15  1  0
  7 16  1  0
 16 17  2  0
 17 18  1  0
 18 19  1  0
 19 20  2  0
 20 21  1  0
 21 22  2  0
 22 23  1  0
 17 24  1  0
 24  5  2  0
 15 10  1  0
 23 18  2  0
  6 25  1  0
  8 26  1  0
  9 27  1  0
  9 28  1  0
 10 29  1  0
 11 30  1  0
 11 31  1  0
 12 32  1  0
 12 33  1  0
 14 34  1  0
 14 35  1  0
 15 36  1  0
 15 37  1  0
 19 38  1  0
 20 39  1  0
 21 40  1  0
 23 41  1  0
M  END
$$$$
OCNT-2314714
     RDKit          3D

 55 57  0  0  0  0  0  0  0  0999 V2000
   -5.2603    2.9093    1.3942 C   0  0  0  0  0  0  0  0  0  0  0  0
   -4.2714    2.4890    0.4581 O   0  0  0  0  0  0  0  0  0  0  0  0
   -4.2623    1.1619    0.1057 C   0  0  0  0  0  0  0  0  0  0  0  0
   -5.1689    0.2186    0.5883 C   0  0  0  0  0  0  0  0  0  0  0  0
   -5.0719   -1.1158    0.2056 C   0  0  0  0  0  0  0  0  0  0  0  0
   -4.0618   -1.5459   -0.6576 C   0  0  0  0  0  0  0  0  0  0  0  0
   -3.9762   -2.9012   -1.0108 C   0  0  0  0  0  0  0  0  0  0  0  0
   -2.9744   -3.3578   -1.8609 C   0  0  0  0  0  0  0  0  0  0  0  0
   -2.0418   -2.4644   -2.3634 C   0  0  0  0  0  0  0  0  0  0  0  0
   -2.1163   -1.1145   -2.0195 C   0  0  0  0  0  0  0  0  0  0  0  0
   -3.1272   -0.6127   -1.1670 C   0  0  0  0  0  0  0  0  0  0  0  0
   -3.2498    0.7623   -0.7933 C   0  0  0  0  0  0  0  0  0  0  0  0
   -2.2774    1.7939   -1.3246 C   0  0  0  0  0  0  0  0  0  0  0  0
   -1.0813    1.8300   -0.5145 N   0  0  0  0  0  0  0  0  0  0  0  0
    0.1608    1.9351   -1.0699 C   0  0  0  0  0  0  0  0  0  0  0  0
    0.3865    1.9287   -2.2705 O   0  0  0  0  0  0  0  0  0  0  0  0
    1.1322    2.0276   -0.1055 N   0  0  0  0  0  0  0  0  0  0  0  0
    2.5376    1.9023   -0.4806 C   0  0  0  0  0  0  0  0  0  0  0  0
    3.4423    2.3762    0.6571 C   0  0  0  0  0  0  0  0  0  0  0  0
    4.0229    1.1022    1.2714 C   0  0  0  0  0  0  0  0  0  0  0  0
    3.1880    0.0223    0.7328 N   0  0  0  0  0  0  0  0  0  0  0  0
    3.6728   -1.3576    0.9374 C   0  0  0  0  0  0  0  0  0  0  0  0
    2.5659   -2.3437    0.5032 C   0  0  0  0  0  0  0  0  0  0  0  0
    3.9249   -1.6001    2.4427 C   0  0  0  0  0  0  0  0  0  0  0  0
    4.9601   -1.7036    0.1610 C   0  0  0  0  0  0  0  0  0  0  0  0
    2.9290    0.4284   -0.6598 C   0  0  0  0  0  0  0  0  0  0  0  0
   -6.2651    2.7993    0.9714 H   0  0  0  0  0  0  0  0  0  0  0  0
   -5.1655    2.3688    2.3470 H   0  0  0  0  0  0  0  0  0  0  0  0
   -5.0952    3.9747    1.6043 H   0  0  0  0  0  0  0  0  0  0  0  0
   -5.9639    0.4801    1.2714 H   0  0  0  0  0  0  0  0  0  0  0  0
   -5.7946   -1.8249    0.6030 H   0  0  0  0  0  0  0  0  0  0  0  0
   -4.6950   -3.6166   -0.6209 H   0  0  0  0  0  0  0  0  0  0  0  0
   -2.9229   -4.4057   -2.1264 H   0  0  0  0  0  0  0  0  0  0  0  0
   -1.2527   -2.8075   -3.0237 H   0  0  0  0  0  0  0  0  0  0  0  0
   -1.3547   -0.4562   -2.4304 H   0  0  0  0  0  0  0  0  0  0  0  0
   -2.0420    1.6079   -2.3749 H   0  0  0  0  0  0  0  0  0  0  0  0
   -2.7081    2.8000   -1.3119 H   0  0  0  0  0  0  0  0  0  0  0  0
   -1.1916    2.1790    0.4271 H   0  0  0  0  0  0  0  0  0  0  0  0
    0.8900    1.5599    0.7610 H   0  0  0  0  0  0  0  0  0  0  0  0
    2.7085    2.4793   -1.3956 H   0  0  0  0  0  0  0  0  0  0  0  0
    2.8949    2.9634    1.4021 H   0  0  0  0  0  0  0  0  0  0  0  0
    4.2540    3.0000    0.2663 H   0  0  0  0  0  0  0  0  0  0  0  0
    3.9946    1.1596    2.3622 H   0  0  0  0  0  0  0  0  0  0  0  0
    5.0690    1.0035    0.9580 H   0  0  0  0  0  0  0  0  0  0  0  0
    2.8354   -3.3748    0.7587 H   0  0  0  0  0  0  0  0  0  0  0  0
    2.3931   -2.3218   -0.5775 H   0  0  0  0  0  0  0  0  0  0  0  0
    1.6127   -2.1209    1.0021 H   0  0  0  0  0  0  0  0  0  0  0  0
    4.1615   -2.6533    2.6354 H   0  0  0  0  0  0  0  0  0  0  0  0
    3.0387   -1.3500    3.0396 H   0  0  0  0  0  0  0  0  0  0  0  0
    4.7669   -1.0091    2.8205 H   0  0  0  0  0  0  0  0  0  0  0  0
    5.7892   -1.0346    0.4157 H   0  0  0  0  0  0  0  0  0  0  0  0
    4.8066   -1.6568   -0.9242 H   0  0  0  0  0  0  0  0  0  0  0  0
    5.2884   -2.7239    0.3912 H   0  0  0  0  0  0  0  0  0  0  0  0
    2.1323   -0.1520   -1.1336 H   0  0  0  0  0  0  0  0  0  0  0  0
    3.8334    0.3621   -1.2779 H   0  0  0  0  0  0  0  0  0  0  0  0
  1  2  1  0
  2  3  1  0
  3  4  1  0
  4  5  2  0
  5  6  1  0
  6  7  2  0
  7  8  1  0
  8  9  2  0
  9 10  1  0
 10 11  2  0
 11 12  1  0
 12 13  1  0
 13 14  1  0
 14 15  1  0
 15 16  2  0
 15 17  1  0
 17 18  1  0
 18 19  1  0
 19 20  1  0
 20 21  1  0
 21 22  1  0
 22 23  1  0
 22 24  1  0
 22 25  1  0
 21 26  1  0
 12  3  2  0
 26 18  1  0
 11  6  1  0
  1 27  1  0
  1 28  1  0
  1 29  1  0
  4 30  1  0
  5 31  1  0
  7 32  1  0
  8 33  1  0
  9 34  1  0
 10 35  1  0
 13 36  1  0
 13 37  1  0
 14 38  1  0
 17 39  1  0
 18 40  1  0
 19 41  1  0
 19 42  1  0
 20 43  1  0
 20 44  1  0
 23 45  1  0
 23 46  1  0
 23 47  1  0
 24 48  1  0
 24 49  1  0
 24 50  1  0
 25 51  1  0
 25 52  1  0
 25 53  1  0
 26 54  1  0
 26 55  1  0
M  END
$$$$
OCNT-2314717
     RDKit          3D

 57 59  0  0  0  0  0  0  0  0999 V2000
   -7.7901    0.5374   -0.9804 C   0  0  0  0  0  0  0  0  0  0  0  0
   -6.2854    0.6938   -1.1636 C   0  0  0  0  0  0  0  0  0  0  0  0
   -5.5678    0.0252   -0.0587 N   0  0  0  0  0  0  0  0  0  0  0  0
   -5.3886   -1.4266   -0.2751 C   0  0  0  0  0  0  0  0  0  0  0  0
   -5.0436   -2.1419    1.0258 C   0  0  0  0  0  0  0  0  0  0  0  0
   -4.2881    0.6367    0.0606 C   0  0  0  0  0  0  0  0  0  0  0  0
   -3.9440    1.1802    1.2967 C   0  0  0  0  0  0  0  0  0  0  0  0
   -2.7013    1.7889    1.4559 C   0  0  0  0  0  0  0  0  0  0  0  0
   -1.8252    1.8539    0.3730 C   0  0  0  0  0  0  0  0  0  0  0  0
   -0.4641    2.4744    0.4922 C   0  0  0  0  0  0  0  0  0  0  0  0
    0.5464    1.4718    0.7554 N   0  0  0  0  0  0  0  0  0  0  0  0
    1.2625    0.9129   -0.2695 C   0  0  0  0  0  0  0  0  0  0  0  0
    1.1378    1.2917   -1.4305 O   0  0  0  0  0  0  0  0  0  0  0  0
    2.1566   -0.0789    0.1031 N   0  0  0  0  0  0  0  0  0  0  0  0
    2.2873   -0.6040    1.4613 C   0  0  0  0  0  0  0  0  0  0  0  0
    3.3864   -1.6546    1.6028 C   0  0  0  0  0  0  0  0  0  0  0  0
    4.6674   -1.1841    0.9063 C   0  0  0  0  0  0  0  0  0  0  0  0
    5.7978   -2.1938    1.1173 C   0  0  0  0  0  0  0  0  0  0  0  0
    4.4135   -0.9313   -0.6042 C   0  0  0  0  0  0  0  0  0  0  0  0
    5.2345    0.1736   -1.0959 N   0  0  0  0  0  0  0  0  0  0  0  0
    6.3671    0.0495   -1.8558 C   0  0  0  0  0  0  0  0  0  0  0  0
    6.8181    1.3357   -2.0359 C   0  0  0  0  0  0  0  0  0  0  0  0
    5.9947    2.2315   -1.4076 N   0  0  0  0  0  0  0  0  0  0  0  0
    5.0436    1.5066   -0.8622 C   0  0  0  0  0  0  0  0  0  0  0  0
    2.9193   -0.7550   -0.9489 C   0  0  0  0  0  0  0  0  0  0  0  0
   -2.2497    1.2840   -0.8220 C   0  0  0  0  0  0  0  0  0  0  0  0
   -3.4516    0.6855   -0.9976 N   0  0  0  0  0  0  0  0  0  0  0  0
   -8.0995   -0.5102   -1.0370 H   0  0  0  0  0  0  0  0  0  0  0  0
   -8.3246    1.0866   -1.7618 H   0  0  0  0  0  0  0  0  0  0  0  0
   -8.1077    0.9289   -0.0085 H   0  0  0  0  0  0  0  0  0  0  0  0
   -5.9833    0.2899   -2.1390 H   0  0  0  0  0  0  0  0  0  0  0  0
   -6.0744    1.7723   -1.1718 H   0  0  0  0  0  0  0  0  0  0  0  0
   -6.3288   -1.8576   -0.6381 H   0  0  0  0  0  0  0  0  0  0  0  0
   -4.6360   -1.6452   -1.0442 H   0  0  0  0  0  0  0  0  0  0  0  0
   -5.7811   -1.9176    1.8041 H   0  0  0  0  0  0  0  0  0  0  0  0
   -4.0579   -1.8488    1.4000 H   0  0  0  0  0  0  0  0  0  0  0  0
   -5.0304   -3.2251    0.8680 H   0  0  0  0  0  0  0  0  0  0  0  0
   -4.6450    1.1255    2.1228 H   0  0  0  0  0  0  0  0  0  0  0  0
   -2.4323    2.2103    2.4202 H   0  0  0  0  0  0  0  0  0  0  0  0
   -0.4431    3.1762    1.3337 H   0  0  0  0  0  0  0  0  0  0  0  0
   -0.2224    3.0490   -0.4093 H   0  0  0  0  0  0  0  0  0  0  0  0
    0.3956    0.9098    1.5751 H   0  0  0  0  0  0  0  0  0  0  0  0
    2.4931    0.2418    2.1277 H   0  0  0  0  0  0  0  0  0  0  0  0
    1.3251   -1.0365    1.7586 H   0  0  0  0  0  0  0  0  0  0  0  0
    3.0520   -2.6041    1.1653 H   0  0  0  0  0  0  0  0  0  0  0  0
    3.5695   -1.8459    2.6666 H   0  0  0  0  0  0  0  0  0  0  0  0
    4.9798   -0.2491    1.3920 H   0  0  0  0  0  0  0  0  0  0  0  0
    6.7275   -1.8437    0.6572 H   0  0  0  0  0  0  0  0  0  0  0  0
    5.5476   -3.1676    0.6824 H   0  0  0  0  0  0  0  0  0  0  0  0
    5.9903   -2.3418    2.1852 H   0  0  0  0  0  0  0  0  0  0  0  0
    4.7495   -1.8061   -1.1791 H   0  0  0  0  0  0  0  0  0  0  0  0
    6.7513   -0.9037   -2.1895 H   0  0  0  0  0  0  0  0  0  0  0  0
    7.6933    1.6640   -2.5815 H   0  0  0  0  0  0  0  0  0  0  0  0
    4.2091    1.8965   -0.2935 H   0  0  0  0  0  0  0  0  0  0  0  0
    2.8040   -0.2539   -1.9165 H   0  0  0  0  0  0  0  0  0  0  0  0
    2.4560   -1.7441   -1.0618 H   0  0  0  0  0  0  0  0  0  0  0  0
   -1.6106    1.2868   -1.7029 H   0  0  0  0  0  0  0  0  0  0  0  0
  1  2  1  0
  2  3  1  0
  3  4  1  0
  4  5  1  0
  3  6  1  0
  6  7  2  0
  7  8  1  0
  8  9  2  0
  9 10  1  0
 10 11  1  0
 11 12  1  0
 12 13  2  0
 12 14  1  0
 14 15  1  0
 15 16  1  0
 16 17  1  0
 17 18  1  0
 17 19  1  0
 19 20  1  0
 20 21  1  0
 21 22  2  0
 22 23  1  0
 23 24  2  0
 19 25  1  0
  9 26  1  0
 26 27  2  0
 27  6  1  0
 25 14  1  0
 24 20  1  0
  1 28  1  0
  1 29  1  0
  1 30  1  0
  2 31  1  0
  2 32  1  0
  4 33  1  0
  4 34  1  0
  5 35  1  0
  5 36  1  0
  5 37  1  0
  7 38  1  0
  8 39  1  0
 10 40  1  0
 10 41  1  0
 11 42  1  0
 15 43  1  0
 15 44  1  0
 16 45  1  0
 16 46  1  0
 17 47  1  0
 18 48  1  0
 18 49  1  0
 18 50  1  0
 19 51  1  0
 21 52  1  0
 22 53  1  0
 24 54  1  0
 25 55  1  0
 25 56  1  0
 26 57  1  0
M  END
$$$$
OCNT-2314724
     RDKit          3D

 40 43  0  0  0  0  0  0  0  0999 V2000
    3.6845    2.8114   -0.3735 C   0  0  0  0  0  0  0  0  0  0  0  0
    2.6192    1.7239   -0.4135 C   0  0  0  0  0  0  0  0  0  0  0  0
    2.1046    1.4094    0.9895 C   0  0  0  0  0  0  0  0  0  0  0  0
    1.0705    0.3730    0.8910 N   0  0  0  0  0  0  0  0  0  0  0  0
   -0.1413    0.5998    1.5310 C   0  0  0  0  0  0  0  0  0  0  0  0
   -0.2275    1.4306    2.4411 O   0  0  0  0  0  0  0  0  0  0  0  0
   -1.4131   -0.0726    1.0037 C   0  0  0  0  0  0  0  0  0  0  0  0
   -2.6435    0.3353    1.8505 C   0  0  0  0  0  0  0  0  0  0  0  0
   -3.9140   -0.3659    1.3607 C   0  0  0  0  0  0  0  0  0  0  0  0
   -4.0304   -0.2977   -0.1162 C   0  0  0  0  0  0  0  0  0  0  0  0
   -5.0804   -0.5328   -0.8715 N   0  0  0  0  0  0  0  0  0  0  0  0
   -4.6942   -0.3806   -2.1873 N   0  0  0  0  0  0  0  0  0  0  0  0
   -3.4202   -0.0601   -2.1981 C   0  0  0  0  0  0  0  0  0  0  0  0
   -2.9680   -0.0016   -0.9218 N   0  0  0  0  0  0  0  0  0  0  0  0
   -1.6416    0.3360   -0.4597 C   0  0  0  0  0  0  0  0  0  0  0  0
    1.4912   -0.7617    0.1386 C   0  0  0  0  0  0  0  0  0  0  0  0
    0.9804   -2.0466    0.3485 C   0  0  0  0  0  0  0  0  0  0  0  0
    1.4337   -3.1326   -0.4090 C   0  0  0  0  0  0  0  0  0  0  0  0
    2.4297   -2.9552   -1.3640 C   0  0  0  0  0  0  0  0  0  0  0  0
    2.9934   -1.6958   -1.5440 C   0  0  0  0  0  0  0  0  0  0  0  0
    2.5374   -0.6086   -0.7940 C   0  0  0  0  0  0  0  0  0  0  0  0
    3.2050    0.5693   -1.0300 O   0  0  0  0  0  0  0  0  0  0  0  0
    4.0523    3.0231   -1.3834 H   0  0  0  0  0  0  0  0  0  0  0  0
    4.5507    2.4897    0.2153 H   0  0  0  0  0  0  0  0  0  0  0  0
    3.2922    3.7382    0.0559 H   0  0  0  0  0  0  0  0  0  0  0  0
    1.7940    2.0620   -1.0545 H   0  0  0  0  0  0  0  0  0  0  0  0
    1.7070    2.3185    1.4531 H   0  0  0  0  0  0  0  0  0  0  0  0
    2.9008    1.0177    1.6354 H   0  0  0  0  0  0  0  0  0  0  0  0
   -1.3420   -1.1558    1.0913 H   0  0  0  0  0  0  0  0  0  0  0  0
   -2.7851    1.4235    1.7962 H   0  0  0  0  0  0  0  0  0  0  0  0
   -2.4805    0.0926    2.9077 H   0  0  0  0  0  0  0  0  0  0  0  0
   -4.7926    0.0892    1.8305 H   0  0  0  0  0  0  0  0  0  0  0  0
   -3.8910   -1.4196    1.6630 H   0  0  0  0  0  0  0  0  0  0  0  0
   -2.8166    0.1315   -3.0736 H   0  0  0  0  0  0  0  0  0  0  0  0
   -0.9320   -0.1586   -1.1302 H   0  0  0  0  0  0  0  0  0  0  0  0
   -1.5301    1.4195   -0.5902 H   0  0  0  0  0  0  0  0  0  0  0  0
    0.2857   -2.2628    1.1517 H   0  0  0  0  0  0  0  0  0  0  0  0
    1.0270   -4.1259   -0.2307 H   0  0  0  0  0  0  0  0  0  0  0  0
    2.7885   -3.8012   -1.9451 H   0  0  0  0  0  0  0  0  0  0  0  0
    3.7962   -1.5586   -2.2642 H   0  0  0  0  0  0  0  0  0  0  0  0
  1  2  1  0
  2  3  1  0
  3  4  1  0
  4  5  1  0
  5  6  2  0
  5  7  1  0
  7  8  1  0
  8  9  1  0
  9 10  1  0
 10 11  2  0
 11 12  1  0
 12 13  2  0
 13 14  1  0
 14 15  1  0
  4 16  1  0
 16 17  2  0
 17 18  1  0
 18 19  2  0
 19 20  1  0
 20 21  2  0
 21 22  1  0
 22  2  1  0
 15  7  1  0
 21 16  1  0
 14 10  1  0
  1 23  1  0
  1 24  1  0
  1 25  1  0
  2 26  1  0
  3 27  1  0
  3 28  1  0
  7 29  1  0
  8 30  1  0
  8 31  1  0
  9 32  1  0
  9 33  1  0
 13 34  1  0
 15 35  1  0
 15 36  1  0
 17 37  1  0
 18 38  1  0
 19 39  1  0
 20 40  1  0
M  END
$$$$
OCNT-2314757
     RDKit          3D

 42 45  0  0  0  0  0  0  0  0999 V2000
   -4.1251    2.9496    1.4963 C   0  0  0  0  0  0  0  0  0  0  0  0
   -3.2900    1.8950    1.0340 O   0  0  0  0  0  0  0  0  0  0  0  0
   -3.8669    0.9691    0.2153 C   0  0  0  0  0  0  0  0  0  0  0  0
   -5.2046    0.9356   -0.1886 C   0  0  0  0  0  0  0  0  0  0  0  0
   -5.6760   -0.0824   -1.0400 C   0  0  0  0  0  0  0  0  0  0  0  0
   -4.8211   -1.0838   -1.5026 C   0  0  0  0  0  0  0  0  0  0  0  0
   -3.4993   -1.0470   -1.0988 C   0  0  0  0  0  0  0  0  0  0  0  0
   -3.0313   -0.0337   -0.2521 C   0  0  0  0  0  0  0  0  0  0  0  0
   -1.5760   -0.2297    0.0261 C   0  0  0  0  0  0  0  0  0  0  0  0
   -1.2456   -1.4598   -0.7053 N   0  0  0  0  0  0  0  0  0  0  0  0
    0.0144   -1.9656   -0.9469 C   0  0  0  0  0  0  0  0  0  0  0  0
    0.2354   -2.8623   -1.7565 O   0  0  0  0  0  0  0  0  0  0  0  0
    1.1583   -1.3969   -0.2164 C   0  0  0  0  0  0  0  0  0  0  0  0
    1.2176   -1.3558    1.1707 C   0  0  0  0  0  0  0  0  0  0  0  0
    2.3515   -0.8147    1.7784 C   0  0  0  0  0  0  0  0  0  0  0  0
    3.4116   -0.3439    0.9947 C   0  0  0  0  0  0  0  0  0  0  0  0
    4.5148    0.2247    1.6817 N   0  0  0  0  0  0  0  0  0  0  0  0
    5.6694    0.8660    1.0388 C   0  0  0  0  0  0  0  0  0  0  0  0
    6.3633    0.3287   -0.1769 C   0  0  0  0  0  0  0  0  0  0  0  0
    5.6280    1.6425   -0.2423 C   0  0  0  0  0  0  0  0  0  0  0  0
    3.3528   -0.3968   -0.3510 N   0  0  0  0  0  0  0  0  0  0  0  0
    2.2493   -0.9341   -0.9292 C   0  0  0  0  0  0  0  0  0  0  0  0
   -2.3877   -1.9806   -1.4527 C   0  0  0  0  0  0  0  0  0  0  0  0
   -4.5092    3.5446    0.6612 H   0  0  0  0  0  0  0  0  0  0  0  0
   -4.9411    2.5633    2.1159 H   0  0  0  0  0  0  0  0  0  0  0  0
   -3.5154    3.6086    2.1220 H   0  0  0  0  0  0  0  0  0  0  0  0
   -5.9164    1.6868    0.1388 H   0  0  0  0  0  0  0  0  0  0  0  0
   -6.7213   -0.0862   -1.3415 H   0  0  0  0  0  0  0  0  0  0  0  0
   -5.1874   -1.8652   -2.1611 H   0  0  0  0  0  0  0  0  0  0  0  0
   -0.9699    0.5959   -0.3587 H   0  0  0  0  0  0  0  0  0  0  0  0
   -1.4004   -0.3841    1.0934 H   0  0  0  0  0  0  0  0  0  0  0  0
    0.4077   -1.7471    1.7782 H   0  0  0  0  0  0  0  0  0  0  0  0
    2.4033   -0.7555    2.8612 H   0  0  0  0  0  0  0  0  0  0  0  0
    4.7723   -0.4103    2.4333 H   0  0  0  0  0  0  0  0  0  0  0  0
    6.3206    1.2876    1.8038 H   0  0  0  0  0  0  0  0  0  0  0  0
    5.9323   -0.5171   -0.6983 H   0  0  0  0  0  0  0  0  0  0  0  0
    7.4460    0.3526   -0.1962 H   0  0  0  0  0  0  0  0  0  0  0  0
    6.2154    2.5508   -0.3021 H   0  0  0  0  0  0  0  0  0  0  0  0
    4.7042    1.6849   -0.8048 H   0  0  0  0  0  0  0  0  0  0  0  0
    2.2720   -0.9733   -2.0150 H   0  0  0  0  0  0  0  0  0  0  0  0
   -2.1670   -1.9558   -2.5246 H   0  0  0  0  0  0  0  0  0  0  0  0
   -2.5884   -3.0049   -1.1243 H   0  0  0  0  0  0  0  0  0  0  0  0
  1  2  1  0
  2  3  1  0
  3  4  1  0
  4  5  2  0
  5  6  1  0
  6  7  2  0
  7  8  1  0
  8  9  1  0
  9 10  1  0
 10 11  1  0
 11 12  2  0
 11 13  1  0
 13 14  2  0
 14 15  1  0
 15 16  2  0
 16 17  1  0
 17 18  1  0
 18 19  1  0
 19 20  1  0
 16 21  1  0
 21 22  2  0
 10 23  1  0
  8  3  2  0
 22 13  1  0
 23  7  1  0
 20 18  1  0
  1 24  1  0
  1 25  1  0
  1 26  1  0
  4 27  1  0
  5 28  1  0
  6 29  1  0
  9 30  1  0
  9 31  1  0
 14 32  1  0
 15 33  1  0
 17 34  1  0
 18 35  1  0
 19 36  1  0
 19 37  1  0
 20 38  1  0
 20 39  1  0
 22 40  1  0
 23 41  1  0
 23 42  1  0
M  END
$$$$
OCNT-2314762
     RDKit          3D

 38 41  0  0  0  0  0  0  0  0999 V2000
    7.1257   -0.5866    0.6043 C   0  0  0  0  0  0  0  0  0  0  0  0
    7.1896    0.1063   -0.6030 C   0  0  0  0  0  0  0  0  0  0  0  0
    6.0289    0.5591   -1.2376 C   0  0  0  0  0  0  0  0  0  0  0  0
    4.8049    0.2898   -0.6147 C   0  0  0  0  0  0  0  0  0  0  0  0
    3.5222    0.6076   -0.9986 N   0  0  0  0  0  0  0  0  0  0  0  0
    2.6239    0.1409   -0.0779 C   0  0  0  0  0  0  0  0  0  0  0  0
    1.1028    0.3276   -0.2085 C   0  0  0  0  0  0  0  0  0  0  0  0
    0.1427   -0.1092    0.6700 C   0  0  0  0  0  0  0  0  0  0  0  0
   -1.0211    0.3060    0.0974 N   0  0  0  0  0  0  0  0  0  0  0  0
   -2.3716    0.1107    0.5815 C   0  0  0  0  0  0  0  0  0  0  0  0
   -3.1544   -0.8730   -0.2886 C   0  0  0  0  0  0  0  0  0  0  0  0
   -4.5112   -1.2433    0.3077 C   0  0  0  0  0  0  0  0  0  0  0  0
   -5.3995   -0.1157    0.4875 N   0  0  0  0  0  0  0  0  0  0  0  0
   -5.9885    0.6173   -0.5030 C   0  0  0  0  0  0  0  0  0  0  0  0
   -6.7226    1.5757    0.1562 C   0  0  0  0  0  0  0  0  0  0  0  0
   -6.6006    1.4318    1.5143 N   0  0  0  0  0  0  0  0  0  0  0  0
   -5.8088    0.3979    1.6843 C   0  0  0  0  0  0  0  0  0  0  0  0
   -0.8015    0.9567   -1.0586 N   0  0  0  0  0  0  0  0  0  0  0  0
    0.5105    0.9739   -1.2577 N   0  0  0  0  0  0  0  0  0  0  0  0
    3.3265   -0.4888    0.9231 C   0  0  0  0  0  0  0  0  0  0  0  0
    4.7095   -0.4017    0.5943 C   0  0  0  0  0  0  0  0  0  0  0  0
    5.8929   -0.8474    1.2141 C   0  0  0  0  0  0  0  0  0  0  0  0
    8.0419   -0.9285    1.0795 H   0  0  0  0  0  0  0  0  0  0  0  0
    8.1576    0.2992   -1.0602 H   0  0  0  0  0  0  0  0  0  0  0  0
    6.0821    1.0989   -2.1774 H   0  0  0  0  0  0  0  0  0  0  0  0
    3.2697    1.1132   -1.8367 H   0  0  0  0  0  0  0  0  0  0  0  0
    0.1875   -0.6490    1.6029 H   0  0  0  0  0  0  0  0  0  0  0  0
   -2.3021   -0.2551    1.6123 H   0  0  0  0  0  0  0  0  0  0  0  0
   -2.8471    1.0975    0.6041 H   0  0  0  0  0  0  0  0  0  0  0  0
   -3.2899   -0.4497   -1.2920 H   0  0  0  0  0  0  0  0  0  0  0  0
   -2.5709   -1.7933   -0.4193 H   0  0  0  0  0  0  0  0  0  0  0  0
   -5.0287   -1.9536   -0.3477 H   0  0  0  0  0  0  0  0  0  0  0  0
   -4.3803   -1.7316    1.2803 H   0  0  0  0  0  0  0  0  0  0  0  0
   -5.8420    0.4147   -1.5549 H   0  0  0  0  0  0  0  0  0  0  0  0
   -7.3326    2.3597   -0.2741 H   0  0  0  0  0  0  0  0  0  0  0  0
   -5.5051   -0.0073    2.6409 H   0  0  0  0  0  0  0  0  0  0  0  0
    2.9068   -0.9631    1.7994 H   0  0  0  0  0  0  0  0  0  0  0  0
    5.8528   -1.3875    2.1552 H   0  0  0  0  0  0  0  0  0  0  0  0
  1  2  2  0
  2  3  1  0
  3  4  2  0
  4  5  1  0
  5  6  1  0
  6  7  1  0
  7  8  2  0
  8  9  1  0
  9 10  1  0
 10 11  1  0
 11 12  1  0
 12 13  1  0
 13 14  1  0
 14 15  2  0
 15 16  1  0
 16 17  2  0
  9 18  1  0
 18 19  2  0
  6 20  2  0
 20 21  1  0
 21 22  2  0
 22  1  1  0
 21  4  1  0
 19  7  1  0
 17 13  1  0
  1 23  1  0
  2 24  1  0
  3 25  1  0
  5 26  1  0
  8 27  1  0
 10 28  1  0
 10 29  1  0
 11 30  1  0
 11 31  1  0
 12 32  1  0
 12 33  1  0
 14 34  1  0
 15 35  1  0
 17 36  1  0
 20 37  1  0
 22 38  1  0
M  END
$$$$
OCNT-2314763
     RDKit          3D

 57 59  0  0  0  0  0  0  0  0999 V2000
    6.2504   -1.0862   -1.2963 C   0  0  0  0  0  0  0  0  0  0  0  0
    5.5292   -1.8282   -0.2111 C   0  0  0  0  0  0  0  0  0  0  0  0
    6.2507   -2.6266    0.6763 C   0  0  0  0  0  0  0  0  0  0  0  0
    5.7048   -3.3350    1.6890 N   0  0  0  0  0  0  0  0  0  0  0  0
    4.3694   -3.2489    1.8349 C   0  0  0  0  0  0  0  0  0  0  0  0
    3.5556   -2.4943    1.0076 C   0  0  0  0  0  0  0  0  0  0  0  0
    4.1339   -1.7734   -0.0471 C   0  0  0  0  0  0  0  0  0  0  0  0
    3.2377   -0.9369   -0.9264 C   0  0  0  0  0  0  0  0  0  0  0  0
    2.9627    0.3363   -0.2975 N   0  0  0  0  0  0  0  0  0  0  0  0
    1.7606    0.6072    0.3134 C   0  0  0  0  0  0  0  0  0  0  0  0
    0.7950   -0.1497    0.2592 O   0  0  0  0  0  0  0  0  0  0  0  0
    1.7147    1.9733    1.0051 C   0  0  0  0  0  0  0  0  0  0  0  0
    0.5694    2.0841    2.0282 C   0  0  0  0  0  0  0  0  0  0  0  0
   -0.5979    2.9677    1.5711 C   0  0  0  0  0  0  0  0  0  0  0  0
   -0.9168    2.8060    0.0825 C   0  0  0  0  0  0  0  0  0  0  0  0
   -1.4256    1.4678   -0.1907 N   0  0  0  0  0  0  0  0  0  0  0  0
   -2.7439    1.1331    0.0457 C   0  0  0  0  0  0  0  0  0  0  0  0
   -3.5983    1.9467    0.3799 O   0  0  0  0  0  0  0  0  0  0  0  0
   -3.0115   -0.3505   -0.1408 C   0  0  0  0  0  0  0  0  0  0  0  0
   -4.4957   -0.7043   -0.0700 C   0  0  0  0  0  0  0  0  0  0  0  0
   -4.7411   -2.2147   -0.0726 C   0  0  0  0  0  0  0  0  0  0  0  0
   -6.1782   -2.3849   -0.5631 C   0  0  0  0  0  0  0  0  0  0  0  0
   -6.5818   -1.0498   -1.1875 C   0  0  0  0  0  0  0  0  0  0  0  0
   -5.2951   -0.2438   -1.2884 C   0  0  0  0  0  0  0  0  0  0  0  0
    0.3079    3.1179   -0.7946 C   0  0  0  0  0  0  0  0  0  0  0  0
    1.6453    3.0861   -0.0439 C   0  0  0  0  0  0  0  0  0  0  0  0
    7.3370   -1.1879   -1.1991 H   0  0  0  0  0  0  0  0  0  0  0  0
    6.0178   -0.0163   -1.2495 H   0  0  0  0  0  0  0  0  0  0  0  0
    5.9660   -1.4793   -2.2787 H   0  0  0  0  0  0  0  0  0  0  0  0
    7.3317   -2.7225    0.5980 H   0  0  0  0  0  0  0  0  0  0  0  0
    3.9532   -3.8196    2.6604 H   0  0  0  0  0  0  0  0  0  0  0  0
    2.4838   -2.4645    1.1850 H   0  0  0  0  0  0  0  0  0  0  0  0
    3.7039   -0.7287   -1.8941 H   0  0  0  0  0  0  0  0  0  0  0  0
    2.3076   -1.4786   -1.1384 H   0  0  0  0  0  0  0  0  0  0  0  0
    3.7489    0.9506   -0.1284 H   0  0  0  0  0  0  0  0  0  0  0  0
    2.6584    2.0656    1.5594 H   0  0  0  0  0  0  0  0  0  0  0  0
    0.9648    2.5134    2.9584 H   0  0  0  0  0  0  0  0  0  0  0  0
    0.1904    1.0928    2.3048 H   0  0  0  0  0  0  0  0  0  0  0  0
   -1.4779    2.7465    2.1875 H   0  0  0  0  0  0  0  0  0  0  0  0
   -0.3454    4.0185    1.7665 H   0  0  0  0  0  0  0  0  0  0  0  0
   -1.7155    3.5097   -0.1821 H   0  0  0  0  0  0  0  0  0  0  0  0
   -0.7563    0.6962   -0.1861 H   0  0  0  0  0  0  0  0  0  0  0  0
   -2.4712   -0.8794    0.6535 H   0  0  0  0  0  0  0  0  0  0  0  0
   -2.5885   -0.6660   -1.1016 H   0  0  0  0  0  0  0  0  0  0  0  0
   -4.9425   -0.2749    0.8381 H   0  0  0  0  0  0  0  0  0  0  0  0
   -4.5972   -2.6556    0.9200 H   0  0  0  0  0  0  0  0  0  0  0  0
   -4.0550   -2.7219   -0.7635 H   0  0  0  0  0  0  0  0  0  0  0  0
   -6.8490   -2.6342    0.2664 H   0  0  0  0  0  0  0  0  0  0  0  0
   -6.2424   -3.2012   -1.2925 H   0  0  0  0  0  0  0  0  0  0  0  0
   -7.0647   -1.1758   -2.1625 H   0  0  0  0  0  0  0  0  0  0  0  0
   -7.2942   -0.5369   -0.5290 H   0  0  0  0  0  0  0  0  0  0  0  0
   -4.7702   -0.4916   -2.2191 H   0  0  0  0  0  0  0  0  0  0  0  0
   -5.4911    0.8325   -1.2852 H   0  0  0  0  0  0  0  0  0  0  0  0
    0.3502    2.4353   -1.6531 H   0  0  0  0  0  0  0  0  0  0  0  0
    0.1940    4.1236   -1.2192 H   0  0  0  0  0  0  0  0  0  0  0  0
    2.4608    3.0002   -0.7713 H   0  0  0  0  0  0  0  0  0  0  0  0
    1.7911    4.0513    0.4591 H   0  0  0  0  0  0  0  0  0  0  0  0
  1  2  1  0
  2  3  2  0
  3  4  1  0
  4  5  2  0
  5  6  1  0
  6  7  2  0
  7  8  1  0
  8  9  1  0
  9 10  1  0
 10 11  2  0
 10 12  1  0
 12 13  1  0
 13 14  1  0
 14 15  1  0
 15 16  1  0
 16 17  1  0
 17 18  2  0
 17 19  1  0
 19 20  1  0
 20 21  1  0
 21 22  1  0
 22 23  1  0
 23 24  1  0
 15 25  1  0
 25 26  1  0
  7  2  1  0
 26 12  1  0
 24 20  1  0
  1 27  1  0
  1 28  1  0
  1 29  1  0
  3 30  1  0
  5 31  1  0
  6 32  1  0
  8 33  1  0
  8 34  1  0
  9 35  1  0
 12 36  1  0
 13 37  1  0
 13 38  1  0
 14 39  1  0
 14 40  1  0
 15 41  1  0
 16 42  1  0
 19 43  1  0
 19 44  1  0
 20 45  1  0
 21 46  1  0
 21 47  1  0
 22 48  1  0
 22 49  1  0
 23 50  1  0
 23 51  1  0
 24 52  1  0
 24 53  1  0
 25 54  1  0
 25 55  1  0
 26 56  1  0
 26 57  1  0
M  END
$$$$
OCNT-2314770
     RDKit          3D

 50 53  0  0  0  0  0  0  0  0999 V2000
    6.6571   -0.8061    0.3057 C   0  0  0  0  0  0  0  0  0  0  0  0
    5.3902   -0.2137   -0.3136 C   0  0  0  0  0  0  0  0  0  0  0  0
    5.6412    1.2155   -0.7973 C   0  0  0  0  0  0  0  0  0  0  0  0
    4.2225   -0.2861    0.6266 C   0  0  0  0  0  0  0  0  0  0  0  0
    4.2382    0.3507    1.8022 N   0  0  0  0  0  0  0  0  0  0  0  0
    2.7757    0.0335    2.5369 S   0  0  0  0  0  0  0  0  0  0  0  0
    2.2088   -0.9319    1.2323 C   0  0  0  0  0  0  0  0  0  0  0  0
    0.8537   -1.5784    1.2692 C   0  0  0  0  0  0  0  0  0  0  0  0
   -0.1236   -0.9430    0.3763 N   0  0  0  0  0  0  0  0  0  0  0  0
   -0.4937    0.4243    0.7511 C   0  0  0  0  0  0  0  0  0  0  0  0
   -1.7633    0.6703   -0.0896 C   0  0  0  0  0  0  0  0  0  0  0  0
   -1.3772    1.0550   -1.5329 C   0  0  0  0  0  0  0  0  0  0  0  0
   -2.4643    0.7546   -2.5563 C   0  0  0  0  0  0  0  0  0  0  0  0
   -2.8740   -0.7095   -2.4837 C   0  0  0  0  0  0  0  0  0  0  0  0
   -3.4420   -1.0362   -1.1090 C   0  0  0  0  0  0  0  0  0  0  0  0
   -2.4918   -0.6809    0.0531 C   0  0  0  0  0  0  0  0  0  0  0  0
   -3.2973   -0.4591    1.3495 C   0  0  0  0  0  0  0  0  0  0  0  0
   -3.7795    0.9146    1.1933 N   0  0  0  0  0  0  0  0  0  0  0  0
   -4.2715    1.4925    2.4330 C   0  0  0  0  0  0  0  0  0  0  0  0
   -2.6956    1.6965    0.5798 C   0  0  0  0  0  0  0  0  0  0  0  0
   -1.3692   -1.7152    0.2527 C   0  0  0  0  0  0  0  0  0  0  0  0
    3.1052   -1.0337    0.2701 N   0  0  0  0  0  0  0  0  0  0  0  0
    6.4868   -1.8382    0.6320 H   0  0  0  0  0  0  0  0  0  0  0  0
    6.9869   -0.2317    1.1787 H   0  0  0  0  0  0  0  0  0  0  0  0
    7.4768   -0.8140   -0.4206 H   0  0  0  0  0  0  0  0  0  0  0  0
    5.1449   -0.8188   -1.1966 H   0  0  0  0  0  0  0  0  0  0  0  0
    4.7422    1.6338   -1.2637 H   0  0  0  0  0  0  0  0  0  0  0  0
    6.4465    1.2382   -1.5392 H   0  0  0  0  0  0  0  0  0  0  0  0
    5.9257    1.8774    0.0284 H   0  0  0  0  0  0  0  0  0  0  0  0
    0.9958   -2.6197    0.9506 H   0  0  0  0  0  0  0  0  0  0  0  0
    0.4693   -1.6194    2.2966 H   0  0  0  0  0  0  0  0  0  0  0  0
   -0.6925    0.5007    1.8275 H   0  0  0  0  0  0  0  0  0  0  0  0
    0.2947    1.1435    0.5028 H   0  0  0  0  0  0  0  0  0  0  0  0
   -1.1163    2.1198   -1.5764 H   0  0  0  0  0  0  0  0  0  0  0  0
   -0.4727    0.5158   -1.8440 H   0  0  0  0  0  0  0  0  0  0  0  0
   -2.0913    0.9817   -3.5615 H   0  0  0  0  0  0  0  0  0  0  0  0
   -3.3350    1.3986   -2.3867 H   0  0  0  0  0  0  0  0  0  0  0  0
   -3.6303   -0.9170   -3.2493 H   0  0  0  0  0  0  0  0  0  0  0  0
   -2.0140   -1.3529   -2.7029 H   0  0  0  0  0  0  0  0  0  0  0  0
   -4.3913   -0.4941   -1.0066 H   0  0  0  0  0  0  0  0  0  0  0  0
   -3.7029   -2.1009   -1.0633 H   0  0  0  0  0  0  0  0  0  0  0  0
   -2.6708   -0.5618    2.2448 H   0  0  0  0  0  0  0  0  0  0  0  0
   -4.1284   -1.1672    1.4410 H   0  0  0  0  0  0  0  0  0  0  0  0
   -5.1039    0.8998    2.8274 H   0  0  0  0  0  0  0  0  0  0  0  0
   -3.4935    1.5466    3.2028 H   0  0  0  0  0  0  0  0  0  0  0  0
   -4.6539    2.5039    2.2582 H   0  0  0  0  0  0  0  0  0  0  0  0
   -2.1440    2.2972    1.3138 H   0  0  0  0  0  0  0  0  0  0  0  0
   -3.1350    2.3901   -0.1449 H   0  0  0  0  0  0  0  0  0  0  0  0
   -1.5685   -2.3323    1.1378 H   0  0  0  0  0  0  0  0  0  0  0  0
   -1.2747   -2.3927   -0.6025 H   0  0  0  0  0  0  0  0  0  0  0  0
  1  2  1  0
  2  3  1  0
  2  4  1  0
  4  5  2  0
  5  6  1  0
  6  7  1  0
  7  8  1  0
  8  9  1  0
  9 10  1  0
 10 11  1  0
 11 12  1  0
 12 13  1  0
 13 14  1  0
 14 15  1  0
 15 16  1  0
 16 17  1  0
 17 18  1  0
 18 19  1  0
 18 20  1  0
 16 21  1  0
  7 22  2  0
 22  4  1  0
 21  9  1  0
 16 11  1  0
 20 11  1  0
  1 23  1  0
  1 24  1  0
  1 25  1  0
  2 26  1  0
  3 27  1  0
  3 28  1  0
  3 29  1  0
  8 30  1  0
  8 31  1  0
 10 32  1  0
 10 33  1  0
 12 34  1  0
 12 35  1  0
 13 36  1  0
 13 37  1  0
 14 38  1  0
 14 39  1  0
 15 40  1  0
 15 41  1  0
 17 42  1  0
 17 43  1  0
 19 44  1  0
 19 45  1  0
 19 46  1  0
 20 47  1  0
 20 48  1  0
 21 49  1  0
 21 50  1  0
M  END
$$$$
OCNT-2314771
     RDKit          3D

 37 39  0  0  0  0  0  0  0  0999 V2000
   -5.4235    1.2784    2.5610 C   0  0  0  0  0  0  0  0  0  0  0  0
   -5.2584    0.8140    1.1351 C   0  0  0  0  0  0  0  0  0  0  0  0
   -6.2284    0.7182    0.3919 O   0  0  0  0  0  0  0  0  0  0  0  0
   -3.9361    0.5628    0.8175 N   0  0  0  0  0  0  0  0  0  0  0  0
   -3.4171    0.1213   -0.4176 C   0  0  0  0  0  0  0  0  0  0  0  0
   -4.1958   -0.1472   -1.5405 C   0  0  0  0  0  0  0  0  0  0  0  0
   -3.5968   -0.5812   -2.7245 C   0  0  0  0  0  0  0  0  0  0  0  0
   -2.2123   -0.7528   -2.7965 C   0  0  0  0  0  0  0  0  0  0  0  0
   -1.4009   -0.4946   -1.6830 C   0  0  0  0  0  0  0  0  0  0  0  0
    0.0688   -0.6521   -1.6860 C   0  0  0  0  0  0  0  0  0  0  0  0
    0.8464   -0.2586   -0.6934 N   0  0  0  0  0  0  0  0  0  0  0  0
    2.1786   -0.5575   -0.9534 C   0  0  0  0  0  0  0  0  0  0  0  0
    3.2244   -0.1951    0.0014 C   0  0  0  0  0  0  0  0  0  0  0  0
    3.0233    0.9463    0.7975 C   0  0  0  0  0  0  0  0  0  0  0  0
    3.9803    1.3519    1.7301 C   0  0  0  0  0  0  0  0  0  0  0  0
    5.1469    0.6156    1.8798 C   0  0  0  0  0  0  0  0  0  0  0  0
    6.0537    1.0498    2.8008 O   0  0  0  0  0  0  0  0  0  0  0  0
    5.3733   -0.5252    1.1161 C   0  0  0  0  0  0  0  0  0  0  0  0
    4.4103   -0.9287    0.1827 C   0  0  0  0  0  0  0  0  0  0  0  0
    4.6381   -2.0700   -0.5418 O   0  0  0  0  0  0  0  0  0  0  0  0
    2.3982   -1.1547   -2.1770 C   0  0  0  0  0  0  0  0  0  0  0  0
    0.9147   -1.3860   -2.9968 S   0  0  0  0  0  0  0  0  0  0  0  0
   -2.0281   -0.0545   -0.5006 C   0  0  0  0  0  0  0  0  0  0  0  0
   -4.7365    0.7486    3.2272 H   0  0  0  0  0  0  0  0  0  0  0  0
   -6.4446    1.0718    2.8942 H   0  0  0  0  0  0  0  0  0  0  0  0
   -5.2339    2.3536    2.6158 H   0  0  0  0  0  0  0  0  0  0  0  0
   -3.2544    0.7188    1.5499 H   0  0  0  0  0  0  0  0  0  0  0  0
   -5.2748   -0.0287   -1.5308 H   0  0  0  0  0  0  0  0  0  0  0  0
   -4.2155   -0.7850   -3.5955 H   0  0  0  0  0  0  0  0  0  0  0  0
   -1.7914   -1.0865   -3.7413 H   0  0  0  0  0  0  0  0  0  0  0  0
    2.1120    1.5320    0.6892 H   0  0  0  0  0  0  0  0  0  0  0  0
    3.8119    2.2388    2.3345 H   0  0  0  0  0  0  0  0  0  0  0  0
    6.8197    0.4533    2.8014 H   0  0  0  0  0  0  0  0  0  0  0  0
    6.2867   -1.0946    1.2457 H   0  0  0  0  0  0  0  0  0  0  0  0
    5.4358   -2.5115   -0.2079 H   0  0  0  0  0  0  0  0  0  0  0  0
    3.3318   -1.4610   -2.6255 H   0  0  0  0  0  0  0  0  0  0  0  0
   -1.4063    0.1506    0.3699 H   0  0  0  0  0  0  0  0  0  0  0  0
  1  2  1  0
  2  3  2  0
  2  4  1  0
  4  5  1  0
  5  6  2  0
  6  7  1  0
  7  8  2  0
  8  9  1  0
  9 10  1  0
 10 11  2  0
 11 12  1  0
 12 13  1  0
 13 14  1  0
 14 15  2  0
 15 16  1  0
 16 17  1  0
 16 18  2  0
 18 19  1  0
 19 20  1  0
 12 21  2  0
 21 22  1  0
  9 23  2  0
 23  5  1  0
 22 10  1  0
 19 13  2  0
  1 24  1  0
  1 25  1  0
  1 26  1  0
  4 27  1  0
  6 28  1  0
  7 29  1  0
  8 30  1  0
 14 31  1  0
 15 32  1  0
 17 33  1  0
 18 34  1  0
 20 35  1  0
 21 36  1  0
 23 37  1  0
M  END
$$$$
OCNT-2314773
     RDKit          3D

 44 45  0  0  0  0  0  0  0  0999 V2000
   -2.2810   -0.2528   -2.4264 C   0  0  0  0  0  0  0  0  0  0  0  0
   -3.2141   -0.7515   -1.3186 C   0  0  0  0  0  0  0  0  0  0  0  0
   -4.1611    0.3456   -0.8307 C   0  0  0  0  0  0  0  0  0  0  0  0
   -3.4322    1.3781    0.0212 C   0  0  0  0  0  0  0  0  0  0  0  0
   -2.6071    0.7331    1.1560 C   0  0  0  0  0  0  0  0  0  0  0  0
   -1.8905    1.8680    1.9048 C   0  0  0  0  0  0  0  0  0  0  0  0
   -1.6710   -0.2787    0.6043 N   0  0  0  0  0  0  0  0  0  0  0  0
   -0.8580   -0.9378    1.6682 C   0  0  0  0  0  0  0  0  0  0  0  0
    0.3549   -1.6717    1.0736 C   0  0  0  0  0  0  0  0  0  0  0  0
    0.8915   -2.6214    1.6374 O   0  0  0  0  0  0  0  0  0  0  0  0
    0.8134   -1.1213   -0.1007 N   0  0  0  0  0  0  0  0  0  0  0  0
    2.0033   -1.5661   -0.7753 C   0  0  0  0  0  0  0  0  0  0  0  0
    3.1613   -0.6493   -0.4735 C   0  0  0  0  0  0  0  0  0  0  0  0
    3.8971   -0.8117    0.7097 C   0  0  0  0  0  0  0  0  0  0  0  0
    4.9573    0.0467    1.0105 C   0  0  0  0  0  0  0  0  0  0  0  0
    5.2894    1.0827    0.1331 C   0  0  0  0  0  0  0  0  0  0  0  0
    6.3755    1.9664    0.4404 C   0  0  0  0  0  0  0  0  0  0  0  0
    7.2538    2.6845    0.6858 N   0  0  0  0  0  0  0  0  0  0  0  0
    4.5544    1.2573   -1.0440 C   0  0  0  0  0  0  0  0  0  0  0  0
    3.4935    0.3981   -1.3437 C   0  0  0  0  0  0  0  0  0  0  0  0
   -2.4291   -1.3222   -0.1289 C   0  0  0  0  0  0  0  0  0  0  0  0
   -1.6522   -1.0708   -2.7941 H   0  0  0  0  0  0  0  0  0  0  0  0
   -2.8600    0.1280   -3.2744 H   0  0  0  0  0  0  0  0  0  0  0  0
   -1.6177    0.5482   -2.0861 H   0  0  0  0  0  0  0  0  0  0  0  0
   -3.8224   -1.5589   -1.7464 H   0  0  0  0  0  0  0  0  0  0  0  0
   -4.6538    0.8378   -1.6771 H   0  0  0  0  0  0  0  0  0  0  0  0
   -4.9560   -0.1116   -0.2275 H   0  0  0  0  0  0  0  0  0  0  0  0
   -4.1732    2.0662    0.4471 H   0  0  0  0  0  0  0  0  0  0  0  0
   -2.7792    1.9855   -0.6187 H   0  0  0  0  0  0  0  0  0  0  0  0
   -3.3009    0.2488    1.8572 H   0  0  0  0  0  0  0  0  0  0  0  0
   -2.5884    2.6797    2.1401 H   0  0  0  0  0  0  0  0  0  0  0  0
   -1.0779    2.2912    1.3039 H   0  0  0  0  0  0  0  0  0  0  0  0
   -1.4757    1.5310    2.8592 H   0  0  0  0  0  0  0  0  0  0  0  0
   -0.4194   -0.2071    2.3534 H   0  0  0  0  0  0  0  0  0  0  0  0
   -1.4603   -1.6427    2.2526 H   0  0  0  0  0  0  0  0  0  0  0  0
    0.2965   -0.3162   -0.4427 H   0  0  0  0  0  0  0  0  0  0  0  0
    2.2493   -2.5942   -0.4865 H   0  0  0  0  0  0  0  0  0  0  0  0
    1.7890   -1.5732   -1.8496 H   0  0  0  0  0  0  0  0  0  0  0  0
    3.6380   -1.6094    1.4058 H   0  0  0  0  0  0  0  0  0  0  0  0
    5.5150   -0.0987    1.9337 H   0  0  0  0  0  0  0  0  0  0  0  0
    4.7999    2.0634   -1.7330 H   0  0  0  0  0  0  0  0  0  0  0  0
    2.9272    0.5523   -2.2600 H   0  0  0  0  0  0  0  0  0  0  0  0
   -3.1267   -1.8297    0.5519 H   0  0  0  0  0  0  0  0  0  0  0  0
   -1.7521   -2.0951   -0.5120 H   0  0  0  0  0  0  0  0  0  0  0  0
  1  2  1  0
  2  3  1  0
  3  4  1  0
  4  5  1  0
  5  6  1  0
  5  7  1  0
  7  8  1  0
  8  9  1  0
  9 10  2  0
  9 11  1  0
 11 12  1  0
 12 13  1  0
 13 14  1  0
 14 15  2  0
 15 16  1  0
 16 17  1  0
 17 18  3  0
 16 19  2  0
 19 20  1  0
  7 21  1  0
 21  2  1  0
 20 13  2  0
  1 22  1  0
  1 23  1  0
  1 24  1  0
  2 25  1  0
  3 26  1  0
  3 27  1  0
  4 28  1  0
  4 29  1  0
  5 30  1  0
  6 31  1  0
  6 32  1  0
  6 33  1  0
  8 34  1  0
  8 35  1  0
 11 36  1  0
 12 37  1  0
 12 38  1  0
 14 39  1  0
 15 40  1  0
 19 41  1  0
 20 42  1  0
 21 43  1  0
 21 44  1  0
M  END
$$$$
OCNT-2314777
     RDKit          3D

 40 43  0  0  0  0  0  0  0  0999 V2000
    5.7622    0.2065   -1.7133 C   0  0  0  0  0  0  0  0  0  0  0  0
    4.9478   -0.8126   -1.2548 C   0  0  0  0  0  0  0  0  0  0  0  0
    3.7570   -0.6486   -0.6486 N   0  0  0  0  0  0  0  0  0  0  0  0
    3.3350    0.6458   -0.4830 C   0  0  0  0  0  0  0  0  0  0  0  0
    4.1097    1.7211   -0.9240 C   0  0  0  0  0  0  0  0  0  0  0  0
    5.3456    1.5217   -1.5508 C   0  0  0  0  0  0  0  0  0  0  0  0
    3.2766    3.1619   -0.5549 S   0  0  0  0  0  0  0  0  0  0  0  0
    1.9680    2.4567    0.1425 N   0  0  0  0  0  0  0  0  0  0  0  0
    2.0906    1.1250    0.1387 C   0  0  0  0  0  0  0  0  0  0  0  0
    1.1126    0.3022    0.6629 N   0  0  0  0  0  0  0  0  0  0  0  0
    1.3294   -1.1394    0.8185 C   0  0  0  0  0  0  0  0  0  0  0  0
    0.1486   -1.8236    1.5122 C   0  0  0  0  0  0  0  0  0  0  0  0
   -1.1679   -1.3519    0.9073 C   0  0  0  0  0  0  0  0  0  0  0  0
   -1.3289    0.1807    0.9996 C   0  0  0  0  0  0  0  0  0  0  0  0
   -1.8802    0.7801   -0.3128 C   0  0  0  0  0  0  0  0  0  0  0  0
   -3.2806    0.3299   -0.6404 C   0  0  0  0  0  0  0  0  0  0  0  0
   -4.3737    0.7739    0.0988 C   0  0  0  0  0  0  0  0  0  0  0  0
   -5.6531    0.4047   -0.1367 N   0  0  0  0  0  0  0  0  0  0  0  0
   -5.8571   -0.4461   -1.1643 C   0  0  0  0  0  0  0  0  0  0  0  0
   -4.8429   -0.9439   -1.9649 C   0  0  0  0  0  0  0  0  0  0  0  0
   -3.5361   -0.5475   -1.6968 C   0  0  0  0  0  0  0  0  0  0  0  0
   -0.0134    0.8794    1.3969 C   0  0  0  0  0  0  0  0  0  0  0  0
    6.7095   -0.0199   -2.1917 H   0  0  0  0  0  0  0  0  0  0  0  0
    5.2546   -1.8498   -1.3723 H   0  0  0  0  0  0  0  0  0  0  0  0
    5.9489    2.3551   -1.8942 H   0  0  0  0  0  0  0  0  0  0  0  0
    2.2338   -1.3342    1.4069 H   0  0  0  0  0  0  0  0  0  0  0  0
    1.4466   -1.5972   -0.1709 H   0  0  0  0  0  0  0  0  0  0  0  0
    0.1623   -1.6056    2.5873 H   0  0  0  0  0  0  0  0  0  0  0  0
    0.2421   -2.9110    1.4122 H   0  0  0  0  0  0  0  0  0  0  0  0
   -2.0063   -1.8404    1.4179 H   0  0  0  0  0  0  0  0  0  0  0  0
   -1.2044   -1.6871   -0.1365 H   0  0  0  0  0  0  0  0  0  0  0  0
   -2.0485    0.3961    1.8015 H   0  0  0  0  0  0  0  0  0  0  0  0
   -1.2061    0.5425   -1.1462 H   0  0  0  0  0  0  0  0  0  0  0  0
   -1.8929    1.8762   -0.2474 H   0  0  0  0  0  0  0  0  0  0  0  0
   -4.2488    1.4638    0.9292 H   0  0  0  0  0  0  0  0  0  0  0  0
   -6.8925   -0.7263   -1.3342 H   0  0  0  0  0  0  0  0  0  0  0  0
   -5.0647   -1.6243   -2.7790 H   0  0  0  0  0  0  0  0  0  0  0  0
   -2.7230   -0.9254   -2.3114 H   0  0  0  0  0  0  0  0  0  0  0  0
    0.1655    0.7521    2.4728 H   0  0  0  0  0  0  0  0  0  0  0  0
   -0.1249    1.9594    1.2457 H   0  0  0  0  0  0  0  0  0  0  0  0
  1  2  2  0
  2  3  1  0
  3  4  2  0
  4  5  1  0
  5  6  2  0
  5  7  1  0
  7  8  1  0
  8  9  2  0
  9 10  1  0
 10 11  1  0
 11 12  1  0
 12 13  1  0
 13 14  1  0
 14 15  1  0
 15 16  1  0
 16 17  2  0
 17 18  1  0
 18 19  2  0
 19 20  1  0
 20 21  2  0
 14 22  1  0
  6  1  1  0
 22 10  1  0
  9  4  1  0
 21 16  1  0
  1 23  1  0
  2 24  1  0
  6 25  1  0
 11 26  1  0
 11 27  1  0
 12 28  1  0
 12 29  1  0
 13 30  1  0
 13 31  1  0
 14 32  1  0
 15 33  1  0
 15 34  1  0
 17 35  1  0
 19 36  1  0
 20 37  1  0
 21 38  1  0
 22 39  1  0
 22 40  1  0
M  END
$$$$
OCNT-2314781
     RDKit          3D

 52 56  0  0  0  0  0  0  0  0999 V2000
    1.4340    0.4923   -2.2617 O   0  0  0  0  0  0  0  0  0  0  0  0
    1.5333    0.3224   -1.0450 C   0  0  0  0  0  0  0  0  0  0  0  0
    2.7634    0.3387   -0.4154 N   0  0  0  0  0  0  0  0  0  0  0  0
    2.9591    0.7921    0.9676 C   0  0  0  0  0  0  0  0  0  0  0  0
    4.2606    1.5658    1.2043 C   0  0  0  0  0  0  0  0  0  0  0  0
    5.4216    0.7784    0.6648 C   0  0  0  0  0  0  0  0  0  0  0  0
    6.6504    0.7104    1.3260 C   0  0  0  0  0  0  0  0  0  0  0  0
    7.6970   -0.0252    0.7704 C   0  0  0  0  0  0  0  0  0  0  0  0
    7.5232   -0.6809   -0.4487 C   0  0  0  0  0  0  0  0  0  0  0  0
    6.3023   -0.6016   -1.1200 C   0  0  0  0  0  0  0  0  0  0  0  0
    5.2422    0.1226   -0.5646 C   0  0  0  0  0  0  0  0  0  0  0  0
    3.9330    0.2894   -1.2955 C   0  0  0  0  0  0  0  0  0  0  0  0
    0.4125    0.0976   -0.2763 N   0  0  0  0  0  0  0  0  0  0  0  0
    0.3535   -0.7241    0.9274 C   0  0  0  0  0  0  0  0  0  0  0  0
   -1.0387   -1.3472    0.9188 C   0  0  0  0  0  0  0  0  0  0  0  0
   -1.8700   -0.2979    0.1756 C   0  0  0  0  0  0  0  0  0  0  0  0
   -3.1436   -0.7645   -0.3128 N   0  0  0  0  0  0  0  0  0  0  0  0
   -3.3525   -1.8303   -1.1521 C   0  0  0  0  0  0  0  0  0  0  0  0
   -4.6308   -2.0276   -1.3941 N   0  0  0  0  0  0  0  0  0  0  0  0
   -5.2732   -1.0502   -0.6932 C   0  0  0  0  0  0  0  0  0  0  0  0
   -4.3767   -0.2462   -0.0248 C   0  0  0  0  0  0  0  0  0  0  0  0
   -4.7291    0.9061    0.8428 C   0  0  0  0  0  0  0  0  0  0  0  0
   -6.1999    1.3072    0.5995 C   0  0  0  0  0  0  0  0  0  0  0  0
   -7.1391    0.0877    0.4874 C   0  0  0  0  0  0  0  0  0  0  0  0
   -6.7435   -0.8520   -0.6702 C   0  0  0  0  0  0  0  0  0  0  0  0
   -0.9009    0.1677   -0.9081 C   0  0  0  0  0  0  0  0  0  0  0  0
    2.1151    1.4196    1.2723 H   0  0  0  0  0  0  0  0  0  0  0  0
    2.9634   -0.1084    1.5933 H   0  0  0  0  0  0  0  0  0  0  0  0
    4.2263    2.5359    0.6941 H   0  0  0  0  0  0  0  0  0  0  0  0
    4.3796    1.7542    2.2771 H   0  0  0  0  0  0  0  0  0  0  0  0
    6.8003    1.2249    2.2717 H   0  0  0  0  0  0  0  0  0  0  0  0
    8.6527   -0.0833    1.2849 H   0  0  0  0  0  0  0  0  0  0  0  0
    8.3440   -1.2470   -0.8816 H   0  0  0  0  0  0  0  0  0  0  0  0
    6.1858   -1.1015   -2.0788 H   0  0  0  0  0  0  0  0  0  0  0  0
    3.9670    1.2251   -1.8681 H   0  0  0  0  0  0  0  0  0  0  0  0
    3.7857   -0.5322   -2.0073 H   0  0  0  0  0  0  0  0  0  0  0  0
    1.1414   -1.4827    0.9352 H   0  0  0  0  0  0  0  0  0  0  0  0
    0.4599   -0.0661    1.7953 H   0  0  0  0  0  0  0  0  0  0  0  0
   -1.4116   -1.5505    1.9273 H   0  0  0  0  0  0  0  0  0  0  0  0
   -1.0129   -2.2986    0.3741 H   0  0  0  0  0  0  0  0  0  0  0  0
   -2.0545    0.5364    0.8645 H   0  0  0  0  0  0  0  0  0  0  0  0
   -2.5462   -2.4288   -1.5563 H   0  0  0  0  0  0  0  0  0  0  0  0
   -4.0809    1.7664    0.6454 H   0  0  0  0  0  0  0  0  0  0  0  0
   -4.5982    0.6185    1.8926 H   0  0  0  0  0  0  0  0  0  0  0  0
   -6.5362    1.9637    1.4102 H   0  0  0  0  0  0  0  0  0  0  0  0
   -6.2675    1.8884   -0.3297 H   0  0  0  0  0  0  0  0  0  0  0  0
   -7.1092   -0.4680    1.4335 H   0  0  0  0  0  0  0  0  0  0  0  0
   -8.1725    0.4237    0.3467 H   0  0  0  0  0  0  0  0  0  0  0  0
   -7.0558   -0.4092   -1.6231 H   0  0  0  0  0  0  0  0  0  0  0  0
   -7.2609   -1.8114   -0.5639 H   0  0  0  0  0  0  0  0  0  0  0  0
   -1.0988    1.1909   -1.2437 H   0  0  0  0  0  0  0  0  0  0  0  0
   -0.9038   -0.4907   -1.7850 H   0  0  0  0  0  0  0  0  0  0  0  0
  1  2  2  0
  2  3  1  0
  3  4  1  0
  4  5  1  0
  5  6  1  0
  6  7  2  0
  7  8  1  0
  8  9  2  0
  9 10  1  0
 10 11  2  0
 11 12  1  0
  2 13  1  0
 13 14  1  0
 14 15  1  0
 15 16  1  0
 16 17  1  0
 17 18  1  0
 18 19  2  0
 19 20  1  0
 20 21  2  0
 21 22  1  0
 22 23  1  0
 23 24  1  0
 24 25  1  0
 16 26  1  0
 12  3  1  0
 26 13  1  0
 11  6  1  0
 21 17  1  0
 25 20  1  0
  4 27  1  0
  4 28  1  0
  5 29  1  0
  5 30  1  0
  7 31  1  0
  8 32  1  0
  9 33  1  0
 10 34  1  0
 12 35  1  0
 12 36  1  0
 14 37  1  0
 14 38  1  0
 15 39  1  0
 15 40  1  0
 16 41  1  0
 18 42  1  0
 22 43  1  0
 22 44  1  0
 23 45  1  0
 23 46  1  0
 24 47  1  0
 24 48  1  0
 25 49  1  0
 25 50  1  0
 26 51  1  0
 26 52  1  0
M  END
$$$$
OCNT-2314790
     RDKit          3D

 54 56  0  0  0  0  0  0  0  0999 V2000
   -7.3008    1.3766    0.8064 C   0  0  0  0  0  0  0  0  0  0  0  0
   -5.8169    1.0724    0.6118 C   0  0  0  0  0  0  0  0  0  0  0  0
   -5.4994    0.7694   -0.8538 C   0  0  0  0  0  0  0  0  0  0  0  0
   -3.9958    0.5906   -1.0860 C   0  0  0  0  0  0  0  0  0  0  0  0
   -3.2436    0.0284    0.1379 C   0  0  0  0  0  0  0  0  0  0  0  0
   -1.9822   -0.6250   -0.2696 N   0  0  0  0  0  0  0  0  0  0  0  0
   -2.0372   -2.0266   -0.6760 C   0  0  0  0  0  0  0  0  0  0  0  0
   -0.8626    0.2003   -0.4641 C   0  0  0  0  0  0  0  0  0  0  0  0
   -0.9318    1.4195   -0.2887 O   0  0  0  0  0  0  0  0  0  0  0  0
    0.4510   -0.4992   -0.8831 C   0  0  0  0  0  0  0  0  0  0  0  0
    1.6169    0.4082   -0.8763 N   0  0  0  0  0  0  0  0  0  0  0  0
    2.7631   -0.2082   -1.5710 C   0  0  0  0  0  0  0  0  0  0  0  0
    4.1132    0.4928   -1.2919 C   0  0  0  0  0  0  0  0  0  0  0  0
    4.4222    0.5119    0.1473 N   0  0  0  0  0  0  0  0  0  0  0  0
    5.6685    0.0741    0.5761 C   0  0  0  0  0  0  0  0  0  0  0  0
    6.8308    0.4349   -0.1161 C   0  0  0  0  0  0  0  0  0  0  0  0
    8.0820    0.0085    0.3332 C   0  0  0  0  0  0  0  0  0  0  0  0
    8.1470   -0.7644    1.4749 C   0  0  0  0  0  0  0  0  0  0  0  0
    9.3265   -1.1923    1.9412 F   0  0  0  0  0  0  0  0  0  0  0  0
    6.9718   -1.0769    2.1251 C   0  0  0  0  0  0  0  0  0  0  0  0
    5.7482   -0.6730    1.7031 N   0  0  0  0  0  0  0  0  0  0  0  0
    3.2934    0.2463    1.0526 C   0  0  0  0  0  0  0  0  0  0  0  0
    1.9868    0.8535    0.4890 C   0  0  0  0  0  0  0  0  0  0  0  0
   -4.1616   -0.8580    0.9892 C   0  0  0  0  0  0  0  0  0  0  0  0
   -5.3718   -0.0841    1.5233 C   0  0  0  0  0  0  0  0  0  0  0  0
   -7.5150    1.6073    1.8551 H   0  0  0  0  0  0  0  0  0  0  0  0
   -7.6018    2.2406    0.2047 H   0  0  0  0  0  0  0  0  0  0  0  0
   -7.9240    0.5259    0.5107 H   0  0  0  0  0  0  0  0  0  0  0  0
   -5.2569    1.9721    0.9009 H   0  0  0  0  0  0  0  0  0  0  0  0
   -5.8707    1.5695   -1.5055 H   0  0  0  0  0  0  0  0  0  0  0  0
   -6.0224   -0.1466   -1.1592 H   0  0  0  0  0  0  0  0  0  0  0  0
   -3.8556   -0.0492   -1.9657 H   0  0  0  0  0  0  0  0  0  0  0  0
   -3.5532    1.5590   -1.3531 H   0  0  0  0  0  0  0  0  0  0  0  0
   -2.9683    0.8828    0.7718 H   0  0  0  0  0  0  0  0  0  0  0  0
   -1.1056   -2.3835   -1.1140 H   0  0  0  0  0  0  0  0  0  0  0  0
   -2.2591   -2.6415    0.2008 H   0  0  0  0  0  0  0  0  0  0  0  0
   -2.8273   -2.1506   -1.4229 H   0  0  0  0  0  0  0  0  0  0  0  0
    0.2934   -0.8597   -1.9066 H   0  0  0  0  0  0  0  0  0  0  0  0
    0.6373   -1.3515   -0.2196 H   0  0  0  0  0  0  0  0  0  0  0  0
    2.5744   -0.1883   -2.6509 H   0  0  0  0  0  0  0  0  0  0  0  0
    2.8608   -1.2634   -1.2800 H   0  0  0  0  0  0  0  0  0  0  0  0
    4.8812   -0.0324   -1.8725 H   0  0  0  0  0  0  0  0  0  0  0  0
    4.0761    1.5265   -1.6558 H   0  0  0  0  0  0  0  0  0  0  0  0
    6.7735    1.0732   -0.9917 H   0  0  0  0  0  0  0  0  0  0  0  0
    8.9887    0.2852   -0.1926 H   0  0  0  0  0  0  0  0  0  0  0  0
    6.9816   -1.6753    3.0292 H   0  0  0  0  0  0  0  0  0  0  0  0
    3.1555   -0.8339    1.1937 H   0  0  0  0  0  0  0  0  0  0  0  0
    3.4848    0.6976    2.0341 H   0  0  0  0  0  0  0  0  0  0  0  0
    1.1815    0.6756    1.2115 H   0  0  0  0  0  0  0  0  0  0  0  0
    2.1123    1.9429    0.4401 H   0  0  0  0  0  0  0  0  0  0  0  0
   -3.6092   -1.2910    1.8315 H   0  0  0  0  0  0  0  0  0  0  0  0
   -4.5254   -1.7030    0.3910 H   0  0  0  0  0  0  0  0  0  0  0  0
   -5.1322    0.3270    2.5121 H   0  0  0  0  0  0  0  0  0  0  0  0
   -6.1918   -0.7953    1.6836 H   0  0  0  0  0  0  0  0  0  0  0  0
  1  2  1  0
  2  3  1  0
  3  4  1  0
  4  5  1  0
  5  6  1  0
  6  7  1  0
  6  8  1  0
  8  9  2  0
  8 10  1  0
 10 11  1  0
 11 12  1  0
 12 13  1  0
 13 14  1  0
 14 15  1  0
 15 16  2  0
 16 17  1  0
 17 18  2  0
 18 19  1  0
 18 20  1  0
 20 21  2  0
 14 22  1  0
 22 23  1  0
  5 24  1  0
 24 25  1  0
 25  2  1  0
 23 11  1  0
 21 15  1  0
  1 26  1  0
  1 27  1  0
  1 28  1  0
  2 29  1  0
  3 30  1  0
  3 31  1  0
  4 32  1  0
  4 33  1  0
  5 34  1  0
  7 35  1  0
  7 36  1  0
  7 37  1  0
 10 38  1  0
 10 39  1  0
 12 40  1  0
 12 41  1  0
 13 42  1  0
 13 43  1  0
 16 44  1  0
 17 45  1  0
 20 46  1  0
 22 47  1  0
 22 48  1  0
 23 49  1  0
 23 50  1  0
 24 51  1  0
 24 52  1  0
 25 53  1  0
 25 54  1  0
M  END
$$$$
OCNT-2314795
     RDKit          3D

 41 43  0  0  0  0  0  0  0  0999 V2000
    3.2001    2.2641   -1.5321 C   0  0  0  0  0  0  0  0  0  0  0  0
    2.2121    2.0871   -0.3779 C   0  0  0  0  0  0  0  0  0  0  0  0
    2.8539    1.4138    0.8512 C   0  0  0  0  0  0  0  0  0  0  0  0
    3.4330    0.0368    0.6211 C   0  0  0  0  0  0  0  0  0  0  0  0
    2.6105   -1.1005    0.6349 C   0  0  0  0  0  0  0  0  0  0  0  0
    3.1529   -2.3679    0.4155 C   0  0  0  0  0  0  0  0  0  0  0  0
    4.5162   -2.5008    0.1859 C   0  0  0  0  0  0  0  0  0  0  0  0
    5.0357   -3.7179   -0.0218 F   0  0  0  0  0  0  0  0  0  0  0  0
    5.3490   -1.3896    0.1709 C   0  0  0  0  0  0  0  0  0  0  0  0
    4.8089   -0.1212    0.3884 C   0  0  0  0  0  0  0  0  0  0  0  0
    0.9408    1.3678   -0.8393 C   0  0  0  0  0  0  0  0  0  0  0  0
    0.8620    0.8170   -1.9315 O   0  0  0  0  0  0  0  0  0  0  0  0
   -0.0798    1.4280    0.0974 N   0  0  0  0  0  0  0  0  0  0  0  0
   -1.3516    0.8255   -0.0040 C   0  0  0  0  0  0  0  0  0  0  0  0
   -2.2564    1.0410    1.0366 C   0  0  0  0  0  0  0  0  0  0  0  0
   -3.5300    0.4644    0.9983 C   0  0  0  0  0  0  0  0  0  0  0  0
   -3.8728   -0.3270   -0.0931 C   0  0  0  0  0  0  0  0  0  0  0  0
   -5.1565   -0.9352   -0.1771 N   0  0  0  0  0  0  0  0  0  0  0  0
   -5.6006   -1.7364   -1.2082 C   0  0  0  0  0  0  0  0  0  0  0  0
   -6.8830   -2.1020   -0.8801 C   0  0  0  0  0  0  0  0  0  0  0  0
   -7.2503   -1.5557    0.3187 N   0  0  0  0  0  0  0  0  0  0  0  0
   -6.2023   -0.8651    0.7147 C   0  0  0  0  0  0  0  0  0  0  0  0
   -3.0106   -0.5543   -1.1152 N   0  0  0  0  0  0  0  0  0  0  0  0
   -1.7808    0.0208   -1.0524 C   0  0  0  0  0  0  0  0  0  0  0  0
    4.0975    2.7966   -1.2005 H   0  0  0  0  0  0  0  0  0  0  0  0
    3.5062    1.3050   -1.9626 H   0  0  0  0  0  0  0  0  0  0  0  0
    2.7439    2.8479   -2.3396 H   0  0  0  0  0  0  0  0  0  0  0  0
    1.8990    3.0959   -0.0734 H   0  0  0  0  0  0  0  0  0  0  0  0
    2.1281    1.3432    1.6717 H   0  0  0  0  0  0  0  0  0  0  0  0
    3.6468    2.0696    1.2358 H   0  0  0  0  0  0  0  0  0  0  0  0
    1.5410   -1.0141    0.8121 H   0  0  0  0  0  0  0  0  0  0  0  0
    2.5205   -3.2499    0.4186 H   0  0  0  0  0  0  0  0  0  0  0  0
    6.4109   -1.5174   -0.0126 H   0  0  0  0  0  0  0  0  0  0  0  0
    5.4694    0.7431    0.3699 H   0  0  0  0  0  0  0  0  0  0  0  0
    0.0845    1.9872    0.9248 H   0  0  0  0  0  0  0  0  0  0  0  0
   -1.9899    1.6582    1.8906 H   0  0  0  0  0  0  0  0  0  0  0  0
   -4.2075    0.6542    1.8223 H   0  0  0  0  0  0  0  0  0  0  0  0
   -4.9753   -1.9655   -2.0601 H   0  0  0  0  0  0  0  0  0  0  0  0
   -7.5592   -2.7301   -1.4459 H   0  0  0  0  0  0  0  0  0  0  0  0
   -6.1626   -0.3038    1.6368 H   0  0  0  0  0  0  0  0  0  0  0  0
   -1.1538   -0.2129   -1.9066 H   0  0  0  0  0  0  0  0  0  0  0  0
  1  2  1  0
  2  3  1  0
  3  4  1  0
  4  5  1  0
  5  6  2  0
  6  7  1  0
  7  8  1  0
  7  9  2  0
  9 10  1  0
  2 11  1  0
 11 12  2  0
 11 13  1  0
 13 14  1  0
 14 15  2  0
 15 16  1  0
 16 17  2  0
 17 18  1  0
 18 19  1  0
 19 20  2  0
 20 21  1  0
 21 22  2  0
 17 23  1  0
 23 24  2  0
 10  4  2  0
 24 14  1  0
 22 18  1  0
  1 25  1  0
  1 26  1  0
  1 27  1  0
  2 28  1  0
  3 29  1  0
  3 30  1  0
  5 31  1  0
  6 32  1  0
  9 33  1  0
 10 34  1  0
 13 35  1  0
 15 36  1  0
 16 37  1  0
 19 38  1  0
 20 39  1  0
 22 40  1  0
 24 41  1  0
M  END
$$$$
OCNT-2314796
     RDKit          3D

 60 64  0  0  0  0  0  0  0  0999 V2000
   -3.9016    4.0945    3.5488 F   0  0  0  0  0  0  0  0  0  0  0  0
   -3.7854    3.0938    2.6658 C   0  0  0  0  0  0  0  0  0  0  0  0
   -3.8851    1.7792    3.1055 C   0  0  0  0  0  0  0  0  0  0  0  0
   -3.7632    0.7345    2.1882 C   0  0  0  0  0  0  0  0  0  0  0  0
   -3.5397    1.0051    0.8263 C   0  0  0  0  0  0  0  0  0  0  0  0
   -3.3852   -0.1548   -0.1729 C   0  0  0  0  0  0  0  0  0  0  0  0
   -1.8698   -0.2478   -0.5882 C   0  0  0  0  0  0  0  0  0  0  0  0
   -0.9553   -0.4566    0.5550 N   0  0  0  0  0  0  0  0  0  0  0  0
    0.4572   -0.5124    0.1442 C   0  0  0  0  0  0  0  0  0  0  0  0
    1.2964   -1.0336    1.3091 C   0  0  0  0  0  0  0  0  0  0  0  0
    2.7411   -1.2445    0.8538 C   0  0  0  0  0  0  0  0  0  0  0  0
    3.2274   -0.1370    0.0074 N   0  0  0  0  0  0  0  0  0  0  0  0
    4.6257   -0.0720   -0.1190 C   0  0  0  0  0  0  0  0  0  0  0  0
    5.3548    1.1310    0.0510 C   0  0  0  0  0  0  0  0  0  0  0  0
    6.7499    1.1862   -0.0857 C   0  0  0  0  0  0  0  0  0  0  0  0
    7.4086    0.0232   -0.4017 C   0  0  0  0  0  0  0  0  0  0  0  0
    8.7490   -0.1148   -0.5760 O   0  0  0  0  0  0  0  0  0  0  0  0
    8.8354   -1.5191   -0.8946 C   0  0  0  0  0  0  0  0  0  0  0  0
    7.5572   -2.1878   -0.8948 O   0  0  0  0  0  0  0  0  0  0  0  0
    6.7298   -1.1543   -0.5800 C   0  0  0  0  0  0  0  0  0  0  0  0
    5.3568   -1.2306   -0.4491 C   0  0  0  0  0  0  0  0  0  0  0  0
    2.4525    1.1029    0.0500 C   0  0  0  0  0  0  0  0  0  0  0  0
    0.9925    0.8474   -0.3337 C   0  0  0  0  0  0  0  0  0  0  0  0
   -4.3077    0.0252   -1.3345 N   0  0  0  0  0  0  0  0  0  0  0  0
   -4.2411   -1.0603   -2.3279 C   0  0  0  0  0  0  0  0  0  0  0  0
   -5.1091   -2.1824   -1.7808 C   0  0  0  0  0  0  0  0  0  0  0  0
   -6.1201   -1.4833   -0.8845 C   0  0  0  0  0  0  0  0  0  0  0  0
   -5.7286   -0.0121   -0.9255 C   0  0  0  0  0  0  0  0  0  0  0  0
   -3.4420    2.3445    0.4061 C   0  0  0  0  0  0  0  0  0  0  0  0
   -3.5657    3.3864    1.3256 C   0  0  0  0  0  0  0  0  0  0  0  0
   -4.0565    1.5764    4.1577 H   0  0  0  0  0  0  0  0  0  0  0  0
   -3.8365   -0.2927    2.5391 H   0  0  0  0  0  0  0  0  0  0  0  0
   -3.6350   -1.0912    0.3449 H   0  0  0  0  0  0  0  0  0  0  0  0
   -1.5923    0.6607   -1.1363 H   0  0  0  0  0  0  0  0  0  0  0  0
   -1.7279   -1.0965   -1.2630 H   0  0  0  0  0  0  0  0  0  0  0  0
   -1.0856    0.3027    1.2260 H   0  0  0  0  0  0  0  0  0  0  0  0
    0.5518   -1.2383   -0.6753 H   0  0  0  0  0  0  0  0  0  0  0  0
    0.8993   -1.9834    1.6884 H   0  0  0  0  0  0  0  0  0  0  0  0
    1.2682   -0.3243    2.1470 H   0  0  0  0  0  0  0  0  0  0  0  0
    2.7863   -2.1793    0.2818 H   0  0  0  0  0  0  0  0  0  0  0  0
    3.3704   -1.3654    1.7451 H   0  0  0  0  0  0  0  0  0  0  0  0
    4.8481    2.0541    0.3177 H   0  0  0  0  0  0  0  0  0  0  0  0
    7.2903    2.1151    0.0549 H   0  0  0  0  0  0  0  0  0  0  0  0
    9.2873   -1.6262   -1.8875 H   0  0  0  0  0  0  0  0  0  0  0  0
    9.4855   -2.0061   -0.1586 H   0  0  0  0  0  0  0  0  0  0  0  0
    4.8628   -2.1783   -0.6288 H   0  0  0  0  0  0  0  0  0  0  0  0
    2.8429    1.8474   -0.6547 H   0  0  0  0  0  0  0  0  0  0  0  0
    2.5044    1.5400    1.0555 H   0  0  0  0  0  0  0  0  0  0  0  0
    0.8875    0.8959   -1.4255 H   0  0  0  0  0  0  0  0  0  0  0  0
    0.3925    1.6775    0.0611 H   0  0  0  0  0  0  0  0  0  0  0  0
   -4.6811   -0.6901   -3.2638 H   0  0  0  0  0  0  0  0  0  0  0  0
   -3.2377   -1.3986   -2.5926 H   0  0  0  0  0  0  0  0  0  0  0  0
   -4.5105   -2.8867   -1.1916 H   0  0  0  0  0  0  0  0  0  0  0  0
   -5.5972   -2.7438   -2.5837 H   0  0  0  0  0  0  0  0  0  0  0  0
   -6.0533   -1.8794    0.1352 H   0  0  0  0  0  0  0  0  0  0  0  0
   -7.1453   -1.6325   -1.2381 H   0  0  0  0  0  0  0  0  0  0  0  0
   -6.3181    0.4977   -1.6990 H   0  0  0  0  0  0  0  0  0  0  0  0
   -5.9578    0.5005    0.0133 H   0  0  0  0  0  0  0  0  0  0  0  0
   -3.2804    2.5741   -0.6455 H   0  0  0  0  0  0  0  0  0  0  0  0
   -3.4966    4.4203    1.0041 H   0  0  0  0  0  0  0  0  0  0  0  0
  1  2  1  0
  2  3  1  0
  3  4  2  0
  4  5  1  0
  5  6  1  0
  6  7  1  0
  7  8  1  0
  8  9  1  0
  9 10  1  0
 10 11  1  0
 11 12  1  0
 12 13  1  0
 13 14  1  0
 14 15  2  0
 15 16  1  0
 16 17  1  0
 17 18  1  0
 18 19  1  0
 19 20  1  0
 20 21  1  0
 12 22  1  0
 22 23  1  0
  6 24  1  0
 24 25  1  0
 25 26  1  0
 26 27  1  0
 27 28  1  0
  5 29  2  0
 29 30  1  0
 30  2  2  0
 23  9  1  0
 28 24  1  0
 21 13  2  0
 20 16  2  0
  3 31  1  0
  4 32  1  0
  6 33  1  0
  7 34  1  0
  7 35  1  0
  8 36  1  0
  9 37  1  0
 10 38  1  0
 10 39  1  0
 11 40  1  0
 11 41  1  0
 14 42  1  0
 15 43  1  0
 18 44  1  0
 18 45  1  0
 21 46  1  0
 22 47  1  0
 22 48  1  0
 23 49  1  0
 23 50  1  0
 25 51  1  0
 25 52  1  0
 26 53  1  0
 26 54  1  0
 27 55  1  0
 27 56  1  0
 28 57  1  0
 28 58  1  0
 29 59  1  0
 30 60  1  0
M  END
$$$$
OCNT-2314799
     RDKit          3D

 46 49  0  0  0  0  0  0  0  0999 V2000
    4.1051   -3.5718   -3.0372 O   0  0  0  0  0  0  0  0  0  0  0  0
    3.9838   -2.7413   -2.1447 C   0  0  0  0  0  0  0  0  0  0  0  0
    2.6628   -2.1704   -1.8183 C   0  0  0  0  0  0  0  0  0  0  0  0
    2.5285   -1.2539   -0.8477 C   0  0  0  0  0  0  0  0  0  0  0  0
    1.1474   -0.7223   -0.6790 C   0  0  0  0  0  0  0  0  0  0  0  0
    0.2341   -1.4761   -0.3703 O   0  0  0  0  0  0  0  0  0  0  0  0
    1.0769    0.6311   -0.9421 N   0  0  0  0  0  0  0  0  0  0  0  0
   -0.0592    1.4648   -0.8617 C   0  0  0  0  0  0  0  0  0  0  0  0
    0.1177    2.8114   -1.2023 C   0  0  0  0  0  0  0  0  0  0  0  0
   -0.9524    3.7031   -1.1422 C   0  0  0  0  0  0  0  0  0  0  0  0
   -2.2064    3.2512   -0.7390 C   0  0  0  0  0  0  0  0  0  0  0  0
   -2.4017    1.9121   -0.3952 C   0  0  0  0  0  0  0  0  0  0  0  0
   -3.6807    1.6112   -0.0165 O   0  0  0  0  0  0  0  0  0  0  0  0
   -3.9921    0.2697    0.3381 C   0  0  0  0  0  0  0  0  0  0  0  0
   -5.5107    0.1029    0.3520 C   0  0  0  0  0  0  0  0  0  0  0  0
   -5.7505   -1.1264    1.2183 C   0  0  0  0  0  0  0  0  0  0  0  0
   -4.5342   -1.2333    2.1386 C   0  0  0  0  0  0  0  0  0  0  0  0
   -3.6376   -0.0529    1.7867 C   0  0  0  0  0  0  0  0  0  0  0  0
   -1.3246    1.0232   -0.4589 C   0  0  0  0  0  0  0  0  0  0  0  0
    3.6902   -0.8223   -0.0521 C   0  0  0  0  0  0  0  0  0  0  0  0
    3.5870    0.0701    1.0246 C   0  0  0  0  0  0  0  0  0  0  0  0
    4.7236    0.4526    1.7419 C   0  0  0  0  0  0  0  0  0  0  0  0
    5.9747   -0.0583    1.3996 C   0  0  0  0  0  0  0  0  0  0  0  0
    6.0893   -0.9634    0.3444 C   0  0  0  0  0  0  0  0  0  0  0  0
    7.8102   -1.6472   -0.0722 Br  0  0  0  0  0  0  0  0  0  0  0  0
    4.9515   -1.3508   -0.3764 C   0  0  0  0  0  0  0  0  0  0  0  0
    5.0473   -2.2831   -1.4227 N   0  0  0  0  0  0  0  0  0  0  0  0
    1.8306   -2.5249   -2.4172 H   0  0  0  0  0  0  0  0  0  0  0  0
    1.9325    1.0806   -1.2454 H   0  0  0  0  0  0  0  0  0  0  0  0
    1.0868    3.1863   -1.5209 H   0  0  0  0  0  0  0  0  0  0  0  0
   -0.8126    4.7468   -1.4098 H   0  0  0  0  0  0  0  0  0  0  0  0
   -3.0417    3.9457   -0.6928 H   0  0  0  0  0  0  0  0  0  0  0  0
   -3.5734   -0.4567   -0.3703 H   0  0  0  0  0  0  0  0  0  0  0  0
   -5.9208   -0.0108   -0.6568 H   0  0  0  0  0  0  0  0  0  0  0  0
   -5.9934    0.9843    0.7932 H   0  0  0  0  0  0  0  0  0  0  0  0
   -6.6836   -1.0378    1.7840 H   0  0  0  0  0  0  0  0  0  0  0  0
   -5.8268   -2.0256    0.5967 H   0  0  0  0  0  0  0  0  0  0  0  0
   -4.8186   -1.2180    3.1956 H   0  0  0  0  0  0  0  0  0  0  0  0
   -4.0109   -2.1781    1.9514 H   0  0  0  0  0  0  0  0  0  0  0  0
   -2.5788   -0.2919    1.9227 H   0  0  0  0  0  0  0  0  0  0  0  0
   -3.8559    0.8040    2.4360 H   0  0  0  0  0  0  0  0  0  0  0  0
   -1.4684   -0.0145   -0.1927 H   0  0  0  0  0  0  0  0  0  0  0  0
    2.6242    0.4726    1.3358 H   0  0  0  0  0  0  0  0  0  0  0  0
    4.6308    1.1454    2.5762 H   0  0  0  0  0  0  0  0  0  0  0  0
    6.8499    0.2457    1.9691 H   0  0  0  0  0  0  0  0  0  0  0  0
    5.9500   -2.6830   -1.6518 H   0  0  0  0  0  0  0  0  0  0  0  0
  1  2  2  0
  2  3  1  0
  3  4  2  0
  4  5  1  0
  5  6  2  0
  5  7  1  0
  7  8  1  0
  8  9  2  0
  9 10  1  0
 10 11  2  0
 11 12  1  0
 12 13  1  0
 13 14  1  0
 14 15  1  0
 15 16  1  0
 16 17  1  0
 17 18  1  0
 12 19  2  0
  4 20  1  0
 20 21  2  0
 21 22  1  0
 22 23  2  0
 23 24  1  0
 24 25  1  0
 24 26  2  0
 26 27  1  0
 27  2  1  0
 19  8  1  0
 26 20  1  0
 18 14  1  0
  3 28  1  0
  7 29  1  0
  9 30  1  0
 10 31  1  0
 11 32  1  0
 14 33  1  0
 15 34  1  0
 15 35  1  0
 16 36  1  0
 16 37  1  0
 17 38  1  0
 17 39  1  0
 18 40  1  0
 18 41  1  0
 19 42  1  0
 21 43  1  0
 22 44  1  0
 23 45  1  0
 27 46  1  0
M  END
$$$$
OCNT-2314801
     RDKit          3D

 37 39  0  0  0  0  0  0  0  0999 V2000
    1.9024   -2.4426    1.0793 O   0  0  0  0  0  0  0  0  0  0  0  0
    1.3681   -1.3751    0.7930 C   0  0  0  0  0  0  0  0  0  0  0  0
   -0.0856   -1.0974    1.1887 C   0  0  0  0  0  0  0  0  0  0  0  0
   -0.6014    0.0738    0.5365 O   0  0  0  0  0  0  0  0  0  0  0  0
   -1.7213   -0.1983   -0.2022 C   0  0  0  0  0  0  0  0  0  0  0  0
   -1.5596   -0.9563   -1.3718 C   0  0  0  0  0  0  0  0  0  0  0  0
   -2.6641   -1.3054   -2.1430 C   0  0  0  0  0  0  0  0  0  0  0  0
   -3.9335   -0.8942   -1.7535 C   0  0  0  0  0  0  0  0  0  0  0  0
   -4.0987   -0.1095   -0.6071 C   0  0  0  0  0  0  0  0  0  0  0  0
   -2.9916    0.2726    0.1732 C   0  0  0  0  0  0  0  0  0  0  0  0
   -3.2000    1.1255    1.3004 N   0  0  0  0  0  0  0  0  0  0  0  0
   -4.4079    1.4152    1.9082 C   0  0  0  0  0  0  0  0  0  0  0  0
   -4.1298    2.2853    2.9351 C   0  0  0  0  0  0  0  0  0  0  0  0
   -2.7968    2.5587    2.9866 N   0  0  0  0  0  0  0  0  0  0  0  0
   -2.2691    1.8666    1.9994 C   0  0  0  0  0  0  0  0  0  0  0  0
    1.9507   -0.3158    0.1190 N   0  0  0  0  0  0  0  0  0  0  0  0
    3.2652   -0.2141   -0.3696 C   0  0  0  0  0  0  0  0  0  0  0  0
    4.2411   -1.1977   -0.1945 C   0  0  0  0  0  0  0  0  0  0  0  0
    5.5301   -1.0173   -0.7096 C   0  0  0  0  0  0  0  0  0  0  0  0
    5.8460    0.1480   -1.4021 C   0  0  0  0  0  0  0  0  0  0  0  0
    7.4302    0.3681   -2.0338 Cl  0  0  0  0  0  0  0  0  0  0  0  0
    4.8838    1.1357   -1.5839 C   0  0  0  0  0  0  0  0  0  0  0  0
    3.5973    0.9549   -1.0673 C   0  0  0  0  0  0  0  0  0  0  0  0
   -0.6774   -1.9994    0.9845 H   0  0  0  0  0  0  0  0  0  0  0  0
   -0.1038   -0.9086    2.2675 H   0  0  0  0  0  0  0  0  0  0  0  0
   -0.5714   -1.2848   -1.6847 H   0  0  0  0  0  0  0  0  0  0  0  0
   -2.5354   -1.8921   -3.0486 H   0  0  0  0  0  0  0  0  0  0  0  0
   -4.7992   -1.1651   -2.3540 H   0  0  0  0  0  0  0  0  0  0  0  0
   -5.1083    0.2181   -0.3774 H   0  0  0  0  0  0  0  0  0  0  0  0
   -5.3453    0.9749    1.6028 H   0  0  0  0  0  0  0  0  0  0  0  0
   -4.8246    2.7238    3.6401 H   0  0  0  0  0  0  0  0  0  0  0  0
   -1.2222    1.9059    1.7396 H   0  0  0  0  0  0  0  0  0  0  0  0
    1.3289    0.4663   -0.0640 H   0  0  0  0  0  0  0  0  0  0  0  0
    4.0371   -2.1169    0.3457 H   0  0  0  0  0  0  0  0  0  0  0  0
    6.2785   -1.7915   -0.5610 H   0  0  0  0  0  0  0  0  0  0  0  0
    5.1261    2.0474   -2.1228 H   0  0  0  0  0  0  0  0  0  0  0  0
    2.8617    1.7415   -1.2188 H   0  0  0  0  0  0  0  0  0  0  0  0
  1  2  2  0
  2  3  1  0
  3  4  1  0
  4  5  1  0
  5  6  2  0
  6  7  1  0
  7  8  2  0
  8  9  1  0
  9 10  2  0
 10 11  1  0
 11 12  1  0
 12 13  2  0
 13 14  1  0
 14 15  2  0
  2 16  1  0
 16 17  1  0
 17 18  1  0
 18 19  2  0
 19 20  1  0
 20 21  1  0
 20 22  2  0
 22 23  1  0
 10  5  1  0
 15 11  1  0
 23 17  2  0
  3 24  1  0
  3 25  1  0
  6 26  1  0
  7 27  1  0
  8 28  1  0
  9 29  1  0
 12 30  1  0
 13 31  1  0
 15 32  1  0
 16 33  1  0
 18 34  1  0
 19 35  1  0
 22 36  1  0
 23 37  1  0
M  END
$$$$
OCNT-2314802
     RDKit          3D

 56 59  0  0  0  0  0  0  0  0999 V2000
    4.0986    1.8682   -3.4757 C   0  0  0  0  0  0  0  0  0  0  0  0
    2.8220    1.9901   -2.6452 C   0  0  0  0  0  0  0  0  0  0  0  0
    3.0939    1.9681   -1.1313 C   0  0  0  0  0  0  0  0  0  0  0  0
    2.6748    0.5833   -0.8206 C   0  0  0  0  0  0  0  0  0  0  0  0
    2.8101   -0.1319    0.3577 C   0  0  0  0  0  0  0  0  0  0  0  0
    2.2466   -1.4171    0.4360 C   0  0  0  0  0  0  0  0  0  0  0  0
    2.3630   -2.2095    1.7202 C   0  0  0  0  0  0  0  0  0  0  0  0
    1.0169   -2.5456    2.4032 C   0  0  1  0  0  0  0  0  0  0  0  0
    1.3045   -3.3156    3.6937 C   0  0  0  0  0  0  0  0  0  0  0  0
    0.2328   -1.3368    2.6484 N   0  0  0  0  0  0  0  0  0  0  0  0
   -1.0601   -1.3988    3.1381 C   0  0  0  0  0  0  0  0  0  0  0  0
   -1.5920   -2.4096    3.5857 O   0  0  0  0  0  0  0  0  0  0  0  0
   -1.8103   -0.0890    3.0343 C   0  0  0  0  0  0  0  0  0  0  0  0
   -2.2543    0.1041    1.5914 C   0  0  0  0  0  0  0  0  0  0  0  0
   -3.3784    1.1483    1.4731 C   0  0  0  0  0  0  0  0  0  0  0  0
   -3.9161    1.2307    0.1054 N   0  0  0  0  0  0  0  0  0  0  0  0
   -2.8419    0.9380   -0.8711 C   0  0  0  0  0  0  0  0  0  0  0  0
   -3.1135   -0.4477   -1.5282 C   0  0  0  0  0  0  0  0  0  0  0  0
   -2.9083    0.2305   -2.9018 C   0  0  0  0  0  0  0  0  0  0  0  0
   -3.2590    1.5752   -2.2271 C   0  0  0  0  0  0  0  0  0  0  0  0
   -1.4243    1.2178   -0.3824 C   0  0  0  0  0  0  0  0  0  0  0  0
   -1.1041    0.5088    0.8295 O   0  0  0  0  0  0  0  0  0  0  0  0
    1.5658   -1.9482   -0.6832 C   0  0  0  0  0  0  0  0  0  0  0  0
    1.4416   -1.2108   -1.8655 C   0  0  0  0  0  0  0  0  0  0  0  0
    2.0050    0.0473   -1.9064 C   0  0  0  0  0  0  0  0  0  0  0  0
    1.9390    0.8879   -2.9866 O   0  0  0  0  0  0  0  0  0  0  0  0
    3.8560    1.8837   -4.5418 H   0  0  0  0  0  0  0  0  0  0  0  0
    4.7913    2.6886   -3.2663 H   0  0  0  0  0  0  0  0  0  0  0  0
    4.6100    0.9225   -3.2816 H   0  0  0  0  0  0  0  0  0  0  0  0
    2.3159    2.9260   -2.9196 H   0  0  0  0  0  0  0  0  0  0  0  0
    2.4384    2.6767   -0.6116 H   0  0  0  0  0  0  0  0  0  0  0  0
    4.1371    2.1775   -0.8759 H   0  0  0  0  0  0  0  0  0  0  0  0
    3.3318    0.3039    1.2078 H   0  0  0  0  0  0  0  0  0  0  0  0
    2.9952   -1.6552    2.4268 H   0  0  0  0  0  0  0  0  0  0  0  0
    2.9033   -3.1363    1.4937 H   0  0  0  0  0  0  0  0  0  0  0  0
    0.4143   -3.1823    1.7449 H   0  0  0  0  0  0  0  0  0  0  0  0
    1.9308   -4.1880    3.4929 H   0  0  0  0  0  0  0  0  0  0  0  0
    0.3899   -3.6810    4.1658 H   0  0  0  0  0  0  0  0  0  0  0  0
    1.8217   -2.6819    4.4213 H   0  0  0  0  0  0  0  0  0  0  0  0
    0.3608   -0.5806    1.9797 H   0  0  0  0  0  0  0  0  0  0  0  0
   -1.1631    0.7247    3.3694 H   0  0  0  0  0  0  0  0  0  0  0  0
   -2.6665   -0.1435    3.7105 H   0  0  0  0  0  0  0  0  0  0  0  0
   -2.5971   -0.8588    1.1950 H   0  0  0  0  0  0  0  0  0  0  0  0
   -4.2004    0.9145    2.1594 H   0  0  0  0  0  0  0  0  0  0  0  0
   -2.9964    2.1411    1.7435 H   0  0  0  0  0  0  0  0  0  0  0  0
   -4.7291    0.6188    0.0310 H   0  0  0  0  0  0  0  0  0  0  0  0
   -4.1259   -0.8573   -1.3999 H   0  0  0  0  0  0  0  0  0  0  0  0
   -2.3900   -1.2380   -1.2953 H   0  0  0  0  0  0  0  0  0  0  0  0
   -1.8732    0.1758   -3.2755 H   0  0  0  0  0  0  0  0  0  0  0  0
   -3.5928   -0.0942   -3.6942 H   0  0  0  0  0  0  0  0  0  0  0  0
   -4.3189    1.8380   -2.3263 H   0  0  0  0  0  0  0  0  0  0  0  0
   -2.6609    2.4277   -2.5652 H   0  0  0  0  0  0  0  0  0  0  0  0
   -1.2817    2.2876   -0.1881 H   0  0  0  0  0  0  0  0  0  0  0  0
   -0.6845    0.9339   -1.1343 H   0  0  0  0  0  0  0  0  0  0  0  0
    1.1211   -2.9413   -0.6359 H   0  0  0  0  0  0  0  0  0  0  0  0
    0.9107   -1.6060   -2.7219 H   0  0  0  0  0  0  0  0  0  0  0  0
  1  2  1  0
  2  3  1  0
  3  4  1  0
  4  5  1  0
  5  6  2  0
  6  7  1  0
  7  8  1  0
  8  9  1  0
  8 10  1  0
 10 11  1  0
 11 12  2  0
 11 13  1  0
 13 14  1  0
 14 15  1  0
 15 16  1  0
 16 17  1  0
 17 18  1  0
 18 19  1  0
 19 20  1  0
 17 21  1  0
 21 22  1  0
  6 23  1  0
 23 24  2  0
 24 25  1  0
 25 26  1  0
 26  2  1  0
 25  4  2  0
 22 14  1  0
 20 17  1  0
  1 27  1  0
  1 28  1  0
  1 29  1  0
  2 30  1  0
  3 31  1  0
  3 32  1  0
  5 33  1  0
  7 34  1  0
  7 35  1  0
  8 36  1  6
  9 37  1  0
  9 38  1  0
  9 39  1  0
 10 40  1  0
 13 41  1  0
 13 42  1  0
 14 43  1  0
 15 44  1  0
 15 45  1  0
 16 46  1  0
 18 47  1  0
 18 48  1  0
 19 49  1  0
 19 50  1  0
 20 51  1  0
 20 52  1  0
 21 53  1  0
 21 54  1  0
 23 55  1  0
 24 56  1  0
M  END
$$$$
OCNT-2314804
     RDKit          3D

 35 37  0  0  0  0  0  0  0  0999 V2000
   -7.4286   -0.1752    0.3007 C   0  0  0  0  0  0  0  0  0  0  0  0
   -6.3869   -1.1344    0.4357 O   0  0  0  0  0  0  0  0  0  0  0  0
   -5.1045   -0.6820    0.3038 C   0  0  0  0  0  0  0  0  0  0  0  0
   -4.7191    0.6339    0.0526 C   0  0  0  0  0  0  0  0  0  0  0  0
   -3.3601    0.9633   -0.0600 C   0  0  0  0  0  0  0  0  0  0  0  0
   -2.3621   -0.0162    0.0762 C   0  0  0  0  0  0  0  0  0  0  0  0
   -0.9472    0.3097   -0.0387 C   0  0  0  0  0  0  0  0  0  0  0  0
    0.1175   -0.4562    0.0347 N   0  0  0  0  0  0  0  0  0  0  0  0
    1.1544    0.4312   -0.1543 C   0  0  0  0  0  0  0  0  0  0  0  0
    2.5500    0.0046   -0.1506 C   0  0  0  0  0  0  0  0  0  0  0  0
    2.8719   -1.3448    0.0624 C   0  0  0  0  0  0  0  0  0  0  0  0
    4.2018   -1.7718    0.0629 C   0  0  0  0  0  0  0  0  0  0  0  0
    5.2302   -0.8522   -0.1423 C   0  0  0  0  0  0  0  0  0  0  0  0
    4.9284    0.5001   -0.3432 C   0  0  0  0  0  0  0  0  0  0  0  0
    5.9903    1.5163   -0.5688 C   0  0  0  0  0  0  0  0  0  0  0  0
    7.2390    1.2417   -0.0831 N   0  0  0  0  0  0  0  0  0  0  0  0
    5.7582    2.5764   -1.1348 O   0  0  0  0  0  0  0  0  0  0  0  0
    3.5909    0.9218   -0.3581 C   0  0  0  0  0  0  0  0  0  0  0  0
    0.7537    1.7002   -0.3328 N   0  0  0  0  0  0  0  0  0  0  0  0
   -0.6339    1.6222   -0.2586 O   0  0  0  0  0  0  0  0  0  0  0  0
   -2.7722   -1.3287    0.3277 C   0  0  0  0  0  0  0  0  0  0  0  0
   -1.8734   -2.3146    0.4704 F   0  0  0  0  0  0  0  0  0  0  0  0
   -4.1221   -1.6612    0.4408 C   0  0  0  0  0  0  0  0  0  0  0  0
   -8.3819   -0.6963    0.4306 H   0  0  0  0  0  0  0  0  0  0  0  0
   -7.3600    0.5933    1.0777 H   0  0  0  0  0  0  0  0  0  0  0  0
   -7.4262    0.2715   -0.6991 H   0  0  0  0  0  0  0  0  0  0  0  0
   -5.4473    1.4312   -0.0618 H   0  0  0  0  0  0  0  0  0  0  0  0
   -3.0965    2.0014   -0.2574 H   0  0  0  0  0  0  0  0  0  0  0  0
    2.0816   -2.0778    0.2225 H   0  0  0  0  0  0  0  0  0  0  0  0
    4.4313   -2.8240    0.2143 H   0  0  0  0  0  0  0  0  0  0  0  0
    6.2554   -1.2098   -0.1699 H   0  0  0  0  0  0  0  0  0  0  0  0
    7.3945    0.5407    0.6266 H   0  0  0  0  0  0  0  0  0  0  0  0
    7.9032    2.0042   -0.1328 H   0  0  0  0  0  0  0  0  0  0  0  0
    3.3687    1.9746   -0.5312 H   0  0  0  0  0  0  0  0  0  0  0  0
   -4.3989   -2.6930    0.6369 H   0  0  0  0  0  0  0  0  0  0  0  0
  1  2  1  0
  2  3  1  0
  3  4  1  0
  4  5  2  0
  5  6  1  0
  6  7  1  0
  7  8  2  0
  8  9  1  0
  9 10  1  0
 10 11  2  0
 11 12  1  0
 12 13  2  0
 13 14  1  0
 14 15  1  0
 15 16  1  0
 15 17  2  0
 14 18  2  0
  9 19  2  0
 19 20  1  0
  6 21  2  0
 21 22  1  0
 21 23  1  0
 23  3  2  0
 20  7  1  0
 18 10  1  0
  1 24  1  0
  1 25  1  0
  1 26  1  0
  4 27  1  0
  5 28  1  0
 11 29  1  0
 12 30  1  0
 13 31  1  0
 16 32  1  0
 16 33  1  0
 18 34  1  0
 23 35  1  0
M  END
$$$$
OCNT-2314807
     RDKit          3D

 31 33  0  0  0  0  0  0  0  0999 V2000
   -6.4785    1.2399    0.1274 F   0  0  0  0  0  0  0  0  0  0  0  0
   -6.4064    0.1809   -0.7190 C   0  0  0  0  0  0  0  0  0  0  0  0
   -7.2599    0.4625   -1.7423 F   0  0  0  0  0  0  0  0  0  0  0  0
   -5.1089    0.1317   -1.2788 O   0  0  0  0  0  0  0  0  0  0  0  0
   -4.1806   -0.3503   -0.3881 C   0  0  0  0  0  0  0  0  0  0  0  0
   -2.8483   -0.1749   -0.7325 C   0  0  0  0  0  0  0  0  0  0  0  0
   -1.8615   -0.6758    0.1212 C   0  0  0  0  0  0  0  0  0  0  0  0
   -0.3974   -0.5048   -0.1971 C   0  0  0  0  0  0  0  0  0  0  0  0
    0.2078    0.3724    0.7848 N   0  0  0  0  0  0  0  0  0  0  0  0
    1.5185    0.7168    0.6994 C   0  0  0  0  0  0  0  0  0  0  0  0
    1.9678    1.8829    1.1110 N   0  0  0  0  0  0  0  0  0  0  0  0
    3.3303    2.0286    0.9439 N   0  0  0  0  0  0  0  0  0  0  0  0
    3.8837    0.9540    0.4246 C   0  0  0  0  0  0  0  0  0  0  0  0
    5.4263    0.8420    0.1369 C   0  0  0  0  0  0  0  0  0  0  0  0
    6.2792    1.8412    0.4007 N   0  0  0  0  0  0  0  0  0  0  0  0
    7.5279    1.3824    0.0208 O   0  0  0  0  0  0  0  0  0  0  0  0
    7.4153    0.1225   -0.4638 C   0  0  0  0  0  0  0  0  0  0  0  0
    6.1039   -0.2716   -0.4145 C   0  0  0  0  0  0  0  0  0  0  0  0
    2.7675   -0.3054    0.0897 S   0  0  0  0  0  0  0  0  0  0  0  0
   -2.2658   -1.3336    1.2873 C   0  0  0  0  0  0  0  0  0  0  0  0
   -3.6214   -1.4678    1.5394 C   0  0  0  0  0  0  0  0  0  0  0  0
   -4.5880   -0.9998    0.7203 N   0  0  0  0  0  0  0  0  0  0  0  0
   -6.7514   -0.7410   -0.2381 H   0  0  0  0  0  0  0  0  0  0  0  0
   -2.5940    0.3486   -1.6487 H   0  0  0  0  0  0  0  0  0  0  0  0
    0.0705   -1.4969   -0.1927 H   0  0  0  0  0  0  0  0  0  0  0  0
   -0.2776   -0.0868   -1.2045 H   0  0  0  0  0  0  0  0  0  0  0  0
   -0.3844    1.1594    1.0424 H   0  0  0  0  0  0  0  0  0  0  0  0
    8.3363   -0.3368   -0.7916 H   0  0  0  0  0  0  0  0  0  0  0  0
    5.7020   -1.2220   -0.7294 H   0  0  0  0  0  0  0  0  0  0  0  0
   -1.5379   -1.7274    1.9907 H   0  0  0  0  0  0  0  0  0  0  0  0
   -3.9749   -1.9709    2.4355 H   0  0  0  0  0  0  0  0  0  0  0  0
  1  2  1  0
  2  3  1  0
  2  4  1  0
  4  5  1  0
  5  6  2  0
  6  7  1  0
  7  8  1  0
  8  9  1  0
  9 10  1  0
 10 11  2  0
 11 12  1  0
 12 13  2  0
 13 14  1  0
 14 15  2  0
 15 16  1  0
 16 17  1  0
 17 18  2  0
 13 19  1  0
  7 20  2  0
 20 21  1  0
 21 22  2  0
 22  5  1  0
 19 10  1  0
 18 14  1  0
  2 23  1  0
  6 24  1  0
  8 25  1  0
  8 26  1  0
  9 27  1  0
 17 28  1  0
 18 29  1  0
 20 30  1  0
 21 31  1  0
M  END
$$$$
OCNT-2314812
     RDKit          3D

 38 41  0  0  0  0  0  0  0  0999 V2000
   -2.0448    2.3110    2.6082 C   0  0  0  0  0  0  0  0  0  0  0  0
   -1.5126    2.3338    1.3376 C   0  0  0  0  0  0  0  0  0  0  0  0
   -2.3783    1.7283    0.3591 C   0  0  0  0  0  0  0  0  0  0  0  0
   -2.2623    1.5098   -1.0304 C   0  0  0  0  0  0  0  0  0  0  0  0
   -1.1302    1.9163   -1.7568 N   0  0  0  0  0  0  0  0  0  0  0  0
   -0.6998    0.9166   -2.7425 C   0  0  0  0  0  0  0  0  0  0  0  0
   -0.0501   -0.3160   -2.1653 C   0  0  0  0  0  0  0  0  0  0  0  0
    0.7962   -0.2106   -1.1263 N   0  0  0  0  0  0  0  0  0  0  0  0
    1.1226   -1.4879   -0.8421 N   0  0  0  0  0  0  0  0  0  0  0  0
    2.0010   -1.7918    0.2751 C   0  0  0  0  0  0  0  0  0  0  0  0
    3.3573   -1.0713    0.1937 C   0  0  0  0  0  0  0  0  0  0  0  0
    3.3212   -0.0370    1.3104 C   0  0  0  0  0  0  0  0  0  0  0  0
    2.5202   -0.7289    2.3996 C   0  0  0  0  0  0  0  0  0  0  0  0
    1.3907   -1.4011    1.6337 C   0  0  0  0  0  0  0  0  0  0  0  0
    0.5429   -2.3915   -1.6852 C   0  0  0  0  0  0  0  0  0  0  0  0
   -0.2290   -1.6623   -2.5558 C   0  0  0  0  0  0  0  0  0  0  0  0
   -3.2871    0.9025   -1.6737 N   0  0  0  0  0  0  0  0  0  0  0  0
   -4.3619    0.5224   -0.9662 C   0  0  0  0  0  0  0  0  0  0  0  0
   -4.5712    0.6628    0.3455 N   0  0  0  0  0  0  0  0  0  0  0  0
   -3.5446    1.2749    0.9558 C   0  0  0  0  0  0  0  0  0  0  0  0
   -3.5858    1.5667    2.6366 S   0  0  0  0  0  0  0  0  0  0  0  0
   -1.6060    2.6955    3.5203 H   0  0  0  0  0  0  0  0  0  0  0  0
   -0.5450    2.7645    1.1148 H   0  0  0  0  0  0  0  0  0  0  0  0
   -0.3586    2.0642   -1.1114 H   0  0  0  0  0  0  0  0  0  0  0  0
    0.0506    1.4051   -3.3788 H   0  0  0  0  0  0  0  0  0  0  0  0
   -1.5169    0.6412   -3.4220 H   0  0  0  0  0  0  0  0  0  0  0  0
    2.1765   -2.8766    0.2467 H   0  0  0  0  0  0  0  0  0  0  0  0
    4.1615   -1.7901    0.3997 H   0  0  0  0  0  0  0  0  0  0  0  0
    3.5689   -0.6177   -0.7817 H   0  0  0  0  0  0  0  0  0  0  0  0
    2.8000    0.8684    0.9733 H   0  0  0  0  0  0  0  0  0  0  0  0
    4.3241    0.2510    1.6449 H   0  0  0  0  0  0  0  0  0  0  0  0
    3.1326   -1.4832    2.9030 H   0  0  0  0  0  0  0  0  0  0  0  0
    2.1481   -0.0335    3.1561 H   0  0  0  0  0  0  0  0  0  0  0  0
    1.0100   -2.2750    2.1732 H   0  0  0  0  0  0  0  0  0  0  0  0
    0.5563   -0.7003    1.5204 H   0  0  0  0  0  0  0  0  0  0  0  0
    0.7108   -3.4552   -1.5890 H   0  0  0  0  0  0  0  0  0  0  0  0
   -0.8526   -2.0455   -3.3507 H   0  0  0  0  0  0  0  0  0  0  0  0
   -5.1545    0.0404   -1.5299 H   0  0  0  0  0  0  0  0  0  0  0  0
  1  2  2  0
  2  3  1  0
  3  4  2  0
  4  5  1  0
  5  6  1  0
  6  7  1  0
  7  8  2  0
  8  9  1  0
  9 10  1  0
 10 11  1  0
 11 12  1  0
 12 13  1  0
 13 14  1  0
  9 15  1  0
 15 16  2  0
  4 17  1  0
 17 18  2  0
 18 19  1  0
 19 20  2  0
 20 21  1  0
 21  1  1  0
 20  3  1  0
 16  7  1  0
 14 10  1  0
  1 22  1  0
  2 23  1  0
  5 24  1  0
  6 25  1  0
  6 26  1  0
 10 27  1  0
 11 28  1  0
 11 29  1  0
 12 30  1  0
 12 31  1  0
 13 32  1  0
 13 33  1  0
 14 34  1  0
 14 35  1  0
 15 36  1  0
 16 37  1  0
 18 38  1  0
M  END
$$$$
OCNT-2314816
     RDKit          3D

 40 42  0  0  0  0  0  0  0  0999 V2000
    6.1322    1.5391    1.0925 C   0  0  0  0  0  0  0  0  0  0  0  0
    5.9214    0.0358    1.1829 C   0  0  0  0  0  0  0  0  0  0  0  0
    4.8577   -0.4345    0.2291 C   0  0  0  0  0  0  0  0  0  0  0  0
    5.2623   -0.8712   -0.9848 N   0  0  0  0  0  0  0  0  0  0  0  0
    4.2893   -1.2745   -1.8166 C   0  0  0  0  0  0  0  0  0  0  0  0
    2.9703   -1.2730   -1.5611 N   0  0  0  0  0  0  0  0  0  0  0  0
    2.5868   -0.8113   -0.3542 C   0  0  0  0  0  0  0  0  0  0  0  0
    1.2248   -0.8311    0.0035 N   0  0  0  0  0  0  0  0  0  0  0  0
    0.3082   -1.0413   -1.1150 C   0  0  0  0  0  0  0  0  0  0  0  0
   -1.1203   -0.9116   -0.6221 C   0  0  0  0  0  0  0  0  0  0  0  0
   -1.8000   -2.0249   -0.1403 C   0  0  0  0  0  0  0  0  0  0  0  0
   -3.0945   -1.8625    0.3416 C   0  0  0  0  0  0  0  0  0  0  0  0
   -3.6791   -0.5938    0.3515 C   0  0  0  0  0  0  0  0  0  0  0  0
   -5.0947   -0.4222    0.8328 C   0  0  0  0  0  0  0  0  0  0  0  0
   -5.4620    1.0323    1.1231 C   0  0  0  0  0  0  0  0  0  0  0  0
   -4.9944    1.9382   -0.0096 C   0  0  0  0  0  0  0  0  0  0  0  0
   -3.4743    1.8811   -0.1387 C   0  0  0  0  0  0  0  0  0  0  0  0
   -2.9312    0.4754   -0.1486 C   0  0  0  0  0  0  0  0  0  0  0  0
   -1.6651    0.3331   -0.6145 N   0  0  0  0  0  0  0  0  0  0  0  0
    3.5223   -0.3891    0.5843 C   0  0  0  0  0  0  0  0  0  0  0  0
    3.1414    0.0669    1.7879 F   0  0  0  0  0  0  0  0  0  0  0  0
    6.4257    1.8374    0.0802 H   0  0  0  0  0  0  0  0  0  0  0  0
    6.9224    1.8528    1.7819 H   0  0  0  0  0  0  0  0  0  0  0  0
    5.2193    2.0857    1.3519 H   0  0  0  0  0  0  0  0  0  0  0  0
    5.6569   -0.2477    2.2084 H   0  0  0  0  0  0  0  0  0  0  0  0
    6.8631   -0.4768    0.9523 H   0  0  0  0  0  0  0  0  0  0  0  0
    4.5979   -1.6381   -2.7911 H   0  0  0  0  0  0  0  0  0  0  0  0
    0.9873    0.0285    0.4979 H   0  0  0  0  0  0  0  0  0  0  0  0
    0.4489   -2.0327   -1.5636 H   0  0  0  0  0  0  0  0  0  0  0  0
    0.4690   -0.2887   -1.8979 H   0  0  0  0  0  0  0  0  0  0  0  0
   -1.3283   -3.0023   -0.1319 H   0  0  0  0  0  0  0  0  0  0  0  0
   -3.6408   -2.7259    0.7128 H   0  0  0  0  0  0  0  0  0  0  0  0
   -5.2551   -1.0146    1.7416 H   0  0  0  0  0  0  0  0  0  0  0  0
   -5.7660   -0.8156    0.0591 H   0  0  0  0  0  0  0  0  0  0  0  0
   -4.9968    1.3531    2.0640 H   0  0  0  0  0  0  0  0  0  0  0  0
   -6.5462    1.1192    1.2554 H   0  0  0  0  0  0  0  0  0  0  0  0
   -5.4627    1.6226   -0.9505 H   0  0  0  0  0  0  0  0  0  0  0  0
   -5.3099    2.9708    0.1771 H   0  0  0  0  0  0  0  0  0  0  0  0
   -3.1690    2.3998   -1.0548 H   0  0  0  0  0  0  0  0  0  0  0  0
   -3.0168    2.4113    0.7058 H   0  0  0  0  0  0  0  0  0  0  0  0
  1  2  1  0
  2  3  1  0
  3  4  2  0
  4  5  1  0
  5  6  2  0
  6  7  1  0
  7  8  1  0
  8  9  1  0
  9 10  1  0
 10 11  1  0
 11 12  2  0
 12 13  1  0
 13 14  1  0
 14 15  1  0
 15 16  1  0
 16 17  1  0
 17 18  1  0
 18 19  1  0
  7 20  2  0
 20 21  1  0
 20  3  1  0
 19 10  2  0
 18 13  2  0
  1 22  1  0
  1 23  1  0
  1 24  1  0
  2 25  1  0
  2 26  1  0
  5 27  1  0
  8 28  1  0
  9 29  1  0
  9 30  1  0
 11 31  1  0
 12 32  1  0
 14 33  1  0
 14 34  1  0
 15 35  1  0
 15 36  1  0
 16 37  1  0
 16 38  1  0
 17 39  1  0
 17 40  1  0
M  END
$$$$
OCNT-2314824
     RDKit          3D

 43 46  0  0  0  0  0  0  0  0999 V2000
   -5.5588    4.0983   -0.7081 C   0  0  0  0  0  0  0  0  0  0  0  0
   -5.5889    2.6810   -0.8285 O   0  0  0  0  0  0  0  0  0  0  0  0
   -4.4017    2.0198   -0.6491 C   0  0  0  0  0  0  0  0  0  0  0  0
   -4.4975    0.6272   -0.7622 C   0  0  0  0  0  0  0  0  0  0  0  0
   -3.3776   -0.2035   -0.6063 C   0  0  0  0  0  0  0  0  0  0  0  0
   -2.1327    0.3920   -0.3369 C   0  0  0  0  0  0  0  0  0  0  0  0
   -2.0771    1.7723   -0.2263 C   0  0  0  0  0  0  0  0  0  0  0  0
   -3.1719    2.6251   -0.3735 C   0  0  0  0  0  0  0  0  0  0  0  0
   -0.8096    2.1726    0.0486 O   0  0  0  0  0  0  0  0  0  0  0  0
   -0.0128    1.0556    0.1066 C   0  0  0  0  0  0  0  0  0  0  0  0
    1.3989    1.2803    0.3684 C   0  0  0  0  0  0  0  0  0  0  0  0
    1.8348    2.2832    0.9311 O   0  0  0  0  0  0  0  0  0  0  0  0
    2.2636    0.2900   -0.0724 N   0  0  0  0  0  0  0  0  0  0  0  0
    3.7150    0.3630    0.1468 C   0  0  0  0  0  0  0  0  0  0  0  0
    4.1579    0.1557    1.6123 C   0  0  0  0  0  0  0  0  0  0  0  0
    5.3510   -0.6802    1.0738 C   0  0  0  0  0  0  0  0  0  0  0  0
    6.8592    0.2713    0.7365 Cl  0  0  0  0  0  0  0  0  0  0  0  0
    5.7648   -2.1433    2.0427 Cl  0  0  0  0  0  0  0  0  0  0  0  0
    4.4647   -0.9478   -0.1748 C   0  0  0  0  0  0  0  0  0  0  0  0
   -0.8014   -0.0718   -0.1081 C   0  0  0  0  0  0  0  0  0  0  0  0
   -0.3251   -1.4403   -0.0686 C   0  0  0  0  0  0  0  0  0  0  0  0
   -0.3584   -2.2245   -1.2273 C   0  0  0  0  0  0  0  0  0  0  0  0
    0.1334   -3.5306   -1.2021 C   0  0  0  0  0  0  0  0  0  0  0  0
    0.6547   -4.0580   -0.0211 C   0  0  0  0  0  0  0  0  0  0  0  0
    0.6794   -3.2848    1.1389 C   0  0  0  0  0  0  0  0  0  0  0  0
    0.1871   -1.9791    1.1183 C   0  0  0  0  0  0  0  0  0  0  0  0
   -4.9148    4.5455   -1.4725 H   0  0  0  0  0  0  0  0  0  0  0  0
   -6.5754    4.4689   -0.8710 H   0  0  0  0  0  0  0  0  0  0  0  0
   -5.2505    4.4027    0.2976 H   0  0  0  0  0  0  0  0  0  0  0  0
   -5.4660    0.1764   -0.9721 H   0  0  0  0  0  0  0  0  0  0  0  0
   -3.4792   -1.2815   -0.6894 H   0  0  0  0  0  0  0  0  0  0  0  0
   -3.0359    3.6925   -0.2704 H   0  0  0  0  0  0  0  0  0  0  0  0
    1.8691   -0.4607   -0.6259 H   0  0  0  0  0  0  0  0  0  0  0  0
    4.1565    1.2449   -0.3335 H   0  0  0  0  0  0  0  0  0  0  0  0
    4.4161    1.0640    2.1651 H   0  0  0  0  0  0  0  0  0  0  0  0
    3.4427   -0.4172    2.2172 H   0  0  0  0  0  0  0  0  0  0  0  0
    4.9825   -0.9761   -1.1383 H   0  0  0  0  0  0  0  0  0  0  0  0
    3.8418   -1.8491   -0.0996 H   0  0  0  0  0  0  0  0  0  0  0  0
   -0.7610   -1.8253   -2.1562 H   0  0  0  0  0  0  0  0  0  0  0  0
    0.1068   -4.1393   -2.1030 H   0  0  0  0  0  0  0  0  0  0  0  0
    1.0340   -5.0773   -0.0019 H   0  0  0  0  0  0  0  0  0  0  0  0
    1.0767   -3.7016    2.0617 H   0  0  0  0  0  0  0  0  0  0  0  0
    0.2056   -1.3903    2.0335 H   0  0  0  0  0  0  0  0  0  0  0  0
  1  2  1  0
  2  3  1  0
  3  4  2  0
  4  5  1  0
  5  6  2  0
  6  7  1  0
  7  8  2  0
  7  9  1  0
  9 10  1  0
 10 11  1  0
 11 12  2  0
 11 13  1  0
 13 14  1  0
 14 15  1  0
 15 16  1  0
 16 17  1  0
 16 18  1  0
 16 19  1  0
 10 20  2  0
 20 21  1  0
 21 22  2  0
 22 23  1  0
 23 24  2  0
 24 25  1  0
 25 26  2  0
  8  3  1  0
 19 14  1  0
 26 21  1  0
 20  6  1  0
  1 27  1  0
  1 28  1  0
  1 29  1  0
  4 30  1  0
  5 31  1  0
  8 32  1  0
 13 33  1  0
 14 34  1  0
 15 35  1  0
 15 36  1  0
 19 37  1  0
 19 38  1  0
 22 39  1  0
 23 40  1  0
 24 41  1  0
 25 42  1  0
 26 43  1  0
M  END
$$$$
OCNT-2314827
     RDKit          3D

 48 51  0  0  0  0  0  0  0  0999 V2000
   -2.1639   -3.2466    0.5204 C   0  0  0  0  0  0  0  0  0  0  0  0
   -2.7691   -2.0741   -0.2219 C   0  0  0  0  0  0  0  0  0  0  0  0
   -3.3945   -2.3192   -1.2529 O   0  0  0  0  0  0  0  0  0  0  0  0
   -2.5524   -0.8060    0.3361 N   0  0  0  0  0  0  0  0  0  0  0  0
   -1.7378   -0.6274    1.5438 C   0  0  0  0  0  0  0  0  0  0  0  0
   -1.0977    0.7486    1.6682 C   0  0  0  0  0  0  0  0  0  0  0  0
    0.1097    0.9399    0.7126 C   0  0  0  0  0  0  0  0  0  0  0  0
   -0.0482    1.2333   -0.4717 O   0  0  0  0  0  0  0  0  0  0  0  0
    1.3906    0.8430    1.2885 N   0  0  0  0  0  0  0  0  0  0  0  0
    1.7153   -0.2892    2.1434 C   0  0  0  0  0  0  0  0  0  0  0  0
    2.0515   -1.4975    1.2712 C   0  0  0  0  0  0  0  0  0  0  0  0
    2.9197   -1.1587    0.0749 C   0  0  0  0  0  0  0  0  0  0  0  0
    3.4420   -2.2416   -0.6554 C   0  0  0  0  0  0  0  0  0  0  0  0
    4.2412   -2.0171   -1.7659 C   0  0  0  0  0  0  0  0  0  0  0  0
    4.8808   -3.3490   -2.6453 Cl  0  0  0  0  0  0  0  0  0  0  0  0
    4.5437   -0.7206   -2.1513 C   0  0  0  0  0  0  0  0  0  0  0  0
    4.0295    0.3726   -1.4368 C   0  0  0  0  0  0  0  0  0  0  0  0
    4.6026    1.9095   -1.9787 Cl  0  0  0  0  0  0  0  0  0  0  0  0
    3.1678    0.1869   -0.3334 C   0  0  0  0  0  0  0  0  0  0  0  0
    2.5700    1.3182    0.5185 C   0  0  0  0  0  0  0  0  0  0  0  0
    2.3090    2.7031   -0.0941 C   0  0  0  0  0  0  0  0  0  0  0  0
   -2.0706    1.7822    1.5689 O   0  0  0  0  0  0  0  0  0  0  0  0
   -2.9561    1.6189    0.5328 C   0  0  0  0  0  0  0  0  0  0  0  0
   -3.6230    2.7948    0.1674 C   0  0  0  0  0  0  0  0  0  0  0  0
   -4.5390    2.7855   -0.8771 C   0  0  0  0  0  0  0  0  0  0  0  0
   -4.7896    1.5971   -1.5504 C   0  0  0  0  0  0  0  0  0  0  0  0
   -4.1341    0.4166   -1.1739 C   0  0  0  0  0  0  0  0  0  0  0  0
   -3.2101    0.3943   -0.1193 C   0  0  0  0  0  0  0  0  0  0  0  0
   -2.4185   -3.2125    1.5827 H   0  0  0  0  0  0  0  0  0  0  0  0
   -2.5746   -4.1781    0.1171 H   0  0  0  0  0  0  0  0  0  0  0  0
   -1.0806   -3.2622    0.3770 H   0  0  0  0  0  0  0  0  0  0  0  0
   -2.4184   -0.7943    2.3890 H   0  0  0  0  0  0  0  0  0  0  0  0
   -0.9651   -1.3951    1.5928 H   0  0  0  0  0  0  0  0  0  0  0  0
   -0.7128    0.8473    2.6894 H   0  0  0  0  0  0  0  0  0  0  0  0
    0.8960   -0.5387    2.8211 H   0  0  0  0  0  0  0  0  0  0  0  0
    2.5726   -0.0104    2.7681 H   0  0  0  0  0  0  0  0  0  0  0  0
    1.1258   -1.9375    0.8826 H   0  0  0  0  0  0  0  0  0  0  0  0
    2.5441   -2.2560    1.8910 H   0  0  0  0  0  0  0  0  0  0  0  0
    3.2205   -3.2631   -0.3524 H   0  0  0  0  0  0  0  0  0  0  0  0
    5.1954   -0.5547   -3.0064 H   0  0  0  0  0  0  0  0  0  0  0  0
    3.3332    1.5073    1.2890 H   0  0  0  0  0  0  0  0  0  0  0  0
    3.2343    3.2813   -0.1726 H   0  0  0  0  0  0  0  0  0  0  0  0
    1.6460    3.2993    0.5442 H   0  0  0  0  0  0  0  0  0  0  0  0
    1.8590    2.6421   -1.0897 H   0  0  0  0  0  0  0  0  0  0  0  0
   -3.4105    3.7225    0.6917 H   0  0  0  0  0  0  0  0  0  0  0  0
   -5.0469    3.7000   -1.1696 H   0  0  0  0  0  0  0  0  0  0  0  0
   -5.4984    1.5769   -2.3747 H   0  0  0  0  0  0  0  0  0  0  0  0
   -4.3883   -0.4713   -1.7411 H   0  0  0  0  0  0  0  0  0  0  0  0
  1  2  1  0
  2  3  2  0
  2  4  1  0
  4  5  1  0
  5  6  1  0
  6  7  1  0
  7  8  2  0
  7  9  1  0
  9 10  1  0
 10 11  1  0
 11 12  1  0
 12 13  2  0
 13 14  1  0
 14 15  1  0
 14 16  2  0
 16 17  1  0
 17 18  1  0
 17 19  2  0
 19 20  1  0
 20 21  1  0
  6 22  1  0
 22 23  1  0
 23 24  2  0
 24 25  1  0
 25 26  2  0
 26 27  1  0
 27 28  2  0
 28  4  1  0
 20  9  1  0
 28 23  1  0
 19 12  1  0
  1 29  1  0
  1 30  1  0
  1 31  1  0
  5 32  1  0
  5 33  1  0
  6 34  1  0
 10 35  1  0
 10 36  1  0
 11 37  1  0
 11 38  1  0
 13 39  1  0
 16 40  1  0
 20 41  1  0
 21 42  1  0
 21 43  1  0
 21 44  1  0
 24 45  1  0
 25 46  1  0
 26 47  1  0
 27 48  1  0
M  END
$$$$
OCNT-2314844
     RDKit          3D

 35 37  0  0  0  0  0  0  0  0999 V2000
   -0.9853   -1.3831   -1.5702 C   0  0  0  0  0  0  0  0  0  0  0  0
   -1.4073   -0.9061   -0.2978 O   0  0  0  0  0  0  0  0  0  0  0  0
   -2.2072    0.2057   -0.2902 C   0  0  0  0  0  0  0  0  0  0  0  0
   -2.9677    0.6325   -1.3882 C   0  0  0  0  0  0  0  0  0  0  0  0
   -3.7840    1.7667   -1.2958 C   0  0  0  0  0  0  0  0  0  0  0  0
   -3.8538    2.4819   -0.1039 C   0  0  0  0  0  0  0  0  0  0  0  0
   -3.1066    2.0564    0.9878 C   0  0  0  0  0  0  0  0  0  0  0  0
   -3.1743    2.7501    2.1353 F   0  0  0  0  0  0  0  0  0  0  0  0
   -2.2928    0.9193    0.9162 C   0  0  0  0  0  0  0  0  0  0  0  0
   -1.4906    0.5864    2.0703 N   0  0  0  0  0  0  0  0  0  0  0  0
    0.1403    1.0533    1.9633 S   0  0  0  0  0  0  0  0  0  0  0  0
    0.2933    2.0904    0.9659 O   0  0  0  0  0  0  0  0  0  0  0  0
    0.5907    1.2403    3.3275 O   0  0  0  0  0  0  0  0  0  0  0  0
    1.0749   -0.2947    1.4196 C   0  0  0  0  0  0  0  0  0  0  0  0
    0.9657   -1.5767    1.9267 C   0  0  0  0  0  0  0  0  0  0  0  0
    1.8599   -2.3669    1.2612 N   0  0  0  0  0  0  0  0  0  0  0  0
    2.5519   -1.6225    0.3307 C   0  0  0  0  0  0  0  0  0  0  0  0
    3.5513   -2.0210   -0.5678 C   0  0  0  0  0  0  0  0  0  0  0  0
    4.0934   -1.0438   -1.4063 C   0  0  0  0  0  0  0  0  0  0  0  0
    5.3213   -1.4885   -2.5303 Cl  0  0  0  0  0  0  0  0  0  0  0  0
    3.6608    0.2766   -1.3522 C   0  0  0  0  0  0  0  0  0  0  0  0
    2.6597    0.6570   -0.4487 C   0  0  0  0  0  0  0  0  0  0  0  0
    2.0847   -0.3047    0.4122 C   0  0  0  0  0  0  0  0  0  0  0  0
   -1.8163   -1.8583   -2.1016 H   0  0  0  0  0  0  0  0  0  0  0  0
   -0.5361   -0.5832   -2.1694 H   0  0  0  0  0  0  0  0  0  0  0  0
   -0.2197   -2.1480   -1.4046 H   0  0  0  0  0  0  0  0  0  0  0  0
   -2.9546    0.0944   -2.3315 H   0  0  0  0  0  0  0  0  0  0  0  0
   -4.3654    2.0887   -2.1575 H   0  0  0  0  0  0  0  0  0  0  0  0
   -4.4782    3.3656   -0.0192 H   0  0  0  0  0  0  0  0  0  0  0  0
   -1.8602    0.9962    2.9311 H   0  0  0  0  0  0  0  0  0  0  0  0
    0.3244   -1.9803    2.6997 H   0  0  0  0  0  0  0  0  0  0  0  0
    2.0019   -3.3544    1.4279 H   0  0  0  0  0  0  0  0  0  0  0  0
    3.8941   -3.0501   -0.6110 H   0  0  0  0  0  0  0  0  0  0  0  0
    4.0959    1.0261   -2.0092 H   0  0  0  0  0  0  0  0  0  0  0  0
    2.3356    1.6951   -0.4210 H   0  0  0  0  0  0  0  0  0  0  0  0
  1  2  1  0
  2  3  1  0
  3  4  2  0
  4  5  1  0
  5  6  2  0
  6  7  1  0
  7  8  1  0
  7  9  2  0
  9 10  1  0
 10 11  1  0
 11 12  2  0
 11 13  2  0
 11 14  1  0
 14 15  2  0
 15 16  1  0
 16 17  1  0
 17 18  2  0
 18 19  1  0
 19 20  1  0
 19 21  2  0
 21 22  1  0
 22 23  2  0
  9  3  1  0
 23 14  1  0
 23 17  1  0
  1 24  1  0
  1 25  1  0
  1 26  1  0
  4 27  1  0
  5 28  1  0
  6 29  1  0
 10 30  1  0
 15 31  1  0
 16 32  1  0
 18 33  1  0
 21 34  1  0
 22 35  1  0
M  END
$$$$
OCNT-2314853
     RDKit          3D

 49 51  0  0  0  0  0  0  0  0999 V2000
   -5.2677    2.5401    2.2757 C   0  0  0  0  0  0  0  0  0  0  0  0
   -4.0153    1.8968    2.0777 O   0  0  0  0  0  0  0  0  0  0  0  0
   -3.8547    1.2036    0.9094 C   0  0  0  0  0  0  0  0  0  0  0  0
   -4.8057    1.0633   -0.0986 C   0  0  0  0  0  0  0  0  0  0  0  0
   -4.5054    0.3215   -1.2427 C   0  0  0  0  0  0  0  0  0  0  0  0
   -3.2548   -0.2826   -1.3864 C   0  0  0  0  0  0  0  0  0  0  0  0
   -2.2799   -0.1546   -0.3871 C   0  0  0  0  0  0  0  0  0  0  0  0
   -0.8959   -0.7943   -0.4953 C   0  0  0  0  0  0  0  0  0  0  0  0
   -0.2340   -0.5690   -1.8976 C   0  0  0  0  0  0  0  0  0  0  0  0
    1.1061   -1.1584   -1.9724 N   0  0  0  0  0  0  0  0  0  0  0  0
    2.0883   -0.4578   -1.2834 C   0  0  0  0  0  0  0  0  0  0  0  0
    2.0632    0.8786   -1.2448 N   0  0  0  0  0  0  0  0  0  0  0  0
    3.0424    1.5054   -0.5581 C   0  0  0  0  0  0  0  0  0  0  0  0
    2.9677    3.0048   -0.5541 C   0  0  0  0  0  0  0  0  0  0  0  0
    4.0586    0.8128    0.1075 C   0  0  0  0  0  0  0  0  0  0  0  0
    5.1125    1.4066    0.8468 C   0  0  0  0  0  0  0  0  0  0  0  0
    6.0738    0.6164    1.4729 C   0  0  0  0  0  0  0  0  0  0  0  0
    5.9932   -0.7654    1.3679 C   0  0  0  0  0  0  0  0  0  0  0  0
    4.9522   -1.3457    0.6376 C   0  0  0  0  0  0  0  0  0  0  0  0
    3.9809   -0.5802    0.0035 C   0  0  0  0  0  0  0  0  0  0  0  0
    3.0141   -1.2052   -0.6768 N   0  0  0  0  0  0  0  0  0  0  0  0
   -0.8167   -2.2233   -0.0696 N   0  0  0  0  0  0  0  0  0  0  0  0
   -1.6743   -3.1389   -0.8144 C   0  0  0  0  0  0  0  0  0  0  0  0
   -1.0159   -2.3871    1.3693 C   0  0  0  0  0  0  0  0  0  0  0  0
   -2.6037    0.5962    0.7585 C   0  0  0  0  0  0  0  0  0  0  0  0
   -5.4473    3.3000    1.5080 H   0  0  0  0  0  0  0  0  0  0  0  0
   -6.0845    1.8116    2.3107 H   0  0  0  0  0  0  0  0  0  0  0  0
   -5.2333    3.0477    3.2445 H   0  0  0  0  0  0  0  0  0  0  0  0
   -5.7888    1.5154   -0.0268 H   0  0  0  0  0  0  0  0  0  0  0  0
   -5.2512    0.2119   -2.0264 H   0  0  0  0  0  0  0  0  0  0  0  0
   -3.0608   -0.8604   -2.2865 H   0  0  0  0  0  0  0  0  0  0  0  0
   -0.2468   -0.2371    0.1961 H   0  0  0  0  0  0  0  0  0  0  0  0
   -0.8305   -1.0495   -2.6810 H   0  0  0  0  0  0  0  0  0  0  0  0
   -0.2253    0.4980   -2.1561 H   0  0  0  0  0  0  0  0  0  0  0  0
    1.1272   -2.0921   -1.5634 H   0  0  0  0  0  0  0  0  0  0  0  0
    2.8604    3.3795    0.4686 H   0  0  0  0  0  0  0  0  0  0  0  0
    3.8656    3.4337   -1.0097 H   0  0  0  0  0  0  0  0  0  0  0  0
    2.1030    3.3529   -1.1292 H   0  0  0  0  0  0  0  0  0  0  0  0
    5.1883    2.4873    0.9368 H   0  0  0  0  0  0  0  0  0  0  0  0
    6.8800    1.0772    2.0379 H   0  0  0  0  0  0  0  0  0  0  0  0
    6.7352   -1.3972    1.8493 H   0  0  0  0  0  0  0  0  0  0  0  0
    4.8970   -2.4296    0.5592 H   0  0  0  0  0  0  0  0  0  0  0  0
   -1.5078   -3.0636   -1.8931 H   0  0  0  0  0  0  0  0  0  0  0  0
   -2.7388   -2.9820   -0.6117 H   0  0  0  0  0  0  0  0  0  0  0  0
   -1.4378   -4.1753   -0.5460 H   0  0  0  0  0  0  0  0  0  0  0  0
   -2.0420   -2.1646    1.6809 H   0  0  0  0  0  0  0  0  0  0  0  0
   -0.3317   -1.7453    1.9354 H   0  0  0  0  0  0  0  0  0  0  0  0
   -0.7895   -3.4167    1.6690 H   0  0  0  0  0  0  0  0  0  0  0  0
   -1.8701    0.7146    1.5543 H   0  0  0  0  0  0  0  0  0  0  0  0
  1  2  1  0
  2  3  1  0
  3  4  1  0
  4  5  2  0
  5  6  1  0
  6  7  2  0
  7  8  1  0
  8  9  1  0
  9 10  1  0
 10 11  1  0
 11 12  2  0
 12 13  1  0
 13 14  1  0
 13 15  2  0
 15 16  1  0
 16 17  2  0
 17 18  1  0
 18 19  2  0
 19 20  1  0
 20 21  2  0
  8 22  1  0
 22 23  1  0
 22 24  1  0
  7 25  1  0
 25  3  2  0
 21 11  1  0
 20 15  1  0
  1 26  1  0
  1 27  1  0
  1 28  1  0
  4 29  1  0
  5 30  1  0
  6 31  1  0
  8 32  1  0
  9 33  1  0
  9 34  1  0
 10 35  1  0
 14 36  1  0
 14 37  1  0
 14 38  1  0
 16 39  1  0
 17 40  1  0
 18 41  1  0
 19 42  1  0
 23 43  1  0
 23 44  1  0
 23 45  1  0
 24 46  1  0
 24 47  1  0
 24 48  1  0
 25 49  1  0
M  END
$$$$
OCNT-2314864
     RDKit          3D

 45 49  0  0  0  0  0  0  0  0999 V2000
    2.5562    1.5381   -2.1510 O   0  0  0  0  0  0  0  0  0  0  0  0
    2.8693    1.2633   -0.9975 C   0  0  0  0  0  0  0  0  0  0  0  0
    2.2819    1.8678    0.0941 N   0  0  0  0  0  0  0  0  0  0  0  0
    1.1804    2.7908   -0.0718 C   0  0  0  0  0  0  0  0  0  0  0  0
   -0.1403    2.0947    0.1378 C   0  0  0  0  0  0  0  0  0  0  0  0
   -0.7114    1.3375   -0.8923 C   0  0  0  0  0  0  0  0  0  0  0  0
   -1.9259    0.6702   -0.7028 C   0  0  0  0  0  0  0  0  0  0  0  0
   -2.5938    0.7518    0.5233 C   0  0  0  0  0  0  0  0  0  0  0  0
   -3.8285    0.0700    0.7335 N   0  0  0  0  0  0  0  0  0  0  0  0
   -4.2932   -0.3666    1.9590 C   0  0  0  0  0  0  0  0  0  0  0  0
   -5.4163   -1.0394    1.8764 N   0  0  0  0  0  0  0  0  0  0  0  0
   -5.7402   -1.0143    0.5488 C   0  0  0  0  0  0  0  0  0  0  0  0
   -6.8640   -1.5680   -0.0855 C   0  0  0  0  0  0  0  0  0  0  0  0
   -7.0337   -1.3768   -1.4592 C   0  0  0  0  0  0  0  0  0  0  0  0
   -6.1092   -0.6321   -2.1868 C   0  0  0  0  0  0  0  0  0  0  0  0
   -4.9802   -0.0757   -1.5722 C   0  0  0  0  0  0  0  0  0  0  0  0
   -4.7926   -0.3087   -0.1977 C   0  0  0  0  0  0  0  0  0  0  0  0
   -2.0120    1.4886    1.5663 C   0  0  0  0  0  0  0  0  0  0  0  0
   -0.7974    2.1559    1.3719 C   0  0  0  0  0  0  0  0  0  0  0  0
    3.8620    0.2613   -0.6715 C   0  0  0  0  0  0  0  0  0  0  0  0
    4.3456   -0.7460   -1.4916 C   0  0  0  0  0  0  0  0  0  0  0  0
    5.3147   -1.4948   -0.7718 C   0  0  0  0  0  0  0  0  0  0  0  0
    6.1133   -2.6065   -1.0646 C   0  0  0  0  0  0  0  0  0  0  0  0
    6.9728   -3.0989   -0.1377 N   0  0  0  0  0  0  0  0  0  0  0  0
    7.0475   -2.4949    1.0687 C   0  0  0  0  0  0  0  0  0  0  0  0
    6.3031   -1.3895    1.4541 C   0  0  0  0  0  0  0  0  0  0  0  0
    5.4245   -0.9072    0.4865 C   0  0  0  0  0  0  0  0  0  0  0  0
    4.5529    0.1558    0.5159 N   0  0  0  0  0  0  0  0  0  0  0  0
    2.3346    1.3949    0.9822 H   0  0  0  0  0  0  0  0  0  0  0  0
    1.2084    3.2664   -1.0586 H   0  0  0  0  0  0  0  0  0  0  0  0
    1.3124    3.5843    0.6721 H   0  0  0  0  0  0  0  0  0  0  0  0
   -0.2006    1.2497   -1.8514 H   0  0  0  0  0  0  0  0  0  0  0  0
   -2.2871    0.0482   -1.5158 H   0  0  0  0  0  0  0  0  0  0  0  0
   -3.7494   -0.2099    2.8801 H   0  0  0  0  0  0  0  0  0  0  0  0
   -7.5924   -2.1230    0.4958 H   0  0  0  0  0  0  0  0  0  0  0  0
   -7.9043   -1.7975   -1.9563 H   0  0  0  0  0  0  0  0  0  0  0  0
   -6.2712   -0.4702   -3.2508 H   0  0  0  0  0  0  0  0  0  0  0  0
   -4.3008    0.5348   -2.1564 H   0  0  0  0  0  0  0  0  0  0  0  0
   -2.4968    1.5964    2.5334 H   0  0  0  0  0  0  0  0  0  0  0  0
   -0.3752    2.7324    2.1926 H   0  0  0  0  0  0  0  0  0  0  0  0
    4.0196   -0.9222   -2.5099 H   0  0  0  0  0  0  0  0  0  0  0  0
    6.0880   -3.1175   -2.0201 H   0  0  0  0  0  0  0  0  0  0  0  0
    7.7599   -2.9441    1.7564 H   0  0  0  0  0  0  0  0  0  0  0  0
    6.4058   -0.9437    2.4344 H   0  0  0  0  0  0  0  0  0  0  0  0
    4.4634    0.7947    1.2926 H   0  0  0  0  0  0  0  0  0  0  0  0
  1  2  2  0
  2  3  1  0
  3  4  1  0
  4  5  1  0
  5  6  1  0
  6  7  2  0
  7  8  1  0
  8  9  1  0
  9 10  1  0
 10 11  2  0
 11 12  1  0
 12 13  2  0
 13 14  1  0
 14 15  2  0
 15 16  1  0
 16 17  2  0
  8 18  2  0
 18 19  1  0
  2 20  1  0
 20 21  2  0
 21 22  1  0
 22 23  2  0
 23 24  1  0
 24 25  2  0
 25 26  1  0
 26 27  2  0
 27 28  1  0
 19  5  2  0
 28 20  1  0
 17  9  1  0
 27 22  1  0
 17 12  1  0
  3 29  1  0
  4 30  1  0
  4 31  1  0
  6 32  1  0
  7 33  1  0
 10 34  1  0
 13 35  1  0
 14 36  1  0
 15 37  1  0
 16 38  1  0
 18 39  1  0
 19 40  1  0
 21 41  1  0
 23 42  1  0
 25 43  1  0
 26 44  1  0
 28 45  1  0
M  END
$$$$
OCNT-2314865
     RDKit          3D

 49 50  0  0  0  0  0  0  0  0999 V2000
    7.8031    0.6994   -1.0519 C   0  0  0  0  0  0  0  0  0  0  0  0
    6.3066    0.8154   -1.0744 C   0  0  0  0  0  0  0  0  0  0  0  0
    5.6890    2.0626   -0.9039 C   0  0  0  0  0  0  0  0  0  0  0  0
    4.2985    2.1784   -0.9598 C   0  0  0  0  0  0  0  0  0  0  0  0
    3.5248    1.0404   -1.1943 C   0  0  0  0  0  0  0  0  0  0  0  0
    1.7588    1.1635   -1.2774 S   0  0  0  0  0  0  0  0  0  0  0  0
    1.3208    0.4355   -2.4450 O   0  0  0  0  0  0  0  0  0  0  0  0
    1.3767    2.5370   -1.0306 O   0  0  0  0  0  0  0  0  0  0  0  0
    1.3098    0.3100    0.1236 N   0  0  0  0  0  0  0  0  0  0  0  0
   -0.0905   -0.2069    0.0904 C   0  0  0  0  0  0  0  0  0  0  0  0
   -0.3641   -1.0002    1.3862 C   0  0  0  0  0  0  0  0  0  0  0  0
   -1.7843   -1.2492    1.7229 N   0  0  0  0  0  0  0  0  0  0  0  0
   -1.8615   -1.8127    3.0768 C   0  0  0  0  0  0  0  0  0  0  0  0
   -2.4482   -2.1736    0.7756 C   0  0  0  0  0  0  0  0  0  0  0  0
   -2.9601   -1.4531   -0.4343 C   0  0  0  0  0  0  0  0  0  0  0  0
   -2.5801   -1.8597   -1.6537 N   0  0  0  0  0  0  0  0  0  0  0  0
   -3.1955   -1.0067   -2.5463 O   0  0  0  0  0  0  0  0  0  0  0  0
   -3.9537   -0.1161   -1.8682 C   0  0  0  0  0  0  0  0  0  0  0  0
   -3.8660   -0.3522   -0.5150 C   0  0  0  0  0  0  0  0  0  0  0  0
   -4.5429    0.3821    0.6025 C   0  0  0  0  0  0  0  0  0  0  0  0
   -6.0524    0.5058    0.3772 C   0  0  0  0  0  0  0  0  0  0  0  0
   -3.9235    1.7643    0.8205 C   0  0  0  0  0  0  0  0  0  0  0  0
    4.1263   -0.2059   -1.3869 C   0  0  0  0  0  0  0  0  0  0  0  0
    5.5164   -0.3145   -1.3289 C   0  0  0  0  0  0  0  0  0  0  0  0
    8.2499    1.4890   -0.4382 H   0  0  0  0  0  0  0  0  0  0  0  0
    8.1991    0.7772   -2.0691 H   0  0  0  0  0  0  0  0  0  0  0  0
    8.1120   -0.2593   -0.6225 H   0  0  0  0  0  0  0  0  0  0  0  0
    6.2899    2.9532   -0.7306 H   0  0  0  0  0  0  0  0  0  0  0  0
    3.8343    3.1530   -0.8285 H   0  0  0  0  0  0  0  0  0  0  0  0
    1.4160    0.9628    0.9043 H   0  0  0  0  0  0  0  0  0  0  0  0
   -0.2110   -0.8620   -0.7756 H   0  0  0  0  0  0  0  0  0  0  0  0
   -0.7745    0.6453    0.0183 H   0  0  0  0  0  0  0  0  0  0  0  0
    0.1993   -1.9429    1.3552 H   0  0  0  0  0  0  0  0  0  0  0  0
    0.0713   -0.4181    2.2109 H   0  0  0  0  0  0  0  0  0  0  0  0
   -2.9057   -1.9457    3.3810 H   0  0  0  0  0  0  0  0  0  0  0  0
   -1.4146   -1.1291    3.8078 H   0  0  0  0  0  0  0  0  0  0  0  0
   -1.3519   -2.7799    3.1506 H   0  0  0  0  0  0  0  0  0  0  0  0
   -3.3309   -2.6277    1.2480 H   0  0  0  0  0  0  0  0  0  0  0  0
   -1.7853   -3.0047    0.5017 H   0  0  0  0  0  0  0  0  0  0  0  0
   -4.4834    0.6011   -2.4774 H   0  0  0  0  0  0  0  0  0  0  0  0
   -4.4090   -0.1899    1.5289 H   0  0  0  0  0  0  0  0  0  0  0  0
   -6.2810    1.1228   -0.4984 H   0  0  0  0  0  0  0  0  0  0  0  0
   -6.5365    0.9656    1.2454 H   0  0  0  0  0  0  0  0  0  0  0  0
   -6.5077   -0.4777    0.2202 H   0  0  0  0  0  0  0  0  0  0  0  0
   -4.0525    2.4057   -0.0588 H   0  0  0  0  0  0  0  0  0  0  0  0
   -4.3871    2.2677    1.6760 H   0  0  0  0  0  0  0  0  0  0  0  0
   -2.8493    1.6880    1.0199 H   0  0  0  0  0  0  0  0  0  0  0  0
    3.5187   -1.0863   -1.5869 H   0  0  0  0  0  0  0  0  0  0  0  0
    5.9818   -1.2853   -1.4875 H   0  0  0  0  0  0  0  0  0  0  0  0
  1  2  1  0
  2  3  1  0
  3  4  2  0
  4  5  1  0
  5  6  1  0
  6  7  2  0
  6  8  2  0
  6  9  1  0
  9 10  1  0
 10 11  1  0
 11 12  1  0
 12 13  1  0
 12 14  1  0
 14 15  1  0
 15 16  2  0
 16 17  1  0
 17 18  1  0
 18 19  2  0
 19 20  1  0
 20 21  1  0
 20 22  1  0
  5 23  2  0
 23 24  1  0
 24  2  2  0
 19 15  1  0
  1 25  1  0
  1 26  1  0
  1 27  1  0
  3 28  1  0
  4 29  1  0
  9 30  1  0
 10 31  1  0
 10 32  1  0
 11 33  1  0
 11 34  1  0
 13 35  1  0
 13 36  1  0
 13 37  1  0
 14 38  1  0
 14 39  1  0
 18 40  1  0
 20 41  1  0
 21 42  1  0
 21 43  1  0
 21 44  1  0
 22 45  1  0
 22 46  1  0
 22 47  1  0
 23 48  1  0
 24 49  1  0
M  END
$$$$
OCNT-2314866
     RDKit          3D

 36 38  0  0  0  0  0  0  0  0999 V2000
   -2.4910   -1.7639   -1.3852 O   0  0  0  0  0  0  0  0  0  0  0  0
   -1.9038   -0.9275   -0.7049 C   0  0  0  0  0  0  0  0  0  0  0  0
   -2.5175    0.0322    0.0671 N   0  0  0  0  0  0  0  0  0  0  0  0
   -3.9027    0.1917    0.2956 C   0  0  0  0  0  0  0  0  0  0  0  0
   -4.3379    1.3057    1.0021 C   0  0  0  0  0  0  0  0  0  0  0  0
   -5.6367    1.5508    1.2856 N   0  0  0  0  0  0  0  0  0  0  0  0
   -6.5782    0.6728    0.8658 N   0  0  0  0  0  0  0  0  0  0  0  0
   -6.1956   -0.4236    0.1787 C   0  0  0  0  0  0  0  0  0  0  0  0
   -4.8754   -0.7029   -0.1238 C   0  0  0  0  0  0  0  0  0  0  0  0
   -0.5247   -0.8873   -0.6640 N   0  0  0  0  0  0  0  0  0  0  0  0
    0.2603   -1.8027   -1.4763 C   0  0  0  0  0  0  0  0  0  0  0  0
    1.6920   -1.3006   -1.3537 C   0  0  0  0  0  0  0  0  0  0  0  0
    1.7235   -0.7286    0.0686 C   0  0  0  0  0  0  0  0  0  0  0  0
    2.8893    0.1799    0.3612 C   0  0  0  0  0  0  0  0  0  0  0  0
    3.0878    1.3870   -0.3197 C   0  0  0  0  0  0  0  0  0  0  0  0
    2.2215    1.7747   -1.2664 F   0  0  0  0  0  0  0  0  0  0  0  0
    4.1724    2.2145   -0.0398 C   0  0  0  0  0  0  0  0  0  0  0  0
    5.0908    1.8428    0.9382 C   0  0  0  0  0  0  0  0  0  0  0  0
    4.9174    0.6446    1.6284 C   0  0  0  0  0  0  0  0  0  0  0  0
    3.8262   -0.1816    1.3423 C   0  0  0  0  0  0  0  0  0  0  0  0
    0.3357   -0.0860    0.2005 C   0  0  0  0  0  0  0  0  0  0  0  0
   -1.9191    0.7685    0.4051 H   0  0  0  0  0  0  0  0  0  0  0  0
   -3.6531    2.0584    1.3748 H   0  0  0  0  0  0  0  0  0  0  0  0
   -6.9992   -1.0851   -0.1254 H   0  0  0  0  0  0  0  0  0  0  0  0
   -4.6462   -1.6080   -0.6715 H   0  0  0  0  0  0  0  0  0  0  0  0
   -0.0976   -1.8145   -2.5104 H   0  0  0  0  0  0  0  0  0  0  0  0
    0.1527   -2.8074   -1.0519 H   0  0  0  0  0  0  0  0  0  0  0  0
    2.4276   -2.0959   -1.5092 H   0  0  0  0  0  0  0  0  0  0  0  0
    1.8762   -0.5239   -2.1053 H   0  0  0  0  0  0  0  0  0  0  0  0
    1.7542   -1.5829    0.7612 H   0  0  0  0  0  0  0  0  0  0  0  0
    4.2938    3.1430   -0.5891 H   0  0  0  0  0  0  0  0  0  0  0  0
    5.9407    2.4831    1.1605 H   0  0  0  0  0  0  0  0  0  0  0  0
    5.6349    0.3497    2.3910 H   0  0  0  0  0  0  0  0  0  0  0  0
    3.7179   -1.1136    1.8941 H   0  0  0  0  0  0  0  0  0  0  0  0
    0.2919    0.9472   -0.1576 H   0  0  0  0  0  0  0  0  0  0  0  0
   -0.0285   -0.1107    1.2330 H   0  0  0  0  0  0  0  0  0  0  0  0
  1  2  2  0
  2  3  1  0
  3  4  1  0
  4  5  2  0
  5  6  1  0
  6  7  2  0
  7  8  1  0
  8  9  2  0
  2 10  1  0
 10 11  1  0
 11 12  1  0
 12 13  1  0
 13 14  1  0
 14 15  1  0
 15 16  1  0
 15 17  2  0
 17 18  1  0
 18 19  2  0
 19 20  1  0
 13 21  1  0
  9  4  1  0
 21 10  1  0
 20 14  2  0
  3 22  1  0
  5 23  1  0
  8 24  1  0
  9 25  1  0
 11 26  1  0
 11 27  1  0
 12 28  1  0
 12 29  1  0
 13 30  1  0
 17 31  1  0
 18 32  1  0
 19 33  1  0
 20 34  1  0
 21 35  1  0
 21 36  1  0
M  END
$$$$
OCNT-2314885
     RDKit          3D

 49 51  0  0  0  0  0  0  0  0999 V2000
   -4.3017    1.6260   -1.5608 C   0  0  0  0  0  0  0  0  0  0  0  0
   -4.7829    0.6183   -0.5009 C   0  0  0  0  0  0  0  0  0  0  0  0
   -6.2936    0.7878   -0.3087 C   0  0  0  0  0  0  0  0  0  0  0  0
   -4.4504   -0.7920   -0.9930 C   0  0  0  0  0  0  0  0  0  0  0  0
   -4.0859    0.9687    0.7521 N   0  0  0  0  0  0  0  0  0  0  0  0
   -3.9430   -0.0190    2.0947 S   0  0  0  0  0  0  0  0  0  0  0  0
   -3.5590    0.8441    3.1897 O   0  0  0  0  0  0  0  0  0  0  0  0
   -5.1084   -0.8702    2.1766 O   0  0  0  0  0  0  0  0  0  0  0  0
   -2.5299   -1.0220    1.7197 C   0  0  0  0  0  0  0  0  0  0  0  0
   -2.6099   -2.4096    1.8474 C   0  0  0  0  0  0  0  0  0  0  0  0
   -1.4928   -3.1832    1.5474 C   0  0  0  0  0  0  0  0  0  0  0  0
   -0.3118   -2.5683    1.1200 C   0  0  0  0  0  0  0  0  0  0  0  0
   -0.2317   -1.1743    0.9841 C   0  0  0  0  0  0  0  0  0  0  0  0
    0.9947   -0.6420    0.5394 N   0  0  0  0  0  0  0  0  0  0  0  0
    1.2926    0.6788    0.2657 C   0  0  0  0  0  0  0  0  0  0  0  0
    0.5288    1.6336    0.3366 O   0  0  0  0  0  0  0  0  0  0  0  0
    2.7216    0.8574   -0.1705 C   0  0  0  0  0  0  0  0  0  0  0  0
    3.1318    2.0983   -0.4684 C   0  0  0  0  0  0  0  0  0  0  0  0
    4.5207    2.3083   -0.8999 C   0  0  0  0  0  0  0  0  0  0  0  0
    4.9359    3.4224   -1.1869 O   0  0  0  0  0  0  0  0  0  0  0  0
    5.3763    1.1151   -0.9684 C   0  0  0  0  0  0  0  0  0  0  0  0
    6.7128    1.2212   -1.3650 C   0  0  0  0  0  0  0  0  0  0  0  0
    7.4888    0.0690   -1.4173 C   0  0  0  0  0  0  0  0  0  0  0  0
    8.7970    0.1104   -1.7963 O   0  0  0  0  0  0  0  0  0  0  0  0
    6.9523   -1.1720   -1.0826 C   0  0  0  0  0  0  0  0  0  0  0  0
    5.6166   -1.2700   -0.6875 C   0  0  0  0  0  0  0  0  0  0  0  0
    4.8276   -0.1215   -0.6310 C   0  0  0  0  0  0  0  0  0  0  0  0
    3.5222   -0.2748   -0.2371 O   0  0  0  0  0  0  0  0  0  0  0  0
   -1.3486   -0.4000    1.2944 C   0  0  0  0  0  0  0  0  0  0  0  0
   -4.7815    1.4470   -2.5295 H   0  0  0  0  0  0  0  0  0  0  0  0
   -4.5265    2.6567   -1.2620 H   0  0  0  0  0  0  0  0  0  0  0  0
   -3.2166    1.5593   -1.7044 H   0  0  0  0  0  0  0  0  0  0  0  0
   -6.8297    0.6487   -1.2543 H   0  0  0  0  0  0  0  0  0  0  0  0
   -6.6991    0.0638    0.4045 H   0  0  0  0  0  0  0  0  0  0  0  0
   -6.5357    1.7877    0.0699 H   0  0  0  0  0  0  0  0  0  0  0  0
   -4.8151   -1.5661   -0.3116 H   0  0  0  0  0  0  0  0  0  0  0  0
   -3.3706   -0.9298   -1.1135 H   0  0  0  0  0  0  0  0  0  0  0  0
   -4.9149   -0.9845   -1.9673 H   0  0  0  0  0  0  0  0  0  0  0  0
   -4.0106    1.9572    0.9936 H   0  0  0  0  0  0  0  0  0  0  0  0
   -3.5289   -2.8872    2.1801 H   0  0  0  0  0  0  0  0  0  0  0  0
   -1.5389   -4.2653    1.6460 H   0  0  0  0  0  0  0  0  0  0  0  0
    0.5440   -3.1990    0.8910 H   0  0  0  0  0  0  0  0  0  0  0  0
    1.7449   -1.3065    0.3879 H   0  0  0  0  0  0  0  0  0  0  0  0
    2.4950    2.9732   -0.4116 H   0  0  0  0  0  0  0  0  0  0  0  0
    7.1245    2.1925   -1.6246 H   0  0  0  0  0  0  0  0  0  0  0  0
    9.0414    1.0303   -1.9960 H   0  0  0  0  0  0  0  0  0  0  0  0
    7.5764   -2.0611   -1.1298 H   0  0  0  0  0  0  0  0  0  0  0  0
    5.2020   -2.2398   -0.4265 H   0  0  0  0  0  0  0  0  0  0  0  0
   -1.3303    0.6828    1.2227 H   0  0  0  0  0  0  0  0  0  0  0  0
  1  2  1  0
  2  3  1  0
  2  4  1  0
  2  5  1  0
  5  6  1  0
  6  7  2  0
  6  8  2  0
  6  9  1  0
  9 10  2  0
 10 11  1  0
 11 12  2  0
 12 13  1  0
 13 14  1  0
 14 15  1  0
 15 16  2  0
 15 17  1  0
 17 18  2  0
 18 19  1  0
 19 20  2  0
 19 21  1  0
 21 22  1  0
 22 23  2  0
 23 24  1  0
 23 25  1  0
 25 26  2  0
 26 27  1  0
 27 28  1  0
 13 29  2  0
 29  9  1  0
 28 17  1  0
 27 21  2  0
  1 30  1  0
  1 31  1  0
  1 32  1  0
  3 33  1  0
  3 34  1  0
  3 35  1  0
  4 36  1  0
  4 37  1  0
  4 38  1  0
  5 39  1  0
 10 40  1  0
 11 41  1  0
 12 42  1  0
 14 43  1  0
 18 44  1  0
 22 45  1  0
 24 46  1  0
 25 47  1  0
 26 48  1  0
 29 49  1  0
M  END
$$$$
OCNT-2314906
     RDKit          3D

 43 43  0  0  0  0  0  0  0  0999 V2000
   -3.3754    0.7526   -0.3236 C   0  0  0  0  0  0  0  0  0  0  0  0
   -3.8184   -0.3043    0.6901 C   0  0  0  0  0  0  0  0  0  0  0  0
   -4.8950   -1.2180    0.0908 C   0  0  0  0  0  0  0  0  0  0  0  0
   -4.4159    0.4199    1.9129 C   0  0  0  0  0  0  0  0  0  0  0  0
   -2.6843   -1.1233    1.2206 N   0  0  0  0  0  0  0  0  0  0  0  0
   -1.5061   -1.7933    0.2293 S   0  0  0  0  0  0  0  0  0  0  0  0
   -0.7672   -2.6906    1.0854 O   0  0  0  0  0  0  0  0  0  0  0  0
   -2.1335   -2.2147   -0.9932 O   0  0  0  0  0  0  0  0  0  0  0  0
   -0.5742   -0.4463    0.0330 N   0  0  0  0  0  0  0  0  0  0  0  0
    0.3350   -0.2916   -1.0351 C   0  0  0  0  0  0  0  0  0  0  0  0
    0.2952   -1.0072   -2.0286 O   0  0  0  0  0  0  0  0  0  0  0  0
    1.4349    0.7951   -0.8659 C   0  0  0  0  0  0  0  0  0  0  0  0
    1.4450    1.5542   -2.2166 C   0  0  0  0  0  0  0  0  0  0  0  0
    1.1056    1.8317    0.2296 C   0  0  0  0  0  0  0  0  0  0  0  0
    2.7958    0.1567   -0.5179 C   0  0  0  0  0  0  0  0  0  0  0  0
    2.8712   -0.9441    0.3584 C   0  0  0  0  0  0  0  0  0  0  0  0
    4.0993   -1.5168    0.7030 C   0  0  0  0  0  0  0  0  0  0  0  0
    5.2850   -0.9970    0.1896 C   0  0  0  0  0  0  0  0  0  0  0  0
    5.2433    0.1008   -0.6696 C   0  0  0  0  0  0  0  0  0  0  0  0
    6.4609    0.6477   -1.1967 C   0  0  0  0  0  0  0  0  0  0  0  0
    7.4429    1.0984   -1.6247 N   0  0  0  0  0  0  0  0  0  0  0  0
    4.0085    0.6736   -1.0145 C   0  0  0  0  0  0  0  0  0  0  0  0
   -4.2161    1.3951   -0.6132 H   0  0  0  0  0  0  0  0  0  0  0  0
   -2.9896    0.3052   -1.2445 H   0  0  0  0  0  0  0  0  0  0  0  0
   -2.5968    1.4024    0.0893 H   0  0  0  0  0  0  0  0  0  0  0  0
   -5.1819   -2.0088    0.7928 H   0  0  0  0  0  0  0  0  0  0  0  0
   -4.5579   -1.7048   -0.8291 H   0  0  0  0  0  0  0  0  0  0  0  0
   -5.7980   -0.6496   -0.1596 H   0  0  0  0  0  0  0  0  0  0  0  0
   -3.6707    1.0665    2.3908 H   0  0  0  0  0  0  0  0  0  0  0  0
   -5.2721    1.0444    1.6299 H   0  0  0  0  0  0  0  0  0  0  0  0
   -4.7583   -0.2941    2.6713 H   0  0  0  0  0  0  0  0  0  0  0  0
   -3.0227   -1.8761    1.8240 H   0  0  0  0  0  0  0  0  0  0  0  0
   -0.3355   -0.0545    0.9348 H   0  0  0  0  0  0  0  0  0  0  0  0
    1.8224    0.9239   -3.0310 H   0  0  0  0  0  0  0  0  0  0  0  0
    2.0644    2.4575   -2.1789 H   0  0  0  0  0  0  0  0  0  0  0  0
    0.4317    1.8730   -2.4948 H   0  0  0  0  0  0  0  0  0  0  0  0
    0.1062    2.2620    0.0875 H   0  0  0  0  0  0  0  0  0  0  0  0
    1.8257    2.6591    0.2224 H   0  0  0  0  0  0  0  0  0  0  0  0
    1.1422    1.3974    1.2367 H   0  0  0  0  0  0  0  0  0  0  0  0
    1.9773   -1.3909    0.7908 H   0  0  0  0  0  0  0  0  0  0  0  0
    4.1277   -2.3739    1.3725 H   0  0  0  0  0  0  0  0  0  0  0  0
    6.2352   -1.4526    0.4658 H   0  0  0  0  0  0  0  0  0  0  0  0
    4.0141    1.5352   -1.6791 H   0  0  0  0  0  0  0  0  0  0  0  0
  1  2  1  0
  2  3  1  0
  2  4  1  0
  2  5  1  0
  5  6  1  0
  6  7  2  0
  6  8  2  0
  6  9  1  0
  9 10  1  0
 10 11  2  0
 10 12  1  0
 12 13  1  0
 12 14  1  0
 12 15  1  0
 15 16  2  0
 16 17  1  0
 17 18  2  0
 18 19  1  0
 19 20  1  0
 20 21  3  0
 19 22  2  0
 22 15  1  0
  1 23  1  0
  1 24  1  0
  1 25  1  0
  3 26  1  0
  3 27  1  0
  3 28  1  0
  4 29  1  0
  4 30  1  0
  4 31  1  0
  5 32  1  0
  9 33  1  0
 13 34  1  0
 13 35  1  0
 13 36  1  0
 14 37  1  0
 14 38  1  0
 14 39  1  0
 16 40  1  0
 17 41  1  0
 18 42  1  0
 22 43  1  0
M  END
$$$$
OCNT-2314919
     RDKit          3D

 52 54  0  0  0  0  0  0  0  0999 V2000
    4.4288    4.2570   -0.2924 C   0  0  0  0  0  0  0  0  0  0  0  0
    3.2880    3.9166    0.4850 O   0  0  0  0  0  0  0  0  0  0  0  0
    3.0531    2.5848    0.6875 C   0  0  0  0  0  0  0  0  0  0  0  0
    1.9281    2.3019    1.4639 C   0  0  0  0  0  0  0  0  0  0  0  0
    1.5703    0.9821    1.7468 C   0  0  0  0  0  0  0  0  0  0  0  0
    2.3321   -0.0818    1.2486 C   0  0  0  0  0  0  0  0  0  0  0  0
    1.9355   -1.5160    1.5403 C   0  0  0  0  0  0  0  0  0  0  0  0
    0.9638   -2.2045    0.5170 C   0  0  0  0  0  0  0  0  0  0  0  0
    1.6666   -2.3320   -0.8516 C   0  0  0  0  0  0  0  0  0  0  0  0
    0.6357   -3.6309    1.0567 C   0  0  0  0  0  0  0  0  0  0  0  0
    1.8038   -4.4263    1.2466 O   0  0  0  0  0  0  0  0  0  0  0  0
   -0.2723   -1.3871    0.4238 N   0  0  0  0  0  0  0  0  0  0  0  0
   -1.2872   -1.8482   -0.5137 C   0  0  0  0  0  0  0  0  0  0  0  0
   -2.4001   -0.8577   -0.5184 C   0  0  0  0  0  0  0  0  0  0  0  0
   -2.6385    0.2344   -1.3383 C   0  0  0  0  0  0  0  0  0  0  0  0
   -1.8146    0.7660   -2.4570 C   0  0  0  0  0  0  0  0  0  0  0  0
   -2.7262    1.9369   -3.5208 S   0  0  0  0  0  0  0  0  0  0  0  0
   -3.6176    2.8644   -2.2180 C   0  0  0  0  0  0  0  0  0  0  0  0
   -4.5577    1.9663   -1.4140 C   0  0  0  0  0  0  0  0  0  0  0  0
   -3.8514    0.7826   -0.8537 C   0  0  0  0  0  0  0  0  0  0  0  0
   -4.3389    0.1019    0.1853 N   0  0  0  0  0  0  0  0  0  0  0  0
   -3.4346   -0.8758    0.3846 N   0  0  0  0  0  0  0  0  0  0  0  0
   -3.6237   -1.7956    1.4821 C   0  0  0  0  0  0  0  0  0  0  0  0
    3.4651    0.2066    0.4775 C   0  0  0  0  0  0  0  0  0  0  0  0
    3.8225    1.5306    0.1967 C   0  0  0  0  0  0  0  0  0  0  0  0
    4.4760    5.3483   -0.3568 H   0  0  0  0  0  0  0  0  0  0  0  0
    4.3425    3.8669   -1.3120 H   0  0  0  0  0  0  0  0  0  0  0  0
    5.3508    3.9117    0.1870 H   0  0  0  0  0  0  0  0  0  0  0  0
    1.3242    3.1178    1.8538 H   0  0  0  0  0  0  0  0  0  0  0  0
    0.6874    0.7914    2.3541 H   0  0  0  0  0  0  0  0  0  0  0  0
    1.4837   -1.5448    2.5426 H   0  0  0  0  0  0  0  0  0  0  0  0
    2.8595   -2.1031    1.6320 H   0  0  0  0  0  0  0  0  0  0  0  0
    2.6701   -2.7592   -0.7441 H   0  0  0  0  0  0  0  0  0  0  0  0
    1.7713   -1.3601   -1.3463 H   0  0  0  0  0  0  0  0  0  0  0  0
    1.1120   -2.9877   -1.5319 H   0  0  0  0  0  0  0  0  0  0  0  0
    0.0950   -3.5799    2.0094 H   0  0  0  0  0  0  0  0  0  0  0  0
    0.0025   -4.1788    0.3516 H   0  0  0  0  0  0  0  0  0  0  0  0
    2.1361   -4.2500    2.1439 H   0  0  0  0  0  0  0  0  0  0  0  0
   -0.0085   -0.4380    0.1494 H   0  0  0  0  0  0  0  0  0  0  0  0
   -1.6733   -2.8337   -0.2358 H   0  0  0  0  0  0  0  0  0  0  0  0
   -0.8876   -1.9286   -1.5298 H   0  0  0  0  0  0  0  0  0  0  0  0
   -0.9353    1.2807   -2.0552 H   0  0  0  0  0  0  0  0  0  0  0  0
   -1.4595   -0.0517   -3.0921 H   0  0  0  0  0  0  0  0  0  0  0  0
   -2.8759    3.3401   -1.5664 H   0  0  0  0  0  0  0  0  0  0  0  0
   -4.1911    3.6635   -2.6986 H   0  0  0  0  0  0  0  0  0  0  0  0
   -5.0039    2.5548   -0.6034 H   0  0  0  0  0  0  0  0  0  0  0  0
   -5.3824    1.6230   -2.0512 H   0  0  0  0  0  0  0  0  0  0  0  0
   -2.7222   -1.7963    2.0991 H   0  0  0  0  0  0  0  0  0  0  0  0
   -3.8129   -2.7890    1.0686 H   0  0  0  0  0  0  0  0  0  0  0  0
   -4.4784   -1.4754    2.0840 H   0  0  0  0  0  0  0  0  0  0  0  0
    4.0821   -0.5993    0.0856 H   0  0  0  0  0  0  0  0  0  0  0  0
    4.7072    1.7014   -0.4072 H   0  0  0  0  0  0  0  0  0  0  0  0
  1  2  1  0
  2  3  1  0
  3  4  1  0
  4  5  2  0
  5  6  1  0
  6  7  1  0
  7  8  1  0
  8  9  1  0
  8 10  1  0
 10 11  1  0
  8 12  1  0
 12 13  1  0
 13 14  1  0
 14 15  2  0
 15 16  1  0
 16 17  1  0
 17 18  1  0
 18 19  1  0
 19 20  1  0
 20 21  2  0
 21 22  1  0
 22 23  1  0
  6 24  2  0
 24 25  1  0
 25  3  2  0
 22 14  1  0
 20 15  1  0
  1 26  1  0
  1 27  1  0
  1 28  1  0
  4 29  1  0
  5 30  1  0
  7 31  1  0
  7 32  1  0
  9 33  1  0
  9 34  1  0
  9 35  1  0
 10 36  1  0
 10 37  1  0
 11 38  1  0
 12 39  1  0
 13 40  1  0
 13 41  1  0
 16 42  1  0
 16 43  1  0
 18 44  1  0
 18 45  1  0
 19 46  1  0
 19 47  1  0
 23 48  1  0
 23 49  1  0
 23 50  1  0
 24 51  1  0
 25 52  1  0
M  END
$$$$
OCNT-2314930
     RDKit          3D

 47 50  0  0  0  0  0  0  0  0999 V2000
   -4.6769    1.8402   -2.3550 C   0  0  0  0  0  0  0  0  0  0  0  0
   -4.7434    2.1374   -0.9578 O   0  0  0  0  0  0  0  0  0  0  0  0
   -4.8429    0.9588   -0.2499 C   0  0  0  0  0  0  0  0  0  0  0  0
   -6.1425    0.4679   -0.0519 C   0  0  0  0  0  0  0  0  0  0  0  0
   -6.3399   -0.7413    0.6016 C   0  0  0  0  0  0  0  0  0  0  0  0
   -5.2384   -1.4530    1.0558 C   0  0  0  0  0  0  0  0  0  0  0  0
   -3.9453   -0.9424    0.8762 C   0  0  0  0  0  0  0  0  0  0  0  0
   -3.6988    0.2944    0.2491 C   0  0  0  0  0  0  0  0  0  0  0  0
   -2.4111    0.7825    0.1272 N   0  0  0  0  0  0  0  0  0  0  0  0
   -2.1088    2.2045   -0.0355 C   0  0  0  0  0  0  0  0  0  0  0  0
   -0.6904    2.3593    0.5103 C   0  0  0  0  0  0  0  0  0  0  0  0
   -0.0567    1.0061    0.2226 C   0  0  0  0  0  0  0  0  0  0  0  0
    1.1401    0.7732    1.0158 N   0  0  0  0  0  0  0  0  0  0  0  0
    1.9603   -0.3100    0.7440 C   0  0  0  0  0  0  0  0  0  0  0  0
    1.7544   -1.0598   -0.2038 O   0  0  0  0  0  0  0  0  0  0  0  0
    3.1043   -0.4571    1.7314 C   0  0  0  0  0  0  0  0  0  0  0  0
    4.1863   -1.3580    1.2547 C   0  0  0  0  0  0  0  0  0  0  0  0
    4.5857   -2.3818    2.0251 N   0  0  0  0  0  0  0  0  0  0  0  0
    5.6258   -2.9859    1.3380 O   0  0  0  0  0  0  0  0  0  0  0  0
    5.8516   -2.3216    0.1759 C   0  0  0  0  0  0  0  0  0  0  0  0
    6.8286   -2.6239   -0.7671 C   0  0  0  0  0  0  0  0  0  0  0  0
    6.8845   -1.7900   -1.8880 C   0  0  0  0  0  0  0  0  0  0  0  0
    5.9997   -0.7187   -2.0379 C   0  0  0  0  0  0  0  0  0  0  0  0
    5.0269   -0.4433   -1.0651 C   0  0  0  0  0  0  0  0  0  0  0  0
    4.9600   -1.2708    0.0678 C   0  0  0  0  0  0  0  0  0  0  0  0
   -1.2141    0.0337    0.5160 C   0  0  0  0  0  0  0  0  0  0  0  0
   -5.6210    1.4119   -2.7115 H   0  0  0  0  0  0  0  0  0  0  0  0
   -3.8398    1.1736   -2.5903 H   0  0  0  0  0  0  0  0  0  0  0  0
   -4.5133    2.7825   -2.8862 H   0  0  0  0  0  0  0  0  0  0  0  0
   -6.9940    1.0298   -0.4234 H   0  0  0  0  0  0  0  0  0  0  0  0
   -7.3431   -1.1290    0.7466 H   0  0  0  0  0  0  0  0  0  0  0  0
   -5.3761   -2.4045    1.5640 H   0  0  0  0  0  0  0  0  0  0  0  0
   -3.1241   -1.5378    1.2652 H   0  0  0  0  0  0  0  0  0  0  0  0
   -2.1292    2.4723   -1.0973 H   0  0  0  0  0  0  0  0  0  0  0  0
   -2.7876    2.8565    0.5236 H   0  0  0  0  0  0  0  0  0  0  0  0
   -0.1516    3.1886    0.0426 H   0  0  0  0  0  0  0  0  0  0  0  0
   -0.7246    2.5518    1.5902 H   0  0  0  0  0  0  0  0  0  0  0  0
    0.2113    0.9398   -0.8401 H   0  0  0  0  0  0  0  0  0  0  0  0
    1.1929    1.1961    1.9341 H   0  0  0  0  0  0  0  0  0  0  0  0
    3.5354    0.5357    1.9266 H   0  0  0  0  0  0  0  0  0  0  0  0
    2.6778   -0.8254    2.6746 H   0  0  0  0  0  0  0  0  0  0  0  0
    7.5055   -3.4575   -0.6334 H   0  0  0  0  0  0  0  0  0  0  0  0
    7.6280   -1.9806   -2.6592 H   0  0  0  0  0  0  0  0  0  0  0  0
    6.0622   -0.0886   -2.9237 H   0  0  0  0  0  0  0  0  0  0  0  0
    4.3382    0.3842   -1.2003 H   0  0  0  0  0  0  0  0  0  0  0  0
   -1.1050   -0.8904   -0.0603 H   0  0  0  0  0  0  0  0  0  0  0  0
   -1.2406   -0.2095    1.5845 H   0  0  0  0  0  0  0  0  0  0  0  0
  1  2  1  0
  2  3  1  0
  3  4  2  0
  4  5  1  0
  5  6  2  0
  6  7  1  0
  7  8  2  0
  8  9  1  0
  9 10  1  0
 10 11  1  0
 11 12  1  0
 12 13  1  0
 13 14  1  0
 14 15  2  0
 14 16  1  0
 16 17  1  0
 17 18  2  0
 18 19  1  0
 19 20  1  0
 20 21  2  0
 21 22  1  0
 22 23  2  0
 23 24  1  0
 24 25  2  0
 12 26  1  0
  8  3  1  0
 26  9  1  0
 25 17  1  0
 25 20  1  0
  1 27  1  0
  1 28  1  0
  1 29  1  0
  4 30  1  0
  5 31  1  0
  6 32  1  0
  7 33  1  0
 10 34  1  0
 10 35  1  0
 11 36  1  0
 11 37  1  0
 12 38  1  0
 13 39  1  0
 16 40  1  0
 16 41  1  0
 21 42  1  0
 22 43  1  0
 23 44  1  0
 24 45  1  0
 26 46  1  0
 26 47  1  0
M  END
$$$$
OCNT-2314947
     RDKit          3D

 42 46  0  0  0  0  0  0  0  0999 V2000
    6.5178   -0.5922   -1.1418 O   0  0  0  0  0  0  0  0  0  0  0  0
    5.3543   -0.7503   -0.7915 C   0  0  0  0  0  0  0  0  0  0  0  0
    4.9483   -1.8376   -0.0628 N   0  0  0  0  0  0  0  0  0  0  0  0
    3.6931   -2.0615    0.4055 N   0  0  0  0  0  0  0  0  0  0  0  0
    2.7454   -1.2059    0.1332 C   0  0  0  0  0  0  0  0  0  0  0  0
    1.4403   -1.4816    0.6995 C   0  0  0  0  0  0  0  0  0  0  0  0
    0.4124   -0.6693    0.8185 N   0  0  0  0  0  0  0  0  0  0  0  0
   -0.5392   -1.4691    1.4079 C   0  0  0  0  0  0  0  0  0  0  0  0
   -1.9196   -0.9934    1.7429 C   0  0  0  0  0  0  0  0  0  0  0  0
   -1.8581    0.1355    2.7853 C   0  0  0  0  0  0  0  0  0  0  0  0
   -3.1541    0.9307    2.8126 C   0  0  0  0  0  0  0  0  0  0  0  0
   -3.3735    1.6010    1.4604 C   0  0  0  0  0  0  0  0  0  0  0  0
   -3.2894    0.6237    0.3135 C   0  0  0  0  0  0  0  0  0  0  0  0
   -3.9050    0.9633   -0.9025 C   0  0  0  0  0  0  0  0  0  0  0  0
   -3.8771    0.0865   -1.9848 C   0  0  0  0  0  0  0  0  0  0  0  0
   -3.2383   -1.1418   -1.8632 C   0  0  0  0  0  0  0  0  0  0  0  0
   -2.6099   -1.4850   -0.6657 C   0  0  0  0  0  0  0  0  0  0  0  0
   -2.5911   -0.5973    0.4296 C   0  0  0  0  0  0  0  0  0  0  0  0
   -0.1250   -2.7130    1.6854 N   0  0  0  0  0  0  0  0  0  0  0  0
    1.1916   -2.7244    1.2197 O   0  0  0  0  0  0  0  0  0  0  0  0
    2.9921    0.0017   -0.7106 C   0  0  0  0  0  0  0  0  0  0  0  0
    2.0009    0.9096   -1.1125 C   0  0  0  0  0  0  0  0  0  0  0  0
    2.3265    2.0180   -1.9034 C   0  0  0  0  0  0  0  0  0  0  0  0
    3.6404    2.2303   -2.3106 C   0  0  0  0  0  0  0  0  0  0  0  0
    4.6310    1.3272   -1.9357 C   0  0  0  0  0  0  0  0  0  0  0  0
    4.3025    0.2164   -1.1448 C   0  0  0  0  0  0  0  0  0  0  0  0
    5.6583   -2.5185    0.1920 H   0  0  0  0  0  0  0  0  0  0  0  0
   -2.5114   -1.8169    2.1657 H   0  0  0  0  0  0  0  0  0  0  0  0
   -1.0283    0.8236    2.5734 H   0  0  0  0  0  0  0  0  0  0  0  0
   -1.6553   -0.2900    3.7760 H   0  0  0  0  0  0  0  0  0  0  0  0
   -3.1111    1.6929    3.5987 H   0  0  0  0  0  0  0  0  0  0  0  0
   -3.9944    0.2664    3.0502 H   0  0  0  0  0  0  0  0  0  0  0  0
   -4.3573    2.0855    1.4677 H   0  0  0  0  0  0  0  0  0  0  0  0
   -2.6196    2.3825    1.3045 H   0  0  0  0  0  0  0  0  0  0  0  0
   -4.4230    1.9145   -1.0067 H   0  0  0  0  0  0  0  0  0  0  0  0
   -4.3649    0.3571   -2.9173 H   0  0  0  0  0  0  0  0  0  0  0  0
   -3.2301   -1.8366   -2.6990 H   0  0  0  0  0  0  0  0  0  0  0  0
   -2.1298   -2.4602   -0.5966 H   0  0  0  0  0  0  0  0  0  0  0  0
    0.9566    0.7893   -0.8401 H   0  0  0  0  0  0  0  0  0  0  0  0
    1.5460    2.7146   -2.2037 H   0  0  0  0  0  0  0  0  0  0  0  0
    3.8910    3.0913   -2.9259 H   0  0  0  0  0  0  0  0  0  0  0  0
    5.6569    1.4833   -2.2650 H   0  0  0  0  0  0  0  0  0  0  0  0
  1  2  2  0
  2  3  1  0
  3  4  1  0
  4  5  2  0
  5  6  1  0
  6  7  2  0
  7  8  1  0
  8  9  1  0
  9 10  1  0
 10 11  1  0
 11 12  1  0
 12 13  1  0
 13 14  2  0
 14 15  1  0
 15 16  2  0
 16 17  1  0
 17 18  2  0
  8 19  2  0
 19 20  1  0
  5 21  1  0
 21 22  2  0
 22 23  1  0
 23 24  2  0
 24 25  1  0
 25 26  2  0
 26  2  1  0
 20  6  1  0
 26 21  1  0
 18  9  1  0
 18 13  1  0
  3 27  1  0
  9 28  1  0
 10 29  1  0
 10 30  1  0
 11 31  1  0
 11 32  1  0
 12 33  1  0
 12 34  1  0
 14 35  1  0
 15 36  1  0
 16 37  1  0
 17 38  1  0
 22 39  1  0
 23 40  1  0
 24 41  1  0
 25 42  1  0
M  END
$$$$
OCNT-2314951
     RDKit          3D

 37 38  0  0  0  0  0  0  0  0999 V2000
   -5.8846   -0.5234    0.2164 C   0  0  0  0  0  0  0  0  0  0  0  0
   -4.8556    0.4412    0.0499 O   0  0  0  0  0  0  0  0  0  0  0  0
   -3.5568    0.0283    0.2172 C   0  0  0  0  0  0  0  0  0  0  0  0
   -3.1763   -1.2834    0.5149 C   0  0  0  0  0  0  0  0  0  0  0  0
   -1.8246   -1.6154    0.6671 C   0  0  0  0  0  0  0  0  0  0  0  0
   -1.4205   -3.4329    1.0520 Br  0  0  0  0  0  0  0  0  0  0  0  0
   -0.8285   -0.6390    0.5319 C   0  0  0  0  0  0  0  0  0  0  0  0
    0.6504   -0.9286    0.6650 C   0  0  0  0  0  0  0  0  0  0  0  0
    1.2755   -1.3417   -0.6726 C   0  0  0  0  0  0  0  0  0  0  0  0
    2.6994   -1.6361   -0.5415 N   0  0  0  0  0  0  0  0  0  0  0  0
    3.6654   -0.6474   -0.3191 C   0  0  0  0  0  0  0  0  0  0  0  0
    3.4998    0.7200   -0.5692 C   0  0  0  0  0  0  0  0  0  0  0  0
    2.3249    1.2249   -0.9747 F   0  0  0  0  0  0  0  0  0  0  0  0
    4.5636    1.5965   -0.3804 C   0  0  0  0  0  0  0  0  0  0  0  0
    5.7976    1.2194    0.0273 N   0  0  0  0  0  0  0  0  0  0  0  0
    5.9626   -0.1048    0.2415 C   0  0  0  0  0  0  0  0  0  0  0  0
    4.9527   -1.0432    0.0762 C   0  0  0  0  0  0  0  0  0  0  0  0
    5.2110   -2.3391    0.3151 F   0  0  0  0  0  0  0  0  0  0  0  0
   -1.2202    0.6778    0.2220 C   0  0  0  0  0  0  0  0  0  0  0  0
   -2.5690    1.0190    0.0652 C   0  0  0  0  0  0  0  0  0  0  0  0
   -3.0206    2.2801   -0.2341 O   0  0  0  0  0  0  0  0  0  0  0  0
   -2.0534    3.3021   -0.4273 C   0  0  0  0  0  0  0  0  0  0  0  0
   -6.8436   -0.0197    0.0613 H   0  0  0  0  0  0  0  0  0  0  0  0
   -5.8842   -0.9309    1.2327 H   0  0  0  0  0  0  0  0  0  0  0  0
   -5.8034   -1.3198   -0.5306 H   0  0  0  0  0  0  0  0  0  0  0  0
   -3.9183   -2.0664    0.6298 H   0  0  0  0  0  0  0  0  0  0  0  0
    1.1501   -0.0346    1.0597 H   0  0  0  0  0  0  0  0  0  0  0  0
    0.8310   -1.6946    1.4279 H   0  0  0  0  0  0  0  0  0  0  0  0
    0.7877   -2.2550   -1.0344 H   0  0  0  0  0  0  0  0  0  0  0  0
    1.0970   -0.5954   -1.4545 H   0  0  0  0  0  0  0  0  0  0  0  0
    2.9051   -2.5068   -0.0513 H   0  0  0  0  0  0  0  0  0  0  0  0
    4.4353    2.6588   -0.5643 H   0  0  0  0  0  0  0  0  0  0  0  0
    6.9541   -0.4135    0.5571 H   0  0  0  0  0  0  0  0  0  0  0  0
   -0.4428    1.4280    0.1048 H   0  0  0  0  0  0  0  0  0  0  0  0
   -2.5871    4.2261   -0.6696 H   0  0  0  0  0  0  0  0  0  0  0  0
   -1.3941    3.0688   -1.2698 H   0  0  0  0  0  0  0  0  0  0  0  0
   -1.4797    3.4806    0.4881 H   0  0  0  0  0  0  0  0  0  0  0  0
  1  2  1  0
  2  3  1  0
  3  4  1  0
  4  5  2  0
  5  6  1  0
  5  7  1  0
  7  8  1  0
  8  9  1  0
  9 10  1  0
 10 11  1  0
 11 12  2  0
 12 13  1  0
 12 14  1  0
 14 15  2  0
 15 16  1  0
 16 17  2  0
 17 18  1  0
  7 19  2  0
 19 20  1  0
 20 21  1  0
 21 22  1  0
 20  3  2  0
 17 11  1  0
  1 23  1  0
  1 24  1  0
  1 25  1  0
  4 26  1  0
  8 27  1  0
  8 28  1  0
  9 29  1  0
  9 30  1  0
 10 31  1  0
 14 32  1  0
 16 33  1  0
 19 34  1  0
 22 35  1  0
 22 36  1  0
 22 37  1  0
M  END
$$$$
OCNT-2314960
     RDKit          3D

 41 42  0  0  0  0  0  0  0  0999 V2000
   -2.5903   -0.9244    1.8255 C   0  0  0  0  0  0  0  0  0  0  0  0
   -1.6082   -0.9880    0.7556 N   0  0  0  0  0  0  0  0  0  0  0  0
   -2.1965   -0.6000   -0.5371 C   0  0  0  0  0  0  0  0  0  0  0  0
   -3.1294   -1.6526   -1.1401 C   0  0  0  0  0  0  0  0  0  0  0  0
   -2.4160   -2.9819   -1.2673 C   0  0  0  0  0  0  0  0  0  0  0  0
   -1.8080   -3.4139    0.0660 C   0  0  0  0  0  0  0  0  0  0  0  0
   -0.9405   -2.3107    0.6987 C   0  0  0  0  0  0  0  0  0  0  0  0
    0.4291   -2.1616   -0.0140 C   0  0  0  0  0  0  0  0  0  0  0  0
    0.8714   -2.9717   -0.8240 O   0  0  0  0  0  0  0  0  0  0  0  0
    1.1370   -1.0378    0.4102 N   0  0  0  0  0  0  0  0  0  0  0  0
    2.3059   -0.5791   -0.3204 C   0  0  0  0  0  0  0  0  0  0  0  0
    1.9132    0.3647   -1.4699 C   0  0  0  0  0  0  0  0  0  0  0  0
    1.1478    1.5109   -0.9628 N   0  0  0  0  0  0  0  0  0  0  0  0
    1.8716    2.5691   -0.3955 C   0  0  0  0  0  0  0  0  0  0  0  0
    3.2161    2.4593   -0.2794 N   0  0  0  0  0  0  0  0  0  0  0  0
    3.8932    3.4845    0.3196 C   0  0  0  0  0  0  0  0  0  0  0  0
    3.2861    4.6289    0.8289 C   0  0  0  0  0  0  0  0  0  0  0  0
    4.2082    5.8414    1.5945 Cl  0  0  0  0  0  0  0  0  0  0  0  0
    1.9080    4.7474    0.7156 C   0  0  0  0  0  0  0  0  0  0  0  0
    1.1917    3.7070    0.0999 C   0  0  0  0  0  0  0  0  0  0  0  0
   -0.5277    3.8586   -0.0387 Cl  0  0  0  0  0  0  0  0  0  0  0  0
   -3.1817   -0.0024    1.7680 H   0  0  0  0  0  0  0  0  0  0  0  0
   -3.2944   -1.7661    1.8360 H   0  0  0  0  0  0  0  0  0  0  0  0
   -2.0648   -0.8963    2.7828 H   0  0  0  0  0  0  0  0  0  0  0  0
   -2.7265    0.3589   -0.4387 H   0  0  0  0  0  0  0  0  0  0  0  0
   -1.3813   -0.3977   -1.2441 H   0  0  0  0  0  0  0  0  0  0  0  0
   -3.4681   -1.3169   -2.1256 H   0  0  0  0  0  0  0  0  0  0  0  0
   -4.0287   -1.7713   -0.5243 H   0  0  0  0  0  0  0  0  0  0  0  0
   -1.6267   -2.8935   -2.0215 H   0  0  0  0  0  0  0  0  0  0  0  0
   -3.1141   -3.7461   -1.6209 H   0  0  0  0  0  0  0  0  0  0  0  0
   -2.6238   -3.6883    0.7480 H   0  0  0  0  0  0  0  0  0  0  0  0
   -1.2194   -4.3242   -0.0846 H   0  0  0  0  0  0  0  0  0  0  0  0
   -0.6822   -2.6217    1.7093 H   0  0  0  0  0  0  0  0  0  0  0  0
    0.5442   -0.3144    0.8150 H   0  0  0  0  0  0  0  0  0  0  0  0
    2.8524   -1.4426   -0.7244 H   0  0  0  0  0  0  0  0  0  0  0  0
    2.9449   -0.0784    0.4111 H   0  0  0  0  0  0  0  0  0  0  0  0
    2.7892    0.6756   -2.0464 H   0  0  0  0  0  0  0  0  0  0  0  0
    1.2696   -0.1721   -2.1670 H   0  0  0  0  0  0  0  0  0  0  0  0
    0.4869    1.8758   -1.6436 H   0  0  0  0  0  0  0  0  0  0  0  0
    4.9718    3.3419    0.3839 H   0  0  0  0  0  0  0  0  0  0  0  0
    1.3902    5.6299    1.1035 H   0  0  0  0  0  0  0  0  0  0  0  0
  1  2  1  0
  2  3  1  0
  3  4  1  0
  4  5  1  0
  5  6  1  0
  6  7  1  0
  7  8  1  0
  8  9  2  0
  8 10  1  0
 10 11  1  0
 11 12  1  0
 12 13  1  0
 13 14  1  0
 14 15  1  0
 15 16  2  0
 16 17  1  0
 17 18  1  0
 17 19  2  0
 19 20  1  0
 20 21  1  0
  7  2  1  0
 20 14  2  0
  1 22  1  0
  1 23  1  0
  1 24  1  0
  3 25  1  0
  3 26  1  0
  4 27  1  0
  4 28  1  0
  5 29  1  0
  5 30  1  0
  6 31  1  0
  6 32  1  0
  7 33  1  0
 10 34  1  0
 11 35  1  0
 11 36  1  0
 12 37  1  0
 12 38  1  0
 13 39  1  0
 16 40  1  0
 19 41  1  0
M  END
$$$$
OCNT-2314961
     RDKit          3D

 58 60  0  0  0  0  0  0  0  0999 V2000
    0.9410   -4.5739   -0.3570 C   0  0  0  0  0  0  0  0  0  0  0  0
   -0.4061   -3.8433   -0.5449 C   0  0  0  0  0  0  0  0  0  0  0  0
   -0.7925   -3.9461   -2.0345 C   0  0  0  0  0  0  0  0  0  0  0  0
   -1.4589   -4.6065    0.2878 C   0  0  0  0  0  0  0  0  0  0  0  0
   -0.3038   -2.3487   -0.0584 C   0  0  0  0  0  0  0  0  0  0  0  0
   -1.6855   -1.6166   -0.0162 C   0  0  0  0  0  0  0  0  0  0  0  0
   -1.5843   -0.1400    0.1009 N   0  0  0  0  0  0  0  0  0  0  0  0
   -1.1094    0.2670    1.4369 C   0  0  0  0  0  0  0  0  0  0  0  0
   -0.8741    1.7855    1.4960 C   0  0  0  0  0  0  0  0  0  0  0  0
   -2.0219    2.5796    0.9305 C   0  0  0  0  0  0  0  0  0  0  0  0
   -2.1132    3.9570    1.1711 C   0  0  0  0  0  0  0  0  0  0  0  0
   -3.1561    4.7011    0.6199 C   0  0  0  0  0  0  0  0  0  0  0  0
   -4.1096    4.0779   -0.1798 C   0  0  0  0  0  0  0  0  0  0  0  0
   -4.0202    2.7088   -0.4330 C   0  0  0  0  0  0  0  0  0  0  0  0
   -2.9702    1.9508    0.1073 C   0  0  0  0  0  0  0  0  0  0  0  0
   -2.9170    0.4584   -0.1376 C   0  0  0  0  0  0  0  0  0  0  0  0
    0.6256   -1.5495   -0.8696 N   0  0  0  0  0  0  0  0  0  0  0  0
    1.9579   -1.4005   -0.5306 C   0  0  0  0  0  0  0  0  0  0  0  0
    2.4912   -2.0300    0.3791 O   0  0  0  0  0  0  0  0  0  0  0  0
    2.7000   -0.3821   -1.4140 C   0  0  0  0  0  0  0  0  0  0  0  0
    3.6121    0.4748   -0.6437 N   0  0  0  0  0  0  0  0  0  0  0  0
    2.8988    1.3364    0.2885 C   0  0  0  0  0  0  0  0  0  0  0  0
    3.9241    2.1368    1.0283 C   0  0  0  0  0  0  0  0  0  0  0  0
    3.5277    3.4168    1.7166 C   0  0  0  0  0  0  0  0  0  0  0  0
    4.4059    3.4624    0.4984 C   0  0  0  0  0  0  0  0  0  0  0  0
    0.8499   -5.6412   -0.5892 H   0  0  0  0  0  0  0  0  0  0  0  0
    1.7148   -4.1720   -1.0185 H   0  0  0  0  0  0  0  0  0  0  0  0
    1.2925   -4.4951    0.6781 H   0  0  0  0  0  0  0  0  0  0  0  0
   -0.0708   -3.4262   -2.6745 H   0  0  0  0  0  0  0  0  0  0  0  0
   -0.8193   -4.9934   -2.3588 H   0  0  0  0  0  0  0  0  0  0  0  0
   -1.7828   -3.5252   -2.2323 H   0  0  0  0  0  0  0  0  0  0  0  0
   -2.4706   -4.2293    0.1088 H   0  0  0  0  0  0  0  0  0  0  0  0
   -1.4690   -5.6723    0.0339 H   0  0  0  0  0  0  0  0  0  0  0  0
   -1.2490   -4.5240    1.3597 H   0  0  0  0  0  0  0  0  0  0  0  0
    0.0875   -2.3604    0.9673 H   0  0  0  0  0  0  0  0  0  0  0  0
   -2.3011   -2.0223    0.7958 H   0  0  0  0  0  0  0  0  0  0  0  0
   -2.2103   -1.8290   -0.9538 H   0  0  0  0  0  0  0  0  0  0  0  0
   -1.8324   -0.0301    2.2095 H   0  0  0  0  0  0  0  0  0  0  0  0
   -0.1596   -0.2194    1.6845 H   0  0  0  0  0  0  0  0  0  0  0  0
    0.0245    2.0385    0.9203 H   0  0  0  0  0  0  0  0  0  0  0  0
   -0.6985    2.0767    2.5388 H   0  0  0  0  0  0  0  0  0  0  0  0
   -1.3733    4.4558    1.7926 H   0  0  0  0  0  0  0  0  0  0  0  0
   -3.2263    5.7665    0.8179 H   0  0  0  0  0  0  0  0  0  0  0  0
   -4.9262    4.6568   -0.6042 H   0  0  0  0  0  0  0  0  0  0  0  0
   -4.7761    2.2345   -1.0540 H   0  0  0  0  0  0  0  0  0  0  0  0
   -3.1962    0.2732   -1.1818 H   0  0  0  0  0  0  0  0  0  0  0  0
   -3.6721   -0.0092    0.5078 H   0  0  0  0  0  0  0  0  0  0  0  0
    0.1892   -0.7512   -1.3235 H   0  0  0  0  0  0  0  0  0  0  0  0
    1.9943    0.2328   -1.9820 H   0  0  0  0  0  0  0  0  0  0  0  0
    3.2838   -0.9616   -2.1372 H   0  0  0  0  0  0  0  0  0  0  0  0
    4.1504    1.0543   -1.2870 H   0  0  0  0  0  0  0  0  0  0  0  0
    2.3305    0.7501    1.0190 H   0  0  0  0  0  0  0  0  0  0  0  0
    2.2024    1.9933   -0.2459 H   0  0  0  0  0  0  0  0  0  0  0  0
    4.6326    1.4991    1.5494 H   0  0  0  0  0  0  0  0  0  0  0  0
    3.9841    3.6329    2.6739 H   0  0  0  0  0  0  0  0  0  0  0  0
    2.5074    3.7694    1.6178 H   0  0  0  0  0  0  0  0  0  0  0  0
    5.4519    3.7042    0.6363 H   0  0  0  0  0  0  0  0  0  0  0  0
    3.9761    3.8479   -0.4185 H   0  0  0  0  0  0  0  0  0  0  0  0
  1  2  1  0
  2  3  1  0
  2  4  1  0
  2  5  1  0
  5  6  1  0
  6  7  1  0
  7  8  1  0
  8  9  1  0
  9 10  1  0
 10 11  2  0
 11 12  1  0
 12 13  2  0
 13 14  1  0
 14 15  2  0
 15 16  1  0
  5 17  1  0
 17 18  1  0
 18 19  2  0
 18 20  1  0
 20 21  1  0
 21 22  1  0
 22 23  1  0
 23 24  1  0
 24 25  1  0
 16  7  1  0
 25 23  1  0
 15 10  1  0
  1 26  1  0
  1 27  1  0
  1 28  1  0
  3 29  1  0
  3 30  1  0
  3 31  1  0
  4 32  1  0
  4 33  1  0
  4 34  1  0
  5 35  1  0
  6 36  1  0
  6 37  1  0
  8 38  1  0
  8 39  1  0
  9 40  1  0
  9 41  1  0
 11 42  1  0
 12 43  1  0
 13 44  1  0
 14 45  1  0
 16 46  1  0
 16 47  1  0
 17 48  1  0
 20 49  1  0
 20 50  1  0
 21 51  1  0
 22 52  1  0
 22 53  1  0
 23 54  1  0
 24 55  1  0
 24 56  1  0
 25 57  1  0
 25 58  1  0
M  END
$$$$
OCNT-2314962
     RDKit          3D

 47 49  0  0  0  0  0  0  0  0999 V2000
    6.0308   -0.0371   -2.6811 C   0  0  0  0  0  0  0  0  0  0  0  0
    5.2636    0.0835   -1.5866 C   0  0  0  0  0  0  0  0  0  0  0  0
    4.9702    1.4205   -0.9482 C   0  0  0  0  0  0  0  0  0  0  0  0
    3.5807    1.4484   -0.2994 C   0  0  0  0  0  0  0  0  0  0  0  0
    3.3602    0.3487    0.6499 N   0  0  0  0  0  0  0  0  0  0  0  0
    2.4731    0.3937    1.7120 C   0  0  0  0  0  0  0  0  0  0  0  0
    2.4633   -0.4460    2.6079 O   0  0  0  0  0  0  0  0  0  0  0  0
    1.6076    1.4561    1.6891 N   0  0  0  0  0  0  0  0  0  0  0  0
    0.5738    1.5949    2.6906 C   0  0  0  0  0  0  0  0  0  0  0  0
   -0.7270    0.9958    2.2142 C   0  0  0  0  0  0  0  0  0  0  0  0
   -1.6825    1.7896    1.5610 C   0  0  0  0  0  0  0  0  0  0  0  0
   -2.8730    1.2259    1.0986 C   0  0  0  0  0  0  0  0  0  0  0  0
   -3.1046   -0.1406    1.2785 C   0  0  0  0  0  0  0  0  0  0  0  0
   -4.6275   -0.8432    0.7005 S   0  0  0  0  0  0  0  0  0  0  0  0
   -5.6635    0.1541    0.8609 O   0  0  0  0  0  0  0  0  0  0  0  0
   -4.7561   -2.1777    1.2459 O   0  0  0  0  0  0  0  0  0  0  0  0
   -4.2741   -1.0439   -0.9547 N   0  0  0  0  0  0  0  0  0  0  0  0
   -5.3865   -0.7102   -1.8582 C   0  0  0  0  0  0  0  0  0  0  0  0
   -5.4100   -1.2456   -3.2622 C   0  0  0  0  0  0  0  0  0  0  0  0
   -6.4086   -1.7366   -2.2529 C   0  0  0  0  0  0  0  0  0  0  0  0
   -2.1666   -0.9443    1.9291 C   0  0  0  0  0  0  0  0  0  0  0  0
   -0.9774   -0.3749    2.3873 C   0  0  0  0  0  0  0  0  0  0  0  0
    4.2457   -0.8147    0.5400 C   0  0  0  0  0  0  0  0  0  0  0  0
    4.6330   -1.1148   -0.9126 C   0  0  0  0  0  0  0  0  0  0  0  0
    6.4827    0.8280   -3.1573 H   0  0  0  0  0  0  0  0  0  0  0  0
    6.2307   -1.0068   -3.1280 H   0  0  0  0  0  0  0  0  0  0  0  0
    5.7278    1.6079   -0.1768 H   0  0  0  0  0  0  0  0  0  0  0  0
    5.0430    2.2311   -1.6825 H   0  0  0  0  0  0  0  0  0  0  0  0
    2.8023    1.3651   -1.0675 H   0  0  0  0  0  0  0  0  0  0  0  0
    3.4417    2.4068    0.2130 H   0  0  0  0  0  0  0  0  0  0  0  0
    1.3680    1.7933    0.7714 H   0  0  0  0  0  0  0  0  0  0  0  0
    0.4462    2.6676    2.8745 H   0  0  0  0  0  0  0  0  0  0  0  0
    0.8827    1.1407    3.6387 H   0  0  0  0  0  0  0  0  0  0  0  0
   -1.5068    2.8532    1.4133 H   0  0  0  0  0  0  0  0  0  0  0  0
   -3.6122    1.8507    0.6018 H   0  0  0  0  0  0  0  0  0  0  0  0
   -3.9547   -2.0070   -1.0818 H   0  0  0  0  0  0  0  0  0  0  0  0
   -5.7268    0.3163   -1.7338 H   0  0  0  0  0  0  0  0  0  0  0  0
   -5.7671   -0.5888   -4.0469 H   0  0  0  0  0  0  0  0  0  0  0  0
   -4.6225   -1.9203   -3.5738 H   0  0  0  0  0  0  0  0  0  0  0  0
   -6.3028   -2.7467   -1.8753 H   0  0  0  0  0  0  0  0  0  0  0  0
   -7.4374   -1.4067   -2.3478 H   0  0  0  0  0  0  0  0  0  0  0  0
   -2.3461   -2.0059    2.0821 H   0  0  0  0  0  0  0  0  0  0  0  0
   -0.2373   -1.0046    2.8811 H   0  0  0  0  0  0  0  0  0  0  0  0
    5.1385   -0.5987    1.1396 H   0  0  0  0  0  0  0  0  0  0  0  0
    3.7628   -1.6947    0.9792 H   0  0  0  0  0  0  0  0  0  0  0  0
    3.7288   -1.3890   -1.4713 H   0  0  0  0  0  0  0  0  0  0  0  0
    5.3142   -1.9731   -0.9360 H   0  0  0  0  0  0  0  0  0  0  0  0
  1  2  2  0
  2  3  1  0
  3  4  1  0
  4  5  1  0
  5  6  1  0
  6  7  2  0
  6  8  1  0
  8  9  1  0
  9 10  1  0
 10 11  1  0
 11 12  2  0
 12 13  1  0
 13 14  1  0
 14 15  2  0
 14 16  2  0
 14 17  1  0
 17 18  1  0
 18 19  1  0
 19 20  1  0
 13 21  2  0
 21 22  1  0
  5 23  1  0
 23 24  1  0
 24  2  1  0
 22 10  2  0
 20 18  1  0
  1 25  1  0
  1 26  1  0
  3 27  1  0
  3 28  1  0
  4 29  1  0
  4 30  1  0
  8 31  1  0
  9 32  1  0
  9 33  1  0
 11 34  1  0
 12 35  1  0
 17 36  1  0
 18 37  1  0
 19 38  1  0
 19 39  1  0
 20 40  1  0
 20 41  1  0
 21 42  1  0
 22 43  1  0
 23 44  1  0
 23 45  1  0
 24 46  1  0
 24 47  1  0
M  END
$$$$
OCNT-2314969
     RDKit          3D

 50 52  0  0  0  0  0  0  0  0999 V2000
   -4.8130    2.9623    1.3567 C   0  0  0  0  0  0  0  0  0  0  0  0
   -4.2415    1.6261    0.9301 C   0  0  0  0  0  0  0  0  0  0  0  0
   -3.1695    1.8520    0.0200 O   0  0  0  0  0  0  0  0  0  0  0  0
   -1.8500    1.4624    0.4597 C   0  0  0  0  0  0  0  0  0  0  0  0
   -0.6848    2.0099   -0.3930 C   0  0  0  0  0  0  0  0  0  0  0  0
    0.0941    0.7267   -0.0060 C   0  0  0  0  0  0  0  0  0  0  0  0
    0.9109    0.2416   -1.1358 N   0  0  0  0  0  0  0  0  0  0  0  0
    1.8473    1.2770   -1.5867 C   0  0  0  0  0  0  0  0  0  0  0  0
    1.6307   -1.0044   -0.7744 C   0  0  0  0  0  0  0  0  0  0  0  0
    2.7590   -0.8213    0.2546 C   0  0  0  0  0  0  0  0  0  0  0  0
    2.5126   -0.6942    1.4506 O   0  0  0  0  0  0  0  0  0  0  0  0
    4.0070   -0.8184   -0.3349 N   0  0  0  0  0  0  0  0  0  0  0  0
    5.2197   -0.6648    0.2840 C   0  0  0  0  0  0  0  0  0  0  0  0
    6.3314   -0.6691   -0.4149 N   0  0  0  0  0  0  0  0  0  0  0  0
    7.4089   -0.4963    0.4329 C   0  0  0  0  0  0  0  0  0  0  0  0
    7.0960   -0.3607    1.7675 C   0  0  0  0  0  0  0  0  0  0  0  0
    5.3974   -0.4581    1.9646 S   0  0  0  0  0  0  0  0  0  0  0  0
   -1.3262    0.0099    0.0780 C   0  0  0  0  0  0  0  0  0  0  0  0
   -1.4107   -0.9786    1.2600 C   0  0  0  0  0  0  0  0  0  0  0  0
   -2.6634   -1.8405    1.1648 C   0  0  0  0  0  0  0  0  0  0  0  0
   -2.6568   -2.7107   -0.0920 C   0  0  0  0  0  0  0  0  0  0  0  0
   -1.9305   -2.0636   -1.2719 C   0  0  0  0  0  0  0  0  0  0  0  0
   -1.9902   -0.5417   -1.2108 C   0  0  0  0  0  0  0  0  0  0  0  0
   -5.1591    3.5302    0.4872 H   0  0  0  0  0  0  0  0  0  0  0  0
   -4.0467    3.5695    1.8498 H   0  0  0  0  0  0  0  0  0  0  0  0
   -5.6518    2.8253    2.0449 H   0  0  0  0  0  0  0  0  0  0  0  0
   -5.0044    1.0350    0.4144 H   0  0  0  0  0  0  0  0  0  0  0  0
   -3.9071    1.0608    1.8059 H   0  0  0  0  0  0  0  0  0  0  0  0
   -1.7050    1.7265    1.5181 H   0  0  0  0  0  0  0  0  0  0  0  0
   -0.2468    2.9451   -0.0315 H   0  0  0  0  0  0  0  0  0  0  0  0
   -0.9449    2.1357   -1.4512 H   0  0  0  0  0  0  0  0  0  0  0  0
    0.6147    0.8377    0.9532 H   0  0  0  0  0  0  0  0  0  0  0  0
    2.4427    1.6928   -0.7667 H   0  0  0  0  0  0  0  0  0  0  0  0
    2.5290    0.8781   -2.3462 H   0  0  0  0  0  0  0  0  0  0  0  0
    1.3178    2.1035   -2.0709 H   0  0  0  0  0  0  0  0  0  0  0  0
    2.0344   -1.4477   -1.6941 H   0  0  0  0  0  0  0  0  0  0  0  0
    0.9534   -1.7619   -0.3733 H   0  0  0  0  0  0  0  0  0  0  0  0
    4.0916   -0.9196   -1.3366 H   0  0  0  0  0  0  0  0  0  0  0  0
    8.4109   -0.4760    0.0216 H   0  0  0  0  0  0  0  0  0  0  0  0
    7.7588   -0.2157    2.6078 H   0  0  0  0  0  0  0  0  0  0  0  0
   -1.4021   -0.4447    2.2174 H   0  0  0  0  0  0  0  0  0  0  0  0
   -0.5342   -1.6355    1.2711 H   0  0  0  0  0  0  0  0  0  0  0  0
   -2.7509   -2.4801    2.0503 H   0  0  0  0  0  0  0  0  0  0  0  0
   -3.5531   -1.2019    1.1527 H   0  0  0  0  0  0  0  0  0  0  0  0
   -3.6937   -2.9342   -0.3702 H   0  0  0  0  0  0  0  0  0  0  0  0
   -2.1843   -3.6762    0.1258 H   0  0  0  0  0  0  0  0  0  0  0  0
   -0.8901   -2.4003   -1.2827 H   0  0  0  0  0  0  0  0  0  0  0  0
   -2.3742   -2.4194   -2.2096 H   0  0  0  0  0  0  0  0  0  0  0  0
   -3.0486   -0.2561   -1.2451 H   0  0  0  0  0  0  0  0  0  0  0  0
   -1.5348   -0.1165   -2.1112 H   0  0  0  0  0  0  0  0  0  0  0  0
  1  2  1  0
  2  3  1  0
  3  4  1  0
  4  5  1  0
  5  6  1  0
  6  7  1  0
  7  8  1  0
  7  9  1  0
  9 10  1  0
 10 11  2  0
 10 12  1  0
 12 13  1  0
 13 14  2  0
 14 15  1  0
 15 16  2  0
 16 17  1  0
  6 18  1  0
 18 19  1  0
 19 20  1  0
 20 21  1  0
 21 22  1  0
 22 23  1  0
 18  4  1  0
 17 13  1  0
 23 18  1  0
  1 24  1  0
  1 25  1  0
  1 26  1  0
  2 27  1  0
  2 28  1  0
  4 29  1  0
  5 30  1  0
  5 31  1  0
  6 32  1  0
  8 33  1  0
  8 34  1  0
  8 35  1  0
  9 36  1  0
  9 37  1  0
 12 38  1  0
 15 39  1  0
 16 40  1  0
 19 41  1  0
 19 42  1  0
 20 43  1  0
 20 44  1  0
 21 45  1  0
 21 46  1  0
 22 47  1  0
 22 48  1  0
 23 49  1  0
 23 50  1  0
M  END
$$$$
OCNT-2314976
     RDKit          3D

 45 47  0  0  0  0  0  0  0  0999 V2000
   -3.4096   -3.4511   -0.1341 C   0  0  0  0  0  0  0  0  0  0  0  0
   -2.8332   -2.0671   -0.0830 C   0  0  0  0  0  0  0  0  0  0  0  0
   -2.2818   -1.4864   -1.2303 C   0  0  0  0  0  0  0  0  0  0  0  0
   -1.7758   -0.1850   -1.1930 C   0  0  0  0  0  0  0  0  0  0  0  0
   -1.8179    0.5638   -0.0067 C   0  0  0  0  0  0  0  0  0  0  0  0
   -1.2126    1.9728    0.0362 C   0  0  0  0  0  0  0  0  0  0  0  0
    0.1068    1.9202    0.8759 C   0  0  0  0  0  0  0  0  0  0  0  0
    1.0317    0.8753    0.4437 N   0  0  0  0  0  0  0  0  0  0  0  0
    2.3921    1.0251    0.5404 C   0  0  0  0  0  0  0  0  0  0  0  0
    2.9460    2.0618    0.8877 O   0  0  0  0  0  0  0  0  0  0  0  0
    3.1868   -0.2063    0.2377 C   0  0  0  0  0  0  0  0  0  0  0  0
    2.7854   -1.1023   -0.6850 C   0  0  0  0  0  0  0  0  0  0  0  0
    3.5732   -2.2192   -0.9509 N   0  0  0  0  0  0  0  0  0  0  0  0
    3.3333   -3.2268   -1.8252 N   0  0  0  0  0  0  0  0  0  0  0  0
    4.4009   -4.0085   -1.6574 C   0  0  0  0  0  0  0  0  0  0  0  0
    5.3149   -3.5834   -0.7407 N   0  0  0  0  0  0  0  0  0  0  0  0
    4.7891   -2.4610   -0.3060 C   0  0  0  0  0  0  0  0  0  0  0  0
    5.2309   -1.5063    0.6495 C   0  0  0  0  0  0  0  0  0  0  0  0
    4.4698   -0.4255    0.9074 C   0  0  0  0  0  0  0  0  0  0  0  0
   -2.2056    2.9751    0.5214 N   0  0  0  0  0  0  0  0  0  0  0  0
   -1.6150    4.3029    0.7131 C   0  0  0  0  0  0  0  0  0  0  0  0
   -3.3359    3.0921   -0.4120 C   0  0  0  0  0  0  0  0  0  0  0  0
   -2.3906   -0.0157    1.1358 C   0  0  0  0  0  0  0  0  0  0  0  0
   -2.8978   -1.3161    1.0956 C   0  0  0  0  0  0  0  0  0  0  0  0
   -3.3257   -3.9453    0.8396 H   0  0  0  0  0  0  0  0  0  0  0  0
   -4.4652   -3.4066   -0.4189 H   0  0  0  0  0  0  0  0  0  0  0  0
   -2.8725   -4.0711   -0.8597 H   0  0  0  0  0  0  0  0  0  0  0  0
   -2.2448   -2.0451   -2.1632 H   0  0  0  0  0  0  0  0  0  0  0  0
   -1.3477    0.2401   -2.0983 H   0  0  0  0  0  0  0  0  0  0  0  0
   -0.9183    2.2493   -0.9870 H   0  0  0  0  0  0  0  0  0  0  0  0
    0.6301    2.8801    0.8162 H   0  0  0  0  0  0  0  0  0  0  0  0
   -0.1093    1.7272    1.9336 H   0  0  0  0  0  0  0  0  0  0  0  0
    0.6524   -0.0633    0.4007 H   0  0  0  0  0  0  0  0  0  0  0  0
    1.8788   -1.0256   -1.2695 H   0  0  0  0  0  0  0  0  0  0  0  0
    4.5180   -4.9234   -2.2249 H   0  0  0  0  0  0  0  0  0  0  0  0
    6.1816   -1.6654    1.1463 H   0  0  0  0  0  0  0  0  0  0  0  0
    4.7974    0.3232    1.6256 H   0  0  0  0  0  0  0  0  0  0  0  0
   -0.8981    4.3011    1.5402 H   0  0  0  0  0  0  0  0  0  0  0  0
   -2.3831    5.0325    0.9961 H   0  0  0  0  0  0  0  0  0  0  0  0
   -1.1155    4.6672   -0.1917 H   0  0  0  0  0  0  0  0  0  0  0  0
   -3.8845    2.1496   -0.5068 H   0  0  0  0  0  0  0  0  0  0  0  0
   -4.0645    3.8227   -0.0415 H   0  0  0  0  0  0  0  0  0  0  0  0
   -3.0128    3.4084   -1.4106 H   0  0  0  0  0  0  0  0  0  0  0  0
   -2.4539    0.5532    2.0616 H   0  0  0  0  0  0  0  0  0  0  0  0
   -3.3478   -1.7374    1.9920 H   0  0  0  0  0  0  0  0  0  0  0  0
  1  2  1  0
  2  3  1  0
  3  4  2  0
  4  5  1  0
  5  6  1  0
  6  7  1  0
  7  8  1  0
  8  9  1  0
  9 10  2  0
  9 11  1  0
 11 12  2  0
 12 13  1  0
 13 14  1  0
 14 15  2  0
 15 16  1  0
 16 17  2  0
 17 18  1  0
 18 19  2  0
  6 20  1  0
 20 21  1  0
 20 22  1  0
  5 23  2  0
 23 24  1  0
 24  2  2  0
 19 11  1  0
 17 13  1  0
  1 25  1  0
  1 26  1  0
  1 27  1  0
  3 28  1  0
  4 29  1  0
  6 30  1  0
  7 31  1  0
  7 32  1  0
  8 33  1  0
 12 34  1  0
 15 35  1  0
 18 36  1  0
 19 37  1  0
 21 38  1  0
 21 39  1  0
 21 40  1  0
 22 41  1  0
 22 42  1  0
 22 43  1  0
 23 44  1  0
 24 45  1  0
M  END
$$$$
OCNT-2314989
     RDKit          3D

 48 51  0  0  0  0  0  0  0  0999 V2000
   -5.0032    0.6504    2.9587 C   0  0  0  0  0  0  0  0  0  0  0  0
   -5.1094   -0.5205    1.9920 C   0  0  0  0  0  0  0  0  0  0  0  0
   -4.4890   -0.2243    0.6951 N   0  0  0  0  0  0  0  0  0  0  0  0
   -5.2849    0.5940   -0.2255 C   0  0  0  0  0  0  0  0  0  0  0  0
   -4.8201    0.3908   -1.6559 C   0  0  0  0  0  0  0  0  0  0  0  0
   -3.3750    0.8411   -1.7720 C   0  0  0  0  0  0  0  0  0  0  0  0
   -2.5222    0.2512   -0.6759 C   0  0  0  0  0  0  0  0  0  0  0  0
   -1.1245    0.2422   -0.8620 C   0  0  0  0  0  0  0  0  0  0  0  0
   -0.2722   -0.2855    0.1093 C   0  0  0  0  0  0  0  0  0  0  0  0
    1.1801   -0.3167   -0.0693 C   0  0  0  0  0  0  0  0  0  0  0  0
    2.0520    0.1291    0.8180 N   0  0  0  0  0  0  0  0  0  0  0  0
    3.2907   -0.0596    0.2697 C   0  0  0  0  0  0  0  0  0  0  0  0
    4.5467    0.2648    0.7970 C   0  0  0  0  0  0  0  0  0  0  0  0
    5.6760   -0.0128    0.0163 C   0  0  0  0  0  0  0  0  0  0  0  0
    7.2752    0.4021    0.6564 S   0  0  0  0  0  0  0  0  0  0  0  0
    7.3659    2.0447    0.2932 N   0  0  0  0  0  0  0  0  0  0  0  0
    8.2780   -0.2763   -0.1299 O   0  0  0  0  0  0  0  0  0  0  0  0
    7.2290    0.3172    2.0974 O   0  0  0  0  0  0  0  0  0  0  0  0
    5.5705   -0.6183   -1.2404 C   0  0  0  0  0  0  0  0  0  0  0  0
    4.3188   -0.9554   -1.7667 C   0  0  0  0  0  0  0  0  0  0  0  0
    3.1965   -0.6576   -0.9825 C   0  0  0  0  0  0  0  0  0  0  0  0
    1.8437   -0.8503   -1.1586 N   0  0  0  0  0  0  0  0  0  0  0  0
    1.2398   -1.5507   -2.2679 C   0  0  0  0  0  0  0  0  0  0  0  0
   -0.8332   -0.7705    1.2882 C   0  0  0  0  0  0  0  0  0  0  0  0
   -2.2214   -0.7530    1.4803 C   0  0  0  0  0  0  0  0  0  0  0  0
   -3.1030   -0.2330    0.5187 C   0  0  0  0  0  0  0  0  0  0  0  0
   -5.4929    1.5426    2.5552 H   0  0  0  0  0  0  0  0  0  0  0  0
   -3.9618    0.9096    3.1716 H   0  0  0  0  0  0  0  0  0  0  0  0
   -5.4890    0.4001    3.9071 H   0  0  0  0  0  0  0  0  0  0  0  0
   -6.1718   -0.7485    1.8380 H   0  0  0  0  0  0  0  0  0  0  0  0
   -4.6919   -1.4306    2.4363 H   0  0  0  0  0  0  0  0  0  0  0  0
   -6.3421    0.3102   -0.1610 H   0  0  0  0  0  0  0  0  0  0  0  0
   -5.2165    1.6521    0.0575 H   0  0  0  0  0  0  0  0  0  0  0  0
   -5.4477    0.9617   -2.3489 H   0  0  0  0  0  0  0  0  0  0  0  0
   -4.9080   -0.6683   -1.9307 H   0  0  0  0  0  0  0  0  0  0  0  0
   -3.3171    1.9346   -1.7053 H   0  0  0  0  0  0  0  0  0  0  0  0
   -2.9883    0.5447   -2.7542 H   0  0  0  0  0  0  0  0  0  0  0  0
   -0.7100    0.6682   -1.7726 H   0  0  0  0  0  0  0  0  0  0  0  0
    4.6201    0.7168    1.7805 H   0  0  0  0  0  0  0  0  0  0  0  0
    7.4014    2.5721    1.1676 H   0  0  0  0  0  0  0  0  0  0  0  0
    6.6107    2.3651   -0.3119 H   0  0  0  0  0  0  0  0  0  0  0  0
    6.4654   -0.8383   -1.8220 H   0  0  0  0  0  0  0  0  0  0  0  0
    4.2342   -1.4284   -2.7397 H   0  0  0  0  0  0  0  0  0  0  0  0
    1.9590   -2.2551   -2.6927 H   0  0  0  0  0  0  0  0  0  0  0  0
    0.9481   -0.8139   -3.0201 H   0  0  0  0  0  0  0  0  0  0  0  0
    0.3716   -2.1140   -1.9174 H   0  0  0  0  0  0  0  0  0  0  0  0
   -0.1914   -1.1681    2.0722 H   0  0  0  0  0  0  0  0  0  0  0  0
   -2.5873   -1.1558    2.4189 H   0  0  0  0  0  0  0  0  0  0  0  0
  1  2  1  0
  2  3  1  0
  3  4  1  0
  4  5  1  0
  5  6  1  0
  6  7  1  0
  7  8  1  0
  8  9  2  0
  9 10  1  0
 10 11  2  0
 11 12  1  0
 12 13  2  0
 13 14  1  0
 14 15  1  0
 15 16  1  0
 15 17  2  0
 15 18  2  0
 14 19  2  0
 19 20  1  0
 20 21  2  0
 21 22  1  0
 22 23  1  0
  9 24  1  0
 24 25  2  0
 25 26  1  0
 26  3  1  0
 26  7  2  0
 22 10  1  0
 21 12  1  0
  1 27  1  0
  1 28  1  0
  1 29  1  0
  2 30  1  0
  2 31  1  0
  4 32  1  0
  4 33  1  0
  5 34  1  0
  5 35  1  0
  6 36  1  0
  6 37  1  0
  8 38  1  0
 13 39  1  0
 16 40  1  0
 16 41  1  0
 19 42  1  0
 20 43  1  0
 23 44  1  0
 23 45  1  0
 23 46  1  0
 24 47  1  0
 25 48  1  0
M  END
$$$$
OCNT-2314990
     RDKit          3D

  0  0  0  0  0  0  0  0  0  0999 V3000
M  V30 BEGIN CTAB
M  V30 COUNTS 38 40 0 0 0
M  V30 BEGIN ATOM
M  V30 1 O -2.067737 -0.015122 2.370197 0
M  V30 2 C -1.922324 0.001137 1.151547 0
M  V30 3 N -0.761439 -0.388266 0.514181 0
M  V30 4 C 0.451165 -0.681912 1.275157 0 CFG=1
M  V30 5 C 0.326182 -1.824687 2.288202 0
M  V30 6 N 1.716055 -2.202005 2.564712 0
M  V30 7 C 2.453916 -2.059502 1.305223 0
M  V30 8 C 1.581158 -1.205584 0.370116 0 CFG=2
M  V30 9 C 2.324752 -0.126033 -0.385551 0
M  V30 10 C 2.340436 -0.138825 -1.788821 0
M  V30 11 C 3.011553 0.855772 -2.502854 0
M  V30 12 C 3.675931 1.874638 -1.824544 0
M  V30 13 C 3.672650 1.898207 -0.432165 0
M  V30 14 C 3.002862 0.904200 0.283327 0
M  V30 15 C -3.033279 0.498963 0.304420 0
M  V30 16 C -3.113911 0.220829 -1.065267 0
M  V30 17 C -4.181227 0.724547 -1.806405 0
M  V30 18 C -5.135916 1.483929 -1.151304 0
M  V30 19 N -5.097498 1.756456 0.168848 0
M  V30 20 C -4.060391 1.254000 0.873157 0
M  V30 21 O -4.111043 1.560870 2.204417 0
M  V30 22 H -0.598712 0.008901 -0.402782 0
M  V30 23 H 0.737209 0.239318 1.799056 0
M  V30 24 H -0.177590 -1.517376 3.208634 0
M  V30 25 H -0.222443 -2.673605 1.861918 0
M  V30 26 H 1.769973 -3.154255 2.922954 0
M  V30 27 H 2.625101 -3.044262 0.854328 0
M  V30 28 H 3.435495 -1.619877 1.508286 0
M  V30 29 H 1.131310 -1.893195 -0.362605 0
M  V30 30 H 1.834405 -0.927402 -2.341610 0
M  V30 31 H 3.019578 0.833974 -3.589662 0
M  V30 32 H 4.199834 2.648151 -2.380022 0
M  V30 33 H 4.194016 2.690494 0.099363 0
M  V30 34 H 3.019005 0.941717 1.371462 0
M  V30 35 H -2.376986 -0.399204 -1.565419 0
M  V30 36 H -4.271371 0.524761 -2.868857 0
M  V30 37 H -5.986553 1.900786 -1.683607 0
M  V30 38 H -3.404167 1.049463 2.650567 0
M  V30 END ATOM
M  V30 BEGIN BOND
M  V30 1 2 1 2
M  V30 2 1 2 3
M  V30 3 1 3 4
M  V30 4 1 4 5
M  V30 5 1 5 6
M  V30 6 1 6 7
M  V30 7 1 7 8
M  V30 8 1 8 9
M  V30 9 2 9 10
M  V30 10 1 10 11
M  V30 11 2 11 12
M  V30 12 1 12 13
M  V30 13 2 13 14
M  V30 14 1 2 15
M  V30 15 1 15 16
M  V30 16 2 16 17
M  V30 17 1 17 18
M  V30 18 2 18 19
M  V30 19 1 19 20
M  V30 20 1 20 21
M  V30 21 1 8 4
M  V30 22 1 14 9
M  V30 23 2 20 15
M  V30 24 1 3 22
M  V30 25 1 4 23 CFG=1
M  V30 26 1 5 24
M  V30 27 1 5 25
M  V30 28 1 6 26
M  V30 29 1 7 27
M  V30 30 1 7 28
M  V30 31 1 8 29 CFG=3
M  V30 32 1 10 30
M  V30 33 1 11 31
M  V30 34 1 12 32
M  V30 35 1 13 33
M  V30 36 1 14 34
M  V30 37 1 16 35
M  V30 38 1 17 36
M  V30 39 1 18 37
M  V30 40 1 21 38
M  V30 END BOND
M  V30 BEGIN COLLECTION
M  V30 MDLV30/STERAC1 ATOMS=(2 4 8)
M  V30 END COLLECTION
M  V30 END CTAB
M  END
>  <_CXSMILES_Data>  (920) 
|&1:3,7|

$$$$
OCNT-2315001
     RDKit          3D

 38 40  0  0  0  0  0  0  0  0999 V2000
   -2.8359   -0.1362   -2.2228 C   0  0  0  0  0  0  0  0  0  0  0  0
   -2.2283    0.7949   -1.1689 C   0  0  0  0  0  0  0  0  0  0  0  0
   -0.8866    0.3764   -0.7973 N   0  0  0  0  0  0  0  0  0  0  0  0
    0.1903    0.5769   -1.6206 C   0  0  0  0  0  0  0  0  0  0  0  0
    0.1247    1.0986   -2.7269 O   0  0  0  0  0  0  0  0  0  0  0  0
    1.5006    0.1827   -1.0446 C   0  0  0  0  0  0  0  0  0  0  0  0
    1.6448   -0.9089   -0.2809 C   0  0  0  0  0  0  0  0  0  0  0  0
    2.9880   -1.2167    0.1940 C   0  0  0  0  0  0  0  0  0  0  0  0
    3.2531   -2.4116    0.8722 C   0  0  0  0  0  0  0  0  0  0  0  0
    4.5388   -2.6777    1.3497 C   0  0  0  0  0  0  0  0  0  0  0  0
    5.5614   -1.7490    1.1596 C   0  0  0  0  0  0  0  0  0  0  0  0
    5.3011   -0.5547    0.4879 C   0  0  0  0  0  0  0  0  0  0  0  0
    4.0214   -0.2943   -0.0024 C   0  0  0  0  0  0  0  0  0  0  0  0
    3.8440    0.9094   -0.6286 O   0  0  0  0  0  0  0  0  0  0  0  0
    2.6630    1.0437   -1.4408 C   0  0  0  0  0  0  0  0  0  0  0  0
   -3.0891    0.8950    0.0789 C   0  0  0  0  0  0  0  0  0  0  0  0
   -3.4306    2.1576    0.5888 C   0  0  0  0  0  0  0  0  0  0  0  0
   -4.2004    2.2746    1.7478 C   0  0  0  0  0  0  0  0  0  0  0  0
   -4.6332    1.1322    2.4167 C   0  0  0  0  0  0  0  0  0  0  0  0
   -4.2938   -0.1281    1.9303 C   0  0  0  0  0  0  0  0  0  0  0  0
   -3.5236   -0.2472    0.7716 C   0  0  0  0  0  0  0  0  0  0  0  0
   -2.2607   -0.1018   -3.1542 H   0  0  0  0  0  0  0  0  0  0  0  0
   -3.8663    0.1538   -2.4559 H   0  0  0  0  0  0  0  0  0  0  0  0
   -2.8433   -1.1807   -1.8923 H   0  0  0  0  0  0  0  0  0  0  0  0
   -2.1450    1.7898   -1.6258 H   0  0  0  0  0  0  0  0  0  0  0  0
   -0.7298    0.1078    0.1647 H   0  0  0  0  0  0  0  0  0  0  0  0
    0.8300   -1.5775   -0.0320 H   0  0  0  0  0  0  0  0  0  0  0  0
    2.4662   -3.1433    1.0366 H   0  0  0  0  0  0  0  0  0  0  0  0
    4.7415   -3.6079    1.8748 H   0  0  0  0  0  0  0  0  0  0  0  0
    6.5604   -1.9529    1.5361 H   0  0  0  0  0  0  0  0  0  0  0  0
    6.0948    0.1731    0.3434 H   0  0  0  0  0  0  0  0  0  0  0  0
    2.3778    2.1003   -1.3823 H   0  0  0  0  0  0  0  0  0  0  0  0
    2.9480    0.8369   -2.4792 H   0  0  0  0  0  0  0  0  0  0  0  0
   -3.0971    3.0630    0.0851 H   0  0  0  0  0  0  0  0  0  0  0  0
   -4.4609    3.2588    2.1289 H   0  0  0  0  0  0  0  0  0  0  0  0
   -5.2330    1.2244    3.3184 H   0  0  0  0  0  0  0  0  0  0  0  0
   -4.6285   -1.0198    2.4542 H   0  0  0  0  0  0  0  0  0  0  0  0
   -3.2641   -1.2417    0.4160 H   0  0  0  0  0  0  0  0  0  0  0  0
  1  2  1  0
  2  3  1  0
  3  4  1  0
  4  5  2  0
  4  6  1  0
  6  7  2  0
  7  8  1  0
  8  9  2  0
  9 10  1  0
 10 11  2  0
 11 12  1  0
 12 13  2  0
 13 14  1  0
 14 15  1  0
  2 16  1  0
 16 17  2  0
 17 18  1  0
 18 19  2  0
 19 20  1  0
 20 21  2  0
 15  6  1  0
 21 16  1  0
 13  8  1  0
  1 22  1  0
  1 23  1  0
  1 24  1  0
  2 25  1  0
  3 26  1  0
  7 27  1  0
  9 28  1  0
 10 29  1  0
 11 30  1  0
 12 31  1  0
 15 32  1  0
 15 33  1  0
 17 34  1  0
 18 35  1  0
 19 36  1  0
 20 37  1  0
 21 38  1  0
M  END
$$$$
OCNT-2315017
     RDKit          3D

 42 44  0  0  0  0  0  0  0  0999 V2000
    6.3385    1.5953    1.3762 C   0  0  0  0  0  0  0  0  0  0  0  0
    5.9752    0.6077    0.2821 C   0  0  0  0  0  0  0  0  0  0  0  0
    4.8984   -0.2696    0.6754 N   0  0  0  0  0  0  0  0  0  0  0  0
    5.1538   -1.4302    1.3243 N   0  0  0  0  0  0  0  0  0  0  0  0
    3.9859   -2.0318    1.5522 N   0  0  0  0  0  0  0  0  0  0  0  0
    3.0107   -1.2295    1.0422 C   0  0  0  0  0  0  0  0  0  0  0  0
    3.5592   -0.1059    0.4758 C   0  0  0  0  0  0  0  0  0  0  0  0
    2.9263    0.9191   -0.1414 N   0  0  0  0  0  0  0  0  0  0  0  0
    1.6328    0.7660   -0.1480 C   0  0  0  0  0  0  0  0  0  0  0  0
    0.9300   -0.2998    0.4198 N   0  0  0  0  0  0  0  0  0  0  0  0
   -0.5243   -0.3500    0.2902 C   0  0  0  0  0  0  0  0  0  0  0  0
   -0.9525   -1.1530   -0.9509 C   0  0  0  0  0  0  0  0  0  0  0  0
   -0.5002   -0.4749   -2.1312 O   0  0  0  0  0  0  0  0  0  0  0  0
   -2.4733   -1.4112   -1.0198 C   0  0  0  0  0  0  0  0  0  0  0  0
   -3.3684   -0.1948   -0.8388 C   0  0  0  0  0  0  0  0  0  0  0  0
   -3.3151    0.8295   -1.8028 C   0  0  0  0  0  0  0  0  0  0  0  0
   -4.1115    1.9691   -1.6940 C   0  0  0  0  0  0  0  0  0  0  0  0
   -4.9857    2.1053   -0.6240 C   0  0  0  0  0  0  0  0  0  0  0  0
   -5.0669    1.0980    0.3353 C   0  0  0  0  0  0  0  0  0  0  0  0
   -4.2703   -0.0619    0.2458 C   0  0  0  0  0  0  0  0  0  0  0  0
   -4.4203   -1.1248    1.3148 C   0  0  0  0  0  0  0  0  0  0  0  0
   -3.2433   -1.3870    1.9484 F   0  0  0  0  0  0  0  0  0  0  0  0
   -5.3016   -0.7947    2.3002 F   0  0  0  0  0  0  0  0  0  0  0  0
   -4.8543   -2.3141    0.8139 F   0  0  0  0  0  0  0  0  0  0  0  0
    1.5805   -1.3978    1.0105 C   0  0  0  0  0  0  0  0  0  0  0  0
    0.9948   -2.3942    1.4257 O   0  0  0  0  0  0  0  0  0  0  0  0
    6.6578    1.0766    2.2864 H   0  0  0  0  0  0  0  0  0  0  0  0
    7.1567    2.2433    1.0472 H   0  0  0  0  0  0  0  0  0  0  0  0
    5.4837    2.2288    1.6358 H   0  0  0  0  0  0  0  0  0  0  0  0
    5.6666    1.1372   -0.6255 H   0  0  0  0  0  0  0  0  0  0  0  0
    6.8377   -0.0168    0.0245 H   0  0  0  0  0  0  0  0  0  0  0  0
    0.9930    1.5255   -0.6270 H   0  0  0  0  0  0  0  0  0  0  0  0
   -0.9372   -0.8057    1.1962 H   0  0  0  0  0  0  0  0  0  0  0  0
   -0.8906    0.6806    0.2240 H   0  0  0  0  0  0  0  0  0  0  0  0
   -0.4453   -2.1256   -0.9477 H   0  0  0  0  0  0  0  0  0  0  0  0
   -0.6128   -1.0898   -2.8787 H   0  0  0  0  0  0  0  0  0  0  0  0
   -2.7210   -1.8507   -1.9954 H   0  0  0  0  0  0  0  0  0  0  0  0
   -2.7158   -2.1789   -0.2794 H   0  0  0  0  0  0  0  0  0  0  0  0
   -2.6459    0.7492   -2.6579 H   0  0  0  0  0  0  0  0  0  0  0  0
   -4.0495    2.7486   -2.4496 H   0  0  0  0  0  0  0  0  0  0  0  0
   -5.6093    2.9920   -0.5388 H   0  0  0  0  0  0  0  0  0  0  0  0
   -5.7665    1.2212    1.1621 H   0  0  0  0  0  0  0  0  0  0  0  0
  1  2  1  0
  2  3  1  0
  3  4  1  0
  4  5  2  0
  5  6  1  0
  6  7  2  0
  7  8  1  0
  8  9  2  0
  9 10  1  0
 10 11  1  0
 11 12  1  0
 12 13  1  0
 12 14  1  0
 14 15  1  0
 15 16  2  0
 16 17  1  0
 17 18  2  0
 18 19  1  0
 19 20  2  0
 20 21  1  0
 21 22  1  0
 21 23  1  0
 21 24  1  0
 10 25  1  0
 25 26  2  0
  7  3  1  0
 20 15  1  0
 25  6  1  0
  1 27  1  0
  1 28  1  0
  1 29  1  0
  2 30  1  0
  2 31  1  0
  9 32  1  0
 11 33  1  0
 11 34  1  0
 12 35  1  0
 13 36  1  0
 14 37  1  0
 14 38  1  0
 16 39  1  0
 17 40  1  0
 18 41  1  0
 19 42  1  0
M  END
$$$$
OCNT-2315024
     RDKit          3D

 44 47  0  0  0  0  0  0  0  0999 V2000
    5.5106    0.1838    1.3926 C   0  0  0  0  0  0  0  0  0  0  0  0
    5.5223   -0.7948    0.2190 C   0  0  0  0  0  0  0  0  0  0  0  0
    5.5079   -2.2473    0.6934 C   0  0  0  0  0  0  0  0  0  0  0  0
    4.4541   -0.5193   -0.7346 N   0  0  0  0  0  0  0  0  0  0  0  0
    4.7767   -0.1545   -2.0050 N   0  0  0  0  0  0  0  0  0  0  0  0
    3.5902    0.0375   -2.5949 C   0  0  0  0  0  0  0  0  0  0  0  0
    2.5266   -0.2138   -1.7242 C   0  0  0  0  0  0  0  0  0  0  0  0
    3.0994   -0.5753   -0.5306 C   0  0  0  0  0  0  0  0  0  0  0  0
    2.4603   -0.9061    0.6171 N   0  0  0  0  0  0  0  0  0  0  0  0
    1.1658   -0.8589    0.5054 C   0  0  0  0  0  0  0  0  0  0  0  0
    0.4556   -0.5429   -0.6494 N   0  0  0  0  0  0  0  0  0  0  0  0
   -0.9974   -0.5138   -0.6227 C   0  0  0  0  0  0  0  0  0  0  0  0
   -1.4975    0.8726   -0.2003 C   0  0  0  0  0  0  0  0  0  0  0  0
   -0.7426    1.6747    0.3550 O   0  0  0  0  0  0  0  0  0  0  0  0
   -2.8354    1.1704   -0.4280 N   0  0  0  0  0  0  0  0  0  0  0  0
   -3.3535    2.4664    0.0428 C   0  0  0  0  0  0  0  0  0  0  0  0
   -4.0779    2.3024    1.3906 C   0  0  0  0  0  0  0  0  0  0  0  0
   -4.9624    1.0912    1.3200 C   0  0  0  0  0  0  0  0  0  0  0  0
   -4.8622    0.1087    0.3486 C   0  0  0  0  0  0  0  0  0  0  0  0
   -5.8283   -0.9223    0.5646 C   0  0  0  0  0  0  0  0  0  0  0  0
   -6.6038   -0.6838    1.6798 C   0  0  0  0  0  0  0  0  0  0  0  0
   -6.1753    0.7755    2.4656 S   0  0  0  0  0  0  0  0  0  0  0  0
   -3.8663    0.1816   -0.7766 C   0  0  0  0  0  0  0  0  0  0  0  0
    1.0973   -0.1695   -1.8341 C   0  0  0  0  0  0  0  0  0  0  0  0
    0.5152    0.1454   -2.8675 O   0  0  0  0  0  0  0  0  0  0  0  0
    6.3928    0.0366    2.0247 H   0  0  0  0  0  0  0  0  0  0  0  0
    5.5195    1.2203    1.0376 H   0  0  0  0  0  0  0  0  0  0  0  0
    4.6249    0.0557    2.0233 H   0  0  0  0  0  0  0  0  0  0  0  0
    6.4618   -0.6384   -0.3283 H   0  0  0  0  0  0  0  0  0  0  0  0
    4.6221   -2.4720    1.2963 H   0  0  0  0  0  0  0  0  0  0  0  0
    6.3900   -2.4602    1.3066 H   0  0  0  0  0  0  0  0  0  0  0  0
    5.5148   -2.9368   -0.1580 H   0  0  0  0  0  0  0  0  0  0  0  0
    3.5581    0.3489   -3.6310 H   0  0  0  0  0  0  0  0  0  0  0  0
    0.5323   -1.0915    1.3770 H   0  0  0  0  0  0  0  0  0  0  0  0
   -1.3789   -0.7581   -1.6186 H   0  0  0  0  0  0  0  0  0  0  0  0
   -1.3617   -1.2467    0.1050 H   0  0  0  0  0  0  0  0  0  0  0  0
   -2.5497    3.2040    0.1362 H   0  0  0  0  0  0  0  0  0  0  0  0
   -4.0466    2.8369   -0.7232 H   0  0  0  0  0  0  0  0  0  0  0  0
   -4.6513    3.2075    1.6176 H   0  0  0  0  0  0  0  0  0  0  0  0
   -3.3406    2.1546    2.1891 H   0  0  0  0  0  0  0  0  0  0  0  0
   -5.9552   -1.7954   -0.0643 H   0  0  0  0  0  0  0  0  0  0  0  0
   -7.4046   -1.2947    2.0738 H   0  0  0  0  0  0  0  0  0  0  0  0
   -4.3629    0.5283   -1.6896 H   0  0  0  0  0  0  0  0  0  0  0  0
   -3.4443   -0.8070   -0.9640 H   0  0  0  0  0  0  0  0  0  0  0  0
  1  2  1  0
  2  3  1  0
  2  4  1  0
  4  5  1  0
  5  6  2  0
  6  7  1  0
  7  8  2  0
  8  9  1  0
  9 10  2  0
 10 11  1  0
 11 12  1  0
 12 13  1  0
 13 14  2  0
 13 15  1  0
 15 16  1  0
 16 17  1  0
 17 18  1  0
 18 19  2  0
 19 20  1  0
 20 21  2  0
 21 22  1  0
 19 23  1  0
 11 24  1  0
 24 25  2  0
  8  4  1  0
 23 15  1  0
 24  7  1  0
 22 18  1  0
  1 26  1  0
  1 27  1  0
  1 28  1  0
  2 29  1  0
  3 30  1  0
  3 31  1  0
  3 32  1  0
  6 33  1  0
 10 34  1  0
 12 35  1  0
 12 36  1  0
 16 37  1  0
 16 38  1  0
 17 39  1  0
 17 40  1  0
 20 41  1  0
 21 42  1  0
 23 43  1  0
 23 44  1  0
M  END
$$$$
OCNT-2315030
     RDKit          3D

 40 43  0  0  0  0  0  0  0  0999 V2000
   -0.2073   -1.1636   -0.1985 O   0  0  0  0  0  0  0  0  0  0  0  0
   -1.0026   -0.2462   -0.0149 C   0  0  0  0  0  0  0  0  0  0  0  0
   -2.3518   -0.4534   -0.1772 N   0  0  0  0  0  0  0  0  0  0  0  0
   -3.3256    0.5078    0.0040 C   0  0  0  0  0  0  0  0  0  0  0  0
   -4.7703    0.1889   -0.1959 C   0  0  0  0  0  0  0  0  0  0  0  0
   -5.2238   -1.0762   -0.5719 C   0  0  0  0  0  0  0  0  0  0  0  0
   -6.5926   -1.2937   -0.7385 C   0  0  0  0  0  0  0  0  0  0  0  0
   -7.4814   -0.2501   -0.5282 C   0  0  0  0  0  0  0  0  0  0  0  0
   -6.9621    0.9748   -0.1578 C   0  0  0  0  0  0  0  0  0  0  0  0
   -5.6422    1.2114    0.0101 N   0  0  0  0  0  0  0  0  0  0  0  0
   -2.9272    1.7413    0.3670 C   0  0  0  0  0  0  0  0  0  0  0  0
   -1.5274    2.0464    0.5597 C   0  0  0  0  0  0  0  0  0  0  0  0
   -0.5658    1.1200    0.3868 C   0  0  0  0  0  0  0  0  0  0  0  0
    0.8595    1.5260    0.6085 C   0  0  0  0  0  0  0  0  0  0  0  0
    1.1188    2.6816    0.9395 O   0  0  0  0  0  0  0  0  0  0  0  0
    1.7859    0.5299    0.4141 N   0  0  0  0  0  0  0  0  0  0  0  0
    3.1986    0.5953    0.5434 C   0  0  0  0  0  0  0  0  0  0  0  0
    3.8836    1.7594    0.9103 C   0  0  0  0  0  0  0  0  0  0  0  0
    5.2730    1.7554    1.0190 C   0  0  0  0  0  0  0  0  0  0  0  0
    5.9856    0.5892    0.7621 C   0  0  0  0  0  0  0  0  0  0  0  0
    5.3104   -0.5840    0.3935 C   0  0  0  0  0  0  0  0  0  0  0  0
    6.0084   -1.7706    0.1300 C   0  0  0  0  0  0  0  0  0  0  0  0
    5.3145   -2.9175   -0.2330 C   0  0  0  0  0  0  0  0  0  0  0  0
    3.9394   -2.8396   -0.3207 C   0  0  0  0  0  0  0  0  0  0  0  0
    3.2330   -1.7155   -0.0746 N   0  0  0  0  0  0  0  0  0  0  0  0
    3.9022   -0.5935    0.2797 C   0  0  0  0  0  0  0  0  0  0  0  0
   -2.5926   -1.3946   -0.4491 H   0  0  0  0  0  0  0  0  0  0  0  0
   -4.5495   -1.9059   -0.7416 H   0  0  0  0  0  0  0  0  0  0  0  0
   -6.9589   -2.2741   -1.0311 H   0  0  0  0  0  0  0  0  0  0  0  0
   -8.5499   -0.3872   -0.6495 H   0  0  0  0  0  0  0  0  0  0  0  0
   -7.6108    1.8278    0.0202 H   0  0  0  0  0  0  0  0  0  0  0  0
   -3.6355    2.5501    0.5283 H   0  0  0  0  0  0  0  0  0  0  0  0
   -1.2863    3.0655    0.8526 H   0  0  0  0  0  0  0  0  0  0  0  0
    1.4543   -0.4020    0.1376 H   0  0  0  0  0  0  0  0  0  0  0  0
    3.3614    2.6873    1.1183 H   0  0  0  0  0  0  0  0  0  0  0  0
    5.7954    2.6652    1.3047 H   0  0  0  0  0  0  0  0  0  0  0  0
    7.0694    0.6009    0.8509 H   0  0  0  0  0  0  0  0  0  0  0  0
    7.0922   -1.8058    0.2062 H   0  0  0  0  0  0  0  0  0  0  0  0
    5.8331   -3.8460   -0.4414 H   0  0  0  0  0  0  0  0  0  0  0  0
    3.3446   -3.7046   -0.6002 H   0  0  0  0  0  0  0  0  0  0  0  0
  1  2  2  0
  2  3  1  0
  3  4  1  0
  4  5  1  0
  5  6  2  0
  6  7  1  0
  7  8  2  0
  8  9  1  0
  9 10  2  0
  4 11  2  0
 11 12  1  0
 12 13  2  0
 13 14  1  0
 14 15  2  0
 14 16  1  0
 16 17  1  0
 17 18  1  0
 18 19  2  0
 19 20  1  0
 20 21  2  0
 21 22  1  0
 22 23  2  0
 23 24  1  0
 24 25  2  0
 25 26  1  0
 13  2  1  0
 26 17  2  0
 10  5  1  0
 26 21  1  0
  3 27  1  0
  6 28  1  0
  7 29  1  0
  8 30  1  0
  9 31  1  0
 11 32  1  0
 12 33  1  0
 16 34  1  0
 18 35  1  0
 19 36  1  0
 20 37  1  0
 22 38  1  0
 23 39  1  0
 24 40  1  0
M  END
$$$$
OCNT-2315032
     RDKit          3D

 44 46  0  0  0  0  0  0  0  0999 V2000
    4.6734    0.0418    3.5306 F   0  0  0  0  0  0  0  0  0  0  0  0
    4.4247   -1.0310    2.7353 C   0  0  0  0  0  0  0  0  0  0  0  0
    5.3150   -1.9906    3.0989 F   0  0  0  0  0  0  0  0  0  0  0  0
    4.6462   -0.6587    1.2779 C   0  0  0  0  0  0  0  0  0  0  0  0
    3.4663   -0.0291    0.7688 O   0  0  0  0  0  0  0  0  0  0  0  0
    3.5142    0.4726   -0.5060 C   0  0  0  0  0  0  0  0  0  0  0  0
    4.5781    0.2836   -1.3948 C   0  0  0  0  0  0  0  0  0  0  0  0
    4.5319    0.8270   -2.6813 C   0  0  0  0  0  0  0  0  0  0  0  0
    3.4235    1.5599   -3.0921 C   0  0  0  0  0  0  0  0  0  0  0  0
    2.3569    1.7512   -2.2164 C   0  0  0  0  0  0  0  0  0  0  0  0
    2.3882    1.2128   -0.9178 C   0  0  0  0  0  0  0  0  0  0  0  0
    1.2058    1.4384    0.0016 C   0  0  0  0  0  0  0  0  0  0  0  0
    0.3844    0.2442    0.2172 N   0  0  0  0  0  0  0  0  0  0  0  0
   -0.3747   -0.1480   -0.9754 C   0  0  0  0  0  0  0  0  0  0  0  0
   -1.3224   -1.3254   -0.6898 C   0  0  0  0  0  0  0  0  0  0  0  0
   -2.6007   -0.9231    0.0106 C   0  0  0  0  0  0  0  0  0  0  0  0
   -2.6112   -0.6897    1.3908 C   0  0  0  0  0  0  0  0  0  0  0  0
   -3.7789   -0.3113    2.0628 C   0  0  0  0  0  0  0  0  0  0  0  0
   -4.9454   -0.1710    1.3045 C   0  0  0  0  0  0  0  0  0  0  0  0
   -6.2184    0.1856    1.6882 N   0  0  0  0  0  0  0  0  0  0  0  0
   -7.0545    0.1975    0.6031 C   0  0  0  0  0  0  0  0  0  0  0  0
   -6.3133   -0.1549   -0.5018 C   0  0  0  0  0  0  0  0  0  0  0  0
   -4.9779   -0.3902   -0.0716 C   0  0  0  0  0  0  0  0  0  0  0  0
   -3.7891   -0.7693   -0.7267 C   0  0  0  0  0  0  0  0  0  0  0  0
    3.4108   -1.3878    2.9367 H   0  0  0  0  0  0  0  0  0  0  0  0
    4.8461   -1.5725    0.7068 H   0  0  0  0  0  0  0  0  0  0  0  0
    5.5030    0.0216    1.2097 H   0  0  0  0  0  0  0  0  0  0  0  0
    5.4608   -0.2855   -1.1231 H   0  0  0  0  0  0  0  0  0  0  0  0
    5.3643    0.6754   -3.3641 H   0  0  0  0  0  0  0  0  0  0  0  0
    3.3882    1.9815   -4.0933 H   0  0  0  0  0  0  0  0  0  0  0  0
    1.4934    2.3228   -2.5505 H   0  0  0  0  0  0  0  0  0  0  0  0
    1.5828    1.7815    0.9731 H   0  0  0  0  0  0  0  0  0  0  0  0
    0.5815    2.2640   -0.3633 H   0  0  0  0  0  0  0  0  0  0  0  0
    1.0023   -0.5164    0.4978 H   0  0  0  0  0  0  0  0  0  0  0  0
   -0.9485    0.7026   -1.3629 H   0  0  0  0  0  0  0  0  0  0  0  0
    0.3225   -0.4664   -1.7592 H   0  0  0  0  0  0  0  0  0  0  0  0
   -1.5797   -1.8014   -1.6452 H   0  0  0  0  0  0  0  0  0  0  0  0
   -0.8139   -2.1047   -0.1070 H   0  0  0  0  0  0  0  0  0  0  0  0
   -1.6899   -0.7928    1.9617 H   0  0  0  0  0  0  0  0  0  0  0  0
   -3.7685   -0.1302    3.1322 H   0  0  0  0  0  0  0  0  0  0  0  0
   -6.4885    0.4062    2.6364 H   0  0  0  0  0  0  0  0  0  0  0  0
   -8.0993    0.4553    0.7104 H   0  0  0  0  0  0  0  0  0  0  0  0
   -6.6880   -0.2356   -1.5135 H   0  0  0  0  0  0  0  0  0  0  0  0
   -3.8017   -0.9402   -1.7991 H   0  0  0  0  0  0  0  0  0  0  0  0
  1  2  1  0
  2  3  1  0
  2  4  1  0
  4  5  1  0
  5  6  1  0
  6  7  2  0
  7  8  1  0
  8  9  2  0
  9 10  1  0
 10 11  2  0
 11 12  1  0
 12 13  1  0
 13 14  1  0
 14 15  1  0
 15 16  1  0
 16 17  2  0
 17 18  1  0
 18 19  2  0
 19 20  1  0
 20 21  1  0
 21 22  2  0
 22 23  1  0
 23 24  2  0
 11  6  1  0
 24 16  1  0
 23 19  1  0
  2 25  1  0
  4 26  1  0
  4 27  1  0
  7 28  1  0
  8 29  1  0
  9 30  1  0
 10 31  1  0
 12 32  1  0
 12 33  1  0
 13 34  1  0
 14 35  1  0
 14 36  1  0
 15 37  1  0
 15 38  1  0
 17 39  1  0
 18 40  1  0
 20 41  1  0
 21 42  1  0
 22 43  1  0
 24 44  1  0
M  END
$$$$
OCNT-2315035
     RDKit          3D

 67 71  0  0  0  0  0  0  0  0999 V2000
    3.2351   -2.5666    4.3349 C   0  0  0  0  0  0  0  0  0  0  0  0
    3.2691   -1.2423    3.7166 N   0  0  0  0  0  0  0  0  0  0  0  0
    4.2175   -1.2037    2.5947 C   0  0  0  0  0  0  0  0  0  0  0  0
    3.7566   -0.3320    1.4260 C   0  0  0  0  0  0  0  0  0  0  0  0
    2.4205   -0.8714    0.9148 C   0  0  0  0  0  0  0  0  0  0  0  0
    1.8852   -0.1500   -0.3213 C   0  0  0  0  0  0  0  0  0  0  0  0
    1.6900   -0.8272   -1.3411 O   0  0  0  0  0  0  0  0  0  0  0  0
    1.6155    1.2059   -0.3245 N   0  0  0  0  0  0  0  0  0  0  0  0
    1.4239    2.0438    0.8544 C   0  0  0  0  0  0  0  0  0  0  0  0
    2.2315    3.3335    0.7562 C   0  0  0  0  0  0  0  0  0  0  0  0
    2.0509    4.0175   -0.5730 C   0  0  0  0  0  0  0  0  0  0  0  0
    2.4257    5.3630   -0.7067 C   0  0  0  0  0  0  0  0  0  0  0  0
    2.3223    6.0078   -1.9369 C   0  0  0  0  0  0  0  0  0  0  0  0
    1.8552    5.3121   -3.0465 C   0  0  0  0  0  0  0  0  0  0  0  0
    1.4919    3.9707   -2.9273 C   0  0  0  0  0  0  0  0  0  0  0  0
    1.5803    3.3055   -1.6915 C   0  0  0  0  0  0  0  0  0  0  0  0
    1.1883    1.8330   -1.6016 C   0  0  0  0  0  0  0  0  0  0  0  0
   -0.3334    1.6345   -1.8659 C   0  0  0  0  0  0  0  0  0  0  0  0
   -0.7129    0.2375   -2.0030 N   0  0  0  0  0  0  0  0  0  0  0  0
   -1.9977   -0.1490   -2.3158 C   0  0  0  0  0  0  0  0  0  0  0  0
   -2.9073    0.6584   -2.4829 O   0  0  0  0  0  0  0  0  0  0  0  0
   -2.1448   -1.6539   -2.4772 C   0  0  0  0  0  0  0  0  0  0  0  0
   -3.5254   -2.1835   -2.1481 C   0  0  0  0  0  0  0  0  0  0  0  0
   -4.3779   -2.5057   -3.2219 C   0  0  0  0  0  0  0  0  0  0  0  0
   -5.6537   -3.0083   -2.9923 C   0  0  0  0  0  0  0  0  0  0  0  0
   -6.0996   -3.1926   -1.6860 C   0  0  0  0  0  0  0  0  0  0  0  0
   -5.2795   -2.8765   -0.5915 C   0  0  0  0  0  0  0  0  0  0  0  0
   -5.7524   -3.0682    0.7187 C   0  0  0  0  0  0  0  0  0  0  0  0
   -4.9571   -2.7619    1.8233 C   0  0  0  0  0  0  0  0  0  0  0  0
   -3.6781   -2.2563    1.6298 C   0  0  0  0  0  0  0  0  0  0  0  0
   -3.1940   -2.0587    0.3329 C   0  0  0  0  0  0  0  0  0  0  0  0
   -3.9745   -2.3627   -0.8086 C   0  0  0  0  0  0  0  0  0  0  0  0
    1.3904   -1.0916    2.0296 C   0  0  0  0  0  0  0  0  0  0  0  0
    1.9291   -0.7337    3.4178 C   0  0  0  0  0  0  0  0  0  0  0  0
    2.8212   -3.3231    3.6576 H   0  0  0  0  0  0  0  0  0  0  0  0
    2.6369   -2.5488    5.2520 H   0  0  0  0  0  0  0  0  0  0  0  0
    4.2446   -2.8794    4.6264 H   0  0  0  0  0  0  0  0  0  0  0  0
    4.3931   -2.2147    2.2039 H   0  0  0  0  0  0  0  0  0  0  0  0
    5.1836   -0.8424    2.9615 H   0  0  0  0  0  0  0  0  0  0  0  0
    3.6953    0.7134    1.7409 H   0  0  0  0  0  0  0  0  0  0  0  0
    4.5029   -0.3643    0.6237 H   0  0  0  0  0  0  0  0  0  0  0  0
    2.6525   -1.8803    0.5363 H   0  0  0  0  0  0  0  0  0  0  0  0
    0.3522    2.2675    0.9283 H   0  0  0  0  0  0  0  0  0  0  0  0
    1.6897    1.5259    1.7692 H   0  0  0  0  0  0  0  0  0  0  0  0
    1.9270    4.0048    1.5702 H   0  0  0  0  0  0  0  0  0  0  0  0
    3.3008    3.1123    0.8831 H   0  0  0  0  0  0  0  0  0  0  0  0
    2.8094    5.9135    0.1488 H   0  0  0  0  0  0  0  0  0  0  0  0
    2.6169    7.0492   -2.0310 H   0  0  0  0  0  0  0  0  0  0  0  0
    1.7794    5.8116   -4.0084 H   0  0  0  0  0  0  0  0  0  0  0  0
    1.1444    3.4426   -3.8128 H   0  0  0  0  0  0  0  0  0  0  0  0
    1.7416    1.3214   -2.4017 H   0  0  0  0  0  0  0  0  0  0  0  0
   -0.9339    2.0616   -1.0538 H   0  0  0  0  0  0  0  0  0  0  0  0
   -0.6426    2.1384   -2.7892 H   0  0  0  0  0  0  0  0  0  0  0  0
    0.0362   -0.4569   -1.9806 H   0  0  0  0  0  0  0  0  0  0  0  0
   -1.8868   -1.8917   -3.5180 H   0  0  0  0  0  0  0  0  0  0  0  0
   -1.4024   -2.1792   -1.8640 H   0  0  0  0  0  0  0  0  0  0  0  0
   -4.0490   -2.3594   -4.2492 H   0  0  0  0  0  0  0  0  0  0  0  0
   -6.3031   -3.2542   -3.8308 H   0  0  0  0  0  0  0  0  0  0  0  0
   -7.1030   -3.5843   -1.5309 H   0  0  0  0  0  0  0  0  0  0  0  0
   -6.7539   -3.4593    0.8875 H   0  0  0  0  0  0  0  0  0  0  0  0
   -5.3402   -2.9162    2.8295 H   0  0  0  0  0  0  0  0  0  0  0  0
   -3.0532   -2.0088    2.4853 H   0  0  0  0  0  0  0  0  0  0  0  0
   -2.1924   -1.6516    0.2287 H   0  0  0  0  0  0  0  0  0  0  0  0
    0.4674   -0.5327    1.8388 H   0  0  0  0  0  0  0  0  0  0  0  0
    1.0964   -2.1503    2.0296 H   0  0  0  0  0  0  0  0  0  0  0  0
    1.2078   -1.0483    4.1823 H   0  0  0  0  0  0  0  0  0  0  0  0
    1.9703    0.3566    3.5193 H   0  0  0  0  0  0  0  0  0  0  0  0
  1  2  1  0
  2  3  1  0
  3  4  1  0
  4  5  1  0
  5  6  1  0
  6  7  2  0
  6  8  1  0
  8  9  1  0
  9 10  1  0
 10 11  1  0
 11 12  2  0
 12 13  1  0
 13 14  2  0
 14 15  1  0
 15 16  2  0
 16 17  1  0
 17 18  1  0
 18 19  1  0
 19 20  1  0
 20 21  2  0
 20 22  1  0
 22 23  1  0
 23 24  2  0
 24 25  1  0
 25 26  2  0
 26 27  1  0
 27 28  2  0
 28 29  1  0
 29 30  2  0
 30 31  1  0
 31 32  2  0
  5 33  1  0
 33 34  1  0
 34  2  1  0
 17  8  1  0
 32 23  1  0
 16 11  1  0
 32 27  1  0
  1 35  1  0
  1 36  1  0
  1 37  1  0
  3 38  1  0
  3 39  1  0
  4 40  1  0
  4 41  1  0
  5 42  1  0
  9 43  1  0
  9 44  1  0
 10 45  1  0
 10 46  1  0
 12 47  1  0
 13 48  1  0
 14 49  1  0
 15 50  1  0
 17 51  1  0
 18 52  1  0
 18 53  1  0
 19 54  1  0
 22 55  1  0
 22 56  1  0
 24 57  1  0
 25 58  1  0
 26 59  1  0
 28 60  1  0
 29 61  1  0
 30 62  1  0
 31 63  1  0
 33 64  1  0
 33 65  1  0
 34 66  1  0
 34 67  1  0
M  END
$$$$
OCNT-2315045
     RDKit          3D

 49 51  0  0  0  0  0  0  0  0999 V2000
   -1.0745   -3.1515    1.1572 C   0  0  0  0  0  0  0  0  0  0  0  0
   -0.8795   -2.3974   -0.1589 C   0  0  0  0  0  0  0  0  0  0  0  0
   -1.3144   -3.2849   -1.3290 C   0  0  0  0  0  0  0  0  0  0  0  0
   -1.6621   -1.0662   -0.1999 C   0  0  0  0  0  0  0  0  0  0  0  0
   -1.2495   -0.0252    0.8649 C   0  0  0  0  0  0  0  0  0  0  0  0
    0.1723    0.4170    0.7021 C   0  0  0  0  0  0  0  0  0  0  0  0
    0.8716    0.6512   -0.3890 N   0  0  0  0  0  0  0  0  0  0  0  0
    2.1053    0.9714    0.1219 C   0  0  0  0  0  0  0  0  0  0  0  0
    3.2749    1.2925   -0.7418 C   0  0  0  0  0  0  0  0  0  0  0  0
    3.9827    0.0728   -1.2344 C   0  0  0  0  0  0  0  0  0  0  0  0
    3.9338   -0.5518   -2.4649 C   0  0  0  0  0  0  0  0  0  0  0  0
    4.7513   -1.6492   -2.4957 N   0  0  0  0  0  0  0  0  0  0  0  0
    5.2890   -1.7129   -1.2999 C   0  0  0  0  0  0  0  0  0  0  0  0
    4.8567   -0.6934   -0.4989 N   0  0  0  0  0  0  0  0  0  0  0  0
    5.2581   -0.5002    0.8733 C   0  0  0  0  0  0  0  0  0  0  0  0
    2.1772    0.9738    1.4608 N   0  0  0  0  0  0  0  0  0  0  0  0
    0.8898    0.6001    1.8506 O   0  0  0  0  0  0  0  0  0  0  0  0
   -2.1695    1.1415    0.8704 N   0  0  0  0  0  0  0  0  0  0  0  0
   -2.1623    2.0421   -0.2861 C   0  0  0  0  0  0  0  0  0  0  0  0
   -2.9239    3.3357   -0.0470 C   0  0  0  0  0  0  0  0  0  0  0  0
   -4.3243    3.0052    0.4303 C   0  0  0  0  0  0  0  0  0  0  0  0
   -4.2420    2.2166    1.7220 C   0  0  0  0  0  0  0  0  0  0  0  0
   -3.3131    1.0194    1.6582 C   0  0  0  0  0  0  0  0  0  0  0  0
   -3.5307    0.0348    2.3649 O   0  0  0  0  0  0  0  0  0  0  0  0
   -2.1368   -3.3135    1.3684 H   0  0  0  0  0  0  0  0  0  0  0  0
   -0.5846   -4.1307    1.1199 H   0  0  0  0  0  0  0  0  0  0  0  0
   -0.6373   -2.6063    1.9988 H   0  0  0  0  0  0  0  0  0  0  0  0
    0.1910   -2.1941   -0.2823 H   0  0  0  0  0  0  0  0  0  0  0  0
   -0.7437   -4.2196   -1.3419 H   0  0  0  0  0  0  0  0  0  0  0  0
   -2.3781   -3.5379   -1.2626 H   0  0  0  0  0  0  0  0  0  0  0  0
   -1.1443   -2.7790   -2.2853 H   0  0  0  0  0  0  0  0  0  0  0  0
   -2.7334   -1.2834   -0.0922 H   0  0  0  0  0  0  0  0  0  0  0  0
   -1.5453   -0.6270   -1.2000 H   0  0  0  0  0  0  0  0  0  0  0  0
   -1.3232   -0.4963    1.8517 H   0  0  0  0  0  0  0  0  0  0  0  0
    2.9236    1.8772   -1.6015 H   0  0  0  0  0  0  0  0  0  0  0  0
    3.9757    1.9428   -0.2048 H   0  0  0  0  0  0  0  0  0  0  0  0
    3.3503   -0.2657   -3.3311 H   0  0  0  0  0  0  0  0  0  0  0  0
    5.9875   -2.4695   -0.9662 H   0  0  0  0  0  0  0  0  0  0  0  0
    5.4542    0.5606    1.0447 H   0  0  0  0  0  0  0  0  0  0  0  0
    6.1708   -1.0701    1.0670 H   0  0  0  0  0  0  0  0  0  0  0  0
    4.4537   -0.8577    1.5199 H   0  0  0  0  0  0  0  0  0  0  0  0
   -2.6103    1.5021   -1.1284 H   0  0  0  0  0  0  0  0  0  0  0  0
   -1.1331    2.2958   -0.5518 H   0  0  0  0  0  0  0  0  0  0  0  0
   -2.9665    3.9209   -0.9720 H   0  0  0  0  0  0  0  0  0  0  0  0
   -2.4057    3.9447    0.7037 H   0  0  0  0  0  0  0  0  0  0  0  0
   -4.8975    3.9250    0.5893 H   0  0  0  0  0  0  0  0  0  0  0  0
   -4.8510    2.4204   -0.3338 H   0  0  0  0  0  0  0  0  0  0  0  0
   -5.2438    1.8610    1.9884 H   0  0  0  0  0  0  0  0  0  0  0  0
   -3.8890    2.8591    2.5374 H   0  0  0  0  0  0  0  0  0  0  0  0
  1  2  1  0
  2  3  1  0
  2  4  1  0
  4  5  1  0
  5  6  1  0
  6  7  2  0
  7  8  1  0
  8  9  1  0
  9 10  1  0
 10 11  2  0
 11 12  1  0
 12 13  2  0
 13 14  1  0
 14 15  1  0
  8 16  2  0
 16 17  1  0
  5 18  1  0
 18 19  1  0
 19 20  1  0
 20 21  1  0
 21 22  1  0
 22 23  1  0
 23 24  2  0
 17  6  1  0
 23 18  1  0
 14 10  1  0
  1 25  1  0
  1 26  1  0
  1 27  1  0
  2 28  1  0
  3 29  1  0
  3 30  1  0
  3 31  1  0
  4 32  1  0
  4 33  1  0
  5 34  1  0
  9 35  1  0
  9 36  1  0
 11 37  1  0
 13 38  1  0
 15 39  1  0
 15 40  1  0
 15 41  1  0
 19 42  1  0
 19 43  1  0
 20 44  1  0
 20 45  1  0
 21 46  1  0
 21 47  1  0
 22 48  1  0
 22 49  1  0
M  END
$$$$
OCNT-2315056
     RDKit          3D

 46 49  0  0  0  0  0  0  0  0999 V2000
    6.6018   -0.9640   -0.8661 C   0  0  0  0  0  0  0  0  0  0  0  0
    5.1414   -0.6968   -0.6087 C   0  0  0  0  0  0  0  0  0  0  0  0
    4.2976   -1.7870   -0.3044 C   0  0  0  0  0  0  0  0  0  0  0  0
    2.9328   -1.5578   -0.0631 C   0  0  0  0  0  0  0  0  0  0  0  0
    2.4586   -0.2592   -0.1322 C   0  0  0  0  0  0  0  0  0  0  0  0
    3.2500    0.8472   -0.4265 C   0  0  0  0  0  0  0  0  0  0  0  0
    4.6178    0.6152   -0.6663 C   0  0  0  0  0  0  0  0  0  0  0  0
    5.5010    1.7917   -0.9917 C   0  0  0  0  0  0  0  0  0  0  0  0
    1.1244   -0.2280    0.1268 O   0  0  0  0  0  0  0  0  0  0  0  0
    0.7137   -1.5108    0.3675 C   0  0  0  0  0  0  0  0  0  0  0  0
   -0.6706   -1.8485    0.6797 C   0  0  0  0  0  0  0  0  0  0  0  0
   -0.9745   -3.0277    0.8926 O   0  0  0  0  0  0  0  0  0  0  0  0
   -1.6701   -0.8604    0.7566 N   0  0  0  0  0  0  0  0  0  0  0  0
   -1.4700    0.5183    0.3081 C   0  0  0  0  0  0  0  0  0  0  0  0
   -2.6575    1.4438    0.4541 C   0  0  0  0  0  0  0  0  0  0  0  0
   -2.5510    2.7646   -0.0100 C   0  0  0  0  0  0  0  0  0  0  0  0
   -3.6149    3.6561    0.1279 C   0  0  0  0  0  0  0  0  0  0  0  0
   -4.7958    3.2401    0.7362 C   0  0  0  0  0  0  0  0  0  0  0  0
   -4.9155    1.9315    1.2017 C   0  0  0  0  0  0  0  0  0  0  0  0
   -3.8554    1.0268    1.0523 C   0  0  0  0  0  0  0  0  0  0  0  0
   -3.9760   -0.3788    1.5708 C   0  0  0  0  0  0  0  0  0  0  0  0
   -3.0549   -1.3477    0.8243 C   0  0  1  0  0  0  0  0  0  0  0  0
   -3.5950   -1.6782   -0.5870 C   0  0  0  0  0  0  0  0  0  0  0  0
   -4.7421   -2.4270   -0.6222 N   0  0  0  0  0  0  0  0  0  0  0  0
   -3.0812   -1.3073   -1.6391 O   0  0  0  0  0  0  0  0  0  0  0  0
    1.8077   -2.3571    0.2582 C   0  0  0  0  0  0  0  0  0  0  0  0
    7.2182   -0.4499   -0.1221 H   0  0  0  0  0  0  0  0  0  0  0  0
    6.8794   -0.6262   -1.8695 H   0  0  0  0  0  0  0  0  0  0  0  0
    6.8324   -2.0328   -0.8041 H   0  0  0  0  0  0  0  0  0  0  0  0
    4.6907   -2.7989   -0.2573 H   0  0  0  0  0  0  0  0  0  0  0  0
    2.8160    1.8395   -0.4660 H   0  0  0  0  0  0  0  0  0  0  0  0
    6.3165    1.8687   -0.2657 H   0  0  0  0  0  0  0  0  0  0  0  0
    5.9152    1.6876   -1.9994 H   0  0  0  0  0  0  0  0  0  0  0  0
    4.9434    2.7338   -0.9588 H   0  0  0  0  0  0  0  0  0  0  0  0
   -0.6649    0.9471    0.9135 H   0  0  0  0  0  0  0  0  0  0  0  0
   -1.1656    0.4899   -0.7446 H   0  0  0  0  0  0  0  0  0  0  0  0
   -1.6321    3.1046   -0.4835 H   0  0  0  0  0  0  0  0  0  0  0  0
   -3.5207    4.6752   -0.2376 H   0  0  0  0  0  0  0  0  0  0  0  0
   -5.6239    3.9350    0.8477 H   0  0  0  0  0  0  0  0  0  0  0  0
   -5.8423    1.6203    1.6779 H   0  0  0  0  0  0  0  0  0  0  0  0
   -3.7032   -0.3644    2.6338 H   0  0  0  0  0  0  0  0  0  0  0  0
   -5.0175   -0.7147    1.5020 H   0  0  0  0  0  0  0  0  0  0  0  0
   -3.0729   -2.2928    1.3822 H   0  0  0  0  0  0  0  0  0  0  0  0
   -4.9540   -3.0630    0.1349 H   0  0  0  0  0  0  0  0  0  0  0  0
   -5.0161   -2.7284   -1.5499 H   0  0  0  0  0  0  0  0  0  0  0  0
    1.7789   -3.4293    0.3958 H   0  0  0  0  0  0  0  0  0  0  0  0
  1  2  1  0
  2  3  1  0
  3  4  2  0
  4  5  1  0
  5  6  2  0
  6  7  1  0
  7  8  1  0
  5  9  1  0
  9 10  1  0
 10 11  1  0
 11 12  2  0
 11 13  1  0
 13 14  1  0
 14 15  1  0
 15 16  2  0
 16 17  1  0
 17 18  2  0
 18 19  1  0
 19 20  2  0
 20 21  1  0
 21 22  1  0
 22 23  1  0
 23 24  1  0
 23 25  2  0
 10 26  2  0
  7  2  2  0
 22 13  1  0
 26  4  1  0
 20 15  1  0
  1 27  1  0
  1 28  1  0
  1 29  1  0
  3 30  1  0
  6 31  1  0
  8 32  1  0
  8 33  1  0
  8 34  1  0
 14 35  1  0
 14 36  1  0
 16 37  1  0
 17 38  1  0
 18 39  1  0
 19 40  1  0
 21 41  1  0
 21 42  1  0
 22 43  1  1
 24 44  1  0
 24 45  1  0
 26 46  1  0
M  END
$$$$
OCNT-2315064
     RDKit          3D

 46 49  0  0  0  0  0  0  0  0999 V2000
   -4.2637    2.6724    0.2911 C   0  0  0  0  0  0  0  0  0  0  0  0
   -4.9393    1.4224   -0.1721 C   0  0  0  0  0  0  0  0  0  0  0  0
   -6.1098    1.4777   -0.9184 C   0  0  0  0  0  0  0  0  0  0  0  0
   -6.7717    0.3923   -1.3796 N   0  0  0  0  0  0  0  0  0  0  0  0
   -6.2485   -0.8157   -1.0760 C   0  0  0  0  0  0  0  0  0  0  0  0
   -5.0814   -0.9873   -0.3561 C   0  0  0  0  0  0  0  0  0  0  0  0
   -4.4111    0.1542    0.0747 C   0  0  0  0  0  0  0  0  0  0  0  0
   -3.2674    0.0497    0.8208 O   0  0  0  0  0  0  0  0  0  0  0  0
   -2.1638   -0.5116    0.0861 C   0  0  0  0  0  0  0  0  0  0  0  0
   -1.0523    0.5457    0.0691 C   0  0  0  0  0  0  0  0  0  0  0  0
    0.3207   -0.0902   -0.0910 C   0  0  0  0  0  0  0  0  0  0  0  0
    0.6051   -1.0484    0.9846 N   0  0  0  0  0  0  0  0  0  0  0  0
    1.8657   -1.2433    1.5504 C   0  0  0  0  0  0  0  0  0  0  0  0
    2.0402   -1.7940    2.6350 O   0  0  0  0  0  0  0  0  0  0  0  0
    3.0652   -0.7666    0.8377 C   0  0  0  0  0  0  0  0  0  0  0  0
    4.0209   -0.0494    1.5603 C   0  0  0  0  0  0  0  0  0  0  0  0
    5.1805    0.4564    1.0577 N   0  0  0  0  0  0  0  0  0  0  0  0
    5.3355    0.1596   -0.2494 C   0  0  0  0  0  0  0  0  0  0  0  0
    4.4769   -0.5645   -1.0666 C   0  0  0  0  0  0  0  0  0  0  0  0
    3.2941   -1.0642   -0.5115 C   0  0  0  0  0  0  0  0  0  0  0  0
    5.0039   -0.6419   -2.3279 N   0  0  0  0  0  0  0  0  0  0  0  0
    6.1625    0.0132   -2.3319 N   0  0  0  0  0  0  0  0  0  0  0  0
    6.3668    0.4848   -1.0833 N   0  0  0  0  0  0  0  0  0  0  0  0
    7.5571    1.2254   -0.7708 C   0  0  0  0  0  0  0  0  0  0  0  0
   -0.5450   -1.6035    1.6971 C   0  0  0  0  0  0  0  0  0  0  0  0
   -1.7301   -1.8164    0.7652 C   0  0  0  0  0  0  0  0  0  0  0  0
   -3.4349    2.9226   -0.3772 H   0  0  0  0  0  0  0  0  0  0  0  0
   -4.9602    3.5182    0.3130 H   0  0  0  0  0  0  0  0  0  0  0  0
   -3.8805    2.5501    1.3096 H   0  0  0  0  0  0  0  0  0  0  0  0
   -6.5704    2.4287   -1.1764 H   0  0  0  0  0  0  0  0  0  0  0  0
   -6.8165   -1.6702   -1.4316 H   0  0  0  0  0  0  0  0  0  0  0  0
   -4.7176   -1.9814   -0.1274 H   0  0  0  0  0  0  0  0  0  0  0  0
   -2.4444   -0.7381   -0.9533 H   0  0  0  0  0  0  0  0  0  0  0  0
   -1.2392    1.2590   -0.7449 H   0  0  0  0  0  0  0  0  0  0  0  0
   -1.0785    1.1361    0.9960 H   0  0  0  0  0  0  0  0  0  0  0  0
    1.0824    0.6944   -0.1034 H   0  0  0  0  0  0  0  0  0  0  0  0
    0.3735   -0.6374   -1.0397 H   0  0  0  0  0  0  0  0  0  0  0  0
    3.8668    0.1525    2.6204 H   0  0  0  0  0  0  0  0  0  0  0  0
    2.6087   -1.6593   -1.1019 H   0  0  0  0  0  0  0  0  0  0  0  0
    8.4238    0.6578   -1.1173 H   0  0  0  0  0  0  0  0  0  0  0  0
    7.5069    2.1911   -1.2799 H   0  0  0  0  0  0  0  0  0  0  0  0
    7.6268    1.3755    0.3092 H   0  0  0  0  0  0  0  0  0  0  0  0
   -0.8038   -0.9055    2.5022 H   0  0  0  0  0  0  0  0  0  0  0  0
   -0.2618   -2.5531    2.1642 H   0  0  0  0  0  0  0  0  0  0  0  0
   -1.4323   -2.5335   -0.0089 H   0  0  0  0  0  0  0  0  0  0  0  0
   -2.5601   -2.2641    1.3213 H   0  0  0  0  0  0  0  0  0  0  0  0
  1  2  1  0
  2  3  2  0
  3  4  1  0
  4  5  2  0
  5  6  1  0
  6  7  2  0
  7  8  1  0
  8  9  1  0
  9 10  1  0
 10 11  1  0
 11 12  1  0
 12 13  1  0
 13 14  2  0
 13 15  1  0
 15 16  2  0
 16 17  1  0
 17 18  2  0
 18 19  1  0
 19 20  2  0
 19 21  1  0
 21 22  2  0
 22 23  1  0
 23 24  1  0
 12 25  1  0
 25 26  1  0
  7  2  1  0
 26  9  1  0
 20 15  1  0
 23 18  1  0
  1 27  1  0
  1 28  1  0
  1 29  1  0
  3 30  1  0
  5 31  1  0
  6 32  1  0
  9 33  1  0
 10 34  1  0
 10 35  1  0
 11 36  1  0
 11 37  1  0
 16 38  1  0
 20 39  1  0
 24 40  1  0
 24 41  1  0
 24 42  1  0
 25 43  1  0
 25 44  1  0
 26 45  1  0
 26 46  1  0
M  END
$$$$
OCNT-2315065
     RDKit          3D

 48 50  0  0  0  0  0  0  0  0999 V2000
    0.6226   -1.4304    1.2377 O   0  0  0  0  0  0  0  0  0  0  0  0
    0.8840   -1.6819    0.0617 C   0  0  0  0  0  0  0  0  0  0  0  0
    2.2491   -2.1976   -0.3683 C   0  0  0  0  0  0  0  0  0  0  0  0
    3.3499   -1.8984    0.6513 C   0  0  0  0  0  0  0  0  0  0  0  0
    3.8167   -0.4581    0.6076 C   0  0  0  0  0  0  0  0  0  0  0  0
    3.2817    0.4548    1.5331 C   0  0  0  0  0  0  0  0  0  0  0  0
    3.6678    1.7964    1.5255 C   0  0  0  0  0  0  0  0  0  0  0  0
    4.5948    2.2496    0.5918 C   0  0  0  0  0  0  0  0  0  0  0  0
    5.1338    1.3602   -0.3366 C   0  0  0  0  0  0  0  0  0  0  0  0
    4.7476    0.0157   -0.3321 C   0  0  0  0  0  0  0  0  0  0  0  0
    5.4551   -1.0203   -1.5215 Cl  0  0  0  0  0  0  0  0  0  0  0  0
   -0.0576   -1.5441   -0.9389 N   0  0  0  0  0  0  0  0  0  0  0  0
    0.0467   -2.0817   -2.2875 C   0  0  0  0  0  0  0  0  0  0  0  0
   -1.3952   -2.2841   -2.7232 C   0  0  0  0  0  0  0  0  0  0  0  0
   -2.1178   -1.1395   -2.0295 C   0  0  0  0  0  0  0  0  0  0  0  0
   -1.4137   -1.0484   -0.6657 C   0  0  0  0  0  0  0  0  0  0  0  0
   -1.4502    0.3921   -0.0939 C   0  0  0  0  0  0  0  0  0  0  0  0
   -2.8139    0.9375    0.0562 N   0  0  0  0  0  0  0  0  0  0  0  0
   -2.7620    2.4102    0.1998 C   0  0  0  0  0  0  0  0  0  0  0  0
   -4.0347    2.9628    0.8572 C   0  0  0  0  0  0  0  0  0  0  0  0
   -4.2089    2.5007    2.2039 O   0  0  0  0  0  0  0  0  0  0  0  0
   -3.5917    1.2287    2.4444 C   0  0  0  0  0  0  0  0  0  0  0  0
   -3.5461    0.3346    1.1940 C   0  0  0  0  0  0  0  0  0  0  0  0
    2.5114   -1.7822   -1.3465 H   0  0  0  0  0  0  0  0  0  0  0  0
    2.1551   -3.2852   -0.4716 H   0  0  0  0  0  0  0  0  0  0  0  0
    4.2070   -2.5575    0.4670 H   0  0  0  0  0  0  0  0  0  0  0  0
    3.0195   -2.1495    1.6674 H   0  0  0  0  0  0  0  0  0  0  0  0
    2.5490    0.1224    2.2682 H   0  0  0  0  0  0  0  0  0  0  0  0
    3.2412    2.4856    2.2503 H   0  0  0  0  0  0  0  0  0  0  0  0
    4.8968    3.2936    0.5859 H   0  0  0  0  0  0  0  0  0  0  0  0
    5.8564    1.7214   -1.0640 H   0  0  0  0  0  0  0  0  0  0  0  0
    0.6187   -3.0128   -2.3130 H   0  0  0  0  0  0  0  0  0  0  0  0
    0.5480   -1.3299   -2.9065 H   0  0  0  0  0  0  0  0  0  0  0  0
   -1.5136   -2.2696   -3.8100 H   0  0  0  0  0  0  0  0  0  0  0  0
   -1.7725   -3.2427   -2.3471 H   0  0  0  0  0  0  0  0  0  0  0  0
   -3.1926   -1.3200   -1.9331 H   0  0  0  0  0  0  0  0  0  0  0  0
   -1.9767   -0.2186   -2.6091 H   0  0  0  0  0  0  0  0  0  0  0  0
   -1.8675   -1.7576    0.0369 H   0  0  0  0  0  0  0  0  0  0  0  0
   -0.8843    1.0291   -0.7885 H   0  0  0  0  0  0  0  0  0  0  0  0
   -0.9186    0.4482    0.8632 H   0  0  0  0  0  0  0  0  0  0  0  0
   -2.6355    2.8598   -0.7912 H   0  0  0  0  0  0  0  0  0  0  0  0
   -1.9022    2.7049    0.8164 H   0  0  0  0  0  0  0  0  0  0  0  0
   -4.9251    2.6844    0.2813 H   0  0  0  0  0  0  0  0  0  0  0  0
   -3.9976    4.0565    0.8894 H   0  0  0  0  0  0  0  0  0  0  0  0
   -2.5820    1.4050    2.8332 H   0  0  0  0  0  0  0  0  0  0  0  0
   -4.1625    0.7348    3.2374 H   0  0  0  0  0  0  0  0  0  0  0  0
   -3.1540   -0.6511    1.4646 H   0  0  0  0  0  0  0  0  0  0  0  0
   -4.5762    0.1724    0.8525 H   0  0  0  0  0  0  0  0  0  0  0  0
  1  2  2  0
  2  3  1  0
  3  4  1  0
  4  5  1  0
  5  6  2  0
  6  7  1  0
  7  8  2  0
  8  9  1  0
  9 10  2  0
 10 11  1  0
  2 12  1  0
 12 13  1  0
 13 14  1  0
 14 15  1  0
 15 16  1  0
 16 17  1  0
 17 18  1  0
 18 19  1  0
 19 20  1  0
 20 21  1  0
 21 22  1  0
 22 23  1  0
 10  5  1  0
 16 12  1  0
 23 18  1  0
  3 24  1  0
  3 25  1  0
  4 26  1  0
  4 27  1  0
  6 28  1  0
  7 29  1  0
  8 30  1  0
  9 31  1  0
 13 32  1  0
 13 33  1  0
 14 34  1  0
 14 35  1  0
 15 36  1  0
 15 37  1  0
 16 38  1  0
 17 39  1  0
 17 40  1  0
 19 41  1  0
 19 42  1  0
 20 43  1  0
 20 44  1  0
 22 45  1  0
 22 46  1  0
 23 47  1  0
 23 48  1  0
M  END
$$$$
OCNT-2315079
     RDKit          3D

 54 56  0  0  0  0  0  0  0  0999 V2000
   -4.4050   -2.4794    0.7555 C   0  0  0  0  0  0  0  0  0  0  0  0
   -4.1755   -1.7442   -0.5663 C   0  0  0  0  0  0  0  0  0  0  0  0
   -3.1568   -2.4904   -1.4482 C   0  0  0  0  0  0  0  0  0  0  0  0
   -1.8737   -1.6903   -1.6337 C   0  0  0  0  0  0  0  0  0  0  0  0
   -2.1650   -0.2778   -2.1526 C   0  0  0  0  0  0  0  0  0  0  0  0
   -3.3284    0.3599   -1.5310 N   0  0  0  0  0  0  0  0  0  0  0  0
   -3.2404    1.8275   -1.4506 C   0  0  0  0  0  0  0  0  0  0  0  0
   -2.5273    2.4554   -0.2189 C   0  0  0  0  0  0  0  0  0  0  0  0
   -2.5891    3.9830   -0.2989 C   0  0  0  0  0  0  0  0  0  0  0  0
   -1.1394    2.0184   -0.1023 N   0  0  0  0  0  0  0  0  0  0  0  0
   -0.4971    2.0007    1.1079 C   0  0  0  0  0  0  0  0  0  0  0  0
   -1.0143    2.2852    2.1780 O   0  0  0  0  0  0  0  0  0  0  0  0
    0.8080    1.6095    0.9609 N   0  0  0  0  0  0  0  0  0  0  0  0
    1.6117    1.3897    2.1399 C   0  0  0  0  0  0  0  0  0  0  0  0
    3.0353    1.0993    1.7550 C   0  0  0  0  0  0  0  0  0  0  0  0
    3.9640    2.1340    1.6194 C   0  0  0  0  0  0  0  0  0  0  0  0
    5.2538    1.8223    1.2221 C   0  0  0  0  0  0  0  0  0  0  0  0
    5.6737    0.5693    0.9453 N   0  0  0  0  0  0  0  0  0  0  0  0
    4.7610   -0.4335    1.0697 C   0  0  0  0  0  0  0  0  0  0  0  0
    5.1748   -1.7665    0.7689 N   0  0  0  0  0  0  0  0  0  0  0  0
    6.4360   -2.1582    0.3691 C   0  0  0  0  0  0  0  0  0  0  0  0
    6.4013   -3.5202    0.1940 C   0  0  0  0  0  0  0  0  0  0  0  0
    5.0811   -3.8797    0.5032 C   0  0  0  0  0  0  0  0  0  0  0  0
    4.3263   -2.8325    0.8431 N   0  0  0  0  0  0  0  0  0  0  0  0
    3.4435   -0.2087    1.4678 C   0  0  0  0  0  0  0  0  0  0  0  0
   -3.7647   -0.2839   -0.2941 C   0  0  0  0  0  0  0  0  0  0  0  0
   -3.4812   -2.5400    1.3405 H   0  0  0  0  0  0  0  0  0  0  0  0
   -4.7605   -3.4996    0.5766 H   0  0  0  0  0  0  0  0  0  0  0  0
   -5.1575   -1.9642    1.3618 H   0  0  0  0  0  0  0  0  0  0  0  0
   -5.1342   -1.7386   -1.1032 H   0  0  0  0  0  0  0  0  0  0  0  0
   -2.9228   -3.4822   -1.0436 H   0  0  0  0  0  0  0  0  0  0  0  0
   -3.6065   -2.6628   -2.4349 H   0  0  0  0  0  0  0  0  0  0  0  0
   -1.2080   -2.2098   -2.3326 H   0  0  0  0  0  0  0  0  0  0  0  0
   -1.3412   -1.6302   -0.6761 H   0  0  0  0  0  0  0  0  0  0  0  0
   -2.3577   -0.3324   -3.2316 H   0  0  0  0  0  0  0  0  0  0  0  0
   -1.2506    0.3127   -2.0394 H   0  0  0  0  0  0  0  0  0  0  0  0
   -4.2712    2.2082   -1.4662 H   0  0  0  0  0  0  0  0  0  0  0  0
   -2.7831    2.2090   -2.3746 H   0  0  0  0  0  0  0  0  0  0  0  0
   -3.0564    2.1548    0.6936 H   0  0  0  0  0  0  0  0  0  0  0  0
   -3.6260    4.3295   -0.3557 H   0  0  0  0  0  0  0  0  0  0  0  0
   -2.0545    4.3544   -1.1803 H   0  0  0  0  0  0  0  0  0  0  0  0
   -2.1295    4.4425    0.5828 H   0  0  0  0  0  0  0  0  0  0  0  0
   -0.5410    2.1963   -0.8947 H   0  0  0  0  0  0  0  0  0  0  0  0
    0.9555    0.9657    0.1976 H   0  0  0  0  0  0  0  0  0  0  0  0
    1.5545    2.2720    2.7888 H   0  0  0  0  0  0  0  0  0  0  0  0
    1.1835    0.5514    2.7030 H   0  0  0  0  0  0  0  0  0  0  0  0
    3.6884    3.1663    1.8133 H   0  0  0  0  0  0  0  0  0  0  0  0
    6.0049    2.5995    1.1069 H   0  0  0  0  0  0  0  0  0  0  0  0
    7.2281   -1.4310    0.2548 H   0  0  0  0  0  0  0  0  0  0  0  0
    7.2164   -4.1610   -0.1107 H   0  0  0  0  0  0  0  0  0  0  0  0
    4.6339   -4.8656    0.4952 H   0  0  0  0  0  0  0  0  0  0  0  0
    2.7391   -1.0328    1.5528 H   0  0  0  0  0  0  0  0  0  0  0  0
   -2.9795   -0.2434    0.4720 H   0  0  0  0  0  0  0  0  0  0  0  0
   -4.6372    0.2422    0.1155 H   0  0  0  0  0  0  0  0  0  0  0  0
  1  2  1  0
  2  3  1  0
  3  4  1  0
  4  5  1  0
  5  6  1  0
  6  7  1  0
  7  8  1  0
  8  9  1  0
  8 10  1  0
 10 11  1  0
 11 12  2  0
 11 13  1  0
 13 14  1  0
 14 15  1  0
 15 16  2  0
 16 17  1  0
 17 18  2  0
 18 19  1  0
 19 20  1  0
 20 21  1  0
 21 22  2  0
 22 23  1  0
 23 24  2  0
 19 25  2  0
  6 26  1  0
 26  2  1  0
 25 15  1  0
 24 20  1  0
  1 27  1  0
  1 28  1  0
  1 29  1  0
  2 30  1  0
  3 31  1  0
  3 32  1  0
  4 33  1  0
  4 34  1  0
  5 35  1  0
  5 36  1  0
  7 37  1  0
  7 38  1  0
  8 39  1  0
  9 40  1  0
  9 41  1  0
  9 42  1  0
 10 43  1  0
 13 44  1  0
 14 45  1  0
 14 46  1  0
 16 47  1  0
 17 48  1  0
 21 49  1  0
 22 50  1  0
 23 51  1  0
 25 52  1  0
 26 53  1  0
 26 54  1  0
M  END
$$$$
OCNT-2315085
     RDKit          3D

 44 46  0  0  0  0  0  0  0  0999 V2000
   -3.2755   -2.3640    0.1019 C   0  0  0  0  0  0  0  0  0  0  0  0
   -2.1840   -1.4603    0.4617 N   0  0  0  0  0  0  0  0  0  0  0  0
   -0.9071   -2.1565    0.1790 C   0  0  0  0  0  0  0  0  0  0  0  0
    0.3185   -1.3585    0.6281 C   0  0  0  0  0  0  0  0  0  0  0  0
    0.3392   -0.0255    0.0352 N   0  0  0  0  0  0  0  0  0  0  0  0
    1.5098    0.7664   -0.0140 C   0  0  0  0  0  0  0  0  0  0  0  0
    1.4123    1.9981    0.0119 O   0  0  0  0  0  0  0  0  0  0  0  0
    2.8159    0.1302   -0.1196 C   0  0  0  0  0  0  0  0  0  0  0  0
    3.1073   -1.1061   -0.4694 N   0  0  0  0  0  0  0  0  0  0  0  0
    4.4830   -1.2073   -0.4526 N   0  0  0  0  0  0  0  0  0  0  0  0
    4.9519   -0.0201   -0.1171 C   0  0  0  0  0  0  0  0  0  0  0  0
    6.4748    0.3322    0.0154 C   0  0  0  0  0  0  0  0  0  0  0  0
    6.9050    1.5964    0.3670 C   0  0  0  0  0  0  0  0  0  0  0  0
    8.6197    1.6338    0.4191 S   0  0  0  0  0  0  0  0  0  0  0  0
    8.6488   -0.0225   -0.0271 C   0  0  0  0  0  0  0  0  0  0  0  0
    7.4799   -0.5951   -0.2092 N   0  0  0  0  0  0  0  0  0  0  0  0
    3.9420    0.8838    0.1073 O   0  0  0  0  0  0  0  0  0  0  0  0
   -0.9308    0.6954    0.1560 C   0  0  0  0  0  0  0  0  0  0  0  0
   -2.2104   -0.1303   -0.2352 C   0  0  0  0  0  0  0  0  0  0  0  0
   -3.5257    0.7583   -0.0443 C   0  0  0  0  0  0  0  0  0  0  0  0
   -3.9359    0.8559    1.4381 C   0  0  0  0  0  0  0  0  0  0  0  0
   -3.3034    2.2060   -0.5583 C   0  0  0  0  0  0  0  0  0  0  0  0
   -4.7202    0.2209   -0.8684 C   0  0  0  0  0  0  0  0  0  0  0  0
   -4.2002   -2.0770    0.6048 H   0  0  0  0  0  0  0  0  0  0  0  0
   -3.4338   -2.4197   -0.9803 H   0  0  0  0  0  0  0  0  0  0  0  0
   -3.0819   -3.3827    0.4608 H   0  0  0  0  0  0  0  0  0  0  0  0
   -0.8263   -2.3744   -0.8946 H   0  0  0  0  0  0  0  0  0  0  0  0
   -0.8820   -3.1161    0.7105 H   0  0  0  0  0  0  0  0  0  0  0  0
    1.2088   -1.9332    0.3819 H   0  0  0  0  0  0  0  0  0  0  0  0
    0.3147   -1.2292    1.7178 H   0  0  0  0  0  0  0  0  0  0  0  0
    6.3147    2.4745    0.5881 H   0  0  0  0  0  0  0  0  0  0  0  0
    9.5807   -0.5596   -0.1498 H   0  0  0  0  0  0  0  0  0  0  0  0
   -0.9995    1.0473    1.1925 H   0  0  0  0  0  0  0  0  0  0  0  0
   -0.8565    1.5722   -0.4945 H   0  0  0  0  0  0  0  0  0  0  0  0
   -2.1187   -0.3290   -1.3140 H   0  0  0  0  0  0  0  0  0  0  0  0
   -4.1858   -0.1217    1.8605 H   0  0  0  0  0  0  0  0  0  0  0  0
   -3.1373    1.2887    2.0490 H   0  0  0  0  0  0  0  0  0  0  0  0
   -4.8202    1.4930    1.5582 H   0  0  0  0  0  0  0  0  0  0  0  0
   -4.2370    2.7816   -0.5478 H   0  0  0  0  0  0  0  0  0  0  0  0
   -2.9295    2.2047   -1.5882 H   0  0  0  0  0  0  0  0  0  0  0  0
   -2.5999    2.7629    0.0696 H   0  0  0  0  0  0  0  0  0  0  0  0
   -5.1875   -0.6619   -0.4328 H   0  0  0  0  0  0  0  0  0  0  0  0
   -5.5222    0.9666   -0.9345 H   0  0  0  0  0  0  0  0  0  0  0  0
   -4.4154   -0.0182   -1.8930 H   0  0  0  0  0  0  0  0  0  0  0  0
  1  2  1  0
  2  3  1  0
  3  4  1  0
  4  5  1  0
  5  6  1  0
  6  7  2  0
  6  8  1  0
  8  9  2  0
  9 10  1  0
 10 11  2  0
 11 12  1  0
 12 13  2  0
 13 14  1  0
 14 15  1  0
 15 16  2  0
 11 17  1  0
  5 18  1  0
 18 19  1  0
 19 20  1  0
 20 21  1  0
 20 22  1  0
 20 23  1  0
 19  2  1  0
 17  8  1  0
 16 12  1  0
  1 24  1  0
  1 25  1  0
  1 26  1  0
  3 27  1  0
  3 28  1  0
  4 29  1  0
  4 30  1  0
 13 31  1  0
 15 32  1  0
 18 33  1  0
 18 34  1  0
 19 35  1  0
 21 36  1  0
 21 37  1  0
 21 38  1  0
 22 39  1  0
 22 40  1  0
 22 41  1  0
 23 42  1  0
 23 43  1  0
 23 44  1  0
M  END
$$$$
OCNT-2315097
     RDKit          3D

 44 47  0  0  0  0  0  0  0  0999 V2000
   -3.9816    2.2087    0.5880 C   0  0  0  0  0  0  0  0  0  0  0  0
   -4.5370    0.9030    0.3292 N   0  0  0  0  0  0  0  0  0  0  0  0
   -5.6947    0.4129    0.8672 C   0  0  0  0  0  0  0  0  0  0  0  0
   -5.8138   -0.8580    0.3610 C   0  0  0  0  0  0  0  0  0  0  0  0
   -4.7645   -1.1505   -0.4685 N   0  0  0  0  0  0  0  0  0  0  0  0
   -3.9985   -0.0733   -0.4780 C   0  0  0  0  0  0  0  0  0  0  0  0
   -2.7213    0.0866   -1.2540 C   0  0  0  0  0  0  0  0  0  0  0  0
   -1.5431    0.3236   -0.3960 N   0  0  0  0  0  0  0  0  0  0  0  0
   -0.3620    0.6874   -1.1897 C   0  0  0  0  0  0  0  0  0  0  0  0
    0.5454   -0.4833   -1.5623 C   0  0  0  0  0  0  0  0  0  0  0  0
    0.9818   -1.3074   -0.3381 C   0  0  0  0  0  0  0  0  0  0  0  0
    2.4707   -1.2702   -0.0917 C   0  0  0  0  0  0  0  0  0  0  0  0
    3.3184   -2.3514   -0.2595 C   0  0  0  0  0  0  0  0  0  0  0  0
    4.5929   -1.9600    0.0384 N   0  0  0  0  0  0  0  0  0  0  0  0
    4.6104   -0.6352    0.4002 C   0  0  0  0  0  0  0  0  0  0  0  0
    5.6887    0.1749    0.7788 C   0  0  0  0  0  0  0  0  0  0  0  0
    5.4197    1.5061    1.1033 C   0  0  0  0  0  0  0  0  0  0  0  0
    4.1218    2.0035    1.0519 C   0  0  0  0  0  0  0  0  0  0  0  0
    3.0563    1.1785    0.6707 C   0  0  0  0  0  0  0  0  0  0  0  0
    3.2944   -0.1711    0.3336 C   0  0  0  0  0  0  0  0  0  0  0  0
    0.1531   -0.9770    0.9094 C   0  0  0  0  0  0  0  0  0  0  0  0
   -1.3142   -0.8120    0.5175 C   0  0  0  0  0  0  0  0  0  0  0  0
   -4.7455    2.8407    1.0490 H   0  0  0  0  0  0  0  0  0  0  0  0
   -3.1353    2.0963    1.2697 H   0  0  0  0  0  0  0  0  0  0  0  0
   -3.6659    2.6582   -0.3564 H   0  0  0  0  0  0  0  0  0  0  0  0
   -6.3139    0.9831    1.5448 H   0  0  0  0  0  0  0  0  0  0  0  0
   -6.5988   -1.5782    0.5504 H   0  0  0  0  0  0  0  0  0  0  0  0
   -2.8630    0.9360   -1.9347 H   0  0  0  0  0  0  0  0  0  0  0  0
   -2.5672   -0.7976   -1.8860 H   0  0  0  0  0  0  0  0  0  0  0  0
    0.2143    1.4118   -0.6044 H   0  0  0  0  0  0  0  0  0  0  0  0
   -0.6467    1.2333   -2.0980 H   0  0  0  0  0  0  0  0  0  0  0  0
    1.4095   -0.1107   -2.1260 H   0  0  0  0  0  0  0  0  0  0  0  0
   -0.0018   -1.1398   -2.2524 H   0  0  0  0  0  0  0  0  0  0  0  0
    0.7456   -2.3535   -0.5903 H   0  0  0  0  0  0  0  0  0  0  0  0
    3.1162   -3.3682   -0.5694 H   0  0  0  0  0  0  0  0  0  0  0  0
    5.4097   -2.5533   -0.0011 H   0  0  0  0  0  0  0  0  0  0  0  0
    6.7012   -0.2128    0.8215 H   0  0  0  0  0  0  0  0  0  0  0  0
    6.2354    2.1601    1.4022 H   0  0  0  0  0  0  0  0  0  0  0  0
    3.9296    3.0413    1.3120 H   0  0  0  0  0  0  0  0  0  0  0  0
    2.0530    1.5879    0.6471 H   0  0  0  0  0  0  0  0  0  0  0  0
    0.2524   -1.7860    1.6441 H   0  0  0  0  0  0  0  0  0  0  0  0
    0.5058   -0.0677    1.4093 H   0  0  0  0  0  0  0  0  0  0  0  0
   -1.9083   -0.6599    1.4261 H   0  0  0  0  0  0  0  0  0  0  0  0
   -1.6492   -1.7569    0.0680 H   0  0  0  0  0  0  0  0  0  0  0  0
  1  2  1  0
  2  3  1  0
  3  4  2  0
  4  5  1  0
  5  6  2  0
  6  7  1  0
  7  8  1  0
  8  9  1  0
  9 10  1  0
 10 11  1  0
 11 12  1  0
 12 13  2  0
 13 14  1  0
 14 15  1  0
 15 16  2  0
 16 17  1  0
 17 18  2  0
 18 19  1  0
 19 20  2  0
 11 21  1  0
 21 22  1  0
  6  2  1  0
 22  8  1  0
 20 12  1  0
 20 15  1  0
  1 23  1  0
  1 24  1  0
  1 25  1  0
  3 26  1  0
  4 27  1  0
  7 28  1  0
  7 29  1  0
  9 30  1  0
  9 31  1  0
 10 32  1  0
 10 33  1  0
 11 34  1  0
 13 35  1  0
 14 36  1  0
 16 37  1  0
 17 38  1  0
 18 39  1  0
 19 40  1  0
 21 41  1  0
 21 42  1  0
 22 43  1  0
 22 44  1  0
M  END
$$$$
OCNT-2315100
     RDKit          3D

 47 50  0  0  0  0  0  0  0  0999 V2000
    5.0403    0.9375   -2.0527 C   0  0  0  0  0  0  0  0  0  0  0  0
    3.9943    1.3134   -1.0574 C   0  0  0  0  0  0  0  0  0  0  0  0
    2.7951    0.7409   -0.7905 C   0  0  0  0  0  0  0  0  0  0  0  0
    2.1933   -0.4681   -1.4469 C   0  0  0  0  0  0  0  0  0  0  0  0
    2.7788   -1.0416   -2.3585 O   0  0  0  0  0  0  0  0  0  0  0  0
    0.9742   -0.8350   -0.9330 N   0  0  0  0  0  0  0  0  0  0  0  0
    0.1522   -1.9255   -1.2914 C   0  0  0  0  0  0  0  0  0  0  0  0
    0.4778   -2.8730   -2.2569 C   0  0  0  0  0  0  0  0  0  0  0  0
   -0.4016   -3.9233   -2.5017 C   0  0  0  0  0  0  0  0  0  0  0  0
   -1.5745   -3.9857   -1.7697 C   0  0  0  0  0  0  0  0  0  0  0  0
   -1.9278   -3.0831   -0.8292 N   0  0  0  0  0  0  0  0  0  0  0  0
   -1.0731   -2.0623   -0.5949 C   0  0  0  0  0  0  0  0  0  0  0  0
   -1.4145   -1.0509    0.3506 N   0  0  0  0  0  0  0  0  0  0  0  0
   -2.0321   -1.6330    1.5560 C   0  0  0  0  0  0  0  0  0  0  0  0
   -2.6525   -0.5161    2.3903 C   0  0  0  0  0  0  0  0  0  0  0  0
   -3.8209    0.1447    1.6318 C   0  0  0  0  0  0  0  0  0  0  0  0
   -3.9976    1.6046    2.0626 C   0  0  0  0  0  0  0  0  0  0  0  0
   -4.2311    1.6876    3.4620 O   0  0  0  0  0  0  0  0  0  0  0  0
   -3.6524    0.0214    0.1068 C   0  0  0  0  0  0  0  0  0  0  0  0
   -2.1830    0.0246   -0.3112 C   0  0  0  0  0  0  0  0  0  0  0  0
    1.8968    1.5723    0.5121 S   0  0  0  0  0  0  0  0  0  0  0  0
    3.2062    2.6898    0.6557 C   0  0  0  0  0  0  0  0  0  0  0  0
    3.4477    3.7225    1.4137 N   0  0  0  0  0  0  0  0  0  0  0  0
    4.6923    4.1401    0.9873 C   0  0  0  0  0  0  0  0  0  0  0  0
    5.1784    3.3392   -0.0329 C   0  0  0  0  0  0  0  0  0  0  0  0
    4.2009    2.4067   -0.2293 N   0  0  0  0  0  0  0  0  0  0  0  0
    5.9616    0.6429   -1.5384 H   0  0  0  0  0  0  0  0  0  0  0  0
    4.7527    0.1111   -2.7029 H   0  0  0  0  0  0  0  0  0  0  0  0
    5.2706    1.7876   -2.7044 H   0  0  0  0  0  0  0  0  0  0  0  0
    0.5844   -0.2871   -0.1665 H   0  0  0  0  0  0  0  0  0  0  0  0
    1.4013   -2.8237   -2.8225 H   0  0  0  0  0  0  0  0  0  0  0  0
   -0.1723   -4.6768   -3.2468 H   0  0  0  0  0  0  0  0  0  0  0  0
   -2.2873   -4.7907   -1.9269 H   0  0  0  0  0  0  0  0  0  0  0  0
   -1.2557   -2.1359    2.1457 H   0  0  0  0  0  0  0  0  0  0  0  0
   -2.8090   -2.3742    1.3279 H   0  0  0  0  0  0  0  0  0  0  0  0
   -1.8790    0.2256    2.6301 H   0  0  0  0  0  0  0  0  0  0  0  0
   -3.0135   -0.9166    3.3451 H   0  0  0  0  0  0  0  0  0  0  0  0
   -4.7394   -0.3925    1.9074 H   0  0  0  0  0  0  0  0  0  0  0  0
   -4.8481    2.0659    1.5491 H   0  0  0  0  0  0  0  0  0  0  0  0
   -3.1058    2.1975    1.8325 H   0  0  0  0  0  0  0  0  0  0  0  0
   -5.0510    1.1997    3.6530 H   0  0  0  0  0  0  0  0  0  0  0  0
   -4.1920    0.8231   -0.4116 H   0  0  0  0  0  0  0  0  0  0  0  0
   -4.1119   -0.9197   -0.2244 H   0  0  0  0  0  0  0  0  0  0  0  0
   -1.7291    0.9813   -0.0239 H   0  0  0  0  0  0  0  0  0  0  0  0
   -2.1157   -0.0244   -1.4063 H   0  0  0  0  0  0  0  0  0  0  0  0
    5.1750    4.9986    1.4384 H   0  0  0  0  0  0  0  0  0  0  0  0
    6.0967    3.3607   -0.6014 H   0  0  0  0  0  0  0  0  0  0  0  0
  1  2  1  0
  2  3  2  0
  3  4  1  0
  4  5  2  0
  4  6  1  0
  6  7  1  0
  7  8  1  0
  8  9  2  0
  9 10  1  0
 10 11  2  0
 11 12  1  0
 12 13  1  0
 13 14  1  0
 14 15  1  0
 15 16  1  0
 16 17  1  0
 17 18  1  0
 16 19  1  0
 19 20  1  0
  3 21  1  0
 21 22  1  0
 22 23  2  0
 23 24  1  0
 24 25  2  0
 25 26  1  0
 26  2  1  0
 12  7  2  0
 20 13  1  0
 26 22  1  0
  1 27  1  0
  1 28  1  0
  1 29  1  0
  6 30  1  0
  8 31  1  0
  9 32  1  0
 10 33  1  0
 14 34  1  0
 14 35  1  0
 15 36  1  0
 15 37  1  0
 16 38  1  0
 17 39  1  0
 17 40  1  0
 18 41  1  0
 19 42  1  0
 19 43  1  0
 20 44  1  0
 20 45  1  0
 24 46  1  0
 25 47  1  0
M  END
$$$$
OCNT-2315105
     RDKit          3D

  0  0  0  0  0  0  0  0  0  0999 V3000
M  V30 BEGIN CTAB
M  V30 COUNTS 41 44 0 0 0
M  V30 BEGIN ATOM
M  V30 1 O 0.259462 2.058658 1.679366 0
M  V30 2 C 0.381506 1.433319 0.630016 0
M  V30 3 N -0.619892 1.347468 -0.297168 0
M  V30 4 C -1.896438 1.999815 -0.113954 0
M  V30 5 C -2.952360 0.979169 0.213732 0 CFG=2
M  V30 6 C -2.954612 0.425518 1.612263 0
M  V30 7 N -2.883468 -1.036916 1.426563 0
M  V30 8 C -3.489953 -1.374962 0.126755 0
M  V30 9 C -3.310732 -0.152601 -0.715381 0 CFG=2
M  V30 10 C -2.665860 -0.388725 -2.035760 0
M  V30 11 F -2.515586 0.757302 -2.742814 0
M  V30 12 F -3.408171 -1.234883 -2.785735 0
M  V30 13 F -1.433587 -0.934234 -1.896077 0
M  V30 14 C -4.267627 1.014622 -0.542248 0
M  V30 15 N 1.520554 0.743767 0.316038 0
M  V30 16 C 2.647302 0.740793 1.246192 0
M  V30 17 C 3.630004 -0.188119 0.608513 0
M  V30 18 C 4.894355 -0.544099 1.045621 0
M  V30 19 C 5.629967 -1.445663 0.273003 0
M  V30 20 C 5.096384 -1.975090 -0.913551 0
M  V30 21 C 3.819083 -1.610843 -1.345951 0
M  V30 22 C 3.098406 -0.715499 -0.574162 0
M  V30 23 C 1.727186 -0.170695 -0.807863 0
M  V30 24 H -0.351801 1.123025 -1.241995 0
M  V30 25 H -1.842140 2.756162 0.676286 0
M  V30 26 H -2.122203 2.526181 -1.047504 0
M  V30 27 H -3.879062 0.690198 2.137328 0
M  V30 28 H -2.113429 0.768998 2.221119 0
M  V30 29 H -1.891028 -1.276250 1.382376 0
M  V30 30 H -3.002698 -2.262833 -0.289627 0
M  V30 31 H -4.552496 -1.606450 0.260008 0
M  V30 32 H -5.188595 0.851570 0.008626 0
M  V30 33 H -4.380962 1.718297 -1.360731 0
M  V30 34 H 3.040506 1.758115 1.335295 0
M  V30 35 H 2.313557 0.369469 2.220354 0
M  V30 36 H 5.307052 -0.137393 1.963372 0
M  V30 37 H 6.626083 -1.742702 0.592916 0
M  V30 38 H 5.685436 -2.676608 -1.499819 0
M  V30 39 H 3.408964 -2.022744 -2.262345 0
M  V30 40 H 1.670003 0.391541 -1.744509 0
M  V30 41 H 0.966888 -0.956677 -0.776795 0
M  V30 END ATOM
M  V30 BEGIN BOND
M  V30 1 2 1 2
M  V30 2 1 2 3
M  V30 3 1 3 4
M  V30 4 1 5 4 CFG=3
M  V30 5 1 5 6
M  V30 6 1 6 7
M  V30 7 1 7 8
M  V30 8 1 8 9
M  V30 9 1 9 10 CFG=3
M  V30 10 1 10 11
M  V30 11 1 10 12
M  V30 12 1 10 13
M  V30 13 1 9 14
M  V30 14 1 2 15
M  V30 15 1 15 16
M  V30 16 1 16 17
M  V30 17 2 17 18
M  V30 18 1 18 19
M  V30 19 2 19 20
M  V30 20 1 20 21
M  V30 21 2 21 22
M  V30 22 1 22 23
M  V30 23 1 9 5
M  V30 24 1 23 15
M  V30 25 1 14 5
M  V30 26 1 22 17
M  V30 27 1 3 24
M  V30 28 1 4 25
M  V30 29 1 4 26
M  V30 30 1 6 27
M  V30 31 1 6 28
M  V30 32 1 7 29
M  V30 33 1 8 30
M  V30 34 1 8 31
M  V30 35 1 14 32
M  V30 36 1 14 33
M  V30 37 1 16 34
M  V30 38 1 16 35
M  V30 39 1 18 36
M  V30 40 1 19 37
M  V30 41 1 20 38
M  V30 42 1 21 39
M  V30 43 1 23 40
M  V30 44 1 23 41
M  V30 END BOND
M  V30 BEGIN COLLECTION
M  V30 MDLV30/STERAC1 ATOMS=(2 5 9)
M  V30 END COLLECTION
M  V30 END CTAB
M  END
>  <_CXSMILES_Data>  (935) 
|&1:4,8|

$$$$
OCNT-2315122
     RDKit          3D

 46 48  0  0  0  0  0  0  0  0999 V2000
    3.0446    2.7975    0.8295 C   0  0  0  0  0  0  0  0  0  0  0  0
    2.7940    1.4413    0.4230 N   0  0  0  0  0  0  0  0  0  0  0  0
    3.4161    0.8829   -0.6686 C   0  0  0  0  0  0  0  0  0  0  0  0
    4.2940    1.4612   -1.3026 O   0  0  0  0  0  0  0  0  0  0  0  0
    3.0030   -0.4978   -1.0530 C   0  0  0  0  0  0  0  0  0  0  0  0
    3.8965   -1.2232   -1.8566 C   0  0  0  0  0  0  0  0  0  0  0  0
    3.6039   -2.5310   -2.2205 C   0  0  0  0  0  0  0  0  0  0  0  0
    2.4207   -3.0758   -1.7664 C   0  0  0  0  0  0  0  0  0  0  0  0
    1.5305   -2.4075   -1.0005 N   0  0  0  0  0  0  0  0  0  0  0  0
    1.8090   -1.1237   -0.6486 C   0  0  0  0  0  0  0  0  0  0  0  0
    0.8162   -0.4128    0.0983 N   0  0  0  0  0  0  0  0  0  0  0  0
    0.2453   -1.2752    1.1539 C   0  0  0  0  0  0  0  0  0  0  0  0
   -1.0419   -1.9969    0.7579 C   0  0  0  0  0  0  0  0  0  0  0  0
   -2.2783   -1.1414    0.9414 C   0  0  0  0  0  0  0  0  0  0  0  0
   -3.3709   -1.7656    1.5876 C   0  0  0  0  0  0  0  0  0  0  0  0
   -4.5429   -1.0747    1.8770 C   0  0  0  0  0  0  0  0  0  0  0  0
   -4.6458    0.2596    1.5283 C   0  0  0  0  0  0  0  0  0  0  0  0
   -3.5873    0.8851    0.8677 C   0  0  0  0  0  0  0  0  0  0  0  0
   -2.3913    0.2043    0.5250 C   0  0  0  0  0  0  0  0  0  0  0  0
   -1.3116    0.9850   -0.2628 C   0  0  0  0  0  0  0  0  0  0  0  0
   -0.7246    2.0963    0.6348 C   0  0  0  0  0  0  0  0  0  0  0  0
   -1.9815    1.6730   -1.4914 C   0  0  0  0  0  0  0  0  0  0  0  0
   -0.1566    0.1352   -0.8802 C   0  0  0  0  0  0  0  0  0  0  0  0
    2.6552    2.9358    1.8406 H   0  0  0  0  0  0  0  0  0  0  0  0
    4.1177    3.0058    0.8087 H   0  0  0  0  0  0  0  0  0  0  0  0
    2.5322    3.4718    0.1384 H   0  0  0  0  0  0  0  0  0  0  0  0
    1.9628    0.9593    0.7656 H   0  0  0  0  0  0  0  0  0  0  0  0
    4.8276   -0.7685   -2.1889 H   0  0  0  0  0  0  0  0  0  0  0  0
    4.2852   -3.1074   -2.8362 H   0  0  0  0  0  0  0  0  0  0  0  0
    2.1418   -4.0960   -2.0158 H   0  0  0  0  0  0  0  0  0  0  0  0
    0.9889   -2.0107    1.4926 H   0  0  0  0  0  0  0  0  0  0  0  0
    0.0644   -0.6470    2.0357 H   0  0  0  0  0  0  0  0  0  0  0  0
   -1.1201   -2.8716    1.4176 H   0  0  0  0  0  0  0  0  0  0  0  0
   -1.0230   -2.3965   -0.2612 H   0  0  0  0  0  0  0  0  0  0  0  0
   -3.3053   -2.8106    1.8873 H   0  0  0  0  0  0  0  0  0  0  0  0
   -5.3631   -1.5755    2.3832 H   0  0  0  0  0  0  0  0  0  0  0  0
   -5.5479    0.8183    1.7618 H   0  0  0  0  0  0  0  0  0  0  0  0
   -3.7177    1.9366    0.6202 H   0  0  0  0  0  0  0  0  0  0  0  0
   -0.2746    1.6896    1.5464 H   0  0  0  0  0  0  0  0  0  0  0  0
    0.0436    2.6660    0.1013 H   0  0  0  0  0  0  0  0  0  0  0  0
   -1.4901    2.8138    0.9514 H   0  0  0  0  0  0  0  0  0  0  0  0
   -1.2393    2.1889   -2.1131 H   0  0  0  0  0  0  0  0  0  0  0  0
   -2.4917    0.9365   -2.1238 H   0  0  0  0  0  0  0  0  0  0  0  0
   -2.7164    2.4330   -1.2076 H   0  0  0  0  0  0  0  0  0  0  0  0
   -0.5796   -0.6561   -1.5157 H   0  0  0  0  0  0  0  0  0  0  0  0
    0.4084    0.7886   -1.5619 H   0  0  0  0  0  0  0  0  0  0  0  0
  1  2  1  0
  2  3  1  0
  3  4  2  0
  3  5  1  0
  5  6  1  0
  6  7  2  0
  7  8  1  0
  8  9  2  0
  9 10  1  0
 10 11  1  0
 11 12  1  0
 12 13  1  0
 13 14  1  0
 14 15  2  0
 15 16  1  0
 16 17  2  0
 17 18  1  0
 18 19  2  0
 19 20  1  0
 20 21  1  0
 20 22  1  0
 20 23  1  0
 10  5  2  0
 23 11  1  0
 19 14  1  0
  1 24  1  0
  1 25  1  0
  1 26  1  0
  2 27  1  0
  6 28  1  0
  7 29  1  0
  8 30  1  0
 12 31  1  0
 12 32  1  0
 13 33  1  0
 13 34  1  0
 15 35  1  0
 16 36  1  0
 17 37  1  0
 18 38  1  0
 21 39  1  0
 21 40  1  0
 21 41  1  0
 22 42  1  0
 22 43  1  0
 22 44  1  0
 23 45  1  0
 23 46  1  0
M  END
$$$$
OCNT-2315124
     RDKit          3D

 35 36  0  0  0  0  0  0  0  0999 V2000
    5.3937   -1.7430   -1.4879 C   0  0  0  0  0  0  0  0  0  0  0  0
    4.6638   -0.7410   -0.7838 O   0  0  0  0  0  0  0  0  0  0  0  0
    3.4271   -1.1399   -0.3601 C   0  0  0  0  0  0  0  0  0  0  0  0
    2.9582   -2.2566   -0.5629 O   0  0  0  0  0  0  0  0  0  0  0  0
    2.6940   -0.0923    0.3682 C   0  0  0  0  0  0  0  0  0  0  0  0
    3.1690    1.1527    0.5718 N   0  0  0  0  0  0  0  0  0  0  0  0
    2.2015    1.7686    1.2731 N   0  0  0  0  0  0  0  0  0  0  0  0
    1.1043    0.9944    1.5066 C   0  0  0  0  0  0  0  0  0  0  0  0
   -0.2659    1.6602    2.3675 S   0  0  0  0  0  0  0  0  0  0  0  0
   -0.2564    0.9688    3.6329 O   0  0  0  0  0  0  0  0  0  0  0  0
   -0.0943    3.0902    2.2503 O   0  0  0  0  0  0  0  0  0  0  0  0
   -1.6381    1.1916    1.5218 N   0  0  0  0  0  0  0  0  0  0  0  0
   -1.8452    1.8121    0.1912 C   0  0  0  0  0  0  0  0  0  0  0  0
   -2.9389    1.0820   -0.6132 C   0  0  0  0  0  0  0  0  0  0  0  0
   -4.2831    1.0685    0.1168 C   0  0  0  0  0  0  0  0  0  0  0  0
   -2.5012   -0.3243   -0.9496 C   0  0  0  0  0  0  0  0  0  0  0  0
   -1.9093   -1.1395   -0.0959 N   0  0  0  0  0  0  0  0  0  0  0  0
   -1.6398   -2.3448   -0.7169 C   0  0  0  0  0  0  0  0  0  0  0  0
   -2.0200   -2.4319   -2.0377 C   0  0  0  0  0  0  0  0  0  0  0  0
   -2.7480   -0.9620   -2.5289 S   0  0  0  0  0  0  0  0  0  0  0  0
    1.4022   -0.2284    0.9437 C   0  0  0  0  0  0  0  0  0  0  0  0
    6.3612   -1.3206   -1.7734 H   0  0  0  0  0  0  0  0  0  0  0  0
    5.5719   -2.6113   -0.8459 H   0  0  0  0  0  0  0  0  0  0  0  0
    4.8625   -2.0363   -2.3988 H   0  0  0  0  0  0  0  0  0  0  0  0
    2.3329    2.7378    1.5523 H   0  0  0  0  0  0  0  0  0  0  0  0
   -1.6932    0.1633    1.4831 H   0  0  0  0  0  0  0  0  0  0  0  0
   -2.1326    2.8597    0.3358 H   0  0  0  0  0  0  0  0  0  0  0  0
   -0.9096    1.7890   -0.3797 H   0  0  0  0  0  0  0  0  0  0  0  0
   -3.0732    1.6467   -1.5457 H   0  0  0  0  0  0  0  0  0  0  0  0
   -4.5945    2.0861    0.3753 H   0  0  0  0  0  0  0  0  0  0  0  0
   -5.0639    0.6304   -0.5153 H   0  0  0  0  0  0  0  0  0  0  0  0
   -4.2440    0.4788    1.0394 H   0  0  0  0  0  0  0  0  0  0  0  0
   -1.1559   -3.1366   -0.1568 H   0  0  0  0  0  0  0  0  0  0  0  0
   -1.9082   -3.2655   -2.7162 H   0  0  0  0  0  0  0  0  0  0  0  0
    0.7731   -1.1080    0.9389 H   0  0  0  0  0  0  0  0  0  0  0  0
  1  2  1  0
  2  3  1  0
  3  4  2  0
  3  5  1  0
  5  6  2  0
  6  7  1  0
  7  8  1  0
  8  9  1  0
  9 10  2  0
  9 11  2  0
  9 12  1  0
 12 13  1  0
 13 14  1  0
 14 15  1  0
 14 16  1  0
 16 17  2  0
 17 18  1  0
 18 19  2  0
 19 20  1  0
  8 21  2  0
 21  5  1  0
 20 16  1  0
  1 22  1  0
  1 23  1  0
  1 24  1  0
  7 25  1  0
 12 26  1  0
 13 27  1  0
 13 28  1  0
 14 29  1  0
 15 30  1  0
 15 31  1  0
 15 32  1  0
 18 33  1  0
 19 34  1  0
 21 35  1  0
M  END
$$$$
OCNT-2315125
     RDKit          3D

  0  0  0  0  0  0  0  0  0  0999 V3000
M  V30 BEGIN CTAB
M  V30 COUNTS 44 48 0 0 0
M  V30 BEGIN ATOM
M  V30 1 C 6.304379 1.294158 1.069983 0
M  V30 2 C 5.857441 1.882344 -0.110547 0
M  V30 3 C 4.707384 1.401935 -0.740414 0
M  V30 4 C 3.984799 0.328345 -0.195496 0
M  V30 5 C 2.739855 -0.183188 -0.903953 0 CFG=2
M  V30 6 C 1.483395 -0.050090 -0.023641 0
M  V30 7 C 0.308432 -0.790778 -0.669930 0 CFG=2
M  V30 8 C -0.928064 -0.664782 0.149414 0
M  V30 9 N -2.088866 -0.139395 -0.170258 0
M  V30 10 C -2.814365 -0.314794 0.979852 0
M  V30 11 C -4.276961 0.143555 1.121506 0
M  V30 12 C -5.082172 0.010363 2.234882 0
M  V30 13 N -6.336141 0.531955 2.011167 0
M  V30 14 C -6.279846 0.972997 0.774235 0
M  V30 15 C -7.310978 1.618440 0.009077 0
M  V30 16 N -7.112910 2.007959 -1.223329 0
M  V30 17 C -5.862511 1.775453 -1.773696 0
M  V30 18 C -4.848360 1.178326 -1.122051 0
M  V30 19 N -5.056821 0.765475 0.183219 0
M  V30 20 N -2.148382 -0.918210 1.973098 0
M  V30 21 O -0.889241 -1.152799 1.423760 0
M  V30 22 C 0.652159 -2.263515 -0.953649 0
M  V30 23 C 2.142910 -2.560914 -0.801778 0
M  V30 24 N 2.943316 -1.533820 -1.448639 0
M  V30 25 C 4.454181 -0.258320 0.991279 0
M  V30 26 C 5.604230 0.223410 1.620121 0
M  V30 27 H 7.199660 1.668377 1.559480 0
M  V30 28 H 6.405513 2.715260 -0.543558 0
M  V30 29 H 4.380549 1.873198 -1.665129 0
M  V30 30 H 2.572837 0.454867 -1.782203 0
M  V30 31 H 1.659692 -0.443605 0.986445 0
M  V30 32 H 1.237150 1.012253 0.108762 0
M  V30 33 H 0.103711 -0.306408 -1.635460 0
M  V30 34 H -4.823260 -0.434994 3.188091 0
M  V30 35 H -8.292549 1.786407 0.480016 0
M  V30 36 H -5.731501 2.111389 -2.799920 0
M  V30 37 H -3.879144 1.006107 -1.570481 0
M  V30 38 H 0.093165 -2.948618 -0.303898 0
M  V30 39 H 0.336547 -2.502226 -1.978407 0
M  V30 40 H 2.360217 -3.530599 -1.263414 0
M  V30 41 H 2.411583 -2.654969 0.256895 0
M  V30 42 H 3.935334 -1.772209 -1.417889 0
M  V30 43 H 3.929176 -1.099497 1.436935 0
M  V30 44 H 5.954457 -0.238841 2.539520 0
M  V30 END ATOM
M  V30 BEGIN BOND
M  V30 1 2 1 2
M  V30 2 1 2 3
M  V30 3 2 3 4
M  V30 4 1 4 5
M  V30 5 1 5 6
M  V30 6 1 6 7
M  V30 7 1 7 8
M  V30 8 2 8 9
M  V30 9 1 9 10
M  V30 10 1 10 11
M  V30 11 2 11 12
M  V30 12 1 12 13
M  V30 13 2 13 14
M  V30 14 1 14 15
M  V30 15 2 15 16
M  V30 16 1 16 17
M  V30 17 2 17 18
M  V30 18 1 18 19
M  V30 19 2 10 20
M  V30 20 1 20 21
M  V30 21 1 7 22
M  V30 22 1 22 23
M  V30 23 1 23 24
M  V30 24 1 4 25
M  V30 25 2 25 26
M  V30 26 1 26 1
M  V30 27 1 24 5
M  V30 28 1 21 8
M  V30 29 1 19 11
M  V30 30 1 19 14
M  V30 31 1 1 27
M  V30 32 1 2 28
M  V30 33 1 3 29
M  V30 34 1 5 30 CFG=3
M  V30 35 1 6 31
M  V30 36 1 6 32
M  V30 37 1 7 33 CFG=3
M  V30 38 1 12 34
M  V30 39 1 15 35
M  V30 40 1 17 36
M  V30 41 1 18 37
M  V30 42 1 22 38
M  V30 43 1 22 39
M  V30 44 1 23 40
M  V30 45 1 23 41
M  V30 46 1 24 42
M  V30 47 1 25 43
M  V30 48 1 26 44
M  V30 END BOND
M  V30 BEGIN COLLECTION
M  V30 MDLV30/STERAC1 ATOMS=(2 5 7)
M  V30 END COLLECTION
M  V30 END CTAB
M  END
>  <_CXSMILES_Data>  (938) 
|&1:4,6|

$$$$
OCNT-2315127
     RDKit          3D

 46 47  0  0  0  0  0  0  0  0999 V2000
   -3.6385   -2.4797    0.6129 C   0  0  0  0  0  0  0  0  0  0  0  0
   -2.4654   -1.5079    0.5547 C   0  0  0  0  0  0  0  0  0  0  0  0
   -2.7153   -0.3150   -0.3976 C   0  0  0  0  0  0  0  0  0  0  0  0
   -1.4473    0.5445   -0.5634 C   0  0  0  0  0  0  0  0  0  0  0  0
   -0.3847   -0.1175   -1.4206 C   0  0  0  0  0  0  0  0  0  0  0  0
   -0.5531   -1.1609   -2.0406 O   0  0  0  0  0  0  0  0  0  0  0  0
    0.7975    0.5916   -1.4502 N   0  0  0  0  0  0  0  0  0  0  0  0
    1.9635    0.0877   -2.1385 C   0  0  0  0  0  0  0  0  0  0  0  0
    2.8706   -0.6462   -1.1944 C   0  0  0  0  0  0  0  0  0  0  0  0
    2.6520   -1.9890   -0.8978 C   0  0  0  0  0  0  0  0  0  0  0  0
    3.4171   -2.7089   -0.0452 N   0  0  0  0  0  0  0  0  0  0  0  0
    4.4477   -2.0607    0.5504 C   0  0  0  0  0  0  0  0  0  0  0  0
    4.7474   -0.7226    0.3350 C   0  0  0  0  0  0  0  0  0  0  0  0
    5.8979   -0.1351    1.0551 C   0  0  0  0  0  0  0  0  0  0  0  0
    6.6028   -0.7634    1.8277 O   0  0  0  0  0  0  0  0  0  0  0  0
    6.0410    1.1750    0.7328 O   0  0  0  0  0  0  0  0  0  0  0  0
    7.1379    1.8154    1.3877 C   0  0  0  0  0  0  0  0  0  0  0  0
    3.9386   -0.0056   -0.5530 C   0  0  0  0  0  0  0  0  0  0  0  0
   -3.8674    0.5659    0.0727 C   0  0  0  0  0  0  0  0  0  0  0  0
   -4.9763    0.7627   -0.7645 C   0  0  0  0  0  0  0  0  0  0  0  0
   -6.0401    1.5712   -0.3599 C   0  0  0  0  0  0  0  0  0  0  0  0
   -6.0091    2.1946    0.8851 C   0  0  0  0  0  0  0  0  0  0  0  0
   -4.9144    2.0105    1.7264 C   0  0  0  0  0  0  0  0  0  0  0  0
   -3.8493    1.2026    1.3235 C   0  0  0  0  0  0  0  0  0  0  0  0
   -3.8870   -2.8540   -0.3853 H   0  0  0  0  0  0  0  0  0  0  0  0
   -3.3824   -3.3387    1.2415 H   0  0  0  0  0  0  0  0  0  0  0  0
   -4.5303   -2.0108    1.0392 H   0  0  0  0  0  0  0  0  0  0  0  0
   -2.2396   -1.1599    1.5696 H   0  0  0  0  0  0  0  0  0  0  0  0
   -1.5847   -2.0685    0.2203 H   0  0  0  0  0  0  0  0  0  0  0  0
   -2.9809   -0.7294   -1.3800 H   0  0  0  0  0  0  0  0  0  0  0  0
   -1.6976    1.4941   -1.0548 H   0  0  0  0  0  0  0  0  0  0  0  0
   -1.0122    0.7823    0.4154 H   0  0  0  0  0  0  0  0  0  0  0  0
    0.9132    1.3777   -0.8247 H   0  0  0  0  0  0  0  0  0  0  0  0
    1.6704   -0.5629   -2.9703 H   0  0  0  0  0  0  0  0  0  0  0  0
    2.4824    0.9496   -2.5725 H   0  0  0  0  0  0  0  0  0  0  0  0
    1.8268   -2.5389   -1.3479 H   0  0  0  0  0  0  0  0  0  0  0  0
    5.0386   -2.6734    1.2276 H   0  0  0  0  0  0  0  0  0  0  0  0
    7.1658    2.8581    1.0594 H   0  0  0  0  0  0  0  0  0  0  0  0
    6.9995    1.7973    2.4733 H   0  0  0  0  0  0  0  0  0  0  0  0
    8.0826    1.3386    1.1081 H   0  0  0  0  0  0  0  0  0  0  0  0
    4.1350    1.0452   -0.7507 H   0  0  0  0  0  0  0  0  0  0  0  0
   -5.0218    0.2831   -1.7402 H   0  0  0  0  0  0  0  0  0  0  0  0
   -6.8942    1.7118   -1.0171 H   0  0  0  0  0  0  0  0  0  0  0  0
   -6.8387    2.8217    1.2002 H   0  0  0  0  0  0  0  0  0  0  0  0
   -4.8907    2.4945    2.6993 H   0  0  0  0  0  0  0  0  0  0  0  0
   -3.0073    1.0730    1.9991 H   0  0  0  0  0  0  0  0  0  0  0  0
  1  2  1  0
  2  3  1  0
  3  4  1  0
  4  5  1  0
  5  6  2  0
  5  7  1  0
  7  8  1  0
  8  9  1  0
  9 10  2  0
 10 11  1  0
 11 12  2  0
 12 13  1  0
 13 14  1  0
 14 15  2  0
 14 16  1  0
 16 17  1  0
 13 18  2  0
  3 19  1  0
 19 20  2  0
 20 21  1  0
 21 22  2  0
 22 23  1  0
 23 24  2  0
 18  9  1  0
 24 19  1  0
  1 25  1  0
  1 26  1  0
  1 27  1  0
  2 28  1  0
  2 29  1  0
  3 30  1  0
  4 31  1  0
  4 32  1  0
  7 33  1  0
  8 34  1  0
  8 35  1  0
 10 36  1  0
 12 37  1  0
 17 38  1  0
 17 39  1  0
 17 40  1  0
 18 41  1  0
 20 42  1  0
 21 43  1  0
 22 44  1  0
 23 45  1  0
 24 46  1  0
M  END
$$$$
OCNT-2315145
     RDKit          3D

 53 56  0  0  0  0  0  0  0  0999 V2000
   -4.0046    0.5265    1.6846 C   0  0  0  0  0  0  0  0  0  0  0  0
   -5.0224    0.7213    0.6039 C   0  0  0  0  0  0  0  0  0  0  0  0
   -6.0886    1.5205    0.8307 C   0  0  0  0  0  0  0  0  0  0  0  0
   -7.0862    1.7260   -0.1986 C   0  0  0  0  0  0  0  0  0  0  0  0
   -6.9772    1.1357   -1.3989 C   0  0  0  0  0  0  0  0  0  0  0  0
   -5.8672    0.2929   -1.6763 C   0  0  0  0  0  0  0  0  0  0  0  0
   -5.5780   -0.3616   -2.7779 N   0  0  0  0  0  0  0  0  0  0  0  0
   -4.4052   -0.9985   -2.5143 C   0  0  0  0  0  0  0  0  0  0  0  0
   -3.9624   -0.7573   -1.2266 C   0  0  0  0  0  0  0  0  0  0  0  0
   -2.7411   -1.3052   -0.5856 C   0  0  0  0  0  0  0  0  0  0  0  0
   -1.6110   -0.4206   -0.8512 N   0  0  0  0  0  0  0  0  0  0  0  0
   -0.3973   -0.7954   -0.1072 C   0  0  0  0  0  0  0  0  0  0  0  0
    0.2444   -2.0702   -0.6749 C   0  0  0  0  0  0  0  0  0  0  0  0
    1.5399   -2.3914    0.0647 C   0  0  0  0  0  0  0  0  0  0  0  0
    2.5186   -1.2226    0.0321 C   0  0  0  0  0  0  0  0  0  0  0  0
    1.9018    0.0223    0.4893 N   0  0  0  0  0  0  0  0  0  0  0  0
    2.6352    1.0837    1.0247 C   0  0  0  0  0  0  0  0  0  0  0  0
    2.1611    2.2201    1.1209 O   0  0  0  0  0  0  0  0  0  0  0  0
    4.0484    0.8191    1.5295 C   0  0  0  0  0  0  0  0  0  0  0  0
    5.1000    0.7858    0.4442 C   0  0  0  0  0  0  0  0  0  0  0  0
    6.0837   -0.2141    0.4469 C   0  0  0  0  0  0  0  0  0  0  0  0
    7.0694   -0.2431   -0.5413 C   0  0  0  0  0  0  0  0  0  0  0  0
    7.0909    0.7332   -1.5347 C   0  0  0  0  0  0  0  0  0  0  0  0
    6.1319    1.7435   -1.5367 C   0  0  0  0  0  0  0  0  0  0  0  0
    5.1457    1.7746   -0.5493 C   0  0  0  0  0  0  0  0  0  0  0  0
    0.6278    0.3614   -0.1506 C   0  0  0  0  0  0  0  0  0  0  0  0
   -4.9088    0.0978   -0.6665 N   0  0  0  0  0  0  0  0  0  0  0  0
   -3.0049    0.8086    1.3456 H   0  0  0  0  0  0  0  0  0  0  0  0
   -4.2194    1.1492    2.5612 H   0  0  0  0  0  0  0  0  0  0  0  0
   -4.0024   -0.5100    2.0340 H   0  0  0  0  0  0  0  0  0  0  0  0
   -6.2381    2.0311    1.7778 H   0  0  0  0  0  0  0  0  0  0  0  0
   -7.9280    2.3739    0.0256 H   0  0  0  0  0  0  0  0  0  0  0  0
   -7.7175    1.2847   -2.1764 H   0  0  0  0  0  0  0  0  0  0  0  0
   -3.9223   -1.6128   -3.2642 H   0  0  0  0  0  0  0  0  0  0  0  0
   -2.8887   -1.4765    0.4818 H   0  0  0  0  0  0  0  0  0  0  0  0
   -2.5445   -2.2915   -1.0230 H   0  0  0  0  0  0  0  0  0  0  0  0
   -1.8758    0.5349   -0.6121 H   0  0  0  0  0  0  0  0  0  0  0  0
   -0.6521   -0.9628    0.9484 H   0  0  0  0  0  0  0  0  0  0  0  0
    0.4559   -1.9453   -1.7447 H   0  0  0  0  0  0  0  0  0  0  0  0
   -0.4318   -2.9266   -0.5780 H   0  0  0  0  0  0  0  0  0  0  0  0
    1.3042   -2.6371    1.1080 H   0  0  0  0  0  0  0  0  0  0  0  0
    2.0091   -3.2781   -0.3759 H   0  0  0  0  0  0  0  0  0  0  0  0
    2.8817   -1.0526   -0.9885 H   0  0  0  0  0  0  0  0  0  0  0  0
    3.3805   -1.4831    0.6483 H   0  0  0  0  0  0  0  0  0  0  0  0
    4.0482   -0.1000    2.1260 H   0  0  0  0  0  0  0  0  0  0  0  0
    4.3098    1.6212    2.2321 H   0  0  0  0  0  0  0  0  0  0  0  0
    6.0910   -0.9793    1.2200 H   0  0  0  0  0  0  0  0  0  0  0  0
    7.8249   -1.0246   -0.5328 H   0  0  0  0  0  0  0  0  0  0  0  0
    7.8599    0.7126   -2.3025 H   0  0  0  0  0  0  0  0  0  0  0  0
    6.1535    2.5130   -2.3042 H   0  0  0  0  0  0  0  0  0  0  0  0
    4.4139    2.5813   -0.5614 H   0  0  0  0  0  0  0  0  0  0  0  0
    0.1890    1.2430    0.3317 H   0  0  0  0  0  0  0  0  0  0  0  0
    0.8551    0.6424   -1.1877 H   0  0  0  0  0  0  0  0  0  0  0  0
  1  2  1  0
  2  3  2  0
  3  4  1  0
  4  5  2  0
  5  6  1  0
  6  7  2  0
  7  8  1  0
  8  9  2  0
  9 10  1  0
 10 11  1  0
 11 12  1  0
 12 13  1  0
 13 14  1  0
 14 15  1  0
 15 16  1  0
 16 17  1  0
 17 18  2  0
 17 19  1  0
 19 20  1  0
 20 21  2  0
 21 22  1  0
 22 23  2  0
 23 24  1  0
 24 25  2  0
 16 26  1  0
  9 27  1  0
 27  2  1  0
 27  6  1  0
 26 12  1  0
 25 20  1  0
  1 28  1  0
  1 29  1  0
  1 30  1  0
  3 31  1  0
  4 32  1  0
  5 33  1  0
  8 34  1  0
 10 35  1  0
 10 36  1  0
 11 37  1  0
 12 38  1  0
 13 39  1  0
 13 40  1  0
 14 41  1  0
 14 42  1  0
 15 43  1  0
 15 44  1  0
 19 45  1  0
 19 46  1  0
 21 47  1  0
 22 48  1  0
 23 49  1  0
 24 50  1  0
 25 51  1  0
 26 52  1  0
 26 53  1  0
M  END
$$$$
OCNT-2315146
     RDKit          3D

 58 62  0  0  0  0  0  0  0  0999 V2000
   -8.8777   -2.5934   -1.7294 C   0  0  0  0  0  0  0  0  0  0  0  0
   -8.3867   -2.5378   -0.3958 O   0  0  0  0  0  0  0  0  0  0  0  0
   -7.3828   -1.6456   -0.1398 C   0  0  0  0  0  0  0  0  0  0  0  0
   -6.8024   -0.7817   -1.0598 C   0  0  0  0  0  0  0  0  0  0  0  0
   -5.7823    0.0770   -0.6469 C   0  0  0  0  0  0  0  0  0  0  0  0
   -5.3310    0.0847    0.6964 C   0  0  0  0  0  0  0  0  0  0  0  0
   -5.9105   -0.7976    1.6169 C   0  0  0  0  0  0  0  0  0  0  0  0
   -6.9266   -1.6403    1.1827 C   0  0  0  0  0  0  0  0  0  0  0  0
   -5.5223   -0.8626    2.8941 N   0  0  0  0  0  0  0  0  0  0  0  0
   -4.5328   -0.0427    3.2617 C   0  0  0  0  0  0  0  0  0  0  0  0
   -3.9062    0.8438    2.4814 N   0  0  0  0  0  0  0  0  0  0  0  0
   -4.3124    0.9171    1.2036 C   0  0  0  0  0  0  0  0  0  0  0  0
   -3.6926    1.8484    0.3380 N   0  0  0  0  0  0  0  0  0  0  0  0
   -2.6093    2.6504    0.9069 C   0  0  0  0  0  0  0  0  0  0  0  0
   -1.2940    1.8719    0.9854 C   0  0  0  0  0  0  0  0  0  0  0  0
   -0.8044    1.4157   -0.3915 C   0  0  0  0  0  0  0  0  0  0  0  0
    0.5193    0.6912   -0.2977 C   0  0  0  0  0  0  0  0  0  0  0  0
    0.5435   -0.6938    0.0063 C   0  0  0  0  0  0  0  0  0  0  0  0
    1.7503   -1.3938    0.1115 C   0  0  0  0  0  0  0  0  0  0  0  0
    2.9128   -0.6769   -0.0844 C   0  0  0  0  0  0  0  0  0  0  0  0
    4.3093   -1.1064   -0.0511 C   0  0  0  0  0  0  0  0  0  0  0  0
    4.6675   -2.2547    0.1267 O   0  0  0  0  0  0  0  0  0  0  0  0
    5.0692    0.0096   -0.2756 N   0  0  0  0  0  0  0  0  0  0  0  0
    6.5114    0.0139   -0.4639 C   0  0  0  0  0  0  0  0  0  0  0  0
    7.2888   -0.7164    0.6279 C   0  0  0  0  0  0  0  0  0  0  0  0
    8.7786   -0.6077    0.3389 C   0  0  0  0  0  0  0  0  0  0  0  0
    9.1122   -1.1450   -1.0339 C   0  0  0  0  0  0  0  0  0  0  0  0
   10.2129   -1.6165   -1.3034 O   0  0  0  0  0  0  0  0  0  0  0  0
    8.1381   -1.0267   -1.9941 N   0  0  0  0  0  0  0  0  0  0  0  0
    6.8452   -0.5785   -1.8371 C   0  0  0  0  0  0  0  0  0  0  0  0
    6.0571   -0.6109   -2.7803 O   0  0  0  0  0  0  0  0  0  0  0  0
    4.2868    1.1064   -0.5209 C   0  0  0  0  0  0  0  0  0  0  0  0
    4.6282    2.2399   -0.8002 O   0  0  0  0  0  0  0  0  0  0  0  0
    2.8991    0.6740   -0.3751 C   0  0  0  0  0  0  0  0  0  0  0  0
    1.7227    1.3893   -0.4881 C   0  0  0  0  0  0  0  0  0  0  0  0
   -8.0910   -2.8986   -2.4272 H   0  0  0  0  0  0  0  0  0  0  0  0
   -9.6662   -3.3513   -1.7641 H   0  0  0  0  0  0  0  0  0  0  0  0
   -9.3211   -1.6372   -2.0265 H   0  0  0  0  0  0  0  0  0  0  0  0
   -7.1116   -0.7523   -2.0992 H   0  0  0  0  0  0  0  0  0  0  0  0
   -5.3236    0.7350   -1.3818 H   0  0  0  0  0  0  0  0  0  0  0  0
   -7.3790   -2.3232    1.8992 H   0  0  0  0  0  0  0  0  0  0  0  0
   -4.2081   -0.1008    4.2949 H   0  0  0  0  0  0  0  0  0  0  0  0
   -4.4267    2.4426   -0.0415 H   0  0  0  0  0  0  0  0  0  0  0  0
   -2.8808    3.0596    1.8878 H   0  0  0  0  0  0  0  0  0  0  0  0
   -2.4599    3.5186    0.2531 H   0  0  0  0  0  0  0  0  0  0  0  0
   -1.3976    1.0045    1.6476 H   0  0  0  0  0  0  0  0  0  0  0  0
   -0.5368    2.5199    1.4453 H   0  0  0  0  0  0  0  0  0  0  0  0
   -1.5368    0.7511   -0.8660 H   0  0  0  0  0  0  0  0  0  0  0  0
   -0.7011    2.2793   -1.0606 H   0  0  0  0  0  0  0  0  0  0  0  0
   -0.3942   -1.2280    0.1604 H   0  0  0  0  0  0  0  0  0  0  0  0
    1.7736   -2.4550    0.3366 H   0  0  0  0  0  0  0  0  0  0  0  0
    6.8423    1.0605   -0.4984 H   0  0  0  0  0  0  0  0  0  0  0  0
    7.0167   -1.7771    0.6691 H   0  0  0  0  0  0  0  0  0  0  0  0
    7.0641   -0.2851    1.6101 H   0  0  0  0  0  0  0  0  0  0  0  0
    9.3365   -1.1863    1.0831 H   0  0  0  0  0  0  0  0  0  0  0  0
    9.1147    0.4337    0.3905 H   0  0  0  0  0  0  0  0  0  0  0  0
    8.3659   -1.4055   -2.9035 H   0  0  0  0  0  0  0  0  0  0  0  0
    1.7418    2.4501   -0.7184 H   0  0  0  0  0  0  0  0  0  0  0  0
  1  2  1  0
  2  3  1  0
  3  4  1  0
  4  5  2  0
  5  6  1  0
  6  7  1  0
  7  8  1  0
  7  9  2  0
  9 10  1  0
 10 11  2  0
 11 12  1  0
 12 13  1  0
 13 14  1  0
 14 15  1  0
 15 16  1  0
 16 17  1  0
 17 18  1  0
 18 19  2  0
 19 20  1  0
 20 21  1  0
 21 22  2  0
 21 23  1  0
 23 24  1  0
 24 25  1  0
 25 26  1  0
 26 27  1  0
 27 28  2  0
 27 29  1  0
 29 30  1  0
 30 31  2  0
 23 32  1  0
 32 33  2  0
 32 34  1  0
 34 35  1  0
  8  3  2  0
 35 17  2  0
 12  6  2  0
 34 20  2  0
 30 24  1  0
  1 36  1  0
  1 37  1  0
  1 38  1  0
  4 39  1  0
  5 40  1  0
  8 41  1  0
 10 42  1  0
 13 43  1  0
 14 44  1  0
 14 45  1  0
 15 46  1  0
 15 47  1  0
 16 48  1  0
 16 49  1  0
 18 50  1  0
 19 51  1  0
 24 52  1  0
 25 53  1  0
 25 54  1  0
 26 55  1  0
 26 56  1  0
 29 57  1  0
 35 58  1  0
M  END
$$$$
OCNT-2315149
     RDKit          3D

  0  0  0  0  0  0  0  0  0  0999 V3000
M  V30 BEGIN CTAB
M  V30 COUNTS 48 53 0 0 0
M  V30 BEGIN ATOM
M  V30 1 O 2.600190 -0.273411 2.193750 0
M  V30 2 C 2.161268 -0.354766 1.042186 0
M  V30 3 C 3.073905 -0.763645 -0.048750 0
M  V30 4 N 2.692767 -1.403329 -1.188280 0
M  V30 5 N 3.843159 -1.632947 -1.870333 0
M  V30 6 C 4.912302 -1.179323 -1.201574 0
M  V30 7 C 4.476132 -0.633976 -0.031180 0
M  V30 8 C 5.564474 -0.117588 0.835393 0
M  V30 9 C 6.834837 -0.384169 -0.004573 0 CFG=1
M  V30 10 C 7.318819 -1.779942 -0.307630 0
M  V30 11 C 6.441919 -1.095840 -1.318387 0 CFG=1
M  V30 12 N 0.810605 -0.060082 0.775924 0
M  V30 13 C -0.077554 -0.151873 1.929267 0
M  V30 14 C -1.459086 0.359561 1.664244 0
M  V30 15 C -1.879880 0.827837 0.479043 0
M  V30 16 C -3.251496 1.336110 0.307806 0
M  V30 17 C -3.457284 2.707872 0.523670 0
M  V30 18 C -4.724378 3.263553 0.380323 0
M  V30 19 C -5.799358 2.453255 0.021693 0
M  V30 20 C -5.625924 1.077315 -0.196732 0
M  V30 21 C -6.721557 0.274598 -0.556284 0
M  V30 22 C -6.568429 -1.093845 -0.776090 0
M  V30 23 C -5.316243 -1.679049 -0.639291 0
M  V30 24 C -4.216913 -0.894874 -0.283315 0
M  V30 25 C -4.340350 0.496103 -0.053757 0
M  V30 26 C -0.973174 0.860253 -0.711658 0
M  V30 27 C 0.206459 -0.104022 -0.557735 0
M  V30 28 H 3.795282 -2.106907 -2.766054 0
M  V30 29 H 5.450132 0.955929 1.015380 0
M  V30 30 H 5.617722 -0.651410 1.788478 0
M  V30 31 H 7.526965 0.443935 -0.041839 0
M  V30 32 H 8.366610 -1.906969 -0.555510 0
M  V30 33 H 6.907585 -2.605291 0.262538 0
M  V30 34 H 6.869095 -0.722094 -2.239858 0
M  V30 35 H 0.355516 0.406398 2.766959 0
M  V30 36 H -0.132296 -1.206820 2.222993 0
M  V30 37 H -2.137136 0.345390 2.513832 0
M  V30 38 H -2.624488 3.348631 0.806329 0
M  V30 39 H -4.875623 4.327018 0.548756 0
M  V30 40 H -6.782207 2.907554 -0.085632 0
M  V30 41 H -7.711098 0.713725 -0.668077 0
M  V30 42 H -7.426978 -1.700161 -1.052589 0
M  V30 43 H -5.190216 -2.745363 -0.807562 0
M  V30 44 H -3.250849 -1.384727 -0.182621 0
M  V30 45 H -1.514643 0.607085 -1.631077 0
M  V30 46 H -0.593364 1.883319 -0.830425 0
M  V30 47 H 0.938191 0.174337 -1.319318 0
M  V30 48 H -0.113414 -1.137353 -0.740007 0
M  V30 END ATOM
M  V30 BEGIN BOND
M  V30 1 2 1 2
M  V30 2 1 2 3
M  V30 3 2 3 4
M  V30 4 1 4 5
M  V30 5 1 5 6
M  V30 6 2 6 7
M  V30 7 1 7 8
M  V30 8 1 8 9
M  V30 9 1 9 10
M  V30 10 1 10 11
M  V30 11 1 2 12
M  V30 12 1 12 13
M  V30 13 1 13 14
M  V30 14 2 14 15
M  V30 15 1 15 16
M  V30 16 2 16 17
M  V30 17 1 17 18
M  V30 18 2 18 19
M  V30 19 1 19 20
M  V30 20 2 20 21
M  V30 21 1 21 22
M  V30 22 2 22 23
M  V30 23 1 23 24
M  V30 24 2 24 25
M  V30 25 1 15 26
M  V30 26 1 26 27
M  V30 27 1 7 3
M  V30 28 1 11 9
M  V30 29 1 27 12
M  V30 30 1 11 6
M  V30 31 1 25 16
M  V30 32 1 25 20
M  V30 33 1 5 28
M  V30 34 1 8 29
M  V30 35 1 8 30
M  V30 36 1 9 31 CFG=3
M  V30 37 1 10 32
M  V30 38 1 10 33
M  V30 39 1 11 34 CFG=3
M  V30 40 1 13 35
M  V30 41 1 13 36
M  V30 42 1 14 37
M  V30 43 1 17 38
M  V30 44 1 18 39
M  V30 45 1 19 40
M  V30 46 1 21 41
M  V30 47 1 22 42
M  V30 48 1 23 43
M  V30 49 1 24 44
M  V30 50 1 26 45
M  V30 51 1 26 46
M  V30 52 1 27 47
M  V30 53 1 27 48
M  V30 END BOND
M  V30 BEGIN COLLECTION
M  V30 MDLV30/STERAC1 ATOMS=(2 9 11)
M  V30 END COLLECTION
M  V30 END CTAB
M  END
>  <_CXSMILES_Data>  (942) 
|&1:8,10|

$$$$
OCNT-2315150
     RDKit          3D

 36 39  0  0  0  0  0  0  0  0999 V2000
    0.1335    0.0501   -2.3941 O   0  0  0  0  0  0  0  0  0  0  0  0
   -0.1394    0.7512   -1.4150 C   0  0  0  0  0  0  0  0  0  0  0  0
    0.7906    1.8966   -1.0501 C   0  0  0  0  0  0  0  0  0  0  0  0
    1.6974    1.5472    0.0776 C   0  0  0  0  0  0  0  0  0  0  0  0
    1.6735    2.2725    1.2074 N   0  0  0  0  0  0  0  0  0  0  0  0
    2.6222    1.7034    1.9726 N   0  0  0  0  0  0  0  0  0  0  0  0
    3.2501    0.6362    1.3918 C   0  0  0  0  0  0  0  0  0  0  0  0
    4.2658   -0.2073    1.8530 C   0  0  0  0  0  0  0  0  0  0  0  0
    4.6932   -1.2200    0.9882 C   0  0  0  0  0  0  0  0  0  0  0  0
    4.1273   -1.3742   -0.2774 C   0  0  0  0  0  0  0  0  0  0  0  0
    3.1123   -0.5165   -0.7191 C   0  0  0  0  0  0  0  0  0  0  0  0
    2.6666    0.5071    0.1372 C   0  0  0  0  0  0  0  0  0  0  0  0
   -1.2673    0.5803   -0.6272 N   0  0  0  0  0  0  0  0  0  0  0  0
   -1.5937    1.3336    0.5998 C   0  0  0  0  0  0  0  0  0  0  0  0
   -2.9851    0.8840    1.0611 C   0  0  0  0  0  0  0  0  0  0  0  0
   -3.2354   -0.2956    0.1792 C   0  0  0  0  0  0  0  0  0  0  0  0
   -4.3138   -1.1681    0.2314 C   0  0  0  0  0  0  0  0  0  0  0  0
   -4.3804   -2.1879   -0.7175 C   0  0  0  0  0  0  0  0  0  0  0  0
   -5.7003   -3.2925   -0.6860 Cl  0  0  0  0  0  0  0  0  0  0  0  0
   -3.3897   -2.3217   -1.6992 C   0  0  0  0  0  0  0  0  0  0  0  0
   -2.3103   -1.4311   -1.7430 C   0  0  0  0  0  0  0  0  0  0  0  0
   -2.2426   -0.4223   -0.7954 C   0  0  0  0  0  0  0  0  0  0  0  0
    0.2080    2.8003   -0.8441 H   0  0  0  0  0  0  0  0  0  0  0  0
    1.3948    2.1336   -1.9352 H   0  0  0  0  0  0  0  0  0  0  0  0
    2.7977    2.0938    2.8910 H   0  0  0  0  0  0  0  0  0  0  0  0
    4.7085   -0.0881    2.8362 H   0  0  0  0  0  0  0  0  0  0  0  0
    5.4807   -1.8994    1.3078 H   0  0  0  0  0  0  0  0  0  0  0  0
    4.4753   -2.1705   -0.9316 H   0  0  0  0  0  0  0  0  0  0  0  0
    2.6768   -0.6495   -1.7063 H   0  0  0  0  0  0  0  0  0  0  0  0
   -1.5626    2.4109    0.4114 H   0  0  0  0  0  0  0  0  0  0  0  0
   -0.8444    1.0885    1.3598 H   0  0  0  0  0  0  0  0  0  0  0  0
   -3.7298    1.6641    0.8728 H   0  0  0  0  0  0  0  0  0  0  0  0
   -2.9886    0.6187    2.1223 H   0  0  0  0  0  0  0  0  0  0  0  0
   -5.0854   -1.0568    0.9861 H   0  0  0  0  0  0  0  0  0  0  0  0
   -3.4524   -3.1189   -2.4356 H   0  0  0  0  0  0  0  0  0  0  0  0
   -1.5531   -1.5515   -2.5100 H   0  0  0  0  0  0  0  0  0  0  0  0
  1  2  2  0
  2  3  1  0
  3  4  1  0
  4  5  2  0
  5  6  1  0
  6  7  1  0
  7  8  2  0
  8  9  1  0
  9 10  2  0
 10 11  1  0
 11 12  2  0
  2 13  1  0
 13 14  1  0
 14 15  1  0
 15 16  1  0
 16 17  1  0
 17 18  2  0
 18 19  1  0
 18 20  1  0
 20 21  2  0
 21 22  1  0
 12  4  1  0
 22 13  1  0
 12  7  1  0
 22 16  2  0
  3 23  1  0
  3 24  1  0
  6 25  1  0
  8 26  1  0
  9 27  1  0
 10 28  1  0
 11 29  1  0
 14 30  1  0
 14 31  1  0
 15 32  1  0
 15 33  1  0
 17 34  1  0
 20 35  1  0
 21 36  1  0
M  END
$$$$
OCNT-2315157
     RDKit          3D

 47 49  0  0  0  0  0  0  0  0999 V2000
    7.2220   -0.3999   -1.5405 C   0  0  0  0  0  0  0  0  0  0  0  0
    6.0546   -0.3945   -0.5975 C   0  0  0  0  0  0  0  0  0  0  0  0
    5.9707   -1.3496    0.4314 C   0  0  0  0  0  0  0  0  0  0  0  0
    4.9043   -1.3396    1.3347 C   0  0  0  0  0  0  0  0  0  0  0  0
    3.9307   -0.3546    1.2181 C   0  0  0  0  0  0  0  0  0  0  0  0
    2.7058   -0.2502    2.0804 C   0  0  0  0  0  0  0  0  0  0  0  0
    2.1291    1.1592    1.8899 C   0  0  0  0  0  0  0  0  0  0  0  0
    0.6116    1.1587    2.0085 C   0  0  0  0  0  0  0  0  0  0  0  0
    0.0453    1.5237    3.0364 O   0  0  0  0  0  0  0  0  0  0  0  0
   -0.0721    0.6430    0.9214 N   0  0  0  0  0  0  0  0  0  0  0  0
   -1.5266    0.7006    0.8751 C   0  0  0  0  0  0  0  0  0  0  0  0
   -2.1569   -0.1902   -0.2224 C   0  0  0  0  0  0  0  0  0  0  0  0
   -3.5933   -0.4732    0.0859 N   0  0  0  0  0  0  0  0  0  0  0  0
   -4.1760   -1.5494   -0.7427 C   0  0  0  0  0  0  0  0  0  0  0  0
   -5.2979   -1.0930   -1.7024 C   0  0  0  0  0  0  0  0  0  0  0  0
   -6.4103   -0.3998   -1.0359 N   0  0  0  0  0  0  0  0  0  0  0  0
   -5.9615    0.3465    0.1492 C   0  0  0  0  0  0  0  0  0  0  0  0
   -4.4614    0.7169    0.1356 C   0  0  0  0  0  0  0  0  0  0  0  0
   -1.8065    0.4052   -1.6081 C   0  0  0  0  0  0  0  0  0  0  0  0
   -0.4626    0.4406   -1.7895 F   0  0  0  0  0  0  0  0  0  0  0  0
   -2.2621    1.6685   -1.7563 F   0  0  0  0  0  0  0  0  0  0  0  0
   -2.3181   -0.3350   -2.6184 F   0  0  0  0  0  0  0  0  0  0  0  0
    2.6747    1.7485    0.2418 S   0  0  0  0  0  0  0  0  0  0  0  0
    4.0167    0.6001    0.2043 C   0  0  0  0  0  0  0  0  0  0  0  0
    5.0676    0.5953   -0.7013 C   0  0  0  0  0  0  0  0  0  0  0  0
    8.0353    0.2075   -1.1319 H   0  0  0  0  0  0  0  0  0  0  0  0
    6.9363    0.0021   -2.5183 H   0  0  0  0  0  0  0  0  0  0  0  0
    7.5876   -1.4192   -1.7031 H   0  0  0  0  0  0  0  0  0  0  0  0
    6.7397   -2.1138    0.5289 H   0  0  0  0  0  0  0  0  0  0  0  0
    4.8442   -2.0944    2.1138 H   0  0  0  0  0  0  0  0  0  0  0  0
    2.9598   -0.4071    3.1351 H   0  0  0  0  0  0  0  0  0  0  0  0
    1.9933   -1.0319    1.7902 H   0  0  0  0  0  0  0  0  0  0  0  0
    2.5431    1.8505    2.6329 H   0  0  0  0  0  0  0  0  0  0  0  0
    0.4433    0.6916    0.0423 H   0  0  0  0  0  0  0  0  0  0  0  0
   -1.8897    0.3825    1.8608 H   0  0  0  0  0  0  0  0  0  0  0  0
   -1.8105    1.7524    0.7507 H   0  0  0  0  0  0  0  0  0  0  0  0
   -1.6406   -1.1586   -0.1616 H   0  0  0  0  0  0  0  0  0  0  0  0
   -3.4092   -2.0886   -1.3114 H   0  0  0  0  0  0  0  0  0  0  0  0
   -4.5995   -2.2902   -0.0519 H   0  0  0  0  0  0  0  0  0  0  0  0
   -5.6992   -1.9626   -2.2338 H   0  0  0  0  0  0  0  0  0  0  0  0
   -4.8700   -0.4273   -2.4621 H   0  0  0  0  0  0  0  0  0  0  0  0
   -6.8492    0.2347   -1.7020 H   0  0  0  0  0  0  0  0  0  0  0  0
   -6.5622    1.2584    0.2433 H   0  0  0  0  0  0  0  0  0  0  0  0
   -6.1760   -0.2586    1.0387 H   0  0  0  0  0  0  0  0  0  0  0  0
   -4.2403    1.2918    1.0417 H   0  0  0  0  0  0  0  0  0  0  0  0
   -4.2861    1.3762   -0.7215 H   0  0  0  0  0  0  0  0  0  0  0  0
    5.1220    1.3524   -1.4786 H   0  0  0  0  0  0  0  0  0  0  0  0
  1  2  1  0
  2  3  1  0
  3  4  2  0
  4  5  1  0
  5  6  1  0
  6  7  1  0
  7  8  1  0
  8  9  2  0
  8 10  1  0
 10 11  1  0
 11 12  1  0
 12 13  1  0
 13 14  1  0
 14 15  1  0
 15 16  1  0
 16 17  1  0
 17 18  1  0
 12 19  1  0
 19 20  1  0
 19 21  1  0
 19 22  1  0
  7 23  1  0
 23 24  1  0
 24 25  1  0
 25  2  2  0
 24  5  2  0
 18 13  1  0
  1 26  1  0
  1 27  1  0
  1 28  1  0
  3 29  1  0
  4 30  1  0
  6 31  1  0
  6 32  1  0
  7 33  1  0
 10 34  1  0
 11 35  1  0
 11 36  1  0
 12 37  1  0
 14 38  1  0
 14 39  1  0
 15 40  1  0
 15 41  1  0
 16 42  1  0
 17 43  1  0
 17 44  1  0
 18 45  1  0
 18 46  1  0
 25 47  1  0
M  END
$$$$
OCNT-2315159
     RDKit          3D

 50 52  0  0  0  0  0  0  0  0999 V2000
    2.9232    1.6564    0.9915 O   0  0  0  0  0  0  0  0  0  0  0  0
    3.2249    0.5089    1.2990 C   0  0  0  0  0  0  0  0  0  0  0  0
    4.6216   -0.0462    1.1620 C   0  0  0  0  0  0  0  0  0  0  0  0
    5.6036    1.0519    0.7809 C   0  0  0  0  0  0  0  0  0  0  0  0
    6.9460    0.5327    0.5952 N   0  0  0  0  0  0  0  0  0  0  0  0
    7.6780    0.5462   -0.5576 C   0  0  0  0  0  0  0  0  0  0  0  0
    8.8754   -0.0571   -0.2547 C   0  0  0  0  0  0  0  0  0  0  0  0
    8.7654   -0.4047    1.1043 C   0  0  0  0  0  0  0  0  0  0  0  0
    7.5928   -0.0405    1.6286 N   0  0  0  0  0  0  0  0  0  0  0  0
    2.3256   -0.4158    1.7832 N   0  0  0  0  0  0  0  0  0  0  0  0
    0.9231   -0.1108    1.9928 C   0  0  0  0  0  0  0  0  0  0  0  0
    0.0470   -0.6459    0.8660 C   0  0  0  0  0  0  0  0  0  0  0  0
    0.2230    0.0685   -0.4760 C   0  0  0  0  0  0  0  0  0  0  0  0
   -1.1853    0.1730   -1.0606 C   0  0  0  0  0  0  0  0  0  0  0  0
   -2.0218   -0.6427   -0.1731 N   0  0  0  0  0  0  0  0  0  0  0  0
   -3.4430   -0.2714   -0.1967 C   0  0  0  0  0  0  0  0  0  0  0  0
   -4.1046   -0.5236   -1.5620 C   0  0  0  0  0  0  0  0  0  0  0  0
   -5.5898   -0.2501   -1.5173 C   0  0  0  0  0  0  0  0  0  0  0  0
   -6.4967   -1.2925   -1.2856 C   0  0  0  0  0  0  0  0  0  0  0  0
   -7.8665   -1.0353   -1.2149 C   0  0  0  0  0  0  0  0  0  0  0  0
   -8.3412    0.2653   -1.3709 C   0  0  0  0  0  0  0  0  0  0  0  0
   -7.4477    1.3100   -1.6004 C   0  0  0  0  0  0  0  0  0  0  0  0
   -6.0775    1.0544   -1.6722 C   0  0  0  0  0  0  0  0  0  0  0  0
   -1.4379   -0.4770    1.1604 C   0  0  0  0  0  0  0  0  0  0  0  0
    4.9104   -0.5084    2.1127 H   0  0  0  0  0  0  0  0  0  0  0  0
    4.6084   -0.8297    0.3959 H   0  0  0  0  0  0  0  0  0  0  0  0
    5.3035    1.5404   -0.1543 H   0  0  0  0  0  0  0  0  0  0  0  0
    5.6628    1.8265    1.5563 H   0  0  0  0  0  0  0  0  0  0  0  0
    7.2998    0.9863   -1.4684 H   0  0  0  0  0  0  0  0  0  0  0  0
    9.7109   -0.2228   -0.9206 H   0  0  0  0  0  0  0  0  0  0  0  0
    9.4902   -0.9052    1.7318 H   0  0  0  0  0  0  0  0  0  0  0  0
    2.6526   -1.3467    2.0145 H   0  0  0  0  0  0  0  0  0  0  0  0
    0.7932    0.9704    2.1130 H   0  0  0  0  0  0  0  0  0  0  0  0
    0.6425   -0.5853    2.9393 H   0  0  0  0  0  0  0  0  0  0  0  0
    0.2624   -1.7140    0.7189 H   0  0  0  0  0  0  0  0  0  0  0  0
    0.6504    1.0700   -0.3603 H   0  0  0  0  0  0  0  0  0  0  0  0
    0.8863   -0.5083   -1.1312 H   0  0  0  0  0  0  0  0  0  0  0  0
   -1.2128   -0.1970   -2.0912 H   0  0  0  0  0  0  0  0  0  0  0  0
   -1.4975    1.2257   -1.0620 H   0  0  0  0  0  0  0  0  0  0  0  0
   -3.9694   -0.8721    0.5572 H   0  0  0  0  0  0  0  0  0  0  0  0
   -3.5744    0.7802    0.0945 H   0  0  0  0  0  0  0  0  0  0  0  0
   -3.6540    0.1082   -2.3378 H   0  0  0  0  0  0  0  0  0  0  0  0
   -3.9346   -1.5610   -1.8779 H   0  0  0  0  0  0  0  0  0  0  0  0
   -6.1400   -2.3116   -1.1558 H   0  0  0  0  0  0  0  0  0  0  0  0
   -8.5629   -1.8496   -1.0358 H   0  0  0  0  0  0  0  0  0  0  0  0
   -9.4085    0.4658   -1.3128 H   0  0  0  0  0  0  0  0  0  0  0  0
   -7.8178    2.3254   -1.7219 H   0  0  0  0  0  0  0  0  0  0  0  0
   -5.3924    1.8807   -1.8485 H   0  0  0  0  0  0  0  0  0  0  0  0
   -1.6489    0.5171    1.5771 H   0  0  0  0  0  0  0  0  0  0  0  0
   -1.7980   -1.2388    1.8601 H   0  0  0  0  0  0  0  0  0  0  0  0
  1  2  2  0
  2  3  1  0
  3  4  1  0
  4  5  1  0
  5  6  1  0
  6  7  2  0
  7  8  1  0
  8  9  2  0
  2 10  1  0
 10 11  1  0
 11 12  1  0
 12 13  1  0
 13 14  1  0
 14 15  1  0
 15 16  1  0
 16 17  1  0
 17 18  1  0
 18 19  2  0
 19 20  1  0
 20 21  2  0
 21 22  1  0
 22 23  2  0
 15 24  1  0
  9  5  1  0
 24 12  1  0
 23 18  1  0
  3 25  1  0
  3 26  1  0
  4 27  1  0
  4 28  1  0
  6 29  1  0
  7 30  1  0
  8 31  1  0
 10 32  1  0
 11 33  1  0
 11 34  1  0
 12 35  1  0
 13 36  1  0
 13 37  1  0
 14 38  1  0
 14 39  1  0
 16 40  1  0
 16 41  1  0
 17 42  1  0
 17 43  1  0
 19 44  1  0
 20 45  1  0
 21 46  1  0
 22 47  1  0
 23 48  1  0
 24 49  1  0
 24 50  1  0
M  END
$$$$
OCNT-2315166
     RDKit          3D

 50 52  0  0  0  0  0  0  0  0999 V2000
   -2.4700    0.5556    3.1485 C   0  0  0  0  0  0  0  0  0  0  0  0
   -2.1680    0.2827    1.6706 C   0  0  0  0  0  0  0  0  0  0  0  0
   -0.9376    0.9624    1.2870 N   0  0  0  0  0  0  0  0  0  0  0  0
    0.0657    0.3298    0.5770 C   0  0  0  0  0  0  0  0  0  0  0  0
    0.0561   -0.8736    0.3549 O   0  0  0  0  0  0  0  0  0  0  0  0
    1.1607    1.2950    0.0881 C   0  0  0  0  0  0  0  0  0  0  0  0
    2.5070    0.7120   -0.0366 N   0  0  0  0  0  0  0  0  0  0  0  0
    2.9858    0.0692    1.1802 C   0  0  0  0  0  0  0  0  0  0  0  0
    4.5027   -0.1524    1.1001 C   0  0  0  0  0  0  0  0  0  0  0  0
    4.9918   -0.4981   -0.3182 C   0  0  0  0  0  0  0  0  0  0  0  0
    6.2184   -1.4134   -0.2689 C   0  0  0  0  0  0  0  0  0  0  0  0
    6.7451   -1.6217   -1.5751 O   0  0  0  0  0  0  0  0  0  0  0  0
    3.8492   -1.1014   -1.1406 C   0  0  0  0  0  0  0  0  0  0  0  0
    2.6520   -0.1410   -1.2229 C   0  0  0  0  0  0  0  0  0  0  0  0
   -3.2924    0.7077    0.7253 C   0  0  0  0  0  0  0  0  0  0  0  0
   -3.8949    1.9695    0.9190 C   0  0  0  0  0  0  0  0  0  0  0  0
   -4.9053    2.4156    0.0784 C   0  0  0  0  0  0  0  0  0  0  0  0
   -5.3272    1.6147   -0.9729 C   0  0  0  0  0  0  0  0  0  0  0  0
   -6.3021    2.0769   -1.7695 F   0  0  0  0  0  0  0  0  0  0  0  0
   -4.7531    0.3654   -1.2242 C   0  0  0  0  0  0  0  0  0  0  0  0
   -5.1979   -0.4050   -2.3153 C   0  0  0  0  0  0  0  0  0  0  0  0
   -4.6270   -1.6403   -2.6063 C   0  0  0  0  0  0  0  0  0  0  0  0
   -3.6036   -2.1194   -1.8062 C   0  0  0  0  0  0  0  0  0  0  0  0
   -3.1554   -1.3675   -0.7143 C   0  0  0  0  0  0  0  0  0  0  0  0
   -3.7126   -0.1074   -0.3809 C   0  0  0  0  0  0  0  0  0  0  0  0
   -3.4288    0.1175    3.4434 H   0  0  0  0  0  0  0  0  0  0  0  0
   -2.4929    1.6244    3.3808 H   0  0  0  0  0  0  0  0  0  0  0  0
   -1.6899    0.1153    3.7802 H   0  0  0  0  0  0  0  0  0  0  0  0
   -2.0135   -0.7973    1.6128 H   0  0  0  0  0  0  0  0  0  0  0  0
   -0.9520    1.9711    1.2871 H   0  0  0  0  0  0  0  0  0  0  0  0
    1.2206    2.1392    0.7803 H   0  0  0  0  0  0  0  0  0  0  0  0
    0.8369    1.7067   -0.8704 H   0  0  0  0  0  0  0  0  0  0  0  0
    2.7812    0.6924    2.0567 H   0  0  0  0  0  0  0  0  0  0  0  0
    2.4848   -0.8889    1.3497 H   0  0  0  0  0  0  0  0  0  0  0  0
    4.7751   -0.9430    1.8136 H   0  0  0  0  0  0  0  0  0  0  0  0
    5.0251    0.7547    1.4347 H   0  0  0  0  0  0  0  0  0  0  0  0
    5.2878    0.4345   -0.8171 H   0  0  0  0  0  0  0  0  0  0  0  0
    5.9657   -2.3947    0.1537 H   0  0  0  0  0  0  0  0  0  0  0  0
    7.0104   -0.9736    0.3508 H   0  0  0  0  0  0  0  0  0  0  0  0
    6.9413   -0.7513   -1.9483 H   0  0  0  0  0  0  0  0  0  0  0  0
    3.5290   -2.0424   -0.6791 H   0  0  0  0  0  0  0  0  0  0  0  0
    4.1821   -1.3437   -2.1542 H   0  0  0  0  0  0  0  0  0  0  0  0
    2.7879    0.5154   -2.0904 H   0  0  0  0  0  0  0  0  0  0  0  0
    1.7568   -0.7395   -1.4271 H   0  0  0  0  0  0  0  0  0  0  0  0
   -3.5763    2.6241    1.7276 H   0  0  0  0  0  0  0  0  0  0  0  0
   -5.3631    3.3845    0.2287 H   0  0  0  0  0  0  0  0  0  0  0  0
   -5.9959   -0.0341   -2.9563 H   0  0  0  0  0  0  0  0  0  0  0  0
   -4.9756   -2.2176   -3.4573 H   0  0  0  0  0  0  0  0  0  0  0  0
   -3.1452   -3.0747   -2.0235 H   0  0  0  0  0  0  0  0  0  0  0  0
   -2.3389   -1.7942   -0.1388 H   0  0  0  0  0  0  0  0  0  0  0  0
  1  2  1  0
  2  3  1  0
  3  4  1  0
  4  5  2  0
  4  6  1  0
  6  7  1  0
  7  8  1  0
  8  9  1  0
  9 10  1  0
 10 11  1  0
 11 12  1  0
 10 13  1  0
 13 14  1  0
  2 15  1  0
 15 16  2  0
 16 17  1  0
 17 18  2  0
 18 19  1  0
 18 20  1  0
 20 21  2  0
 21 22  1  0
 22 23  2  0
 23 24  1  0
 24 25  2  0
 14  7  1  0
 25 15  1  0
 25 20  1  0
  1 26  1  0
  1 27  1  0
  1 28  1  0
  2 29  1  0
  3 30  1  0
  6 31  1  0
  6 32  1  0
  8 33  1  0
  8 34  1  0
  9 35  1  0
  9 36  1  0
 10 37  1  0
 11 38  1  0
 11 39  1  0
 12 40  1  0
 13 41  1  0
 13 42  1  0
 14 43  1  0
 14 44  1  0
 16 45  1  0
 17 46  1  0
 21 47  1  0
 22 48  1  0
 23 49  1  0
 24 50  1  0
M  END
$$$$
OCNT-2315191
     RDKit          3D

  0  0  0  0  0  0  0  0  0  0999 V3000
M  V30 BEGIN CTAB
M  V30 COUNTS 48 51 0 0 0
M  V30 BEGIN ATOM
M  V30 1 O 0.268751 0.870160 1.116582 0
M  V30 2 C 0.571960 0.544880 -0.027349 0
M  V30 3 N -0.298905 0.673908 -1.090164 0
M  V30 4 C -1.570574 1.346651 -0.928090 0 CFG=2
M  V30 5 C -2.564023 0.593306 -0.025276 0
M  V30 6 C -3.934114 0.671665 -0.728453 0
M  V30 7 C -5.100449 0.985137 0.208609 0
M  V30 8 N -5.442975 -0.125502 1.073904 0
M  V30 9 C -6.266387 -1.168853 0.754720 0
M  V30 10 C -6.310818 -1.943383 1.890334 0
M  V30 11 N -5.545570 -1.391947 2.884751 0
M  V30 12 C -5.036228 -0.297505 2.365221 0
M  V30 13 C -3.752617 1.736005 -1.810891 0
M  V30 14 C -2.317722 1.510137 -2.258955 0 CFG=1
M  V30 15 O -1.824216 2.589678 -3.033417 0
M  V30 16 C 1.895219 0.021854 -0.363133 0
M  V30 17 C 2.344821 -0.473640 -1.575119 0
M  V30 18 N 3.654260 -0.857898 -1.430734 0
M  V30 19 C 4.081402 -0.637131 -0.141038 0
M  V30 20 C 5.439244 -0.938091 0.317244 0
M  V30 21 C 6.056953 -0.123888 1.276363 0
M  V30 22 C 7.353985 -0.397809 1.718592 0
M  V30 23 C 8.047712 -1.492917 1.209608 0
M  V30 24 C 7.444444 -2.315596 0.261190 0
M  V30 25 C 6.147432 -2.040500 -0.182084 0
M  V30 26 C 3.002775 -0.088691 0.532007 0
M  V30 27 H 0.106896 0.659555 -2.016252 0
M  V30 28 H -1.356392 2.333422 -0.495999 0
M  V30 29 H -2.279918 -0.456129 0.117644 0
M  V30 30 H -2.583272 1.060283 0.966016 0
M  V30 31 H -4.115299 -0.291928 -1.225595 0
M  V30 32 H -6.001740 1.222974 -0.369711 0
M  V30 33 H -4.883954 1.853076 0.842727 0
M  V30 34 H -6.735117 -1.274583 -0.213274 0
M  V30 35 H -6.854480 -2.866055 2.046221 0
M  V30 36 H -4.375823 0.391584 2.876121 0
M  V30 37 H -4.461496 1.617105 -2.636764 0
M  V30 38 H -3.884287 2.750482 -1.414010 0
M  V30 39 H -2.244891 0.599359 -2.866001 0
M  V30 40 H -1.838717 3.396323 -2.489262 0
M  V30 41 H 1.855433 -0.597847 -2.531067 0
M  V30 42 H 4.232916 -1.235249 -2.169123 0
M  V30 43 H 5.535757 0.739832 1.682851 0
M  V30 44 H 7.819480 0.244892 2.461285 0
M  V30 45 H 9.055072 -1.707965 1.556350 0
M  V30 46 H 7.979959 -3.177389 -0.128583 0
M  V30 47 H 5.692729 -2.713665 -0.903633 0
M  V30 48 H 2.992787 0.201894 1.576127 0
M  V30 END ATOM
M  V30 BEGIN BOND
M  V30 1 2 1 2
M  V30 2 1 2 3
M  V30 3 1 3 4
M  V30 4 1 4 5
M  V30 5 1 5 6
M  V30 6 1 6 7
M  V30 7 1 7 8
M  V30 8 1 8 9
M  V30 9 2 9 10
M  V30 10 1 10 11
M  V30 11 2 11 12
M  V30 12 1 6 13
M  V30 13 1 13 14
M  V30 14 1 14 15
M  V30 15 1 2 16
M  V30 16 2 16 17
M  V30 17 1 17 18
M  V30 18 1 18 19
M  V30 19 1 19 20
M  V30 20 2 20 21
M  V30 21 1 21 22
M  V30 22 2 22 23
M  V30 23 1 23 24
M  V30 24 2 24 25
M  V30 25 2 19 26
M  V30 26 1 14 4
M  V30 27 1 26 16
M  V30 28 1 12 8
M  V30 29 1 25 20
M  V30 30 1 3 27
M  V30 31 1 4 28 CFG=1
M  V30 32 1 5 29
M  V30 33 1 5 30
M  V30 34 1 6 31
M  V30 35 1 7 32
M  V30 36 1 7 33
M  V30 37 1 9 34
M  V30 38 1 10 35
M  V30 39 1 12 36
M  V30 40 1 13 37
M  V30 41 1 13 38
M  V30 42 1 14 39 CFG=3
M  V30 43 1 15 40
M  V30 44 1 17 41
M  V30 45 1 18 42
M  V30 46 1 21 43
M  V30 47 1 22 44
M  V30 48 1 23 45
M  V30 49 1 24 46
M  V30 50 1 25 47
M  V30 51 1 26 48
M  V30 END BOND
M  V30 BEGIN COLLECTION
M  V30 MDLV30/STERAC1 ATOMS=(2 4 14)
M  V30 END COLLECTION
M  V30 END CTAB
M  END
>  <_CXSMILES_Data>  (947) 
|&1:3,13|

$$$$
OCNT-2315201
     RDKit          3D

 48 50  0  0  0  0  0  0  0  0999 V2000
   -3.8408    1.5692    2.2804 C   0  0  0  0  0  0  0  0  0  0  0  0
   -3.2839    0.4894    1.5419 O   0  0  0  0  0  0  0  0  0  0  0  0
   -3.3634    0.5514    0.1749 C   0  0  0  0  0  0  0  0  0  0  0  0
   -4.0040    1.5693   -0.5393 C   0  0  0  0  0  0  0  0  0  0  0  0
   -4.0411    1.5395   -1.9353 C   0  0  0  0  0  0  0  0  0  0  0  0
   -3.4449    0.4910   -2.6279 C   0  0  0  0  0  0  0  0  0  0  0  0
   -2.8053   -0.5292   -1.9265 C   0  0  0  0  0  0  0  0  0  0  0  0
   -2.7480   -0.5073   -0.5234 C   0  0  0  0  0  0  0  0  0  0  0  0
   -2.0387   -1.6259    0.2140 C   0  0  0  0  0  0  0  0  0  0  0  0
   -0.6981   -1.2321    0.8862 C   0  0  0  0  0  0  0  0  0  0  0  0
   -0.3793   -2.2418    2.0004 C   0  0  0  0  0  0  0  0  0  0  0  0
    0.4805   -1.1936   -0.0137 N   0  0  0  0  0  0  0  0  0  0  0  0
    0.5890   -2.1156   -1.1374 C   0  0  0  0  0  0  0  0  0  0  0  0
    1.1362    0.0236   -0.2114 C   0  0  0  0  0  0  0  0  0  0  0  0
    0.4556    1.1905   -0.5890 C   0  0  0  0  0  0  0  0  0  0  0  0
    1.1480    2.3759   -0.8045 C   0  0  0  0  0  0  0  0  0  0  0  0
    2.4804    2.5424   -0.6832 N   0  0  0  0  0  0  0  0  0  0  0  0
    3.1094    1.4096   -0.3089 C   0  0  0  0  0  0  0  0  0  0  0  0
    2.5373    0.1673   -0.0608 C   0  0  0  0  0  0  0  0  0  0  0  0
    3.6398   -0.6499    0.3290 C   0  0  0  0  0  0  0  0  0  0  0  0
    3.6209   -2.0712    0.7528 C   0  0  0  0  0  0  0  0  0  0  0  0
    4.8069    0.0129    0.2906 N   0  0  0  0  0  0  0  0  0  0  0  0
    4.4506    1.2569   -0.0943 N   0  0  0  0  0  0  0  0  0  0  0  0
    5.4658    2.2702   -0.2290 C   0  0  0  0  0  0  0  0  0  0  0  0
   -3.3477    2.5147    2.0313 H   0  0  0  0  0  0  0  0  0  0  0  0
   -3.6648    1.3727    3.3424 H   0  0  0  0  0  0  0  0  0  0  0  0
   -4.9232    1.6333    2.1291 H   0  0  0  0  0  0  0  0  0  0  0  0
   -4.4907    2.4003   -0.0399 H   0  0  0  0  0  0  0  0  0  0  0  0
   -4.5432    2.3342   -2.4814 H   0  0  0  0  0  0  0  0  0  0  0  0
   -3.4799    0.4653   -3.7141 H   0  0  0  0  0  0  0  0  0  0  0  0
   -2.3494   -1.3437   -2.4838 H   0  0  0  0  0  0  0  0  0  0  0  0
   -2.7390   -1.9849    0.9814 H   0  0  0  0  0  0  0  0  0  0  0  0
   -1.9095   -2.4865   -0.4527 H   0  0  0  0  0  0  0  0  0  0  0  0
   -0.8104   -0.2629    1.3883 H   0  0  0  0  0  0  0  0  0  0  0  0
   -1.1802   -2.2658    2.7470 H   0  0  0  0  0  0  0  0  0  0  0  0
   -0.2547   -3.2542    1.6010 H   0  0  0  0  0  0  0  0  0  0  0  0
    0.5481   -1.9709    2.5168 H   0  0  0  0  0  0  0  0  0  0  0  0
    1.6172   -2.1892   -1.5078 H   0  0  0  0  0  0  0  0  0  0  0  0
   -0.0409   -1.7966   -1.9732 H   0  0  0  0  0  0  0  0  0  0  0  0
    0.2906   -3.1259   -0.8394 H   0  0  0  0  0  0  0  0  0  0  0  0
   -0.6158    1.1850   -0.7381 H   0  0  0  0  0  0  0  0  0  0  0  0
    0.6059    3.2699   -1.1038 H   0  0  0  0  0  0  0  0  0  0  0  0
    4.5365   -2.3374    1.2918 H   0  0  0  0  0  0  0  0  0  0  0  0
    2.7785   -2.2708    1.4208 H   0  0  0  0  0  0  0  0  0  0  0  0
    3.5408   -2.7286   -0.1180 H   0  0  0  0  0  0  0  0  0  0  0  0
    5.9112    2.4423    0.7541 H   0  0  0  0  0  0  0  0  0  0  0  0
    6.2212    1.9103   -0.9323 H   0  0  0  0  0  0  0  0  0  0  0  0
    5.0265    3.1969   -0.6045 H   0  0  0  0  0  0  0  0  0  0  0  0
  1  2  1  0
  2  3  1  0
  3  4  2  0
  4  5  1  0
  5  6  2  0
  6  7  1  0
  7  8  2  0
  8  9  1  0
  9 10  1  0
 10 11  1  0
 10 12  1  0
 12 13  1  0
 12 14  1  0
 14 15  2  0
 15 16  1  0
 16 17  2  0
 17 18  1  0
 18 19  2  0
 19 20  1  0
 20 21  1  0
 20 22  2  0
 22 23  1  0
 23 24  1  0
  8  3  1  0
 19 14  1  0
 23 18  1  0
  1 25  1  0
  1 26  1  0
  1 27  1  0
  4 28  1  0
  5 29  1  0
  6 30  1  0
  7 31  1  0
  9 32  1  0
  9 33  1  0
 10 34  1  0
 11 35  1  0
 11 36  1  0
 11 37  1  0
 13 38  1  0
 13 39  1  0
 13 40  1  0
 15 41  1  0
 16 42  1  0
 21 43  1  0
 21 44  1  0
 21 45  1  0
 24 46  1  0
 24 47  1  0
 24 48  1  0
M  END
$$$$
OCNT-2315218
     RDKit          3D

 44 48  0  0  0  0  0  0  0  0999 V2000
   -5.3395    2.7792    0.6495 C   0  0  0  0  0  0  0  0  0  0  0  0
   -5.0717    1.2859    0.7419 C   0  0  0  0  0  0  0  0  0  0  0  0
   -3.6789    0.9714    1.3104 C   0  0  0  0  0  0  0  0  0  0  0  0
   -3.3437   -0.2060    0.4775 C   0  0  0  0  0  0  0  0  0  0  0  0
   -2.3091   -1.1145    0.6103 C   0  0  0  0  0  0  0  0  0  0  0  0
   -2.1861   -2.1047   -0.3733 C   0  0  0  0  0  0  0  0  0  0  0  0
   -0.8775   -3.2989   -0.2538 S   0  0  0  0  0  0  0  0  0  0  0  0
   -0.2585   -3.1899    1.0494 O   0  0  0  0  0  0  0  0  0  0  0  0
   -1.3997   -4.5629   -0.7291 O   0  0  0  0  0  0  0  0  0  0  0  0
    0.2132   -2.7700   -1.4364 N   0  0  0  0  0  0  0  0  0  0  0  0
    1.0864   -1.6978   -1.1024 C   0  0  0  0  0  0  0  0  0  0  0  0
    0.6655   -0.3824   -1.3395 C   0  0  0  0  0  0  0  0  0  0  0  0
    1.4748    0.7101   -0.9907 C   0  0  0  0  0  0  0  0  0  0  0  0
    2.7128    0.4466   -0.3922 C   0  0  0  0  0  0  0  0  0  0  0  0
    3.6974    1.2893    0.0502 N   0  0  0  0  0  0  0  0  0  0  0  0
    4.6224    0.4733    0.5240 C   0  0  0  0  0  0  0  0  0  0  0  0
    5.9625    0.9675    1.1521 C   0  0  0  0  0  0  0  0  0  0  0  0
    6.0058    2.2950    1.8636 C   0  0  0  0  0  0  0  0  0  0  0  0
    6.6820    2.1368    0.5313 C   0  0  0  0  0  0  0  0  0  0  0  0
    4.3138   -0.8594    0.4189 O   0  0  0  0  0  0  0  0  0  0  0  0
    3.0850   -0.8685   -0.1709 C   0  0  0  0  0  0  0  0  0  0  0  0
    2.3176   -1.9792   -0.5004 C   0  0  0  0  0  0  0  0  0  0  0  0
   -3.0879   -2.1833   -1.4527 C   0  0  0  0  0  0  0  0  0  0  0  0
   -4.1187   -1.2483   -1.5684 C   0  0  0  0  0  0  0  0  0  0  0  0
   -4.2243   -0.2779   -0.5917 C   0  0  0  0  0  0  0  0  0  0  0  0
   -5.1777    0.7058   -0.5854 O   0  0  0  0  0  0  0  0  0  0  0  0
   -6.3369    2.9619    0.2354 H   0  0  0  0  0  0  0  0  0  0  0  0
   -5.2750    3.2550    1.6325 H   0  0  0  0  0  0  0  0  0  0  0  0
   -4.6266    3.2647   -0.0259 H   0  0  0  0  0  0  0  0  0  0  0  0
   -5.8479    0.8159    1.3614 H   0  0  0  0  0  0  0  0  0  0  0  0
   -2.9616    1.7782    1.1267 H   0  0  0  0  0  0  0  0  0  0  0  0
   -3.7220    0.7481    2.3799 H   0  0  0  0  0  0  0  0  0  0  0  0
   -1.6124   -1.0510    1.4412 H   0  0  0  0  0  0  0  0  0  0  0  0
    0.6106   -3.5667   -1.9342 H   0  0  0  0  0  0  0  0  0  0  0  0
   -0.2964   -0.1918   -1.8111 H   0  0  0  0  0  0  0  0  0  0  0  0
    1.1571    1.7301   -1.1761 H   0  0  0  0  0  0  0  0  0  0  0  0
    6.5730    0.1688    1.5584 H   0  0  0  0  0  0  0  0  0  0  0  0
    6.6292    2.3760    2.7459 H   0  0  0  0  0  0  0  0  0  0  0  0
    5.1000    2.8903    1.9032 H   0  0  0  0  0  0  0  0  0  0  0  0
    6.2305    2.6265   -0.3247 H   0  0  0  0  0  0  0  0  0  0  0  0
    7.7648    2.1109    0.5087 H   0  0  0  0  0  0  0  0  0  0  0  0
    2.6535   -2.9839   -0.2814 H   0  0  0  0  0  0  0  0  0  0  0  0
   -2.9849   -2.9664   -2.2009 H   0  0  0  0  0  0  0  0  0  0  0  0
   -4.8211   -1.2835   -2.3941 H   0  0  0  0  0  0  0  0  0  0  0  0
  1  2  1  0
  2  3  1  0
  3  4  1  0
  4  5  1  0
  5  6  2  0
  6  7  1  0
  7  8  2  0
  7  9  2  0
  7 10  1  0
 10 11  1  0
 11 12  2  0
 12 13  1  0
 13 14  2  0
 14 15  1  0
 15 16  2  0
 16 17  1  0
 17 18  1  0
 18 19  1  0
 16 20  1  0
 20 21  1  0
 21 22  2  0
  6 23  1  0
 23 24  2  0
 24 25  1  0
 25 26  1  0
 26  2  1  0
 25  4  2  0
 22 11  1  0
 21 14  1  0
 19 17  1  0
  1 27  1  0
  1 28  1  0
  1 29  1  0
  2 30  1  0
  3 31  1  0
  3 32  1  0
  5 33  1  0
 10 34  1  0
 12 35  1  0
 13 36  1  0
 17 37  1  0
 18 38  1  0
 18 39  1  0
 19 40  1  0
 19 41  1  0
 22 42  1  0
 23 43  1  0
 24 44  1  0
M  END
$$$$
OCNT-2315230
     RDKit          3D

 42 44  0  0  0  0  0  0  0  0999 V2000
   -5.5902    0.8632    0.1331 C   0  0  0  0  0  0  0  0  0  0  0  0
   -4.2227    0.1995    0.3785 C   0  0  0  0  0  0  0  0  0  0  0  0
   -4.4359   -0.9381    1.3978 C   0  0  0  0  0  0  0  0  0  0  0  0
   -3.2433    1.2438    0.9426 C   0  0  0  0  0  0  0  0  0  0  0  0
   -1.8116    0.7172    1.0438 C   0  0  0  0  0  0  0  0  0  0  0  0
   -1.4630   -0.2630   -0.0831 C   0  0  0  0  0  0  0  0  0  0  0  0
   -0.0120   -0.1274   -0.5544 C   0  0  0  0  0  0  0  0  0  0  0  0
    0.9952   -0.5357    0.5159 C   0  0  0  0  0  0  0  0  0  0  0  0
    2.3602   -0.4111    0.0371 N   0  0  0  0  0  0  0  0  0  0  0  0
    3.0209    0.7937    0.0915 C   0  0  0  0  0  0  0  0  0  0  0  0
    2.5458    1.8096    0.5856 O   0  0  0  0  0  0  0  0  0  0  0  0
    4.3522    0.8044   -0.5407 C   0  0  0  0  0  0  0  0  0  0  0  0
    4.8044    1.9062   -1.1724 C   0  0  0  0  0  0  0  0  0  0  0  0
    6.4151    1.6913   -1.8762 S   0  0  0  0  0  0  0  0  0  0  0  0
    6.4349    0.0760   -1.2515 C   0  0  0  0  0  0  0  0  0  0  0  0
    7.2207   -1.0356   -1.1957 C   0  0  0  0  0  0  0  0  0  0  0  0
    6.5689   -2.0146   -0.4677 N   0  0  0  0  0  0  0  0  0  0  0  0
    5.4208   -1.4785   -0.0899 C   0  0  0  0  0  0  0  0  0  0  0  0
    5.2837   -0.2104   -0.5764 N   0  0  0  0  0  0  0  0  0  0  0  0
   -2.3119   -0.0227   -1.2063 O   0  0  0  0  0  0  0  0  0  0  0  0
   -3.6766   -0.3745   -0.9527 C   0  0  0  0  0  0  0  0  0  0  0  0
   -5.5064    1.6904   -0.5808 H   0  0  0  0  0  0  0  0  0  0  0  0
   -6.3120    0.1451   -0.2722 H   0  0  0  0  0  0  0  0  0  0  0  0
   -6.0063    1.2687    1.0624 H   0  0  0  0  0  0  0  0  0  0  0  0
   -5.1681   -1.6651    1.0278 H   0  0  0  0  0  0  0  0  0  0  0  0
   -3.5115   -1.4842    1.6078 H   0  0  0  0  0  0  0  0  0  0  0  0
   -4.8112   -0.5471    2.3505 H   0  0  0  0  0  0  0  0  0  0  0  0
   -3.2369    2.1207    0.2804 H   0  0  0  0  0  0  0  0  0  0  0  0
   -3.5721    1.6075    1.9239 H   0  0  0  0  0  0  0  0  0  0  0  0
   -1.6545    0.2221    2.0099 H   0  0  0  0  0  0  0  0  0  0  0  0
   -1.1342    1.5803    1.0381 H   0  0  0  0  0  0  0  0  0  0  0  0
   -1.6200   -1.2967    0.2506 H   0  0  0  0  0  0  0  0  0  0  0  0
    0.1345   -0.7472   -1.4493 H   0  0  0  0  0  0  0  0  0  0  0  0
    0.1751    0.9010   -0.8902 H   0  0  0  0  0  0  0  0  0  0  0  0
    0.8821    0.0746    1.4179 H   0  0  0  0  0  0  0  0  0  0  0  0
    0.8512   -1.5849    0.7948 H   0  0  0  0  0  0  0  0  0  0  0  0
    2.6979   -1.1398   -0.5782 H   0  0  0  0  0  0  0  0  0  0  0  0
    4.2653    2.8411   -1.2697 H   0  0  0  0  0  0  0  0  0  0  0  0
    8.2032   -1.1999   -1.6174 H   0  0  0  0  0  0  0  0  0  0  0  0
    4.6787   -1.9617    0.5308 H   0  0  0  0  0  0  0  0  0  0  0  0
   -3.7630   -1.4672   -0.9895 H   0  0  0  0  0  0  0  0  0  0  0  0
   -4.2473    0.0069   -1.8067 H   0  0  0  0  0  0  0  0  0  0  0  0
  1  2  1  0
  2  3  1  0
  2  4  1  0
  4  5  1  0
  5  6  1  0
  6  7  1  0
  7  8  1  0
  8  9  1  0
  9 10  1  0
 10 11  2  0
 10 12  1  0
 12 13  2  0
 13 14  1  0
 14 15  1  0
 15 16  2  0
 16 17  1  0
 17 18  2  0
 18 19  1  0
  6 20  1  0
 20 21  1  0
 21  2  1  0
 19 12  1  0
 19 15  1  0
  1 22  1  0
  1 23  1  0
  1 24  1  0
  3 25  1  0
  3 26  1  0
  3 27  1  0
  4 28  1  0
  4 29  1  0
  5 30  1  0
  5 31  1  0
  6 32  1  0
  7 33  1  0
  7 34  1  0
  8 35  1  0
  8 36  1  0
  9 37  1  0
 13 38  1  0
 16 39  1  0
 18 40  1  0
 21 41  1  0
 21 42  1  0
M  END
$$$$
OCNT-2315245
     RDKit          3D

 40 43  0  0  0  0  0  0  0  0999 V2000
   -5.3703   -1.9991   -2.4278 O   0  0  0  0  0  0  0  0  0  0  0  0
   -4.6323   -1.3672   -1.6810 C   0  0  0  0  0  0  0  0  0  0  0  0
   -3.5500   -0.6585   -2.1465 N   0  0  0  0  0  0  0  0  0  0  0  0
   -2.6937    0.0858   -1.3919 N   0  0  0  0  0  0  0  0  0  0  0  0
   -2.9016    0.1350   -0.1047 C   0  0  0  0  0  0  0  0  0  0  0  0
   -1.9137    0.9866    0.6884 C   0  0  0  0  0  0  0  0  0  0  0  0
   -2.2934    1.7516    1.5588 O   0  0  0  0  0  0  0  0  0  0  0  0
   -0.6088    0.8140    0.2862 N   0  0  0  0  0  0  0  0  0  0  0  0
    0.4183    1.7100    0.7514 C   0  0  0  0  0  0  0  0  0  0  0  0
    1.7780    1.2180    0.3612 C   0  0  0  0  0  0  0  0  0  0  0  0
    2.3677    1.5745   -0.8531 C   0  0  0  0  0  0  0  0  0  0  0  0
    3.6270    1.0762   -1.1909 C   0  0  0  0  0  0  0  0  0  0  0  0
    4.2669    0.2197   -0.2994 C   0  0  0  0  0  0  0  0  0  0  0  0
    5.5509   -0.3100   -0.6030 N   0  0  0  0  0  0  0  0  0  0  0  0
    6.3355   -0.1037   -1.7171 C   0  0  0  0  0  0  0  0  0  0  0  0
    7.4768   -0.8449   -1.5144 C   0  0  0  0  0  0  0  0  0  0  0  0
    7.4266   -1.5009   -0.3174 N   0  0  0  0  0  0  0  0  0  0  0  0
    6.2675   -1.1642    0.2062 C   0  0  0  0  0  0  0  0  0  0  0  0
    3.7070   -0.1487    0.8820 N   0  0  0  0  0  0  0  0  0  0  0  0
    2.4862    0.3504    1.1815 C   0  0  0  0  0  0  0  0  0  0  0  0
   -3.9909   -0.5897    0.5785 C   0  0  0  0  0  0  0  0  0  0  0  0
   -4.1811   -0.5788    1.9651 C   0  0  0  0  0  0  0  0  0  0  0  0
   -5.2372   -1.2996    2.5315 C   0  0  0  0  0  0  0  0  0  0  0  0
   -6.1014   -2.0357    1.7218 C   0  0  0  0  0  0  0  0  0  0  0  0
   -5.9105   -2.0565    0.3412 C   0  0  0  0  0  0  0  0  0  0  0  0
   -4.8528   -1.3345   -0.2250 C   0  0  0  0  0  0  0  0  0  0  0  0
   -3.3907   -0.6672   -3.1499 H   0  0  0  0  0  0  0  0  0  0  0  0
   -0.4912    0.3539   -0.6123 H   0  0  0  0  0  0  0  0  0  0  0  0
    0.2278    2.7007    0.3216 H   0  0  0  0  0  0  0  0  0  0  0  0
    0.3393    1.8191    1.8398 H   0  0  0  0  0  0  0  0  0  0  0  0
    1.8535    2.2418   -1.5418 H   0  0  0  0  0  0  0  0  0  0  0  0
    4.0662    1.3710   -2.1366 H   0  0  0  0  0  0  0  0  0  0  0  0
    6.0439    0.5275   -2.5417 H   0  0  0  0  0  0  0  0  0  0  0  0
    8.3326   -0.9389   -2.1710 H   0  0  0  0  0  0  0  0  0  0  0  0
    5.8879   -1.5016    1.1623 H   0  0  0  0  0  0  0  0  0  0  0  0
    2.0804    0.0164    2.1338 H   0  0  0  0  0  0  0  0  0  0  0  0
   -3.5297   -0.0170    2.6296 H   0  0  0  0  0  0  0  0  0  0  0  0
   -5.3864   -1.2842    3.6095 H   0  0  0  0  0  0  0  0  0  0  0  0
   -6.9223   -2.5945    2.1660 H   0  0  0  0  0  0  0  0  0  0  0  0
   -6.5818   -2.6351   -0.2906 H   0  0  0  0  0  0  0  0  0  0  0  0
  1  2  2  0
  2  3  1  0
  3  4  1  0
  4  5  2  0
  5  6  1  0
  6  7  2  0
  6  8  1  0
  8  9  1  0
  9 10  1  0
 10 11  2  0
 11 12  1  0
 12 13  2  0
 13 14  1  0
 14 15  1  0
 15 16  2  0
 16 17  1  0
 17 18  2  0
 13 19  1  0
 19 20  2  0
  5 21  1  0
 21 22  2  0
 22 23  1  0
 23 24  2  0
 24 25  1  0
 25 26  2  0
 26  2  1  0
 20 10  1  0
 26 21  1  0
 18 14  1  0
  3 27  1  0
  8 28  1  0
  9 29  1  0
  9 30  1  0
 11 31  1  0
 12 32  1  0
 15 33  1  0
 16 34  1  0
 18 35  1  0
 20 36  1  0
 22 37  1  0
 23 38  1  0
 24 39  1  0
 25 40  1  0
M  END
$$$$
OCNT-2315252
     RDKit          3D

 51 53  0  0  0  0  0  0  0  0999 V2000
    7.7709    2.9722    1.0493 C   0  0  0  0  0  0  0  0  0  0  0  0
    7.3169    1.6249    1.0408 O   0  0  0  0  0  0  0  0  0  0  0  0
    5.9742    1.4253    0.8665 C   0  0  0  0  0  0  0  0  0  0  0  0
    5.0027    2.4212    0.7843 C   0  0  0  0  0  0  0  0  0  0  0  0
    3.6610    2.0714    0.6089 C   0  0  0  0  0  0  0  0  0  0  0  0
    3.2835    0.7288    0.5110 C   0  0  0  0  0  0  0  0  0  0  0  0
    4.2479   -0.2744    0.5846 C   0  0  0  0  0  0  0  0  0  0  0  0
    4.0221   -1.6230    0.5071 O   0  0  0  0  0  0  0  0  0  0  0  0
    2.7239   -2.0642    0.1042 C   0  0  0  0  0  0  0  0  0  0  0  0
    1.8334   -2.3035    1.3271 C   0  0  0  0  0  0  0  0  0  0  0  0
    0.4995   -2.7696    0.9827 N   0  0  0  0  0  0  0  0  0  0  0  0
   -0.4142   -1.8759    0.4531 C   0  0  0  0  0  0  0  0  0  0  0  0
   -0.1263   -0.7133    0.2037 O   0  0  0  0  0  0  0  0  0  0  0  0
   -1.6247   -2.4977    0.2375 N   0  0  0  0  0  0  0  0  0  0  0  0
   -2.8306   -1.8948   -0.1892 C   0  0  0  0  0  0  0  0  0  0  0  0
   -3.0281   -0.5067   -0.1131 C   0  0  0  0  0  0  0  0  0  0  0  0
   -4.2272    0.1035   -0.5275 C   0  0  0  0  0  0  0  0  0  0  0  0
   -4.4093    1.5628   -0.4329 C   0  0  0  0  0  0  0  0  0  0  0  0
   -3.4114    2.4659   -0.8266 C   0  0  0  0  0  0  0  0  0  0  0  0
   -3.6167    3.8407   -0.7168 C   0  0  0  0  0  0  0  0  0  0  0  0
   -4.8262    4.2864   -0.2146 C   0  0  0  0  0  0  0  0  0  0  0  0
   -5.8204    3.4634    0.1762 N   0  0  0  0  0  0  0  0  0  0  0  0
   -5.5850    2.1325    0.0619 C   0  0  0  0  0  0  0  0  0  0  0  0
   -5.2407   -0.7258   -1.0252 C   0  0  0  0  0  0  0  0  0  0  0  0
   -5.0712   -2.1105   -1.0896 C   0  0  0  0  0  0  0  0  0  0  0  0
   -3.8732   -2.7105   -0.6710 C   0  0  0  0  0  0  0  0  0  0  0  0
   -3.7535   -4.2071   -0.7604 C   0  0  0  0  0  0  0  0  0  0  0  0
    5.5868    0.0833    0.7714 C   0  0  0  0  0  0  0  0  0  0  0  0
    8.8617    2.9561    1.1436 H   0  0  0  0  0  0  0  0  0  0  0  0
    7.3691    3.5179    1.9102 H   0  0  0  0  0  0  0  0  0  0  0  0
    7.5267    3.4794    0.1100 H   0  0  0  0  0  0  0  0  0  0  0  0
    5.2526    3.4750    0.8565 H   0  0  0  0  0  0  0  0  0  0  0  0
    2.9008    2.8464    0.5518 H   0  0  0  0  0  0  0  0  0  0  0  0
    2.2272    0.5085    0.3857 H   0  0  0  0  0  0  0  0  0  0  0  0
    2.8696   -3.0226   -0.4095 H   0  0  0  0  0  0  0  0  0  0  0  0
    2.2740   -1.4069   -0.6482 H   0  0  0  0  0  0  0  0  0  0  0  0
    1.7453   -1.3966    1.9365 H   0  0  0  0  0  0  0  0  0  0  0  0
    2.2911   -3.0668    1.9672 H   0  0  0  0  0  0  0  0  0  0  0  0
    0.0912   -3.4339    1.6255 H   0  0  0  0  0  0  0  0  0  0  0  0
   -1.5657   -3.5019    0.1755 H   0  0  0  0  0  0  0  0  0  0  0  0
   -2.2505    0.1288    0.3046 H   0  0  0  0  0  0  0  0  0  0  0  0
   -2.4675    2.1041   -1.2287 H   0  0  0  0  0  0  0  0  0  0  0  0
   -2.8490    4.5451   -1.0179 H   0  0  0  0  0  0  0  0  0  0  0  0
   -5.0340    5.3474   -0.1111 H   0  0  0  0  0  0  0  0  0  0  0  0
   -6.4055    1.5103    0.4103 H   0  0  0  0  0  0  0  0  0  0  0  0
   -6.1792   -0.3015   -1.3792 H   0  0  0  0  0  0  0  0  0  0  0  0
   -5.8865   -2.7176   -1.4789 H   0  0  0  0  0  0  0  0  0  0  0  0
   -4.6449   -4.6581   -1.2111 H   0  0  0  0  0  0  0  0  0  0  0  0
   -2.8999   -4.4852   -1.3867 H   0  0  0  0  0  0  0  0  0  0  0  0
   -3.6334   -4.6377    0.2389 H   0  0  0  0  0  0  0  0  0  0  0  0
    6.3428   -0.6956    0.8367 H   0  0  0  0  0  0  0  0  0  0  0  0
  1  2  1  0
  2  3  1  0
  3  4  1  0
  4  5  2  0
  5  6  1  0
  6  7  2  0
  7  8  1  0
  8  9  1  0
  9 10  1  0
 10 11  1  0
 11 12  1  0
 12 13  2  0
 12 14  1  0
 14 15  1  0
 15 16  1  0
 16 17  2  0
 17 18  1  0
 18 19  1  0
 19 20  2  0
 20 21  1  0
 21 22  2  0
 22 23  1  0
 17 24  1  0
 24 25  2  0
 25 26  1  0
 26 27  1  0
  7 28  1  0
 28  3  2  0
 26 15  2  0
 23 18  2  0
  1 29  1  0
  1 30  1  0
  1 31  1  0
  4 32  1  0
  5 33  1  0
  6 34  1  0
  9 35  1  0
  9 36  1  0
 10 37  1  0
 10 38  1  0
 11 39  1  0
 14 40  1  0
 16 41  1  0
 19 42  1  0
 20 43  1  0
 21 44  1  0
 23 45  1  0
 24 46  1  0
 25 47  1  0
 27 48  1  0
 27 49  1  0
 27 50  1  0
 28 51  1  0
M  END
$$$$
OCNT-2315259
     RDKit          3D

 37 39  0  0  0  0  0  0  0  0999 V2000
   -3.1781    1.7145   -0.8101 C   0  0  0  0  0  0  0  0  0  0  0  0
   -3.7169    0.3707   -0.3986 C   0  0  0  0  0  0  0  0  0  0  0  0
   -4.9065    0.3217    0.3500 C   0  0  0  0  0  0  0  0  0  0  0  0
   -5.4465   -0.8994    0.7499 C   0  0  0  0  0  0  0  0  0  0  0  0
   -6.9022   -0.9316    1.6673 Cl  0  0  0  0  0  0  0  0  0  0  0  0
   -4.8167   -2.0906    0.4123 C   0  0  0  0  0  0  0  0  0  0  0  0
   -3.6376   -2.0592   -0.3325 C   0  0  0  0  0  0  0  0  0  0  0  0
   -3.0707   -0.8368   -0.7490 C   0  0  0  0  0  0  0  0  0  0  0  0
   -1.7861   -0.8734   -1.5541 C   0  0  0  0  0  0  0  0  0  0  0  0
   -0.6747   -0.9735   -0.5739 C   0  0  0  0  0  0  0  0  0  0  0  0
   -0.1463   -2.1491   -0.2004 N   0  0  0  0  0  0  0  0  0  0  0  0
    0.8644   -1.7791    0.6875 O   0  0  0  0  0  0  0  0  0  0  0  0
    0.8529   -0.4152    0.7419 C   0  0  0  0  0  0  0  0  0  0  0  0
    1.8417    0.2260    1.6420 C   0  0  0  0  0  0  0  0  0  0  0  0
    3.1757    0.4665    0.9736 C   0  0  0  0  0  0  0  0  0  0  0  0
    4.2364   -0.4340    1.1524 C   0  0  0  0  0  0  0  0  0  0  0  0
    5.4620   -0.2143    0.5219 C   0  0  0  0  0  0  0  0  0  0  0  0
    5.6294    0.8991   -0.2923 C   0  0  0  0  0  0  0  0  0  0  0  0
    6.8431    1.0729   -0.8885 O   0  0  0  0  0  0  0  0  0  0  0  0
    4.5887    1.7999   -0.4906 C   0  0  0  0  0  0  0  0  0  0  0  0
    3.3620    1.5816    0.1406 C   0  0  0  0  0  0  0  0  0  0  0  0
   -0.0677    0.1307   -0.0223 N   0  0  0  0  0  0  0  0  0  0  0  0
   -3.1838    1.8071   -1.9006 H   0  0  0  0  0  0  0  0  0  0  0  0
   -3.7868    2.5317   -0.4084 H   0  0  0  0  0  0  0  0  0  0  0  0
   -2.1611    1.8548   -0.4336 H   0  0  0  0  0  0  0  0  0  0  0  0
   -5.4156    1.2430    0.6251 H   0  0  0  0  0  0  0  0  0  0  0  0
   -5.2325   -3.0443    0.7252 H   0  0  0  0  0  0  0  0  0  0  0  0
   -3.1510   -3.0013   -0.5832 H   0  0  0  0  0  0  0  0  0  0  0  0
   -1.6725    0.0155   -2.1818 H   0  0  0  0  0  0  0  0  0  0  0  0
   -1.7925   -1.7324   -2.2359 H   0  0  0  0  0  0  0  0  0  0  0  0
    1.9808   -0.3885    2.5402 H   0  0  0  0  0  0  0  0  0  0  0  0
    1.4430    1.1837    1.9996 H   0  0  0  0  0  0  0  0  0  0  0  0
    4.1178   -1.3143    1.7806 H   0  0  0  0  0  0  0  0  0  0  0  0
    6.2829   -0.9119    0.6623 H   0  0  0  0  0  0  0  0  0  0  0  0
    6.8084    1.8767   -1.4321 H   0  0  0  0  0  0  0  0  0  0  0  0
    4.7096    2.6688   -1.1296 H   0  0  0  0  0  0  0  0  0  0  0  0
    2.5468    2.2839   -0.0253 H   0  0  0  0  0  0  0  0  0  0  0  0
  1  2  1  0
  2  3  1  0
  3  4  2  0
  4  5  1  0
  4  6  1  0
  6  7  2  0
  7  8  1  0
  8  9  1  0
  9 10  1  0
 10 11  2  0
 11 12  1  0
 12 13  1  0
 13 14  1  0
 14 15  1  0
 15 16  1  0
 16 17  2  0
 17 18  1  0
 18 19  1  0
 18 20  2  0
 20 21  1  0
 13 22  2  0
  8  2  2  0
 22 10  1  0
 21 15  2  0
  1 23  1  0
  1 24  1  0
  1 25  1  0
  3 26  1  0
  6 27  1  0
  7 28  1  0
  9 29  1  0
  9 30  1  0
 14 31  1  0
 14 32  1  0
 16 33  1  0
 17 34  1  0
 19 35  1  0
 20 36  1  0
 21 37  1  0
M  END
$$$$
OCNT-2315261
     RDKit          3D

 45 47  0  0  0  0  0  0  0  0999 V2000
    5.7624   -0.2671   -0.5409 C   0  0  0  0  0  0  0  0  0  0  0  0
    5.2137    1.0923   -0.5071 N   0  0  0  0  0  0  0  0  0  0  0  0
    6.2330    2.0977   -0.1829 C   0  0  0  0  0  0  0  0  0  0  0  0
    4.0659    1.2237    0.2183 C   0  0  0  0  0  0  0  0  0  0  0  0
    3.9307    1.7716    1.4059 N   0  0  0  0  0  0  0  0  0  0  0  0
    2.6062    1.6588    1.7266 C   0  0  0  0  0  0  0  0  0  0  0  0
    1.9000    1.0495    0.7130 C   0  0  0  0  0  0  0  0  0  0  0  0
    0.4567    0.7091    0.6008 C   0  0  0  0  0  0  0  0  0  0  0  0
    0.2498   -0.7309    0.4823 N   0  0  0  0  0  0  0  0  0  0  0  0
   -1.0921   -1.1293    0.3855 C   0  0  0  0  0  0  0  0  0  0  0  0
   -1.3658   -2.4807    0.3520 C   0  0  0  0  0  0  0  0  0  0  0  0
   -2.6887   -2.8620    0.2161 C   0  0  0  0  0  0  0  0  0  0  0  0
   -3.0201   -4.3427    0.1619 C   0  0  0  0  0  0  0  0  0  0  0  0
   -2.5943   -4.9288   -0.9939 F   0  0  0  0  0  0  0  0  0  0  0  0
   -4.3501   -4.6217    0.2563 F   0  0  0  0  0  0  0  0  0  0  0  0
   -2.4225   -5.0457    1.1687 F   0  0  0  0  0  0  0  0  0  0  0  0
   -3.6832   -1.9482    0.1051 N   0  0  0  0  0  0  0  0  0  0  0  0
   -3.3312   -0.6517    0.1285 C   0  0  0  0  0  0  0  0  0  0  0  0
   -4.3953    0.3520    0.0013 C   0  0  0  0  0  0  0  0  0  0  0  0
   -5.7514    0.0076   -0.1196 C   0  0  0  0  0  0  0  0  0  0  0  0
   -6.7315    0.9935   -0.2377 C   0  0  0  0  0  0  0  0  0  0  0  0
   -6.3331    2.3175   -0.2325 C   0  0  0  0  0  0  0  0  0  0  0  0
   -5.0477    2.7068   -0.1198 N   0  0  0  0  0  0  0  0  0  0  0  0
   -4.1197    1.7202   -0.0072 C   0  0  0  0  0  0  0  0  0  0  0  0
   -2.0653   -0.2165    0.2612 N   0  0  0  0  0  0  0  0  0  0  0  0
    2.8423    0.8101   -0.2648 N   0  0  0  0  0  0  0  0  0  0  0  0
    2.5802    0.2711   -1.5784 C   0  0  0  0  0  0  0  0  0  0  0  0
    6.1100   -0.5779    0.4514 H   0  0  0  0  0  0  0  0  0  0  0  0
    6.6109   -0.3141   -1.2325 H   0  0  0  0  0  0  0  0  0  0  0  0
    5.0231   -0.9944   -0.8923 H   0  0  0  0  0  0  0  0  0  0  0  0
    5.8200    3.1108   -0.2546 H   0  0  0  0  0  0  0  0  0  0  0  0
    6.6394    1.9499    0.8247 H   0  0  0  0  0  0  0  0  0  0  0  0
    7.0607    2.0374   -0.8983 H   0  0  0  0  0  0  0  0  0  0  0  0
    2.2289    2.0244    2.6729 H   0  0  0  0  0  0  0  0  0  0  0  0
   -0.0625    1.0872    1.4918 H   0  0  0  0  0  0  0  0  0  0  0  0
    0.0390    1.2338   -0.2681 H   0  0  0  0  0  0  0  0  0  0  0  0
    0.7041   -1.2156    1.2521 H   0  0  0  0  0  0  0  0  0  0  0  0
   -0.5719   -3.2161    0.4183 H   0  0  0  0  0  0  0  0  0  0  0  0
   -6.0542   -1.0381   -0.1223 H   0  0  0  0  0  0  0  0  0  0  0  0
   -7.7792    0.7302   -0.3311 H   0  0  0  0  0  0  0  0  0  0  0  0
   -7.0568    3.1225   -0.3216 H   0  0  0  0  0  0  0  0  0  0  0  0
   -3.0991    2.0874    0.0794 H   0  0  0  0  0  0  0  0  0  0  0  0
    3.3545    0.5958   -2.2775 H   0  0  0  0  0  0  0  0  0  0  0  0
    2.5679   -0.8190   -1.5045 H   0  0  0  0  0  0  0  0  0  0  0  0
    1.6162    0.6396   -1.9368 H   0  0  0  0  0  0  0  0  0  0  0  0
  1  2  1  0
  2  3  1  0
  2  4  1  0
  4  5  2  0
  5  6  1  0
  6  7  2  0
  7  8  1  0
  8  9  1  0
  9 10  1  0
 10 11  2  0
 11 12  1  0
 12 13  1  0
 13 14  1  0
 13 15  1  0
 13 16  1  0
 12 17  2  0
 17 18  1  0
 18 19  1  0
 19 20  1  0
 20 21  2  0
 21 22  1  0
 22 23  2  0
 23 24  1  0
 18 25  2  0
  7 26  1  0
 26 27  1  0
 26  4  1  0
 25 10  1  0
 24 19  2  0
  1 28  1  0
  1 29  1  0
  1 30  1  0
  3 31  1  0
  3 32  1  0
  3 33  1  0
  6 34  1  0
  8 35  1  0
  8 36  1  0
  9 37  1  0
 11 38  1  0
 20 39  1  0
 21 40  1  0
 22 41  1  0
 24 42  1  0
 27 43  1  0
 27 44  1  0
 27 45  1  0
M  END
$$$$
OCNT-2315271
     RDKit          3D

 45 47  0  0  0  0  0  0  0  0999 V2000
    5.5849   -0.3368   -1.8353 C   0  0  0  0  0  0  0  0  0  0  0  0
    5.6530    0.4385   -0.6458 O   0  0  0  0  0  0  0  0  0  0  0  0
    4.4753    0.9101   -0.1260 C   0  0  0  0  0  0  0  0  0  0  0  0
    3.2039    0.5978   -0.6189 C   0  0  0  0  0  0  0  0  0  0  0  0
    2.0606    1.1348   -0.0101 C   0  0  0  0  0  0  0  0  0  0  0  0
    0.6931    0.8218   -0.5044 C   0  0  0  0  0  0  0  0  0  0  0  0
   -0.2086    1.6432   -0.3906 O   0  0  0  0  0  0  0  0  0  0  0  0
    0.5133   -0.4359   -1.0425 N   0  0  0  0  0  0  0  0  0  0  0  0
   -0.8026   -0.8886   -1.4618 C   0  0  0  0  0  0  0  0  0  0  0  0
   -1.6785   -1.3288   -0.2717 C   0  0  0  0  0  0  0  0  0  0  0  0
   -2.9311   -1.9825   -0.6973 N   0  0  0  0  0  0  0  0  0  0  0  0
   -3.5254   -2.7958    0.3922 C   0  0  0  0  0  0  0  0  0  0  0  0
   -4.0111   -2.0008    1.6252 C   0  0  0  0  0  0  0  0  0  0  0  0
   -4.6978   -0.7553    1.1702 C   0  0  0  0  0  0  0  0  0  0  0  0
   -4.6392   -0.2797   -0.1253 C   0  0  0  0  0  0  0  0  0  0  0  0
   -5.3514    0.9532   -0.2470 C   0  0  0  0  0  0  0  0  0  0  0  0
   -5.9119    1.3515    0.9486 C   0  0  0  0  0  0  0  0  0  0  0  0
   -5.5843    0.2460    2.2146 S   0  0  0  0  0  0  0  0  0  0  0  0
   -3.9261   -1.0164   -1.2258 C   0  0  0  0  0  0  0  0  0  0  0  0
    2.1888    2.0062    1.0742 C   0  0  0  0  0  0  0  0  0  0  0  0
    3.4532    2.3161    1.5721 C   0  0  0  0  0  0  0  0  0  0  0  0
    4.6021    1.7665    0.9845 C   0  0  0  0  0  0  0  0  0  0  0  0
    5.9583    2.1176    1.5337 C   0  0  0  0  0  0  0  0  0  0  0  0
    5.0514   -1.2770   -1.6616 H   0  0  0  0  0  0  0  0  0  0  0  0
    6.6087   -0.5855   -2.1311 H   0  0  0  0  0  0  0  0  0  0  0  0
    5.1308    0.2319   -2.6535 H   0  0  0  0  0  0  0  0  0  0  0  0
    3.0855   -0.0375   -1.4887 H   0  0  0  0  0  0  0  0  0  0  0  0
    1.2263   -1.1384   -0.9012 H   0  0  0  0  0  0  0  0  0  0  0  0
   -1.2787   -0.0778   -2.0225 H   0  0  0  0  0  0  0  0  0  0  0  0
   -0.6405   -1.7285   -2.1462 H   0  0  0  0  0  0  0  0  0  0  0  0
   -1.8607   -0.4795    0.3977 H   0  0  0  0  0  0  0  0  0  0  0  0
   -1.0839   -2.0481    0.3080 H   0  0  0  0  0  0  0  0  0  0  0  0
   -4.3759   -3.3496   -0.0293 H   0  0  0  0  0  0  0  0  0  0  0  0
   -2.8139   -3.5668    0.7136 H   0  0  0  0  0  0  0  0  0  0  0  0
   -3.1535   -1.7327    2.2539 H   0  0  0  0  0  0  0  0  0  0  0  0
   -4.6843   -2.6265    2.2218 H   0  0  0  0  0  0  0  0  0  0  0  0
   -5.4472    1.5221   -1.1638 H   0  0  0  0  0  0  0  0  0  0  0  0
   -6.4966    2.2400    1.1424 H   0  0  0  0  0  0  0  0  0  0  0  0
   -3.4703   -0.3118   -1.9288 H   0  0  0  0  0  0  0  0  0  0  0  0
   -4.6737   -1.5766   -1.8023 H   0  0  0  0  0  0  0  0  0  0  0  0
    1.3043    2.4419    1.5349 H   0  0  0  0  0  0  0  0  0  0  0  0
    3.5364    2.9924    2.4203 H   0  0  0  0  0  0  0  0  0  0  0  0
    5.8798    2.7527    2.4224 H   0  0  0  0  0  0  0  0  0  0  0  0
    6.5402    2.6629    0.7837 H   0  0  0  0  0  0  0  0  0  0  0  0
    6.4974    1.2101    1.8247 H   0  0  0  0  0  0  0  0  0  0  0  0
  1  2  1  0
  2  3  1  0
  3  4  1  0
  4  5  2  0
  5  6  1  0
  6  7  2  0
  6  8  1  0
  8  9  1  0
  9 10  1  0
 10 11  1  0
 11 12  1  0
 12 13  1  0
 13 14  1  0
 14 15  2  0
 15 16  1  0
 16 17  2  0
 17 18  1  0
 15 19  1  0
  5 20  1  0
 20 21  2  0
 21 22  1  0
 22 23  1  0
 22  3  2  0
 19 11  1  0
 18 14  1  0
  1 24  1  0
  1 25  1  0
  1 26  1  0
  4 27  1  0
  8 28  1  0
  9 29  1  0
  9 30  1  0
 10 31  1  0
 10 32  1  0
 12 33  1  0
 12 34  1  0
 13 35  1  0
 13 36  1  0
 16 37  1  0
 17 38  1  0
 19 39  1  0
 19 40  1  0
 20 41  1  0
 21 42  1  0
 23 43  1  0
 23 44  1  0
 23 45  1  0
M  END
$$$$
OCNT-2315273
     RDKit          3D

 58 62  0  0  0  0  0  0  0  0999 V2000
    5.8309    3.2018    1.7509 C   0  0  0  0  0  0  0  0  0  0  0  0
    5.4742    2.0520    0.8555 C   0  0  0  0  0  0  0  0  0  0  0  0
    6.2375    0.8791    0.8648 C   0  0  0  0  0  0  0  0  0  0  0  0
    5.9297   -0.1731    0.0007 C   0  0  0  0  0  0  0  0  0  0  0  0
    4.8614   -0.0654   -0.8989 C   0  0  0  0  0  0  0  0  0  0  0  0
    4.5207   -1.2114   -1.8158 C   0  0  0  0  0  0  0  0  0  0  0  0
    3.9036   -2.3281   -1.1196 N   0  0  0  0  0  0  0  0  0  0  0  0
    3.8753   -3.5915   -1.6973 C   0  0  0  0  0  0  0  0  0  0  0  0
    4.5348   -3.9719   -2.6510 O   0  0  0  0  0  0  0  0  0  0  0  0
    2.8525   -4.4232   -0.9639 C   0  0  0  0  0  0  0  0  0  0  0  0
    2.5433   -3.5907    0.2774 C   0  0  0  0  0  0  0  0  0  0  0  0
    2.8170   -2.1594   -0.1715 C   0  0  0  0  0  0  0  0  0  0  0  0
    1.5321   -1.5192   -0.7494 C   0  0  0  0  0  0  0  0  0  0  0  0
    1.3457   -1.4062   -1.9574 O   0  0  0  0  0  0  0  0  0  0  0  0
    0.6411   -1.1453    0.2475 N   0  0  0  0  0  0  0  0  0  0  0  0
   -0.6699   -0.6529    0.0759 C   0  0  0  0  0  0  0  0  0  0  0  0
   -1.3125   -0.5143   -1.1434 C   0  0  0  0  0  0  0  0  0  0  0  0
   -2.6338   -0.0521   -1.1827 C   0  0  0  0  0  0  0  0  0  0  0  0
   -3.3085    0.2796   -0.0069 C   0  0  0  0  0  0  0  0  0  0  0  0
   -4.6482    0.6834   -0.0430 N   0  0  0  0  0  0  0  0  0  0  0  0
   -4.9732    1.8015   -0.9576 C   0  0  0  0  0  0  0  0  0  0  0  0
   -6.4971    1.8892   -1.1994 C   0  0  0  0  0  0  0  0  0  0  0  0
   -7.2292    1.8345    0.1070 C   0  0  0  0  0  0  0  0  0  0  0  0
   -6.6839    1.3217    1.2675 C   0  0  0  0  0  0  0  0  0  0  0  0
   -7.6172    1.3768    2.3462 C   0  0  0  0  0  0  0  0  0  0  0  0
   -8.8249    1.9173    1.9566 C   0  0  0  0  0  0  0  0  0  0  0  0
   -8.8326    2.3539    0.2991 S   0  0  0  0  0  0  0  0  0  0  0  0
   -5.2641    0.8144    1.2999 C   0  0  0  0  0  0  0  0  0  0  0  0
   -2.6893    0.1408    1.1846 N   0  0  0  0  0  0  0  0  0  0  0  0
   -1.4089   -0.3060    1.2012 C   0  0  0  0  0  0  0  0  0  0  0  0
    4.1026    1.1119   -0.9128 C   0  0  0  0  0  0  0  0  0  0  0  0
    4.4107    2.1635   -0.0469 C   0  0  0  0  0  0  0  0  0  0  0  0
    4.9289    3.7090    2.1089 H   0  0  0  0  0  0  0  0  0  0  0  0
    6.4518    3.9202    1.2082 H   0  0  0  0  0  0  0  0  0  0  0  0
    6.3815    2.8589    2.6332 H   0  0  0  0  0  0  0  0  0  0  0  0
    7.0808    0.7789    1.5443 H   0  0  0  0  0  0  0  0  0  0  0  0
    6.5305   -1.0799    0.0262 H   0  0  0  0  0  0  0  0  0  0  0  0
    3.8429   -0.8886   -2.6149 H   0  0  0  0  0  0  0  0  0  0  0  0
    5.4318   -1.5614   -2.3182 H   0  0  0  0  0  0  0  0  0  0  0  0
    3.2613   -5.4029   -0.7009 H   0  0  0  0  0  0  0  0  0  0  0  0
    1.9685   -4.5388   -1.5992 H   0  0  0  0  0  0  0  0  0  0  0  0
    3.2415   -3.8680    1.0772 H   0  0  0  0  0  0  0  0  0  0  0  0
    1.5278   -3.7655    0.6432 H   0  0  0  0  0  0  0  0  0  0  0  0
    3.1641   -1.5531    0.6727 H   0  0  0  0  0  0  0  0  0  0  0  0
    0.9667   -1.2137    1.2045 H   0  0  0  0  0  0  0  0  0  0  0  0
   -0.8358   -0.7741   -2.0825 H   0  0  0  0  0  0  0  0  0  0  0  0
   -3.1360    0.0003   -2.1424 H   0  0  0  0  0  0  0  0  0  0  0  0
   -4.4914    1.6945   -1.9360 H   0  0  0  0  0  0  0  0  0  0  0  0
   -4.6116    2.7412   -0.5203 H   0  0  0  0  0  0  0  0  0  0  0  0
   -6.8179    1.0416   -1.8191 H   0  0  0  0  0  0  0  0  0  0  0  0
   -6.7267    2.8108   -1.7457 H   0  0  0  0  0  0  0  0  0  0  0  0
   -7.4157    1.0385    3.3549 H   0  0  0  0  0  0  0  0  0  0  0  0
   -9.7055    2.0774    2.5623 H   0  0  0  0  0  0  0  0  0  0  0  0
   -4.6877    1.5176    1.9183 H   0  0  0  0  0  0  0  0  0  0  0  0
   -5.2648   -0.1642    1.7977 H   0  0  0  0  0  0  0  0  0  0  0  0
   -0.9909   -0.3839    2.2007 H   0  0  0  0  0  0  0  0  0  0  0  0
    3.2687    1.2194   -1.6047 H   0  0  0  0  0  0  0  0  0  0  0  0
    3.8175    3.0750   -0.0856 H   0  0  0  0  0  0  0  0  0  0  0  0
  1  2  1  0
  2  3  1  0
  3  4  2  0
  4  5  1  0
  5  6  1  0
  6  7  1  0
  7  8  1  0
  8  9  2  0
  8 10  1  0
 10 11  1  0
 11 12  1  0
 12 13  1  0
 13 14  2  0
 13 15  1  0
 15 16  1  0
 16 17  2  0
 17 18  1  0
 18 19  2  0
 19 20  1  0
 20 21  1  0
 21 22  1  0
 22 23  1  0
 23 24  2  0
 24 25  1  0
 25 26  2  0
 26 27  1  0
 24 28  1  0
 19 29  1  0
 29 30  2  0
  5 31  2  0
 31 32  1  0
 32  2  2  0
 12  7  1  0
 30 16  1  0
 28 20  1  0
 27 23  1  0
  1 33  1  0
  1 34  1  0
  1 35  1  0
  3 36  1  0
  4 37  1  0
  6 38  1  0
  6 39  1  0
 10 40  1  0
 10 41  1  0
 11 42  1  0
 11 43  1  0
 12 44  1  0
 15 45  1  0
 17 46  1  0
 18 47  1  0
 21 48  1  0
 21 49  1  0
 22 50  1  0
 22 51  1  0
 25 52  1  0
 26 53  1  0
 28 54  1  0
 28 55  1  0
 30 56  1  0
 31 57  1  0
 32 58  1  0
M  END
$$$$
OCNT-2315284
     RDKit          3D

 43 45  0  0  0  0  0  0  0  0999 V2000
   -3.9749    1.7634    0.0152 O   0  0  0  0  0  0  0  0  0  0  0  0
   -3.9223    0.7232   -0.9932 C   0  0  0  0  0  0  0  0  0  0  0  0
   -5.2411    0.5950   -1.7503 C   0  0  0  0  0  0  0  0  0  0  0  0
   -5.5700    1.7819   -2.3162 F   0  0  0  0  0  0  0  0  0  0  0  0
   -5.1815   -0.3248   -2.7359 F   0  0  0  0  0  0  0  0  0  0  0  0
   -6.2537    0.2478   -0.9255 F   0  0  0  0  0  0  0  0  0  0  0  0
   -2.7368    1.0270   -1.9115 C   0  0  0  0  0  0  0  0  0  0  0  0
   -1.5519    0.4979   -1.1074 C   0  0  0  0  0  0  0  0  0  0  0  0
   -2.0861   -0.7158   -0.4994 N   0  0  0  0  0  0  0  0  0  0  0  0
   -1.2967   -1.3858    0.4166 C   0  0  0  0  0  0  0  0  0  0  0  0
   -1.7605   -2.4875    1.1498 C   0  0  0  0  0  0  0  0  0  0  0  0
   -1.0163   -3.1894    2.0439 N   0  0  0  0  0  0  0  0  0  0  0  0
    0.2535   -2.7511    2.1768 C   0  0  0  0  0  0  0  0  0  0  0  0
    0.7463   -1.6758    1.4563 C   0  0  0  0  0  0  0  0  0  0  0  0
    2.0638   -1.3264    1.6678 O   0  0  0  0  0  0  0  0  0  0  0  0
    2.5197   -0.1909    0.9203 C   0  0  0  0  0  0  0  0  0  0  0  0
    2.9222   -0.6108   -0.5047 C   0  0  0  0  0  0  0  0  0  0  0  0
    4.0384    0.2436   -1.1101 C   0  0  0  0  0  0  0  0  0  0  0  0
    4.0579    1.6509   -0.5305 C   0  0  0  0  0  0  0  0  0  0  0  0
    4.2795    1.6368    0.9827 C   0  0  0  0  0  0  0  0  0  0  0  0
    3.7259    0.3863    1.6658 C   0  0  0  0  0  0  0  0  0  0  0  0
   -0.0118   -0.9892    0.5720 N   0  0  0  0  0  0  0  0  0  0  0  0
   -3.5433   -0.6174   -0.3346 C   0  0  0  0  0  0  0  0  0  0  0  0
   -4.3595    2.5596   -0.3983 H   0  0  0  0  0  0  0  0  0  0  0  0
   -2.6208    2.0923   -2.1332 H   0  0  0  0  0  0  0  0  0  0  0  0
   -2.8149    0.4749   -2.8559 H   0  0  0  0  0  0  0  0  0  0  0  0
   -1.2550    1.2286   -0.3442 H   0  0  0  0  0  0  0  0  0  0  0  0
   -0.6975    0.2920   -1.7611 H   0  0  0  0  0  0  0  0  0  0  0  0
   -2.7719   -2.8581    1.0264 H   0  0  0  0  0  0  0  0  0  0  0  0
    0.8758   -3.2907    2.8805 H   0  0  0  0  0  0  0  0  0  0  0  0
    1.7541    0.5971    0.8930 H   0  0  0  0  0  0  0  0  0  0  0  0
    3.2225   -1.6659   -0.5296 H   0  0  0  0  0  0  0  0  0  0  0  0
    2.0372   -0.5465   -1.1502 H   0  0  0  0  0  0  0  0  0  0  0  0
    3.9225    0.2825   -2.1992 H   0  0  0  0  0  0  0  0  0  0  0  0
    5.0059   -0.2369   -0.9169 H   0  0  0  0  0  0  0  0  0  0  0  0
    3.1040    2.1450   -0.7543 H   0  0  0  0  0  0  0  0  0  0  0  0
    4.8394    2.2502   -1.0112 H   0  0  0  0  0  0  0  0  0  0  0  0
    5.3513    1.7117    1.2024 H   0  0  0  0  0  0  0  0  0  0  0  0
    3.8158    2.5322    1.4140 H   0  0  0  0  0  0  0  0  0  0  0  0
    3.4616    0.6133    2.7059 H   0  0  0  0  0  0  0  0  0  0  0  0
    4.5115   -0.3789    1.7294 H   0  0  0  0  0  0  0  0  0  0  0  0
   -4.0056   -1.4726   -0.8397 H   0  0  0  0  0  0  0  0  0  0  0  0
   -3.8363   -0.6185    0.7220 H   0  0  0  0  0  0  0  0  0  0  0  0
  1  2  1  0
  2  3  1  0
  3  4  1  0
  3  5  1  0
  3  6  1  0
  2  7  1  0
  7  8  1  0
  8  9  1  0
  9 10  1  0
 10 11  2  0
 11 12  1  0
 12 13  2  0
 13 14  1  0
 14 15  1  0
 15 16  1  0
 16 17  1  0
 17 18  1  0
 18 19  1  0
 19 20  1  0
 20 21  1  0
 14 22  2  0
  9 23  1  0
 23  2  1  0
 22 10  1  0
 21 16  1  0
  1 24  1  0
  7 25  1  0
  7 26  1  0
  8 27  1  0
  8 28  1  0
 11 29  1  0
 13 30  1  0
 16 31  1  0
 17 32  1  0
 17 33  1  0
 18 34  1  0
 18 35  1  0
 19 36  1  0
 19 37  1  0
 20 38  1  0
 20 39  1  0
 21 40  1  0
 21 41  1  0
 23 42  1  0
 23 43  1  0
M  END
$$$$
OCNT-2315285
     RDKit          3D

  0  0  0  0  0  0  0  0  0  0999 V3000
M  V30 BEGIN CTAB
M  V30 COUNTS 37 39 0 0 0
M  V30 BEGIN ATOM
M  V30 1 C -3.553937 -1.652374 -1.876942 0
M  V30 2 C -3.747182 -1.972435 -0.589964 0
M  V30 3 C -3.190575 -1.281734 0.622427 0 CFG=2
M  V30 4 O -4.269667 -1.076078 1.556852 0
M  V30 5 C -4.175845 0.260323 2.068916 0
M  V30 6 C -2.772115 0.737918 1.776362 0
M  V30 7 C -2.506472 0.085130 0.434586 0 CFG=1
M  V30 8 N -1.089593 0.005980 0.117525 0
M  V30 9 C -0.399588 1.109725 -0.351303 0
M  V30 10 O -0.973586 2.173539 -0.570846 0
M  V30 11 C 1.030163 0.913766 -0.518930 0
M  V30 12 C 1.825700 -0.199287 -0.788085 0
M  V30 13 C 1.387817 -1.596747 -1.041667 0
M  V30 14 C 3.177357 0.274692 -0.806131 0
M  V30 15 C 4.445558 -0.305798 -1.005345 0
M  V30 16 C 5.575666 0.522511 -0.955328 0
M  V30 17 Br 7.288479 -0.240293 -1.217856 0
M  V30 18 C 5.466468 1.894183 -0.717957 0
M  V30 19 C 4.215016 2.487078 -0.521455 0
M  V30 20 C 3.109675 1.640666 -0.574552 0
M  V30 21 O 1.821281 2.026534 -0.410981 0
M  V30 22 H -2.939395 -0.813653 -2.188033 0
M  V30 23 H -4.022471 -2.236533 -2.664160 0
M  V30 24 H -4.377437 -2.833054 -0.369244 0
M  V30 25 H -2.498298 -1.980300 1.110557 0
M  V30 26 H -4.921273 0.872688 1.549920 0
M  V30 27 H -4.406147 0.261156 3.137838 0
M  V30 28 H -2.077157 0.355565 2.534464 0
M  V30 29 H -2.688779 1.828278 1.761091 0
M  V30 30 H -3.011085 0.674355 -0.342273 0
M  V30 31 H -0.548728 -0.740148 0.531212 0
M  V30 32 H 1.224642 -2.122233 -0.095621 0
M  V30 33 H 2.139938 -2.151591 -1.611502 0
M  V30 34 H 0.459684 -1.620159 -1.621505 0
M  V30 35 H 4.543528 -1.370171 -1.193772 0
M  V30 36 H 6.356100 2.519387 -0.685011 0
M  V30 37 H 4.102262 3.549114 -0.338642 0
M  V30 END ATOM
M  V30 BEGIN BOND
M  V30 1 2 1 2
M  V30 2 1 2 3
M  V30 3 1 3 4
M  V30 4 1 4 5
M  V30 5 1 5 6
M  V30 6 1 6 7
M  V30 7 1 7 8
M  V30 8 1 8 9
M  V30 9 2 9 10
M  V30 10 1 9 11
M  V30 11 2 11 12
M  V30 12 1 12 13
M  V30 13 1 12 14
M  V30 14 2 14 15
M  V30 15 1 15 16
M  V30 16 1 16 17
M  V30 17 2 16 18
M  V30 18 1 18 19
M  V30 19 2 19 20
M  V30 20 1 20 21
M  V30 21 1 7 3
M  V30 22 1 21 11
M  V30 23 1 20 14
M  V30 24 1 1 22
M  V30 25 1 1 23
M  V30 26 1 2 24
M  V30 27 1 3 25 CFG=1
M  V30 28 1 5 26
M  V30 29 1 5 27
M  V30 30 1 6 28
M  V30 31 1 6 29
M  V30 32 1 7 30 CFG=3
M  V30 33 1 8 31
M  V30 34 1 13 32
M  V30 35 1 13 33
M  V30 36 1 13 34
M  V30 37 1 15 35
M  V30 38 1 18 36
M  V30 39 1 19 37
M  V30 END BOND
M  V30 BEGIN COLLECTION
M  V30 MDLV30/STERAC1 ATOMS=(2 3 7)
M  V30 END COLLECTION
M  V30 END CTAB
M  END
>  <_CXSMILES_Data>  (958) 
|&1:2,6|

$$$$
OCNT-2315318
     RDKit          3D

 45 46  0  0  0  0  0  0  0  0999 V2000
   -4.0305   -1.4347   -2.3029 C   0  0  0  0  0  0  0  0  0  0  0  0
   -3.2578   -0.4733   -1.5955 O   0  0  0  0  0  0  0  0  0  0  0  0
   -4.0412    0.3875   -0.7617 C   0  0  0  0  0  0  0  0  0  0  0  0
   -4.4342   -0.2986    0.5512 C   0  0  0  0  0  0  0  0  0  0  0  0
   -3.2259   -0.5836    1.4405 C   0  0  0  0  0  0  0  0  0  0  0  0
   -2.4206    0.6848    1.7166 C   0  0  0  0  0  0  0  0  0  0  0  0
   -1.9984    1.4275    0.4369 C   0  0  0  0  0  0  0  0  0  0  0  0
   -0.8484    0.7138   -0.2996 C   0  0  0  0  0  0  0  0  0  0  0  0
    0.5041    0.8615    0.3884 C   0  0  0  0  0  0  0  0  0  0  0  0
    0.6891    1.6328    1.3211 O   0  0  0  0  0  0  0  0  0  0  0  0
    1.4586    0.0577   -0.2135 N   0  0  0  0  0  0  0  0  0  0  0  0
    2.7900   -0.0481    0.1625 C   0  0  0  0  0  0  0  0  0  0  0  0
    3.8173   -0.5150   -0.6449 C   0  0  0  0  0  0  0  0  0  0  0  0
    3.7260   -0.9907   -2.0503 C   0  0  0  0  0  0  0  0  0  0  0  0
    5.0032   -0.3951    0.1419 C   0  0  0  0  0  0  0  0  0  0  0  0
    6.4081   -0.7311   -0.2909 C   0  0  0  0  0  0  0  0  0  0  0  0
    6.7416   -0.0912   -1.4471 F   0  0  0  0  0  0  0  0  0  0  0  0
    6.5463   -2.0628   -0.5439 F   0  0  0  0  0  0  0  0  0  0  0  0
    7.3630   -0.4069    0.6200 F   0  0  0  0  0  0  0  0  0  0  0  0
    4.7153    0.0644    1.3707 N   0  0  0  0  0  0  0  0  0  0  0  0
    3.3737    0.2272    1.3800 N   0  0  0  0  0  0  0  0  0  0  0  0
    2.7625    0.4902    2.6629 C   0  0  0  0  0  0  0  0  0  0  0  0
   -3.2196    1.6529   -0.4788 C   0  0  0  0  0  0  0  0  0  0  0  0
   -4.5069   -2.1397   -1.6173 H   0  0  0  0  0  0  0  0  0  0  0  0
   -3.3573   -1.9965   -2.9563 H   0  0  0  0  0  0  0  0  0  0  0  0
   -4.7839   -0.9423   -2.9250 H   0  0  0  0  0  0  0  0  0  0  0  0
   -4.9455    0.6850   -1.3074 H   0  0  0  0  0  0  0  0  0  0  0  0
   -4.9573   -1.2408    0.3593 H   0  0  0  0  0  0  0  0  0  0  0  0
   -5.1340    0.3470    1.0968 H   0  0  0  0  0  0  0  0  0  0  0  0
   -2.5892   -1.3433    0.9735 H   0  0  0  0  0  0  0  0  0  0  0  0
   -3.5689   -1.0075    2.3916 H   0  0  0  0  0  0  0  0  0  0  0  0
   -1.5466    0.4352    2.3285 H   0  0  0  0  0  0  0  0  0  0  0  0
   -3.0364    1.3613    2.3239 H   0  0  0  0  0  0  0  0  0  0  0  0
   -1.6391    2.4219    0.7343 H   0  0  0  0  0  0  0  0  0  0  0  0
   -1.0529   -0.3555   -0.4139 H   0  0  0  0  0  0  0  0  0  0  0  0
   -0.7341    1.1431   -1.3031 H   0  0  0  0  0  0  0  0  0  0  0  0
    1.2175   -0.3196   -1.1230 H   0  0  0  0  0  0  0  0  0  0  0  0
    2.9052   -1.7064   -2.1634 H   0  0  0  0  0  0  0  0  0  0  0  0
    4.6447   -1.4910   -2.3703 H   0  0  0  0  0  0  0  0  0  0  0  0
    3.5453   -0.1471   -2.7241 H   0  0  0  0  0  0  0  0  0  0  0  0
    1.8106   -0.0398    2.7313 H   0  0  0  0  0  0  0  0  0  0  0  0
    2.6506    1.5699    2.7793 H   0  0  0  0  0  0  0  0  0  0  0  0
    3.4184    0.1104    3.4527 H   0  0  0  0  0  0  0  0  0  0  0  0
   -3.8762    2.3904    0.0016 H   0  0  0  0  0  0  0  0  0  0  0  0
   -2.8862    2.0965   -1.4252 H   0  0  0  0  0  0  0  0  0  0  0  0
  1  2  1  0
  2  3  1  0
  3  4  1  0
  4  5  1  0
  5  6  1  0
  6  7  1  0
  7  8  1  0
  8  9  1  0
  9 10  2  0
  9 11  1  0
 11 12  1  0
 12 13  2  0
 13 14  1  0
 13 15  1  0
 15 16  1  0
 16 17  1  0
 16 18  1  0
 16 19  1  0
 15 20  2  0
 20 21  1  0
 21 22  1  0
  7 23  1  0
 23  3  1  0
 21 12  1  0
  1 24  1  0
  1 25  1  0
  1 26  1  0
  3 27  1  0
  4 28  1  0
  4 29  1  0
  5 30  1  0
  5 31  1  0
  6 32  1  0
  6 33  1  0
  7 34  1  0
  8 35  1  0
  8 36  1  0
 11 37  1  0
 14 38  1  0
 14 39  1  0
 14 40  1  0
 22 41  1  0
 22 42  1  0
 22 43  1  0
 23 44  1  0
 23 45  1  0
M  END
$$$$
OCNT-2315321
     RDKit          3D

 40 41  0  0  0  0  0  0  0  0999 V2000
   -2.8028   -1.7724   -1.4536 C   0  0  0  0  0  0  0  0  0  0  0  0
   -2.1455   -1.0045   -0.3063 C   0  0  1  0  0  0  0  0  0  0  0  0
   -0.7480   -0.5210   -0.7649 C   0  0  0  0  0  0  0  0  0  0  0  0
   -0.0983    0.3786    0.1933 N   0  0  0  0  0  0  0  0  0  0  0  0
    1.2851    0.5014    0.3636 C   0  0  0  0  0  0  0  0  0  0  0  0
    1.7366    1.2848    1.2084 O   0  0  0  0  0  0  0  0  0  0  0  0
    2.2180   -0.3792   -0.5358 C   0  0  0  0  0  0  0  0  0  0  0  0
    1.8120   -0.2994   -1.8486 F   0  0  0  0  0  0  0  0  0  0  0  0
    2.0327   -1.7059   -0.2292 F   0  0  0  0  0  0  0  0  0  0  0  0
    3.6569    0.0321   -0.3929 C   0  0  0  0  0  0  0  0  0  0  0  0
    4.1697    1.0914   -1.1384 C   0  0  0  0  0  0  0  0  0  0  0  0
    3.3805    1.7457   -2.0015 F   0  0  0  0  0  0  0  0  0  0  0  0
    5.4948    1.5035   -1.0028 C   0  0  0  0  0  0  0  0  0  0  0  0
    6.3316    0.8559   -0.0960 C   0  0  0  0  0  0  0  0  0  0  0  0
    5.8303   -0.1941    0.6713 C   0  0  0  0  0  0  0  0  0  0  0  0
    4.5019   -0.5916    0.5212 C   0  0  0  0  0  0  0  0  0  0  0  0
    4.0454   -1.5916    1.2867 F   0  0  0  0  0  0  0  0  0  0  0  0
   -0.9825    1.2535    0.9632 C   0  0  0  0  0  0  0  0  0  0  0  0
   -2.3445    1.4393    0.2864 C   0  0  0  0  0  0  0  0  0  0  0  0
   -3.0557    0.1324    0.1014 N   0  0  0  0  0  0  0  0  0  0  0  0
   -4.1722   -0.2563    1.3391 S   0  0  0  0  0  0  0  0  0  0  0  0
   -5.5384    0.8048    0.9154 C   0  0  0  0  0  0  0  0  0  0  0  0
   -3.6103    0.1856    2.5964 O   0  0  0  0  0  0  0  0  0  0  0  0
   -4.6115   -1.6215    1.1513 O   0  0  0  0  0  0  0  0  0  0  0  0
   -3.7752   -2.1827   -1.1681 H   0  0  0  0  0  0  0  0  0  0  0  0
   -2.1717   -2.6086   -1.7729 H   0  0  0  0  0  0  0  0  0  0  0  0
   -2.9678   -1.1210   -2.3193 H   0  0  0  0  0  0  0  0  0  0  0  0
   -1.9973   -1.6687    0.5547 H   0  0  0  0  0  0  0  0  0  0  0  0
   -0.1161   -1.3912   -0.9578 H   0  0  0  0  0  0  0  0  0  0  0  0
   -0.8267    0.0393   -1.7052 H   0  0  0  0  0  0  0  0  0  0  0  0
    5.8621    2.3325   -1.6009 H   0  0  0  0  0  0  0  0  0  0  0  0
    7.3648    1.1736    0.0196 H   0  0  0  0  0  0  0  0  0  0  0  0
    6.4623   -0.7037    1.3931 H   0  0  0  0  0  0  0  0  0  0  0  0
   -0.5051    2.2303    1.0978 H   0  0  0  0  0  0  0  0  0  0  0  0
   -1.0930    0.7994    1.9539 H   0  0  0  0  0  0  0  0  0  0  0  0
   -2.9543    2.1410    0.8637 H   0  0  0  0  0  0  0  0  0  0  0  0
   -2.2200    1.8900   -0.7061 H   0  0  0  0  0  0  0  0  0  0  0  0
   -5.8651    0.5700   -0.0994 H   0  0  0  0  0  0  0  0  0  0  0  0
   -6.3487    0.6020    1.6195 H   0  0  0  0  0  0  0  0  0  0  0  0
   -5.2342    1.8485    0.9993 H   0  0  0  0  0  0  0  0  0  0  0  0
  1  2  1  0
  2  3  1  0
  3  4  1  0
  4  5  1  0
  5  6  2  0
  5  7  1  0
  7  8  1  0
  7  9  1  0
  7 10  1  0
 10 11  2  0
 11 12  1  0
 11 13  1  0
 13 14  2  0
 14 15  1  0
 15 16  2  0
 16 17  1  0
  4 18  1  0
 18 19  1  0
 19 20  1  0
 20 21  1  0
 21 22  1  0
 21 23  2  0
 21 24  2  0
 20  2  1  0
 16 10  1  0
  1 25  1  0
  1 26  1  0
  1 27  1  0
  2 28  1  1
  3 29  1  0
  3 30  1  0
 13 31  1  0
 14 32  1  0
 15 33  1  0
 18 34  1  0
 18 35  1  0
 19 36  1  0
 19 37  1  0
 22 38  1  0
 22 39  1  0
 22 40  1  0
M  END
$$$$
OCNT-2315324
     RDKit          3D

 52 54  0  0  0  0  0  0  0  0999 V2000
    3.9665    1.7664    4.2797 C   0  0  0  0  0  0  0  0  0  0  0  0
    4.2325    1.7551    2.8829 O   0  0  0  0  0  0  0  0  0  0  0  0
    3.4958    0.8915    2.1207 C   0  0  0  0  0  0  0  0  0  0  0  0
    2.4858    0.0481    2.5789 C   0  0  0  0  0  0  0  0  0  0  0  0
    1.8073   -0.7877    1.6840 C   0  0  0  0  0  0  0  0  0  0  0  0
    2.1313   -0.8024    0.3180 C   0  0  0  0  0  0  0  0  0  0  0  0
    1.3519   -1.7018   -0.6260 C   0  0  0  0  0  0  0  0  0  0  0  0
    2.2193   -2.5094   -1.6073 C   0  0  0  0  0  0  0  0  0  0  0  0
    3.1344   -3.5014   -0.9001 C   0  0  0  0  0  0  0  0  0  0  0  0
    3.8634   -4.2518   -1.8657 O   0  0  0  0  0  0  0  0  0  0  0  0
    0.3805   -0.8890   -1.3395 N   0  0  0  0  0  0  0  0  0  0  0  0
   -0.7770   -1.4222   -1.8330 C   0  0  0  0  0  0  0  0  0  0  0  0
   -1.1103   -2.5904   -1.6902 O   0  0  0  0  0  0  0  0  0  0  0  0
   -1.5263   -0.4750   -2.4800 N   0  0  0  0  0  0  0  0  0  0  0  0
   -2.8935   -0.7692   -2.8773 C   0  0  0  0  0  0  0  0  0  0  0  0
   -3.8842   -0.6996   -1.7063 C   0  0  0  0  0  0  0  0  0  0  0  0
   -4.0235    0.6887   -1.1516 C   0  0  0  0  0  0  0  0  0  0  0  0
   -4.9124    1.6550   -1.5822 C   0  0  0  0  0  0  0  0  0  0  0  0
   -4.7099    2.7880   -0.8415 N   0  0  0  0  0  0  0  0  0  0  0  0
   -3.6953    2.5896    0.0648 C   0  0  0  0  0  0  0  0  0  0  0  0
   -3.1408    3.4678    1.0041 C   0  0  0  0  0  0  0  0  0  0  0  0
   -2.1022    2.9875    1.8072 C   0  0  0  0  0  0  0  0  0  0  0  0
   -1.6453    1.6786    1.6811 C   0  0  0  0  0  0  0  0  0  0  0  0
   -2.2173    0.8121    0.7429 C   0  0  0  0  0  0  0  0  0  0  0  0
   -3.2568    1.2745   -0.0912 C   0  0  0  0  0  0  0  0  0  0  0  0
    3.1397    0.0596   -0.1341 C   0  0  0  0  0  0  0  0  0  0  0  0
    3.8153    0.8929    0.7620 C   0  0  0  0  0  0  0  0  0  0  0  0
    4.6442    2.4898    4.7432 H   0  0  0  0  0  0  0  0  0  0  0  0
    2.9413    2.0931    4.4830 H   0  0  0  0  0  0  0  0  0  0  0  0
    4.1667    0.7877    4.7284 H   0  0  0  0  0  0  0  0  0  0  0  0
    2.1966    0.0166    3.6239 H   0  0  0  0  0  0  0  0  0  0  0  0
    1.0138   -1.4287    2.0648 H   0  0  0  0  0  0  0  0  0  0  0  0
    0.7857   -2.4278   -0.0265 H   0  0  0  0  0  0  0  0  0  0  0  0
    2.8147   -1.8538   -2.2549 H   0  0  0  0  0  0  0  0  0  0  0  0
    1.5747   -3.0668   -2.3001 H   0  0  0  0  0  0  0  0  0  0  0  0
    3.8621   -2.9917   -0.2624 H   0  0  0  0  0  0  0  0  0  0  0  0
    2.5637   -4.2002   -0.2799 H   0  0  0  0  0  0  0  0  0  0  0  0
    3.2176   -4.7567   -2.3902 H   0  0  0  0  0  0  0  0  0  0  0  0
    0.7019   -0.0289   -1.7568 H   0  0  0  0  0  0  0  0  0  0  0  0
   -1.3651    0.4745   -2.1717 H   0  0  0  0  0  0  0  0  0  0  0  0
   -3.1604   -0.0461   -3.6557 H   0  0  0  0  0  0  0  0  0  0  0  0
   -2.9203   -1.7711   -3.3204 H   0  0  0  0  0  0  0  0  0  0  0  0
   -3.5820   -1.3869   -0.9072 H   0  0  0  0  0  0  0  0  0  0  0  0
   -4.8666   -1.0411   -2.0561 H   0  0  0  0  0  0  0  0  0  0  0  0
   -5.6701    1.6321   -2.3544 H   0  0  0  0  0  0  0  0  0  0  0  0
   -5.2237    3.6520   -0.9446 H   0  0  0  0  0  0  0  0  0  0  0  0
   -3.4975    4.4871    1.1087 H   0  0  0  0  0  0  0  0  0  0  0  0
   -1.6466    3.6462    2.5430 H   0  0  0  0  0  0  0  0  0  0  0  0
   -0.8366    1.3235    2.3148 H   0  0  0  0  0  0  0  0  0  0  0  0
   -1.8557   -0.2088    0.6603 H   0  0  0  0  0  0  0  0  0  0  0  0
    3.4132    0.0983   -1.1856 H   0  0  0  0  0  0  0  0  0  0  0  0
    4.5992    1.5521    0.3961 H   0  0  0  0  0  0  0  0  0  0  0  0
  1  2  1  0
  2  3  1  0
  3  4  1  0
  4  5  2  0
  5  6  1  0
  6  7  1  0
  7  8  1  0
  8  9  1  0
  9 10  1  0
  7 11  1  0
 11 12  1  0
 12 13  2  0
 12 14  1  0
 14 15  1  0
 15 16  1  0
 16 17  1  0
 17 18  2  0
 18 19  1  0
 19 20  1  0
 20 21  2  0
 21 22  1  0
 22 23  2  0
 23 24  1  0
 24 25  2  0
  6 26  2  0
 26 27  1  0
 27  3  2  0
 25 17  1  0
 25 20  1  0
  1 28  1  0
  1 29  1  0
  1 30  1  0
  4 31  1  0
  5 32  1  0
  7 33  1  0
  8 34  1  0
  8 35  1  0
  9 36  1  0
  9 37  1  0
 10 38  1  0
 11 39  1  0
 14 40  1  0
 15 41  1  0
 15 42  1  0
 16 43  1  0
 16 44  1  0
 18 45  1  0
 19 46  1  0
 21 47  1  0
 22 48  1  0
 23 49  1  0
 24 50  1  0
 26 51  1  0
 27 52  1  0
M  END
$$$$
OCNT-2315347
     RDKit          3D

  0  0  0  0  0  0  0  0  0  0999 V3000
M  V30 BEGIN CTAB
M  V30 COUNTS 48 51 0 0 0
M  V30 BEGIN ATOM
M  V30 1 O -0.261060 -2.794941 1.099861 0
M  V30 2 C -0.245541 -1.486581 0.524296 0 CFG=1
M  V30 3 C -1.214913 -1.452559 -0.660783 0
M  V30 4 C -2.482984 -0.786674 -0.115127 0
M  V30 5 C -3.371839 -0.242940 -1.231430 0
M  V30 6 N -4.594548 0.359751 -0.734930 0
M  V30 7 C -5.770145 -0.279475 -0.464204 0
M  V30 8 C -6.638105 0.692927 -0.026415 0
M  V30 9 C -5.891819 1.884431 -0.073920 0
M  V30 10 N -4.644418 1.686422 -0.507425 0
M  V30 11 C -1.911402 0.289444 0.812435 0
M  V30 12 C -0.790736 -0.455086 1.548635 0 CFG=2
M  V30 13 N 0.209933 0.346544 2.270019 0
M  V30 14 C 0.697558 1.563433 1.617679 0
M  V30 15 C 1.575061 1.321625 0.413781 0
M  V30 16 C 1.208137 1.807399 -0.848155 0
M  V30 17 C 2.022689 1.580816 -1.956807 0
M  V30 18 C 3.215086 0.869453 -1.816939 0
M  V30 19 C 3.605329 0.381519 -0.561382 0
M  V30 20 N 4.822545 -0.346211 -0.440496 0
M  V30 21 C 5.375862 -0.902194 0.695659 0
M  V30 22 C 6.554296 -1.504127 0.323645 0
M  V30 23 C 6.645151 -1.272837 -1.054511 0
M  V30 24 N 5.608886 -0.580551 -1.526706 0
M  V30 25 C 2.785031 0.616239 0.550895 0
M  V30 26 H 0.279658 -3.361830 0.523555 0
M  V30 27 H 0.775785 -1.285696 0.197916 0
M  V30 28 H -0.786008 -0.836661 -1.460921 0
M  V30 29 H -1.428436 -2.445541 -1.069354 0
M  V30 30 H -3.044904 -1.515916 0.484642 0
M  V30 31 H -2.850179 0.513130 -1.830580 0
M  V30 32 H -3.666487 -1.050392 -1.912224 0
M  V30 33 H -5.886409 -1.345460 -0.599485 0
M  V30 34 H -7.664992 0.561824 0.282438 0
M  V30 35 H -6.204517 2.886877 0.188167 0
M  V30 36 H -2.659287 0.679610 1.510386 0
M  V30 37 H -1.540608 1.123971 0.210715 0
M  V30 38 H -1.279960 -1.043878 2.339040 0
M  V30 39 H -0.206237 0.627740 3.158352 0
M  V30 40 H 1.312570 2.105824 2.348320 0
M  V30 41 H -0.123922 2.250919 1.387451 0
M  V30 42 H 0.284407 2.367740 -0.976474 0
M  V30 43 H 1.731864 1.961041 -2.932968 0
M  V30 44 H 3.834031 0.705376 -2.697484 0
M  V30 45 H 4.900580 -0.828950 1.661423 0
M  V30 46 H 7.247067 -2.034121 0.961120 0
M  V30 47 H 7.424910 -1.580127 -1.739798 0
M  V30 48 H 3.043021 0.248695 1.540509 0
M  V30 END ATOM
M  V30 BEGIN BOND
M  V30 1 1 1 2
M  V30 2 1 2 3
M  V30 3 1 3 4
M  V30 4 1 4 5
M  V30 5 1 5 6
M  V30 6 1 6 7
M  V30 7 2 7 8
M  V30 8 1 8 9
M  V30 9 2 9 10
M  V30 10 1 4 11
M  V30 11 1 11 12
M  V30 12 1 12 13
M  V30 13 1 13 14
M  V30 14 1 14 15
M  V30 15 2 15 16
M  V30 16 1 16 17
M  V30 17 2 17 18
M  V30 18 1 18 19
M  V30 19 1 19 20
M  V30 20 1 20 21
M  V30 21 2 21 22
M  V30 22 1 22 23
M  V30 23 2 23 24
M  V30 24 2 19 25
M  V30 25 1 12 2
M  V30 26 1 25 15
M  V30 27 1 10 6
M  V30 28 1 24 20
M  V30 29 1 1 26
M  V30 30 1 2 27 CFG=3
M  V30 31 1 3 28
M  V30 32 1 3 29
M  V30 33 1 4 30
M  V30 34 1 5 31
M  V30 35 1 5 32
M  V30 36 1 7 33
M  V30 37 1 8 34
M  V30 38 1 9 35
M  V30 39 1 11 36
M  V30 40 1 11 37
M  V30 41 1 12 38 CFG=1
M  V30 42 1 13 39
M  V30 43 1 14 40
M  V30 44 1 14 41
M  V30 45 1 16 42
M  V30 46 1 17 43
M  V30 47 1 18 44
M  V30 48 1 21 45
M  V30 49 1 22 46
M  V30 50 1 23 47
M  V30 51 1 25 48
M  V30 END BOND
M  V30 BEGIN COLLECTION
M  V30 MDLV30/STERAC1 ATOMS=(2 2 12)
M  V30 END COLLECTION
M  V30 END CTAB
M  END
>  <_CXSMILES_Data>  (962) 
|&1:1,11|

$$$$
OCNT-2315349
     RDKit          3D

 45 48  0  0  0  0  0  0  0  0999 V2000
   -1.7800    2.6576    0.6027 C   0  0  0  0  0  0  0  0  0  0  0  0
   -1.7192    1.5745   -0.4809 C   0  0  0  0  0  0  0  0  0  0  0  0
   -2.3527    0.3476   -0.0171 N   0  0  0  0  0  0  0  0  0  0  0  0
   -3.7347    0.3009    0.0882 C   0  0  0  0  0  0  0  0  0  0  0  0
   -4.5075    1.1863   -0.5879 N   0  0  0  0  0  0  0  0  0  0  0  0
   -5.8480    1.1077   -0.4673 C   0  0  0  0  0  0  0  0  0  0  0  0
   -6.5680    0.2415    0.2644 N   0  0  0  0  0  0  0  0  0  0  0  0
   -5.7710   -0.6195    0.9117 C   0  0  0  0  0  0  0  0  0  0  0  0
   -4.3858   -0.6631    0.8804 C   0  0  0  0  0  0  0  0  0  0  0  0
   -3.9957   -1.7498    1.7167 C   0  0  0  0  0  0  0  0  0  0  0  0
   -5.1430   -2.3213    2.2277 C   0  0  0  0  0  0  0  0  0  0  0  0
   -6.2135   -1.6235    1.7287 N   0  0  0  0  0  0  0  0  0  0  0  0
   -0.3021    1.2129   -0.9145 C   0  0  0  0  0  0  0  0  0  0  0  0
   -0.1040    0.6901   -2.2026 C   0  0  0  0  0  0  0  0  0  0  0  0
    1.1710    0.3227   -2.6401 C   0  0  0  0  0  0  0  0  0  0  0  0
    2.2782    0.4654   -1.8040 C   0  0  0  0  0  0  0  0  0  0  0  0
    3.4637    0.0599   -2.3513 O   0  0  0  0  0  0  0  0  0  0  0  0
    4.6769    0.4380   -1.6953 C   0  0  0  0  0  0  0  0  0  0  0  0
    5.1132   -0.5391   -0.6357 C   0  0  0  0  0  0  0  0  0  0  0  0
    4.7736   -1.8944   -0.6722 C   0  0  0  0  0  0  0  0  0  0  0  0
    5.2327   -2.7506    0.3244 C   0  0  0  0  0  0  0  0  0  0  0  0
    6.0312   -2.2237    1.3250 C   0  0  0  0  0  0  0  0  0  0  0  0
    6.3950   -0.9251    1.3883 N   0  0  0  0  0  0  0  0  0  0  0  0
    5.9344   -0.1179    0.4061 C   0  0  0  0  0  0  0  0  0  0  0  0
    2.0926    0.9571   -0.5136 C   0  0  0  0  0  0  0  0  0  0  0  0
    0.8139    1.3246   -0.0721 C   0  0  0  0  0  0  0  0  0  0  0  0
   -2.8120    2.9819    0.7756 H   0  0  0  0  0  0  0  0  0  0  0  0
   -1.2021    3.5411    0.3101 H   0  0  0  0  0  0  0  0  0  0  0  0
   -1.3965    2.2987    1.5645 H   0  0  0  0  0  0  0  0  0  0  0  0
   -2.2302    1.9681   -1.3703 H   0  0  0  0  0  0  0  0  0  0  0  0
   -1.8605   -0.1466    0.7149 H   0  0  0  0  0  0  0  0  0  0  0  0
   -6.4162    1.8396   -1.0332 H   0  0  0  0  0  0  0  0  0  0  0  0
   -2.9850   -2.0799    1.9172 H   0  0  0  0  0  0  0  0  0  0  0  0
   -5.2900   -3.1608    2.8943 H   0  0  0  0  0  0  0  0  0  0  0  0
   -7.1890   -1.8051    1.9155 H   0  0  0  0  0  0  0  0  0  0  0  0
   -0.9530    0.5556   -2.8710 H   0  0  0  0  0  0  0  0  0  0  0  0
    1.2979   -0.0806   -3.6417 H   0  0  0  0  0  0  0  0  0  0  0  0
    5.4545    0.4513   -2.4687 H   0  0  0  0  0  0  0  0  0  0  0  0
    4.6128    1.4637   -1.3103 H   0  0  0  0  0  0  0  0  0  0  0  0
    4.1474   -2.2861   -1.4708 H   0  0  0  0  0  0  0  0  0  0  0  0
    4.9740   -3.8034    0.3185 H   0  0  0  0  0  0  0  0  0  0  0  0
    6.4134   -2.8515    2.1246 H   0  0  0  0  0  0  0  0  0  0  0  0
    6.2581    0.9167    0.4880 H   0  0  0  0  0  0  0  0  0  0  0  0
    2.9141    1.0497    0.1887 H   0  0  0  0  0  0  0  0  0  0  0  0
    0.7109    1.6891    0.9467 H   0  0  0  0  0  0  0  0  0  0  0  0
  1  2  1  0
  2  3  1  0
  3  4  1  0
  4  5  1  0
  5  6  2  0
  6  7  1  0
  7  8  2  0
  8  9  1  0
  9 10  1  0
 10 11  2  0
 11 12  1  0
  2 13  1  0
 13 14  1  0
 14 15  2  0
 15 16  1  0
 16 17  1  0
 17 18  1  0
 18 19  1  0
 19 20  1  0
 20 21  2  0
 21 22  1  0
 22 23  2  0
 23 24  1  0
 16 25  2  0
 25 26  1  0
  9  4  2  0
 26 13  2  0
 12  8  1  0
 24 19  2  0
  1 27  1  0
  1 28  1  0
  1 29  1  0
  2 30  1  0
  3 31  1  0
  6 32  1  0
 10 33  1  0
 11 34  1  0
 12 35  1  0
 14 36  1  0
 15 37  1  0
 18 38  1  0
 18 39  1  0
 20 40  1  0
 21 41  1  0
 22 42  1  0
 24 43  1  0
 25 44  1  0
 26 45  1  0
M  END
$$$$
OCNT-2315357
     RDKit          3D

 35 37  0  0  0  0  0  0  0  0999 V2000
    2.3040   -0.7097   -0.7541 O   0  0  0  0  0  0  0  0  0  0  0  0
    2.3570    0.2258    0.0407 C   0  0  0  0  0  0  0  0  0  0  0  0
    3.6858    0.8354    0.4797 C   0  0  0  0  0  0  0  0  0  0  0  0
    4.7190    1.3088   -0.9398 S   0  0  0  0  0  0  0  0  0  0  0  0
    5.3448   -0.2324   -1.4562 C   0  0  0  0  0  0  0  0  0  0  0  0
    6.7136   -0.3117   -2.0743 C   0  0  0  0  0  0  0  0  0  0  0  0
    6.4785   -0.8817   -0.7074 C   0  0  0  0  0  0  0  0  0  0  0  0
    1.2650    0.8018    0.6787 N   0  0  0  0  0  0  0  0  0  0  0  0
   -0.0977    0.4923    0.4880 C   0  0  0  0  0  0  0  0  0  0  0  0
   -0.5748   -0.3880   -0.4827 C   0  0  0  0  0  0  0  0  0  0  0  0
   -1.9478   -0.6357   -0.6118 C   0  0  0  0  0  0  0  0  0  0  0  0
   -2.8700   -0.0150    0.2349 C   0  0  0  0  0  0  0  0  0  0  0  0
   -4.2992   -0.2774    0.1150 C   0  0  0  0  0  0  0  0  0  0  0  0
   -4.8623   -0.9141   -0.9235 N   0  0  0  0  0  0  0  0  0  0  0  0
   -6.2168   -0.9398   -0.6099 O   0  0  0  0  0  0  0  0  0  0  0  0
   -6.3540   -0.3126    0.5938 C   0  0  0  0  0  0  0  0  0  0  0  0
   -7.7410   -0.2300    1.1157 C   0  0  0  0  0  0  0  0  0  0  0  0
   -7.7911    0.2025    2.4036 F   0  0  0  0  0  0  0  0  0  0  0  0
   -8.3784   -1.4346    1.0909 F   0  0  0  0  0  0  0  0  0  0  0  0
   -8.5100    0.6247    0.3887 F   0  0  0  0  0  0  0  0  0  0  0  0
   -5.2037    0.1167    1.0787 N   0  0  0  0  0  0  0  0  0  0  0  0
   -2.3889    0.8677    1.2083 C   0  0  0  0  0  0  0  0  0  0  0  0
   -1.0181    1.1241    1.3285 C   0  0  0  0  0  0  0  0  0  0  0  0
    3.5141    1.7453    1.0684 H   0  0  0  0  0  0  0  0  0  0  0  0
    4.2076    0.1168    1.1248 H   0  0  0  0  0  0  0  0  0  0  0  0
    4.5930   -0.8947   -1.8790 H   0  0  0  0  0  0  0  0  0  0  0  0
    6.8544   -1.0027   -2.8977 H   0  0  0  0  0  0  0  0  0  0  0  0
    7.3223    0.5815   -2.1399 H   0  0  0  0  0  0  0  0  0  0  0  0
    6.4701   -1.9599   -0.6079 H   0  0  0  0  0  0  0  0  0  0  0  0
    6.9222   -0.3675    0.1392 H   0  0  0  0  0  0  0  0  0  0  0  0
    1.4596    1.5039    1.3794 H   0  0  0  0  0  0  0  0  0  0  0  0
    0.0914   -0.8984   -1.1690 H   0  0  0  0  0  0  0  0  0  0  0  0
   -2.2820   -1.3272   -1.3830 H   0  0  0  0  0  0  0  0  0  0  0  0
   -3.0786    1.3676    1.8821 H   0  0  0  0  0  0  0  0  0  0  0  0
   -0.6880    1.8185    2.0962 H   0  0  0  0  0  0  0  0  0  0  0  0
  1  2  2  0
  2  3  1  0
  3  4  1  0
  4  5  1  0
  5  6  1  0
  6  7  1  0
  2  8  1  0
  8  9  1  0
  9 10  1  0
 10 11  2  0
 11 12  1  0
 12 13  1  0
 13 14  2  0
 14 15  1  0
 15 16  1  0
 16 17  1  0
 17 18  1  0
 17 19  1  0
 17 20  1  0
 16 21  2  0
 12 22  2  0
 22 23  1  0
  7  5  1  0
 23  9  2  0
 21 13  1  0
  3 24  1  0
  3 25  1  0
  5 26  1  0
  6 27  1  0
  6 28  1  0
  7 29  1  0
  7 30  1  0
  8 31  1  0
 10 32  1  0
 11 33  1  0
 22 34  1  0
 23 35  1  0
M  END
$$$$
OCNT-2315387
     RDKit          3D

 47 49  0  0  0  0  0  0  0  0999 V2000
    8.3040    1.2315   -0.6436 C   0  0  0  0  0  0  0  0  0  0  0  0
    7.2893    0.4227   -0.0203 N   0  0  0  0  0  0  0  0  0  0  0  0
    6.7482    0.7752    1.2008 C   0  0  0  0  0  0  0  0  0  0  0  0
    7.1879    1.6923    1.8920 O   0  0  0  0  0  0  0  0  0  0  0  0
    5.6085   -0.1013    1.6697 C   0  0  0  0  0  0  0  0  0  0  0  0
    4.5082   -0.1011    0.7258 N   0  0  0  0  0  0  0  0  0  0  0  0
    3.3068    0.5334    0.8654 C   0  0  0  0  0  0  0  0  0  0  0  0
    2.5857    0.2285   -0.2597 C   0  0  0  0  0  0  0  0  0  0  0  0
    1.3338    0.6712   -0.4979 N   0  0  0  0  0  0  0  0  0  0  0  0
    0.4604    0.1086   -1.5126 C   0  0  0  0  0  0  0  0  0  0  0  0
   -0.6395   -0.6914   -0.8570 C   0  0  0  0  0  0  0  0  0  0  0  0
   -0.3729   -1.9577   -0.3208 C   0  0  0  0  0  0  0  0  0  0  0  0
   -1.3869   -2.6930    0.2894 C   0  0  0  0  0  0  0  0  0  0  0  0
   -2.6780   -2.1681    0.3732 C   0  0  0  0  0  0  0  0  0  0  0  0
   -2.9783   -0.8988   -0.1458 C   0  0  0  0  0  0  0  0  0  0  0  0
   -4.3393   -0.3453   -0.0536 C   0  0  0  0  0  0  0  0  0  0  0  0
   -5.4439   -1.0553   -0.5494 C   0  0  0  0  0  0  0  0  0  0  0  0
   -6.7376   -0.5300   -0.4661 C   0  0  0  0  0  0  0  0  0  0  0  0
   -6.9597    0.7159    0.1277 C   0  0  0  0  0  0  0  0  0  0  0  0
   -8.3411    1.2966    0.1884 C   0  0  0  0  0  0  0  0  0  0  0  0
   -5.8656    1.4379    0.6137 C   0  0  0  0  0  0  0  0  0  0  0  0
   -4.5729    0.9108    0.5276 C   0  0  0  0  0  0  0  0  0  0  0  0
   -1.9413   -0.1715   -0.7567 C   0  0  0  0  0  0  0  0  0  0  0  0
    3.4407   -0.5868   -1.0293 C   0  0  0  0  0  0  0  0  0  0  0  0
    4.6195   -0.7968   -0.4310 N   0  0  0  0  0  0  0  0  0  0  0  0
    9.0690    1.5062    0.0875 H   0  0  0  0  0  0  0  0  0  0  0  0
    8.7536    0.6591   -1.4584 H   0  0  0  0  0  0  0  0  0  0  0  0
    7.8374    2.1377   -1.0396 H   0  0  0  0  0  0  0  0  0  0  0  0
    6.6941   -0.1493   -0.6228 H   0  0  0  0  0  0  0  0  0  0  0  0
    5.2349    0.2640    2.6318 H   0  0  0  0  0  0  0  0  0  0  0  0
    5.9540   -1.1325    1.7953 H   0  0  0  0  0  0  0  0  0  0  0  0
    3.0756    1.1328    1.7344 H   0  0  0  0  0  0  0  0  0  0  0  0
    0.8284    1.1565    0.2397 H   0  0  0  0  0  0  0  0  0  0  0  0
    0.9884   -0.5203   -2.2388 H   0  0  0  0  0  0  0  0  0  0  0  0
    0.0270    0.9330   -2.0914 H   0  0  0  0  0  0  0  0  0  0  0  0
    0.6322   -2.3720   -0.3702 H   0  0  0  0  0  0  0  0  0  0  0  0
   -1.1715   -3.6734    0.7064 H   0  0  0  0  0  0  0  0  0  0  0  0
   -3.4528   -2.7539    0.8642 H   0  0  0  0  0  0  0  0  0  0  0  0
   -5.3014   -2.0255   -1.0215 H   0  0  0  0  0  0  0  0  0  0  0  0
   -7.5691   -1.1026   -0.8706 H   0  0  0  0  0  0  0  0  0  0  0  0
   -8.4652    1.9129    1.0854 H   0  0  0  0  0  0  0  0  0  0  0  0
   -8.5262    1.9149   -0.6955 H   0  0  0  0  0  0  0  0  0  0  0  0
   -9.0971    0.5055    0.2308 H   0  0  0  0  0  0  0  0  0  0  0  0
   -6.0104    2.4160    1.0672 H   0  0  0  0  0  0  0  0  0  0  0  0
   -3.7435    1.4886    0.9303 H   0  0  0  0  0  0  0  0  0  0  0  0
   -2.1569    0.8119   -1.1724 H   0  0  0  0  0  0  0  0  0  0  0  0
    3.2631   -1.0370   -1.9962 H   0  0  0  0  0  0  0  0  0  0  0  0
  1  2  1  0
  2  3  1  0
  3  4  2  0
  3  5  1  0
  5  6  1  0
  6  7  1  0
  7  8  2  0
  8  9  1  0
  9 10  1  0
 10 11  1  0
 11 12  2  0
 12 13  1  0
 13 14  2  0
 14 15  1  0
 15 16  1  0
 16 17  1  0
 17 18  2  0
 18 19  1  0
 19 20  1  0
 19 21  2  0
 21 22  1  0
 15 23  2  0
  8 24  1  0
 24 25  2  0
 25  6  1  0
 23 11  1  0
 22 16  2  0
  1 26  1  0
  1 27  1  0
  1 28  1  0
  2 29  1  0
  5 30  1  0
  5 31  1  0
  7 32  1  0
  9 33  1  0
 10 34  1  0
 10 35  1  0
 12 36  1  0
 13 37  1  0
 14 38  1  0
 17 39  1  0
 18 40  1  0
 20 41  1  0
 20 42  1  0
 20 43  1  0
 21 44  1  0
 22 45  1  0
 23 46  1  0
 24 47  1  0
M  END
$$$$
OCNT-2315389
     RDKit          3D

 42 44  0  0  0  0  0  0  0  0999 V2000
    0.6828   -1.8541   -0.9128 O   0  0  0  0  0  0  0  0  0  0  0  0
    0.7422   -0.5268   -1.4831 S   0  0  0  0  0  0  0  0  0  0  0  0
    1.6977   -0.1910   -2.5170 O   0  0  0  0  0  0  0  0  0  0  0  0
    0.9009    0.6753   -0.1650 C   0  0  0  0  0  0  0  0  0  0  0  0
    2.0574    0.4099    0.7988 C   0  0  0  0  0  0  0  0  0  0  0  0
    3.4484    0.7965    0.2813 C   0  0  0  0  0  0  0  0  0  0  0  0
    4.1311   -0.2571   -0.6067 C   0  0  0  0  0  0  0  0  0  0  0  0
    5.5764   -0.3732   -0.1203 C   0  0  0  0  0  0  0  0  0  0  0  0
    5.7930    0.8298    0.7800 C   0  0  0  0  0  0  0  0  0  0  0  0
    4.4362    1.0061    1.4366 C   0  0  0  0  0  0  0  0  0  0  0  0
   -0.7563   -0.1325   -2.1470 N   0  0  0  0  0  0  0  0  0  0  0  0
   -1.9463   -0.2425   -1.3762 C   0  0  0  0  0  0  0  0  0  0  0  0
   -2.7413    0.8910   -1.2083 C   0  0  0  0  0  0  0  0  0  0  0  0
   -3.9145    0.8195   -0.4511 C   0  0  0  0  0  0  0  0  0  0  0  0
   -4.3057   -0.3935    0.1365 C   0  0  0  0  0  0  0  0  0  0  0  0
   -5.4997   -0.4439    0.9019 N   0  0  0  0  0  0  0  0  0  0  0  0
   -6.0683   -1.5124    1.5530 C   0  0  0  0  0  0  0  0  0  0  0  0
   -7.1775   -1.1488    2.1561 N   0  0  0  0  0  0  0  0  0  0  0  0
   -7.2628    0.1740    1.8490 C   0  0  0  0  0  0  0  0  0  0  0  0
   -6.2742    0.6541    1.0942 N   0  0  0  0  0  0  0  0  0  0  0  0
   -3.5126   -1.5332   -0.0473 C   0  0  0  0  0  0  0  0  0  0  0  0
   -2.3386   -1.4526   -0.8057 C   0  0  0  0  0  0  0  0  0  0  0  0
    0.9738    1.6677   -0.6200 H   0  0  0  0  0  0  0  0  0  0  0  0
   -0.0266    0.6239    0.4142 H   0  0  0  0  0  0  0  0  0  0  0  0
    1.8565    1.0139    1.6941 H   0  0  0  0  0  0  0  0  0  0  0  0
    2.0507   -0.6356    1.1292 H   0  0  0  0  0  0  0  0  0  0  0  0
    3.3787    1.7377   -0.2804 H   0  0  0  0  0  0  0  0  0  0  0  0
    4.1217    0.0723   -1.6512 H   0  0  0  0  0  0  0  0  0  0  0  0
    3.6409   -1.2350   -0.5625 H   0  0  0  0  0  0  0  0  0  0  0  0
    6.2910   -0.4050   -0.9483 H   0  0  0  0  0  0  0  0  0  0  0  0
    5.6955   -1.2978    0.4573 H   0  0  0  0  0  0  0  0  0  0  0  0
    6.5923    0.6664    1.5082 H   0  0  0  0  0  0  0  0  0  0  0  0
    6.0461    1.7131    0.1819 H   0  0  0  0  0  0  0  0  0  0  0  0
    4.2945    0.2490    2.2179 H   0  0  0  0  0  0  0  0  0  0  0  0
    4.3276    1.9936    1.8958 H   0  0  0  0  0  0  0  0  0  0  0  0
   -0.6946    0.6306   -2.8205 H   0  0  0  0  0  0  0  0  0  0  0  0
   -2.4618    1.8410   -1.6558 H   0  0  0  0  0  0  0  0  0  0  0  0
   -4.5162    1.7197   -0.3310 H   0  0  0  0  0  0  0  0  0  0  0  0
   -5.6491   -2.5070    1.5583 H   0  0  0  0  0  0  0  0  0  0  0  0
   -8.0718    0.8098    2.1865 H   0  0  0  0  0  0  0  0  0  0  0  0
   -3.7713   -2.5000    0.3747 H   0  0  0  0  0  0  0  0  0  0  0  0
   -1.7464   -2.3529   -0.9567 H   0  0  0  0  0  0  0  0  0  0  0  0
  1  2  2  0
  2  3  2  0
  2  4  1  0
  4  5  1  0
  5  6  1  0
  6  7  1  0
  7  8  1  0
  8  9  1  0
  9 10  1  0
  2 11  1  0
 11 12  1  0
 12 13  1  0
 13 14  2  0
 14 15  1  0
 15 16  1  0
 16 17  1  0
 17 18  2  0
 18 19  1  0
 19 20  2  0
 15 21  2  0
 21 22  1  0
 10  6  1  0
 22 12  2  0
 20 16  1  0
  4 23  1  0
  4 24  1  0
  5 25  1  0
  5 26  1  0
  6 27  1  0
  7 28  1  0
  7 29  1  0
  8 30  1  0
  8 31  1  0
  9 32  1  0
  9 33  1  0
 10 34  1  0
 10 35  1  0
 11 36  1  0
 13 37  1  0
 14 38  1  0
 17 39  1  0
 19 40  1  0
 21 41  1  0
 22 42  1  0
M  END
$$$$
OCNT-2315390
     RDKit          3D

 56 59  0  0  0  0  0  0  0  0999 V2000
    8.1250    1.4956   -0.1293 C   0  0  0  0  0  0  0  0  0  0  0  0
    7.4676    0.9745    1.0189 O   0  0  0  0  0  0  0  0  0  0  0  0
    6.1495    0.6278    0.8745 C   0  0  0  0  0  0  0  0  0  0  0  0
    5.5565    0.1309    2.0370 C   0  0  0  0  0  0  0  0  0  0  0  0
    4.2140   -0.2690    2.0578 C   0  0  0  0  0  0  0  0  0  0  0  0
    3.4527   -0.1646    0.8803 C   0  0  0  0  0  0  0  0  0  0  0  0
    2.1041   -0.4679    0.5431 C   0  0  0  0  0  0  0  0  0  0  0  0
    1.9039   -0.1492   -0.7897 C   0  0  0  0  0  0  0  0  0  0  0  0
    0.7471   -0.2390   -1.6532 C   0  0  0  0  0  0  0  0  0  0  0  0
    0.7979    0.0735   -2.8385 O   0  0  0  0  0  0  0  0  0  0  0  0
   -0.4036   -0.6626   -1.0370 N   0  0  0  0  0  0  0  0  0  0  0  0
   -1.7278   -0.5678   -1.6619 C   0  0  0  0  0  0  0  0  0  0  0  0
   -1.8566   -1.6011   -2.7882 C   0  0  0  0  0  0  0  0  0  0  0  0
   -2.8474   -0.6132   -0.5283 C   0  0  0  0  0  0  0  0  0  0  0  0
   -2.3208    0.1950    0.6308 N   0  0  0  0  0  0  0  0  0  0  0  0
   -2.3235    1.6617    0.4106 C   0  0  0  0  0  0  0  0  0  0  0  0
   -1.5207    2.3936    1.4988 C   0  0  0  0  0  0  0  0  0  0  0  0
   -2.0520    2.1166    2.7992 O   0  0  0  0  0  0  0  0  0  0  0  0
   -2.0178    0.7083    3.0494 C   0  0  0  0  0  0  0  0  0  0  0  0
   -2.8185   -0.0757    1.9905 C   0  0  0  0  0  0  0  0  0  0  0  0
   -4.2149   -0.1448   -1.0861 C   0  0  0  0  0  0  0  0  0  0  0  0
   -5.2731   -0.7576   -0.1777 C   0  0  0  0  0  0  0  0  0  0  0  0
   -4.6583   -2.0451    0.3632 C   0  0  0  0  0  0  0  0  0  0  0  0
   -3.2106   -2.0725   -0.1371 C   0  0  0  0  0  0  0  0  0  0  0  0
    3.1100    0.3243   -1.2598 N   0  0  0  0  0  0  0  0  0  0  0  0
    4.0617    0.3320   -0.2686 C   0  0  0  0  0  0  0  0  0  0  0  0
    5.4054    0.7362   -0.3061 C   0  0  0  0  0  0  0  0  0  0  0  0
    8.1567    0.7555   -0.9357 H   0  0  0  0  0  0  0  0  0  0  0  0
    9.1575    1.7249    0.1519 H   0  0  0  0  0  0  0  0  0  0  0  0
    7.6567    2.4272   -0.4640 H   0  0  0  0  0  0  0  0  0  0  0  0
    6.1476    0.0523    2.9466 H   0  0  0  0  0  0  0  0  0  0  0  0
    3.7734   -0.6526    2.9727 H   0  0  0  0  0  0  0  0  0  0  0  0
    1.3670   -0.8806    1.2189 H   0  0  0  0  0  0  0  0  0  0  0  0
   -0.4346   -0.5938   -0.0268 H   0  0  0  0  0  0  0  0  0  0  0  0
   -1.7731    0.4194   -2.1405 H   0  0  0  0  0  0  0  0  0  0  0  0
   -1.5817   -2.6055   -2.4491 H   0  0  0  0  0  0  0  0  0  0  0  0
   -2.8656   -1.6334   -3.2065 H   0  0  0  0  0  0  0  0  0  0  0  0
   -1.1794   -1.3603   -3.6148 H   0  0  0  0  0  0  0  0  0  0  0  0
   -3.3528    2.0391    0.4354 H   0  0  0  0  0  0  0  0  0  0  0  0
   -1.8878    1.9234   -0.5578 H   0  0  0  0  0  0  0  0  0  0  0  0
   -1.5823    3.4750    1.3400 H   0  0  0  0  0  0  0  0  0  0  0  0
   -0.4610    2.1119    1.4695 H   0  0  0  0  0  0  0  0  0  0  0  0
   -0.9739    0.3723    3.0826 H   0  0  0  0  0  0  0  0  0  0  0  0
   -2.4516    0.5377    4.0399 H   0  0  0  0  0  0  0  0  0  0  0  0
   -2.7205   -1.1324    2.2508 H   0  0  0  0  0  0  0  0  0  0  0  0
   -3.8703    0.2139    2.0760 H   0  0  0  0  0  0  0  0  0  0  0  0
   -4.3720   -0.5312   -2.0997 H   0  0  0  0  0  0  0  0  0  0  0  0
   -4.3244    0.9398   -1.1655 H   0  0  0  0  0  0  0  0  0  0  0  0
   -5.5259   -0.0765    0.6408 H   0  0  0  0  0  0  0  0  0  0  0  0
   -6.2008   -0.9541   -0.7253 H   0  0  0  0  0  0  0  0  0  0  0  0
   -4.7124   -2.0708    1.4560 H   0  0  0  0  0  0  0  0  0  0  0  0
   -5.2042   -2.9235    0.0016 H   0  0  0  0  0  0  0  0  0  0  0  0
   -3.1956   -2.7385   -1.0054 H   0  0  0  0  0  0  0  0  0  0  0  0
   -2.5202   -2.5178    0.5863 H   0  0  0  0  0  0  0  0  0  0  0  0
    3.2540    0.6252   -2.2150 H   0  0  0  0  0  0  0  0  0  0  0  0
    5.8277    1.1135   -1.2286 H   0  0  0  0  0  0  0  0  0  0  0  0
  1  2  1  0
  2  3  1  0
  3  4  2  0
  4  5  1  0
  5  6  2  0
  6  7  1  0
  7  8  2  0
  8  9  1  0
  9 10  2  0
  9 11  1  0
 11 12  1  0
 12 13  1  0
 12 14  1  0
 14 15  1  0
 15 16  1  0
 16 17  1  0
 17 18  1  0
 18 19  1  0
 19 20  1  0
 14 21  1  0
 21 22  1  0
 22 23  1  0
 23 24  1  0
  8 25  1  0
 25 26  1  0
 26 27  2  0
 27  3  1  0
 26  6  1  0
 24 14  1  0
 20 15  1  0
  1 28  1  0
  1 29  1  0
  1 30  1  0
  4 31  1  0
  5 32  1  0
  7 33  1  0
 11 34  1  0
 12 35  1  0
 13 36  1  0
 13 37  1  0
 13 38  1  0
 16 39  1  0
 16 40  1  0
 17 41  1  0
 17 42  1  0
 19 43  1  0
 19 44  1  0
 20 45  1  0
 20 46  1  0
 21 47  1  0
 21 48  1  0
 22 49  1  0
 22 50  1  0
 23 51  1  0
 23 52  1  0
 24 53  1  0
 24 54  1  0
 25 55  1  0
 27 56  1  0
M  END
$$$$
OCNT-2315394
     RDKit          3D

 43 46  0  0  0  0  0  0  0  0999 V2000
   -2.0540   -0.6701    1.3916 O   0  0  0  0  0  0  0  0  0  0  0  0
   -1.3888   -0.5823    0.3539 C   0  0  0  0  0  0  0  0  0  0  0  0
   -1.8875    0.2558   -0.8500 C   0  0  0  0  0  0  0  0  0  0  0  0
   -1.3228    1.9985   -0.6184 S   0  0  0  0  0  0  0  0  0  0  0  0
   -2.6110    2.5415    0.5581 C   0  0  0  0  0  0  0  0  0  0  0  0
   -4.0071    2.4742   -0.0593 C   0  0  0  0  0  0  0  0  0  0  0  0
   -4.3048    1.1295   -0.6542 C   0  0  0  0  0  0  0  0  0  0  0  0
   -3.3887    0.1553   -1.0206 C   0  0  0  0  0  0  0  0  0  0  0  0
   -4.0606   -0.9824   -1.5854 C   0  0  0  0  0  0  0  0  0  0  0  0
   -5.4279   -0.8279   -1.6217 C   0  0  0  0  0  0  0  0  0  0  0  0
   -5.9176    0.6788   -0.9887 S   0  0  0  0  0  0  0  0  0  0  0  0
   -0.1440   -1.2118    0.2459 N   0  0  0  0  0  0  0  0  0  0  0  0
    0.6917   -1.1791   -0.9538 C   0  0  0  0  0  0  0  0  0  0  0  0
    2.0514   -1.8474   -0.7601 C   0  0  0  0  0  0  0  0  0  0  0  0
    2.7242   -1.4500    0.5657 C   0  0  0  0  0  0  0  0  0  0  0  0
    3.4126   -0.0983    0.4452 C   0  0  0  0  0  0  0  0  0  0  0  0
    4.7846   -0.0423    0.1712 C   0  0  0  0  0  0  0  0  0  0  0  0
    5.3960    1.1961    0.0383 C   0  0  0  0  0  0  0  0  0  0  0  0
    4.7447    2.3715    0.1506 N   0  0  0  0  0  0  0  0  0  0  0  0
    3.4224    2.3035    0.4090 C   0  0  0  0  0  0  0  0  0  0  0  0
    2.7239    1.1143    0.5609 C   0  0  0  0  0  0  0  0  0  0  0  0
    1.7594   -1.5579    1.7683 C   0  0  0  0  0  0  0  0  0  0  0  0
    0.3540   -2.0006    1.3685 C   0  0  0  0  0  0  0  0  0  0  0  0
   -1.4367   -0.1020   -1.7792 H   0  0  0  0  0  0  0  0  0  0  0  0
   -2.3903    3.5729    0.8521 H   0  0  0  0  0  0  0  0  0  0  0  0
   -2.5499    1.9308    1.4646 H   0  0  0  0  0  0  0  0  0  0  0  0
   -4.7431    2.7187    0.7164 H   0  0  0  0  0  0  0  0  0  0  0  0
   -4.1019    3.2378   -0.8422 H   0  0  0  0  0  0  0  0  0  0  0  0
   -3.5630   -1.8770   -1.9406 H   0  0  0  0  0  0  0  0  0  0  0  0
   -6.1648   -1.5289   -1.9889 H   0  0  0  0  0  0  0  0  0  0  0  0
    0.8234   -0.1377   -1.2613 H   0  0  0  0  0  0  0  0  0  0  0  0
    0.1475   -1.6897   -1.7564 H   0  0  0  0  0  0  0  0  0  0  0  0
    1.9045   -2.9361   -0.7578 H   0  0  0  0  0  0  0  0  0  0  0  0
    2.6972   -1.6313   -1.6199 H   0  0  0  0  0  0  0  0  0  0  0  0
    3.5181   -2.1888    0.7475 H   0  0  0  0  0  0  0  0  0  0  0  0
    5.3776   -0.9444    0.0601 H   0  0  0  0  0  0  0  0  0  0  0  0
    6.4590    1.2749   -0.1710 H   0  0  0  0  0  0  0  0  0  0  0  0
    2.9162    3.2612    0.4929 H   0  0  0  0  0  0  0  0  0  0  0  0
    1.6589    1.1526    0.7647 H   0  0  0  0  0  0  0  0  0  0  0  0
    2.1600   -2.2857    2.4856 H   0  0  0  0  0  0  0  0  0  0  0  0
    1.6932   -0.6144    2.3224 H   0  0  0  0  0  0  0  0  0  0  0  0
   -0.3074   -1.9292    2.2376 H   0  0  0  0  0  0  0  0  0  0  0  0
    0.3516   -3.0526    1.0586 H   0  0  0  0  0  0  0  0  0  0  0  0
  1  2  2  0
  2  3  1  0
  3  4  1  0
  4  5  1  0
  5  6  1  0
  6  7  1  0
  7  8  2  0
  8  9  1  0
  9 10  2  0
 10 11  1  0
  2 12  1  0
 12 13  1  0
 13 14  1  0
 14 15  1  0
 15 16  1  0
 16 17  2  0
 17 18  1  0
 18 19  2  0
 19 20  1  0
 20 21  2  0
 15 22  1  0
 22 23  1  0
  8  3  1  0
 23 12  1  0
 11  7  1  0
 21 16  1  0
  3 24  1  0
  5 25  1  0
  5 26  1  0
  6 27  1  0
  6 28  1  0
  9 29  1  0
 10 30  1  0
 13 31  1  0
 13 32  1  0
 14 33  1  0
 14 34  1  0
 15 35  1  0
 17 36  1  0
 18 37  1  0
 20 38  1  0
 21 39  1  0
 22 40  1  0
 22 41  1  0
 23 42  1  0
 23 43  1  0
M  END
$$$$
OCNT-2315408
     RDKit          3D

 56 59  0  0  0  0  0  0  0  0999 V2000
   -4.6397   -0.6879    2.7016 C   0  0  0  0  0  0  0  0  0  0  0  0
   -5.0100   -1.9657    2.0641 N   0  0  0  0  0  0  0  0  0  0  0  0
   -6.3025   -1.9160    1.3609 C   0  0  0  0  0  0  0  0  0  0  0  0
   -3.7672   -2.8527    1.3116 S   0  0  0  0  0  0  0  0  0  0  0  0
   -2.5983   -2.8425    2.1657 O   0  0  0  0  0  0  0  0  0  0  0  0
   -4.3342   -4.1026    0.8466 O   0  0  0  0  0  0  0  0  0  0  0  0
   -3.3731   -1.8876   -0.1322 C   0  0  0  0  0  0  0  0  0  0  0  0
   -3.7859   -2.3234   -1.3946 C   0  0  0  0  0  0  0  0  0  0  0  0
   -3.4189   -1.5939   -2.5229 C   0  0  0  0  0  0  0  0  0  0  0  0
   -2.6482   -0.4359   -2.3847 C   0  0  0  0  0  0  0  0  0  0  0  0
   -2.2488    0.0095   -1.1187 C   0  0  0  0  0  0  0  0  0  0  0  0
   -1.4803    1.1861   -1.0547 N   0  0  0  0  0  0  0  0  0  0  0  0
   -1.2383    1.9576    0.0753 C   0  0  0  0  0  0  0  0  0  0  0  0
   -1.8324    1.8443    1.1451 O   0  0  0  0  0  0  0  0  0  0  0  0
   -0.2458    3.0993   -0.1643 C   0  0  0  0  0  0  0  0  0  0  0  0
    1.0024    2.5804   -0.6872 N   0  0  0  0  0  0  0  0  0  0  0  0
    1.2196    2.2429   -1.9830 C   0  0  0  0  0  0  0  0  0  0  0  0
    0.3996    2.3059   -2.8867 O   0  0  0  0  0  0  0  0  0  0  0  0
    2.4828    1.7291   -2.1076 N   0  0  0  0  0  0  0  0  0  0  0  0
    3.1475    1.5779   -0.8246 C   0  0  0  0  0  0  0  0  0  0  0  0
    4.4211    2.4354   -0.8150 C   0  0  0  0  0  0  0  0  0  0  0  0
    5.3213    2.0899    0.3655 C   0  0  0  0  0  0  0  0  0  0  0  0
    5.7523    0.6295    0.2916 C   0  0  0  0  0  0  0  0  0  0  0  0
    4.5969   -0.3172    0.0787 C   0  0  0  0  0  0  0  0  0  0  0  0
    4.7745   -1.6693    0.4173 C   0  0  0  0  0  0  0  0  0  0  0  0
    3.7480   -2.5916    0.2337 C   0  0  0  0  0  0  0  0  0  0  0  0
    2.5352   -2.1773   -0.3020 C   0  0  0  0  0  0  0  0  0  0  0  0
    2.3496   -0.8401   -0.6564 C   0  0  0  0  0  0  0  0  0  0  0  0
    3.3749    0.1117   -0.4785 C   0  0  0  0  0  0  0  0  0  0  0  0
    2.0703    2.2171    0.0895 C   0  0  0  0  0  0  0  0  0  0  0  0
    2.1488    2.3737    1.3016 O   0  0  0  0  0  0  0  0  0  0  0  0
   -2.5914   -0.7373    0.0076 C   0  0  0  0  0  0  0  0  0  0  0  0
   -3.6820   -0.7642    3.2249 H   0  0  0  0  0  0  0  0  0  0  0  0
   -4.5936    0.1223    1.9690 H   0  0  0  0  0  0  0  0  0  0  0  0
   -5.3886   -0.4273    3.4562 H   0  0  0  0  0  0  0  0  0  0  0  0
   -7.0622   -1.4541    2.0001 H   0  0  0  0  0  0  0  0  0  0  0  0
   -6.2291   -1.3330    0.4386 H   0  0  0  0  0  0  0  0  0  0  0  0
   -6.6542   -2.9258    1.1280 H   0  0  0  0  0  0  0  0  0  0  0  0
   -4.3706   -3.2347   -1.5097 H   0  0  0  0  0  0  0  0  0  0  0  0
   -3.7260   -1.9291   -3.5116 H   0  0  0  0  0  0  0  0  0  0  0  0
   -2.3751    0.1189   -3.2796 H   0  0  0  0  0  0  0  0  0  0  0  0
   -1.1660    1.5724   -1.9472 H   0  0  0  0  0  0  0  0  0  0  0  0
   -0.0606    3.6107    0.7847 H   0  0  0  0  0  0  0  0  0  0  0  0
   -0.6852    3.8014   -0.8804 H   0  0  0  0  0  0  0  0  0  0  0  0
    2.7809    1.2678   -2.9561 H   0  0  0  0  0  0  0  0  0  0  0  0
    4.1713    3.5048   -0.7836 H   0  0  0  0  0  0  0  0  0  0  0  0
    4.9868    2.2776   -1.7453 H   0  0  0  0  0  0  0  0  0  0  0  0
    6.2072    2.7334    0.3601 H   0  0  0  0  0  0  0  0  0  0  0  0
    4.7955    2.2812    1.3094 H   0  0  0  0  0  0  0  0  0  0  0  0
    6.4612    0.4955   -0.5370 H   0  0  0  0  0  0  0  0  0  0  0  0
    6.2785    0.3727    1.2213 H   0  0  0  0  0  0  0  0  0  0  0  0
    5.7176   -2.0058    0.8449 H   0  0  0  0  0  0  0  0  0  0  0  0
    3.8922   -3.6302    0.5194 H   0  0  0  0  0  0  0  0  0  0  0  0
    1.7264   -2.8912   -0.4355 H   0  0  0  0  0  0  0  0  0  0  0  0
    1.3816   -0.5536   -1.0625 H   0  0  0  0  0  0  0  0  0  0  0  0
   -2.2356   -0.4584    0.9955 H   0  0  0  0  0  0  0  0  0  0  0  0
  1  2  1  0
  2  3  1  0
  2  4  1  0
  4  5  2  0
  4  6  2  0
  4  7  1  0
  7  8  2  0
  8  9  1  0
  9 10  2  0
 10 11  1  0
 11 12  1  0
 12 13  1  0
 13 14  2  0
 13 15  1  0
 15 16  1  0
 16 17  1  0
 17 18  2  0
 17 19  1  0
 19 20  1  0
 20 21  1  0
 21 22  1  0
 22 23  1  0
 23 24  1  0
 24 25  2  0
 25 26  1  0
 26 27  2  0
 27 28  1  0
 28 29  2  0
 20 30  1  0
 30 31  2  0
 11 32  2  0
 32  7  1  0
 30 16  1  0
 29 20  1  0
 29 24  1  0
  1 33  1  0
  1 34  1  0
  1 35  1  0
  3 36  1  0
  3 37  1  0
  3 38  1  0
  8 39  1  0
  9 40  1  0
 10 41  1  0
 12 42  1  0
 15 43  1  0
 15 44  1  0
 19 45  1  0
 21 46  1  0
 21 47  1  0
 22 48  1  0
 22 49  1  0
 23 50  1  0
 23 51  1  0
 25 52  1  0
 26 53  1  0
 27 54  1  0
 28 55  1  0
 32 56  1  0
M  END
$$$$
OCNT-2315417
     RDKit          3D

 50 52  0  0  0  0  0  0  0  0999 V2000
    8.8537   -1.2288   -0.1348 C   0  0  0  0  0  0  0  0  0  0  0  0
    7.2128   -1.6811   -0.6386 S   0  0  0  0  0  0  0  0  0  0  0  0
    7.0248   -1.1623   -1.9805 O   0  0  0  0  0  0  0  0  0  0  0  0
    7.0622   -3.0991   -0.3620 O   0  0  0  0  0  0  0  0  0  0  0  0
    6.1994   -0.7580    0.5081 C   0  0  0  0  0  0  0  0  0  0  0  0
    4.7658   -0.9288    0.1784 C   0  0  0  0  0  0  0  0  0  0  0  0
    3.9649   -1.9958   -0.1675 C   0  0  0  0  0  0  0  0  0  0  0  0
    2.6559   -1.4785   -0.3333 C   0  0  0  0  0  0  0  0  0  0  0  0
    2.7175   -0.1226   -0.0607 C   0  0  0  0  0  0  0  0  0  0  0  0
    1.7300    0.9430   -0.0508 C   0  0  0  0  0  0  0  0  0  0  0  0
    1.9807    2.0994    0.2829 O   0  0  0  0  0  0  0  0  0  0  0  0
    0.4576    0.5661   -0.4420 N   0  0  0  0  0  0  0  0  0  0  0  0
   -0.6560    1.4955   -0.4471 C   0  0  0  0  0  0  0  0  0  0  0  0
   -1.2851    1.6612    0.9498 C   0  0  0  0  0  0  0  0  0  0  0  0
   -2.2611    2.8430    0.9719 C   0  0  0  0  0  0  0  0  0  0  0  0
   -3.5093    2.5925    0.1135 C   0  0  0  0  0  0  0  0  0  0  0  0
   -3.8660    1.1687   -0.0028 N   0  0  0  0  0  0  0  0  0  0  0  0
   -5.2816    1.0238   -0.3835 C   0  0  0  0  0  0  0  0  0  0  0  0
   -5.5886   -0.3536   -0.9073 C   0  0  0  0  0  0  0  0  0  0  0  0
   -4.9546   -1.0455   -1.9226 C   0  0  0  0  0  0  0  0  0  0  0  0
   -5.5316   -2.3272   -2.1512 C   0  0  0  0  0  0  0  0  0  0  0  0
   -6.5918   -2.5711   -1.3078 C   0  0  0  0  0  0  0  0  0  0  0  0
   -6.8864   -1.2607   -0.2498 S   0  0  0  0  0  0  0  0  0  0  0  0
   -3.5384    0.4417    1.2253 C   0  0  0  0  0  0  0  0  0  0  0  0
   -2.0150    0.3816    1.4106 C   0  0  0  0  0  0  0  0  0  0  0  0
    4.0097    0.2023    0.2621 O   0  0  0  0  0  0  0  0  0  0  0  0
    9.5645   -1.7550   -0.7754 H   0  0  0  0  0  0  0  0  0  0  0  0
    8.9747   -0.1502   -0.2506 H   0  0  0  0  0  0  0  0  0  0  0  0
    8.9982   -1.5255    0.9056 H   0  0  0  0  0  0  0  0  0  0  0  0
    6.4992    0.2916    0.4331 H   0  0  0  0  0  0  0  0  0  0  0  0
    6.4117   -1.1275    1.5152 H   0  0  0  0  0  0  0  0  0  0  0  0
    4.2840   -3.0225   -0.2970 H   0  0  0  0  0  0  0  0  0  0  0  0
    1.7779   -2.0413   -0.6148 H   0  0  0  0  0  0  0  0  0  0  0  0
    0.2698   -0.3960   -0.6788 H   0  0  0  0  0  0  0  0  0  0  0  0
   -1.3773    1.1182   -1.1787 H   0  0  0  0  0  0  0  0  0  0  0  0
   -0.2891    2.4625   -0.8106 H   0  0  0  0  0  0  0  0  0  0  0  0
   -0.4783    1.8686    1.6649 H   0  0  0  0  0  0  0  0  0  0  0  0
   -1.7640    3.7634    0.6430 H   0  0  0  0  0  0  0  0  0  0  0  0
   -2.5730    3.0155    2.0109 H   0  0  0  0  0  0  0  0  0  0  0  0
   -3.3344    2.9834   -0.8962 H   0  0  0  0  0  0  0  0  0  0  0  0
   -4.3327    3.1786    0.5429 H   0  0  0  0  0  0  0  0  0  0  0  0
   -5.5127    1.7221   -1.2001 H   0  0  0  0  0  0  0  0  0  0  0  0
   -5.9363    1.2942    0.4551 H   0  0  0  0  0  0  0  0  0  0  0  0
   -4.1092   -0.6443   -2.4690 H   0  0  0  0  0  0  0  0  0  0  0  0
   -5.1874   -3.0328   -2.8970 H   0  0  0  0  0  0  0  0  0  0  0  0
   -7.2113   -3.4560   -1.2616 H   0  0  0  0  0  0  0  0  0  0  0  0
   -3.9047   -0.5911    1.1985 H   0  0  0  0  0  0  0  0  0  0  0  0
   -4.0098    0.9164    2.0962 H   0  0  0  0  0  0  0  0  0  0  0  0
   -1.6173   -0.4983    0.8908 H   0  0  0  0  0  0  0  0  0  0  0  0
   -1.8122    0.2203    2.4771 H   0  0  0  0  0  0  0  0  0  0  0  0
  1  2  1  0
  2  3  2  0
  2  4  2  0
  2  5  1  0
  5  6  1  0
  6  7  2  0
  7  8  1  0
  8  9  2  0
  9 10  1  0
 10 11  2  0
 10 12  1  0
 12 13  1  0
 13 14  1  0
 14 15  1  0
 15 16  1  0
 16 17  1  0
 17 18  1  0
 18 19  1  0
 19 20  2  0
 20 21  1  0
 21 22  2  0
 22 23  1  0
 17 24  1  0
 24 25  1  0
  9 26  1  0
 26  6  1  0
 25 14  1  0
 23 19  1  0
  1 27  1  0
  1 28  1  0
  1 29  1  0
  5 30  1  0
  5 31  1  0
  7 32  1  0
  8 33  1  0
 12 34  1  0
 13 35  1  0
 13 36  1  0
 14 37  1  0
 15 38  1  0
 15 39  1  0
 16 40  1  0
 16 41  1  0
 18 42  1  0
 18 43  1  0
 20 44  1  0
 21 45  1  0
 22 46  1  0
 24 47  1  0
 24 48  1  0
 25 49  1  0
 25 50  1  0
M  END
$$$$
OCNT-2315433
     RDKit          3D

  0  0  0  0  0  0  0  0  0  0999 V3000
M  V30 BEGIN CTAB
M  V30 COUNTS 54 56 0 0 0
M  V30 BEGIN ATOM
M  V30 1 C -5.907151 -0.606593 0.001014 0
M  V30 2 C -4.661708 -0.500415 0.874941 0
M  V30 3 O -3.880542 -1.677572 0.649802 0
M  V30 4 C -3.844362 0.765075 0.515810 0
M  V30 5 N -2.908363 1.219683 1.570568 0
M  V30 6 C -1.851605 0.250951 1.891987 0
M  V30 7 C -0.801593 0.083951 0.789822 0
M  V30 8 C -0.180323 1.435248 0.415949 0
M  V30 9 C 0.904285 1.338108 -0.676704 0
M  V30 10 N 0.523565 0.693220 -1.937817 0
M  V30 11 C -0.294270 1.443115 -2.874817 0
M  V30 12 C 0.803441 -0.629602 -2.277885 0
M  V30 13 O 0.370844 -1.169588 -3.291252 0
M  V30 14 C 1.677223 -1.417951 -1.366084 0 CFG=1
M  V30 15 C 2.619930 -2.455140 -1.945057 0
M  V30 16 C 3.179354 -1.184914 -1.368362 0 CFG=2
M  V30 17 C 3.978233 -1.193029 -0.076765 0
M  V30 18 C 3.655304 -1.992890 1.035569 0
M  V30 19 C 4.411324 -1.963067 2.212601 0
M  V30 20 C 5.520188 -1.127861 2.307112 0
M  V30 21 C 5.865356 -0.330508 1.222591 0
M  V30 22 Cl 7.235816 0.705444 1.325655 0
M  V30 23 C 5.107440 -0.361270 0.049556 0
M  V30 24 C -1.274618 2.468416 0.114578 0
M  V30 25 C -2.313949 2.524734 1.240441 0
M  V30 26 H -6.466634 -1.517679 0.239705 0
M  V30 27 H -5.635979 -0.671861 -1.059112 0
M  V30 28 H -6.569120 0.253131 0.143328 0
M  V30 29 H -4.956501 -0.475312 1.930418 0
M  V30 30 H -4.396786 -2.431254 0.982165 0
M  V30 31 H -3.318530 0.594587 -0.431430 0
M  V30 32 H -4.560477 1.580600 0.348477 0
M  V30 33 H -1.344322 0.596365 2.803052 0
M  V30 34 H -2.268166 -0.720585 2.171934 0
M  V30 35 H -0.019251 -0.590454 1.155367 0
M  V30 36 H -1.252341 -0.392624 -0.087238 0
M  V30 37 H 0.341728 1.802063 1.312660 0
M  V30 38 H 1.755890 0.805899 -0.246294 0
M  V30 39 H 1.277528 2.340999 -0.920004 0
M  V30 40 H -1.343251 1.178472 -2.719891 0
M  V30 41 H -0.023459 1.187099 -3.903850 0
M  V30 42 H -0.147334 2.517410 -2.736294 0
M  V30 43 H 1.178923 -1.723927 -0.456169 0
M  V30 44 H 2.741077 -3.387142 -1.407462 0
M  V30 45 H 2.648886 -2.575985 -3.023488 0
M  V30 46 H 3.530655 -0.470132 -2.114826 0
M  V30 47 H 2.797753 -2.662568 0.994489 0
M  V30 48 H 4.132738 -2.595488 3.051526 0
M  V30 49 H 6.107822 -1.106259 3.220531 0
M  V30 50 H 5.399758 0.272905 -0.785682 0
M  V30 51 H -0.822908 3.460208 -0.007148 0
M  V30 52 H -1.784196 2.239886 -0.823590 0
M  V30 53 H -3.099210 3.246415 0.982371 0
M  V30 54 H -1.838111 2.927690 2.144462 0
M  V30 END ATOM
M  V30 BEGIN BOND
M  V30 1 1 1 2
M  V30 2 1 2 3
M  V30 3 1 2 4
M  V30 4 1 4 5
M  V30 5 1 5 6
M  V30 6 1 6 7
M  V30 7 1 7 8
M  V30 8 1 8 9
M  V30 9 1 9 10
M  V30 10 1 10 11
M  V30 11 1 10 12
M  V30 12 2 12 13
M  V30 13 1 12 14
M  V30 14 1 14 15
M  V30 15 1 15 16
M  V30 16 1 16 17
M  V30 17 2 17 18
M  V30 18 1 18 19
M  V30 19 2 19 20
M  V30 20 1 20 21
M  V30 21 1 21 22
M  V30 22 2 21 23
M  V30 23 1 8 24
M  V30 24 1 24 25
M  V30 25 1 25 5
M  V30 26 1 16 14
M  V30 27 1 23 17
M  V30 28 1 1 26
M  V30 29 1 1 27
M  V30 30 1 1 28
M  V30 31 1 2 29
M  V30 32 1 3 30
M  V30 33 1 4 31
M  V30 34 1 4 32
M  V30 35 1 6 33
M  V30 36 1 6 34
M  V30 37 1 7 35
M  V30 38 1 7 36
M  V30 39 1 8 37
M  V30 40 1 9 38
M  V30 41 1 9 39
M  V30 42 1 11 40
M  V30 43 1 11 41
M  V30 44 1 11 42
M  V30 45 1 14 43 CFG=1
M  V30 46 1 15 44
M  V30 47 1 15 45
M  V30 48 1 16 46 CFG=3
M  V30 49 1 18 47
M  V30 50 1 19 48
M  V30 51 1 20 49
M  V30 52 1 23 50
M  V30 53 1 24 51
M  V30 54 1 24 52
M  V30 55 1 25 53
M  V30 56 1 25 54
M  V30 END BOND
M  V30 BEGIN COLLECTION
M  V30 MDLV30/STERAC1 ATOMS=(2 14 16)
M  V30 END COLLECTION
M  V30 END CTAB
M  END
>  <_CXSMILES_Data>  (971) 
|&1:13,15|

$$$$
OCNT-2315444
     RDKit          3D

  0  0  0  0  0  0  0  0  0  0999 V3000
M  V30 BEGIN CTAB
M  V30 COUNTS 48 51 0 0 0
M  V30 BEGIN ATOM
M  V30 1 O -2.501992 -0.764470 2.647940 0
M  V30 2 C -2.008076 -0.396162 1.585505 0
M  V30 3 C -0.575888 -0.680559 1.342630 0
M  V30 4 C -0.160849 -1.360027 0.196553 0
M  V30 5 C 1.198065 -1.637629 0.003145 0
M  V30 6 C 2.161645 -1.232956 0.935553 0
M  V30 7 N 3.518085 -1.526743 0.819768 0
M  V30 8 C 4.152352 -1.804562 -0.469457 0
M  V30 9 C 4.224381 -0.580786 -1.387388 0
M  V30 10 N 5.057347 0.476976 -0.852675 0
M  V30 11 C 6.408782 0.603571 -1.009003 0
M  V30 12 C 6.735737 1.752661 -0.326896 0
M  V30 13 N 5.619469 2.323109 0.228257 0
M  V30 14 C 4.622107 1.539254 -0.113521 0
M  V30 15 C 1.711810 -0.606904 2.109128 0
M  V30 16 C 0.357447 -0.326107 2.314682 0
M  V30 17 N -2.721524 0.277068 0.608674 0
M  V30 18 C -2.171468 1.005333 -0.524953 0
M  V30 19 C -3.198063 2.089791 -0.807949 0
M  V30 20 C -4.526557 1.463843 -0.392434 0 CFG=1
M  V30 21 C -5.172061 0.567053 -1.460719 0
M  V30 22 C -5.067249 -0.862406 -0.941883 0
M  V30 23 C -5.011837 -0.706034 0.570737 0
M  V30 24 C -4.150241 0.536862 0.774674 0 CFG=1
M  V30 25 H -0.890085 -1.703384 -0.532200 0
M  V30 26 H 1.477192 -2.197070 -0.883948 0
M  V30 27 H 4.102392 -0.965296 1.439627 0
M  V30 28 H 5.168003 -2.164737 -0.264402 0
M  V30 29 H 3.642272 -2.629075 -0.979581 0
M  V30 30 H 4.651719 -0.867423 -2.355413 0
M  V30 31 H 3.233309 -0.156380 -1.581410 0
M  V30 32 H 7.008371 -0.102497 -1.565931 0
M  V30 33 H 7.713995 2.200175 -0.206925 0
M  V30 34 H 3.582626 1.688863 0.150536 0
M  V30 35 H 2.420637 -0.332572 2.887863 0
M  V30 36 H 0.034222 0.156542 3.234011 0
M  V30 37 H -2.094473 0.311689 -1.368572 0
M  V30 38 H -1.184045 1.419066 -0.302636 0
M  V30 39 H -3.175907 2.430827 -1.846881 0
M  V30 40 H -2.994273 2.955832 -0.165670 0
M  V30 41 H -5.242431 2.235810 -0.088355 0
M  V30 42 H -4.718722 0.673897 -2.451211 0
M  V30 43 H -6.230738 0.836888 -1.559823 0
M  V30 44 H -5.909957 -1.481218 -1.263953 0
M  V30 45 H -4.147297 -1.331087 -1.310369 0
M  V30 46 H -4.613622 -1.601703 1.055985 0
M  V30 47 H -6.021499 -0.525187 0.958695 0
M  V30 48 H -4.313111 0.997866 1.754797 0
M  V30 END ATOM
M  V30 BEGIN BOND
M  V30 1 2 1 2
M  V30 2 1 2 3
M  V30 3 1 3 4
M  V30 4 2 4 5
M  V30 5 1 5 6
M  V30 6 1 6 7
M  V30 7 1 7 8
M  V30 8 1 8 9
M  V30 9 1 9 10
M  V30 10 1 10 11
M  V30 11 2 11 12
M  V30 12 1 12 13
M  V30 13 2 13 14
M  V30 14 2 6 15
M  V30 15 1 15 16
M  V30 16 1 2 17
M  V30 17 1 17 18
M  V30 18 1 18 19
M  V30 19 1 19 20
M  V30 20 1 20 21
M  V30 21 1 21 22
M  V30 22 1 22 23
M  V30 23 1 23 24
M  V30 24 2 16 3
M  V30 25 1 24 17
M  V30 26 1 14 10
M  V30 27 1 24 20
M  V30 28 1 4 25
M  V30 29 1 5 26
M  V30 30 1 7 27
M  V30 31 1 8 28
M  V30 32 1 8 29
M  V30 33 1 9 30
M  V30 34 1 9 31
M  V30 35 1 11 32
M  V30 36 1 12 33
M  V30 37 1 14 34
M  V30 38 1 15 35
M  V30 39 1 16 36
M  V30 40 1 18 37
M  V30 41 1 18 38
M  V30 42 1 19 39
M  V30 43 1 19 40
M  V30 44 1 20 41 CFG=1
M  V30 45 1 21 42
M  V30 46 1 21 43
M  V30 47 1 22 44
M  V30 48 1 22 45
M  V30 49 1 23 46
M  V30 50 1 23 47
M  V30 51 1 24 48 CFG=1
M  V30 END BOND
M  V30 BEGIN COLLECTION
M  V30 MDLV30/STERAC1 ATOMS=(2 20 24)
M  V30 END COLLECTION
M  V30 END CTAB
M  END
>  <_CXSMILES_Data>  (972) 
|&1:19,23|

$$$$
OCNT-2315451
     RDKit          3D

 49 53  0  0  0  0  0  0  0  0999 V2000
    6.2565    0.8635    1.9134 C   0  0  0  0  0  0  0  0  0  0  0  0
    5.6508    0.3794    0.7215 O   0  0  0  0  0  0  0  0  0  0  0  0
    4.3145    0.6262    0.5628 C   0  0  0  0  0  0  0  0  0  0  0  0
    3.5036    1.3336    1.4406 C   0  0  0  0  0  0  0  0  0  0  0  0
    2.1518    1.5054    1.1448 C   0  0  0  0  0  0  0  0  0  0  0  0
    1.5930    0.9647   -0.0280 C   0  0  0  0  0  0  0  0  0  0  0  0
    0.1312    1.2220   -0.3208 C   0  0  0  0  0  0  0  0  0  0  0  0
   -0.4699    0.2426   -1.2368 N   0  0  0  0  0  0  0  0  0  0  0  0
   -0.9301   -0.9284   -0.6024 C   0  0  0  0  0  0  0  0  0  0  0  0
   -0.2553   -2.0745   -0.7928 N   0  0  0  0  0  0  0  0  0  0  0  0
   -0.6778   -3.1546   -0.1303 C   0  0  0  0  0  0  0  0  0  0  0  0
   -1.7341   -3.2200    0.6853 N   0  0  0  0  0  0  0  0  0  0  0  0
   -2.4385   -2.0981    0.8326 C   0  0  0  0  0  0  0  0  0  0  0  0
   -3.5638   -2.1307    1.6507 C   0  0  0  0  0  0  0  0  0  0  0  0
   -4.3799   -1.0117    1.8378 C   0  0  0  0  0  0  0  0  0  0  0  0
   -4.0703    0.1662    1.1697 C   0  0  0  0  0  0  0  0  0  0  0  0
   -5.0805    1.6101    1.3862 S   0  0  0  0  0  0  0  0  0  0  0  0
   -6.1738    1.5593   -0.0094 C   0  0  0  0  0  0  0  0  0  0  0  0
   -4.2128    2.7640    1.2470 O   0  0  0  0  0  0  0  0  0  0  0  0
   -5.8705    1.4141    2.5865 O   0  0  0  0  0  0  0  0  0  0  0  0
   -2.9389    0.2353    0.3574 C   0  0  0  0  0  0  0  0  0  0  0  0
   -2.0972   -0.8949    0.1934 C   0  0  0  0  0  0  0  0  0  0  0  0
    0.3076    0.0383   -2.4635 C   0  0  0  0  0  0  0  0  0  0  0  0
    1.7717   -0.3280   -2.2199 C   0  0  0  0  0  0  0  0  0  0  0  0
    2.2442   -1.6907   -2.7117 C   0  0  0  0  0  0  0  0  0  0  0  0
    2.6279   -0.4598   -3.4739 C   0  0  0  0  0  0  0  0  0  0  0  0
    2.3947    0.2546   -0.9442 C   0  0  0  0  0  0  0  0  0  0  0  0
    3.7573    0.1006   -0.6091 C   0  0  0  0  0  0  0  0  0  0  0  0
    7.3111    0.5721    1.8946 H   0  0  0  0  0  0  0  0  0  0  0  0
    5.8017    0.4102    2.8005 H   0  0  0  0  0  0  0  0  0  0  0  0
    6.2141    1.9566    1.9613 H   0  0  0  0  0  0  0  0  0  0  0  0
    3.8870    1.7646    2.3587 H   0  0  0  0  0  0  0  0  0  0  0  0
    1.5288    2.0664    1.8388 H   0  0  0  0  0  0  0  0  0  0  0  0
   -0.4206    1.2828    0.6247 H   0  0  0  0  0  0  0  0  0  0  0  0
    0.0547    2.2143   -0.7844 H   0  0  0  0  0  0  0  0  0  0  0  0
   -0.1067   -4.0661   -0.2684 H   0  0  0  0  0  0  0  0  0  0  0  0
   -3.8130   -3.0603    2.1599 H   0  0  0  0  0  0  0  0  0  0  0  0
   -5.2422   -1.0785    2.4977 H   0  0  0  0  0  0  0  0  0  0  0  0
   -6.8402    2.4225    0.0510 H   0  0  0  0  0  0  0  0  0  0  0  0
   -5.5848    1.6095   -0.9271 H   0  0  0  0  0  0  0  0  0  0  0  0
   -6.7569    0.6372    0.0282 H   0  0  0  0  0  0  0  0  0  0  0  0
   -2.7023    1.1628   -0.1612 H   0  0  0  0  0  0  0  0  0  0  0  0
   -0.1887   -0.6942   -3.1145 H   0  0  0  0  0  0  0  0  0  0  0  0
    0.2895    0.9819   -3.0260 H   0  0  0  0  0  0  0  0  0  0  0  0
    3.0068   -2.2152   -2.1481 H   0  0  0  0  0  0  0  0  0  0  0  0
    1.5112   -2.3601   -3.1492 H   0  0  0  0  0  0  0  0  0  0  0  0
    3.6629   -0.1404   -3.4508 H   0  0  0  0  0  0  0  0  0  0  0  0
    2.1606   -0.3016   -4.4403 H   0  0  0  0  0  0  0  0  0  0  0  0
    4.4157   -0.4531   -1.2746 H   0  0  0  0  0  0  0  0  0  0  0  0
  1  2  1  0
  2  3  1  0
  3  4  1  0
  4  5  2  0
  5  6  1  0
  6  7  1  0
  7  8  1  0
  8  9  1  0
  9 10  1  0
 10 11  2  0
 11 12  1  0
 12 13  2  0
 13 14  1  0
 14 15  2  0
 15 16  1  0
 16 17  1  0
 17 18  1  0
 17 19  2  0
 17 20  2  0
 16 21  2  0
 21 22  1  0
  8 23  1  0
 23 24  1  0
 24 25  1  0
 25 26  1  0
 24 27  1  0
 27 28  1  0
 28  3  2  0
 27  6  2  0
 22  9  2  0
 26 24  1  0
 22 13  1  0
  1 29  1  0
  1 30  1  0
  1 31  1  0
  4 32  1  0
  5 33  1  0
  7 34  1  0
  7 35  1  0
 11 36  1  0
 14 37  1  0
 15 38  1  0
 18 39  1  0
 18 40  1  0
 18 41  1  0
 21 42  1  0
 23 43  1  0
 23 44  1  0
 25 45  1  0
 25 46  1  0
 26 47  1  0
 26 48  1  0
 28 49  1  0
M  END
$$$$
OCNT-2315460
     RDKit          3D

 58 61  0  0  0  0  0  0  0  0999 V2000
   -3.0077   -3.8841   -3.7180 C   0  0  0  0  0  0  0  0  0  0  0  0
   -1.8406   -3.4305   -2.9652 N   0  0  0  0  0  0  0  0  0  0  0  0
   -1.5342   -2.0083   -3.2197 C   0  0  0  0  0  0  0  0  0  0  0  0
   -1.9003   -1.2480   -1.9379 C   0  0  0  0  0  0  0  0  0  0  0  0
   -1.2812    0.1063   -1.7096 C   0  0  0  0  0  0  0  0  0  0  0  0
   -1.9318    0.8851   -0.8188 N   0  0  0  0  0  0  0  0  0  0  0  0
   -1.4185    2.0830   -0.4769 C   0  0  0  0  0  0  0  0  0  0  0  0
   -2.1050    2.8780    0.4431 N   0  0  0  0  0  0  0  0  0  0  0  0
   -1.2241    3.6389    1.3193 C   0  0  0  0  0  0  0  0  0  0  0  0
   -3.2321    2.2113    1.0910 C   0  0  0  0  0  0  0  0  0  0  0  0
   -0.2846    2.5525   -1.0219 N   0  0  0  0  0  0  0  0  0  0  0  0
    0.3303    1.7782   -1.9308 C   0  0  0  0  0  0  0  0  0  0  0  0
   -0.1247    0.5403   -2.3166 C   0  0  0  0  0  0  0  0  0  0  0  0
   -1.5413   -2.2883   -0.8706 C   0  0  0  0  0  0  0  0  0  0  0  0
   -2.0330   -3.5882   -1.5102 C   0  0  0  0  0  0  0  0  0  0  0  0
   -0.0796   -2.3603   -0.3549 C   0  0  0  0  0  0  0  0  0  0  0  0
   -0.5786   -1.8185    0.8947 N   0  0  0  0  0  0  0  0  0  0  0  0
   -0.0670   -0.9195    1.7952 C   0  0  0  0  0  0  0  0  0  0  0  0
   -0.7229   -0.4928    2.7462 O   0  0  0  0  0  0  0  0  0  0  0  0
    1.3603   -0.4997    1.5102 C   0  0  0  0  0  0  0  0  0  0  0  0
    1.9495    0.3841    2.6058 C   0  0  0  0  0  0  0  0  0  0  0  0
    3.2292    1.0332    2.1259 C   0  0  0  0  0  0  0  0  0  0  0  0
    4.4626    0.3975    2.3141 C   0  0  0  0  0  0  0  0  0  0  0  0
    5.6368    0.9675    1.8155 C   0  0  0  0  0  0  0  0  0  0  0  0
    5.5905    2.1767    1.1229 C   0  0  0  0  0  0  0  0  0  0  0  0
    4.3701    2.8196    0.9259 C   0  0  0  0  0  0  0  0  0  0  0  0
    3.2029    2.2428    1.4228 C   0  0  0  0  0  0  0  0  0  0  0  0
    1.9985    2.8520    1.2283 O   0  0  0  0  0  0  0  0  0  0  0  0
   -1.9787   -2.0762    0.5994 C   0  0  0  0  0  0  0  0  0  0  0  0
   -3.2160   -4.9395   -3.5042 H   0  0  0  0  0  0  0  0  0  0  0  0
   -3.9060   -3.2991   -3.4861 H   0  0  0  0  0  0  0  0  0  0  0  0
   -2.8183   -3.8106   -4.7933 H   0  0  0  0  0  0  0  0  0  0  0  0
   -0.4605   -1.9647   -3.4254 H   0  0  0  0  0  0  0  0  0  0  0  0
   -2.0413   -1.5927   -4.0982 H   0  0  0  0  0  0  0  0  0  0  0  0
   -2.9925   -1.1088   -1.9394 H   0  0  0  0  0  0  0  0  0  0  0  0
   -1.8154    4.2653    1.9958 H   0  0  0  0  0  0  0  0  0  0  0  0
   -0.6043    2.9825    1.9388 H   0  0  0  0  0  0  0  0  0  0  0  0
   -0.5799    4.3231    0.7547 H   0  0  0  0  0  0  0  0  0  0  0  0
   -3.7536    2.9112    1.7541 H   0  0  0  0  0  0  0  0  0  0  0  0
   -3.9741    1.8801    0.3541 H   0  0  0  0  0  0  0  0  0  0  0  0
   -2.9107    1.3564    1.6982 H   0  0  0  0  0  0  0  0  0  0  0  0
    1.2410    2.1937   -2.3494 H   0  0  0  0  0  0  0  0  0  0  0  0
    0.4314   -0.0409   -3.0374 H   0  0  0  0  0  0  0  0  0  0  0  0
   -1.4954   -4.4683   -1.1480 H   0  0  0  0  0  0  0  0  0  0  0  0
   -3.0933   -3.7293   -1.2687 H   0  0  0  0  0  0  0  0  0  0  0  0
    0.3367   -3.3645   -0.2184 H   0  0  0  0  0  0  0  0  0  0  0  0
    0.6560   -1.7447   -0.8744 H   0  0  0  0  0  0  0  0  0  0  0  0
    1.9803   -1.3961    1.3852 H   0  0  0  0  0  0  0  0  0  0  0  0
    1.3532    0.0400    0.5552 H   0  0  0  0  0  0  0  0  0  0  0  0
    1.2397    1.1558    2.9246 H   0  0  0  0  0  0  0  0  0  0  0  0
    2.1464   -0.2150    3.5040 H   0  0  0  0  0  0  0  0  0  0  0  0
    4.5147   -0.5454    2.8471 H   0  0  0  0  0  0  0  0  0  0  0  0
    6.5895    0.4694    1.9682 H   0  0  0  0  0  0  0  0  0  0  0  0
    6.5068    2.6212    0.7416 H   0  0  0  0  0  0  0  0  0  0  0  0
    4.3454    3.7690    0.3973 H   0  0  0  0  0  0  0  0  0  0  0  0
    2.0725    3.5123    0.5195 H   0  0  0  0  0  0  0  0  0  0  0  0
   -2.6469   -1.2310    0.7844 H   0  0  0  0  0  0  0  0  0  0  0  0
   -2.3501   -2.9622    1.1243 H   0  0  0  0  0  0  0  0  0  0  0  0
  1  2  1  0
  2  3  1  0
  3  4  1  0
  4  5  1  0
  5  6  2  0
  6  7  1  0
  7  8  1  0
  8  9  1  0
  8 10  1  0
  7 11  2  0
 11 12  1  0
 12 13  2  0
  4 14  1  0
 14 15  1  0
 14 16  1  0
 16 17  1  0
 17 18  1  0
 18 19  2  0
 18 20  1  0
 20 21  1  0
 21 22  1  0
 22 23  2  0
 23 24  1  0
 24 25  2  0
 25 26  1  0
 26 27  2  0
 27 28  1  0
 17 29  1  0
 15  2  1  0
 27 22  1  0
 13  5  1  0
 29 14  1  0
  1 30  1  0
  1 31  1  0
  1 32  1  0
  3 33  1  0
  3 34  1  0
  4 35  1  0
  9 36  1  0
  9 37  1  0
  9 38  1  0
 10 39  1  0
 10 40  1  0
 10 41  1  0
 12 42  1  0
 13 43  1  0
 15 44  1  0
 15 45  1  0
 16 46  1  0
 16 47  1  0
 20 48  1  0
 20 49  1  0
 21 50  1  0
 21 51  1  0
 23 52  1  0
 24 53  1  0
 25 54  1  0
 26 55  1  0
 28 56  1  0
 29 57  1  0
 29 58  1  0
M  END
$$$$
OCNT-2315461
     RDKit          3D

 44 45  0  0  0  0  0  0  0  0999 V2000
    1.3862   -1.3709   -2.1744 C   0  0  0  0  0  0  0  0  0  0  0  0
    0.7990   -1.3611   -0.7585 C   0  0  0  0  0  0  0  0  0  0  0  0
    1.3395   -0.1163    0.0072 C   0  0  0  0  0  0  0  0  0  0  0  0
    0.7417    0.9545    0.0554 O   0  0  0  0  0  0  0  0  0  0  0  0
    2.5937   -0.3471    0.5596 N   0  0  0  0  0  0  0  0  0  0  0  0
    3.4069    0.5493    1.2963 C   0  0  0  0  0  0  0  0  0  0  0  0
    3.0168    1.8496    1.6311 C   0  0  0  0  0  0  0  0  0  0  0  0
    3.8778    2.6771    2.3588 C   0  0  0  0  0  0  0  0  0  0  0  0
    3.3865    4.2767    2.7650 Cl  0  0  0  0  0  0  0  0  0  0  0  0
    5.1329    2.2256    2.7628 C   0  0  0  0  0  0  0  0  0  0  0  0
    5.5349    0.9312    2.4396 C   0  0  0  0  0  0  0  0  0  0  0  0
    4.6770    0.1005    1.7137 C   0  0  0  0  0  0  0  0  0  0  0  0
    5.2243   -1.4988    1.3331 Cl  0  0  0  0  0  0  0  0  0  0  0  0
   -0.6828   -1.4858   -0.6508 N   0  0  0  0  0  0  0  0  0  0  0  0
   -1.1223   -2.8295   -1.0537 C   0  0  0  0  0  0  0  0  0  0  0  0
   -1.4360   -0.4478   -1.3854 C   0  0  0  0  0  0  0  0  0  0  0  0
   -2.4087    0.3049   -0.4628 C   0  0  0  0  0  0  0  0  0  0  0  0
   -3.2609    1.3230   -1.2211 C   0  0  0  0  0  0  0  0  0  0  0  0
   -4.4663    1.5838   -0.3184 C   0  0  0  0  0  0  0  0  0  0  0  0
   -4.4956    0.4467    0.7005 C   0  0  0  0  0  0  0  0  0  0  0  0
   -3.4677   -0.5655    0.2118 C   0  0  0  0  0  0  0  0  0  0  0  0
   -2.9444   -1.3028    1.3030 O   0  0  0  0  0  0  0  0  0  0  0  0
    1.0676   -0.5030   -2.7603 H   0  0  0  0  0  0  0  0  0  0  0  0
    1.1103   -2.2760   -2.7224 H   0  0  0  0  0  0  0  0  0  0  0  0
    2.4809   -1.3389   -2.1350 H   0  0  0  0  0  0  0  0  0  0  0  0
    1.2140   -2.2301   -0.2280 H   0  0  0  0  0  0  0  0  0  0  0  0
    3.0035   -1.2657    0.4199 H   0  0  0  0  0  0  0  0  0  0  0  0
    2.0473    2.2449    1.3450 H   0  0  0  0  0  0  0  0  0  0  0  0
    5.7974    2.8752    3.3286 H   0  0  0  0  0  0  0  0  0  0  0  0
    6.5137    0.5773    2.7540 H   0  0  0  0  0  0  0  0  0  0  0  0
   -2.1975   -2.9561   -0.8934 H   0  0  0  0  0  0  0  0  0  0  0  0
   -0.6291   -3.5948   -0.4445 H   0  0  0  0  0  0  0  0  0  0  0  0
   -0.9159   -3.0402   -2.1072 H   0  0  0  0  0  0  0  0  0  0  0  0
   -0.7743    0.2966   -1.8420 H   0  0  0  0  0  0  0  0  0  0  0  0
   -1.9869   -0.8866   -2.2284 H   0  0  0  0  0  0  0  0  0  0  0  0
   -1.8293    0.8248    0.3124 H   0  0  0  0  0  0  0  0  0  0  0  0
   -2.7070    2.2421   -1.4373 H   0  0  0  0  0  0  0  0  0  0  0  0
   -3.6050    0.9104   -2.1777 H   0  0  0  0  0  0  0  0  0  0  0  0
   -5.3889    1.6178   -0.9073 H   0  0  0  0  0  0  0  0  0  0  0  0
   -4.3695    2.5473    0.1945 H   0  0  0  0  0  0  0  0  0  0  0  0
   -5.4907   -0.0006    0.7886 H   0  0  0  0  0  0  0  0  0  0  0  0
   -4.2316    0.8229    1.6964 H   0  0  0  0  0  0  0  0  0  0  0  0
   -3.9267   -1.2611   -0.5003 H   0  0  0  0  0  0  0  0  0  0  0  0
   -2.0149   -1.5036    1.0684 H   0  0  0  0  0  0  0  0  0  0  0  0
  1  2  1  0
  2  3  1  0
  3  4  2  0
  3  5  1  0
  5  6  1  0
  6  7  1  0
  7  8  2  0
  8  9  1  0
  8 10  1  0
 10 11  2  0
 11 12  1  0
 12 13  1  0
  2 14  1  0
 14 15  1  0
 14 16  1  0
 16 17  1  0
 17 18  1  0
 18 19  1  0
 19 20  1  0
 20 21  1  0
 21 22  1  0
 12  6  2  0
 21 17  1  0
  1 23  1  0
  1 24  1  0
  1 25  1  0
  2 26  1  0
  5 27  1  0
  7 28  1  0
 10 29  1  0
 11 30  1  0
 15 31  1  0
 15 32  1  0
 15 33  1  0
 16 34  1  0
 16 35  1  0
 17 36  1  0
 18 37  1  0
 18 38  1  0
 19 39  1  0
 19 40  1  0
 20 41  1  0
 20 42  1  0
 21 43  1  0
 22 44  1  0
M  END
$$$$
OCNT-2315468
     RDKit          3D

 46 50  0  0  0  0  0  0  0  0999 V2000
    3.6603   -0.6225    2.3702 C   0  0  0  0  0  0  0  0  0  0  0  0
    2.4198   -0.4762    1.7507 C   0  0  0  0  0  0  0  0  0  0  0  0
    2.3324    0.0127    0.4414 C   0  0  0  0  0  0  0  0  0  0  0  0
    1.0280    0.1620   -0.1980 C   0  0  0  0  0  0  0  0  0  0  0  0
    0.8510    0.6217   -1.4477 N   0  0  0  0  0  0  0  0  0  0  0  0
   -0.5288    0.5896   -1.6233 O   0  0  0  0  0  0  0  0  0  0  0  0
   -1.0599    0.1134   -0.4593 C   0  0  0  0  0  0  0  0  0  0  0  0
   -2.5527   -0.0202   -0.3972 C   0  0  0  0  0  0  0  0  0  0  0  0
   -3.2053    1.3621   -0.6747 C   0  0  0  0  0  0  0  0  0  0  0  0
   -4.7189    1.3553   -0.4423 C   0  0  0  0  0  0  0  0  0  0  0  0
   -5.0951    0.6932    0.8871 C   0  0  0  0  0  0  0  0  0  0  0  0
   -4.4473   -0.6114    1.1002 N   0  0  0  0  0  0  0  0  0  0  0  0
   -4.9407   -1.6363    0.1630 C   0  0  0  0  0  0  0  0  0  0  0  0
   -3.8877   -2.1813   -0.8076 C   0  0  0  0  0  0  0  0  0  0  0  0
   -3.0345   -1.0762   -1.4355 C   0  0  0  0  0  0  0  0  0  0  0  0
   -2.9835   -0.4542    1.0240 C   0  0  0  0  0  0  0  0  0  0  0  0
   -0.1481   -0.1643    0.4443 N   0  0  0  0  0  0  0  0  0  0  0  0
    3.5166    0.3535   -0.2377 C   0  0  0  0  0  0  0  0  0  0  0  0
    4.7721    0.2097    0.3782 C   0  0  0  0  0  0  0  0  0  0  0  0
    5.9655    0.5588   -0.3213 N   0  0  0  0  0  0  0  0  0  0  0  0
    6.0737    1.0521   -1.6054 C   0  0  0  0  0  0  0  0  0  0  0  0
    7.4163    1.2350   -1.8373 C   0  0  0  0  0  0  0  0  0  0  0  0
    8.1492    0.8743   -0.7461 N   0  0  0  0  0  0  0  0  0  0  0  0
    7.2634    0.4761    0.1410 C   0  0  0  0  0  0  0  0  0  0  0  0
    4.8318   -0.2822    1.6900 C   0  0  0  0  0  0  0  0  0  0  0  0
    3.7137   -1.0035    3.3877 H   0  0  0  0  0  0  0  0  0  0  0  0
    1.5189   -0.7475    2.2989 H   0  0  0  0  0  0  0  0  0  0  0  0
   -2.7572    2.1175   -0.0138 H   0  0  0  0  0  0  0  0  0  0  0  0
   -2.9979    1.6956   -1.6997 H   0  0  0  0  0  0  0  0  0  0  0  0
   -5.2163    0.8386   -1.2712 H   0  0  0  0  0  0  0  0  0  0  0  0
   -5.0936    2.3855   -0.4563 H   0  0  0  0  0  0  0  0  0  0  0  0
   -6.1849    0.5898    0.9572 H   0  0  0  0  0  0  0  0  0  0  0  0
   -4.8128    1.3616    1.7111 H   0  0  0  0  0  0  0  0  0  0  0  0
   -5.8045   -1.2783   -0.4113 H   0  0  0  0  0  0  0  0  0  0  0  0
   -5.3200   -2.4754    0.7590 H   0  0  0  0  0  0  0  0  0  0  0  0
   -3.2310   -2.8830   -0.2768 H   0  0  0  0  0  0  0  0  0  0  0  0
   -4.3779   -2.7633   -1.5968 H   0  0  0  0  0  0  0  0  0  0  0  0
   -2.1864   -1.5568   -1.9408 H   0  0  0  0  0  0  0  0  0  0  0  0
   -3.6105   -0.5950   -2.2357 H   0  0  0  0  0  0  0  0  0  0  0  0
   -2.6565    0.2817    1.7725 H   0  0  0  0  0  0  0  0  0  0  0  0
   -2.4957   -1.3912    1.3259 H   0  0  0  0  0  0  0  0  0  0  0  0
    3.4303    0.7313   -1.2529 H   0  0  0  0  0  0  0  0  0  0  0  0
    5.2258    1.2346   -2.2468 H   0  0  0  0  0  0  0  0  0  0  0  0
    7.8889    1.6086   -2.7368 H   0  0  0  0  0  0  0  0  0  0  0  0
    7.5208    0.1211    1.1282 H   0  0  0  0  0  0  0  0  0  0  0  0
    5.7693   -0.4165    2.2211 H   0  0  0  0  0  0  0  0  0  0  0  0
  1  2  2  0
  2  3  1  0
  3  4  1  0
  4  5  2  0
  5  6  1  0
  6  7  1  0
  7  8  1  0
  8  9  1  0
  9 10  1  0
 10 11  1  0
 11 12  1  0
 12 13  1  0
 13 14  1  0
 14 15  1  0
 12 16  1  0
  7 17  2  0
  3 18  2  0
 18 19  1  0
 19 20  1  0
 20 21  1  0
 21 22  2  0
 22 23  1  0
 23 24  2  0
 19 25  2  0
 25  1  1  0
 17  4  1  0
 24 20  1  0
 15  8  1  0
 16  8  1  0
  1 26  1  0
  2 27  1  0
  9 28  1  0
  9 29  1  0
 10 30  1  0
 10 31  1  0
 11 32  1  0
 11 33  1  0
 13 34  1  0
 13 35  1  0
 14 36  1  0
 14 37  1  0
 15 38  1  0
 15 39  1  0
 16 40  1  0
 16 41  1  0
 18 42  1  0
 21 43  1  0
 22 44  1  0
 24 45  1  0
 25 46  1  0
M  END
$$$$
OCNT-2315469
     RDKit          3D

 63 65  0  0  0  0  0  0  0  0999 V2000
    5.9788   -1.4036   -1.2779 C   0  0  0  0  0  0  0  0  0  0  0  0
    6.0153   -0.3459   -0.2008 C   0  0  0  0  0  0  0  0  0  0  0  0
    4.9025   -0.1200    0.6472 C   0  0  0  0  0  0  0  0  0  0  0  0
    3.7217   -0.8798    0.4472 N   0  0  0  0  0  0  0  0  0  0  0  0
    2.6091   -0.9662    1.2734 C   0  0  0  0  0  0  0  0  0  0  0  0
    2.4805   -0.3651    2.3425 O   0  0  0  0  0  0  0  0  0  0  0  0
    1.4499   -1.8696    0.7442 C   0  0  0  0  0  0  0  0  0  0  0  0
    1.8104   -2.8652   -0.3623 C   0  0  0  0  0  0  0  0  0  0  0  0
    0.2646   -1.0788    0.3255 N   0  0  0  0  0  0  0  0  0  0  0  0
    0.5574    0.0750   -0.5240 C   0  0  0  0  0  0  0  0  0  0  0  0
   -0.6206    0.4527   -1.4376 C   0  0  0  0  0  0  0  0  0  0  0  0
   -2.0053   -0.0497   -1.0072 C   0  0  0  0  0  0  0  0  0  0  0  0
   -2.5391    0.4435    0.2702 N   0  0  0  0  0  0  0  0  0  0  0  0
   -3.1714    1.7725    0.1439 C   0  0  0  0  0  0  0  0  0  0  0  0
   -4.4254    1.7652   -0.6839 C   0  0  0  0  0  0  0  0  0  0  0  0
   -4.5893    2.4346   -1.8147 N   0  0  0  0  0  0  0  0  0  0  0  0
   -5.8604    2.1607   -2.2348 C   0  0  0  0  0  0  0  0  0  0  0  0
   -6.4910    1.3161   -1.3557 C   0  0  0  0  0  0  0  0  0  0  0  0
   -5.5720    1.0640   -0.3681 N   0  0  0  0  0  0  0  0  0  0  0  0
   -5.7872    0.1866    0.7779 C   0  0  0  0  0  0  0  0  0  0  0  0
   -6.9630    0.6526    1.6386 C   0  0  0  0  0  0  0  0  0  0  0  0
   -5.9602   -1.2678    0.3390 C   0  0  0  0  0  0  0  0  0  0  0  0
   -1.5478    0.4739    1.3575 C   0  0  0  0  0  0  0  0  0  0  0  0
   -0.5993   -0.7471    1.4841 C   0  0  0  0  0  0  0  0  0  0  0  0
    4.9922    0.8601    1.6485 C   0  0  0  0  0  0  0  0  0  0  0  0
    6.1518    1.6202    1.8322 C   0  0  0  0  0  0  0  0  0  0  0  0
    7.2467    1.4204    1.0079 C   0  0  0  0  0  0  0  0  0  0  0  0
    7.1618    0.4587   -0.0048 C   0  0  0  0  0  0  0  0  0  0  0  0
    8.3235    0.3274   -0.8690 N   0  0  0  0  0  0  0  0  0  0  0  0
    8.1762    0.6193   -2.0629 O   0  0  0  0  0  0  0  0  0  0  0  0
    9.3702   -0.0655   -0.3406 O   0  0  0  0  0  0  0  0  0  0  0  0
    5.5374   -2.3310   -0.8961 H   0  0  0  0  0  0  0  0  0  0  0  0
    6.9745   -1.6882   -1.6299 H   0  0  0  0  0  0  0  0  0  0  0  0
    5.3968   -1.0455   -2.1330 H   0  0  0  0  0  0  0  0  0  0  0  0
    3.7097   -1.4595   -0.3784 H   0  0  0  0  0  0  0  0  0  0  0  0
    1.1733   -2.5034    1.6000 H   0  0  0  0  0  0  0  0  0  0  0  0
    2.0367   -2.3744   -1.3140 H   0  0  0  0  0  0  0  0  0  0  0  0
    2.6821   -3.4638   -0.0777 H   0  0  0  0  0  0  0  0  0  0  0  0
    0.9819   -3.5590   -0.5408 H   0  0  0  0  0  0  0  0  0  0  0  0
    1.4058   -0.1364   -1.1883 H   0  0  0  0  0  0  0  0  0  0  0  0
    0.8733    0.9406    0.0730 H   0  0  0  0  0  0  0  0  0  0  0  0
   -0.4231    0.0323   -2.4328 H   0  0  0  0  0  0  0  0  0  0  0  0
   -0.6380    1.5419   -1.5670 H   0  0  0  0  0  0  0  0  0  0  0  0
   -1.9894   -1.1472   -0.9623 H   0  0  0  0  0  0  0  0  0  0  0  0
   -2.7106    0.1555   -1.8216 H   0  0  0  0  0  0  0  0  0  0  0  0
   -2.4665    2.5011   -0.2754 H   0  0  0  0  0  0  0  0  0  0  0  0
   -3.4479    2.1489    1.1376 H   0  0  0  0  0  0  0  0  0  0  0  0
   -6.2570    2.5835   -3.1481 H   0  0  0  0  0  0  0  0  0  0  0  0
   -7.4810    0.8838   -1.3583 H   0  0  0  0  0  0  0  0  0  0  0  0
   -4.8953    0.2394    1.4111 H   0  0  0  0  0  0  0  0  0  0  0  0
   -7.0461    0.0346    2.5399 H   0  0  0  0  0  0  0  0  0  0  0  0
   -7.9140    0.5871    1.0994 H   0  0  0  0  0  0  0  0  0  0  0  0
   -6.8263    1.6932    1.9534 H   0  0  0  0  0  0  0  0  0  0  0  0
   -6.8675   -1.4034   -0.2600 H   0  0  0  0  0  0  0  0  0  0  0  0
   -5.1081   -1.5956   -0.2668 H   0  0  0  0  0  0  0  0  0  0  0  0
   -6.0318   -1.9296    1.2073 H   0  0  0  0  0  0  0  0  0  0  0  0
   -0.9413    1.3884    1.2990 H   0  0  0  0  0  0  0  0  0  0  0  0
   -2.0963    0.5462    2.3069 H   0  0  0  0  0  0  0  0  0  0  0  0
    0.0094   -0.5568    2.3756 H   0  0  0  0  0  0  0  0  0  0  0  0
   -1.2050   -1.6347    1.7098 H   0  0  0  0  0  0  0  0  0  0  0  0
    4.1560    1.0817    2.3057 H   0  0  0  0  0  0  0  0  0  0  0  0
    6.1821    2.3738    2.6133 H   0  0  0  0  0  0  0  0  0  0  0  0
    8.1461    2.0176    1.1436 H   0  0  0  0  0  0  0  0  0  0  0  0
  1  2  1  0
  2  3  2  0
  3  4  1  0
  4  5  1  0
  5  6  2  0
  5  7  1  0
  7  8  1  0
  7  9  1  0
  9 10  1  0
 10 11  1  0
 11 12  1  0
 12 13  1  0
 13 14  1  0
 14 15  1  0
 15 16  2  0
 16 17  1  0
 17 18  2  0
 18 19  1  0
 19 20  1  0
 20 21  1  0
 20 22  1  0
 13 23  1  0
 23 24  1  0
  3 25  1  0
 25 26  2  0
 26 27  1  0
 27 28  2  0
 28 29  1  0
 29 30  2  0
 29 31  1  0
 28  2  1  0
 24  9  1  0
 19 15  1  0
  1 32  1  0
  1 33  1  0
  1 34  1  0
  4 35  1  0
  7 36  1  0
  8 37  1  0
  8 38  1  0
  8 39  1  0
 10 40  1  0
 10 41  1  0
 11 42  1  0
 11 43  1  0
 12 44  1  0
 12 45  1  0
 14 46  1  0
 14 47  1  0
 17 48  1  0
 18 49  1  0
 20 50  1  0
 21 51  1  0
 21 52  1  0
 21 53  1  0
 22 54  1  0
 22 55  1  0
 22 56  1  0
 23 57  1  0
 23 58  1  0
 24 59  1  0
 24 60  1  0
 25 61  1  0
 26 62  1  0
 27 63  1  0
M  CHG  2  29   1  31  -1
M  END
$$$$
OCNT-2315488
     RDKit          3D

  0  0  0  0  0  0  0  0  0  0999 V3000
M  V30 BEGIN CTAB
M  V30 COUNTS 57 59 0 0 0
M  V30 BEGIN ATOM
M  V30 1 C 8.052599 0.093752 0.279543 0
M  V30 2 N 6.931628 -0.497635 -0.456310 0
M  V30 3 C 6.921191 -1.948153 -0.256494 0
M  V30 4 C 5.662860 0.127360 -0.023712 0
M  V30 5 C 4.457815 -0.223437 -0.933151 0
M  V30 6 N 3.222500 0.519848 -0.603196 0
M  V30 7 C 2.758770 0.242425 0.765391 0
M  V30 8 C 1.281794 0.574265 0.953022 0
M  V30 9 C 0.408133 -0.310508 0.053381 0
M  V30 10 N -0.864392 0.344055 -0.236922 0
M  V30 11 C -1.854189 0.403441 0.709061 0
M  V30 12 O -1.808110 -0.132549 1.807146 0
M  V30 13 N -2.924795 1.135252 0.255950 0
M  V30 14 C -4.120873 1.213807 1.072949 0 CFG=1
M  V30 15 C -5.105365 2.267917 0.577890 0
M  V30 16 C -6.435841 1.894001 1.227322 0
M  V30 17 C -6.314300 0.436297 1.687108 0
M  V30 18 C -4.965535 -0.075882 1.162521 0 CFG=1
M  V30 19 N -5.056256 -0.818333 -0.085886 0
M  V30 20 C -4.308937 -1.926502 -0.393099 0
M  V30 21 C -4.682594 -2.273154 -1.668878 0
M  V30 22 N -5.636132 -1.412765 -2.143133 0
M  V30 23 C -5.851983 -0.560783 -1.166212 0
M  V30 24 C 1.128419 -0.705541 -1.241807 0
M  V30 25 C 2.184679 0.326055 -1.627737 0
M  V30 26 H 8.111990 1.171657 0.091399 0
M  V30 27 H 9.003795 -0.333006 -0.058519 0
M  V30 28 H 7.967416 -0.065003 1.360769 0
M  V30 29 H 6.165865 -2.429874 -0.884744 0
M  V30 30 H 6.731576 -2.220674 0.788074 0
M  V30 31 H 7.882130 -2.383824 -0.554189 0
M  V30 32 H 5.780616 1.219033 -0.054129 0
M  V30 33 H 5.450518 -0.142674 1.018459 0
M  V30 34 H 4.254118 -1.300356 -0.902545 0
M  V30 35 H 4.751113 0.020515 -1.962851 0
M  V30 36 H 3.344283 0.843243 1.470396 0
M  V30 37 H 2.913615 -0.812636 1.028369 0
M  V30 38 H 1.116022 1.637805 0.733979 0
M  V30 39 H 0.996417 0.432492 2.002359 0
M  V30 40 H 0.169926 -1.235409 0.595006 0
M  V30 41 H -0.831253 1.146662 -0.849669 0
M  V30 42 H -3.060678 1.055520 -0.744506 0
M  V30 43 H -3.807541 1.488332 2.090332 0
M  V30 44 H -4.790553 3.281308 0.848244 0
M  V30 45 H -5.198070 2.245133 -0.514292 0
M  V30 46 H -6.641215 2.540750 2.087887 0
M  V30 47 H -7.262844 2.023969 0.521231 0
M  V30 48 H -6.306772 0.416812 2.784285 0
M  V30 49 H -7.168763 -0.167003 1.363072 0
M  V30 50 H -4.531046 -0.769993 1.892995 0
M  V30 51 H -3.588393 -2.351734 0.292935 0
M  V30 52 H -4.313482 -3.093788 -2.270135 0
M  V30 53 H -6.566482 0.250388 -1.204416 0
M  V30 54 H 1.621234 -1.676262 -1.098883 0
M  V30 55 H 0.415242 -0.839407 -2.063970 0
M  V30 56 H 1.690161 1.292771 -1.788509 0
M  V30 57 H 2.619969 0.062017 -2.599314 0
M  V30 END ATOM
M  V30 BEGIN BOND
M  V30 1 1 1 2
M  V30 2 1 2 3
M  V30 3 1 2 4
M  V30 4 1 4 5
M  V30 5 1 5 6
M  V30 6 1 6 7
M  V30 7 1 7 8
M  V30 8 1 8 9
M  V30 9 1 9 10
M  V30 10 1 10 11
M  V30 11 2 11 12
M  V30 12 1 11 13
M  V30 13 1 13 14
M  V30 14 1 14 15
M  V30 15 1 15 16
M  V30 16 1 16 17
M  V30 17 1 17 18
M  V30 18 1 18 19
M  V30 19 1 19 20
M  V30 20 2 20 21
M  V30 21 1 21 22
M  V30 22 2 22 23
M  V30 23 1 9 24
M  V30 24 1 24 25
M  V30 25 1 25 6
M  V30 26 1 18 14
M  V30 27 1 23 19
M  V30 28 1 1 26
M  V30 29 1 1 27
M  V30 30 1 1 28
M  V30 31 1 3 29
M  V30 32 1 3 30
M  V30 33 1 3 31
M  V30 34 1 4 32
M  V30 35 1 4 33
M  V30 36 1 5 34
M  V30 37 1 5 35
M  V30 38 1 7 36
M  V30 39 1 7 37
M  V30 40 1 8 38
M  V30 41 1 8 39
M  V30 42 1 9 40
M  V30 43 1 10 41
M  V30 44 1 13 42
M  V30 45 1 14 43 CFG=1
M  V30 46 1 15 44
M  V30 47 1 15 45
M  V30 48 1 16 46
M  V30 49 1 16 47
M  V30 50 1 17 48
M  V30 51 1 17 49
M  V30 52 1 18 50 CFG=1
M  V30 53 1 20 51
M  V30 54 1 21 52
M  V30 55 1 23 53
M  V30 56 1 24 54
M  V30 57 1 24 55
M  V30 58 1 25 56
M  V30 59 1 25 57
M  V30 END BOND
M  V30 BEGIN COLLECTION
M  V30 MDLV30/STERAC1 ATOMS=(2 14 18)
M  V30 END COLLECTION
M  V30 END CTAB
M  END
>  <_CXSMILES_Data>  (978) 
|&1:13,17|

$$$$
OCNT-2315490
     RDKit          3D

 41 44  0  0  0  0  0  0  0  0999 V2000
   -0.0995   -3.4052    0.0381 O   0  0  0  0  0  0  0  0  0  0  0  0
   -0.3645   -2.2392    0.3083 C   0  0  0  0  0  0  0  0  0  0  0  0
    0.5233   -1.3704    0.9079 N   0  0  0  0  0  0  0  0  0  0  0  0
    1.9214   -1.7421    1.2128 C   0  0  0  0  0  0  0  0  0  0  0  0
    2.7990   -0.5938    1.7460 C   0  0  0  0  0  0  0  0  0  0  0  0
    3.2393   -0.3928    0.3937 N   0  0  0  0  0  0  0  0  0  0  0  0
    4.4057    0.3032    0.0279 C   0  0  0  0  0  0  0  0  0  0  0  0
    4.9456    0.1328   -1.2341 C   0  0  0  0  0  0  0  0  0  0  0  0
    6.0784    0.8564   -1.5287 C   0  0  0  0  0  0  0  0  0  0  0  0
    6.6631    1.7008   -0.6648 N   0  0  0  0  0  0  0  0  0  0  0  0
    6.0608    1.8042    0.5271 C   0  0  0  0  0  0  0  0  0  0  0  0
    4.9586    1.1486    0.9183 N   0  0  0  0  0  0  0  0  0  0  0  0
    2.8745   -1.7261    0.0014 C   0  0  0  0  0  0  0  0  0  0  0  0
   -1.6966   -1.6322   -0.0081 C   0  0  0  0  0  0  0  0  0  0  0  0
   -2.6922   -2.4060   -0.5844 C   0  0  0  0  0  0  0  0  0  0  0  0
   -3.9127   -1.7980   -0.8693 C   0  0  0  0  0  0  0  0  0  0  0  0
   -4.1029   -0.4409   -0.5995 C   0  0  0  0  0  0  0  0  0  0  0  0
   -5.3628    0.1371   -0.8116 N   0  0  0  0  0  0  0  0  0  0  0  0
   -5.4107    1.5947   -0.7806 C   0  0  0  0  0  0  0  0  0  0  0  0
   -4.6660    2.1200    0.4392 C   0  0  0  0  0  0  0  0  0  0  0  0
   -3.2007    1.7053    0.3640 C   0  0  0  0  0  0  0  0  0  0  0  0
   -3.0461    0.2451    0.0247 C   0  0  0  0  0  0  0  0  0  0  0  0
   -1.8413   -0.3147    0.3040 N   0  0  0  0  0  0  0  0  0  0  0  0
    0.1972   -0.4088    0.9914 H   0  0  0  0  0  0  0  0  0  0  0  0
    1.9670   -2.6532    1.8192 H   0  0  0  0  0  0  0  0  0  0  0  0
    3.6053   -0.9104    2.4168 H   0  0  0  0  0  0  0  0  0  0  0  0
    2.2766    0.2717    2.1616 H   0  0  0  0  0  0  0  0  0  0  0  0
    4.5007   -0.5274   -1.9651 H   0  0  0  0  0  0  0  0  0  0  0  0
    6.5584    0.7752   -2.4992 H   0  0  0  0  0  0  0  0  0  0  0  0
    6.5065    2.4832    1.2453 H   0  0  0  0  0  0  0  0  0  0  0  0
    2.4126   -1.7726   -0.9881 H   0  0  0  0  0  0  0  0  0  0  0  0
    3.7087   -2.4331    0.0671 H   0  0  0  0  0  0  0  0  0  0  0  0
   -2.5283   -3.4566   -0.7990 H   0  0  0  0  0  0  0  0  0  0  0  0
   -4.7157   -2.3918   -1.2972 H   0  0  0  0  0  0  0  0  0  0  0  0
   -5.8579   -0.2748   -1.5991 H   0  0  0  0  0  0  0  0  0  0  0  0
   -4.9856    2.0037   -1.7054 H   0  0  0  0  0  0  0  0  0  0  0  0
   -6.4586    1.9097   -0.7361 H   0  0  0  0  0  0  0  0  0  0  0  0
   -4.7432    3.2114    0.4941 H   0  0  0  0  0  0  0  0  0  0  0  0
   -5.1196    1.7139    1.3527 H   0  0  0  0  0  0  0  0  0  0  0  0
   -2.7083    1.9195    1.3193 H   0  0  0  0  0  0  0  0  0  0  0  0
   -2.6899    2.2897   -0.4108 H   0  0  0  0  0  0  0  0  0  0  0  0
  1  2  2  0
  2  3  1  0
  3  4  1  0
  4  5  1  0
  5  6  1  0
  6  7  1  0
  7  8  1  0
  8  9  2  0
  9 10  1  0
 10 11  2  0
 11 12  1  0
  6 13  1  0
  2 14  1  0
 14 15  1  0
 15 16  2  0
 16 17  1  0
 17 18  1  0
 18 19  1  0
 19 20  1  0
 20 21  1  0
 21 22  1  0
 22 23  1  0
 13  4  1  0
 23 14  2  0
 12  7  2  0
 22 17  2  0
  3 24  1  0
  4 25  1  0
  5 26  1  0
  5 27  1  0
  8 28  1  0
  9 29  1  0
 11 30  1  0
 13 31  1  0
 13 32  1  0
 15 33  1  0
 16 34  1  0
 18 35  1  0
 19 36  1  0
 19 37  1  0
 20 38  1  0
 20 39  1  0
 21 40  1  0
 21 41  1  0
M  END
$$$$
OCNT-2315502
     RDKit          3D

 50 52  0  0  0  0  0  0  0  0999 V2000
    8.7119   -0.0838    0.7820 C   0  0  0  0  0  0  0  0  0  0  0  0
    7.3484   -0.5717    0.3258 C   0  0  0  0  0  0  0  0  0  0  0  0
    6.3788    0.3984    0.7252 O   0  0  0  0  0  0  0  0  0  0  0  0
    5.0879    0.0690    0.3565 C   0  0  0  0  0  0  0  0  0  0  0  0
    4.1113    0.9764    0.6966 C   0  0  0  0  0  0  0  0  0  0  0  0
    2.8146    0.6607    0.3431 C   0  0  0  0  0  0  0  0  0  0  0  0
    1.8089    1.5828    0.6556 N   0  0  0  0  0  0  0  0  0  0  0  0
    0.4046    1.3239    0.2994 C   0  0  0  0  0  0  0  0  0  0  0  0
   -0.1959    0.1119    1.0226 C   0  0  0  0  0  0  0  0  0  0  0  0
   -1.2408   -0.6077    0.1648 C   0  0  0  0  0  0  0  0  0  0  0  0
   -2.0905    0.3792   -0.5059 N   0  0  0  0  0  0  0  0  0  0  0  0
   -3.3004   -0.2020   -1.1081 C   0  0  0  0  0  0  0  0  0  0  0  0
   -4.3354   -0.6756   -0.0786 C   0  0  0  0  0  0  0  0  0  0  0  0
   -5.6411   -1.1322   -0.7296 C   0  0  0  0  0  0  0  0  0  0  0  0
   -6.6342   -1.1555    0.4260 C   0  0  0  0  0  0  0  0  0  0  0  0
   -6.1380   -0.1114    1.4267 C   0  0  0  0  0  0  0  0  0  0  0  0
   -4.8181    0.4190    0.8728 C   0  0  0  0  0  0  0  0  0  0  0  0
   -1.3321    1.1449   -1.5142 C   0  0  0  0  0  0  0  0  0  0  0  0
    0.1630    1.2928   -1.2077 C   0  0  0  0  0  0  0  0  0  0  0  0
    2.5362   -0.4712   -0.3201 N   0  0  0  0  0  0  0  0  0  0  0  0
    3.5646   -1.2848   -0.6032 C   0  0  0  0  0  0  0  0  0  0  0  0
    4.8473   -1.0794   -0.2913 N   0  0  0  0  0  0  0  0  0  0  0  0
    9.4945   -0.7937    0.4999 H   0  0  0  0  0  0  0  0  0  0  0  0
    8.9412    0.8905    0.3377 H   0  0  0  0  0  0  0  0  0  0  0  0
    8.7300    0.0492    1.8688 H   0  0  0  0  0  0  0  0  0  0  0  0
    7.3544   -0.6803   -0.7655 H   0  0  0  0  0  0  0  0  0  0  0  0
    7.1387   -1.5390    0.7979 H   0  0  0  0  0  0  0  0  0  0  0  0
    4.3590    1.8967    1.2066 H   0  0  0  0  0  0  0  0  0  0  0  0
    1.8945    1.8607    1.6297 H   0  0  0  0  0  0  0  0  0  0  0  0
   -0.1408    2.2044    0.6693 H   0  0  0  0  0  0  0  0  0  0  0  0
   -0.6658    0.4630    1.9515 H   0  0  0  0  0  0  0  0  0  0  0  0
    0.5609   -0.6137    1.3385 H   0  0  0  0  0  0  0  0  0  0  0  0
   -0.7553   -1.2693   -0.5644 H   0  0  0  0  0  0  0  0  0  0  0  0
   -1.8184   -1.2512    0.8361 H   0  0  0  0  0  0  0  0  0  0  0  0
   -3.0367   -1.0325   -1.7761 H   0  0  0  0  0  0  0  0  0  0  0  0
   -3.7814    0.5610   -1.7355 H   0  0  0  0  0  0  0  0  0  0  0  0
   -3.9362   -1.5131    0.5073 H   0  0  0  0  0  0  0  0  0  0  0  0
   -5.9738   -0.4139   -1.4890 H   0  0  0  0  0  0  0  0  0  0  0  0
   -5.5476   -2.1112   -1.2096 H   0  0  0  0  0  0  0  0  0  0  0  0
   -6.6418   -2.1448    0.8983 H   0  0  0  0  0  0  0  0  0  0  0  0
   -7.6533   -0.9459    0.0862 H   0  0  0  0  0  0  0  0  0  0  0  0
   -5.9852   -0.5773    2.4069 H   0  0  0  0  0  0  0  0  0  0  0  0
   -6.8624    0.6988    1.5590 H   0  0  0  0  0  0  0  0  0  0  0  0
   -4.9972    1.3553    0.3298 H   0  0  0  0  0  0  0  0  0  0  0  0
   -4.0985    0.6273    1.6708 H   0  0  0  0  0  0  0  0  0  0  0  0
   -1.7820    2.1429   -1.5828 H   0  0  0  0  0  0  0  0  0  0  0  0
   -1.4205    0.6894   -2.5095 H   0  0  0  0  0  0  0  0  0  0  0  0
    0.5491    2.2045   -1.6795 H   0  0  0  0  0  0  0  0  0  0  0  0
    0.6946    0.4571   -1.6754 H   0  0  0  0  0  0  0  0  0  0  0  0
    3.3292   -2.1987   -1.1373 H   0  0  0  0  0  0  0  0  0  0  0  0
  1  2  1  0
  2  3  1  0
  3  4  1  0
  4  5  2  0
  5  6  1  0
  6  7  1  0
  7  8  1  0
  8  9  1  0
  9 10  1  0
 10 11  1  0
 11 12  1  0
 12 13  1  0
 13 14  1  0
 14 15  1  0
 15 16  1  0
 16 17  1  0
 11 18  1  0
 18 19  1  0
  6 20  2  0
 20 21  1  0
 21 22  2  0
 22  4  1  0
 19  8  1  0
 17 13  1  0
  1 23  1  0
  1 24  1  0
  1 25  1  0
  2 26  1  0
  2 27  1  0
  5 28  1  0
  7 29  1  0
  8 30  1  0
  9 31  1  0
  9 32  1  0
 10 33  1  0
 10 34  1  0
 12 35  1  0
 12 36  1  0
 13 37  1  0
 14 38  1  0
 14 39  1  0
 15 40  1  0
 15 41  1  0
 16 42  1  0
 16 43  1  0
 17 44  1  0
 17 45  1  0
 18 46  1  0
 18 47  1  0
 19 48  1  0
 19 49  1  0
 21 50  1  0
M  END
$$$$
OCNT-2315505
     RDKit          3D

 50 54  0  0  0  0  0  0  0  0999 V2000
    7.6890   -2.0486   -1.4551 F   0  0  0  0  0  0  0  0  0  0  0  0
    6.7140   -1.3194   -0.8970 C   0  0  0  0  0  0  0  0  0  0  0  0
    6.4047   -1.5025    0.4453 C   0  0  0  0  0  0  0  0  0  0  0  0
    5.3880   -0.7415    1.0258 C   0  0  0  0  0  0  0  0  0  0  0  0
    4.6769    0.1956    0.2603 C   0  0  0  0  0  0  0  0  0  0  0  0
    3.6132    0.9840    0.8785 C   0  0  0  0  0  0  0  0  0  0  0  0
    3.8263    1.6071    2.0491 N   0  0  0  0  0  0  0  0  0  0  0  0
    2.6771    2.2443    2.3050 N   0  0  0  0  0  0  0  0  0  0  0  0
    1.7247    2.0501    1.3574 C   0  0  0  0  0  0  0  0  0  0  0  0
    2.2773    1.2062    0.4124 C   0  0  0  0  0  0  0  0  0  0  0  0
    1.6213    0.6595   -0.8164 C   0  0  0  0  0  0  0  0  0  0  0  0
    0.2611    0.1887   -0.5170 N   0  0  0  0  0  0  0  0  0  0  0  0
    0.2420   -1.0468    0.2656 C   0  0  0  0  0  0  0  0  0  0  0  0
   -1.1765   -1.3145    0.7821 C   0  0  0  0  0  0  0  0  0  0  0  0
   -2.2656   -1.1341   -0.2939 C   0  0  0  0  0  0  0  0  0  0  0  0
   -3.2434   -0.0226    0.0171 C   0  0  0  0  0  0  0  0  0  0  0  0
   -2.9449    1.2771    0.3972 C   0  0  0  0  0  0  0  0  0  0  0  0
   -4.1173    1.9622    0.5733 N   0  0  0  0  0  0  0  0  0  0  0  0
   -5.1767    1.1425    0.3108 C   0  0  0  0  0  0  0  0  0  0  0  0
   -6.4661    1.5207    0.3897 N   0  0  0  0  0  0  0  0  0  0  0  0
   -7.3241    0.5233    0.0781 C   0  0  0  0  0  0  0  0  0  0  0  0
   -6.9678   -0.7672   -0.2909 C   0  0  0  0  0  0  0  0  0  0  0  0
   -5.6147   -1.1032   -0.3566 C   0  0  0  0  0  0  0  0  0  0  0  0
   -4.6747   -0.1062   -0.0409 C   0  0  0  0  0  0  0  0  0  0  0  0
   -1.6493   -0.9824   -1.6889 C   0  0  0  0  0  0  0  0  0  0  0  0
   -0.5340    0.0694   -1.7485 C   0  0  0  0  0  0  0  0  0  0  0  0
    5.0129    0.3754   -1.0900 C   0  0  0  0  0  0  0  0  0  0  0  0
    6.0306   -0.3865   -1.6691 C   0  0  0  0  0  0  0  0  0  0  0  0
    6.9570   -2.2286    1.0327 H   0  0  0  0  0  0  0  0  0  0  0  0
    5.1500   -0.8748    2.0795 H   0  0  0  0  0  0  0  0  0  0  0  0
    2.6131    2.7957    3.1541 H   0  0  0  0  0  0  0  0  0  0  0  0
    0.7415    2.4915    1.4361 H   0  0  0  0  0  0  0  0  0  0  0  0
    1.5817    1.4800   -1.5454 H   0  0  0  0  0  0  0  0  0  0  0  0
    2.2098   -0.1474   -1.2674 H   0  0  0  0  0  0  0  0  0  0  0  0
    0.6009   -1.8955   -0.3314 H   0  0  0  0  0  0  0  0  0  0  0  0
    0.9004   -0.9830    1.1398 H   0  0  0  0  0  0  0  0  0  0  0  0
   -1.3733   -0.6827    1.6575 H   0  0  0  0  0  0  0  0  0  0  0  0
   -1.2088   -2.3481    1.1510 H   0  0  0  0  0  0  0  0  0  0  0  0
   -2.8500   -2.0649   -0.3047 H   0  0  0  0  0  0  0  0  0  0  0  0
   -1.9927    1.7667    0.5565 H   0  0  0  0  0  0  0  0  0  0  0  0
   -4.2144    2.9272    0.8505 H   0  0  0  0  0  0  0  0  0  0  0  0
   -8.3741    0.8015    0.1345 H   0  0  0  0  0  0  0  0  0  0  0  0
   -7.7311   -1.5013   -0.5239 H   0  0  0  0  0  0  0  0  0  0  0  0
   -5.3037   -2.1020   -0.6420 H   0  0  0  0  0  0  0  0  0  0  0  0
   -1.2241   -1.9525   -1.9813 H   0  0  0  0  0  0  0  0  0  0  0  0
   -2.4166   -0.7474   -2.4370 H   0  0  0  0  0  0  0  0  0  0  0  0
   -0.9713    1.0511   -1.9665 H   0  0  0  0  0  0  0  0  0  0  0  0
    0.1021   -0.1842   -2.6074 H   0  0  0  0  0  0  0  0  0  0  0  0
    4.4999    1.1205   -1.6928 H   0  0  0  0  0  0  0  0  0  0  0  0
    6.2999   -0.2524   -2.7118 H   0  0  0  0  0  0  0  0  0  0  0  0
  1  2  1  0
  2  3  1  0
  3  4  2  0
  4  5  1  0
  5  6  1  0
  6  7  2  0
  7  8  1  0
  8  9  1  0
  9 10  2  0
 10 11  1  0
 11 12  1  0
 12 13  1  0
 13 14  1  0
 14 15  1  0
 15 16  1  0
 16 17  2  0
 17 18  1  0
 18 19  1  0
 19 20  1  0
 20 21  2  0
 21 22  1  0
 22 23  2  0
 23 24  1  0
 15 25  1  0
 25 26  1  0
  5 27  2  0
 27 28  1  0
 28  2  2  0
 10  6  1  0
 26 12  1  0
 24 16  1  0
 24 19  2  0
  3 29  1  0
  4 30  1  0
  8 31  1  0
  9 32  1  0
 11 33  1  0
 11 34  1  0
 13 35  1  0
 13 36  1  0
 14 37  1  0
 14 38  1  0
 15 39  1  0
 17 40  1  0
 18 41  1  0
 21 42  1  0
 22 43  1  0
 23 44  1  0
 25 45  1  0
 25 46  1  0
 26 47  1  0
 26 48  1  0
 27 49  1  0
 28 50  1  0
M  END
$$$$
OCNT-2315512
     RDKit          3D

 44 47  0  0  0  0  0  0  0  0999 V2000
   -2.3138    3.5161   -0.2449 C   0  0  0  0  0  0  0  0  0  0  0  0
   -2.3308    2.7474    1.0676 C   0  0  0  0  0  0  0  0  0  0  0  0
   -2.5500    1.2727    0.8527 C   0  0  0  0  0  0  0  0  0  0  0  0
   -3.8160    0.7088    0.9801 C   0  0  0  0  0  0  0  0  0  0  0  0
   -3.9967   -0.6587    0.7574 C   0  0  0  0  0  0  0  0  0  0  0  0
   -2.9456   -1.4950    0.4067 C   0  0  0  0  0  0  0  0  0  0  0  0
   -3.2167   -2.7930    0.2027 N   0  0  0  0  0  0  0  0  0  0  0  0
   -2.1993   -3.6007   -0.1469 C   0  0  0  0  0  0  0  0  0  0  0  0
   -0.8943   -3.1758   -0.3040 C   0  0  0  0  0  0  0  0  0  0  0  0
   -0.5876   -1.8274   -0.0920 C   0  0  0  0  0  0  0  0  0  0  0  0
    0.7463   -1.3483   -0.2095 N   0  0  0  0  0  0  0  0  0  0  0  0
    1.5652   -1.9652   -1.2553 C   0  0  0  0  0  0  0  0  0  0  0  0
    2.7755   -1.0762   -1.5485 C   0  0  0  0  0  0  0  0  0  0  0  0
    3.3253   -0.3809   -0.2887 C   0  0  0  0  0  0  0  0  0  0  0  0
    3.0107    1.0392   -0.1896 N   0  0  0  0  0  0  0  0  0  0  0  0
    1.9893    1.7583   -0.7352 C   0  0  0  0  0  0  0  0  0  0  0  0
    2.2065    3.0390   -0.2911 C   0  0  0  0  0  0  0  0  0  0  0  0
    3.3243    3.0661    0.4895 N   0  0  0  0  0  0  0  0  0  0  0  0
    3.8135    1.8348    0.5462 N   0  0  0  0  0  0  0  0  0  0  0  0
    2.9131   -1.1300    0.9830 C   0  0  0  0  0  0  0  0  0  0  0  0
    1.3934   -1.2457    1.1162 C   0  0  0  0  0  0  0  0  0  0  0  0
   -1.6488   -0.9491    0.2750 C   0  0  0  0  0  0  0  0  0  0  0  0
   -1.4825    0.4401    0.4939 C   0  0  0  0  0  0  0  0  0  0  0  0
   -2.1610    4.5834   -0.0562 H   0  0  0  0  0  0  0  0  0  0  0  0
   -1.5071    3.1697   -0.8999 H   0  0  0  0  0  0  0  0  0  0  0  0
   -3.2593    3.3980   -0.7852 H   0  0  0  0  0  0  0  0  0  0  0  0
   -1.3846    2.9011    1.6009 H   0  0  0  0  0  0  0  0  0  0  0  0
   -3.1157    3.1501    1.7194 H   0  0  0  0  0  0  0  0  0  0  0  0
   -4.6733    1.3215    1.2481 H   0  0  0  0  0  0  0  0  0  0  0  0
   -4.9923   -1.0854    0.8571 H   0  0  0  0  0  0  0  0  0  0  0  0
   -2.4690   -4.6420   -0.2978 H   0  0  0  0  0  0  0  0  0  0  0  0
   -0.1379   -3.9048   -0.5649 H   0  0  0  0  0  0  0  0  0  0  0  0
    0.9962   -2.0926   -2.1848 H   0  0  0  0  0  0  0  0  0  0  0  0
    1.9113   -2.9584   -0.9406 H   0  0  0  0  0  0  0  0  0  0  0  0
    3.5585   -1.7154   -1.9773 H   0  0  0  0  0  0  0  0  0  0  0  0
    2.5315   -0.3527   -2.3349 H   0  0  0  0  0  0  0  0  0  0  0  0
    4.4216   -0.4089   -0.3641 H   0  0  0  0  0  0  0  0  0  0  0  0
    1.2198    1.3231   -1.3551 H   0  0  0  0  0  0  0  0  0  0  0  0
    1.6271    3.9297   -0.4853 H   0  0  0  0  0  0  0  0  0  0  0  0
    3.3246   -0.6564    1.8825 H   0  0  0  0  0  0  0  0  0  0  0  0
    3.3442   -2.1396    0.9480 H   0  0  0  0  0  0  0  0  0  0  0  0
    1.1643   -2.1175    1.7434 H   0  0  0  0  0  0  0  0  0  0  0  0
    1.0174   -0.3609    1.6423 H   0  0  0  0  0  0  0  0  0  0  0  0
   -0.4974    0.8815    0.3764 H   0  0  0  0  0  0  0  0  0  0  0  0
  1  2  1  0
  2  3  1  0
  3  4  2  0
  4  5  1  0
  5  6  2  0
  6  7  1  0
  7  8  2  0
  8  9  1  0
  9 10  2  0
 10 11  1  0
 11 12  1  0
 12 13  1  0
 13 14  1  0
 14 15  1  0
 15 16  1  0
 16 17  2  0
 17 18  1  0
 18 19  2  0
 14 20  1  0
 20 21  1  0
 10 22  1  0
 22 23  2  0
 23  3  1  0
 22  6  1  0
 21 11  1  0
 19 15  1  0
  1 24  1  0
  1 25  1  0
  1 26  1  0
  2 27  1  0
  2 28  1  0
  4 29  1  0
  5 30  1  0
  8 31  1  0
  9 32  1  0
 12 33  1  0
 12 34  1  0
 13 35  1  0
 13 36  1  0
 14 37  1  0
 16 38  1  0
 17 39  1  0
 20 40  1  0
 20 41  1  0
 21 42  1  0
 21 43  1  0
 23 44  1  0
M  END
$$$$
OCNT-2315518
     RDKit          3D

 55 57  0  0  0  0  0  0  0  0999 V2000
    4.1373   -2.7961    0.1611 C   0  0  0  0  0  0  0  0  0  0  0  0
    4.5613   -1.3772   -0.2316 C   0  0  0  0  0  0  0  0  0  0  0  0
    5.7185   -0.9168    0.6596 C   0  0  0  0  0  0  0  0  0  0  0  0
    3.3493   -0.4067   -0.2601 C   0  0  0  0  0  0  0  0  0  0  0  0
    2.5825   -0.3174    1.0754 C   0  0  0  0  0  0  0  0  0  0  0  0
    1.7571    0.9658    1.2279 C   0  0  0  0  0  0  0  0  0  0  0  0
    1.2842    1.5117   -0.1248 C   0  0  0  0  0  0  0  0  0  0  0  0
    0.3426    2.7157    0.0785 C   0  0  0  0  0  0  0  0  0  0  0  0
   -0.1633    3.3209   -1.1566 N   0  0  0  0  0  0  0  0  0  0  0  0
   -1.0277    2.4555   -1.9651 C   0  0  0  0  0  0  0  0  0  0  0  0
   -2.2909    2.0798   -1.2748 C   0  0  0  0  0  0  0  0  0  0  0  0
   -3.2657    2.8740   -0.8867 N   0  0  0  0  0  0  0  0  0  0  0  0
   -4.2227    2.1025   -0.2715 N   0  0  0  0  0  0  0  0  0  0  0  0
   -3.8173    0.8508   -0.2903 C   0  0  0  0  0  0  0  0  0  0  0  0
   -4.5324   -0.3310    0.2784 C   0  0  0  0  0  0  0  0  0  0  0  0
   -3.6895   -1.0704    1.3170 C   0  0  0  0  0  0  0  0  0  0  0  0
   -4.4841   -2.2236    1.9278 C   0  0  0  0  0  0  0  0  0  0  0  0
   -5.4856   -2.7473    1.0549 O   0  0  0  0  0  0  0  0  0  0  0  0
   -5.0994   -2.7313   -0.3128 C   0  0  0  0  0  0  0  0  0  0  0  0
   -5.0099   -1.2948   -0.8182 C   0  0  0  0  0  0  0  0  0  0  0  0
   -2.6026    0.7950   -0.9220 N   0  0  0  0  0  0  0  0  0  0  0  0
    2.4927    1.8657   -1.0134 C   0  0  0  0  0  0  0  0  0  0  0  0
    3.7282    0.9968   -0.7506 C   0  0  0  0  0  0  0  0  0  0  0  0
    4.9731   -3.4942    0.0422 H   0  0  0  0  0  0  0  0  0  0  0  0
    3.3183   -3.1486   -0.4748 H   0  0  0  0  0  0  0  0  0  0  0  0
    3.8082   -2.8475    1.2040 H   0  0  0  0  0  0  0  0  0  0  0  0
    4.9522   -1.4343   -1.2569 H   0  0  0  0  0  0  0  0  0  0  0  0
    6.1085    0.0538    0.3397 H   0  0  0  0  0  0  0  0  0  0  0  0
    6.5490   -1.6296    0.6044 H   0  0  0  0  0  0  0  0  0  0  0  0
    5.4234   -0.8388    1.7098 H   0  0  0  0  0  0  0  0  0  0  0  0
    2.6491   -0.8189   -1.0026 H   0  0  0  0  0  0  0  0  0  0  0  0
    1.9088   -1.1810    1.1465 H   0  0  0  0  0  0  0  0  0  0  0  0
    3.2570   -0.3893    1.9349 H   0  0  0  0  0  0  0  0  0  0  0  0
    0.9029    0.7646    1.8857 H   0  0  0  0  0  0  0  0  0  0  0  0
    2.3657    1.7261    1.7350 H   0  0  0  0  0  0  0  0  0  0  0  0
    0.7202    0.7066   -0.6139 H   0  0  0  0  0  0  0  0  0  0  0  0
   -0.4900    2.4326    0.7339 H   0  0  0  0  0  0  0  0  0  0  0  0
    0.8909    3.4973    0.6199 H   0  0  0  0  0  0  0  0  0  0  0  0
   -0.7216    4.1409   -0.9024 H   0  0  0  0  0  0  0  0  0  0  0  0
   -1.2916    3.0071   -2.8755 H   0  0  0  0  0  0  0  0  0  0  0  0
   -0.4828    1.5695   -2.3081 H   0  0  0  0  0  0  0  0  0  0  0  0
   -5.4243    0.0514    0.7958 H   0  0  0  0  0  0  0  0  0  0  0  0
   -3.3344   -0.4002    2.1091 H   0  0  0  0  0  0  0  0  0  0  0  0
   -2.7872   -1.4772    0.8405 H   0  0  0  0  0  0  0  0  0  0  0  0
   -4.9992   -1.8842    2.8327 H   0  0  0  0  0  0  0  0  0  0  0  0
   -3.8118   -3.0361    2.2248 H   0  0  0  0  0  0  0  0  0  0  0  0
   -5.8452   -3.2862   -0.8910 H   0  0  0  0  0  0  0  0  0  0  0  0
   -4.1428   -3.2551   -0.4288 H   0  0  0  0  0  0  0  0  0  0  0  0
   -4.3726   -1.2731   -1.7105 H   0  0  0  0  0  0  0  0  0  0  0  0
   -6.0028   -0.9653   -1.1519 H   0  0  0  0  0  0  0  0  0  0  0  0
   -2.0384   -0.0260   -1.0814 H   0  0  0  0  0  0  0  0  0  0  0  0
    2.7799    2.9167   -0.8838 H   0  0  0  0  0  0  0  0  0  0  0  0
    2.1965    1.7587   -2.0647 H   0  0  0  0  0  0  0  0  0  0  0  0
    4.3287    0.9413   -1.6663 H   0  0  0  0  0  0  0  0  0  0  0  0
    4.3501    1.4971    0.0023 H   0  0  0  0  0  0  0  0  0  0  0  0
  1  2  1  0
  2  3  1  0
  2  4  1  0
  4  5  1  0
  5  6  1  0
  6  7  1  0
  7  8  1  0
  8  9  1  0
  9 10  1  0
 10 11  1  0
 11 12  2  0
 12 13  1  0
 13 14  2  0
 14 15  1  0
 15 16  1  0
 16 17  1  0
 17 18  1  0
 18 19  1  0
 19 20  1  0
 14 21  1  0
  7 22  1  0
 22 23  1  0
 23  4  1  0
 21 11  1  0
 20 15  1  0
  1 24  1  0
  1 25  1  0
  1 26  1  0
  2 27  1  0
  3 28  1  0
  3 29  1  0
  3 30  1  0
  4 31  1  0
  5 32  1  0
  5 33  1  0
  6 34  1  0
  6 35  1  0
  7 36  1  0
  8 37  1  0
  8 38  1  0
  9 39  1  0
 10 40  1  0
 10 41  1  0
 15 42  1  0
 16 43  1  0
 16 44  1  0
 17 45  1  0
 17 46  1  0
 19 47  1  0
 19 48  1  0
 20 49  1  0
 20 50  1  0
 21 51  1  0
 22 52  1  0
 22 53  1  0
 23 54  1  0
 23 55  1  0
M  END
$$$$
OCNT-2315525
     RDKit          3D

 44 46  0  0  0  0  0  0  0  0999 V2000
    8.3778    1.4063    0.0377 N   0  0  0  0  0  0  0  0  0  0  0  0
    7.1942    2.0416   -0.2215 C   0  0  0  0  0  0  0  0  0  0  0  0
    7.1622    3.2488   -0.4210 O   0  0  0  0  0  0  0  0  0  0  0  0
    5.9580    1.2156   -0.2075 C   0  0  0  0  0  0  0  0  0  0  0  0
    4.7351    1.8483    0.0349 C   0  0  0  0  0  0  0  0  0  0  0  0
    3.5460    1.1095    0.0573 C   0  0  0  0  0  0  0  0  0  0  0  0
    3.5640   -0.2679   -0.1694 C   0  0  0  0  0  0  0  0  0  0  0  0
    2.4097   -1.0752   -0.1765 N   0  0  0  0  0  0  0  0  0  0  0  0
    1.1379   -0.7190    0.2139 C   0  0  0  0  0  0  0  0  0  0  0  0
    0.7941    0.3339    0.7328 O   0  0  0  0  0  0  0  0  0  0  0  0
    0.2458   -1.7440   -0.0405 N   0  0  0  0  0  0  0  0  0  0  0  0
   -1.1674   -1.5679    0.2548 C   0  0  0  0  0  0  0  0  0  0  0  0
   -1.8871   -0.6995   -0.7992 C   0  0  0  0  0  0  0  0  0  0  0  0
   -3.3157   -0.4233   -0.5861 N   0  0  0  0  0  0  0  0  0  0  0  0
   -4.1350   -1.6425   -0.4440 C   0  0  0  0  0  0  0  0  0  0  0  0
   -5.6454   -1.3313   -0.5446 C   0  0  0  0  0  0  0  0  0  0  0  0
   -5.9597   -0.1196    0.2704 C   0  0  0  0  0  0  0  0  0  0  0  0
   -4.9976    0.7502    0.7451 C   0  0  0  0  0  0  0  0  0  0  0  0
   -5.5983    1.8317    1.4611 C   0  0  0  0  0  0  0  0  0  0  0  0
   -6.9738    1.7352    1.4930 C   0  0  0  0  0  0  0  0  0  0  0  0
   -7.5424    0.3467    0.6670 S   0  0  0  0  0  0  0  0  0  0  0  0
   -3.5255    0.5199    0.5346 C   0  0  0  0  0  0  0  0  0  0  0  0
    4.7887   -0.8949   -0.4351 C   0  0  0  0  0  0  0  0  0  0  0  0
    5.9807   -0.1606   -0.4543 C   0  0  0  0  0  0  0  0  0  0  0  0
    8.4075    0.5111    0.5035 H   0  0  0  0  0  0  0  0  0  0  0  0
    9.1772    2.0156    0.1602 H   0  0  0  0  0  0  0  0  0  0  0  0
    4.6994    2.9224    0.2093 H   0  0  0  0  0  0  0  0  0  0  0  0
    2.6198    1.6450    0.2450 H   0  0  0  0  0  0  0  0  0  0  0  0
    2.5471   -2.0612   -0.3368 H   0  0  0  0  0  0  0  0  0  0  0  0
    0.4716   -2.3404   -0.8225 H   0  0  0  0  0  0  0  0  0  0  0  0
   -1.2533   -1.1258    1.2526 H   0  0  0  0  0  0  0  0  0  0  0  0
   -1.6002   -2.5727    0.2879 H   0  0  0  0  0  0  0  0  0  0  0  0
   -1.3589    0.2553   -0.9175 H   0  0  0  0  0  0  0  0  0  0  0  0
   -1.7808   -1.1917   -1.7755 H   0  0  0  0  0  0  0  0  0  0  0  0
   -3.8873   -2.3619   -1.2341 H   0  0  0  0  0  0  0  0  0  0  0  0
   -3.9290   -2.1323    0.5170 H   0  0  0  0  0  0  0  0  0  0  0  0
   -6.2216   -2.1989   -0.2042 H   0  0  0  0  0  0  0  0  0  0  0  0
   -5.9103   -1.1375   -1.5914 H   0  0  0  0  0  0  0  0  0  0  0  0
   -5.0500    2.6399    1.9297 H   0  0  0  0  0  0  0  0  0  0  0  0
   -7.6748    2.4125    1.9606 H   0  0  0  0  0  0  0  0  0  0  0  0
   -3.0430    1.4774    0.3054 H   0  0  0  0  0  0  0  0  0  0  0  0
   -3.1020    0.1360    1.4699 H   0  0  0  0  0  0  0  0  0  0  0  0
    4.8336   -1.9624   -0.6354 H   0  0  0  0  0  0  0  0  0  0  0  0
    6.9090   -0.6725   -0.6898 H   0  0  0  0  0  0  0  0  0  0  0  0
  1  2  1  0
  2  3  2  0
  2  4  1  0
  4  5  1  0
  5  6  2  0
  6  7  1  0
  7  8  1  0
  8  9  1  0
  9 10  2  0
  9 11  1  0
 11 12  1  0
 12 13  1  0
 13 14  1  0
 14 15  1  0
 15 16  1  0
 16 17  1  0
 17 18  2  0
 18 19  1  0
 19 20  2  0
 20 21  1  0
 18 22  1  0
  7 23  2  0
 23 24  1  0
 24  4  2  0
 22 14  1  0
 21 17  1  0
  1 25  1  0
  1 26  1  0
  5 27  1  0
  6 28  1  0
  8 29  1  0
 11 30  1  0
 12 31  1  0
 12 32  1  0
 13 33  1  0
 13 34  1  0
 15 35  1  0
 15 36  1  0
 16 37  1  0
 16 38  1  0
 19 39  1  0
 20 40  1  0
 22 41  1  0
 22 42  1  0
 23 43  1  0
 24 44  1  0
M  END
$$$$
OCNT-2315532
     RDKit          3D

 38 41  0  0  0  0  0  0  0  0999 V2000
   -2.1485   -4.5262   -0.5782 N   0  0  0  0  0  0  0  0  0  0  0  0
   -2.6205   -3.5040   -0.3001 C   0  0  0  0  0  0  0  0  0  0  0  0
   -3.1610   -2.2297    0.0500 C   0  0  0  0  0  0  0  0  0  0  0  0
   -4.5313   -2.0944    0.1652 C   0  0  0  0  0  0  0  0  0  0  0  0
   -5.1504   -0.9378    0.4872 N   0  0  0  0  0  0  0  0  0  0  0  0
   -4.4064    0.1598    0.7233 C   0  0  0  0  0  0  0  0  0  0  0  0
   -5.0278    1.3627    1.0660 C   0  0  0  0  0  0  0  0  0  0  0  0
   -6.3680    1.4171    1.1511 F   0  0  0  0  0  0  0  0  0  0  0  0
   -4.3026    2.5170    1.3284 C   0  0  0  0  0  0  0  0  0  0  0  0
   -4.9357    3.6518    1.6565 F   0  0  0  0  0  0  0  0  0  0  0  0
   -2.9245    2.4886    1.2550 C   0  0  0  0  0  0  0  0  0  0  0  0
   -2.2065    3.5889    1.5135 F   0  0  0  0  0  0  0  0  0  0  0  0
   -2.2680    1.3130    0.9153 C   0  0  0  0  0  0  0  0  0  0  0  0
   -2.9923    0.1308    0.6356 C   0  0  0  0  0  0  0  0  0  0  0  0
   -2.3600   -1.0999    0.2901 C   0  0  0  0  0  0  0  0  0  0  0  0
   -0.9385   -1.1362    0.1153 N   0  0  0  0  0  0  0  0  0  0  0  0
   -0.5429   -0.7370   -1.2584 C   0  0  0  0  0  0  0  0  0  0  0  0
    0.9225   -0.5315   -1.4120 C   0  0  0  0  0  0  0  0  0  0  0  0
    1.6444   -0.6404   -2.5035 N   0  0  0  0  0  0  0  0  0  0  0  0
    2.9464   -0.3488   -2.1739 N   0  0  0  0  0  0  0  0  0  0  0  0
    3.0089   -0.0635   -0.8851 C   0  0  0  0  0  0  0  0  0  0  0  0
    4.2079    0.2959   -0.1279 C   0  0  0  0  0  0  0  0  0  0  0  0
    5.4433    0.3245   -0.7830 C   0  0  0  0  0  0  0  0  0  0  0  0
    6.5766    0.6646   -0.0642 C   0  0  0  0  0  0  0  0  0  0  0  0
    6.5632    0.9751    1.2480 N   0  0  0  0  0  0  0  0  0  0  0  0
    5.3658    0.9447    1.8657 C   0  0  0  0  0  0  0  0  0  0  0  0
    4.1761    0.6162    1.2323 C   0  0  0  0  0  0  0  0  0  0  0  0
    1.7400   -0.1682   -0.3761 N   0  0  0  0  0  0  0  0  0  0  0  0
   -5.2049   -2.9327   -0.0052 H   0  0  0  0  0  0  0  0  0  0  0  0
   -1.1823    1.3263    0.8809 H   0  0  0  0  0  0  0  0  0  0  0  0
   -0.5887   -2.0875    0.2684 H   0  0  0  0  0  0  0  0  0  0  0  0
   -1.0397    0.1980   -1.5455 H   0  0  0  0  0  0  0  0  0  0  0  0
   -0.8659   -1.5098   -1.9670 H   0  0  0  0  0  0  0  0  0  0  0  0
    5.5253    0.0851   -1.8396 H   0  0  0  0  0  0  0  0  0  0  0  0
    7.5523    0.6965   -0.5409 H   0  0  0  0  0  0  0  0  0  0  0  0
    5.3866    1.2009    2.9216 H   0  0  0  0  0  0  0  0  0  0  0  0
    3.2614    0.6205    1.8114 H   0  0  0  0  0  0  0  0  0  0  0  0
    1.4454   -0.0307    0.5783 H   0  0  0  0  0  0  0  0  0  0  0  0
  1  2  3  0
  2  3  1  0
  3  4  1  0
  4  5  2  0
  5  6  1  0
  6  7  2  0
  7  8  1  0
  7  9  1  0
  9 10  1  0
  9 11  2  0
 11 12  1  0
 11 13  1  0
 13 14  2  0
 14 15  1  0
 15 16  1  0
 16 17  1  0
 17 18  1  0
 18 19  2  0
 19 20  1  0
 20 21  2  0
 21 22  1  0
 22 23  2  0
 23 24  1  0
 24 25  2  0
 25 26  1  0
 26 27  2  0
 21 28  1  0
 15  3  2  0
 28 18  1  0
 14  6  1  0
 27 22  1  0
  4 29  1  0
 13 30  1  0
 16 31  1  0
 17 32  1  0
 17 33  1  0
 23 34  1  0
 24 35  1  0
 26 36  1  0
 27 37  1  0
 28 38  1  0
M  END
$$$$
OCNT-2315535
     RDKit          3D

 52 54  0  0  0  0  0  0  0  0999 V2000
   -2.9975    2.6364   -1.3870 C   0  0  0  0  0  0  0  0  0  0  0  0
   -2.5337    1.2472   -1.3170 N   0  0  0  0  0  0  0  0  0  0  0  0
   -2.3566    0.7416   -2.6856 C   0  0  0  0  0  0  0  0  0  0  0  0
   -3.3597    0.3402   -0.4290 C   0  0  0  0  0  0  0  0  0  0  0  0
   -2.4815   -0.9281   -0.1252 C   0  0  0  0  0  0  0  0  0  0  0  0
   -1.1342   -0.5593    0.2799 N   0  0  0  0  0  0  0  0  0  0  0  0
   -0.2166   -1.5266    0.5827 C   0  0  0  0  0  0  0  0  0  0  0  0
   -0.4692   -2.7204    0.6597 O   0  0  0  0  0  0  0  0  0  0  0  0
    1.0218   -0.9830    0.7973 N   0  0  0  0  0  0  0  0  0  0  0  0
    2.0903   -1.8318    1.2668 C   0  0  0  0  0  0  0  0  0  0  0  0
    3.3994   -1.0914    1.2563 C   0  0  0  0  0  0  0  0  0  0  0  0
    3.9955   -0.6693    2.4455 C   0  0  0  0  0  0  0  0  0  0  0  0
    5.1907    0.0241    2.3747 C   0  0  0  0  0  0  0  0  0  0  0  0
    5.8167    0.3243    1.2171 N   0  0  0  0  0  0  0  0  0  0  0  0
    5.2325   -0.0846    0.0610 C   0  0  0  0  0  0  0  0  0  0  0  0
    5.8979    0.2398   -1.1531 N   0  0  0  0  0  0  0  0  0  0  0  0
    5.5318   -0.0492   -2.4499 C   0  0  0  0  0  0  0  0  0  0  0  0
    6.5158    0.4899   -3.2464 C   0  0  0  0  0  0  0  0  0  0  0  0
    7.4753    1.1013   -2.4906 N   0  0  0  0  0  0  0  0  0  0  0  0
    7.0832    0.9359   -1.2455 C   0  0  0  0  0  0  0  0  0  0  0  0
    4.0314   -0.7890    0.0414 C   0  0  0  0  0  0  0  0  0  0  0  0
   -3.7067    1.0278    0.9272 C   0  0  0  0  0  0  0  0  0  0  0  0
   -4.6505    0.1942    1.7884 C   0  0  0  0  0  0  0  0  0  0  0  0
   -5.8394   -0.1141    1.0654 O   0  0  0  0  0  0  0  0  0  0  0  0
   -5.5831   -0.8801   -0.1068 C   0  0  0  0  0  0  0  0  0  0  0  0
   -4.6939   -0.1104   -1.0803 C   0  0  0  0  0  0  0  0  0  0  0  0
   -2.3805    3.2163   -2.0843 H   0  0  0  0  0  0  0  0  0  0  0  0
   -2.8836    3.1428   -0.4238 H   0  0  0  0  0  0  0  0  0  0  0  0
   -4.0381    2.7158   -1.7172 H   0  0  0  0  0  0  0  0  0  0  0  0
   -1.6189    1.3530   -3.2189 H   0  0  0  0  0  0  0  0  0  0  0  0
   -3.2870    0.7645   -3.2632 H   0  0  0  0  0  0  0  0  0  0  0  0
   -1.9599   -0.2770   -2.7022 H   0  0  0  0  0  0  0  0  0  0  0  0
   -2.9010   -1.5624    0.6607 H   0  0  0  0  0  0  0  0  0  0  0  0
   -2.3927   -1.5682   -1.0113 H   0  0  0  0  0  0  0  0  0  0  0  0
   -0.7732    0.2424   -0.2242 H   0  0  0  0  0  0  0  0  0  0  0  0
    0.9959   -0.0413    1.1604 H   0  0  0  0  0  0  0  0  0  0  0  0
    1.8358   -2.1721    2.2776 H   0  0  0  0  0  0  0  0  0  0  0  0
    2.1554   -2.7247    0.6333 H   0  0  0  0  0  0  0  0  0  0  0  0
    3.5441   -0.8738    3.4111 H   0  0  0  0  0  0  0  0  0  0  0  0
    5.6919    0.3690    3.2752 H   0  0  0  0  0  0  0  0  0  0  0  0
    4.6378   -0.5948   -2.7083 H   0  0  0  0  0  0  0  0  0  0  0  0
    6.5811    0.4679   -4.3268 H   0  0  0  0  0  0  0  0  0  0  0  0
    7.6076    1.2937   -0.3685 H   0  0  0  0  0  0  0  0  0  0  0  0
    3.5631   -1.1089   -0.8833 H   0  0  0  0  0  0  0  0  0  0  0  0
   -4.2370    1.9686    0.7370 H   0  0  0  0  0  0  0  0  0  0  0  0
   -2.8010    1.2729    1.4938 H   0  0  0  0  0  0  0  0  0  0  0  0
   -4.1900   -0.7274    2.1573 H   0  0  0  0  0  0  0  0  0  0  0  0
   -4.9454    0.7739    2.6696 H   0  0  0  0  0  0  0  0  0  0  0  0
   -6.5479   -1.0876   -0.5815 H   0  0  0  0  0  0  0  0  0  0  0  0
   -5.1493   -1.8467    0.1715 H   0  0  0  0  0  0  0  0  0  0  0  0
   -5.2495    0.7748   -1.4139 H   0  0  0  0  0  0  0  0  0  0  0  0
   -4.5178   -0.7363   -1.9625 H   0  0  0  0  0  0  0  0  0  0  0  0
  1  2  1  0
  2  3  1  0
  2  4  1  0
  4  5  1  0
  5  6  1  0
  6  7  1  0
  7  8  2  0
  7  9  1  0
  9 10  1  0
 10 11  1  0
 11 12  2  0
 12 13  1  0
 13 14  2  0
 14 15  1  0
 15 16  1  0
 16 17  1  0
 17 18  2  0
 18 19  1  0
 19 20  2  0
 15 21  2  0
  4 22  1  0
 22 23  1  0
 23 24  1  0
 24 25  1  0
 25 26  1  0
 26  4  1  0
 21 11  1  0
 20 16  1  0
  1 27  1  0
  1 28  1  0
  1 29  1  0
  3 30  1  0
  3 31  1  0
  3 32  1  0
  5 33  1  0
  5 34  1  0
  6 35  1  0
  9 36  1  0
 10 37  1  0
 10 38  1  0
 12 39  1  0
 13 40  1  0
 17 41  1  0
 18 42  1  0
 20 43  1  0
 21 44  1  0
 22 45  1  0
 22 46  1  0
 23 47  1  0
 23 48  1  0
 25 49  1  0
 25 50  1  0
 26 51  1  0
 26 52  1  0
M  END
$$$$
OCNT-2315537
     RDKit          3D

 46 49  0  0  0  0  0  0  0  0999 V2000
    5.6136    1.0395    0.6797 C   0  0  0  0  0  0  0  0  0  0  0  0
    5.3766   -0.1401   -0.1734 N   0  0  0  0  0  0  0  0  0  0  0  0
    6.5936   -0.9697   -0.3065 C   0  0  0  0  0  0  0  0  0  0  0  0
    3.9899   -1.0449    0.1857 S   0  0  0  0  0  0  0  0  0  0  0  0
    3.9100   -2.1414   -0.7521 O   0  0  0  0  0  0  0  0  0  0  0  0
    3.9492   -1.2765    1.6112 O   0  0  0  0  0  0  0  0  0  0  0  0
    2.7763    0.0643   -0.2133 N   0  0  0  0  0  0  0  0  0  0  0  0
    2.1165    0.9688    0.7917 C   0  0  0  0  0  0  0  0  0  0  0  0
    0.8274    0.1194    0.7181 C   0  0  0  0  0  0  0  0  0  0  0  0
   -0.3697    0.8982    0.5966 N   0  0  0  0  0  0  0  0  0  0  0  0
   -1.6135    0.4380    0.1594 C   0  0  0  0  0  0  0  0  0  0  0  0
   -2.3111    1.3383   -0.5565 N   0  0  0  0  0  0  0  0  0  0  0  0
   -3.5553    1.0161   -0.9913 C   0  0  0  0  0  0  0  0  0  0  0  0
   -4.3138    2.0405   -1.7998 C   0  0  0  0  0  0  0  0  0  0  0  0
   -5.6880    2.4933   -1.3594 C   0  0  0  0  0  0  0  0  0  0  0  0
   -4.5255    3.4346   -1.2522 C   0  0  0  0  0  0  0  0  0  0  0  0
   -4.1452   -0.1687   -0.7446 N   0  0  0  0  0  0  0  0  0  0  0  0
   -3.4146   -1.0325   -0.0357 C   0  0  0  0  0  0  0  0  0  0  0  0
   -2.1393   -0.7934    0.4341 C   0  0  0  0  0  0  0  0  0  0  0  0
   -1.6448   -1.9499    1.2315 C   0  0  0  0  0  0  0  0  0  0  0  0
   -2.6167   -3.0620    0.8061 C   0  0  0  0  0  0  0  0  0  0  0  0
   -3.9243   -2.3716    0.4133 C   0  0  0  0  0  0  0  0  0  0  0  0
    1.4004   -0.3908   -0.6231 C   0  0  0  0  0  0  0  0  0  0  0  0
    5.7729    0.7504    1.7228 H   0  0  0  0  0  0  0  0  0  0  0  0
    4.7807    1.7429    0.6153 H   0  0  0  0  0  0  0  0  0  0  0  0
    6.5017    1.5786    0.3335 H   0  0  0  0  0  0  0  0  0  0  0  0
    6.8426   -1.4552    0.6417 H   0  0  0  0  0  0  0  0  0  0  0  0
    7.4409   -0.3473   -0.6116 H   0  0  0  0  0  0  0  0  0  0  0  0
    6.4619   -1.7267   -1.0845 H   0  0  0  0  0  0  0  0  0  0  0  0
    2.0430    1.9913    0.4036 H   0  0  0  0  0  0  0  0  0  0  0  0
    2.6034    0.9946    1.7701 H   0  0  0  0  0  0  0  0  0  0  0  0
    0.7792   -0.6246    1.5190 H   0  0  0  0  0  0  0  0  0  0  0  0
   -0.2496    1.8044    0.1442 H   0  0  0  0  0  0  0  0  0  0  0  0
   -4.1575    1.9651   -2.8724 H   0  0  0  0  0  0  0  0  0  0  0  0
   -6.4272    2.6760   -2.1307 H   0  0  0  0  0  0  0  0  0  0  0  0
   -6.0960    2.0781   -0.4439 H   0  0  0  0  0  0  0  0  0  0  0  0
   -4.1471    3.6619   -0.2613 H   0  0  0  0  0  0  0  0  0  0  0  0
   -4.4701    4.2615   -1.9504 H   0  0  0  0  0  0  0  0  0  0  0  0
   -1.7289   -1.7392    2.3025 H   0  0  0  0  0  0  0  0  0  0  0  0
   -0.6227   -2.2430    0.9830 H   0  0  0  0  0  0  0  0  0  0  0  0
   -2.2058   -3.5805   -0.0715 H   0  0  0  0  0  0  0  0  0  0  0  0
   -2.7573   -3.8158    1.5868 H   0  0  0  0  0  0  0  0  0  0  0  0
   -4.4456   -2.9054   -0.3852 H   0  0  0  0  0  0  0  0  0  0  0  0
   -4.5851   -2.2479    1.2768 H   0  0  0  0  0  0  0  0  0  0  0  0
    1.3079   -1.4680   -0.7851 H   0  0  0  0  0  0  0  0  0  0  0  0
    1.0671    0.1395   -1.5224 H   0  0  0  0  0  0  0  0  0  0  0  0
  1  2  1  0
  2  3  1  0
  2  4  1  0
  4  5  2  0
  4  6  2  0
  4  7  1  0
  7  8  1  0
  8  9  1  0
  9 10  1  0
 10 11  1  0
 11 12  1  0
 12 13  2  0
 13 14  1  0
 14 15  1  0
 15 16  1  0
 13 17  1  0
 17 18  2  0
 18 19  1  0
 19 20  1  0
 20 21  1  0
 21 22  1  0
  9 23  1  0
 23  7  1  0
 19 11  2  0
 16 14  1  0
 22 18  1  0
  1 24  1  0
  1 25  1  0
  1 26  1  0
  3 27  1  0
  3 28  1  0
  3 29  1  0
  8 30  1  0
  8 31  1  0
  9 32  1  0
 10 33  1  0
 14 34  1  0
 15 35  1  0
 15 36  1  0
 16 37  1  0
 16 38  1  0
 20 39  1  0
 20 40  1  0
 21 41  1  0
 21 42  1  0
 22 43  1  0
 22 44  1  0
 23 45  1  0
 23 46  1  0
M  END
$$$$
OCNT-2315539
     RDKit          3D

  0  0  0  0  0  0  0  0  0  0999 V3000
M  V30 BEGIN CTAB
M  V30 COUNTS 43 46 0 0 0
M  V30 BEGIN ATOM
M  V30 1 O -1.023814 -2.929695 1.077121 0
M  V30 2 C -1.400891 -2.053646 0.025932 0 CFG=1
M  V30 3 C -2.696931 -1.304440 0.339789 0
M  V30 4 C -2.461909 0.145969 -0.114227 0
M  V30 5 C -3.634807 0.760238 -0.878911 0
M  V30 6 N -4.812328 0.942649 -0.050132 0
M  V30 7 C -5.993687 0.265215 -0.139831 0
M  V30 8 C -6.802390 0.781734 0.845129 0
M  V30 9 C -6.017188 1.766809 1.470949 0
M  V30 10 N -4.801414 1.868079 0.927797 0
M  V30 11 C -1.179249 0.098674 -0.950097 0
M  V30 12 C -0.342845 -0.960118 -0.239195 0 CFG=2
M  V30 13 N 0.730583 -1.489741 -1.087740 0
M  V30 14 C 1.982679 -0.905724 -0.849980 0
M  V30 15 C 2.251590 0.417732 -1.157487 0
M  V30 16 C 3.520612 0.943032 -0.906938 0
M  V30 17 C 4.483079 0.112208 -0.355303 0
M  V30 18 N 5.791751 0.576687 -0.072225 0
M  V30 19 C 6.814058 -0.172137 0.472145 0
M  V30 20 C 7.891291 0.674056 0.573917 0
M  V30 21 N 7.571795 1.920648 0.112166 0
M  V30 22 C 6.315110 1.834080 -0.267729 0
M  V30 23 N 4.201215 -1.177534 -0.071235 0
M  V30 24 N 2.948098 -1.685292 -0.329650 0
M  V30 25 H -0.891337 -2.407689 1.887524 0
M  V30 26 H -1.548241 -2.669696 -0.870169 0
M  V30 27 H -3.528389 -1.773734 -0.198500 0
M  V30 28 H -2.947905 -1.339920 1.406053 0
M  V30 29 H -2.256888 0.748339 0.782106 0
M  V30 30 H -3.918816 0.137328 -1.735108 0
M  V30 31 H -3.368532 1.751086 -1.266004 0
M  V30 32 H -6.158464 -0.508484 -0.876441 0
M  V30 33 H -7.816480 0.490731 1.078283 0
M  V30 34 H -6.279655 2.413910 2.298058 0
M  V30 35 H -0.690020 1.076672 -0.973557 0
M  V30 36 H -1.390775 -0.194719 -1.986404 0
M  V30 37 H 0.047558 -0.592367 0.720320 0
M  V30 38 H 0.889463 -2.471732 -0.832787 0
M  V30 39 H 1.495486 1.041720 -1.618957 0
M  V30 40 H 3.710580 1.978565 -1.161569 0
M  V30 41 H 6.686709 -1.214407 0.731283 0
M  V30 42 H 8.879082 0.448828 0.955720 0
M  V30 43 H 5.752217 2.656087 -0.686567 0
M  V30 END ATOM
M  V30 BEGIN BOND
M  V30 1 1 1 2
M  V30 2 1 2 3
M  V30 3 1 3 4
M  V30 4 1 4 5
M  V30 5 1 5 6
M  V30 6 1 6 7
M  V30 7 2 7 8
M  V30 8 1 8 9
M  V30 9 2 9 10
M  V30 10 1 4 11
M  V30 11 1 11 12
M  V30 12 1 12 13
M  V30 13 1 13 14
M  V30 14 2 14 15
M  V30 15 1 15 16
M  V30 16 2 16 17
M  V30 17 1 17 18
M  V30 18 1 18 19
M  V30 19 2 19 20
M  V30 20 1 20 21
M  V30 21 2 21 22
M  V30 22 1 17 23
M  V30 23 2 23 24
M  V30 24 1 12 2
M  V30 25 1 24 14
M  V30 26 1 10 6
M  V30 27 1 22 18
M  V30 28 1 1 25
M  V30 29 1 2 26 CFG=3
M  V30 30 1 3 27
M  V30 31 1 3 28
M  V30 32 1 4 29
M  V30 33 1 5 30
M  V30 34 1 5 31
M  V30 35 1 7 32
M  V30 36 1 8 33
M  V30 37 1 9 34
M  V30 38 1 11 35
M  V30 39 1 11 36
M  V30 40 1 12 37 CFG=1
M  V30 41 1 13 38
M  V30 42 1 15 39
M  V30 43 1 16 40
M  V30 44 1 19 41
M  V30 45 1 20 42
M  V30 46 1 22 43
M  V30 END BOND
M  V30 BEGIN COLLECTION
M  V30 MDLV30/STERAC1 ATOMS=(2 2 12)
M  V30 END COLLECTION
M  V30 END CTAB
M  END
>  <_CXSMILES_Data>  (988) 
|&1:1,11|

$$$$
OCNT-2315542
     RDKit          3D

 55 58  0  0  0  0  0  0  0  0999 V2000
   -5.3113    3.8740   -1.0905 C   0  0  0  0  0  0  0  0  0  0  0  0
   -4.6216    2.6589   -0.5966 C   0  0  0  0  0  0  0  0  0  0  0  0
   -5.1961    1.4577   -0.7066 N   0  0  0  0  0  0  0  0  0  0  0  0
   -4.3068    0.6118   -0.1497 N   0  0  0  0  0  0  0  0  0  0  0  0
   -4.6392   -0.7973   -0.1199 C   0  0  0  0  0  0  0  0  0  0  0  0
   -6.0372   -1.0981    0.4488 C   0  0  0  0  0  0  0  0  0  0  0  0
   -6.2610   -2.5900    0.2414 C   0  0  0  0  0  0  0  0  0  0  0  0
   -5.3955   -2.9973   -1.2688 S   0  0  0  0  0  0  0  0  0  0  0  0
   -6.3563   -3.2221   -2.3260 O   0  0  0  0  0  0  0  0  0  0  0  0
   -4.3575   -3.9558   -0.9452 O   0  0  0  0  0  0  0  0  0  0  0  0
   -4.6169   -1.4180   -1.5109 C   0  0  0  0  0  0  0  0  0  0  0  0
   -3.1606    1.2339    0.2958 C   0  0  0  0  0  0  0  0  0  0  0  0
   -2.0878    0.5722    0.8722 N   0  0  0  0  0  0  0  0  0  0  0  0
   -0.9881    1.2272    1.3973 C   0  0  0  0  0  0  0  0  0  0  0  0
   -0.8379    2.4380    1.4946 O   0  0  0  0  0  0  0  0  0  0  0  0
   -0.0498    0.3176    1.8458 N   0  0  0  0  0  0  0  0  0  0  0  0
    1.2218    0.7735    2.3682 C   0  0  0  0  0  0  0  0  0  0  0  0
    2.2872    0.7255    1.3034 C   0  0  0  0  0  0  0  0  0  0  0  0
    2.4073    1.7677    0.3722 C   0  0  0  0  0  0  0  0  0  0  0  0
    3.3621    1.7063   -0.6443 C   0  0  0  0  0  0  0  0  0  0  0  0
    4.2103    0.6039   -0.7405 C   0  0  0  0  0  0  0  0  0  0  0  0
    4.1102   -0.4295    0.1929 C   0  0  0  0  0  0  0  0  0  0  0  0
    4.8884   -1.5633    0.1353 O   0  0  0  0  0  0  0  0  0  0  0  0
    6.2428   -1.3924   -0.0401 C   0  0  0  0  0  0  0  0  0  0  0  0
    6.9938   -0.4934    0.7240 C   0  0  0  0  0  0  0  0  0  0  0  0
    8.3737   -0.3947    0.5228 C   0  0  0  0  0  0  0  0  0  0  0  0
    9.0054   -1.2017   -0.4266 C   0  0  0  0  0  0  0  0  0  0  0  0
    8.2592   -2.1148   -1.1723 C   0  0  0  0  0  0  0  0  0  0  0  0
    6.8851   -2.2099   -0.9694 C   0  0  0  0  0  0  0  0  0  0  0  0
    6.1823   -3.0958   -1.6910 F   0  0  0  0  0  0  0  0  0  0  0  0
    3.1405   -0.3819    1.1961 C   0  0  0  0  0  0  0  0  0  0  0  0
   -3.3568    2.5711    0.0214 C   0  0  0  0  0  0  0  0  0  0  0  0
   -5.9125    3.6536   -1.9795 H   0  0  0  0  0  0  0  0  0  0  0  0
   -4.5879    4.6510   -1.3587 H   0  0  0  0  0  0  0  0  0  0  0  0
   -5.9742    4.2742   -0.3159 H   0  0  0  0  0  0  0  0  0  0  0  0
   -3.9058   -1.3052    0.5166 H   0  0  0  0  0  0  0  0  0  0  0  0
   -6.8100   -0.5388   -0.0933 H   0  0  0  0  0  0  0  0  0  0  0  0
   -6.1198   -0.8242    1.5059 H   0  0  0  0  0  0  0  0  0  0  0  0
   -5.8113   -3.1708    1.0519 H   0  0  0  0  0  0  0  0  0  0  0  0
   -7.3189   -2.8424    0.1430 H   0  0  0  0  0  0  0  0  0  0  0  0
   -3.6045   -1.5605   -1.8962 H   0  0  0  0  0  0  0  0  0  0  0  0
   -5.2135   -0.8555   -2.2356 H   0  0  0  0  0  0  0  0  0  0  0  0
   -2.1229   -0.4230    1.0210 H   0  0  0  0  0  0  0  0  0  0  0  0
   -0.0173   -0.5633    1.3566 H   0  0  0  0  0  0  0  0  0  0  0  0
    1.4857    0.1052    3.1956 H   0  0  0  0  0  0  0  0  0  0  0  0
    1.1396    1.7840    2.7841 H   0  0  0  0  0  0  0  0  0  0  0  0
    1.7419    2.6290    0.4283 H   0  0  0  0  0  0  0  0  0  0  0  0
    3.4355    2.5143   -1.3680 H   0  0  0  0  0  0  0  0  0  0  0  0
    4.9341    0.5544   -1.5492 H   0  0  0  0  0  0  0  0  0  0  0  0
    6.5158    0.1275    1.4773 H   0  0  0  0  0  0  0  0  0  0  0  0
    8.9574    0.3097    1.1116 H   0  0  0  0  0  0  0  0  0  0  0  0
   10.0791   -1.1230   -0.5799 H   0  0  0  0  0  0  0  0  0  0  0  0
    8.7376   -2.7541   -1.9077 H   0  0  0  0  0  0  0  0  0  0  0  0
    3.0597   -1.2121    1.8935 H   0  0  0  0  0  0  0  0  0  0  0  0
   -2.6775    3.3866    0.2285 H   0  0  0  0  0  0  0  0  0  0  0  0
  1  2  1  0
  2  3  2  0
  3  4  1  0
  4  5  1  0
  5  6  1  0
  6  7  1  0
  7  8  1  0
  8  9  2  0
  8 10  2  0
  8 11  1  0
  4 12  1  0
 12 13  1  0
 13 14  1  0
 14 15  2  0
 14 16  1  0
 16 17  1  0
 17 18  1  0
 18 19  2  0
 19 20  1  0
 20 21  2  0
 21 22  1  0
 22 23  1  0
 23 24  1  0
 24 25  2  0
 25 26  1  0
 26 27  2  0
 27 28  1  0
 28 29  2  0
 29 30  1  0
 22 31  2  0
 12 32  2  0
 32  2  1  0
 11  5  1  0
 31 18  1  0
 29 24  1  0
  1 33  1  0
  1 34  1  0
  1 35  1  0
  5 36  1  0
  6 37  1  0
  6 38  1  0
  7 39  1  0
  7 40  1  0
 11 41  1  0
 11 42  1  0
 13 43  1  0
 16 44  1  0
 17 45  1  0
 17 46  1  0
 19 47  1  0
 20 48  1  0
 21 49  1  0
 25 50  1  0
 26 51  1  0
 27 52  1  0
 28 53  1  0
 31 54  1  0
 32 55  1  0
M  END
$$$$
OCNT-2315548
     RDKit          3D

 42 43  0  0  0  0  0  0  0  0999 V2000
    0.8927   -2.5253    0.6792 C   0  0  0  0  0  0  0  0  0  0  0  0
    0.5729   -1.2948   -0.1586 C   0  0  0  0  0  0  0  0  0  0  0  0
    0.5063   -0.0722    0.6529 N   0  0  0  0  0  0  0  0  0  0  0  0
   -0.7513    0.2332    1.3432 C   0  0  0  0  0  0  0  0  0  0  0  0
   -1.9461    0.3675    0.4175 C   0  0  0  0  0  0  0  0  0  0  0  0
   -2.0000    1.4389   -0.4939 C   0  0  0  0  0  0  0  0  0  0  0  0
   -0.9627    2.3327   -0.4971 O   0  0  0  0  0  0  0  0  0  0  0  0
   -3.0923    1.5648   -1.3563 C   0  0  0  0  0  0  0  0  0  0  0  0
   -3.1942    2.6724   -2.3617 C   0  0  0  0  0  0  0  0  0  0  0  0
   -4.1256    0.6947   -1.3383 N   0  0  0  0  0  0  0  0  0  0  0  0
   -4.0728   -0.3199   -0.4446 C   0  0  0  0  0  0  0  0  0  0  0  0
   -3.0276   -0.5405    0.4509 C   0  0  0  0  0  0  0  0  0  0  0  0
   -3.0801   -1.6920    1.4201 C   0  0  0  0  0  0  0  0  0  0  0  0
   -4.2315   -2.5052    1.2354 O   0  0  0  0  0  0  0  0  0  0  0  0
    1.6532    0.5402    1.1663 C   0  0  0  0  0  0  0  0  0  0  0  0
    1.6846    1.1711    2.2199 O   0  0  0  0  0  0  0  0  0  0  0  0
    2.9143    0.4477    0.3993 C   0  0  0  0  0  0  0  0  0  0  0  0
    2.9594    0.8674   -0.9373 C   0  0  0  0  0  0  0  0  0  0  0  0
    4.1647    0.8121   -1.6372 C   0  0  0  0  0  0  0  0  0  0  0  0
    5.3136    0.3560   -0.9937 C   0  0  0  0  0  0  0  0  0  0  0  0
    6.4605    0.3085   -1.6872 F   0  0  0  0  0  0  0  0  0  0  0  0
    5.2739   -0.0373    0.3449 C   0  0  0  0  0  0  0  0  0  0  0  0
    6.6982   -0.5907    1.1379 Cl  0  0  0  0  0  0  0  0  0  0  0  0
    4.0739    0.0155    1.0516 C   0  0  0  0  0  0  0  0  0  0  0  0
    0.1456   -2.6816    1.4625 H   0  0  0  0  0  0  0  0  0  0  0  0
    1.8680   -2.4307    1.1670 H   0  0  0  0  0  0  0  0  0  0  0  0
    0.9155   -3.4180    0.0464 H   0  0  0  0  0  0  0  0  0  0  0  0
   -0.3725   -1.4348   -0.6904 H   0  0  0  0  0  0  0  0  0  0  0  0
    1.3421   -1.1924   -0.9272 H   0  0  0  0  0  0  0  0  0  0  0  0
   -0.8954   -0.5408    2.1030 H   0  0  0  0  0  0  0  0  0  0  0  0
   -0.6631    1.1730    1.9031 H   0  0  0  0  0  0  0  0  0  0  0  0
   -1.2107    3.1268   -0.9959 H   0  0  0  0  0  0  0  0  0  0  0  0
   -3.2599    3.6402   -1.8551 H   0  0  0  0  0  0  0  0  0  0  0  0
   -2.3240    2.6664   -3.0255 H   0  0  0  0  0  0  0  0  0  0  0  0
   -4.0889    2.5560   -2.9823 H   0  0  0  0  0  0  0  0  0  0  0  0
   -4.9394   -0.9776   -0.4736 H   0  0  0  0  0  0  0  0  0  0  0  0
   -3.1039   -1.3085    2.4452 H   0  0  0  0  0  0  0  0  0  0  0  0
   -2.2056   -2.3335    1.2826 H   0  0  0  0  0  0  0  0  0  0  0  0
   -4.2067   -3.1901    1.9253 H   0  0  0  0  0  0  0  0  0  0  0  0
    2.0610    1.2429   -1.4235 H   0  0  0  0  0  0  0  0  0  0  0  0
    4.2202    1.1278   -2.6747 H   0  0  0  0  0  0  0  0  0  0  0  0
    4.0335   -0.2699    2.1000 H   0  0  0  0  0  0  0  0  0  0  0  0
  1  2  1  0
  2  3  1  0
  3  4  1  0
  4  5  1  0
  5  6  1  0
  6  7  1  0
  6  8  2  0
  8  9  1  0
  8 10  1  0
 10 11  2  0
 11 12  1  0
 12 13  1  0
 13 14  1  0
  3 15  1  0
 15 16  2  0
 15 17  1  0
 17 18  1  0
 18 19  2  0
 19 20  1  0
 20 21  1  0
 20 22  2  0
 22 23  1  0
 22 24  1  0
 12  5  2  0
 24 17  2  0
  1 25  1  0
  1 26  1  0
  1 27  1  0
  2 28  1  0
  2 29  1  0
  4 30  1  0
  4 31  1  0
  7 32  1  0
  9 33  1  0
  9 34  1  0
  9 35  1  0
 11 36  1  0
 13 37  1  0
 13 38  1  0
 14 39  1  0
 18 40  1  0
 19 41  1  0
 24 42  1  0
M  END
$$$$
OCNT-2315554
     RDKit          3D

 50 53  0  0  0  0  0  0  0  0999 V2000
   -0.2142    0.6613    2.4962 O   0  0  0  0  0  0  0  0  0  0  0  0
   -0.8459    0.0344    1.6514 C   0  0  0  0  0  0  0  0  0  0  0  0
   -0.4838   -1.2249    1.2489 N   0  0  0  0  0  0  0  0  0  0  0  0
    0.6452   -1.9199    1.8394 C   0  0  0  0  0  0  0  0  0  0  0  0
    2.0064   -1.3137    1.4993 C   0  0  0  0  0  0  0  0  0  0  0  0
    2.2613   -1.2361   -0.0050 C   0  0  0  0  0  0  0  0  0  0  0  0
    3.6297   -0.7281   -0.3040 C   0  0  0  0  0  0  0  0  0  0  0  0
    4.6261   -1.4167   -0.8204 N   0  0  0  0  0  0  0  0  0  0  0  0
    5.6747   -0.5341   -0.9158 C   0  0  0  0  0  0  0  0  0  0  0  0
    6.9774   -0.7356   -1.3936 C   0  0  0  0  0  0  0  0  0  0  0  0
    7.8713    0.3431   -1.3829 C   0  0  0  0  0  0  0  0  0  0  0  0
    7.4756    1.5956   -0.9061 C   0  0  0  0  0  0  0  0  0  0  0  0
    6.1792    1.8156   -0.4254 C   0  0  0  0  0  0  0  0  0  0  0  0
    5.3096    0.7232   -0.4488 C   0  0  0  0  0  0  0  0  0  0  0  0
    4.0017    0.5736   -0.0669 N   0  0  0  0  0  0  0  0  0  0  0  0
   -1.9709    0.5461    1.0049 N   0  0  0  0  0  0  0  0  0  0  0  0
   -2.3766    1.8902    1.4179 C   0  0  0  0  0  0  0  0  0  0  0  0
   -3.2494    2.5773    0.3723 C   0  0  0  0  0  0  0  0  0  0  0  0
   -4.4441    1.7109   -0.0144 C   0  0  0  0  0  0  0  0  0  0  0  0
   -3.9655    0.3317   -0.4855 C   0  0  0  0  0  0  0  0  0  0  0  0
   -5.0699   -0.5315   -0.8743 N   0  0  0  0  0  0  0  0  0  0  0  0
   -6.0909   -0.9754   -0.0801 C   0  0  0  0  0  0  0  0  0  0  0  0
   -6.8597   -1.7693   -0.8989 C   0  0  0  0  0  0  0  0  0  0  0  0
   -6.3318   -1.8177   -2.1620 N   0  0  0  0  0  0  0  0  0  0  0  0
   -5.2594   -1.0607   -2.1202 C   0  0  0  0  0  0  0  0  0  0  0  0
   -3.0686   -0.3320    0.5705 C   0  0  0  0  0  0  0  0  0  0  0  0
   -0.6959   -1.4512    0.2896 H   0  0  0  0  0  0  0  0  0  0  0  0
    0.5947   -2.9586    1.4959 H   0  0  0  0  0  0  0  0  0  0  0  0
    0.5103   -1.9187    2.9270 H   0  0  0  0  0  0  0  0  0  0  0  0
    2.0919   -0.3131    1.9396 H   0  0  0  0  0  0  0  0  0  0  0  0
    2.7856   -1.9230    1.9752 H   0  0  0  0  0  0  0  0  0  0  0  0
    2.1439   -2.2306   -0.4520 H   0  0  0  0  0  0  0  0  0  0  0  0
    1.5269   -0.5805   -0.4877 H   0  0  0  0  0  0  0  0  0  0  0  0
    7.2764   -1.7107   -1.7607 H   0  0  0  0  0  0  0  0  0  0  0  0
    8.8848    0.2002   -1.7500 H   0  0  0  0  0  0  0  0  0  0  0  0
    8.1898    2.4167   -0.9075 H   0  0  0  0  0  0  0  0  0  0  0  0
    5.8733    2.7874   -0.0545 H   0  0  0  0  0  0  0  0  0  0  0  0
    3.4145    1.2910    0.3337 H   0  0  0  0  0  0  0  0  0  0  0  0
   -1.4893    2.5067    1.6027 H   0  0  0  0  0  0  0  0  0  0  0  0
   -2.9153    1.7971    2.3691 H   0  0  0  0  0  0  0  0  0  0  0  0
   -3.5977    3.5425    0.7561 H   0  0  0  0  0  0  0  0  0  0  0  0
   -2.6497    2.7833   -0.5232 H   0  0  0  0  0  0  0  0  0  0  0  0
   -5.1158    1.6139    0.8479 H   0  0  0  0  0  0  0  0  0  0  0  0
   -5.0181    2.2052   -0.8074 H   0  0  0  0  0  0  0  0  0  0  0  0
   -3.3596    0.4827   -1.3904 H   0  0  0  0  0  0  0  0  0  0  0  0
   -6.1926   -0.7058    0.9618 H   0  0  0  0  0  0  0  0  0  0  0  0
   -7.7638   -2.3082   -0.6462 H   0  0  0  0  0  0  0  0  0  0  0  0
   -4.5961   -0.8690   -2.9541 H   0  0  0  0  0  0  0  0  0  0  0  0
   -2.6852   -1.2770    0.1746 H   0  0  0  0  0  0  0  0  0  0  0  0
   -3.6405   -0.5880    1.4721 H   0  0  0  0  0  0  0  0  0  0  0  0
  1  2  2  0
  2  3  1  0
  3  4  1  0
  4  5  1  0
  5  6  1  0
  6  7  1  0
  7  8  2  0
  8  9  1  0
  9 10  2  0
 10 11  1  0
 11 12  2  0
 12 13  1  0
 13 14  2  0
 14 15  1  0
  2 16  1  0
 16 17  1  0
 17 18  1  0
 18 19  1  0
 19 20  1  0
 20 21  1  0
 21 22  1  0
 22 23  2  0
 23 24  1  0
 24 25  2  0
 20 26  1  0
 15  7  1  0
 26 16  1  0
 14  9  1  0
 25 21  1  0
  3 27  1  0
  4 28  1  0
  4 29  1  0
  5 30  1  0
  5 31  1  0
  6 32  1  0
  6 33  1  0
 10 34  1  0
 11 35  1  0
 12 36  1  0
 13 37  1  0
 15 38  1  0
 17 39  1  0
 17 40  1  0
 18 41  1  0
 18 42  1  0
 19 43  1  0
 19 44  1  0
 20 45  1  0
 22 46  1  0
 23 47  1  0
 25 48  1  0
 26 49  1  0
 26 50  1  0
M  END
$$$$
OCNT-2315568
     RDKit          3D

 36 38  0  0  0  0  0  0  0  0999 V2000
    7.1217    0.9826   -1.4440 F   0  0  0  0  0  0  0  0  0  0  0  0
    6.6694    0.4866   -0.2598 C   0  0  0  0  0  0  0  0  0  0  0  0
    7.0312    1.3953    0.6889 F   0  0  0  0  0  0  0  0  0  0  0  0
    7.4140   -0.6263   -0.0099 F   0  0  0  0  0  0  0  0  0  0  0  0
    5.1841    0.2163   -0.2813 C   0  0  0  0  0  0  0  0  0  0  0  0
    4.2701    1.2278    0.0513 C   0  0  0  0  0  0  0  0  0  0  0  0
    2.8915    0.9900    0.0130 C   0  0  0  0  0  0  0  0  0  0  0  0
    2.4074   -0.2683   -0.3674 C   0  0  0  0  0  0  0  0  0  0  0  0
    1.0137   -0.5333   -0.4132 N   0  0  0  0  0  0  0  0  0  0  0  0
   -0.0341    0.3058   -0.1254 C   0  0  0  0  0  0  0  0  0  0  0  0
   -1.1717   -0.4517   -0.3191 C   0  0  0  0  0  0  0  0  0  0  0  0
   -2.6170   -0.0703   -0.1801 C   0  0  0  0  0  0  0  0  0  0  0  0
   -3.5293   -1.2838    0.0838 C   0  0  0  0  0  0  0  0  0  0  0  0
   -4.9125   -0.8938    0.6149 C   0  0  0  0  0  0  0  0  0  0  0  0
   -5.2018    0.5814    0.3801 C   0  0  0  0  0  0  0  0  0  0  0  0
   -4.1072    1.4618    0.9898 C   0  0  0  0  0  0  0  0  0  0  0  0
   -2.7514    0.9060    0.9157 N   0  0  0  0  0  0  0  0  0  0  0  0
   -0.7959   -1.7017   -0.7324 N   0  0  0  0  0  0  0  0  0  0  0  0
    0.5279   -1.7451   -0.7791 N   0  0  0  0  0  0  0  0  0  0  0  0
    3.3157   -1.2812   -0.7096 C   0  0  0  0  0  0  0  0  0  0  0  0
    4.6918   -1.0377   -0.6695 C   0  0  0  0  0  0  0  0  0  0  0  0
    4.6316    2.2130    0.3459 H   0  0  0  0  0  0  0  0  0  0  0  0
    2.2279    1.8064    0.2841 H   0  0  0  0  0  0  0  0  0  0  0  0
    0.0863    1.3315    0.1836 H   0  0  0  0  0  0  0  0  0  0  0  0
   -2.9057    0.4092   -1.1255 H   0  0  0  0  0  0  0  0  0  0  0  0
   -3.6491   -1.8454   -0.8520 H   0  0  0  0  0  0  0  0  0  0  0  0
   -3.0683   -1.9801    0.7971 H   0  0  0  0  0  0  0  0  0  0  0  0
   -4.9558   -1.1008    1.6917 H   0  0  0  0  0  0  0  0  0  0  0  0
   -5.6839   -1.5155    0.1468 H   0  0  0  0  0  0  0  0  0  0  0  0
   -6.1743    0.8488    0.8087 H   0  0  0  0  0  0  0  0  0  0  0  0
   -5.2698    0.7692   -0.6990 H   0  0  0  0  0  0  0  0  0  0  0  0
   -4.1190    2.4389    0.4933 H   0  0  0  0  0  0  0  0  0  0  0  0
   -4.3393    1.6535    2.0443 H   0  0  0  0  0  0  0  0  0  0  0  0
   -2.5487    0.4171    1.7890 H   0  0  0  0  0  0  0  0  0  0  0  0
    2.9704   -2.2692   -1.0125 H   0  0  0  0  0  0  0  0  0  0  0  0
    5.3800   -1.8371   -0.9427 H   0  0  0  0  0  0  0  0  0  0  0  0
  1  2  1  0
  2  3  1  0
  2  4  1  0
  2  5  1  0
  5  6  1  0
  6  7  2  0
  7  8  1  0
  8  9  1  0
  9 10  1  0
 10 11  2  0
 11 12  1  0
 12 13  1  0
 13 14  1  0
 14 15  1  0
 15 16  1  0
 16 17  1  0
 11 18  1  0
 18 19  2  0
  8 20  2  0
 20 21  1  0
 21  5  2  0
 19  9  1  0
 17 12  1  0
  6 22  1  0
  7 23  1  0
 10 24  1  0
 12 25  1  0
 13 26  1  0
 13 27  1  0
 14 28  1  0
 14 29  1  0
 15 30  1  0
 15 31  1  0
 16 32  1  0
 16 33  1  0
 17 34  1  0
 20 35  1  0
 21 36  1  0
M  END
$$$$
OCNT-2315569
     RDKit          3D

 45 47  0  0  0  0  0  0  0  0999 V2000
    6.9338    0.3595    0.5890 C   0  0  0  0  0  0  0  0  0  0  0  0
    5.7437   -0.2290    1.2978 C   0  0  0  0  0  0  0  0  0  0  0  0
    5.8168   -0.6694    2.4401 O   0  0  0  0  0  0  0  0  0  0  0  0
    4.5868   -0.2248    0.5552 N   0  0  0  0  0  0  0  0  0  0  0  0
    3.3945   -0.9123    1.0249 C   0  0  0  0  0  0  0  0  0  0  0  0
    2.1431   -0.4120    0.2931 C   0  0  0  0  0  0  0  0  0  0  0  0
    0.8881   -1.1496    0.8108 C   0  0  0  0  0  0  0  0  0  0  0  0
   -0.3535   -0.8083    0.0825 N   0  0  0  0  0  0  0  0  0  0  0  0
   -0.8456    0.5280    0.4477 C   0  0  0  0  0  0  0  0  0  0  0  0
   -2.2275    0.7690   -0.0558 C   0  0  0  0  0  0  0  0  0  0  0  0
   -3.3443   -0.0260   -0.0708 C   0  0  0  0  0  0  0  0  0  0  0  0
   -3.8088   -1.3718    0.3030 C   0  0  0  0  0  0  0  0  0  0  0  0
   -5.3630   -1.2276    0.1512 C   0  0  0  0  0  0  0  0  0  0  0  0
   -5.6290    0.0125   -0.7697 C   0  0  0  0  0  0  0  0  0  0  0  0
   -4.3483    0.7316   -0.6616 C   0  0  0  0  0  0  0  0  0  0  0  0
   -3.9613    1.9467   -1.0157 N   0  0  0  0  0  0  0  0  0  0  0  0
   -2.6576    1.9600   -0.6221 N   0  0  0  0  0  0  0  0  0  0  0  0
   -1.8813    3.1603   -0.8290 C   0  0  0  0  0  0  0  0  0  0  0  0
   -0.0989   -0.9590   -1.3672 C   0  0  0  0  0  0  0  0  0  0  0  0
    1.1664   -0.2380   -1.8595 C   0  0  0  0  0  0  0  0  0  0  0  0
    2.3258   -0.6443   -1.1204 O   0  0  0  0  0  0  0  0  0  0  0  0
    7.6386   -0.4408    0.3489 H   0  0  0  0  0  0  0  0  0  0  0  0
    7.4137    1.0916    1.2444 H   0  0  0  0  0  0  0  0  0  0  0  0
    6.6436    0.8664   -0.3356 H   0  0  0  0  0  0  0  0  0  0  0  0
    4.6631   -0.1260   -0.4512 H   0  0  0  0  0  0  0  0  0  0  0  0
    3.5578   -1.9787    0.8304 H   0  0  0  0  0  0  0  0  0  0  0  0
    3.2970   -0.7695    2.1066 H   0  0  0  0  0  0  0  0  0  0  0  0
    2.0514    0.6703    0.4500 H   0  0  0  0  0  0  0  0  0  0  0  0
    0.7578   -0.9769    1.8862 H   0  0  0  0  0  0  0  0  0  0  0  0
    1.0399   -2.2314    0.6962 H   0  0  0  0  0  0  0  0  0  0  0  0
   -0.1592    1.3121    0.1130 H   0  0  0  0  0  0  0  0  0  0  0  0
   -0.8961    0.6071    1.5419 H   0  0  0  0  0  0  0  0  0  0  0  0
   -3.5364   -1.6514    1.3242 H   0  0  0  0  0  0  0  0  0  0  0  0
   -3.4268   -2.1230   -0.3958 H   0  0  0  0  0  0  0  0  0  0  0  0
   -5.7987   -1.0341    1.1405 H   0  0  0  0  0  0  0  0  0  0  0  0
   -5.8266   -2.1392   -0.2385 H   0  0  0  0  0  0  0  0  0  0  0  0
   -5.8093   -0.3089   -1.8004 H   0  0  0  0  0  0  0  0  0  0  0  0
   -6.4818    0.5952   -0.4117 H   0  0  0  0  0  0  0  0  0  0  0  0
   -2.5328    3.9600   -1.1909 H   0  0  0  0  0  0  0  0  0  0  0  0
   -1.1088    2.9441   -1.5710 H   0  0  0  0  0  0  0  0  0  0  0  0
   -1.4348    3.4537    0.1242 H   0  0  0  0  0  0  0  0  0  0  0  0
   -0.9628   -0.6451   -1.9632 H   0  0  0  0  0  0  0  0  0  0  0  0
    0.0218   -2.0328   -1.5620 H   0  0  0  0  0  0  0  0  0  0  0  0
    1.0641    0.8512   -1.7975 H   0  0  0  0  0  0  0  0  0  0  0  0
    1.3455   -0.4893   -2.9099 H   0  0  0  0  0  0  0  0  0  0  0  0
  1  2  1  0
  2  3  2  0
  2  4  1  0
  4  5  1  0
  5  6  1  0
  6  7  1  0
  7  8  1  0
  8  9  1  0
  9 10  1  0
 10 11  2  0
 11 12  1  0
 12 13  1  0
 13 14  1  0
 14 15  1  0
 15 16  2  0
 16 17  1  0
 17 18  1  0
  8 19  1  0
 19 20  1  0
 20 21  1  0
 21  6  1  0
 17 10  1  0
 15 11  1  0
  1 22  1  0
  1 23  1  0
  1 24  1  0
  4 25  1  0
  5 26  1  0
  5 27  1  0
  6 28  1  0
  7 29  1  0
  7 30  1  0
  9 31  1  0
  9 32  1  0
 12 33  1  0
 12 34  1  0
 13 35  1  0
 13 36  1  0
 14 37  1  0
 14 38  1  0
 18 39  1  0
 18 40  1  0
 18 41  1  0
 19 42  1  0
 19 43  1  0
 20 44  1  0
 20 45  1  0
M  END
$$$$
OCNT-2315573
     RDKit          3D

 45 47  0  0  0  0  0  0  0  0999 V2000
   -7.3743   -0.1008    0.4921 C   0  0  0  0  0  0  0  0  0  0  0  0
   -6.5729    0.5882   -0.6028 C   0  0  0  0  0  0  0  0  0  0  0  0
   -5.0851    0.4332   -0.3997 C   0  0  0  0  0  0  0  0  0  0  0  0
   -4.3931    1.4220    0.3103 C   0  0  0  0  0  0  0  0  0  0  0  0
   -3.0163    1.3116    0.5352 C   0  0  0  0  0  0  0  0  0  0  0  0
   -2.2735    0.2186    0.0637 C   0  0  0  0  0  0  0  0  0  0  0  0
   -0.8956    0.1586    0.3300 N   0  0  0  0  0  0  0  0  0  0  0  0
   -0.2126   -1.1440    0.1680 C   0  0  0  0  0  0  0  0  0  0  0  0
    1.2185   -1.0873    0.7437 C   0  0  0  0  0  0  0  0  0  0  0  0
    2.0189    0.0099    0.1266 N   0  0  0  0  0  0  0  0  0  0  0  0
    3.4139   -0.0798    0.0894 C   0  0  0  0  0  0  0  0  0  0  0  0
    4.2421    0.9174    0.4320 C   0  0  0  0  0  0  0  0  0  0  0  0
    5.7068    0.7566    0.3560 C   0  0  0  0  0  0  0  0  0  0  0  0
    6.4209    1.7195    0.6286 O   0  0  0  0  0  0  0  0  0  0  0  0
    6.1701   -0.4822   -0.0282 N   0  0  0  0  0  0  0  0  0  0  0  0
    7.5993   -0.6907   -0.1298 C   0  0  0  0  0  0  0  0  0  0  0  0
    5.3285   -1.4880   -0.4509 C   0  0  0  0  0  0  0  0  0  0  0  0
    5.7109   -2.5638   -0.9094 O   0  0  0  0  0  0  0  0  0  0  0  0
    3.9908   -1.2367   -0.3486 N   0  0  0  0  0  0  0  0  0  0  0  0
    1.3179    1.3177    0.2579 C   0  0  0  0  0  0  0  0  0  0  0  0
   -0.1246    1.2633   -0.2951 C   0  0  0  0  0  0  0  0  0  0  0  0
   -2.9776   -0.7759   -0.6266 C   0  0  0  0  0  0  0  0  0  0  0  0
   -4.3584   -0.6732   -0.8583 C   0  0  0  0  0  0  0  0  0  0  0  0
   -5.1153   -1.9633   -1.7278 Cl  0  0  0  0  0  0  0  0  0  0  0  0
   -8.4462    0.0412    0.3213 H   0  0  0  0  0  0  0  0  0  0  0  0
   -7.1761   -1.1771    0.5200 H   0  0  0  0  0  0  0  0  0  0  0  0
   -7.1315    0.3097    1.4782 H   0  0  0  0  0  0  0  0  0  0  0  0
   -6.8694    0.2083   -1.5868 H   0  0  0  0  0  0  0  0  0  0  0  0
   -6.8299    1.6551   -0.6186 H   0  0  0  0  0  0  0  0  0  0  0  0
   -4.9216    2.2869    0.7064 H   0  0  0  0  0  0  0  0  0  0  0  0
   -2.5250    2.0876    1.1183 H   0  0  0  0  0  0  0  0  0  0  0  0
   -0.7612   -1.9299    0.7013 H   0  0  0  0  0  0  0  0  0  0  0  0
   -0.1584   -1.4135   -0.8947 H   0  0  0  0  0  0  0  0  0  0  0  0
    1.1770   -0.9221    1.8280 H   0  0  0  0  0  0  0  0  0  0  0  0
    1.6884   -2.0634    0.5827 H   0  0  0  0  0  0  0  0  0  0  0  0
    3.9043    1.8798    0.7892 H   0  0  0  0  0  0  0  0  0  0  0  0
    7.9110   -0.4425   -1.1493 H   0  0  0  0  0  0  0  0  0  0  0  0
    8.1418   -0.0515    0.5728 H   0  0  0  0  0  0  0  0  0  0  0  0
    7.8524   -1.7361    0.0715 H   0  0  0  0  0  0  0  0  0  0  0  0
    3.3935   -1.9706   -0.6984 H   0  0  0  0  0  0  0  0  0  0  0  0
    1.8539    2.0944   -0.3002 H   0  0  0  0  0  0  0  0  0  0  0  0
    1.3004    1.6097    1.3154 H   0  0  0  0  0  0  0  0  0  0  0  0
   -0.0927    1.1129   -1.3825 H   0  0  0  0  0  0  0  0  0  0  0  0
   -0.5878    2.2388   -0.1090 H   0  0  0  0  0  0  0  0  0  0  0  0
   -2.4624   -1.6487   -1.0147 H   0  0  0  0  0  0  0  0  0  0  0  0
  1  2  1  0
  2  3  1  0
  3  4  1  0
  4  5  2  0
  5  6  1  0
  6  7  1  0
  7  8  1  0
  8  9  1  0
  9 10  1  0
 10 11  1  0
 11 12  2  0
 12 13  1  0
 13 14  2  0
 13 15  1  0
 15 16  1  0
 15 17  1  0
 17 18  2  0
 17 19  1  0
 10 20  1  0
 20 21  1  0
  6 22  2  0
 22 23  1  0
 23 24  1  0
 23  3  2  0
 21  7  1  0
 19 11  1  0
  1 25  1  0
  1 26  1  0
  1 27  1  0
  2 28  1  0
  2 29  1  0
  4 30  1  0
  5 31  1  0
  8 32  1  0
  8 33  1  0
  9 34  1  0
  9 35  1  0
 12 36  1  0
 16 37  1  0
 16 38  1  0
 16 39  1  0
 19 40  1  0
 20 41  1  0
 20 42  1  0
 21 43  1  0
 21 44  1  0
 22 45  1  0
M  END
$$$$
OCNT-2315584
     RDKit          3D

 48 50  0  0  0  0  0  0  0  0999 V2000
    6.1160   -0.8058   -1.5213 C   0  0  0  0  0  0  0  0  0  0  0  0
    6.0108   -0.0571   -0.1780 C   0  0  0  0  0  0  0  0  0  0  0  0
    7.0950   -0.6271    0.7626 C   0  0  0  0  0  0  0  0  0  0  0  0
    6.3200    1.4372   -0.3964 C   0  0  0  0  0  0  0  0  0  0  0  0
    4.6196   -0.2325    0.4236 C   0  0  0  0  0  0  0  0  0  0  0  0
    4.2265   -0.8066    1.6219 C   0  0  0  0  0  0  0  0  0  0  0  0
    2.8696   -0.8132    1.8833 N   0  0  0  0  0  0  0  0  0  0  0  0
    2.2331   -0.2276    0.8973 C   0  0  0  0  0  0  0  0  0  0  0  0
    0.8665   -0.1285    0.9056 N   0  0  0  0  0  0  0  0  0  0  0  0
    0.0890    0.6424    0.0807 C   0  0  0  0  0  0  0  0  0  0  0  0
    0.5090    1.4547   -0.7386 O   0  0  0  0  0  0  0  0  0  0  0  0
   -1.2865    0.4473    0.2540 N   0  0  0  0  0  0  0  0  0  0  0  0
   -2.1985    1.3194   -0.4849 C   0  0  0  0  0  0  0  0  0  0  0  0
   -3.5209    1.5091    0.2508 C   0  0  0  0  0  0  0  0  0  0  0  0
   -4.2198    0.1742    0.5786 C   0  0  0  0  0  0  0  0  0  0  0  0
   -5.4806   -0.0486   -0.2377 C   0  0  0  0  0  0  0  0  0  0  0  0
   -5.4665   -0.0610   -1.6369 C   0  0  0  0  0  0  0  0  0  0  0  0
   -6.6558   -0.2766   -2.3180 C   0  0  0  0  0  0  0  0  0  0  0  0
   -7.8436   -0.4798   -1.7119 N   0  0  0  0  0  0  0  0  0  0  0  0
   -7.8409   -0.4669   -0.3631 C   0  0  0  0  0  0  0  0  0  0  0  0
   -6.7048   -0.2603    0.4058 C   0  0  0  0  0  0  0  0  0  0  0  0
   -3.2715   -1.0309    0.4645 C   0  0  0  0  0  0  0  0  0  0  0  0
   -1.8760   -0.6860    0.9707 C   0  0  0  0  0  0  0  0  0  0  0  0
    3.1982    0.3112   -0.3929 S   0  0  0  0  0  0  0  0  0  0  0  0
    5.4353   -0.3940   -2.2748 H   0  0  0  0  0  0  0  0  0  0  0  0
    7.1300   -0.7390   -1.9324 H   0  0  0  0  0  0  0  0  0  0  0  0
    5.8729   -1.8684   -1.4033 H   0  0  0  0  0  0  0  0  0  0  0  0
    6.9482   -1.6987    0.9423 H   0  0  0  0  0  0  0  0  0  0  0  0
    7.0896   -0.1210    1.7352 H   0  0  0  0  0  0  0  0  0  0  0  0
    8.0966   -0.5020    0.3346 H   0  0  0  0  0  0  0  0  0  0  0  0
    5.6440    1.8934   -1.1282 H   0  0  0  0  0  0  0  0  0  0  0  0
    6.2243    2.0028    0.5381 H   0  0  0  0  0  0  0  0  0  0  0  0
    7.3412    1.5789   -0.7691 H   0  0  0  0  0  0  0  0  0  0  0  0
    4.8923   -1.2456    2.3553 H   0  0  0  0  0  0  0  0  0  0  0  0
    0.4599   -0.4866    1.7522 H   0  0  0  0  0  0  0  0  0  0  0  0
   -2.3568    0.8699   -1.4718 H   0  0  0  0  0  0  0  0  0  0  0  0
   -1.7316    2.2975   -0.6461 H   0  0  0  0  0  0  0  0  0  0  0  0
   -4.1725    2.1859   -0.3143 H   0  0  0  0  0  0  0  0  0  0  0  0
   -3.3049    2.0206    1.1992 H   0  0  0  0  0  0  0  0  0  0  0  0
   -4.5224    0.2458    1.6335 H   0  0  0  0  0  0  0  0  0  0  0  0
   -4.5522    0.0902   -2.2000 H   0  0  0  0  0  0  0  0  0  0  0  0
   -6.6822   -0.2926   -3.4040 H   0  0  0  0  0  0  0  0  0  0  0  0
   -8.8081   -0.6329    0.1026 H   0  0  0  0  0  0  0  0  0  0  0  0
   -6.7845   -0.2655    1.4879 H   0  0  0  0  0  0  0  0  0  0  0  0
   -3.6764   -1.8779    1.0320 H   0  0  0  0  0  0  0  0  0  0  0  0
   -3.1920   -1.3695   -0.5769 H   0  0  0  0  0  0  0  0  0  0  0  0
   -1.2282   -1.5631    0.8680 H   0  0  0  0  0  0  0  0  0  0  0  0
   -1.9104   -0.4153    2.0324 H   0  0  0  0  0  0  0  0  0  0  0  0
  1  2  1  0
  2  3  1  0
  2  4  1  0
  2  5  1  0
  5  6  2  0
  6  7  1  0
  7  8  2  0
  8  9  1  0
  9 10  1  0
 10 11  2  0
 10 12  1  0
 12 13  1  0
 13 14  1  0
 14 15  1  0
 15 16  1  0
 16 17  2  0
 17 18  1  0
 18 19  2  0
 19 20  1  0
 20 21  2  0
 15 22  1  0
 22 23  1  0
  8 24  1  0
 24  5  1  0
 23 12  1  0
 21 16  1  0
  1 25  1  0
  1 26  1  0
  1 27  1  0
  3 28  1  0
  3 29  1  0
  3 30  1  0
  4 31  1  0
  4 32  1  0
  4 33  1  0
  6 34  1  0
  9 35  1  0
 13 36  1  0
 13 37  1  0
 14 38  1  0
 14 39  1  0
 15 40  1  0
 17 41  1  0
 18 42  1  0
 20 43  1  0
 21 44  1  0
 22 45  1  0
 22 46  1  0
 23 47  1  0
 23 48  1  0
M  END
$$$$
OCNT-2315585
     RDKit          3D

 48 50  0  0  0  0  0  0  0  0999 V2000
    6.4498    0.5916    2.1185 C   0  0  0  0  0  0  0  0  0  0  0  0
    6.5626    0.1048    0.6714 C   0  0  0  0  0  0  0  0  0  0  0  0
    7.9249    0.5026    0.0993 C   0  0  0  0  0  0  0  0  0  0  0  0
    5.4361    0.6793   -0.2019 C   0  0  0  0  0  0  0  0  0  0  0  0
    4.0695    0.0576    0.0664 C   0  0  0  0  0  0  0  0  0  0  0  0
    3.9255   -0.9269    0.7809 O   0  0  0  0  0  0  0  0  0  0  0  0
    3.0687    0.7319   -0.6171 N   0  0  0  0  0  0  0  0  0  0  0  0
    1.6875    0.4505   -0.6159 C   0  0  0  0  0  0  0  0  0  0  0  0
    1.0966   -0.5718    0.1217 C   0  0  0  0  0  0  0  0  0  0  0  0
   -0.2899   -0.7845    0.0682 C   0  0  0  0  0  0  0  0  0  0  0  0
   -1.1160   -0.0035   -0.7438 C   0  0  0  0  0  0  0  0  0  0  0  0
   -2.5079   -0.1178   -0.7800 N   0  0  0  0  0  0  0  0  0  0  0  0
   -3.1446   -1.3515   -0.3431 C   0  0  0  0  0  0  0  0  0  0  0  0
   -4.6381   -1.2229   -0.5259 C   0  0  0  0  0  0  0  0  0  0  0  0
   -5.3036   -2.0701   -1.4416 C   0  0  0  0  0  0  0  0  0  0  0  0
   -6.6819   -2.0058   -1.6557 C   0  0  0  0  0  0  0  0  0  0  0  0
   -7.4654   -1.0833   -0.9610 C   0  0  0  0  0  0  0  0  0  0  0  0
   -6.8399   -0.2238   -0.0482 C   0  0  0  0  0  0  0  0  0  0  0  0
   -5.4631   -0.3006    0.1568 C   0  0  0  0  0  0  0  0  0  0  0  0
   -5.2525    0.6861    1.0917 N   0  0  0  0  0  0  0  0  0  0  0  0
   -4.0250    1.1177    1.7070 C   0  0  0  0  0  0  0  0  0  0  0  0
   -6.3982    1.3093    1.4324 N   0  0  0  0  0  0  0  0  0  0  0  0
   -7.3796    0.7551    0.7384 N   0  0  0  0  0  0  0  0  0  0  0  0
   -0.5162    1.0467   -1.4490 C   0  0  0  0  0  0  0  0  0  0  0  0
    0.8663    1.2653   -1.3986 C   0  0  0  0  0  0  0  0  0  0  0  0
    7.2556    0.1726    2.7308 H   0  0  0  0  0  0  0  0  0  0  0  0
    5.5007    0.2875    2.5703 H   0  0  0  0  0  0  0  0  0  0  0  0
    6.5164    1.6835    2.1765 H   0  0  0  0  0  0  0  0  0  0  0  0
    6.5048   -0.9908    0.6711 H   0  0  0  0  0  0  0  0  0  0  0  0
    8.7376    0.0893    0.7061 H   0  0  0  0  0  0  0  0  0  0  0  0
    8.0447    0.1220   -0.9206 H   0  0  0  0  0  0  0  0  0  0  0  0
    8.0422    1.5913    0.0713 H   0  0  0  0  0  0  0  0  0  0  0  0
    5.3681    1.7652   -0.0618 H   0  0  0  0  0  0  0  0  0  0  0  0
    5.6606    0.4924   -1.2599 H   0  0  0  0  0  0  0  0  0  0  0  0
    3.3594    1.5132   -1.1910 H   0  0  0  0  0  0  0  0  0  0  0  0
    1.6809   -1.2238    0.7635 H   0  0  0  0  0  0  0  0  0  0  0  0
   -0.6938   -1.5822    0.6839 H   0  0  0  0  0  0  0  0  0  0  0  0
   -2.8890    0.2142   -1.6645 H   0  0  0  0  0  0  0  0  0  0  0  0
   -2.7615   -2.1989   -0.9247 H   0  0  0  0  0  0  0  0  0  0  0  0
   -2.9481   -1.5584    0.7146 H   0  0  0  0  0  0  0  0  0  0  0  0
   -4.7311   -2.8052   -2.0079 H   0  0  0  0  0  0  0  0  0  0  0  0
   -7.1516   -2.6789   -2.3695 H   0  0  0  0  0  0  0  0  0  0  0  0
   -8.5366   -1.0235   -1.1196 H   0  0  0  0  0  0  0  0  0  0  0  0
   -4.2558    1.7240    2.5878 H   0  0  0  0  0  0  0  0  0  0  0  0
   -3.4526    0.2452    2.0249 H   0  0  0  0  0  0  0  0  0  0  0  0
   -3.4697    1.7220    0.9872 H   0  0  0  0  0  0  0  0  0  0  0  0
   -1.1270    1.7156   -2.0511 H   0  0  0  0  0  0  0  0  0  0  0  0
    1.2802    2.0874   -1.9760 H   0  0  0  0  0  0  0  0  0  0  0  0
  1  2  1  0
  2  3  1  0
  2  4  1  0
  4  5  1  0
  5  6  2  0
  5  7  1  0
  7  8  1  0
  8  9  1  0
  9 10  2  0
 10 11  1  0
 11 12  1  0
 12 13  1  0
 13 14  1  0
 14 15  1  0
 15 16  2  0
 16 17  1  0
 17 18  2  0
 18 19  1  0
 19 20  1  0
 20 21  1  0
 20 22  1  0
 22 23  2  0
 11 24  2  0
 24 25  1  0
 25  8  2  0
 19 14  2  0
 23 18  1  0
  1 26  1  0
  1 27  1  0
  1 28  1  0
  2 29  1  0
  3 30  1  0
  3 31  1  0
  3 32  1  0
  4 33  1  0
  4 34  1  0
  7 35  1  0
  9 36  1  0
 10 37  1  0
 12 38  1  0
 13 39  1  0
 13 40  1  0
 15 41  1  0
 16 42  1  0
 17 43  1  0
 21 44  1  0
 21 45  1  0
 21 46  1  0
 24 47  1  0
 25 48  1  0
M  END
$$$$
OCNT-2315612
     RDKit          3D

 45 49  0  0  0  0  0  0  0  0999 V2000
    6.2554    3.1888    0.4451 O   0  0  0  0  0  0  0  0  0  0  0  0
    5.7752    2.1091    0.1680 C   0  0  0  0  0  0  0  0  0  0  0  0
    6.2866    1.1420   -0.6415 N   0  0  0  0  0  0  0  0  0  0  0  0
    5.4619    0.0646   -0.7478 C   0  0  0  0  0  0  0  0  0  0  0  0
    5.6215   -0.9406   -1.4086 O   0  0  0  0  0  0  0  0  0  0  0  0
    4.2997    0.3494    0.0932 C   0  0  0  0  0  0  0  0  0  0  0  0
    3.1735   -0.4050    0.3500 C   0  0  0  0  0  0  0  0  0  0  0  0
    2.2226    0.1641    1.2085 C   0  0  0  0  0  0  0  0  0  0  0  0
    0.7493   -0.7733    1.5824 S   0  0  0  0  0  0  0  0  0  0  0  0
   -0.1044    0.0659    2.3981 O   0  0  0  0  0  0  0  0  0  0  0  0
    1.2133   -2.0619    2.0495 O   0  0  0  0  0  0  0  0  0  0  0  0
    0.0407   -0.9211    0.0377 N   0  0  0  0  0  0  0  0  0  0  0  0
   -0.4365    0.3545   -0.5975 C   0  0  0  0  0  0  0  0  0  0  0  0
   -1.9811    0.2717   -0.6874 C   0  0  0  0  0  0  0  0  0  0  0  0
   -2.6776    1.0995    0.4014 C   0  0  0  0  0  0  0  0  0  0  0  0
   -4.0782    1.3592   -0.1416 C   0  0  0  0  0  0  0  0  0  0  0  0
   -3.9427    1.3649   -1.6620 C   0  0  0  0  0  0  0  0  0  0  0  0
   -2.5263    0.8829   -1.9817 C   0  0  0  0  0  0  0  0  0  0  0  0
   -2.2103   -1.2105   -0.5258 C   0  0  0  0  0  0  0  0  0  0  0  0
   -3.3630   -1.9552   -0.7429 C   0  0  0  0  0  0  0  0  0  0  0  0
   -3.3418   -3.3270   -0.4752 C   0  0  0  0  0  0  0  0  0  0  0  0
   -2.1774   -3.9436    0.0009 C   0  0  0  0  0  0  0  0  0  0  0  0
   -1.0187   -3.1956    0.2115 C   0  0  0  0  0  0  0  0  0  0  0  0
   -1.0574   -1.8359   -0.0492 C   0  0  0  0  0  0  0  0  0  0  0  0
    2.4122    1.4403    1.7882 C   0  0  0  0  0  0  0  0  0  0  0  0
    3.5669    2.1783    1.5058 C   0  0  0  0  0  0  0  0  0  0  0  0
    4.4912    1.6037    0.6537 C   0  0  0  0  0  0  0  0  0  0  0  0
    7.1658    1.2242   -1.1267 H   0  0  0  0  0  0  0  0  0  0  0  0
    3.0391   -1.3890   -0.0896 H   0  0  0  0  0  0  0  0  0  0  0  0
    0.0141    0.3897   -1.5987 H   0  0  0  0  0  0  0  0  0  0  0  0
   -0.0967    1.2497   -0.0681 H   0  0  0  0  0  0  0  0  0  0  0  0
   -2.1704    2.0635    0.5346 H   0  0  0  0  0  0  0  0  0  0  0  0
   -2.7137    0.6048    1.3776 H   0  0  0  0  0  0  0  0  0  0  0  0
   -4.7636    0.5640    0.1721 H   0  0  0  0  0  0  0  0  0  0  0  0
   -4.4874    2.3025    0.2341 H   0  0  0  0  0  0  0  0  0  0  0  0
   -4.6948    0.7106   -2.1159 H   0  0  0  0  0  0  0  0  0  0  0  0
   -4.1051    2.3692   -2.0685 H   0  0  0  0  0  0  0  0  0  0  0  0
   -1.9243    1.7537   -2.2724 H   0  0  0  0  0  0  0  0  0  0  0  0
   -2.5195    0.1866   -2.8272 H   0  0  0  0  0  0  0  0  0  0  0  0
   -4.2763   -1.4973   -1.1072 H   0  0  0  0  0  0  0  0  0  0  0  0
   -4.2376   -3.9227   -0.6364 H   0  0  0  0  0  0  0  0  0  0  0  0
   -2.1738   -5.0124    0.2013 H   0  0  0  0  0  0  0  0  0  0  0  0
   -0.1117   -3.6807    0.5568 H   0  0  0  0  0  0  0  0  0  0  0  0
    1.6646    1.8552    2.4636 H   0  0  0  0  0  0  0  0  0  0  0  0
    3.7367    3.1591    1.9398 H   0  0  0  0  0  0  0  0  0  0  0  0
  1  2  2  0
  2  3  1  0
  3  4  1  0
  4  5  2  0
  4  6  1  0
  6  7  1  0
  7  8  2  0
  8  9  1  0
  9 10  2  0
  9 11  2  0
  9 12  1  0
 12 13  1  0
 13 14  1  0
 14 15  1  0
 15 16  1  0
 16 17  1  0
 17 18  1  0
 14 19  1  0
 19 20  2  0
 20 21  1  0
 21 22  2  0
 22 23  1  0
 23 24  2  0
  8 25  1  0
 25 26  2  0
 26 27  1  0
 27  2  1  0
 27  6  2  0
 24 12  1  0
 18 14  1  0
 24 19  1  0
  3 28  1  0
  7 29  1  0
 13 30  1  0
 13 31  1  0
 15 32  1  0
 15 33  1  0
 16 34  1  0
 16 35  1  0
 17 36  1  0
 17 37  1  0
 18 38  1  0
 18 39  1  0
 20 40  1  0
 21 41  1  0
 22 42  1  0
 23 43  1  0
 25 44  1  0
 26 45  1  0
M  END
$$$$
OCNT-2315622
     RDKit          3D

  0  0  0  0  0  0  0  0  0  0999 V3000
M  V30 BEGIN CTAB
M  V30 COUNTS 51 54 0 0 0
M  V30 BEGIN ATOM
M  V30 1 C -2.238269 2.952947 0.135285 0
M  V30 2 C -2.813305 1.581864 0.219406 0
M  V30 3 C -2.396664 0.469933 -0.503082 0
M  V30 4 C -1.300121 0.357397 -1.514225 0
M  V30 5 N -0.209653 -0.426974 -0.944997 0
M  V30 6 C 0.956368 -0.488082 -1.831326 0 CFG=2
M  V30 7 C 1.940077 -1.539461 -1.299782 0
M  V30 8 C 2.729055 -0.829634 -0.188860 0
M  V30 9 C 4.152040 -1.380751 -0.070896 0
M  V30 10 N 4.861816 -0.879126 1.089104 0
M  V30 11 C 4.696974 -1.298169 2.379617 0
M  V30 12 C 5.593589 -0.553467 3.109829 0
M  V30 13 N 6.300002 0.293516 2.295438 0
M  V30 14 C 5.843389 0.069584 1.083579 0
M  V30 15 C 2.669312 0.672229 -0.537933 0
M  V30 16 C 1.845359 0.772605 -1.822089 0 CFG=1
M  V30 17 O 2.745135 0.746417 -2.931543 0
M  V30 18 N -3.189691 -0.594408 -0.120866 0
M  V30 19 C -3.064063 -1.951709 -0.612250 0
M  V30 20 C -4.103317 -0.195678 0.835756 0
M  V30 21 C -5.092232 -0.916593 1.528543 0
M  V30 22 C -5.887169 -0.233342 2.453144 0
M  V30 23 C -5.702898 1.124300 2.685375 0
M  V30 24 C -4.712251 1.832150 1.997525 0
M  V30 25 C -3.894439 1.166592 1.058280 0
M  V30 26 H -1.147878 2.918703 0.229835 0
M  V30 27 H -2.488775 3.409346 -0.827713 0
M  V30 28 H -2.618062 3.603784 0.928121 0
M  V30 29 H -0.958317 1.360565 -1.790695 0
M  V30 30 H -1.680434 -0.110286 -2.429402 0
M  V30 31 H 0.037500 -0.022511 -0.041323 0
M  V30 32 H 0.651861 -0.771255 -2.845892 0
M  V30 33 H 1.441700 -2.442997 -0.930272 0
M  V30 34 H 2.610410 -1.855127 -2.110018 0
M  V30 35 H 2.204246 -0.980498 0.764311 0
M  V30 36 H 4.132865 -2.473399 0.023560 0
M  V30 37 H 4.746191 -1.140571 -0.960701 0
M  V30 38 H 3.983354 -2.058242 2.664325 0
M  V30 39 H 5.770073 -0.583848 4.177138 0
M  V30 40 H 6.182768 0.563368 0.182032 0
M  V30 41 H 2.159602 1.202469 0.275493 0
M  V30 42 H 3.660555 1.119645 -0.660627 0
M  V30 43 H 1.288286 1.712510 -1.870333 0
M  V30 44 H 2.215683 0.879831 -3.737530 0
M  V30 45 H -2.332391 -2.471737 0.010829 0
M  V30 46 H -4.032967 -2.453218 -0.559283 0
M  V30 47 H -2.744892 -1.941284 -1.656085 0
M  V30 48 H -5.245871 -1.977197 1.359988 0
M  V30 49 H -6.659249 -0.772808 2.996774 0
M  V30 50 H -6.329624 1.641047 3.407572 0
M  V30 51 H -4.575678 2.891568 2.191906 0
M  V30 END ATOM
M  V30 BEGIN BOND
M  V30 1 1 1 2
M  V30 2 2 2 3
M  V30 3 1 3 4
M  V30 4 1 4 5
M  V30 5 1 5 6
M  V30 6 1 6 7
M  V30 7 1 7 8
M  V30 8 1 8 9
M  V30 9 1 9 10
M  V30 10 1 10 11
M  V30 11 2 11 12
M  V30 12 1 12 13
M  V30 13 2 13 14
M  V30 14 1 8 15
M  V30 15 1 15 16
M  V30 16 1 16 17
M  V30 17 1 3 18
M  V30 18 1 18 19
M  V30 19 1 18 20
M  V30 20 2 20 21
M  V30 21 1 21 22
M  V30 22 2 22 23
M  V30 23 1 23 24
M  V30 24 2 24 25
M  V30 25 1 25 2
M  V30 26 1 16 6
M  V30 27 1 25 20
M  V30 28 1 14 10
M  V30 29 1 1 26
M  V30 30 1 1 27
M  V30 31 1 1 28
M  V30 32 1 4 29
M  V30 33 1 4 30
M  V30 34 1 5 31
M  V30 35 1 6 32 CFG=3
M  V30 36 1 7 33
M  V30 37 1 7 34
M  V30 38 1 8 35
M  V30 39 1 9 36
M  V30 40 1 9 37
M  V30 41 1 11 38
M  V30 42 1 12 39
M  V30 43 1 14 40
M  V30 44 1 15 41
M  V30 45 1 15 42
M  V30 46 1 16 43 CFG=1
M  V30 47 1 17 44
M  V30 48 1 19 45
M  V30 49 1 19 46
M  V30 50 1 19 47
M  V30 51 1 21 48
M  V30 52 1 22 49
M  V30 53 1 23 50
M  V30 54 1 24 51
M  V30 END BOND
M  V30 BEGIN COLLECTION
M  V30 MDLV30/STERAC1 ATOMS=(2 6 16)
M  V30 END COLLECTION
M  V30 END CTAB
M  END
>  <_CXSMILES_Data>  (998) 
|&1:5,15|

$$$$
OCNT-2315627
     RDKit          3D

 47 51  0  0  0  0  0  0  0  0999 V2000
    8.9617   -0.0057    0.7135 F   0  0  0  0  0  0  0  0  0  0  0  0
    7.6564    0.0099    0.4111 C   0  0  0  0  0  0  0  0  0  0  0  0
    6.7569   -0.6090    1.2792 C   0  0  0  0  0  0  0  0  0  0  0  0
    5.3827   -0.6156    1.0001 C   0  0  0  0  0  0  0  0  0  0  0  0
    4.9409    0.0168   -0.1764 C   0  0  0  0  0  0  0  0  0  0  0  0
    5.8753    0.6182   -1.0030 C   0  0  0  0  0  0  0  0  0  0  0  0
    7.2439    0.6440   -0.7586 C   0  0  0  0  0  0  0  0  0  0  0  0
    5.2422    1.1692   -2.0712 O   0  0  0  0  0  0  0  0  0  0  0  0
    3.8797    0.9450   -1.9701 N   0  0  0  0  0  0  0  0  0  0  0  0
    3.7045    0.2498   -0.8361 C   0  0  0  0  0  0  0  0  0  0  0  0
    2.3314   -0.1678   -0.4002 C   0  0  0  0  0  0  0  0  0  0  0  0
    1.5525    1.0037    0.2237 C   0  0  0  0  0  0  0  0  0  0  0  0
    0.0470    0.9321   -0.0406 C   0  0  0  0  0  0  0  0  0  0  0  0
   -0.3926   -0.4643    0.0120 N   0  0  0  0  0  0  0  0  0  0  0  0
   -1.7830   -0.6248    0.1713 C   0  0  0  0  0  0  0  0  0  0  0  0
   -2.3574   -1.8876    0.3580 C   0  0  0  0  0  0  0  0  0  0  0  0
   -3.6864   -2.1154    0.5168 N   0  0  0  0  0  0  0  0  0  0  0  0
   -4.4681   -1.0123    0.5099 C   0  0  0  0  0  0  0  0  0  0  0  0
   -5.9502   -1.2311    0.6362 C   0  0  0  0  0  0  0  0  0  0  0  0
   -6.7153    0.0342    1.0180 C   0  0  0  0  0  0  0  0  0  0  0  0
   -6.2672    1.2069    0.1528 C   0  0  0  0  0  0  0  0  0  0  0  0
   -4.7842    1.4955    0.3751 C   0  0  0  0  0  0  0  0  0  0  0  0
   -3.9256    0.2612    0.3325 C   0  0  0  0  0  0  0  0  0  0  0  0
   -2.5893    0.4601    0.1752 N   0  0  0  0  0  0  0  0  0  0  0  0
    0.1946   -1.3613   -0.9955 C   0  0  0  0  0  0  0  0  0  0  0  0
    1.5269   -0.8279   -1.5245 C   0  0  0  0  0  0  0  0  0  0  0  0
    7.1340   -1.0877    2.1792 H   0  0  0  0  0  0  0  0  0  0  0  0
    4.6853   -1.0967    1.6794 H   0  0  0  0  0  0  0  0  0  0  0  0
    7.9431    1.1244   -1.4292 H   0  0  0  0  0  0  0  0  0  0  0  0
    2.4565   -0.9295    0.3836 H   0  0  0  0  0  0  0  0  0  0  0  0
    1.7322    0.9962    1.3074 H   0  0  0  0  0  0  0  0  0  0  0  0
    1.9197    1.9755   -0.1301 H   0  0  0  0  0  0  0  0  0  0  0  0
   -0.1876    1.3694   -1.0201 H   0  0  0  0  0  0  0  0  0  0  0  0
   -0.4453    1.5477    0.7234 H   0  0  0  0  0  0  0  0  0  0  0  0
   -1.7440   -2.7803    0.4011 H   0  0  0  0  0  0  0  0  0  0  0  0
   -6.3181   -1.5999   -0.3293 H   0  0  0  0  0  0  0  0  0  0  0  0
   -6.1459   -2.0118    1.3803 H   0  0  0  0  0  0  0  0  0  0  0  0
   -7.7912   -0.1352    0.8985 H   0  0  0  0  0  0  0  0  0  0  0  0
   -6.5417    0.2711    2.0754 H   0  0  0  0  0  0  0  0  0  0  0  0
   -6.8562    2.0996    0.3906 H   0  0  0  0  0  0  0  0  0  0  0  0
   -6.4481    0.9734   -0.9041 H   0  0  0  0  0  0  0  0  0  0  0  0
   -4.6490    1.9637    1.3579 H   0  0  0  0  0  0  0  0  0  0  0  0
   -4.4372    2.2118   -0.3785 H   0  0  0  0  0  0  0  0  0  0  0  0
   -0.4802   -1.5100   -1.8488 H   0  0  0  0  0  0  0  0  0  0  0  0
    0.3711   -2.3411   -0.5349 H   0  0  0  0  0  0  0  0  0  0  0  0
    1.3337   -0.1025   -2.3264 H   0  0  0  0  0  0  0  0  0  0  0  0
    2.0913   -1.6486   -1.9845 H   0  0  0  0  0  0  0  0  0  0  0  0
  1  2  1  0
  2  3  2  0
  3  4  1  0
  4  5  2  0
  5  6  1  0
  6  7  2  0
  6  8  1  0
  8  9  1  0
  9 10  2  0
 10 11  1  0
 11 12  1  0
 12 13  1  0
 13 14  1  0
 14 15  1  0
 15 16  1  0
 16 17  2  0
 17 18  1  0
 18 19  1  0
 19 20  1  0
 20 21  1  0
 21 22  1  0
 22 23  1  0
 23 24  1  0
 14 25  1  0
 25 26  1  0
  7  2  1  0
 26 11  1  0
 10  5  1  0
 24 15  2  0
 23 18  2  0
  3 27  1  0
  4 28  1  0
  7 29  1  0
 11 30  1  0
 12 31  1  0
 12 32  1  0
 13 33  1  0
 13 34  1  0
 16 35  1  0
 19 36  1  0
 19 37  1  0
 20 38  1  0
 20 39  1  0
 21 40  1  0
 21 41  1  0
 22 42  1  0
 22 43  1  0
 25 44  1  0
 25 45  1  0
 26 46  1  0
 26 47  1  0
M  END
$$$$
OCNT-2315629
     RDKit          3D

 44 48  0  0  0  0  0  0  0  0999 V2000
    4.2320   -0.9479    1.8585 C   0  0  0  0  0  0  0  0  0  0  0  0
    3.7289   -0.1889    0.6563 C   0  0  0  0  0  0  0  0  0  0  0  0
    2.3469   -0.2939    0.3765 C   0  0  0  0  0  0  0  0  0  0  0  0
    1.7475    0.3601   -0.7091 C   0  0  0  0  0  0  0  0  0  0  0  0
    0.3154    0.2098   -0.9419 C   0  0  0  0  0  0  0  0  0  0  0  0
   -0.5810   -0.4706   -0.2608 N   0  0  0  0  0  0  0  0  0  0  0  0
   -1.7338   -0.2222   -0.9659 C   0  0  0  0  0  0  0  0  0  0  0  0
   -3.1382   -0.8017   -0.5266 C   0  0  0  0  0  0  0  0  0  0  0  0
   -3.8647    0.2501    0.4486 C   0  0  0  0  0  0  0  0  0  0  0  0
   -3.6589    0.2486    1.8406 C   0  0  0  0  0  0  0  0  0  0  0  0
   -4.3004    1.1793    2.6470 C   0  0  0  0  0  0  0  0  0  0  0  0
   -5.1350    2.1261    2.1786 N   0  0  0  0  0  0  0  0  0  0  0  0
   -5.3242    2.1467    0.8458 C   0  0  0  0  0  0  0  0  0  0  0  0
   -4.7240    1.2546   -0.0330 C   0  0  0  0  0  0  0  0  0  0  0  0
   -3.9599   -1.3838   -1.7352 C   0  0  0  0  0  0  0  0  0  0  0  0
   -4.3375   -2.5699   -0.8299 C   0  0  0  0  0  0  0  0  0  0  0  0
   -3.0394   -2.2980   -0.0491 C   0  0  0  0  0  0  0  0  0  0  0  0
   -1.5792    0.5694   -2.0365 N   0  0  0  0  0  0  0  0  0  0  0  0
   -0.2137    0.8571   -2.0240 O   0  0  0  0  0  0  0  0  0  0  0  0
    2.5590    1.1404   -1.5341 C   0  0  0  0  0  0  0  0  0  0  0  0
    3.9312    1.2632   -1.2815 C   0  0  0  0  0  0  0  0  0  0  0  0
    4.5360    0.6060   -0.1913 C   0  0  0  0  0  0  0  0  0  0  0  0
    5.9398    0.7725    0.0087 N   0  0  0  0  0  0  0  0  0  0  0  0
    6.8391    1.5126   -0.7270 C   0  0  0  0  0  0  0  0  0  0  0  0
    8.0397    1.3970   -0.2084 N   0  0  0  0  0  0  0  0  0  0  0  0
    7.8954    0.5724    0.8702 N   0  0  0  0  0  0  0  0  0  0  0  0
    6.6353    0.1903    1.0106 N   0  0  0  0  0  0  0  0  0  0  0  0
    4.6541   -0.2618    2.5991 H   0  0  0  0  0  0  0  0  0  0  0  0
    3.4220   -1.4885    2.3616 H   0  0  0  0  0  0  0  0  0  0  0  0
    4.9685   -1.7000    1.5594 H   0  0  0  0  0  0  0  0  0  0  0  0
    1.7168   -0.9049    1.0260 H   0  0  0  0  0  0  0  0  0  0  0  0
   -2.9879   -0.4726    2.2980 H   0  0  0  0  0  0  0  0  0  0  0  0
   -4.1483    1.1854    3.7226 H   0  0  0  0  0  0  0  0  0  0  0  0
   -5.9892    2.9253    0.4832 H   0  0  0  0  0  0  0  0  0  0  0  0
   -4.9186    1.3517   -1.0971 H   0  0  0  0  0  0  0  0  0  0  0  0
   -3.3573   -1.6813   -2.6030 H   0  0  0  0  0  0  0  0  0  0  0  0
   -4.8071   -0.7958   -2.0975 H   0  0  0  0  0  0  0  0  0  0  0  0
   -4.4011   -3.5431   -1.3228 H   0  0  0  0  0  0  0  0  0  0  0  0
   -5.2497   -2.4083   -0.2443 H   0  0  0  0  0  0  0  0  0  0  0  0
   -2.1768   -2.8514   -0.4421 H   0  0  0  0  0  0  0  0  0  0  0  0
   -3.1023   -2.4884    1.0254 H   0  0  0  0  0  0  0  0  0  0  0  0
    2.1377    1.6682   -2.3887 H   0  0  0  0  0  0  0  0  0  0  0  0
    4.4933    1.8886   -1.9702 H   0  0  0  0  0  0  0  0  0  0  0  0
    6.5897    2.0975   -1.5966 H   0  0  0  0  0  0  0  0  0  0  0  0
  1  2  1  0
  2  3  1  0
  3  4  2  0
  4  5  1  0
  5  6  2  0
  6  7  1  0
  7  8  1  0
  8  9  1  0
  9 10  2  0
 10 11  1  0
 11 12  2  0
 12 13  1  0
 13 14  2  0
  8 15  1  0
 15 16  1  0
 16 17  1  0
  7 18  2  0
 18 19  1  0
  4 20  1  0
 20 21  2  0
 21 22  1  0
 22 23  1  0
 23 24  1  0
 24 25  2  0
 25 26  1  0
 26 27  2  0
 22  2  2  0
 27 23  1  0
 19  5  1  0
 17  8  1  0
 14  9  1  0
  1 28  1  0
  1 29  1  0
  1 30  1  0
  3 31  1  0
 10 32  1  0
 11 33  1  0
 13 34  1  0
 14 35  1  0
 15 36  1  0
 15 37  1  0
 16 38  1  0
 16 39  1  0
 17 40  1  0
 17 41  1  0
 20 42  1  0
 21 43  1  0
 24 44  1  0
M  END
$$$$
OCNT-2315630
     RDKit          3D

 46 49  0  0  0  0  0  0  0  0999 V2000
    5.2551    1.4603    0.2116 C   0  0  0  0  0  0  0  0  0  0  0  0
    5.1134    0.0349    0.6016 C   0  0  0  0  0  0  0  0  0  0  0  0
    6.1132   -0.7893    0.8464 N   0  0  0  0  0  0  0  0  0  0  0  0
    5.5428   -1.9803    1.2062 C   0  0  0  0  0  0  0  0  0  0  0  0
    4.1737   -1.8908    1.1709 C   0  0  0  0  0  0  0  0  0  0  0  0
    3.9086   -0.6113    0.7609 N   0  0  0  0  0  0  0  0  0  0  0  0
    2.5792   -0.0622    0.5725 C   0  0  0  0  0  0  0  0  0  0  0  0
    1.8401   -0.6535   -0.6426 C   0  0  0  0  0  0  0  0  0  0  0  0
    2.4867   -0.3089   -1.9923 C   0  0  0  0  0  0  0  0  0  0  0  0
    1.7852    0.9796   -2.4062 C   0  0  0  0  0  0  0  0  0  0  0  0
    0.3544    0.7421   -1.9509 C   0  0  0  0  0  0  0  0  0  0  0  0
    0.4878   -0.0980   -0.7715 N   0  0  0  0  0  0  0  0  0  0  0  0
   -0.5272   -0.4678    0.0840 C   0  0  0  0  0  0  0  0  0  0  0  0
   -0.3573   -1.2074    1.0461 O   0  0  0  0  0  0  0  0  0  0  0  0
   -1.8719    0.0976   -0.1941 C   0  0  1  0  0  0  0  0  0  0  0  0
   -2.7191   -0.4473   -1.3147 C   0  0  0  0  0  0  0  0  0  0  0  0
   -3.1090   -0.7358    0.1124 C   0  0  2  0  0  0  0  0  0  0  0  0
   -4.3130   -0.0678    0.7325 C   0  0  0  0  0  0  0  0  0  0  0  0
   -4.2245    0.5567    1.9880 C   0  0  0  0  0  0  0  0  0  0  0  0
   -5.3334    1.1687    2.5780 C   0  0  0  0  0  0  0  0  0  0  0  0
   -6.5616    1.1613    1.9237 C   0  0  0  0  0  0  0  0  0  0  0  0
   -6.6800    0.5383    0.6847 C   0  0  0  0  0  0  0  0  0  0  0  0
   -5.5670   -0.0723    0.1002 C   0  0  0  0  0  0  0  0  0  0  0  0
    4.8105    2.1138    0.9683 H   0  0  0  0  0  0  0  0  0  0  0  0
    4.7729    1.6537   -0.7509 H   0  0  0  0  0  0  0  0  0  0  0  0
    6.3125    1.7268    0.1166 H   0  0  0  0  0  0  0  0  0  0  0  0
    6.1477   -2.8358    1.4763 H   0  0  0  0  0  0  0  0  0  0  0  0
    3.3943   -2.6063    1.3949 H   0  0  0  0  0  0  0  0  0  0  0  0
    2.0312   -0.2643    1.5004 H   0  0  0  0  0  0  0  0  0  0  0  0
    2.6539    1.0274    0.4927 H   0  0  0  0  0  0  0  0  0  0  0  0
    1.7622   -1.7421   -0.5308 H   0  0  0  0  0  0  0  0  0  0  0  0
    3.5739   -0.2088   -1.9630 H   0  0  0  0  0  0  0  0  0  0  0  0
    2.2481   -1.0947   -2.7207 H   0  0  0  0  0  0  0  0  0  0  0  0
    2.2184    1.8312   -1.8687 H   0  0  0  0  0  0  0  0  0  0  0  0
    1.8566    1.1789   -3.4789 H   0  0  0  0  0  0  0  0  0  0  0  0
   -0.1749    1.6695   -1.7155 H   0  0  0  0  0  0  0  0  0  0  0  0
   -0.2121    0.1842   -2.7041 H   0  0  0  0  0  0  0  0  0  0  0  0
   -1.9444    1.1615    0.0095 H   0  0  0  0  0  0  0  0  0  0  0  0
   -2.3352   -1.2754   -1.9004 H   0  0  0  0  0  0  0  0  0  0  0  0
   -3.3044    0.2622   -1.8880 H   0  0  0  0  0  0  0  0  0  0  0  0
   -2.9313   -1.7550    0.4545 H   0  0  0  0  0  0  0  0  0  0  0  0
   -3.2738    0.5596    2.5185 H   0  0  0  0  0  0  0  0  0  0  0  0
   -5.2365    1.6443    3.5504 H   0  0  0  0  0  0  0  0  0  0  0  0
   -7.4263    1.6335    2.3818 H   0  0  0  0  0  0  0  0  0  0  0  0
   -7.6388    0.5214    0.1734 H   0  0  0  0  0  0  0  0  0  0  0  0
   -5.6809   -0.5636   -0.8637 H   0  0  0  0  0  0  0  0  0  0  0  0
  1  2  1  0
  2  3  2  0
  3  4  1  0
  4  5  2  0
  5  6  1  0
  6  7  1  0
  7  8  1  0
  8  9  1  0
  9 10  1  0
 10 11  1  0
 11 12  1  0
 12 13  1  0
 13 14  2  0
 13 15  1  0
 15 16  1  0
 16 17  1  0
 17 18  1  0
 18 19  2  0
 19 20  1  0
 20 21  2  0
 21 22  1  0
 22 23  2  0
  6  2  1  0
 12  8  1  0
 17 15  1  0
 23 18  1  0
  1 24  1  0
  1 25  1  0
  1 26  1  0
  4 27  1  0
  5 28  1  0
  7 29  1  0
  7 30  1  0
  8 31  1  0
  9 32  1  0
  9 33  1  0
 10 34  1  0
 10 35  1  0
 11 36  1  0
 11 37  1  0
 15 38  1  1
 16 39  1  0
 16 40  1  0
 17 41  1  6
 19 42  1  0
 20 43  1  0
 21 44  1  0
 22 45  1  0
 23 46  1  0
M  END
$$$$
OCNT-2315646
     RDKit          3D

 42 45  0  0  0  0  0  0  0  0999 V2000
    5.6035    0.8999    2.4248 C   0  0  0  0  0  0  0  0  0  0  0  0
    4.2092    0.8666    2.1464 O   0  0  0  0  0  0  0  0  0  0  0  0
    3.8241    0.2399    0.9950 C   0  0  0  0  0  0  0  0  0  0  0  0
    4.6594   -0.3960    0.0885 C   0  0  0  0  0  0  0  0  0  0  0  0
    4.1168   -0.9818   -1.0602 C   0  0  0  0  0  0  0  0  0  0  0  0
    2.7552   -0.9626   -1.3283 C   0  0  0  0  0  0  0  0  0  0  0  0
    2.3344   -1.5231   -2.4703 N   0  0  0  0  0  0  0  0  0  0  0  0
    1.0189   -1.4735   -2.7431 C   0  0  0  0  0  0  0  0  0  0  0  0
    0.0759   -0.9072   -1.9059 C   0  0  0  0  0  0  0  0  0  0  0  0
    0.4837   -0.3527   -0.6908 C   0  0  0  0  0  0  0  0  0  0  0  0
   -0.4441    0.1781    0.2120 N   0  0  0  0  0  0  0  0  0  0  0  0
   -0.6107   -0.5277    1.4928 C   0  0  0  0  0  0  0  0  0  0  0  0
   -1.8613   -1.4061    1.4641 C   0  0  0  0  0  0  0  0  0  0  0  0
   -3.1013   -0.5967    1.0882 C   0  0  0  0  0  0  0  0  0  0  0  0
   -2.8951    0.1074   -0.2602 C   0  0  0  0  0  0  0  0  0  0  0  0
   -4.0470    0.9049   -0.6411 N   0  0  0  0  0  0  0  0  0  0  0  0
   -4.8588    0.7253   -1.7182 C   0  0  0  0  0  0  0  0  0  0  0  0
   -5.7893    1.6512   -1.7254 N   0  0  0  0  0  0  0  0  0  0  0  0
   -5.5016    2.3845   -0.6100 C   0  0  0  0  0  0  0  0  0  0  0  0
   -4.4417    1.9660    0.0869 N   0  0  0  0  0  0  0  0  0  0  0  0
   -1.6099    0.9494   -0.2547 C   0  0  0  0  0  0  0  0  0  0  0  0
    1.8815   -0.3500   -0.4023 C   0  0  0  0  0  0  0  0  0  0  0  0
    2.4511    0.2638    0.7418 C   0  0  0  0  0  0  0  0  0  0  0  0
    6.1503    1.4361    1.6421 H   0  0  0  0  0  0  0  0  0  0  0  0
    6.0016   -0.1106    2.5646 H   0  0  0  0  0  0  0  0  0  0  0  0
    5.7441    1.4457    3.3628 H   0  0  0  0  0  0  0  0  0  0  0  0
    5.7332   -0.4493    0.2299 H   0  0  0  0  0  0  0  0  0  0  0  0
    4.7816   -1.4630   -1.7745 H   0  0  0  0  0  0  0  0  0  0  0  0
    0.7273   -1.9249   -3.6872 H   0  0  0  0  0  0  0  0  0  0  0  0
   -0.9607   -0.9348   -2.2088 H   0  0  0  0  0  0  0  0  0  0  0  0
   -0.7049    0.2188    2.2911 H   0  0  0  0  0  0  0  0  0  0  0  0
    0.2538   -1.1523    1.7457 H   0  0  0  0  0  0  0  0  0  0  0  0
   -2.0081   -1.8688    2.4464 H   0  0  0  0  0  0  0  0  0  0  0  0
   -1.7253   -2.2201    0.7413 H   0  0  0  0  0  0  0  0  0  0  0  0
   -3.3090    0.1368    1.8779 H   0  0  0  0  0  0  0  0  0  0  0  0
   -3.9736   -1.2597    1.0388 H   0  0  0  0  0  0  0  0  0  0  0  0
   -2.8063   -0.6730   -1.0257 H   0  0  0  0  0  0  0  0  0  0  0  0
   -4.7353   -0.0673   -2.4428 H   0  0  0  0  0  0  0  0  0  0  0  0
   -6.0792    3.2456   -0.2988 H   0  0  0  0  0  0  0  0  0  0  0  0
   -1.4261    1.3870   -1.2447 H   0  0  0  0  0  0  0  0  0  0  0  0
   -1.7262    1.8041    0.4249 H   0  0  0  0  0  0  0  0  0  0  0  0
    1.8097    0.7900    1.4453 H   0  0  0  0  0  0  0  0  0  0  0  0
  1  2  1  0
  2  3  1  0
  3  4  2  0
  4  5  1  0
  5  6  2  0
  6  7  1  0
  7  8  2  0
  8  9  1  0
  9 10  2  0
 10 11  1  0
 11 12  1  0
 12 13  1  0
 13 14  1  0
 14 15  1  0
 15 16  1  0
 16 17  1  0
 17 18  2  0
 18 19  1  0
 19 20  2  0
 15 21  1  0
 10 22  1  0
 22 23  2  0
 23  3  1  0
 22  6  1  0
 21 11  1  0
 20 16  1  0
  1 24  1  0
  1 25  1  0
  1 26  1  0
  4 27  1  0
  5 28  1  0
  8 29  1  0
  9 30  1  0
 12 31  1  0
 12 32  1  0
 13 33  1  0
 13 34  1  0
 14 35  1  0
 14 36  1  0
 15 37  1  0
 17 38  1  0
 19 39  1  0
 21 40  1  0
 21 41  1  0
 23 42  1  0
M  END
$$$$
OCNT-2315652
     RDKit          3D

 36 39  0  0  0  0  0  0  0  0999 V2000
   -2.5455    2.8366   -1.3044 C   0  0  0  0  0  0  0  0  0  0  0  0
   -3.1028    1.6081   -0.6645 C   0  0  0  0  0  0  0  0  0  0  0  0
   -2.4545    0.5284   -0.1680 C   0  0  0  0  0  0  0  0  0  0  0  0
   -0.9699    0.3197   -0.0880 C   0  0  0  0  0  0  0  0  0  0  0  0
   -0.2029    1.2546   -0.2859 O   0  0  0  0  0  0  0  0  0  0  0  0
   -0.6084   -0.9831    0.1951 N   0  0  0  0  0  0  0  0  0  0  0  0
    0.6893   -1.5087    0.3551 C   0  0  0  0  0  0  0  0  0  0  0  0
    0.7981   -2.8946    0.5142 C   0  0  0  0  0  0  0  0  0  0  0  0
    2.0480   -3.4908    0.6682 C   0  0  0  0  0  0  0  0  0  0  0  0
    3.2034   -2.7050    0.6761 C   0  0  0  0  0  0  0  0  0  0  0  0
    3.1235   -1.3116    0.5385 C   0  0  0  0  0  0  0  0  0  0  0  0
    4.3227   -0.4624    0.5660 C   0  0  0  0  0  0  0  0  0  0  0  0
    4.5237    0.8574    0.1922 C   0  0  0  0  0  0  0  0  0  0  0  0
    5.8740    1.1316    0.4709 C   0  0  0  0  0  0  0  0  0  0  0  0
    6.5056    0.0762    0.9860 N   0  0  0  0  0  0  0  0  0  0  0  0
    5.5478   -0.8667    1.0425 N   0  0  0  0  0  0  0  0  0  0  0  0
    1.8529   -0.7300    0.3744 C   0  0  0  0  0  0  0  0  0  0  0  0
   -3.5610   -0.7230    0.4632 S   0  0  0  0  0  0  0  0  0  0  0  0
   -4.8964    0.2738    0.0134 C   0  0  0  0  0  0  0  0  0  0  0  0
   -6.2584    0.2938    0.0098 C   0  0  0  0  0  0  0  0  0  0  0  0
   -6.6939    1.4860   -0.5368 N   0  0  0  0  0  0  0  0  0  0  0  0
   -5.5994    2.1610   -0.8446 C   0  0  0  0  0  0  0  0  0  0  0  0
   -4.4758    1.4449   -0.5431 N   0  0  0  0  0  0  0  0  0  0  0  0
   -2.6015    3.6841   -0.6141 H   0  0  0  0  0  0  0  0  0  0  0  0
   -1.5060    2.7219   -1.6206 H   0  0  0  0  0  0  0  0  0  0  0  0
   -3.1121    3.0952   -2.2060 H   0  0  0  0  0  0  0  0  0  0  0  0
   -1.3720   -1.6483    0.2647 H   0  0  0  0  0  0  0  0  0  0  0  0
   -0.0846   -3.5308    0.5070 H   0  0  0  0  0  0  0  0  0  0  0  0
    2.1234   -4.5706    0.7774 H   0  0  0  0  0  0  0  0  0  0  0  0
    4.1593   -3.2088    0.7818 H   0  0  0  0  0  0  0  0  0  0  0  0
    3.7943    1.5359   -0.2294 H   0  0  0  0  0  0  0  0  0  0  0  0
    6.4210    2.0541    0.3209 H   0  0  0  0  0  0  0  0  0  0  0  0
    5.7953   -1.7706    1.4345 H   0  0  0  0  0  0  0  0  0  0  0  0
    1.7863    0.3518    0.2803 H   0  0  0  0  0  0  0  0  0  0  0  0
   -6.9532   -0.4594    0.3544 H   0  0  0  0  0  0  0  0  0  0  0  0
   -5.5700    3.1493   -1.2817 H   0  0  0  0  0  0  0  0  0  0  0  0
  1  2  1  0
  2  3  2  0
  3  4  1  0
  4  5  2  0
  4  6  1  0
  6  7  1  0
  7  8  2  0
  8  9  1  0
  9 10  2  0
 10 11  1  0
 11 12  1  0
 12 13  2  0
 13 14  1  0
 14 15  2  0
 15 16  1  0
 11 17  2  0
  3 18  1  0
 18 19  1  0
 19 20  2  0
 20 21  1  0
 21 22  2  0
 22 23  1  0
 23  2  1  0
 17  7  1  0
 23 19  1  0
 16 12  1  0
  1 24  1  0
  1 25  1  0
  1 26  1  0
  6 27  1  0
  8 28  1  0
  9 29  1  0
 10 30  1  0
 13 31  1  0
 14 32  1  0
 16 33  1  0
 17 34  1  0
 20 35  1  0
 22 36  1  0
M  END
$$$$
OCNT-2315670
     RDKit          3D

 38 40  0  0  0  0  0  0  0  0999 V2000
   -1.9317   -1.8842   -1.4689 C   0  0  0  0  0  0  0  0  0  0  0  0
   -1.9996   -0.8365   -0.4803 N   0  0  0  0  0  0  0  0  0  0  0  0
   -0.9367   -0.2339    0.1577 C   0  0  0  0  0  0  0  0  0  0  0  0
    0.3587   -0.5061   -0.1765 N   0  0  0  0  0  0  0  0  0  0  0  0
    1.3198   -0.4094    0.9413 C   0  0  0  0  0  0  0  0  0  0  0  0
    2.0929    0.9027    0.8795 C   0  0  0  0  0  0  0  0  0  0  0  0
    2.9129    0.9887   -0.4131 C   0  0  0  0  0  0  0  0  0  0  0  0
    4.6255    0.4929   -0.1507 S   0  0  0  0  0  0  0  0  0  0  0  0
    5.1831    1.6631    0.9097 N   0  0  0  0  0  0  0  0  0  0  0  0
    5.3765    0.7015   -1.3665 O   0  0  0  0  0  0  0  0  0  0  0  0
    4.6772   -0.7503    0.5809 O   0  0  0  0  0  0  0  0  0  0  0  0
    2.3158    0.1395   -1.5442 C   0  0  0  0  0  0  0  0  0  0  0  0
    0.7985    0.0977   -1.4496 C   0  0  0  0  0  0  0  0  0  0  0  0
   -1.3581    0.5853    1.0965 N   0  0  0  0  0  0  0  0  0  0  0  0
   -2.7266    0.5607    1.0297 C   0  0  0  0  0  0  0  0  0  0  0  0
   -3.6735    1.2674    1.7896 C   0  0  0  0  0  0  0  0  0  0  0  0
   -5.0371    1.0751    1.5269 C   0  0  0  0  0  0  0  0  0  0  0  0
   -5.4493    0.1947    0.5259 C   0  0  0  0  0  0  0  0  0  0  0  0
   -4.5120   -0.5109   -0.2284 C   0  0  0  0  0  0  0  0  0  0  0  0
   -4.9196   -1.3510   -1.1879 F   0  0  0  0  0  0  0  0  0  0  0  0
   -3.1586   -0.3139    0.0402 C   0  0  0  0  0  0  0  0  0  0  0  0
   -2.7461   -2.5933   -1.3004 H   0  0  0  0  0  0  0  0  0  0  0  0
   -0.9840   -2.4207   -1.3821 H   0  0  0  0  0  0  0  0  0  0  0  0
   -2.0231   -1.4274   -2.4572 H   0  0  0  0  0  0  0  0  0  0  0  0
    0.8216   -0.5053    1.9148 H   0  0  0  0  0  0  0  0  0  0  0  0
    2.0070   -1.2616    0.8786 H   0  0  0  0  0  0  0  0  0  0  0  0
    2.7187    1.0068    1.7717 H   0  0  0  0  0  0  0  0  0  0  0  0
    1.3807    1.7378    0.9013 H   0  0  0  0  0  0  0  0  0  0  0  0
    2.9636    2.0353   -0.7390 H   0  0  0  0  0  0  0  0  0  0  0  0
    5.9277    2.2083    0.4706 H   0  0  0  0  0  0  0  0  0  0  0  0
    5.4649    1.2339    1.7933 H   0  0  0  0  0  0  0  0  0  0  0  0
    2.6215    0.5514   -2.5134 H   0  0  0  0  0  0  0  0  0  0  0  0
    2.7054   -0.8864   -1.5108 H   0  0  0  0  0  0  0  0  0  0  0  0
    0.4031    1.1177   -1.5512 H   0  0  0  0  0  0  0  0  0  0  0  0
    0.4079   -0.4893   -2.2884 H   0  0  0  0  0  0  0  0  0  0  0  0
   -3.3430    1.9503    2.5651 H   0  0  0  0  0  0  0  0  0  0  0  0
   -5.7772    1.6183    2.1098 H   0  0  0  0  0  0  0  0  0  0  0  0
   -6.5070    0.0496    0.3254 H   0  0  0  0  0  0  0  0  0  0  0  0
  1  2  1  0
  2  3  1  0
  3  4  1  0
  4  5  1  0
  5  6  1  0
  6  7  1  0
  7  8  1  0
  8  9  1  0
  8 10  2  0
  8 11  2  0
  7 12  1  0
 12 13  1  0
  3 14  2  0
 14 15  1  0
 15 16  2  0
 16 17  1  0
 17 18  2  0
 18 19  1  0
 19 20  1  0
 19 21  2  0
 21  2  1  0
 13  4  1  0
 21 15  1  0
  1 22  1  0
  1 23  1  0
  1 24  1  0
  5 25  1  0
  5 26  1  0
  6 27  1  0
  6 28  1  0
  7 29  1  0
  9 30  1  0
  9 31  1  0
 12 32  1  0
 12 33  1  0
 13 34  1  0
 13 35  1  0
 16 36  1  0
 17 37  1  0
 18 38  1  0
M  END
$$$$
OCNT-2315672
     RDKit          3D

 44 47  0  0  0  0  0  0  0  0999 V2000
   -5.6406    0.8443    0.4804 C   0  0  0  0  0  0  0  0  0  0  0  0
   -4.1159    0.9818    0.6073 C   0  0  0  0  0  0  0  0  0  0  0  0
   -3.7863    1.7760    1.8766 C   0  0  0  0  0  0  0  0  0  0  0  0
   -3.4336   -0.4035    0.6170 C   0  0  0  0  0  0  0  0  0  0  0  0
   -2.6321   -0.4934   -0.6950 C   0  0  0  0  0  0  0  0  0  0  0  0
   -2.8562   -1.8437   -1.3908 C   0  0  0  0  0  0  0  0  0  0  0  0
   -1.1636   -0.2903   -0.4453 C   0  0  0  0  0  0  0  0  0  0  0  0
   -0.1509   -1.0930   -0.6878 N   0  0  0  0  0  0  0  0  0  0  0  0
    0.9354   -0.3613   -0.2374 C   0  0  0  0  0  0  0  0  0  0  0  0
    2.3080   -0.8709   -0.3088 C   0  0  0  0  0  0  0  0  0  0  0  0
    2.5649   -2.1283   -0.8451 C   0  0  0  0  0  0  0  0  0  0  0  0
    3.8802   -2.5797   -0.8969 C   0  0  0  0  0  0  0  0  0  0  0  0
    4.9059   -1.7698   -0.4143 C   0  0  0  0  0  0  0  0  0  0  0  0
    4.5783   -0.5225    0.1094 C   0  0  0  0  0  0  0  0  0  0  0  0
    5.5900    0.3412    0.6148 N   0  0  0  0  0  0  0  0  0  0  0  0
    5.3810    1.5934    1.1542 C   0  0  0  0  0  0  0  0  0  0  0  0
    6.6205    2.0654    1.5100 C   0  0  0  0  0  0  0  0  0  0  0  0
    7.5913    1.1499    1.2104 N   0  0  0  0  0  0  0  0  0  0  0  0
    6.9487    0.1322    0.6779 C   0  0  0  0  0  0  0  0  0  0  0  0
    3.2986   -0.0712    0.1653 N   0  0  0  0  0  0  0  0  0  0  0  0
    0.5999    0.8410    0.2618 N   0  0  0  0  0  0  0  0  0  0  0  0
   -0.7814    0.8882    0.1269 O   0  0  0  0  0  0  0  0  0  0  0  0
   -3.2066    0.6485   -1.5390 C   0  0  0  0  0  0  0  0  0  0  0  0
   -3.6038    1.6910   -0.5816 N   0  0  0  0  0  0  0  0  0  0  0  0
   -5.9260    0.2740   -0.4111 H   0  0  0  0  0  0  0  0  0  0  0  0
   -6.0593    0.3248    1.3501 H   0  0  0  0  0  0  0  0  0  0  0  0
   -6.1248    1.8257    0.4157 H   0  0  0  0  0  0  0  0  0  0  0  0
   -2.7053    1.9077    2.0006 H   0  0  0  0  0  0  0  0  0  0  0  0
   -4.2413    2.7729    1.8529 H   0  0  0  0  0  0  0  0  0  0  0  0
   -4.1597    1.2600    2.7685 H   0  0  0  0  0  0  0  0  0  0  0  0
   -2.7853   -0.5351    1.4926 H   0  0  0  0  0  0  0  0  0  0  0  0
   -4.1885   -1.1984    0.6676 H   0  0  0  0  0  0  0  0  0  0  0  0
   -3.9197   -2.0193   -1.5894 H   0  0  0  0  0  0  0  0  0  0  0  0
   -2.3292   -1.8886   -2.3512 H   0  0  0  0  0  0  0  0  0  0  0  0
   -2.4944   -2.6743   -0.7732 H   0  0  0  0  0  0  0  0  0  0  0  0
    1.7579   -2.7519   -1.2187 H   0  0  0  0  0  0  0  0  0  0  0  0
    4.1041   -3.5593   -1.3122 H   0  0  0  0  0  0  0  0  0  0  0  0
    5.9233   -2.1397   -0.4639 H   0  0  0  0  0  0  0  0  0  0  0  0
    4.3909    2.0217    1.2322 H   0  0  0  0  0  0  0  0  0  0  0  0
    6.8622    3.0170    1.9660 H   0  0  0  0  0  0  0  0  0  0  0  0
    7.4300   -0.7694    0.3277 H   0  0  0  0  0  0  0  0  0  0  0  0
   -4.0981    0.3303   -2.0931 H   0  0  0  0  0  0  0  0  0  0  0  0
   -2.4954    1.0468   -2.2715 H   0  0  0  0  0  0  0  0  0  0  0  0
   -2.7732    2.2298   -0.3226 H   0  0  0  0  0  0  0  0  0  0  0  0
  1  2  1  0
  2  3  1  0
  2  4  1  0
  4  5  1  0
  5  6  1  0
  5  7  1  0
  7  8  2  0
  8  9  1  0
  9 10  1  0
 10 11  1  0
 11 12  2  0
 12 13  1  0
 13 14  2  0
 14 15  1  0
 15 16  1  0
 16 17  2  0
 17 18  1  0
 18 19  2  0
 14 20  1  0
  9 21  2  0
 21 22  1  0
  5 23  1  0
 23 24  1  0
 24  2  1  0
 22  7  1  0
 20 10  2  0
 19 15  1  0
  1 25  1  0
  1 26  1  0
  1 27  1  0
  3 28  1  0
  3 29  1  0
  3 30  1  0
  4 31  1  0
  4 32  1  0
  6 33  1  0
  6 34  1  0
  6 35  1  0
 11 36  1  0
 12 37  1  0
 13 38  1  0
 16 39  1  0
 17 40  1  0
 19 41  1  0
 23 42  1  0
 23 43  1  0
 24 44  1  0
M  END
$$$$
OCNT-2315694
     RDKit          3D

 44 47  0  0  0  0  0  0  0  0999 V2000
   -2.5939   -0.4802    2.7062 C   0  0  0  0  0  0  0  0  0  0  0  0
   -2.3224    0.5448    1.6117 C   0  0  0  0  0  0  0  0  0  0  0  0
   -3.6044    1.3253    1.2423 C   0  0  0  0  0  0  0  0  0  0  0  0
   -3.4088    1.4962   -0.2240 C   0  0  0  0  0  0  0  0  0  0  0  0
   -4.1083    2.3253   -1.0876 C   0  0  0  0  0  0  0  0  0  0  0  0
   -3.7707    2.3016   -2.4394 C   0  0  0  0  0  0  0  0  0  0  0  0
   -2.7591    1.4487   -2.9004 C   0  0  0  0  0  0  0  0  0  0  0  0
   -2.0710    0.6116   -2.0143 C   0  0  0  0  0  0  0  0  0  0  0  0
   -2.3931    0.6430   -0.6660 C   0  0  0  0  0  0  0  0  0  0  0  0
   -1.8405   -0.1273    0.3808 N   0  0  0  0  0  0  0  0  0  0  0  0
   -0.4178   -0.4641    0.2838 C   0  0  0  0  0  0  0  0  0  0  0  0
   -0.0723   -1.7104   -0.4772 C   0  0  0  0  0  0  0  0  0  0  0  0
    1.1468   -2.0385   -1.0628 C   0  0  0  0  0  0  0  0  0  0  0  0
    2.4368   -1.3697   -1.0951 C   0  0  0  0  0  0  0  0  0  0  0  0
    3.1181   -1.3033   -2.1125 O   0  0  0  0  0  0  0  0  0  0  0  0
    2.8096   -0.8560    0.1400 N   0  0  0  0  0  0  0  0  0  0  0  0
    3.9565   -0.0915    0.4430 C   0  0  0  0  0  0  0  0  0  0  0  0
    4.8505    0.3844   -0.5108 C   0  0  0  0  0  0  0  0  0  0  0  0
    5.9345    1.1357   -0.0832 C   0  0  0  0  0  0  0  0  0  0  0  0
    6.1782    1.4414    1.2085 N   0  0  0  0  0  0  0  0  0  0  0  0
    5.2988    0.9719    2.1143 C   0  0  0  0  0  0  0  0  0  0  0  0
    4.1862    0.2134    1.7858 C   0  0  0  0  0  0  0  0  0  0  0  0
    1.0306   -3.2271   -1.7312 O   0  0  0  0  0  0  0  0  0  0  0  0
   -0.2349   -3.6759   -1.5522 C   0  0  0  0  0  0  0  0  0  0  0  0
   -0.9511   -2.7920   -0.7857 C   0  0  0  0  0  0  0  0  0  0  0  0
   -3.3166   -1.2343    2.3750 H   0  0  0  0  0  0  0  0  0  0  0  0
   -2.9927    0.0064    3.6022 H   0  0  0  0  0  0  0  0  0  0  0  0
   -1.6773   -1.0079    2.9889 H   0  0  0  0  0  0  0  0  0  0  0  0
   -1.5603    1.2571    1.9593 H   0  0  0  0  0  0  0  0  0  0  0  0
   -4.5149    0.7470    1.4328 H   0  0  0  0  0  0  0  0  0  0  0  0
   -3.6530    2.2806    1.7733 H   0  0  0  0  0  0  0  0  0  0  0  0
   -4.8996    2.9734   -0.7261 H   0  0  0  0  0  0  0  0  0  0  0  0
   -4.2998    2.9399   -3.1426 H   0  0  0  0  0  0  0  0  0  0  0  0
   -2.5116    1.4288   -3.9591 H   0  0  0  0  0  0  0  0  0  0  0  0
   -1.3089   -0.0547   -2.4021 H   0  0  0  0  0  0  0  0  0  0  0  0
    0.1428    0.3902   -0.1198 H   0  0  0  0  0  0  0  0  0  0  0  0
   -0.0278   -0.6139    1.2994 H   0  0  0  0  0  0  0  0  0  0  0  0
    2.2469   -1.1464    0.9279 H   0  0  0  0  0  0  0  0  0  0  0  0
    4.7375    0.1989   -1.5717 H   0  0  0  0  0  0  0  0  0  0  0  0
    6.6568    1.5242   -0.7962 H   0  0  0  0  0  0  0  0  0  0  0  0
    5.5175    1.2290    3.1469 H   0  0  0  0  0  0  0  0  0  0  0  0
    3.5266   -0.1277    2.5750 H   0  0  0  0  0  0  0  0  0  0  0  0
   -0.4711   -4.6159   -2.0316 H   0  0  0  0  0  0  0  0  0  0  0  0
   -1.9927   -2.8821   -0.5057 H   0  0  0  0  0  0  0  0  0  0  0  0
  1  2  1  0
  2  3  1  0
  3  4  1  0
  4  5  2  0
  5  6  1  0
  6  7  2  0
  7  8  1  0
  8  9  2  0
  9 10  1  0
 10 11  1  0
 11 12  1  0
 12 13  2  0
 13 14  1  0
 14 15  2  0
 14 16  1  0
 16 17  1  0
 17 18  2  0
 18 19  1  0
 19 20  2  0
 20 21  1  0
 21 22  2  0
 13 23  1  0
 23 24  1  0
 24 25  2  0
 10  2  1  0
 25 12  1  0
  9  4  1  0
 22 17  1  0
  1 26  1  0
  1 27  1  0
  1 28  1  0
  2 29  1  0
  3 30  1  0
  3 31  1  0
  5 32  1  0
  6 33  1  0
  7 34  1  0
  8 35  1  0
 11 36  1  0
 11 37  1  0
 16 38  1  0
 18 39  1  0
 19 40  1  0
 21 41  1  0
 22 42  1  0
 24 43  1  0
 25 44  1  0
M  END
$$$$
OCNT-2315699
     RDKit          3D

 45 47  0  0  0  0  0  0  0  0999 V2000
    1.9153   -2.8762    2.6476 N   0  0  0  0  0  0  0  0  0  0  0  0
    2.3440   -2.2773    1.7492 C   0  0  0  0  0  0  0  0  0  0  0  0
    2.8952   -1.6008    0.6144 C   0  0  0  0  0  0  0  0  0  0  0  0
    3.9396   -2.2075   -0.0952 C   0  0  0  0  0  0  0  0  0  0  0  0
    4.4927   -1.5587   -1.1906 C   0  0  0  0  0  0  0  0  0  0  0  0
    3.9792   -0.3236   -1.5323 C   0  0  0  0  0  0  0  0  0  0  0  0
    2.9704    0.2815   -0.8670 N   0  0  0  0  0  0  0  0  0  0  0  0
    2.4181   -0.3510    0.1968 C   0  0  0  0  0  0  0  0  0  0  0  0
    1.3908    0.2844    0.9096 N   0  0  0  0  0  0  0  0  0  0  0  0
    0.9059    1.5633    0.3948 C   0  0  0  0  0  0  0  0  0  0  0  0
   -0.1404    1.4003   -0.7383 C   0  0  0  0  0  0  0  0  0  0  0  0
   -0.4792    2.7813   -1.3351 C   0  0  0  0  0  0  0  0  0  0  0  0
   -1.2740    3.6632   -0.3763 C   0  0  0  0  0  0  0  0  0  0  0  0
   -2.5271    2.9597    0.1278 C   0  0  0  0  0  0  0  0  0  0  0  0
   -2.2398    1.5699    0.6987 C   0  0  0  0  0  0  0  0  0  0  0  0
   -1.4620    0.6854   -0.3052 C   0  0  0  0  0  0  0  0  0  0  0  0
   -1.1975   -0.6889    0.1845 N   0  0  0  0  0  0  0  0  0  0  0  0
   -0.8895   -1.6195   -0.9173 C   0  0  0  0  0  0  0  0  0  0  0  0
   -1.0245   -2.9970   -0.2845 C   0  0  0  0  0  0  0  0  0  0  0  0
   -1.8971   -2.7862    0.9440 C   0  0  0  0  0  0  0  0  0  0  0  0
   -2.3217   -1.3283    0.8768 C   0  0  0  0  0  0  0  0  0  0  0  0
    4.3246   -3.1783    0.2090 H   0  0  0  0  0  0  0  0  0  0  0  0
    5.3052   -2.0001   -1.7568 H   0  0  0  0  0  0  0  0  0  0  0  0
    4.3758    0.2360   -2.3750 H   0  0  0  0  0  0  0  0  0  0  0  0
    0.5900   -0.3528    1.0140 H   0  0  0  0  0  0  0  0  0  0  0  0
    1.7386    2.1997    0.0689 H   0  0  0  0  0  0  0  0  0  0  0  0
    0.4635    2.0937    1.2440 H   0  0  0  0  0  0  0  0  0  0  0  0
    0.3191    0.8188   -1.5477 H   0  0  0  0  0  0  0  0  0  0  0  0
    0.4397    3.3001   -1.6336 H   0  0  0  0  0  0  0  0  0  0  0  0
   -1.0640    2.6374   -2.2529 H   0  0  0  0  0  0  0  0  0  0  0  0
   -0.6480    3.9548    0.4746 H   0  0  0  0  0  0  0  0  0  0  0  0
   -1.5568    4.5923   -0.8847 H   0  0  0  0  0  0  0  0  0  0  0  0
   -3.0136    3.5771    0.8916 H   0  0  0  0  0  0  0  0  0  0  0  0
   -3.2411    2.8640   -0.7001 H   0  0  0  0  0  0  0  0  0  0  0  0
   -1.6908    1.6614    1.6430 H   0  0  0  0  0  0  0  0  0  0  0  0
   -3.2072    1.1164    0.9437 H   0  0  0  0  0  0  0  0  0  0  0  0
   -2.1050    0.6100   -1.1949 H   0  0  0  0  0  0  0  0  0  0  0  0
   -1.6136   -1.5260   -1.7370 H   0  0  0  0  0  0  0  0  0  0  0  0
    0.1129   -1.4750   -1.3292 H   0  0  0  0  0  0  0  0  0  0  0  0
   -0.0480   -3.3952    0.0117 H   0  0  0  0  0  0  0  0  0  0  0  0
   -1.4785   -3.7086   -0.9820 H   0  0  0  0  0  0  0  0  0  0  0  0
   -2.7586   -3.4611    0.9556 H   0  0  0  0  0  0  0  0  0  0  0  0
   -1.3104   -2.9749    1.8510 H   0  0  0  0  0  0  0  0  0  0  0  0
   -2.4786   -0.9267    1.8827 H   0  0  0  0  0  0  0  0  0  0  0  0
   -3.2532   -1.2369    0.3038 H   0  0  0  0  0  0  0  0  0  0  0  0
  1  2  3  0
  2  3  1  0
  3  4  1  0
  4  5  2  0
  5  6  1  0
  6  7  2  0
  7  8  1  0
  8  9  1  0
  9 10  1  0
 10 11  1  0
 11 12  1  0
 12 13  1  0
 13 14  1  0
 14 15  1  0
 15 16  1  0
 16 17  1  0
 17 18  1  0
 18 19  1  0
 19 20  1  0
 20 21  1  0
  8  3  2  0
 16 11  1  0
 21 17  1  0
  4 22  1  0
  5 23  1  0
  6 24  1  0
  9 25  1  0
 10 26  1  0
 10 27  1  0
 11 28  1  0
 12 29  1  0
 12 30  1  0
 13 31  1  0
 13 32  1  0
 14 33  1  0
 14 34  1  0
 15 35  1  0
 15 36  1  0
 16 37  1  0
 18 38  1  0
 18 39  1  0
 19 40  1  0
 19 41  1  0
 20 42  1  0
 20 43  1  0
 21 44  1  0
 21 45  1  0
M  END
$$$$
OCNT-2315701
     RDKit          3D

 42 44  0  0  0  0  0  0  0  0999 V2000
    6.7032    0.3688    1.0501 C   0  0  0  0  0  0  0  0  0  0  0  0
    5.5391    1.1817    0.9712 O   0  0  0  0  0  0  0  0  0  0  0  0
    4.3253    0.5576    0.8821 C   0  0  0  0  0  0  0  0  0  0  0  0
    4.1402   -0.8269    0.8755 C   0  0  0  0  0  0  0  0  0  0  0  0
    2.8539   -1.3957    0.7837 C   0  0  0  0  0  0  0  0  0  0  0  0
    2.7439   -2.8988    0.7773 C   0  0  0  0  0  0  0  0  0  0  0  0
    1.7258   -0.5550    0.6939 C   0  0  0  0  0  0  0  0  0  0  0  0
    0.4425   -1.1456    0.6023 N   0  0  0  0  0  0  0  0  0  0  0  0
   -0.7917   -0.5086    0.4960 C   0  0  0  0  0  0  0  0  0  0  0  0
   -0.9752    0.7045    0.4808 O   0  0  0  0  0  0  0  0  0  0  0  0
   -1.9497   -1.5189    0.4616 C   0  0  0  0  0  0  0  0  0  0  0  0
   -3.1848   -0.9303   -0.0020 N   0  0  0  0  0  0  0  0  0  0  0  0
   -4.2652   -0.1449    1.0680 S   0  0  0  0  0  0  0  0  0  0  0  0
   -5.2398    0.4162   -0.2998 C   0  0  0  0  0  0  0  0  0  0  0  0
   -6.3987    1.1756   -0.2631 C   0  0  0  0  0  0  0  0  0  0  0  0
   -7.0189    1.5101   -1.4726 C   0  0  0  0  0  0  0  0  0  0  0  0
   -6.4787    1.0849   -2.6980 C   0  0  0  0  0  0  0  0  0  0  0  0
   -5.3106    0.3201   -2.7286 C   0  0  0  0  0  0  0  0  0  0  0  0
   -4.7101   -0.0024   -1.5191 C   0  0  0  0  0  0  0  0  0  0  0  0
   -3.4771   -0.7927   -1.3483 C   0  0  0  0  0  0  0  0  0  0  0  0
   -2.8360   -1.2466   -2.2837 O   0  0  0  0  0  0  0  0  0  0  0  0
    1.9215    0.8302    0.6998 C   0  0  0  0  0  0  0  0  0  0  0  0
    3.2092    1.3972    0.7926 C   0  0  0  0  0  0  0  0  0  0  0  0
    3.3776    2.8970    0.7923 C   0  0  0  0  0  0  0  0  0  0  0  0
    4.1408    3.3510   -0.2426 F   0  0  0  0  0  0  0  0  0  0  0  0
    3.9595    3.3706    1.9320 F   0  0  0  0  0  0  0  0  0  0  0  0
    2.1974    3.5757    0.6879 F   0  0  0  0  0  0  0  0  0  0  0  0
    6.6925   -0.2458    1.9572 H   0  0  0  0  0  0  0  0  0  0  0  0
    7.5708    1.0331    1.1078 H   0  0  0  0  0  0  0  0  0  0  0  0
    6.8156   -0.2490    0.1528 H   0  0  0  0  0  0  0  0  0  0  0  0
    4.9931   -1.4967    0.9401 H   0  0  0  0  0  0  0  0  0  0  0  0
    3.7231   -3.3790    0.8792 H   0  0  0  0  0  0  0  0  0  0  0  0
    2.1276   -3.2391    1.6158 H   0  0  0  0  0  0  0  0  0  0  0  0
    2.3067   -3.2428   -0.1658 H   0  0  0  0  0  0  0  0  0  0  0  0
    0.4215   -2.1563    0.5843 H   0  0  0  0  0  0  0  0  0  0  0  0
   -1.6819   -2.3355   -0.2185 H   0  0  0  0  0  0  0  0  0  0  0  0
   -2.0899   -1.9336    1.4663 H   0  0  0  0  0  0  0  0  0  0  0  0
   -6.8187    1.5065    0.6824 H   0  0  0  0  0  0  0  0  0  0  0  0
   -7.9291    2.1077   -1.4646 H   0  0  0  0  0  0  0  0  0  0  0  0
   -6.9728    1.3561   -3.6286 H   0  0  0  0  0  0  0  0  0  0  0  0
   -4.8795   -0.0137   -3.6676 H   0  0  0  0  0  0  0  0  0  0  0  0
    1.0778    1.5135    0.6281 H   0  0  0  0  0  0  0  0  0  0  0  0
  1  2  1  0
  2  3  1  0
  3  4  2  0
  4  5  1  0
  5  6  1  0
  5  7  2  0
  7  8  1  0
  8  9  1  0
  9 10  2  0
  9 11  1  0
 11 12  1  0
 12 13  1  0
 13 14  1  0
 14 15  2  0
 15 16  1  0
 16 17  2  0
 17 18  1  0
 18 19  2  0
 19 20  1  0
 20 21  2  0
  7 22  1  0
 22 23  2  0
 23 24  1  0
 24 25  1  0
 24 26  1  0
 24 27  1  0
 23  3  1  0
 20 12  1  0
 19 14  1  0
  1 28  1  0
  1 29  1  0
  1 30  1  0
  4 31  1  0
  6 32  1  0
  6 33  1  0
  6 34  1  0
  8 35  1  0
 11 36  1  0
 11 37  1  0
 15 38  1  0
 16 39  1  0
 17 40  1  0
 18 41  1  0
 22 42  1  0
M  END
$$$$
OCNT-2315705
     RDKit          3D

 39 42  0  0  0  0  0  0  0  0999 V2000
   -2.2658    2.6236    2.5720 C   0  0  0  0  0  0  0  0  0  0  0  0
   -2.1934    1.7302    1.3694 C   0  0  0  0  0  0  0  0  0  0  0  0
   -3.0142    1.9554    0.2645 C   0  0  0  0  0  0  0  0  0  0  0  0
   -2.9806    1.0953   -0.8405 C   0  0  0  0  0  0  0  0  0  0  0  0
   -2.1186   -0.0184   -0.8731 C   0  0  0  0  0  0  0  0  0  0  0  0
   -2.1041   -0.8334   -2.0452 N   0  0  0  0  0  0  0  0  0  0  0  0
   -3.0470   -0.8516   -3.0495 C   0  0  0  0  0  0  0  0  0  0  0  0
   -2.6861   -1.6585   -4.0195 N   0  0  0  0  0  0  0  0  0  0  0  0
   -1.4874   -2.2099   -3.6657 N   0  0  0  0  0  0  0  0  0  0  0  0
   -1.1559   -1.7215   -2.4909 C   0  0  0  0  0  0  0  0  0  0  0  0
   -1.2955   -0.2440    0.2459 C   0  0  0  0  0  0  0  0  0  0  0  0
   -0.4674   -1.4452    0.4298 C   0  0  0  0  0  0  0  0  0  0  0  0
   -1.0684   -2.5135    0.5339 O   0  0  0  0  0  0  0  0  0  0  0  0
    0.9087   -1.3407    0.5269 N   0  0  0  0  0  0  0  0  0  0  0  0
    1.6970   -2.5292    0.8849 C   0  0  0  0  0  0  0  0  0  0  0  0
    3.1344   -2.0646    1.1228 C   0  0  0  0  0  0  0  0  0  0  0  0
    3.1045   -0.6892    0.5349 C   0  0  0  0  0  0  0  0  0  0  0  0
    4.1898    0.1513    0.3329 C   0  0  0  0  0  0  0  0  0  0  0  0
    3.9456    1.4060   -0.2107 C   0  0  0  0  0  0  0  0  0  0  0  0
    4.9699    2.2426   -0.4216 F   0  0  0  0  0  0  0  0  0  0  0  0
    2.6515    1.8117   -0.5450 C   0  0  0  0  0  0  0  0  0  0  0  0
    1.5628    0.9568   -0.3311 C   0  0  0  0  0  0  0  0  0  0  0  0
    1.7970   -0.2921    0.2238 C   0  0  0  0  0  0  0  0  0  0  0  0
   -1.3547    0.6134    1.3635 C   0  0  0  0  0  0  0  0  0  0  0  0
   -2.5321    3.6459    2.2837 H   0  0  0  0  0  0  0  0  0  0  0  0
   -3.0162    2.2469    3.2738 H   0  0  0  0  0  0  0  0  0  0  0  0
   -1.2971    2.6719    3.0804 H   0  0  0  0  0  0  0  0  0  0  0  0
   -3.6938    2.8067    0.2529 H   0  0  0  0  0  0  0  0  0  0  0  0
   -3.6317    1.3506   -1.6733 H   0  0  0  0  0  0  0  0  0  0  0  0
   -3.9696   -0.2921   -3.0311 H   0  0  0  0  0  0  0  0  0  0  0  0
   -0.2396   -1.9650   -1.9788 H   0  0  0  0  0  0  0  0  0  0  0  0
    1.6406   -3.2337    0.0456 H   0  0  0  0  0  0  0  0  0  0  0  0
    1.2697   -3.0191    1.7668 H   0  0  0  0  0  0  0  0  0  0  0  0
    3.3570   -2.0108    2.1935 H   0  0  0  0  0  0  0  0  0  0  0  0
    3.8559   -2.7192    0.6260 H   0  0  0  0  0  0  0  0  0  0  0  0
    5.2008   -0.1472    0.5852 H   0  0  0  0  0  0  0  0  0  0  0  0
    2.5007    2.7963   -0.9783 H   0  0  0  0  0  0  0  0  0  0  0  0
    0.5813    1.3015   -0.6259 H   0  0  0  0  0  0  0  0  0  0  0  0
   -0.7480    0.3930    2.2416 H   0  0  0  0  0  0  0  0  0  0  0  0
  1  2  1  0
  2  3  1  0
  3  4  2  0
  4  5  1  0
  5  6  1  0
  6  7  1  0
  7  8  2  0
  8  9  1  0
  9 10  2  0
  5 11  2  0
 11 12  1  0
 12 13  2  0
 12 14  1  0
 14 15  1  0
 15 16  1  0
 16 17  1  0
 17 18  1  0
 18 19  2  0
 19 20  1  0
 19 21  1  0
 21 22  2  0
 22 23  1  0
 11 24  1  0
 24  2  2  0
 10  6  1  0
 23 14  1  0
 23 17  2  0
  1 25  1  0
  1 26  1  0
  1 27  1  0
  3 28  1  0
  4 29  1  0
  7 30  1  0
 10 31  1  0
 15 32  1  0
 15 33  1  0
 16 34  1  0
 16 35  1  0
 18 36  1  0
 21 37  1  0
 22 38  1  0
 24 39  1  0
M  END
$$$$
OCNT-2315717
     RDKit          3D

 45 47  0  0  0  0  0  0  0  0999 V2000
   -1.0021    3.5215   -1.2899 O   0  0  0  0  0  0  0  0  0  0  0  0
   -1.3439    2.6036   -0.5539 C   0  0  0  0  0  0  0  0  0  0  0  0
   -2.5932    2.7265    0.2952 C   0  0  0  0  0  0  0  0  0  0  0  0
   -3.8546    2.5479   -0.5376 C   0  0  0  0  0  0  0  0  0  0  0  0
   -4.0666    0.8689   -1.2466 S   0  0  0  0  0  0  0  0  0  0  0  0
   -4.1433   -0.1470    0.2159 C   0  0  0  0  0  0  0  0  0  0  0  0
   -5.0247    0.1250    1.2670 C   0  0  0  0  0  0  0  0  0  0  0  0
   -5.0502   -0.6972    2.3988 C   0  0  0  0  0  0  0  0  0  0  0  0
   -4.2050   -1.8017    2.4715 C   0  0  0  0  0  0  0  0  0  0  0  0
   -4.2333   -2.8079    3.8650 Cl  0  0  0  0  0  0  0  0  0  0  0  0
   -3.3401   -2.0955    1.4198 C   0  0  0  0  0  0  0  0  0  0  0  0
   -3.3125   -1.2712    0.2928 C   0  0  0  0  0  0  0  0  0  0  0  0
   -0.7051    1.3862   -0.3929 N   0  0  0  0  0  0  0  0  0  0  0  0
    0.4161    0.9026   -1.0958 C   0  0  0  0  0  0  0  0  0  0  0  0
    1.0523    1.5977   -2.1260 C   0  0  0  0  0  0  0  0  0  0  0  0
    2.1369    1.0323   -2.8073 C   0  0  0  0  0  0  0  0  0  0  0  0
    2.6045   -0.2313   -2.4584 C   0  0  0  0  0  0  0  0  0  0  0  0
    1.9885   -0.9167   -1.4123 C   0  0  0  0  0  0  0  0  0  0  0  0
    2.5451   -2.5388   -0.9584 S   0  0  0  0  0  0  0  0  0  0  0  0
    1.3595   -3.3215   -0.6693 O   0  0  0  0  0  0  0  0  0  0  0  0
    3.5217   -2.9816   -1.9300 O   0  0  0  0  0  0  0  0  0  0  0  0
    3.2928   -2.2732    0.5158 N   0  0  0  0  0  0  0  0  0  0  0  0
    4.4815   -1.5799    0.7269 C   0  0  0  0  0  0  0  0  0  0  0  0
    5.3652   -1.0282   -0.1672 C   0  0  0  0  0  0  0  0  0  0  0  0
    6.3673   -0.4677    0.5727 N   0  0  0  0  0  0  0  0  0  0  0  0
    6.1962   -0.6099    1.8989 N   0  0  0  0  0  0  0  0  0  0  0  0
    5.0543   -1.2957    1.9902 C   0  0  0  0  0  0  0  0  0  0  0  0
    0.8907   -0.3644   -0.7409 C   0  0  0  0  0  0  0  0  0  0  0  0
   -2.5658    2.0373    1.1427 H   0  0  0  0  0  0  0  0  0  0  0  0
   -2.5835    3.7319    0.7289 H   0  0  0  0  0  0  0  0  0  0  0  0
   -3.8422    3.2451   -1.3817 H   0  0  0  0  0  0  0  0  0  0  0  0
   -4.7360    2.7937    0.0618 H   0  0  0  0  0  0  0  0  0  0  0  0
   -5.7118    0.9651    1.2148 H   0  0  0  0  0  0  0  0  0  0  0  0
   -5.7395   -0.4777    3.2111 H   0  0  0  0  0  0  0  0  0  0  0  0
   -2.6918   -2.9666    1.4655 H   0  0  0  0  0  0  0  0  0  0  0  0
   -2.6431   -1.5209   -0.5303 H   0  0  0  0  0  0  0  0  0  0  0  0
   -1.1094    0.7536    0.2815 H   0  0  0  0  0  0  0  0  0  0  0  0
    0.7170    2.5816   -2.4407 H   0  0  0  0  0  0  0  0  0  0  0  0
    2.6044    1.5820   -3.6208 H   0  0  0  0  0  0  0  0  0  0  0  0
    3.4355   -0.6695   -3.0057 H   0  0  0  0  0  0  0  0  0  0  0  0
    2.7882   -2.6716    1.3073 H   0  0  0  0  0  0  0  0  0  0  0  0
    5.3922   -0.9957   -1.2465 H   0  0  0  0  0  0  0  0  0  0  0  0
    7.1942    0.0206    0.2429 H   0  0  0  0  0  0  0  0  0  0  0  0
    4.6832   -1.5578    2.9738 H   0  0  0  0  0  0  0  0  0  0  0  0
    0.4104   -0.9318    0.0513 H   0  0  0  0  0  0  0  0  0  0  0  0
  1  2  2  0
  2  3  1  0
  3  4  1  0
  4  5  1  0
  5  6  1  0
  6  7  1  0
  7  8  2  0
  8  9  1  0
  9 10  1  0
  9 11  2  0
 11 12  1  0
  2 13  1  0
 13 14  1  0
 14 15  1  0
 15 16  2  0
 16 17  1  0
 17 18  2  0
 18 19  1  0
 19 20  2  0
 19 21  2  0
 19 22  1  0
 22 23  1  0
 23 24  2  0
 24 25  1  0
 25 26  1  0
 26 27  2  0
 18 28  1  0
 12  6  2  0
 28 14  2  0
 27 23  1  0
  3 29  1  0
  3 30  1  0
  4 31  1  0
  4 32  1  0
  7 33  1  0
  8 34  1  0
 11 35  1  0
 12 36  1  0
 13 37  1  0
 15 38  1  0
 16 39  1  0
 17 40  1  0
 22 41  1  0
 24 42  1  0
 25 43  1  0
 27 44  1  0
 28 45  1  0
M  END
$$$$
OCNT-2315727
     RDKit          3D

 49 51  0  0  0  0  0  0  0  0999 V2000
   -5.1798   -0.1377   -2.4134 C   0  0  0  0  0  0  0  0  0  0  0  0
   -3.7382    0.1793   -2.0549 C   0  0  0  0  0  0  0  0  0  0  0  0
   -3.4440    1.6865   -1.9722 C   0  0  0  0  0  0  0  0  0  0  0  0
   -2.6829    1.8598   -0.6584 C   0  0  0  0  0  0  0  0  0  0  0  0
   -1.4906    2.8142   -0.7156 C   0  0  0  0  0  0  0  0  0  0  0  0
   -0.4194    2.4618    0.3321 C   0  0  0  0  0  0  0  0  0  0  0  0
   -1.0049    1.6594    1.5056 C   0  0  0  0  0  0  0  0  0  0  0  0
    0.0545    1.3180    2.5414 C   0  0  0  0  0  0  0  0  0  0  0  0
   -0.0224    1.7161    3.7010 O   0  0  0  0  0  0  0  0  0  0  0  0
    1.0854    0.5347    2.1006 N   0  0  0  0  0  0  0  0  0  0  0  0
    2.1804    0.1479    2.9648 C   0  0  0  0  0  0  0  0  0  0  0  0
    3.0269   -0.8585    2.2449 C   0  0  0  0  0  0  0  0  0  0  0  0
    3.0064   -1.0511    0.9390 N   0  0  0  0  0  0  0  0  0  0  0  0
    3.8841   -2.0667    0.5905 C   0  0  0  0  0  0  0  0  0  0  0  0
    4.0114   -2.4558   -0.8568 C   0  0  0  0  0  0  0  0  0  0  0  0
    2.6454   -2.7432   -1.4855 C   0  0  0  0  0  0  0  0  0  0  0  0
    4.7541   -1.3794   -1.6518 C   0  0  0  0  0  0  0  0  0  0  0  0
    4.5731   -2.6193    1.6536 C   0  0  0  0  0  0  0  0  0  0  0  0
    4.1076   -1.8667    3.1200 S   0  0  0  0  0  0  0  0  0  0  0  0
   -1.7504    0.3889    1.0362 C   0  0  0  0  0  0  0  0  0  0  0  0
   -2.2207    0.5084   -0.3460 N   0  0  0  0  0  0  0  0  0  0  0  0
   -3.3270   -0.3770   -0.6909 C   0  0  0  0  0  0  0  0  0  0  0  0
   -5.4346    0.2775   -3.3937 H   0  0  0  0  0  0  0  0  0  0  0  0
   -5.8755    0.2813   -1.6787 H   0  0  0  0  0  0  0  0  0  0  0  0
   -5.3389   -1.2202   -2.4503 H   0  0  0  0  0  0  0  0  0  0  0  0
   -3.0866   -0.2537   -2.8260 H   0  0  0  0  0  0  0  0  0  0  0  0
   -4.3595    2.2884   -1.9671 H   0  0  0  0  0  0  0  0  0  0  0  0
   -2.8535    1.9922   -2.8428 H   0  0  0  0  0  0  0  0  0  0  0  0
   -3.3926    2.2041    0.1074 H   0  0  0  0  0  0  0  0  0  0  0  0
   -1.8485    3.8359   -0.5414 H   0  0  0  0  0  0  0  0  0  0  0  0
   -1.0202    2.8158   -1.7068 H   0  0  0  0  0  0  0  0  0  0  0  0
    0.3698    1.8825   -0.1638 H   0  0  0  0  0  0  0  0  0  0  0  0
    0.0646    3.3778    0.6923 H   0  0  0  0  0  0  0  0  0  0  0  0
   -1.7339    2.3110    2.0099 H   0  0  0  0  0  0  0  0  0  0  0  0
    1.1667    0.2699    1.1231 H   0  0  0  0  0  0  0  0  0  0  0  0
    1.7668   -0.2580    3.8937 H   0  0  0  0  0  0  0  0  0  0  0  0
    2.7633    1.0446    3.1982 H   0  0  0  0  0  0  0  0  0  0  0  0
    4.6003   -3.3814   -0.9139 H   0  0  0  0  0  0  0  0  0  0  0  0
    2.7577   -3.1039   -2.5130 H   0  0  0  0  0  0  0  0  0  0  0  0
    2.0160   -1.8458   -1.5122 H   0  0  0  0  0  0  0  0  0  0  0  0
    2.1090   -3.5094   -0.9155 H   0  0  0  0  0  0  0  0  0  0  0  0
    5.7570   -1.2121   -1.2415 H   0  0  0  0  0  0  0  0  0  0  0  0
    4.8650   -1.6766   -2.6996 H   0  0  0  0  0  0  0  0  0  0  0  0
    4.2218   -0.4209   -1.6275 H   0  0  0  0  0  0  0  0  0  0  0  0
    5.3074   -3.4116    1.6397 H   0  0  0  0  0  0  0  0  0  0  0  0
   -2.5905    0.2240    1.7249 H   0  0  0  0  0  0  0  0  0  0  0  0
   -1.1205   -0.5047    1.1084 H   0  0  0  0  0  0  0  0  0  0  0  0
   -3.0102   -1.4224   -0.7620 H   0  0  0  0  0  0  0  0  0  0  0  0
   -4.1492   -0.3037    0.0323 H   0  0  0  0  0  0  0  0  0  0  0  0
  1  2  1  0
  2  3  1  0
  3  4  1  0
  4  5  1  0
  5  6  1  0
  6  7  1  0
  7  8  1  0
  8  9  2  0
  8 10  1  0
 10 11  1  0
 11 12  1  0
 12 13  2  0
 13 14  1  0
 14 15  1  0
 15 16  1  0
 15 17  1  0
 14 18  2  0
 18 19  1  0
  7 20  1  0
 20 21  1  0
 21 22  1  0
 22  2  1  0
 21  4  1  0
 19 12  1  0
  1 23  1  0
  1 24  1  0
  1 25  1  0
  2 26  1  0
  3 27  1  0
  3 28  1  0
  4 29  1  0
  5 30  1  0
  5 31  1  0
  6 32  1  0
  6 33  1  0
  7 34  1  0
 10 35  1  0
 11 36  1  0
 11 37  1  0
 15 38  1  0
 16 39  1  0
 16 40  1  0
 16 41  1  0
 17 42  1  0
 17 43  1  0
 17 44  1  0
 18 45  1  0
 20 46  1  0
 20 47  1  0
 22 48  1  0
 22 49  1  0
M  END
$$$$
OCNT-2315734
     RDKit          3D

 39 41  0  0  0  0  0  0  0  0999 V2000
   -2.5368   -2.1329    4.0788 C   0  0  0  0  0  0  0  0  0  0  0  0
   -2.2306   -1.4987    2.7681 C   0  0  0  0  0  0  0  0  0  0  0  0
   -3.1376   -1.0935    1.9125 N   0  0  0  0  0  0  0  0  0  0  0  0
   -2.5334   -0.5322    0.7921 C   0  0  0  0  0  0  0  0  0  0  0  0
   -3.3828    0.0050   -0.2628 C   0  0  0  0  0  0  0  0  0  0  0  0
   -3.2216    1.3103   -0.7440 C   0  0  0  0  0  0  0  0  0  0  0  0
   -4.0722    1.8080   -1.7348 C   0  0  0  0  0  0  0  0  0  0  0  0
   -5.0980    1.0113   -2.2409 C   0  0  0  0  0  0  0  0  0  0  0  0
   -5.2795   -0.2819   -1.7543 C   0  0  0  0  0  0  0  0  0  0  0  0
   -4.4290   -0.7808   -0.7653 C   0  0  0  0  0  0  0  0  0  0  0  0
   -1.1440   -0.5577    0.7940 C   0  0  0  0  0  0  0  0  0  0  0  0
   -0.1877   -0.1389   -0.2288 C   0  0  0  0  0  0  0  0  0  0  0  0
   -0.5246    0.1215   -1.3789 O   0  0  0  0  0  0  0  0  0  0  0  0
    1.1288   -0.0646    0.2127 N   0  0  0  0  0  0  0  0  0  0  0  0
    2.2757    0.3214   -0.5105 C   0  0  0  0  0  0  0  0  0  0  0  0
    2.2602    0.7402   -1.8442 C   0  0  0  0  0  0  0  0  0  0  0  0
    3.4445    1.1243   -2.4832 C   0  0  0  0  0  0  0  0  0  0  0  0
    4.6517    1.0889   -1.7949 C   0  0  0  0  0  0  0  0  0  0  0  0
    5.7692    1.4371   -2.4470 F   0  0  0  0  0  0  0  0  0  0  0  0
    4.6881    0.6630   -0.4712 C   0  0  0  0  0  0  0  0  0  0  0  0
    5.9730    0.6388    0.2560 C   0  0  0  0  0  0  0  0  0  0  0  0
    6.1840   -0.4337    1.0813 N   0  0  0  0  0  0  0  0  0  0  0  0
    6.8114    1.5194    0.1370 O   0  0  0  0  0  0  0  0  0  0  0  0
    3.4995    0.2849    0.1734 C   0  0  0  0  0  0  0  0  0  0  0  0
   -0.6084   -1.2538    2.2842 S   0  0  0  0  0  0  0  0  0  0  0  0
   -3.6193   -2.2102    4.2228 H   0  0  0  0  0  0  0  0  0  0  0  0
   -2.1290   -1.5392    4.9031 H   0  0  0  0  0  0  0  0  0  0  0  0
   -2.1173   -3.1426    4.1301 H   0  0  0  0  0  0  0  0  0  0  0  0
   -2.4343    1.9520   -0.3575 H   0  0  0  0  0  0  0  0  0  0  0  0
   -3.9325    2.8181   -2.1107 H   0  0  0  0  0  0  0  0  0  0  0  0
   -5.7583    1.4000   -3.0116 H   0  0  0  0  0  0  0  0  0  0  0  0
   -6.0840   -0.9017   -2.1406 H   0  0  0  0  0  0  0  0  0  0  0  0
   -4.5864   -1.7870   -0.3827 H   0  0  0  0  0  0  0  0  0  0  0  0
    1.2702   -0.3211    1.1821 H   0  0  0  0  0  0  0  0  0  0  0  0
    1.3421    0.7891   -2.4225 H   0  0  0  0  0  0  0  0  0  0  0  0
    3.4281    1.4507   -3.5193 H   0  0  0  0  0  0  0  0  0  0  0  0
    7.1208   -0.5069    1.4608 H   0  0  0  0  0  0  0  0  0  0  0  0
    5.6641   -1.2934    0.9731 H   0  0  0  0  0  0  0  0  0  0  0  0
    3.5355   -0.0129    1.2183 H   0  0  0  0  0  0  0  0  0  0  0  0
  1  2  1  0
  2  3  2  0
  3  4  1  0
  4  5  1  0
  5  6  2  0
  6  7  1  0
  7  8  2  0
  8  9  1  0
  9 10  2  0
  4 11  2  0
 11 12  1  0
 12 13  2  0
 12 14  1  0
 14 15  1  0
 15 16  1  0
 16 17  2  0
 17 18  1  0
 18 19  1  0
 18 20  2  0
 20 21  1  0
 21 22  1  0
 21 23  2  0
 20 24  1  0
 11 25  1  0
 25  2  1  0
 10  5  1  0
 24 15  2  0
  1 26  1  0
  1 27  1  0
  1 28  1  0
  6 29  1  0
  7 30  1  0
  8 31  1  0
  9 32  1  0
 10 33  1  0
 14 34  1  0
 16 35  1  0
 17 36  1  0
 22 37  1  0
 22 38  1  0
 24 39  1  0
M  END
$$$$
OCNT-2315739
     RDKit          3D

 37 39  0  0  0  0  0  0  0  0999 V2000
    7.3322   -0.4787    0.0863 N   0  0  0  0  0  0  0  0  0  0  0  0
    6.1878   -0.2845    0.0993 C   0  0  0  0  0  0  0  0  0  0  0  0
    4.7748   -0.0414    0.1187 C   0  0  0  0  0  0  0  0  0  0  0  0
    4.2827    1.2473   -0.1590 C   0  0  0  0  0  0  0  0  0  0  0  0
    2.9082    1.5085   -0.1377 C   0  0  0  0  0  0  0  0  0  0  0  0
    2.0352    0.4658    0.1433 C   0  0  0  0  0  0  0  0  0  0  0  0
    2.5309   -0.8142    0.4293 C   0  0  0  0  0  0  0  0  0  0  0  0
    3.8916   -1.0827    0.4247 C   0  0  0  0  0  0  0  0  0  0  0  0
    1.4189   -1.7545    0.7708 C   0  0  0  0  0  0  0  0  0  0  0  0
    0.2171   -1.0152    0.1718 C   0  0  0  0  0  0  0  0  0  0  0  0
    0.5271    0.4949    0.2808 C   0  0  0  0  0  0  0  0  0  0  0  0
   -0.1314    1.2934   -0.7564 N   0  0  0  0  0  0  0  0  0  0  0  0
   -1.5235    1.6253   -0.4405 C   0  0  0  0  0  0  0  0  0  0  0  0
   -2.5006    0.5096   -0.7146 C   0  0  0  0  0  0  0  0  0  0  0  0
   -2.5766   -0.0263   -2.0004 C   0  0  0  0  0  0  0  0  0  0  0  0
   -3.4301   -1.0058   -2.3743 N   0  0  0  0  0  0  0  0  0  0  0  0
   -4.2551   -1.4889   -1.4278 C   0  0  0  0  0  0  0  0  0  0  0  0
   -4.2676   -1.0337   -0.1215 C   0  0  0  0  0  0  0  0  0  0  0  0
   -3.3799   -0.0132    0.2546 C   0  0  0  0  0  0  0  0  0  0  0  0
   -3.3874    0.4886    1.6758 C   0  0  0  0  0  0  0  0  0  0  0  0
   -2.1788    0.3421    2.2873 F   0  0  0  0  0  0  0  0  0  0  0  0
   -3.6921    1.8131    1.7589 F   0  0  0  0  0  0  0  0  0  0  0  0
   -4.2855   -0.1489    2.4774 F   0  0  0  0  0  0  0  0  0  0  0  0
    4.9732    2.0578   -0.3873 H   0  0  0  0  0  0  0  0  0  0  0  0
    2.5470    2.5123   -0.3356 H   0  0  0  0  0  0  0  0  0  0  0  0
    4.2581   -2.0796    0.6554 H   0  0  0  0  0  0  0  0  0  0  0  0
    1.3258   -1.8506    1.8574 H   0  0  0  0  0  0  0  0  0  0  0  0
    1.5485   -2.7405    0.3159 H   0  0  0  0  0  0  0  0  0  0  0  0
    0.1177   -1.3094   -0.8834 H   0  0  0  0  0  0  0  0  0  0  0  0
   -0.7120   -1.2962    0.6757 H   0  0  0  0  0  0  0  0  0  0  0  0
    0.3006    0.8696    1.2875 H   0  0  0  0  0  0  0  0  0  0  0  0
    0.3738    2.1737   -0.8401 H   0  0  0  0  0  0  0  0  0  0  0  0
   -1.8221    2.4644   -1.0831 H   0  0  0  0  0  0  0  0  0  0  0  0
   -1.5954    2.0141    0.5796 H   0  0  0  0  0  0  0  0  0  0  0  0
   -1.9222    0.3304   -2.7938 H   0  0  0  0  0  0  0  0  0  0  0  0
   -4.9279   -2.2764   -1.7561 H   0  0  0  0  0  0  0  0  0  0  0  0
   -4.9628   -1.4702    0.5907 H   0  0  0  0  0  0  0  0  0  0  0  0
  1  2  3  0
  2  3  1  0
  3  4  1  0
  4  5  2  0
  5  6  1  0
  6  7  2  0
  7  8  1  0
  7  9  1  0
  9 10  1  0
 10 11  1  0
 11 12  1  0
 12 13  1  0
 13 14  1  0
 14 15  2  0
 15 16  1  0
 16 17  2  0
 17 18  1  0
 18 19  2  0
 19 20  1  0
 20 21  1  0
 20 22  1  0
 20 23  1  0
  8  3  2  0
 19 14  1  0
 11  6  1  0
  4 24  1  0
  5 25  1  0
  8 26  1  0
  9 27  1  0
  9 28  1  0
 10 29  1  0
 10 30  1  0
 11 31  1  0
 12 32  1  0
 13 33  1  0
 13 34  1  0
 15 35  1  0
 17 36  1  0
 18 37  1  0
M  END
$$$$
OCNT-2315757
     RDKit          3D

 43 46  0  0  0  0  0  0  0  0999 V2000
   -2.2980    3.9084    0.6982 C   0  0  0  0  0  0  0  0  0  0  0  0
   -2.0583    3.4255   -0.5862 C   0  0  0  0  0  0  0  0  0  0  0  0
   -1.7154    2.0863   -0.7764 C   0  0  0  0  0  0  0  0  0  0  0  0
   -1.5999    1.2136    0.3185 C   0  0  0  0  0  0  0  0  0  0  0  0
   -1.2527   -0.2563    0.1283 C   0  0  0  0  0  0  0  0  0  0  0  0
   -2.5392   -0.9812   -0.3511 C   0  0  0  0  0  0  0  0  0  0  0  0
   -2.4114   -2.4256   -0.3602 N   0  0  0  0  0  0  0  0  0  0  0  0
   -2.4499   -3.2500    0.7289 C   0  0  0  0  0  0  0  0  0  0  0  0
   -2.2607   -4.5140    0.2207 C   0  0  0  0  0  0  0  0  0  0  0  0
   -2.1191   -4.4734   -1.1423 N   0  0  0  0  0  0  0  0  0  0  0  0
   -2.2369   -3.2059   -1.4667 C   0  0  0  0  0  0  0  0  0  0  0  0
   -0.1227   -0.4559   -0.8136 N   0  0  0  0  0  0  0  0  0  0  0  0
    1.2141   -0.3108   -0.1911 C   0  0  0  0  0  0  0  0  0  0  0  0
    2.2640   -0.9279   -1.1723 C   0  0  0  0  0  0  0  0  0  0  0  0
    3.6945   -0.9596   -0.5851 C   0  0  0  0  0  0  0  0  0  0  0  0
    4.0099    0.3208    0.0806 C   0  0  0  0  0  0  0  0  0  0  0  0
    3.0456    1.2323    0.4175 C   0  0  0  0  0  0  0  0  0  0  0  0
    1.5904    1.1585    0.1741 C   0  0  0  0  0  0  0  0  0  0  0  0
    3.5966    2.3065    1.0237 O   0  0  0  0  0  0  0  0  0  0  0  0
    4.9736    2.1074    1.1031 N   0  0  0  0  0  0  0  0  0  0  0  0
    5.1974    0.9165    0.5322 C   0  0  0  0  0  0  0  0  0  0  0  0
   -1.8527    1.7133    1.6063 C   0  0  0  0  0  0  0  0  0  0  0  0
   -2.1962    3.0535    1.7935 C   0  0  0  0  0  0  0  0  0  0  0  0
   -2.5613    4.9526    0.8458 H   0  0  0  0  0  0  0  0  0  0  0  0
   -2.1337    4.0932   -1.4407 H   0  0  0  0  0  0  0  0  0  0  0  0
   -1.5226    1.7273   -1.7857 H   0  0  0  0  0  0  0  0  0  0  0  0
   -0.9736   -0.6890    1.0986 H   0  0  0  0  0  0  0  0  0  0  0  0
   -3.3871   -0.7509    0.3073 H   0  0  0  0  0  0  0  0  0  0  0  0
   -2.8243   -0.6638   -1.3624 H   0  0  0  0  0  0  0  0  0  0  0  0
   -2.5995   -2.8899    1.7371 H   0  0  0  0  0  0  0  0  0  0  0  0
   -2.2208   -5.4505    0.7623 H   0  0  0  0  0  0  0  0  0  0  0  0
   -2.1942   -2.8072   -2.4726 H   0  0  0  0  0  0  0  0  0  0  0  0
   -0.1783   -1.4076   -1.1809 H   0  0  0  0  0  0  0  0  0  0  0  0
    1.2482   -0.9217    0.7224 H   0  0  0  0  0  0  0  0  0  0  0  0
    1.9811   -1.9528   -1.4443 H   0  0  0  0  0  0  0  0  0  0  0  0
    2.2711   -0.3430   -2.1028 H   0  0  0  0  0  0  0  0  0  0  0  0
    4.4152   -1.1718   -1.3823 H   0  0  0  0  0  0  0  0  0  0  0  0
    3.7653   -1.7714    0.1488 H   0  0  0  0  0  0  0  0  0  0  0  0
    1.0517    1.4846    1.0682 H   0  0  0  0  0  0  0  0  0  0  0  0
    1.3373    1.8339   -0.6512 H   0  0  0  0  0  0  0  0  0  0  0  0
    6.2121    0.5480    0.4795 H   0  0  0  0  0  0  0  0  0  0  0  0
   -1.7778    1.0652    2.4768 H   0  0  0  0  0  0  0  0  0  0  0  0
   -2.3818    3.4327    2.7954 H   0  0  0  0  0  0  0  0  0  0  0  0
  1  2  2  0
  2  3  1  0
  3  4  2  0
  4  5  1  0
  5  6  1  0
  6  7  1  0
  7  8  1  0
  8  9  2  0
  9 10  1  0
 10 11  2  0
  5 12  1  0
 12 13  1  0
 13 14  1  0
 14 15  1  0
 15 16  1  0
 16 17  2  0
 17 18  1  0
 17 19  1  0
 19 20  1  0
 20 21  2  0
  4 22  1  0
 22 23  2  0
 23  1  1  0
 11  7  1  0
 18 13  1  0
 21 16  1  0
  1 24  1  0
  2 25  1  0
  3 26  1  0
  5 27  1  0
  6 28  1  0
  6 29  1  0
  8 30  1  0
  9 31  1  0
 11 32  1  0
 12 33  1  0
 13 34  1  0
 14 35  1  0
 14 36  1  0
 15 37  1  0
 15 38  1  0
 18 39  1  0
 18 40  1  0
 21 41  1  0
 22 42  1  0
 23 43  1  0
M  END
$$$$
OCNT-2315764
     RDKit          3D

 40 42  0  0  0  0  0  0  0  0999 V2000
   -1.2920    2.4742   -2.2717 O   0  0  0  0  0  0  0  0  0  0  0  0
   -0.6403    1.3416   -1.6528 S   0  0  0  0  0  0  0  0  0  0  0  0
    0.4071    0.6064   -2.3248 O   0  0  0  0  0  0  0  0  0  0  0  0
   -0.0424    1.8895   -0.1925 N   0  0  0  0  0  0  0  0  0  0  0  0
    0.9117    1.0791    0.5726 C   0  0  0  0  0  0  0  0  0  0  0  0
    2.3609    1.4200    0.1808 C   0  0  0  0  0  0  0  0  0  0  0  0
    3.3504    0.7221    1.0103 N   0  0  0  0  0  0  0  0  0  0  0  0
    3.3982   -0.7225    0.7610 C   0  0  0  0  0  0  0  0  0  0  0  0
    4.7328   -1.1430    1.3633 C   0  0  0  0  0  0  0  0  0  0  0  0
    5.5722    0.1289    1.4080 C   0  0  0  0  0  0  0  0  0  0  0  0
    4.7132    1.1882    0.7372 C   0  0  0  0  0  0  0  0  0  0  0  0
   -1.8922    0.2200   -1.1504 C   0  0  0  0  0  0  0  0  0  0  0  0
   -1.6871   -1.1384   -1.2685 C   0  0  0  0  0  0  0  0  0  0  0  0
   -2.6108   -2.0617   -0.9065 N   0  0  0  0  0  0  0  0  0  0  0  0
   -3.7926   -1.6249   -0.4301 C   0  0  0  0  0  0  0  0  0  0  0  0
   -4.7624   -2.5460   -0.0587 C   0  0  0  0  0  0  0  0  0  0  0  0
   -6.0074   -2.1442    0.4346 C   0  0  0  0  0  0  0  0  0  0  0  0
   -6.2979   -0.7906    0.5634 C   0  0  0  0  0  0  0  0  0  0  0  0
   -5.3434    0.1571    0.1999 C   0  0  0  0  0  0  0  0  0  0  0  0
   -4.0922   -0.2497   -0.2951 C   0  0  0  0  0  0  0  0  0  0  0  0
   -3.1134    0.6801   -0.6688 C   0  0  0  0  0  0  0  0  0  0  0  0
   -0.0589    2.9003   -0.0638 H   0  0  0  0  0  0  0  0  0  0  0  0
    0.6992    0.0144    0.4362 H   0  0  0  0  0  0  0  0  0  0  0  0
    0.7557    1.3002    1.6342 H   0  0  0  0  0  0  0  0  0  0  0  0
    2.4933    2.5030    0.3136 H   0  0  0  0  0  0  0  0  0  0  0  0
    2.5299    1.2195   -0.8847 H   0  0  0  0  0  0  0  0  0  0  0  0
    2.5672   -1.2538    1.2357 H   0  0  0  0  0  0  0  0  0  0  0  0
    3.3907   -0.9494   -0.3134 H   0  0  0  0  0  0  0  0  0  0  0  0
    4.5989   -1.5382    2.3773 H   0  0  0  0  0  0  0  0  0  0  0  0
    5.2133   -1.9212    0.7598 H   0  0  0  0  0  0  0  0  0  0  0  0
    6.5340    0.0031    0.8995 H   0  0  0  0  0  0  0  0  0  0  0  0
    5.7763    0.4008    2.4508 H   0  0  0  0  0  0  0  0  0  0  0  0
    4.9251    1.2145   -0.3396 H   0  0  0  0  0  0  0  0  0  0  0  0
    4.9010    2.1816    1.1560 H   0  0  0  0  0  0  0  0  0  0  0  0
   -0.7608   -1.5520   -1.6588 H   0  0  0  0  0  0  0  0  0  0  0  0
   -4.5440   -3.6064   -0.1601 H   0  0  0  0  0  0  0  0  0  0  0  0
   -6.7456   -2.8916    0.7128 H   0  0  0  0  0  0  0  0  0  0  0  0
   -7.2658   -0.4737    0.9434 H   0  0  0  0  0  0  0  0  0  0  0  0
   -5.5815    1.2139    0.3014 H   0  0  0  0  0  0  0  0  0  0  0  0
   -3.3005    1.7485   -0.5890 H   0  0  0  0  0  0  0  0  0  0  0  0
  1  2  2  0
  2  3  2  0
  2  4  1  0
  4  5  1  0
  5  6  1  0
  6  7  1  0
  7  8  1  0
  8  9  1  0
  9 10  1  0
 10 11  1  0
  2 12  1  0
 12 13  1  0
 13 14  2  0
 14 15  1  0
 15 16  2  0
 16 17  1  0
 17 18  2  0
 18 19  1  0
 19 20  2  0
 20 21  1  0
 11  7  1  0
 21 12  2  0
 20 15  1  0
  4 22  1  0
  5 23  1  0
  5 24  1  0
  6 25  1  0
  6 26  1  0
  8 27  1  0
  8 28  1  0
  9 29  1  0
  9 30  1  0
 10 31  1  0
 10 32  1  0
 11 33  1  0
 11 34  1  0
 13 35  1  0
 16 36  1  0
 17 37  1  0
 18 38  1  0
 19 39  1  0
 21 40  1  0
M  END
$$$$
OCNT-2315770
     RDKit          3D

 54 57  0  0  0  0  0  0  0  0999 V2000
   -0.2782   -1.9376   -3.3951 C   0  0  0  0  0  0  0  0  0  0  0  0
   -0.9257   -1.0958   -2.2910 C   0  0  0  0  0  0  0  0  0  0  0  0
    0.0225   -0.8955   -1.2054 N   0  0  0  0  0  0  0  0  0  0  0  0
    0.9294    0.1389   -1.2033 C   0  0  0  0  0  0  0  0  0  0  0  0
    0.9043    1.0484   -2.0231 O   0  0  0  0  0  0  0  0  0  0  0  0
    1.9222    0.0525   -0.0641 C   0  0  0  0  0  0  0  0  0  0  0  0
    3.0481    1.0701   -0.2216 C   0  0  0  0  0  0  0  0  0  0  0  0
    4.0818    0.9163    0.8687 C   0  0  0  0  0  0  0  0  0  0  0  0
    4.0495    1.7383    1.9994 C   0  0  0  0  0  0  0  0  0  0  0  0
    4.9845    1.5979    3.0319 C   0  0  0  0  0  0  0  0  0  0  0  0
    5.9539    0.5991    2.8986 C   0  0  0  0  0  0  0  0  0  0  0  0
    6.9837    0.2396    3.7398 N   0  0  0  0  0  0  0  0  0  0  0  0
    7.6938   -0.8024    3.2000 C   0  0  0  0  0  0  0  0  0  0  0  0
    7.1190   -1.1240    1.9893 C   0  0  0  0  0  0  0  0  0  0  0  0
    6.0192   -0.2405    1.7878 C   0  0  0  0  0  0  0  0  0  0  0  0
    5.0704   -0.0780    0.7597 C   0  0  0  0  0  0  0  0  0  0  0  0
   -2.2193   -1.6451   -1.7107 C   0  0  0  0  0  0  0  0  0  0  0  0
   -2.4916   -3.0262   -1.7333 C   0  0  0  0  0  0  0  0  0  0  0  0
   -3.6740   -3.5417   -1.1998 C   0  0  0  0  0  0  0  0  0  0  0  0
   -4.6039   -2.6883   -0.6213 C   0  0  0  0  0  0  0  0  0  0  0  0
   -4.3464   -1.3209   -0.5631 C   0  0  0  0  0  0  0  0  0  0  0  0
   -3.1651   -0.7907   -1.0990 C   0  0  0  0  0  0  0  0  0  0  0  0
   -2.9095    0.6178   -0.9722 N   0  0  0  0  0  0  0  0  0  0  0  0
   -3.9912    1.6971   -1.7081 S   0  0  0  0  0  0  0  0  0  0  0  0
   -3.2388    2.9006   -1.9733 O   0  0  0  0  0  0  0  0  0  0  0  0
   -4.7409    1.0118   -2.7347 O   0  0  0  0  0  0  0  0  0  0  0  0
   -5.1539    2.1832   -0.4493 C   0  0  0  0  0  0  0  0  0  0  0  0
   -5.0942    2.1346    0.9325 C   0  0  0  0  0  0  0  0  0  0  0  0
   -6.2614    2.6759    1.5443 C   0  0  0  0  0  0  0  0  0  0  0  0
   -7.1687    3.1241    0.6096 C   0  0  0  0  0  0  0  0  0  0  0  0
   -6.6142    2.8887   -0.9927 S   0  0  0  0  0  0  0  0  0  0  0  0
   -0.9916   -2.1591   -4.1980 H   0  0  0  0  0  0  0  0  0  0  0  0
    0.5688   -1.3996   -3.8372 H   0  0  0  0  0  0  0  0  0  0  0  0
    0.1176   -2.8854   -3.0090 H   0  0  0  0  0  0  0  0  0  0  0  0
   -1.1427   -0.1293   -2.7625 H   0  0  0  0  0  0  0  0  0  0  0  0
    0.1342   -1.6501   -0.5386 H   0  0  0  0  0  0  0  0  0  0  0  0
    2.3311   -0.9659   -0.0381 H   0  0  0  0  0  0  0  0  0  0  0  0
    1.3823    0.2215    0.8760 H   0  0  0  0  0  0  0  0  0  0  0  0
    2.6446    2.0911   -0.2127 H   0  0  0  0  0  0  0  0  0  0  0  0
    3.5361    0.9547   -1.1970 H   0  0  0  0  0  0  0  0  0  0  0  0
    3.2898    2.5137    2.0857 H   0  0  0  0  0  0  0  0  0  0  0  0
    4.9537    2.2480    3.8998 H   0  0  0  0  0  0  0  0  0  0  0  0
    7.1822    0.6836    4.6246 H   0  0  0  0  0  0  0  0  0  0  0  0
    8.5455   -1.2219    3.7188 H   0  0  0  0  0  0  0  0  0  0  0  0
    7.4527   -1.9039    1.3178 H   0  0  0  0  0  0  0  0  0  0  0  0
    5.1108   -0.7251   -0.1130 H   0  0  0  0  0  0  0  0  0  0  0  0
   -1.7877   -3.7291   -2.1685 H   0  0  0  0  0  0  0  0  0  0  0  0
   -3.8697   -4.6126   -1.2431 H   0  0  0  0  0  0  0  0  0  0  0  0
   -5.5279   -3.0870   -0.2102 H   0  0  0  0  0  0  0  0  0  0  0  0
   -5.0836   -0.6831   -0.0879 H   0  0  0  0  0  0  0  0  0  0  0  0
   -1.9550    0.9282   -1.1567 H   0  0  0  0  0  0  0  0  0  0  0  0
   -4.2425    1.7359    1.4731 H   0  0  0  0  0  0  0  0  0  0  0  0
   -6.4221    2.7430    2.6142 H   0  0  0  0  0  0  0  0  0  0  0  0
   -8.1320    3.5842    0.7876 H   0  0  0  0  0  0  0  0  0  0  0  0
  1  2  1  0
  2  3  1  0
  3  4  1  0
  4  5  2  0
  4  6  1  0
  6  7  1  0
  7  8  1  0
  8  9  2  0
  9 10  1  0
 10 11  2  0
 11 12  1  0
 12 13  1  0
 13 14  2  0
 14 15  1  0
 15 16  2  0
  2 17  1  0
 17 18  2  0
 18 19  1  0
 19 20  2  0
 20 21  1  0
 21 22  2  0
 22 23  1  0
 23 24  1  0
 24 25  2  0
 24 26  2  0
 24 27  1  0
 27 28  2  0
 28 29  1  0
 29 30  2  0
 30 31  1  0
 16  8  1  0
 22 17  1  0
 31 27  1  0
 15 11  1  0
  1 32  1  0
  1 33  1  0
  1 34  1  0
  2 35  1  0
  3 36  1  0
  6 37  1  0
  6 38  1  0
  7 39  1  0
  7 40  1  0
  9 41  1  0
 10 42  1  0
 12 43  1  0
 13 44  1  0
 14 45  1  0
 16 46  1  0
 18 47  1  0
 19 48  1  0
 20 49  1  0
 21 50  1  0
 23 51  1  0
 28 52  1  0
 29 53  1  0
 30 54  1  0
M  END
$$$$
OCNT-2315775
     RDKit          3D

 37 39  0  0  0  0  0  0  0  0999 V2000
   -1.5856    3.4358    0.9538 O   0  0  0  0  0  0  0  0  0  0  0  0
   -2.1882    2.4094    0.1608 C   0  0  0  0  0  0  0  0  0  0  0  0
   -1.8648    0.9918    0.7112 C   0  0  2  0  0  0  0  0  0  0  0  0
   -0.5416    0.4608    0.3532 N   0  0  0  0  0  0  0  0  0  0  0  0
    0.5656    1.3325    0.7425 C   0  0  0  0  0  0  0  0  0  0  0  0
    1.8348    0.6302    0.3774 C   0  0  0  0  0  0  0  0  0  0  0  0
    2.6457   -0.1627    1.1656 C   0  0  0  0  0  0  0  0  0  0  0  0
    3.6569   -0.5898    0.3472 N   0  0  0  0  0  0  0  0  0  0  0  0
    4.7402   -1.4158    0.6323 C   0  0  0  0  0  0  0  0  0  0  0  0
    5.6196   -1.7016   -0.3441 C   0  0  0  0  0  0  0  0  0  0  0  0
    5.4138   -1.1374   -1.6761 C   0  0  0  0  0  0  0  0  0  0  0  0
    6.6682   -1.5685   -2.9907 Br  0  0  0  0  0  0  0  0  0  0  0  0
    4.3582   -0.3389   -1.9374 C   0  0  0  0  0  0  0  0  0  0  0  0
    3.4247   -0.0350   -0.9060 C   0  0  0  0  0  0  0  0  0  0  0  0
    2.3336    0.7008   -0.9101 N   0  0  0  0  0  0  0  0  0  0  0  0
   -2.9300   -0.0112    0.2830 C   0  0  0  0  0  0  0  0  0  0  0  0
   -3.5462   -0.8310    1.2422 C   0  0  0  0  0  0  0  0  0  0  0  0
   -4.5226   -1.7567    0.8685 C   0  0  0  0  0  0  0  0  0  0  0  0
   -4.8903   -1.8822   -0.4691 C   0  0  0  0  0  0  0  0  0  0  0  0
   -4.2775   -1.0880   -1.4355 C   0  0  0  0  0  0  0  0  0  0  0  0
   -3.3007   -0.1617   -1.0643 C   0  0  0  0  0  0  0  0  0  0  0  0
   -2.0084    3.4081    1.8295 H   0  0  0  0  0  0  0  0  0  0  0  0
   -3.2680    2.5986    0.1616 H   0  0  0  0  0  0  0  0  0  0  0  0
   -1.8363    2.5263   -0.8701 H   0  0  0  0  0  0  0  0  0  0  0  0
   -1.8943    1.0599    1.8074 H   0  0  0  0  0  0  0  0  0  0  0  0
   -0.4803    0.3289   -0.6566 H   0  0  0  0  0  0  0  0  0  0  0  0
    0.5485    1.5308    1.8199 H   0  0  0  0  0  0  0  0  0  0  0  0
    0.5393    2.2874    0.2077 H   0  0  0  0  0  0  0  0  0  0  0  0
    2.5749   -0.4592    2.2016 H   0  0  0  0  0  0  0  0  0  0  0  0
    4.8268   -1.7975    1.6415 H   0  0  0  0  0  0  0  0  0  0  0  0
    6.4754   -2.3425   -0.1597 H   0  0  0  0  0  0  0  0  0  0  0  0
    4.1872    0.0890   -2.9183 H   0  0  0  0  0  0  0  0  0  0  0  0
   -3.2616   -0.7599    2.2897 H   0  0  0  0  0  0  0  0  0  0  0  0
   -4.9904   -2.3854    1.6215 H   0  0  0  0  0  0  0  0  0  0  0  0
   -5.6469   -2.6061   -0.7597 H   0  0  0  0  0  0  0  0  0  0  0  0
   -4.5544   -1.1948   -2.4812 H   0  0  0  0  0  0  0  0  0  0  0  0
   -2.8252    0.4352   -1.8392 H   0  0  0  0  0  0  0  0  0  0  0  0
  1  2  1  0
  2  3  1  0
  3  4  1  0
  4  5  1  0
  5  6  1  0
  6  7  2  0
  7  8  1  0
  8  9  1  0
  9 10  2  0
 10 11  1  0
 11 12  1  0
 11 13  2  0
 13 14  1  0
 14 15  2  0
  3 16  1  0
 16 17  2  0
 17 18  1  0
 18 19  2  0
 19 20  1  0
 20 21  2  0
 15  6  1  0
 21 16  1  0
 14  8  1  0
  1 22  1  0
  2 23  1  0
  2 24  1  0
  3 25  1  1
  4 26  1  0
  5 27  1  0
  5 28  1  0
  7 29  1  0
  9 30  1  0
 10 31  1  0
 13 32  1  0
 17 33  1  0
 18 34  1  0
 19 35  1  0
 20 36  1  0
 21 37  1  0
M  END
$$$$
OCNT-2315776
     RDKit          3D

 43 45  0  0  0  0  0  0  0  0999 V2000
   -3.0024   -2.4545    0.8052 C   0  0  0  0  0  0  0  0  0  0  0  0
   -3.2058   -1.0314    0.3473 C   0  0  0  0  0  0  0  0  0  0  0  0
   -2.2576   -0.0760    0.4626 C   0  0  0  0  0  0  0  0  0  0  0  0
   -0.9012   -0.2326    1.1080 C   0  0  0  0  0  0  0  0  0  0  0  0
    0.2046   -0.4569    0.0574 C   0  0  0  0  0  0  0  0  0  0  0  0
    1.5163   -0.7868    0.6525 N   0  0  0  0  0  0  0  0  0  0  0  0
    2.0946    0.3581    1.3994 C   0  0  0  0  0  0  0  0  0  0  0  0
    2.6173    1.5161    0.5130 C   0  0  0  0  0  0  0  0  0  0  0  0
    3.5708    1.1107   -0.5387 N   0  0  0  0  0  0  0  0  0  0  0  0
    4.8999    0.8566    0.0152 C   0  0  0  0  0  0  0  0  0  0  0  0
    3.0508   -0.0684   -1.2612 C   0  0  0  0  0  0  0  0  0  0  0  0
    2.5282   -1.2226   -0.3531 C   0  0  0  0  0  0  0  0  0  0  0  0
    2.0742   -2.4104   -1.2103 C   0  0  0  0  0  0  0  0  0  0  0  0
   -2.5673    1.2925   -0.0610 C   0  0  0  0  0  0  0  0  0  0  0  0
   -1.7347    2.1950    0.0040 O   0  0  0  0  0  0  0  0  0  0  0  0
   -3.8181    1.4332   -0.6051 N   0  0  0  0  0  0  0  0  0  0  0  0
   -4.3174    2.5996   -1.1441 C   0  0  0  0  0  0  0  0  0  0  0  0
   -5.5632    2.4875   -1.6190 C   0  0  0  0  0  0  0  0  0  0  0  0
   -6.1832    0.8725   -1.4078 S   0  0  0  0  0  0  0  0  0  0  0  0
   -4.6802    0.3674   -0.6518 C   0  0  0  0  0  0  0  0  0  0  0  0
   -4.4450   -0.8209   -0.2191 N   0  0  0  0  0  0  0  0  0  0  0  0
   -3.4294   -3.1521    0.0754 H   0  0  0  0  0  0  0  0  0  0  0  0
   -3.5041   -2.6155    1.7647 H   0  0  0  0  0  0  0  0  0  0  0  0
   -1.9492   -2.7270    0.9113 H   0  0  0  0  0  0  0  0  0  0  0  0
   -0.9055   -1.0633    1.8232 H   0  0  0  0  0  0  0  0  0  0  0  0
   -0.6959    0.6580    1.7128 H   0  0  0  0  0  0  0  0  0  0  0  0
   -0.1310   -1.2998   -0.5568 H   0  0  0  0  0  0  0  0  0  0  0  0
    0.2704    0.4065   -0.6139 H   0  0  0  0  0  0  0  0  0  0  0  0
    1.3841    0.7538    2.1318 H   0  0  0  0  0  0  0  0  0  0  0  0
    2.9244   -0.0251    2.0078 H   0  0  0  0  0  0  0  0  0  0  0  0
    3.0665    2.2875    1.1513 H   0  0  0  0  0  0  0  0  0  0  0  0
    1.7659    2.0079    0.0264 H   0  0  0  0  0  0  0  0  0  0  0  0
    5.6043    0.6033   -0.7850 H   0  0  0  0  0  0  0  0  0  0  0  0
    4.9172    0.0475    0.7519 H   0  0  0  0  0  0  0  0  0  0  0  0
    5.2910    1.7608    0.4951 H   0  0  0  0  0  0  0  0  0  0  0  0
    3.8217   -0.4522   -1.9422 H   0  0  0  0  0  0  0  0  0  0  0  0
    2.2372    0.2730   -1.9146 H   0  0  0  0  0  0  0  0  0  0  0  0
    3.3820   -1.6031    0.2247 H   0  0  0  0  0  0  0  0  0  0  0  0
    2.9286   -2.8336   -1.7506 H   0  0  0  0  0  0  0  0  0  0  0  0
    1.6541   -3.2073   -0.5872 H   0  0  0  0  0  0  0  0  0  0  0  0
    1.3293   -2.1216   -1.9587 H   0  0  0  0  0  0  0  0  0  0  0  0
   -3.7061    3.4934   -1.1528 H   0  0  0  0  0  0  0  0  0  0  0  0
   -6.1361    3.2801   -2.0805 H   0  0  0  0  0  0  0  0  0  0  0  0
  1  2  1  0
  2  3  2  0
  3  4  1  0
  4  5  1  0
  5  6  1  0
  6  7  1  0
  7  8  1  0
  8  9  1  0
  9 10  1  0
  9 11  1  0
 11 12  1  0
 12 13  1  0
  3 14  1  0
 14 15  2  0
 14 16  1  0
 16 17  1  0
 17 18  2  0
 18 19  1  0
 19 20  1  0
 20 21  2  0
 21  2  1  0
 12  6  1  0
 20 16  1  0
  1 22  1  0
  1 23  1  0
  1 24  1  0
  4 25  1  0
  4 26  1  0
  5 27  1  0
  5 28  1  0
  7 29  1  0
  7 30  1  0
  8 31  1  0
  8 32  1  0
 10 33  1  0
 10 34  1  0
 10 35  1  0
 11 36  1  0
 11 37  1  0
 12 38  1  0
 13 39  1  0
 13 40  1  0
 13 41  1  0
 17 42  1  0
 18 43  1  0
M  END
$$$$
OCNT-2315778
     RDKit          3D

 45 47  0  0  0  0  0  0  0  0999 V2000
   -1.9911   -2.0291   -0.2916 C   0  0  0  0  0  0  0  0  0  0  0  0
   -1.6780   -0.5357   -0.1592 C   0  0  0  0  0  0  0  0  0  0  0  0
   -2.2353    0.0581    1.1496 C   0  0  0  0  0  0  0  0  0  0  0  0
   -3.7429    0.0767    1.2309 C   0  0  0  0  0  0  0  0  0  0  0  0
   -4.4187   -0.7691    2.1216 C   0  0  0  0  0  0  0  0  0  0  0  0
   -5.8126   -0.7529    2.1907 C   0  0  0  0  0  0  0  0  0  0  0  0
   -6.5336    0.1074    1.3725 C   0  0  0  0  0  0  0  0  0  0  0  0
   -7.8932    0.0889    1.4722 O   0  0  0  0  0  0  0  0  0  0  0  0
   -5.8834    0.9567    0.4839 C   0  0  0  0  0  0  0  0  0  0  0  0
   -4.4884    0.9412    0.4152 C   0  0  0  0  0  0  0  0  0  0  0  0
   -0.2291   -0.3182   -0.2119 N   0  0  0  0  0  0  0  0  0  0  0  0
    0.4359   -0.2987   -1.4146 C   0  0  0  0  0  0  0  0  0  0  0  0
   -0.1432   -0.4338   -2.4881 O   0  0  0  0  0  0  0  0  0  0  0  0
    1.8101   -0.1120   -1.3069 N   0  0  0  0  0  0  0  0  0  0  0  0
    2.5603   -0.0603   -2.5584 C   0  0  0  0  0  0  0  0  0  0  0  0
    3.9953   -0.5422   -2.3680 C   0  0  0  0  0  0  0  0  0  0  0  0
    4.6687    0.1608   -1.2188 C   0  0  0  0  0  0  0  0  0  0  0  0
    6.0685    0.2243   -1.1574 C   0  0  0  0  0  0  0  0  0  0  0  0
    6.6931    0.8508   -0.0809 C   0  0  0  0  0  0  0  0  0  0  0  0
    8.4107    0.9316   -0.0175 Cl  0  0  0  0  0  0  0  0  0  0  0  0
    5.9366    1.4108    0.9446 C   0  0  0  0  0  0  0  0  0  0  0  0
    4.5432    1.3386    0.8966 C   0  0  0  0  0  0  0  0  0  0  0  0
    3.8962    0.7063   -0.1779 C   0  0  0  0  0  0  0  0  0  0  0  0
    2.3840    0.6496   -0.1966 C   0  0  0  0  0  0  0  0  0  0  0  0
   -1.5624   -2.4427   -1.2107 H   0  0  0  0  0  0  0  0  0  0  0  0
   -1.5715   -2.5950    0.5477 H   0  0  0  0  0  0  0  0  0  0  0  0
   -3.0698   -2.2104   -0.3223 H   0  0  0  0  0  0  0  0  0  0  0  0
   -2.1218   -0.0139   -1.0161 H   0  0  0  0  0  0  0  0  0  0  0  0
   -1.8187   -0.4840    2.0093 H   0  0  0  0  0  0  0  0  0  0  0  0
   -1.8806    1.0918    1.2640 H   0  0  0  0  0  0  0  0  0  0  0  0
   -3.8674   -1.4493    2.7665 H   0  0  0  0  0  0  0  0  0  0  0  0
   -6.3343   -1.4104    2.8802 H   0  0  0  0  0  0  0  0  0  0  0  0
   -8.2572    0.7273    0.8374 H   0  0  0  0  0  0  0  0  0  0  0  0
   -6.4385    1.6327   -0.1584 H   0  0  0  0  0  0  0  0  0  0  0  0
   -3.9849    1.6094   -0.2809 H   0  0  0  0  0  0  0  0  0  0  0  0
    0.2951   -0.7629    0.5263 H   0  0  0  0  0  0  0  0  0  0  0  0
    2.0768   -0.6794   -3.3224 H   0  0  0  0  0  0  0  0  0  0  0  0
    2.5360    0.9774   -2.9155 H   0  0  0  0  0  0  0  0  0  0  0  0
    4.0001   -1.6189   -2.1579 H   0  0  0  0  0  0  0  0  0  0  0  0
    4.5538   -0.3758   -3.2964 H   0  0  0  0  0  0  0  0  0  0  0  0
    6.6698   -0.2146   -1.9501 H   0  0  0  0  0  0  0  0  0  0  0  0
    6.4238    1.9012    1.7831 H   0  0  0  0  0  0  0  0  0  0  0  0
    3.9628    1.7783    1.7055 H   0  0  0  0  0  0  0  0  0  0  0  0
    2.0458    0.2182    0.7508 H   0  0  0  0  0  0  0  0  0  0  0  0
    1.9899    1.6712   -0.2676 H   0  0  0  0  0  0  0  0  0  0  0  0
  1  2  1  0
  2  3  1  0
  3  4  1  0
  4  5  1  0
  5  6  2  0
  6  7  1  0
  7  8  1  0
  7  9  2  0
  9 10  1  0
  2 11  1  0
 11 12  1  0
 12 13  2  0
 12 14  1  0
 14 15  1  0
 15 16  1  0
 16 17  1  0
 17 18  1  0
 18 19  2  0
 19 20  1  0
 19 21  1  0
 21 22  2  0
 22 23  1  0
 23 24  1  0
 10  4  2  0
 24 14  1  0
 23 17  2  0
  1 25  1  0
  1 26  1  0
  1 27  1  0
  2 28  1  0
  3 29  1  0
  3 30  1  0
  5 31  1  0
  6 32  1  0
  8 33  1  0
  9 34  1  0
 10 35  1  0
 11 36  1  0
 15 37  1  0
 15 38  1  0
 16 39  1  0
 16 40  1  0
 18 41  1  0
 21 42  1  0
 22 43  1  0
 24 44  1  0
 24 45  1  0
M  END
$$$$
OCNT-2315779
     RDKit          3D

 48 51  0  0  0  0  0  0  0  0999 V2000
   -5.3024    0.0886    1.5250 C   0  0  0  0  0  0  0  0  0  0  0  0
   -3.9493   -0.4525    1.6259 N   0  0  0  0  0  0  0  0  0  0  0  0
   -2.9246    0.5624    1.2947 C   0  0  0  0  0  0  0  0  0  0  0  0
   -2.3313    0.4474   -0.1278 C   0  0  0  0  0  0  0  0  0  0  0  0
   -1.6829   -0.8768   -0.3381 N   0  0  0  0  0  0  0  0  0  0  0  0
   -1.6477   -1.1417   -1.7340 C   0  0  0  0  0  0  0  0  0  0  0  0
   -2.6797   -1.8227   -2.2883 N   0  0  0  0  0  0  0  0  0  0  0  0
   -2.6471   -2.0691   -3.6149 C   0  0  0  0  0  0  0  0  0  0  0  0
   -1.6240   -1.6640   -4.4465 C   0  0  0  0  0  0  0  0  0  0  0  0
   -0.5673   -0.9654   -3.8799 C   0  0  0  0  0  0  0  0  0  0  0  0
   -0.5559   -0.6959   -2.5015 C   0  0  0  0  0  0  0  0  0  0  0  0
    0.6023    0.0849   -1.9203 C   0  0  0  0  0  0  0  0  0  0  0  0
    1.1150   -0.5445   -0.7123 N   0  0  0  0  0  0  0  0  0  0  0  0
    2.1401    0.0592   -0.0848 C   0  0  0  0  0  0  0  0  0  0  0  0
    2.9358    1.0068   -0.5186 N   0  0  0  0  0  0  0  0  0  0  0  0
    3.8090    1.2557    0.5102 C   0  0  0  0  0  0  0  0  0  0  0  0
    4.8646    2.1742    0.5776 C   0  0  0  0  0  0  0  0  0  0  0  0
    5.6125    2.2228    1.7651 C   0  0  0  0  0  0  0  0  0  0  0  0
    6.7260    3.1740    1.8667 N   0  0  0  0  0  0  0  0  0  0  0  0
    6.8830    3.9827    0.9408 O   0  0  0  0  0  0  0  0  0  0  0  0
    7.4445    3.1140    2.8751 O   0  0  0  0  0  0  0  0  0  0  0  0
    5.3223    1.3838    2.8544 C   0  0  0  0  0  0  0  0  0  0  0  0
    4.2677    0.4656    2.7908 C   0  0  0  0  0  0  0  0  0  0  0  0
    3.5382    0.4370    1.6012 C   0  0  0  0  0  0  0  0  0  0  0  0
    2.4681   -0.3162    1.1900 N   0  0  0  0  0  0  0  0  0  0  0  0
   -2.3427   -1.9744    0.4208 C   0  0  0  0  0  0  0  0  0  0  0  0
   -3.8119   -1.6530    0.7658 C   0  0  0  0  0  0  0  0  0  0  0  0
   -6.0439   -0.6741    1.7887 H   0  0  0  0  0  0  0  0  0  0  0  0
   -5.5276    0.4569    0.5178 H   0  0  0  0  0  0  0  0  0  0  0  0
   -5.4377    0.9147    2.2318 H   0  0  0  0  0  0  0  0  0  0  0  0
   -3.3063    1.5789    1.4521 H   0  0  0  0  0  0  0  0  0  0  0  0
   -2.1064    0.4386    2.0166 H   0  0  0  0  0  0  0  0  0  0  0  0
   -1.5838    1.2379   -0.2572 H   0  0  0  0  0  0  0  0  0  0  0  0
   -3.1339    0.6282   -0.8570 H   0  0  0  0  0  0  0  0  0  0  0  0
   -3.4986   -2.6206   -4.0028 H   0  0  0  0  0  0  0  0  0  0  0  0
   -1.6461   -1.8871   -5.5068 H   0  0  0  0  0  0  0  0  0  0  0  0
    0.2540   -0.6369   -4.5132 H   0  0  0  0  0  0  0  0  0  0  0  0
    1.4102    0.1508   -2.6604 H   0  0  0  0  0  0  0  0  0  0  0  0
    0.2638    1.1081   -1.7153 H   0  0  0  0  0  0  0  0  0  0  0  0
    0.3412   -0.9131   -0.1518 H   0  0  0  0  0  0  0  0  0  0  0  0
    5.0737    2.8120   -0.2746 H   0  0  0  0  0  0  0  0  0  0  0  0
    5.9127    1.4329    3.7690 H   0  0  0  0  0  0  0  0  0  0  0  0
    4.0352   -0.1876    3.6254 H   0  0  0  0  0  0  0  0  0  0  0  0
    2.0059   -1.0437    1.7115 H   0  0  0  0  0  0  0  0  0  0  0  0
   -2.2689   -2.9418   -0.0925 H   0  0  0  0  0  0  0  0  0  0  0  0
   -1.7815   -2.1028    1.3556 H   0  0  0  0  0  0  0  0  0  0  0  0
   -4.2495   -2.5082    1.2935 H   0  0  0  0  0  0  0  0  0  0  0  0
   -4.3750   -1.5261   -0.1676 H   0  0  0  0  0  0  0  0  0  0  0  0
  1  2  1  0
  2  3  1  0
  3  4  1  0
  4  5  1  0
  5  6  1  0
  6  7  1  0
  7  8  2  0
  8  9  1  0
  9 10  2  0
 10 11  1  0
 11 12  1  0
 12 13  1  0
 13 14  1  0
 14 15  2  0
 15 16  1  0
 16 17  2  0
 17 18  1  0
 18 19  1  0
 19 20  2  0
 19 21  1  0
 18 22  2  0
 22 23  1  0
 23 24  2  0
 24 25  1  0
  5 26  1  0
 26 27  1  0
 27  2  1  0
 11  6  2  0
 25 14  1  0
 24 16  1  0
  1 28  1  0
  1 29  1  0
  1 30  1  0
  3 31  1  0
  3 32  1  0
  4 33  1  0
  4 34  1  0
  8 35  1  0
  9 36  1  0
 10 37  1  0
 12 38  1  0
 12 39  1  0
 13 40  1  0
 17 41  1  0
 22 42  1  0
 23 43  1  0
 25 44  1  0
 26 45  1  0
 26 46  1  0
 27 47  1  0
 27 48  1  0
M  CHG  2  19   1  21  -1
M  END
$$$$
OCNT-2315781
     RDKit          3D

 57 59  0  0  0  0  0  0  0  0999 V2000
   -3.1834    1.7268   -1.1661 C   0  0  0  0  0  0  0  0  0  0  0  0
   -4.4033    1.3516   -0.3286 C   0  0  0  0  0  0  0  0  0  0  0  0
   -4.7075    2.4127    0.7241 C   0  0  0  0  0  0  0  0  0  0  0  0
   -4.2283   -0.0256    0.3002 C   0  0  0  0  0  0  0  0  0  0  0  0
   -4.9345   -0.9772   -0.0203 O   0  0  0  0  0  0  0  0  0  0  0  0
   -3.2196   -0.1222    1.2363 N   0  0  0  0  0  0  0  0  0  0  0  0
   -2.7922   -1.4304    1.7398 C   0  0  0  0  0  0  0  0  0  0  0  0
   -2.1120   -1.2847    3.1095 C   0  0  0  0  0  0  0  0  0  0  0  0
   -0.5836   -1.3068    3.0347 C   0  0  0  0  0  0  0  0  0  0  0  0
   -0.0651   -0.7138    1.7307 C   0  0  0  0  0  0  0  0  0  0  0  0
   -0.5635   -1.4436    0.5600 N   0  0  0  0  0  0  0  0  0  0  0  0
    0.1092   -1.6642   -0.6437 C   0  0  0  0  0  0  0  0  0  0  0  0
   -0.3876   -2.4251   -1.4824 O   0  0  0  0  0  0  0  0  0  0  0  0
    1.4714   -0.9784   -0.9450 C   0  0  0  0  0  0  0  0  0  0  0  0
    1.2666    0.5608   -0.9626 C   0  0  0  0  0  0  0  0  0  0  0  0
    2.4868    1.4529   -0.8836 C   0  0  0  0  0  0  0  0  0  0  0  0
    2.9861    1.8676    0.3609 C   0  0  0  0  0  0  0  0  0  0  0  0
    4.1048    2.7001    0.4415 C   0  0  0  0  0  0  0  0  0  0  0  0
    4.7345    3.1380   -0.7219 C   0  0  0  0  0  0  0  0  0  0  0  0
    4.2369    2.7448   -1.9614 C   0  0  0  0  0  0  0  0  0  0  0  0
    5.0798    3.3483   -3.5432 Br  0  0  0  0  0  0  0  0  0  0  0  0
    3.1188    1.9138   -2.0475 C   0  0  0  0  0  0  0  0  0  0  0  0
    1.9854   -1.4370   -2.3426 C   0  0  0  0  0  0  0  0  0  0  0  0
    2.9133   -2.5968   -2.0454 C   0  0  0  0  0  0  0  0  0  0  0  0
    3.6019   -2.1195   -0.8510 N   0  0  0  0  0  0  0  0  0  0  0  0
    2.5426   -1.5650   -0.0012 C   0  0  0  0  0  0  0  0  0  0  0  0
   -1.8648   -2.1267    0.7249 C   0  0  0  0  0  0  0  0  0  0  0  0
   -2.9446    0.9327   -1.8821 H   0  0  0  0  0  0  0  0  0  0  0  0
   -2.2946    1.8899   -0.5473 H   0  0  0  0  0  0  0  0  0  0  0  0
   -3.3711    2.6467   -1.7296 H   0  0  0  0  0  0  0  0  0  0  0  0
   -5.2697    1.2821   -0.9992 H   0  0  0  0  0  0  0  0  0  0  0  0
   -3.8579    2.5793    1.3947 H   0  0  0  0  0  0  0  0  0  0  0  0
   -5.5616    2.1131    1.3408 H   0  0  0  0  0  0  0  0  0  0  0  0
   -4.9512    3.3687    0.2492 H   0  0  0  0  0  0  0  0  0  0  0  0
   -2.5525    0.6345    1.2716 H   0  0  0  0  0  0  0  0  0  0  0  0
   -3.6972   -2.0373    1.8642 H   0  0  0  0  0  0  0  0  0  0  0  0
   -2.4439   -0.3636    3.6046 H   0  0  0  0  0  0  0  0  0  0  0  0
   -2.4279   -2.1092    3.7610 H   0  0  0  0  0  0  0  0  0  0  0  0
   -0.1667   -0.7649    3.8910 H   0  0  0  0  0  0  0  0  0  0  0  0
   -0.2357   -2.3444    3.1199 H   0  0  0  0  0  0  0  0  0  0  0  0
   -0.4042    0.3238    1.6456 H   0  0  0  0  0  0  0  0  0  0  0  0
    1.0220   -0.6950    1.7505 H   0  0  0  0  0  0  0  0  0  0  0  0
    0.5934    0.8857   -0.1655 H   0  0  0  0  0  0  0  0  0  0  0  0
    0.7065    0.8258   -1.8722 H   0  0  0  0  0  0  0  0  0  0  0  0
    2.5086    1.5434    1.2825 H   0  0  0  0  0  0  0  0  0  0  0  0
    4.4864    3.0067    1.4121 H   0  0  0  0  0  0  0  0  0  0  0  0
    5.6056    3.7836   -0.6524 H   0  0  0  0  0  0  0  0  0  0  0  0
    2.7383    1.6277   -3.0252 H   0  0  0  0  0  0  0  0  0  0  0  0
    1.1971   -1.7217   -3.0459 H   0  0  0  0  0  0  0  0  0  0  0  0
    2.5669   -0.6521   -2.8361 H   0  0  0  0  0  0  0  0  0  0  0  0
    2.3553   -3.5171   -1.8385 H   0  0  0  0  0  0  0  0  0  0  0  0
    3.6123   -2.7842   -2.8651 H   0  0  0  0  0  0  0  0  0  0  0  0
    4.0845   -2.8851   -0.3835 H   0  0  0  0  0  0  0  0  0  0  0  0
    2.1389   -2.3811    0.6110 H   0  0  0  0  0  0  0  0  0  0  0  0
    2.9806   -0.8347    0.6810 H   0  0  0  0  0  0  0  0  0  0  0  0
   -1.6441   -3.1478    1.0603 H   0  0  0  0  0  0  0  0  0  0  0  0
   -2.3662   -2.2060   -0.2464 H   0  0  0  0  0  0  0  0  0  0  0  0
  1  2  1  0
  2  3  1  0
  2  4  1  0
  4  5  2  0
  4  6  1  0
  6  7  1  0
  7  8  1  0
  8  9  1  0
  9 10  1  0
 10 11  1  0
 11 12  1  0
 12 13  2  0
 12 14  1  0
 14 15  1  0
 15 16  1  0
 16 17  2  0
 17 18  1  0
 18 19  2  0
 19 20  1  0
 20 21  1  0
 20 22  2  0
 14 23  1  0
 23 24  1  0
 24 25  1  0
 25 26  1  0
 11 27  1  0
 27  7  1  0
 26 14  1  0
 22 16  1  0
  1 28  1  0
  1 29  1  0
  1 30  1  0
  2 31  1  0
  3 32  1  0
  3 33  1  0
  3 34  1  0
  6 35  1  0
  7 36  1  0
  8 37  1  0
  8 38  1  0
  9 39  1  0
  9 40  1  0
 10 41  1  0
 10 42  1  0
 15 43  1  0
 15 44  1  0
 17 45  1  0
 18 46  1  0
 19 47  1  0
 22 48  1  0
 23 49  1  0
 23 50  1  0
 24 51  1  0
 24 52  1  0
 25 53  1  0
 26 54  1  0
 26 55  1  0
 27 56  1  0
 27 57  1  0
M  END
$$$$
OCNT-2315799
     RDKit          3D

  0  0  0  0  0  0  0  0  0  0999 V3000
M  V30 BEGIN CTAB
M  V30 COUNTS 56 59 0 0 0
M  V30 BEGIN ATOM
M  V30 1 C 2.392622 -0.026053 -2.915384 0
M  V30 2 N 3.537354 -0.709355 -2.361993 0
M  V30 3 C 4.404416 -1.490117 -3.074449 0
M  V30 4 C 5.299208 -1.966343 -2.150638 0
M  V30 5 N 4.991902 -1.503420 -0.900038 0
M  V30 6 C 3.937101 -0.718136 -1.040295 0
M  V30 7 C 3.205584 0.037596 0.043734 0 CFG=2
M  V30 8 O 4.114573 0.545268 1.030812 0
M  V30 9 C 4.735869 -0.435388 1.863728 0
M  V30 10 C 3.871158 -1.657254 2.158329 0
M  V30 11 C 2.396650 -1.315780 2.066478 0
M  V30 12 C 2.045365 -0.770665 0.675563 0 CFG=1
M  V30 13 N 0.836730 0.061986 0.787942 0
M  V30 14 C -0.428746 -0.456037 0.617067 0
M  V30 15 O -0.641437 -1.612956 0.275612 0
M  V30 16 C -1.525564 0.548099 0.925373 0
M  V30 17 C -2.868741 0.216217 0.265104 0
M  V30 18 C -3.006428 0.685509 -1.198494 0
M  V30 19 C -2.009651 0.159191 -2.270343 0
M  V30 20 C -1.314427 1.529283 -2.253657 0
M  V30 21 C -2.592816 2.122248 -1.635961 0
M  V30 22 C -3.995656 0.984251 0.972216 0
M  V30 23 C -5.470767 0.584908 0.656834 0
M  V30 24 C -5.786361 0.836835 2.142517 0
M  V30 25 C -4.304594 0.535909 2.433512 0
M  V30 26 H 2.327308 -0.229784 -3.987058 0
M  V30 27 H 2.512463 1.048224 -2.754262 0
M  V30 28 H 1.492382 -0.394580 -2.417069 0
M  V30 29 H 4.317820 -1.641673 -4.141094 0
M  V30 30 H 6.145152 -2.620503 -2.319521 0
M  V30 31 H 2.790972 0.938822 -0.423378 0
M  V30 32 H 4.969180 0.073680 2.806166 0
M  V30 33 H 5.699585 -0.728334 1.432629 0
M  V30 34 H 4.099269 -2.454652 1.442210 0
M  V30 35 H 4.119867 -2.060242 3.146529 0
M  V30 36 H 2.155899 -0.575793 2.840985 0
M  V30 37 H 1.785298 -2.198493 2.285723 0
M  V30 38 H 1.794153 -1.614486 0.020317 0
M  V30 39 H 0.931086 0.942434 1.281298 0
M  V30 40 H -1.631255 0.529676 2.017468 0
M  V30 41 H -1.191605 1.557839 0.666456 0
M  V30 42 H -3.067977 -0.861866 0.316644 0
M  V30 43 H -4.028086 0.451215 -1.536722 0
M  V30 44 H -1.385576 -0.695096 -2.003575 0
M  V30 45 H -2.491818 -0.064711 -3.230734 0
M  V30 46 H -1.037478 1.928571 -3.232457 0
M  V30 47 H -0.437671 1.579062 -1.600404 0
M  V30 48 H -2.430602 2.859977 -0.846189 0
M  V30 49 H -3.271606 2.557023 -2.379872 0
M  V30 50 H -3.849268 2.074169 0.922661 0
M  V30 51 H -5.997155 1.232125 -0.050329 0
M  V30 52 H -5.603688 -0.459711 0.351796 0
M  V30 53 H -6.508549 0.155230 2.598019 0
M  V30 54 H -6.078870 1.868970 2.363291 0
M  V30 55 H -3.847717 1.140037 3.221703 0
M  V30 56 H -4.104857 -0.522927 2.636434 0
M  V30 END ATOM
M  V30 BEGIN BOND
M  V30 1 1 1 2
M  V30 2 1 2 3
M  V30 3 2 3 4
M  V30 4 1 4 5
M  V30 5 2 5 6
M  V30 6 1 6 7
M  V30 7 1 7 8
M  V30 8 1 8 9
M  V30 9 1 9 10
M  V30 10 1 10 11
M  V30 11 1 11 12
M  V30 12 1 12 13
M  V30 13 1 13 14
M  V30 14 2 14 15
M  V30 15 1 14 16
M  V30 16 1 16 17
M  V30 17 1 17 18
M  V30 18 1 18 19
M  V30 19 1 19 20
M  V30 20 1 20 21
M  V30 21 1 17 22
M  V30 22 1 22 23
M  V30 23 1 23 24
M  V30 24 1 24 25
M  V30 25 1 6 2
M  V30 26 1 12 7
M  V30 27 1 21 18
M  V30 28 1 25 22
M  V30 29 1 1 26
M  V30 30 1 1 27
M  V30 31 1 1 28
M  V30 32 1 3 29
M  V30 33 1 4 30
M  V30 34 1 7 31 CFG=3
M  V30 35 1 9 32
M  V30 36 1 9 33
M  V30 37 1 10 34
M  V30 38 1 10 35
M  V30 39 1 11 36
M  V30 40 1 11 37
M  V30 41 1 12 38 CFG=3
M  V30 42 1 13 39
M  V30 43 1 16 40
M  V30 44 1 16 41
M  V30 45 1 17 42
M  V30 46 1 18 43
M  V30 47 1 19 44
M  V30 48 1 19 45
M  V30 49 1 20 46
M  V30 50 1 20 47
M  V30 51 1 21 48
M  V30 52 1 21 49
M  V30 53 1 22 50
M  V30 54 1 23 51
M  V30 55 1 23 52
M  V30 56 1 24 53
M  V30 57 1 24 54
M  V30 58 1 25 55
M  V30 59 1 25 56
M  V30 END BOND
M  V30 BEGIN COLLECTION
M  V30 MDLV30/STERAC1 ATOMS=(2 7 12)
M  V30 END COLLECTION
M  V30 END CTAB
M  END
>  <_CXSMILES_Data>  (1022) 
|&1:6,11|

$$$$
OCNT-2315805
     RDKit          3D

 47 49  0  0  0  0  0  0  0  0999 V2000
    6.4384    0.7135   -0.0334 C   0  0  0  0  0  0  0  0  0  0  0  0
    5.5211    1.3167    0.9204 N   0  0  0  0  0  0  0  0  0  0  0  0
    6.0942    2.2760    1.8474 C   0  0  0  0  0  0  0  0  0  0  0  0
    4.1614    0.9982    1.0292 C   0  0  0  0  0  0  0  0  0  0  0  0
    3.3962    1.6570    1.7386 O   0  0  0  0  0  0  0  0  0  0  0  0
    3.5832   -0.1673    0.2751 C   0  0  0  0  0  0  0  0  0  0  0  0
    2.2251   -0.1415   -0.0450 C   0  0  0  0  0  0  0  0  0  0  0  0
    1.6348   -1.2202   -0.7113 C   0  0  0  0  0  0  0  0  0  0  0  0
    0.3036   -1.2247   -1.0590 N   0  0  0  0  0  0  0  0  0  0  0  0
   -0.4083   -2.4000   -1.5654 C   0  0  0  0  0  0  0  0  0  0  0  0
   -1.8873   -2.0439   -1.4156 C   0  0  0  0  0  0  0  0  0  0  0  0
   -1.8873   -0.5229   -1.5427 C   0  0  0  0  0  0  0  0  0  0  0  0
   -3.1642    0.1802   -1.0876 C   0  0  0  0  0  0  0  0  0  0  0  0
   -3.5714   -0.2214    0.2566 N   0  0  0  0  0  0  0  0  0  0  0  0
   -4.7085    0.4426    0.7248 C   0  0  0  0  0  0  0  0  0  0  0  0
   -5.9394    0.3564    0.0839 C   0  0  0  0  0  0  0  0  0  0  0  0
   -7.0312    1.0373    0.6176 C   0  0  0  0  0  0  0  0  0  0  0  0
   -6.8648    1.7782    1.7791 C   0  0  0  0  0  0  0  0  0  0  0  0
   -5.6087    1.7997    2.3584 C   0  0  0  0  0  0  0  0  0  0  0  0
   -4.5351    1.1487    1.8569 N   0  0  0  0  0  0  0  0  0  0  0  0
   -0.6229   -0.1248   -0.7776 C   0  0  0  0  0  0  0  0  0  0  0  0
    2.4818   -2.2902   -1.0164 C   0  0  0  0  0  0  0  0  0  0  0  0
    3.8208   -2.2490   -0.6507 C   0  0  0  0  0  0  0  0  0  0  0  0
    4.3944   -1.2155   -0.0092 N   0  0  0  0  0  0  0  0  0  0  0  0
    5.9269    0.4568   -0.9639 H   0  0  0  0  0  0  0  0  0  0  0  0
    7.2322    1.4267   -0.2773 H   0  0  0  0  0  0  0  0  0  0  0  0
    6.8831   -0.1773    0.4185 H   0  0  0  0  0  0  0  0  0  0  0  0
    5.3687    2.6264    2.5857 H   0  0  0  0  0  0  0  0  0  0  0  0
    6.9270    1.8004    2.3744 H   0  0  0  0  0  0  0  0  0  0  0  0
    6.4648    3.1347    1.2799 H   0  0  0  0  0  0  0  0  0  0  0  0
    1.6432    0.7274    0.2428 H   0  0  0  0  0  0  0  0  0  0  0  0
   -0.1564   -2.5617   -2.6196 H   0  0  0  0  0  0  0  0  0  0  0  0
   -0.1833   -3.3086   -0.9964 H   0  0  0  0  0  0  0  0  0  0  0  0
   -2.5075   -2.5329   -2.1727 H   0  0  0  0  0  0  0  0  0  0  0  0
   -2.2397   -2.3653   -0.4285 H   0  0  0  0  0  0  0  0  0  0  0  0
   -1.7304   -0.2709   -2.6020 H   0  0  0  0  0  0  0  0  0  0  0  0
   -3.0112    1.2665   -1.1284 H   0  0  0  0  0  0  0  0  0  0  0  0
   -3.9532   -0.0700   -1.8074 H   0  0  0  0  0  0  0  0  0  0  0  0
   -2.8732    0.0244    0.9601 H   0  0  0  0  0  0  0  0  0  0  0  0
   -6.0594   -0.2496   -0.8064 H   0  0  0  0  0  0  0  0  0  0  0  0
   -8.0020    0.9793    0.1348 H   0  0  0  0  0  0  0  0  0  0  0  0
   -7.6919    2.3174    2.2263 H   0  0  0  0  0  0  0  0  0  0  0  0
   -5.4236    2.3570    3.2722 H   0  0  0  0  0  0  0  0  0  0  0  0
   -0.2471    0.8357   -1.1474 H   0  0  0  0  0  0  0  0  0  0  0  0
   -0.7952   -0.0531    0.3015 H   0  0  0  0  0  0  0  0  0  0  0  0
    2.1197   -3.1661   -1.5423 H   0  0  0  0  0  0  0  0  0  0  0  0
    4.4825   -3.0801   -0.8778 H   0  0  0  0  0  0  0  0  0  0  0  0
  1  2  1  0
  2  3  1  0
  2  4  1  0
  4  5  2  0
  4  6  1  0
  6  7  2  0
  7  8  1  0
  8  9  1  0
  9 10  1  0
 10 11  1  0
 11 12  1  0
 12 13  1  0
 13 14  1  0
 14 15  1  0
 15 16  2  0
 16 17  1  0
 17 18  2  0
 18 19  1  0
 19 20  2  0
 12 21  1  0
  8 22  2  0
 22 23  1  0
 23 24  2  0
 24  6  1  0
 21  9  1  0
 20 15  1  0
  1 25  1  0
  1 26  1  0
  1 27  1  0
  3 28  1  0
  3 29  1  0
  3 30  1  0
  7 31  1  0
 10 32  1  0
 10 33  1  0
 11 34  1  0
 11 35  1  0
 12 36  1  0
 13 37  1  0
 13 38  1  0
 14 39  1  0
 16 40  1  0
 17 41  1  0
 18 42  1  0
 19 43  1  0
 21 44  1  0
 21 45  1  0
 22 46  1  0
 23 47  1  0
M  END
$$$$
OCNT-2315811
     RDKit          3D

 52 55  0  0  0  0  0  0  0  0999 V2000
   -3.1934   -1.3582    1.1783 O   0  0  0  0  0  0  0  0  0  0  0  0
   -4.0285   -1.2890    0.2893 C   0  0  0  0  0  0  0  0  0  0  0  0
   -5.2232   -2.2113    0.2208 C   0  0  0  0  0  0  0  0  0  0  0  0
   -5.7012   -2.0528   -1.2077 C   0  0  0  0  0  0  0  0  0  0  0  0
   -5.3287   -0.6243   -1.5434 C   0  0  0  0  0  0  0  0  0  0  0  0
   -4.1307   -0.3768   -0.7745 N   0  0  0  0  0  0  0  0  0  0  0  0
   -3.2765    0.7346   -1.0212 C   0  0  0  0  0  0  0  0  0  0  0  0
   -3.5960    1.6795   -2.0087 C   0  0  0  0  0  0  0  0  0  0  0  0
   -2.7627    2.7733   -2.2664 C   0  0  0  0  0  0  0  0  0  0  0  0
   -1.5889    2.9452   -1.5404 C   0  0  0  0  0  0  0  0  0  0  0  0
   -1.2414    2.0250   -0.5474 C   0  0  0  0  0  0  0  0  0  0  0  0
    0.0382    2.1864    0.2401 C   0  0  0  0  0  0  0  0  0  0  0  0
    1.2415    1.8174   -0.5118 N   0  0  0  0  0  0  0  0  0  0  0  0
    1.3944    0.3761   -0.7713 C   0  0  0  0  0  0  0  0  0  0  0  0
    2.4886    0.1922   -1.8382 C   0  0  0  0  0  0  0  0  0  0  0  0
    3.1759   -1.1510   -1.6701 C   0  0  0  0  0  0  0  0  0  0  0  0
    3.8714   -1.2430   -0.4291 O   0  0  0  0  0  0  0  0  0  0  0  0
    3.2049   -0.6708    0.7087 C   0  0  0  0  0  0  0  0  0  0  0  0
    3.4669   -1.5964    1.9048 C   0  0  0  0  0  0  0  0  0  0  0  0
    4.9174   -1.3246    2.2960 C   0  0  0  0  0  0  0  0  0  0  0  0
    5.2231    0.0926    1.8165 C   0  0  0  0  0  0  0  0  0  0  0  0
    3.9476    0.5991    1.1433 C   0  0  0  0  0  0  0  0  0  0  0  0
    1.7053   -0.4671    0.4781 C   0  0  0  0  0  0  0  0  0  0  0  0
   -2.0904    0.9290   -0.3009 C   0  0  0  0  0  0  0  0  0  0  0  0
   -5.9737   -1.8691    0.9402 H   0  0  0  0  0  0  0  0  0  0  0  0
   -4.9353   -3.2429    0.4394 H   0  0  0  0  0  0  0  0  0  0  0  0
   -6.7692   -2.2542   -1.3278 H   0  0  0  0  0  0  0  0  0  0  0  0
   -5.1514   -2.7445   -1.8583 H   0  0  0  0  0  0  0  0  0  0  0  0
   -6.1064    0.0765   -1.2185 H   0  0  0  0  0  0  0  0  0  0  0  0
   -5.1522   -0.5215   -2.6184 H   0  0  0  0  0  0  0  0  0  0  0  0
   -4.5046    1.6011   -2.5971 H   0  0  0  0  0  0  0  0  0  0  0  0
   -3.0353    3.4929   -3.0343 H   0  0  0  0  0  0  0  0  0  0  0  0
   -0.9488    3.7996   -1.7475 H   0  0  0  0  0  0  0  0  0  0  0  0
   -0.0251    1.6552    1.1956 H   0  0  0  0  0  0  0  0  0  0  0  0
    0.1296    3.2438    0.5200 H   0  0  0  0  0  0  0  0  0  0  0  0
    1.2237    2.3190   -1.3994 H   0  0  0  0  0  0  0  0  0  0  0  0
    0.4645   -0.0089   -1.2076 H   0  0  0  0  0  0  0  0  0  0  0  0
    2.0490    0.2756   -2.8391 H   0  0  0  0  0  0  0  0  0  0  0  0
    3.2457    0.9827   -1.7596 H   0  0  0  0  0  0  0  0  0  0  0  0
    2.4593   -1.9775   -1.7375 H   0  0  0  0  0  0  0  0  0  0  0  0
    3.9114   -1.2987   -2.4671 H   0  0  0  0  0  0  0  0  0  0  0  0
    3.3231   -2.6538    1.6590 H   0  0  0  0  0  0  0  0  0  0  0  0
    2.8110   -1.3449    2.7473 H   0  0  0  0  0  0  0  0  0  0  0  0
    5.5879   -2.0378    1.8026 H   0  0  0  0  0  0  0  0  0  0  0  0
    5.0646   -1.4305    3.3756 H   0  0  0  0  0  0  0  0  0  0  0  0
    6.0525    0.0719    1.1000 H   0  0  0  0  0  0  0  0  0  0  0  0
    5.5212    0.7463    2.6426 H   0  0  0  0  0  0  0  0  0  0  0  0
    3.3547    1.1674    1.8704 H   0  0  0  0  0  0  0  0  0  0  0  0
    4.2013    1.2631    0.3125 H   0  0  0  0  0  0  0  0  0  0  0  0
    1.2449   -1.4544    0.3256 H   0  0  0  0  0  0  0  0  0  0  0  0
    1.2264   -0.0647    1.3768 H   0  0  0  0  0  0  0  0  0  0  0  0
   -1.7820    0.2229    0.4645 H   0  0  0  0  0  0  0  0  0  0  0  0
  1  2  2  0
  2  3  1  0
  3  4  1  0
  4  5  1  0
  5  6  1  0
  6  7  1  0
  7  8  1  0
  8  9  2  0
  9 10  1  0
 10 11  2  0
 11 12  1  0
 12 13  1  0
 13 14  1  0
 14 15  1  0
 15 16  1  0
 16 17  1  0
 17 18  1  0
 18 19  1  0
 19 20  1  0
 20 21  1  0
 21 22  1  0
 18 23  1  0
 11 24  1  0
  6  2  1  0
 24  7  2  0
 23 14  1  0
 22 18  1  0
  3 25  1  0
  3 26  1  0
  4 27  1  0
  4 28  1  0
  5 29  1  0
  5 30  1  0
  8 31  1  0
  9 32  1  0
 10 33  1  0
 12 34  1  0
 12 35  1  0
 13 36  1  0
 14 37  1  0
 15 38  1  0
 15 39  1  0
 16 40  1  0
 16 41  1  0
 19 42  1  0
 19 43  1  0
 20 44  1  0
 20 45  1  0
 21 46  1  0
 21 47  1  0
 22 48  1  0
 22 49  1  0
 23 50  1  0
 23 51  1  0
 24 52  1  0
M  END
$$$$
OCNT-2315827
     RDKit          3D

 54 56  0  0  0  0  0  0  0  0999 V2000
    7.8029   -1.8851    0.4976 C   0  0  0  0  0  0  0  0  0  0  0  0
    6.7519   -0.9307    0.4182 O   0  0  0  0  0  0  0  0  0  0  0  0
    6.9398    0.1577   -0.3993 C   0  0  0  0  0  0  0  0  0  0  0  0
    8.1801    0.4930   -0.9639 C   0  0  0  0  0  0  0  0  0  0  0  0
    8.3051    1.5990   -1.8062 C   0  0  0  0  0  0  0  0  0  0  0  0
    7.1947    2.3808   -2.0947 C   0  0  0  0  0  0  0  0  0  0  0  0
    5.9595    2.0612   -1.5311 C   0  0  0  0  0  0  0  0  0  0  0  0
    5.8027    0.9566   -0.6659 C   0  0  0  0  0  0  0  0  0  0  0  0
    4.4703    0.6851   -0.0943 C   0  0  0  0  0  0  0  0  0  0  0  0
    4.2465    0.3742    1.2389 C   0  0  0  0  0  0  0  0  0  0  0  0
    2.9415    0.1612    1.6831 C   0  0  0  0  0  0  0  0  0  0  0  0
    1.8838    0.2649    0.7919 C   0  0  0  0  0  0  0  0  0  0  0  0
    0.5764    0.0647    1.2808 N   0  0  0  0  0  0  0  0  0  0  0  0
   -0.4579    0.1435    0.2498 C   0  0  0  0  0  0  0  0  0  0  0  0
   -1.8289   -0.0926    0.8879 C   0  0  0  0  0  0  0  0  0  0  0  0
   -2.9390    0.0040   -0.1667 C   0  0  0  0  0  0  0  0  0  0  0  0
   -4.2892   -0.1417    0.4175 N   0  0  0  0  0  0  0  0  0  0  0  0
   -4.5930   -1.5521    0.7235 C   0  0  0  0  0  0  0  0  0  0  0  0
   -5.7663   -1.6875    1.6920 C   0  0  0  0  0  0  0  0  0  0  0  0
   -7.1393   -1.6956    1.0323 C   0  0  0  0  0  0  0  0  0  0  0  0
   -7.2616   -0.9165   -0.1477 O   0  0  0  0  0  0  0  0  0  0  0  0
   -6.7507    0.4128   -0.0264 C   0  0  0  0  0  0  0  0  0  0  0  0
   -7.6168    1.2874   -0.9304 C   0  0  0  0  0  0  0  0  0  0  0  0
   -5.2843    0.4496   -0.5091 C   0  0  0  0  0  0  0  0  0  0  0  0
    2.1286    0.5992   -0.4899 N   0  0  0  0  0  0  0  0  0  0  0  0
    3.4207    0.8041   -0.9382 N   0  0  0  0  0  0  0  0  0  0  0  0
    7.4392   -2.7322    1.0873 H   0  0  0  0  0  0  0  0  0  0  0  0
    8.0757   -2.2627   -0.4934 H   0  0  0  0  0  0  0  0  0  0  0  0
    8.6712   -1.4684    1.0177 H   0  0  0  0  0  0  0  0  0  0  0  0
    9.0741   -0.0891   -0.7665 H   0  0  0  0  0  0  0  0  0  0  0  0
    9.2707    1.8458   -2.2401 H   0  0  0  0  0  0  0  0  0  0  0  0
    7.2841    3.2390   -2.7557 H   0  0  0  0  0  0  0  0  0  0  0  0
    5.0995    2.6878   -1.7676 H   0  0  0  0  0  0  0  0  0  0  0  0
    5.0713    0.3075    1.9404 H   0  0  0  0  0  0  0  0  0  0  0  0
    2.7592   -0.0696    2.7271 H   0  0  0  0  0  0  0  0  0  0  0  0
    0.5496   -0.8171    1.7856 H   0  0  0  0  0  0  0  0  0  0  0  0
   -0.2836   -0.6146   -0.5243 H   0  0  0  0  0  0  0  0  0  0  0  0
   -0.4465    1.1342   -0.2219 H   0  0  0  0  0  0  0  0  0  0  0  0
   -2.0002    0.6514    1.6766 H   0  0  0  0  0  0  0  0  0  0  0  0
   -1.8287   -1.0740    1.3747 H   0  0  0  0  0  0  0  0  0  0  0  0
   -2.7795   -0.7318   -0.9658 H   0  0  0  0  0  0  0  0  0  0  0  0
   -2.8483    0.9951   -0.6309 H   0  0  0  0  0  0  0  0  0  0  0  0
   -3.7363   -2.0059    1.2327 H   0  0  0  0  0  0  0  0  0  0  0  0
   -4.7541   -2.1419   -0.1878 H   0  0  0  0  0  0  0  0  0  0  0  0
   -5.7222   -0.8793    2.4341 H   0  0  0  0  0  0  0  0  0  0  0  0
   -5.6606   -2.6132    2.2718 H   0  0  0  0  0  0  0  0  0  0  0  0
   -7.3910   -2.7235    0.7478 H   0  0  0  0  0  0  0  0  0  0  0  0
   -7.9042   -1.3776    1.7502 H   0  0  0  0  0  0  0  0  0  0  0  0
   -6.8452    0.7845    1.0018 H   0  0  0  0  0  0  0  0  0  0  0  0
   -7.5774    0.9415   -1.9693 H   0  0  0  0  0  0  0  0  0  0  0  0
   -8.6660    1.2324   -0.6200 H   0  0  0  0  0  0  0  0  0  0  0  0
   -7.2992    2.3341   -0.8957 H   0  0  0  0  0  0  0  0  0  0  0  0
   -5.2144   -0.0524   -1.4841 H   0  0  0  0  0  0  0  0  0  0  0  0
   -5.0148    1.5030   -0.6591 H   0  0  0  0  0  0  0  0  0  0  0  0
  1  2  1  0
  2  3  1  0
  3  4  2  0
  4  5  1  0
  5  6  2  0
  6  7  1  0
  7  8  2  0
  8  9  1  0
  9 10  2  0
 10 11  1  0
 11 12  2  0
 12 13  1  0
 13 14  1  0
 14 15  1  0
 15 16  1  0
 16 17  1  0
 17 18  1  0
 18 19  1  0
 19 20  1  0
 20 21  1  0
 21 22  1  0
 22 23  1  0
 22 24  1  0
 12 25  1  0
 25 26  2  0
  8  3  1  0
 26  9  1  0
 24 17  1  0
  1 27  1  0
  1 28  1  0
  1 29  1  0
  4 30  1  0
  5 31  1  0
  6 32  1  0
  7 33  1  0
 10 34  1  0
 11 35  1  0
 13 36  1  0
 14 37  1  0
 14 38  1  0
 15 39  1  0
 15 40  1  0
 16 41  1  0
 16 42  1  0
 18 43  1  0
 18 44  1  0
 19 45  1  0
 19 46  1  0
 20 47  1  0
 20 48  1  0
 22 49  1  0
 23 50  1  0
 23 51  1  0
 23 52  1  0
 24 53  1  0
 24 54  1  0
M  END
$$$$
OCNT-2315832
     RDKit          3D

 51 54  0  0  0  0  0  0  0  0999 V2000
   -5.8204    3.3870   -2.5141 C   0  0  0  0  0  0  0  0  0  0  0  0
   -5.5532    2.0199   -2.2355 O   0  0  0  0  0  0  0  0  0  0  0  0
   -4.9999    1.7941   -0.9349 C   0  0  0  0  0  0  0  0  0  0  0  0
   -3.5531    2.2790   -0.8374 C   0  0  0  0  0  0  0  0  0  0  0  0
   -2.9083    1.8339    0.4769 C   0  0  0  0  0  0  0  0  0  0  0  0
   -2.9918    0.3874    0.7369 N   0  0  0  0  0  0  0  0  0  0  0  0
   -2.0998   -0.4033   -0.1342 C   0  0  0  0  0  0  0  0  0  0  0  0
   -0.6731   -0.1921    0.2432 C   0  0  0  0  0  0  0  0  0  0  0  0
    0.0129   -0.5919    1.3703 C   0  0  0  0  0  0  0  0  0  0  0  0
    1.2790   -0.1293    1.1710 N   0  0  0  0  0  0  0  0  0  0  0  0
    2.4128   -0.2274    2.0720 C   0  0  0  0  0  0  0  0  0  0  0  0
    3.2684   -1.4290    1.7614 C   0  0  0  0  0  0  0  0  0  0  0  0
    2.8925   -2.7053    2.2121 C   0  0  0  0  0  0  0  0  0  0  0  0
    3.6734   -3.8246    1.9144 C   0  0  0  0  0  0  0  0  0  0  0  0
    4.8399   -3.6855    1.1662 C   0  0  0  0  0  0  0  0  0  0  0  0
    5.2261   -2.4272    0.7102 C   0  0  0  0  0  0  0  0  0  0  0  0
    4.4362   -1.3125    0.9972 C   0  0  0  0  0  0  0  0  0  0  0  0
    4.8434   -0.0741    0.5719 O   0  0  0  0  0  0  0  0  0  0  0  0
    4.6638    0.0900   -0.8527 C   0  0  0  0  0  0  0  0  0  0  0  0
    4.9418    1.4794   -1.3566 C   0  0  0  0  0  0  0  0  0  0  0  0
    5.9087    0.3696   -1.6499 C   0  0  0  0  0  0  0  0  0  0  0  0
    1.3742    0.5367    0.0069 N   0  0  0  0  0  0  0  0  0  0  0  0
    0.1850    0.4905   -0.5795 N   0  0  0  0  0  0  0  0  0  0  0  0
   -4.3840   -0.0722    0.6429 C   0  0  0  0  0  0  0  0  0  0  0  0
   -5.0698    0.2910   -0.6709 C   0  0  0  0  0  0  0  0  0  0  0  0
   -6.4464    3.8287   -1.7333 H   0  0  0  0  0  0  0  0  0  0  0  0
   -6.3598    3.4422   -3.4644 H   0  0  0  0  0  0  0  0  0  0  0  0
   -4.8895    3.9494   -2.6208 H   0  0  0  0  0  0  0  0  0  0  0  0
   -5.6182    2.3083   -0.1878 H   0  0  0  0  0  0  0  0  0  0  0  0
   -2.9770    1.9210   -1.6991 H   0  0  0  0  0  0  0  0  0  0  0  0
   -3.5185    3.3722   -0.8966 H   0  0  0  0  0  0  0  0  0  0  0  0
   -1.8704    2.1845    0.5139 H   0  0  0  0  0  0  0  0  0  0  0  0
   -3.4090    2.3534    1.3053 H   0  0  0  0  0  0  0  0  0  0  0  0
   -2.2491   -0.1833   -1.1968 H   0  0  0  0  0  0  0  0  0  0  0  0
   -2.3086   -1.4729   -0.0034 H   0  0  0  0  0  0  0  0  0  0  0  0
   -0.2893   -1.1329    2.2519 H   0  0  0  0  0  0  0  0  0  0  0  0
    2.0213   -0.2964    3.0943 H   0  0  0  0  0  0  0  0  0  0  0  0
    2.9711    0.7133    2.0158 H   0  0  0  0  0  0  0  0  0  0  0  0
    1.9861   -2.8392    2.7980 H   0  0  0  0  0  0  0  0  0  0  0  0
    3.3710   -4.8071    2.2686 H   0  0  0  0  0  0  0  0  0  0  0  0
    5.4495   -4.5557    0.9396 H   0  0  0  0  0  0  0  0  0  0  0  0
    6.1407   -2.3140    0.1362 H   0  0  0  0  0  0  0  0  0  0  0  0
    3.8526   -0.4408   -1.3462 H   0  0  0  0  0  0  0  0  0  0  0  0
    4.3185    1.8519   -2.1630 H   0  0  0  0  0  0  0  0  0  0  0  0
    5.2323    2.2299   -0.6344 H   0  0  0  0  0  0  0  0  0  0  0  0
    5.9594   -0.0103   -2.6644 H   0  0  0  0  0  0  0  0  0  0  0  0
    6.8578    0.3717   -1.1288 H   0  0  0  0  0  0  0  0  0  0  0  0
   -4.4385   -1.1556    0.8029 H   0  0  0  0  0  0  0  0  0  0  0  0
   -4.9490    0.3690    1.4746 H   0  0  0  0  0  0  0  0  0  0  0  0
   -6.1196   -0.0267   -0.6418 H   0  0  0  0  0  0  0  0  0  0  0  0
   -4.6220   -0.2598   -1.5083 H   0  0  0  0  0  0  0  0  0  0  0  0
  1  2  1  0
  2  3  1  0
  3  4  1  0
  4  5  1  0
  5  6  1  0
  6  7  1  0
  7  8  1  0
  8  9  2  0
  9 10  1  0
 10 11  1  0
 11 12  1  0
 12 13  2  0
 13 14  1  0
 14 15  2  0
 15 16  1  0
 16 17  2  0
 17 18  1  0
 18 19  1  0
 19 20  1  0
 20 21  1  0
 10 22  1  0
 22 23  2  0
  6 24  1  0
 24 25  1  0
 25  3  1  0
 23  8  1  0
 17 12  1  0
 21 19  1  0
  1 26  1  0
  1 27  1  0
  1 28  1  0
  3 29  1  0
  4 30  1  0
  4 31  1  0
  5 32  1  0
  5 33  1  0
  7 34  1  0
  7 35  1  0
  9 36  1  0
 11 37  1  0
 11 38  1  0
 13 39  1  0
 14 40  1  0
 15 41  1  0
 16 42  1  0
 19 43  1  0
 20 44  1  0
 20 45  1  0
 21 46  1  0
 21 47  1  0
 24 48  1  0
 24 49  1  0
 25 50  1  0
 25 51  1  0
M  END
$$$$
OCNT-2315840
     RDKit          3D

 45 47  0  0  0  0  0  0  0  0999 V2000
    1.9378    1.7211    0.6007 O   0  0  0  0  0  0  0  0  0  0  0  0
    1.9266    0.5302    0.8863 C   0  0  0  0  0  0  0  0  0  0  0  0
    0.7830   -0.1162    1.6547 C   0  0  0  0  0  0  0  0  0  0  0  0
   -0.4544    0.7786    1.8081 C   0  0  0  0  0  0  0  0  0  0  0  0
   -1.5017    0.6283    0.7873 N   0  0  0  0  0  0  0  0  0  0  0  0
   -1.0754    1.0332   -0.5532 C   0  0  0  0  0  0  0  0  0  0  0  0
   -2.2312    0.9788   -1.5634 C   0  0  0  0  0  0  0  0  0  0  0  0
   -3.0632   -0.3170   -1.4718 C   0  0  0  0  0  0  0  0  0  0  0  0
   -4.4914   -0.0450   -0.9611 C   0  0  0  0  0  0  0  0  0  0  0  0
   -4.5293    0.4588    0.4873 C   0  0  0  0  0  0  0  0  0  0  0  0
   -3.6591   -0.3806    1.4313 C   0  0  0  0  0  0  0  0  0  0  0  0
   -4.3322   -1.6209    1.6802 O   0  0  0  0  0  0  0  0  0  0  0  0
   -2.2408   -0.6480    0.8518 C   0  0  0  0  0  0  0  0  0  0  0  0
   -2.3819   -1.3098   -0.5305 C   0  0  0  0  0  0  0  0  0  0  0  0
    2.9236   -0.3917    0.6001 N   0  0  0  0  0  0  0  0  0  0  0  0
    4.1311   -0.1670   -0.0937 C   0  0  0  0  0  0  0  0  0  0  0  0
    4.9863   -1.2653   -0.2586 C   0  0  0  0  0  0  0  0  0  0  0  0
    6.2017   -1.1296   -0.9352 C   0  0  0  0  0  0  0  0  0  0  0  0
    6.5742    0.1068   -1.4542 C   0  0  0  0  0  0  0  0  0  0  0  0
    5.7314    1.2040   -1.2959 C   0  0  0  0  0  0  0  0  0  0  0  0
    4.5147    1.0680   -0.6187 C   0  0  0  0  0  0  0  0  0  0  0  0
    1.1725   -0.3393    2.6564 H   0  0  0  0  0  0  0  0  0  0  0  0
    0.5272   -1.0739    1.1879 H   0  0  0  0  0  0  0  0  0  0  0  0
   -0.9133    0.5559    2.7808 H   0  0  0  0  0  0  0  0  0  0  0  0
   -0.1708    1.8360    1.8735 H   0  0  0  0  0  0  0  0  0  0  0  0
   -0.2582    0.3974   -0.9150 H   0  0  0  0  0  0  0  0  0  0  0  0
   -0.6917    2.0603   -0.5315 H   0  0  0  0  0  0  0  0  0  0  0  0
   -2.8691    1.8633   -1.4469 H   0  0  0  0  0  0  0  0  0  0  0  0
   -1.8031    1.0534   -2.5713 H   0  0  0  0  0  0  0  0  0  0  0  0
   -3.1415   -0.7587   -2.4728 H   0  0  0  0  0  0  0  0  0  0  0  0
   -5.0726   -0.9739   -1.0271 H   0  0  0  0  0  0  0  0  0  0  0  0
   -4.9935    0.6800   -1.6129 H   0  0  0  0  0  0  0  0  0  0  0  0
   -5.5704    0.4513    0.8320 H   0  0  0  0  0  0  0  0  0  0  0  0
   -4.1941    1.5022    0.5150 H   0  0  0  0  0  0  0  0  0  0  0  0
   -3.5852    0.1337    2.3973 H   0  0  0  0  0  0  0  0  0  0  0  0
   -3.8585   -2.0623    2.4053 H   0  0  0  0  0  0  0  0  0  0  0  0
   -1.7358   -1.3733    1.5022 H   0  0  0  0  0  0  0  0  0  0  0  0
   -2.9683   -2.2342   -0.4606 H   0  0  0  0  0  0  0  0  0  0  0  0
   -1.4002   -1.6046   -0.9221 H   0  0  0  0  0  0  0  0  0  0  0  0
    2.7734   -1.3394    0.9212 H   0  0  0  0  0  0  0  0  0  0  0  0
    4.7215   -2.2425    0.1358 H   0  0  0  0  0  0  0  0  0  0  0  0
    6.8562   -1.9887   -1.0564 H   0  0  0  0  0  0  0  0  0  0  0  0
    7.5184    0.2172   -1.9811 H   0  0  0  0  0  0  0  0  0  0  0  0
    6.0165    2.1726   -1.6991 H   0  0  0  0  0  0  0  0  0  0  0  0
    3.8908    1.9506   -0.5204 H   0  0  0  0  0  0  0  0  0  0  0  0
  1  2  2  0
  2  3  1  0
  3  4  1  0
  4  5  1  0
  5  6  1  0
  6  7  1  0
  7  8  1  0
  8  9  1  0
  9 10  1  0
 10 11  1  0
 11 12  1  0
 11 13  1  0
 13 14  1  0
  2 15  1  0
 15 16  1  0
 16 17  2  0
 17 18  1  0
 18 19  2  0
 19 20  1  0
 20 21  2  0
 13  5  1  0
 21 16  1  0
 14  8  1  0
  3 22  1  0
  3 23  1  0
  4 24  1  0
  4 25  1  0
  6 26  1  0
  6 27  1  0
  7 28  1  0
  7 29  1  0
  8 30  1  0
  9 31  1  0
  9 32  1  0
 10 33  1  0
 10 34  1  0
 11 35  1  0
 12 36  1  0
 13 37  1  0
 14 38  1  0
 14 39  1  0
 15 40  1  0
 17 41  1  0
 18 42  1  0
 19 43  1  0
 20 44  1  0
 21 45  1  0
M  END
$$$$
OCNT-2315844
     RDKit          3D

 45 48  0  0  0  0  0  0  0  0999 V2000
    0.2289   -0.5968    3.5691 O   0  0  0  0  0  0  0  0  0  0  0  0
    0.5242    0.0519    2.5670 C   0  0  0  0  0  0  0  0  0  0  0  0
   -0.4319    0.7695    1.8663 N   0  0  0  0  0  0  0  0  0  0  0  0
   -1.8578    0.6414    2.1257 C   0  0  0  0  0  0  0  0  0  0  0  0
   -2.5538   -0.5080    1.3438 C   0  0  0  0  0  0  0  0  0  0  0  0
   -2.2771   -0.3396   -0.1606 C   0  0  0  0  0  0  0  0  0  0  0  0
   -1.2003   -0.9761   -0.8032 C   0  0  0  0  0  0  0  0  0  0  0  0
   -0.9353   -0.7524   -2.1578 C   0  0  0  0  0  0  0  0  0  0  0  0
   -1.7363    0.1140   -2.8947 C   0  0  0  0  0  0  0  0  0  0  0  0
   -2.8021    0.7626   -2.2771 C   0  0  0  0  0  0  0  0  0  0  0  0
   -3.0676    0.5399   -0.9242 C   0  0  0  0  0  0  0  0  0  0  0  0
   -2.2401   -1.8925    1.9260 C   0  0  0  0  0  0  0  0  0  0  0  0
   -3.4580   -2.6927    1.5317 C   0  0  0  0  0  0  0  0  0  0  0  0
   -4.5651   -1.6797    1.7198 C   0  0  0  0  0  0  0  0  0  0  0  0
   -3.9892   -0.3748    1.5485 O   0  0  0  0  0  0  0  0  0  0  0  0
    1.8537    0.1132    1.9886 C   0  0  0  0  0  0  0  0  0  0  0  0
    2.9597   -0.4162    2.4722 N   0  0  0  0  0  0  0  0  0  0  0  0
    3.9542   -0.1461    1.5520 N   0  0  0  0  0  0  0  0  0  0  0  0
    3.3874    0.5186    0.5650 C   0  0  0  0  0  0  0  0  0  0  0  0
    3.9615    1.0234   -0.6746 C   0  0  0  0  0  0  0  0  0  0  0  0
    5.3346    0.8587   -0.9197 C   0  0  0  0  0  0  0  0  0  0  0  0
    5.9104    1.3220   -2.1058 C   0  0  0  0  0  0  0  0  0  0  0  0
    5.1195    1.9548   -3.0641 C   0  0  0  0  0  0  0  0  0  0  0  0
    3.7557    2.1277   -2.8361 C   0  0  0  0  0  0  0  0  0  0  0  0
    3.1794    1.6647   -1.6488 C   0  0  0  0  0  0  0  0  0  0  0  0
    2.0473    0.7297    0.7736 O   0  0  0  0  0  0  0  0  0  0  0  0
   -0.1548    1.1929    0.9867 H   0  0  0  0  0  0  0  0  0  0  0  0
   -2.0238    0.5220    3.2034 H   0  0  0  0  0  0  0  0  0  0  0  0
   -2.3096    1.6047    1.8564 H   0  0  0  0  0  0  0  0  0  0  0  0
   -0.5343   -1.6413   -0.2603 H   0  0  0  0  0  0  0  0  0  0  0  0
   -0.0954   -1.2550   -2.6343 H   0  0  0  0  0  0  0  0  0  0  0  0
   -1.5310    0.2881   -3.9468 H   0  0  0  0  0  0  0  0  0  0  0  0
   -3.4313    1.4438   -2.8466 H   0  0  0  0  0  0  0  0  0  0  0  0
   -3.9065    1.0630   -0.4647 H   0  0  0  0  0  0  0  0  0  0  0  0
   -1.3054   -2.3495    1.5985 H   0  0  0  0  0  0  0  0  0  0  0  0
   -2.2102   -1.8427    3.0220 H   0  0  0  0  0  0  0  0  0  0  0  0
   -3.6039   -3.5947    2.1335 H   0  0  0  0  0  0  0  0  0  0  0  0
   -3.3939   -2.9949    0.4790 H   0  0  0  0  0  0  0  0  0  0  0  0
   -5.3817   -1.8160    1.0042 H   0  0  0  0  0  0  0  0  0  0  0  0
   -4.9795   -1.7274    2.7321 H   0  0  0  0  0  0  0  0  0  0  0  0
    5.9680    0.3626   -0.1839 H   0  0  0  0  0  0  0  0  0  0  0  0
    6.9744    1.1837   -2.2819 H   0  0  0  0  0  0  0  0  0  0  0  0
    5.5670    2.3131   -3.9887 H   0  0  0  0  0  0  0  0  0  0  0  0
    3.1385    2.6212   -3.5840 H   0  0  0  0  0  0  0  0  0  0  0  0
    2.1114    1.8092   -1.4998 H   0  0  0  0  0  0  0  0  0  0  0  0
  1  2  2  0
  2  3  1  0
  3  4  1  0
  4  5  1  0
  5  6  1  0
  6  7  2  0
  7  8  1  0
  8  9  2  0
  9 10  1  0
 10 11  2  0
  5 12  1  0
 12 13  1  0
 13 14  1  0
 14 15  1  0
  2 16  1  0
 16 17  2  0
 17 18  1  0
 18 19  2  0
 19 20  1  0
 20 21  2  0
 21 22  1  0
 22 23  2  0
 23 24  1  0
 24 25  2  0
 19 26  1  0
 15  5  1  0
 26 16  1  0
 11  6  1  0
 25 20  1  0
  3 27  1  0
  4 28  1  0
  4 29  1  0
  7 30  1  0
  8 31  1  0
  9 32  1  0
 10 33  1  0
 11 34  1  0
 12 35  1  0
 12 36  1  0
 13 37  1  0
 13 38  1  0
 14 39  1  0
 14 40  1  0
 21 41  1  0
 22 42  1  0
 23 43  1  0
 24 44  1  0
 25 45  1  0
M  END
$$$$
OCNT-2315845
     RDKit          3D

 55 57  0  0  0  0  0  0  0  0999 V2000
   -2.2924   -0.2701    2.2304 C   0  0  0  0  0  0  0  0  0  0  0  0
   -3.3928   -1.0341    1.5957 C   0  0  0  0  0  0  0  0  0  0  0  0
   -3.3918   -2.3703    1.6537 N   0  0  0  0  0  0  0  0  0  0  0  0
   -4.5305   -2.7795    0.9909 O   0  0  0  0  0  0  0  0  0  0  0  0
   -5.2010   -1.6953    0.5257 C   0  0  0  0  0  0  0  0  0  0  0  0
   -6.4457   -1.9792   -0.2113 C   0  0  0  0  0  0  0  0  0  0  0  0
   -4.5156   -0.5482    0.8677 C   0  0  0  0  0  0  0  0  0  0  0  0
   -4.8630    0.8670    0.5406 C   0  0  0  0  0  0  0  0  0  0  0  0
   -4.4633    1.2616   -0.8872 C   0  0  0  0  0  0  0  0  0  0  0  0
   -3.0346    1.1554   -1.1337 N   0  0  0  0  0  0  0  0  0  0  0  0
   -2.1693    2.0945   -0.6374 C   0  0  0  0  0  0  0  0  0  0  0  0
   -2.5656    3.0853   -0.0293 O   0  0  0  0  0  0  0  0  0  0  0  0
   -0.8306    1.8304   -0.8653 N   0  0  0  0  0  0  0  0  0  0  0  0
   -0.3245    0.7748   -1.7456 C   0  0  0  0  0  0  0  0  0  0  0  0
    1.0460    1.1128   -2.3249 C   0  0  0  0  0  0  0  0  0  0  0  0
    2.0989    1.3996   -1.2367 C   0  0  0  0  0  0  0  0  0  0  0  0
    2.9264    0.1382   -0.9200 C   0  0  0  0  0  0  0  0  0  0  0  0
    4.0936    0.4121    0.0362 C   0  0  0  0  0  0  0  0  0  0  0  0
    4.9326   -0.8205    0.2585 C   0  0  0  0  0  0  0  0  0  0  0  0
    6.0871   -1.0491   -0.5042 C   0  0  0  0  0  0  0  0  0  0  0  0
    6.8475   -2.2014   -0.2927 C   0  0  0  0  0  0  0  0  0  0  0  0
    6.4515   -3.1232    0.6710 C   0  0  0  0  0  0  0  0  0  0  0  0
    7.1867   -4.2262    0.8659 F   0  0  0  0  0  0  0  0  0  0  0  0
    5.3055   -2.9228    1.4249 C   0  0  0  0  0  0  0  0  0  0  0  0
    4.5549   -1.7728    1.2102 C   0  0  0  0  0  0  0  0  0  0  0  0
    3.4448   -1.5808    1.9368 F   0  0  0  0  0  0  0  0  0  0  0  0
    1.4582    1.9929    0.0329 C   0  0  0  0  0  0  0  0  0  0  0  0
    0.1559    2.7267   -0.2683 C   0  0  0  0  0  0  0  0  0  0  0  0
   -2.6559    0.6747    2.6441 H   0  0  0  0  0  0  0  0  0  0  0  0
   -1.8389   -0.8357    3.0511 H   0  0  0  0  0  0  0  0  0  0  0  0
   -1.5113   -0.0503    1.4981 H   0  0  0  0  0  0  0  0  0  0  0  0
   -6.2343   -2.5837   -1.0984 H   0  0  0  0  0  0  0  0  0  0  0  0
   -6.9342   -1.0566   -0.5386 H   0  0  0  0  0  0  0  0  0  0  0  0
   -7.1490   -2.5286    0.4220 H   0  0  0  0  0  0  0  0  0  0  0  0
   -5.9451    1.0058    0.6553 H   0  0  0  0  0  0  0  0  0  0  0  0
   -4.3908    1.5415    1.2646 H   0  0  0  0  0  0  0  0  0  0  0  0
   -4.7726    2.2958   -1.0805 H   0  0  0  0  0  0  0  0  0  0  0  0
   -4.9597    0.6182   -1.6225 H   0  0  0  0  0  0  0  0  0  0  0  0
   -2.6683    0.2171   -1.1960 H   0  0  0  0  0  0  0  0  0  0  0  0
   -0.2745   -0.1463   -1.1533 H   0  0  0  0  0  0  0  0  0  0  0  0
   -1.0301    0.6085   -2.5660 H   0  0  0  0  0  0  0  0  0  0  0  0
    0.9422    2.0113   -2.9488 H   0  0  0  0  0  0  0  0  0  0  0  0
    1.3784    0.3130   -2.9966 H   0  0  0  0  0  0  0  0  0  0  0  0
    2.7884    2.1459   -1.6534 H   0  0  0  0  0  0  0  0  0  0  0  0
    3.3245   -0.2717   -1.8562 H   0  0  0  0  0  0  0  0  0  0  0  0
    2.2723   -0.6358   -0.5008 H   0  0  0  0  0  0  0  0  0  0  0  0
    3.7289    0.7717    1.0056 H   0  0  0  0  0  0  0  0  0  0  0  0
    4.7239    1.2152   -0.3656 H   0  0  0  0  0  0  0  0  0  0  0  0
    6.3968   -0.3353   -1.2656 H   0  0  0  0  0  0  0  0  0  0  0  0
    7.7474   -2.3860   -0.8746 H   0  0  0  0  0  0  0  0  0  0  0  0
    4.9983   -3.6511    2.1665 H   0  0  0  0  0  0  0  0  0  0  0  0
    1.2464    1.1944    0.7580 H   0  0  0  0  0  0  0  0  0  0  0  0
    2.1654    2.6785    0.5161 H   0  0  0  0  0  0  0  0  0  0  0  0
    0.3260    3.5507   -0.9712 H   0  0  0  0  0  0  0  0  0  0  0  0
   -0.2431    3.1611    0.6550 H   0  0  0  0  0  0  0  0  0  0  0  0
  1  2  1  0
  2  3  2  0
  3  4  1  0
  4  5  1  0
  5  6  1  0
  5  7  2  0
  7  8  1  0
  8  9  1  0
  9 10  1  0
 10 11  1  0
 11 12  2  0
 11 13  1  0
 13 14  1  0
 14 15  1  0
 15 16  1  0
 16 17  1  0
 17 18  1  0
 18 19  1  0
 19 20  1  0
 20 21  2  0
 21 22  1  0
 22 23  1  0
 22 24  2  0
 24 25  1  0
 25 26  1  0
 16 27  1  0
 27 28  1  0
  7  2  1  0
 28 13  1  0
 25 19  2  0
  1 29  1  0
  1 30  1  0
  1 31  1  0
  6 32  1  0
  6 33  1  0
  6 34  1  0
  8 35  1  0
  8 36  1  0
  9 37  1  0
  9 38  1  0
 10 39  1  0
 14 40  1  0
 14 41  1  0
 15 42  1  0
 15 43  1  0
 16 44  1  0
 17 45  1  0
 17 46  1  0
 18 47  1  0
 18 48  1  0
 20 49  1  0
 21 50  1  0
 24 51  1  0
 27 52  1  0
 27 53  1  0
 28 54  1  0
 28 55  1  0
M  END
$$$$
OCNT-2315849
     RDKit          3D

 41 44  0  0  0  0  0  0  0  0999 V2000
   -6.7871    0.7586   -1.8970 C   0  0  0  0  0  0  0  0  0  0  0  0
   -5.4494    0.7194   -1.2178 C   0  0  0  0  0  0  0  0  0  0  0  0
   -5.1988    1.5280   -0.1016 C   0  0  0  0  0  0  0  0  0  0  0  0
   -3.9710    1.4929    0.5733 C   0  0  0  0  0  0  0  0  0  0  0  0
   -3.0005    0.6042    0.0941 C   0  0  0  0  0  0  0  0  0  0  0  0
   -3.2255   -0.2209   -1.0021 C   0  0  0  0  0  0  0  0  0  0  0  0
   -4.4612   -0.1726   -1.6662 C   0  0  0  0  0  0  0  0  0  0  0  0
   -2.1296   -0.9976   -1.2665 N   0  0  0  0  0  0  0  0  0  0  0  0
   -1.2280   -0.6752   -0.3594 C   0  0  0  0  0  0  0  0  0  0  0  0
    0.1671   -1.3644   -0.3368 C   0  0  0  0  0  0  0  0  0  0  0  0
    1.2202   -1.1832    0.5262 C   0  0  0  0  0  0  0  0  0  0  0  0
    2.2139   -2.0224    0.0888 N   0  0  0  0  0  0  0  0  0  0  0  0
    3.5285   -2.2091    0.6922 C   0  0  0  0  0  0  0  0  0  0  0  0
    4.3615   -0.9515    0.6372 C   0  0  0  0  0  0  0  0  0  0  0  0
    4.7457   -0.4050   -0.5972 C   0  0  0  0  0  0  0  0  0  0  0  0
    5.5181    0.7558   -0.6488 C   0  0  0  0  0  0  0  0  0  0  0  0
    5.9193    1.3797    0.5306 C   0  0  0  0  0  0  0  0  0  0  0  0
    5.5501    0.8433    1.7628 C   0  0  0  0  0  0  0  0  0  0  0  0
    4.7762   -0.3174    1.8177 C   0  0  0  0  0  0  0  0  0  0  0  0
    1.8576   -2.7567   -0.9857 N   0  0  0  0  0  0  0  0  0  0  0  0
    0.6118   -2.3460   -1.2444 C   0  0  0  0  0  0  0  0  0  0  0  0
   -1.7147    0.2991    0.4841 N   0  0  0  0  0  0  0  0  0  0  0  0
   -1.0068    0.9084    1.5808 C   0  0  0  0  0  0  0  0  0  0  0  0
   -7.4675    0.0436   -1.4243 H   0  0  0  0  0  0  0  0  0  0  0  0
   -6.6937    0.5095   -2.9593 H   0  0  0  0  0  0  0  0  0  0  0  0
   -7.2265    1.7598   -1.8362 H   0  0  0  0  0  0  0  0  0  0  0  0
   -5.9715    2.2060    0.2579 H   0  0  0  0  0  0  0  0  0  0  0  0
   -3.7974    2.1318    1.4319 H   0  0  0  0  0  0  0  0  0  0  0  0
   -4.6307   -0.8250   -2.5163 H   0  0  0  0  0  0  0  0  0  0  0  0
    1.3773   -0.5493    1.3845 H   0  0  0  0  0  0  0  0  0  0  0  0
    4.0418   -3.0229    0.1671 H   0  0  0  0  0  0  0  0  0  0  0  0
    3.3528   -2.5345    1.7240 H   0  0  0  0  0  0  0  0  0  0  0  0
    4.4390   -0.8813   -1.5281 H   0  0  0  0  0  0  0  0  0  0  0  0
    5.8067    1.1721   -1.6107 H   0  0  0  0  0  0  0  0  0  0  0  0
    6.5226    2.2829    0.4886 H   0  0  0  0  0  0  0  0  0  0  0  0
    5.8687    1.3289    2.6817 H   0  0  0  0  0  0  0  0  0  0  0  0
    4.5033   -0.7219    2.7900 H   0  0  0  0  0  0  0  0  0  0  0  0
    0.0726   -2.7728   -2.0809 H   0  0  0  0  0  0  0  0  0  0  0  0
   -1.6249    1.6718    2.0573 H   0  0  0  0  0  0  0  0  0  0  0  0
   -0.1006    1.3805    1.1934 H   0  0  0  0  0  0  0  0  0  0  0  0
   -0.7693    0.1350    2.3152 H   0  0  0  0  0  0  0  0  0  0  0  0
  1  2  1  0
  2  3  2  0
  3  4  1  0
  4  5  2  0
  5  6  1  0
  6  7  2  0
  6  8  1  0
  8  9  2  0
  9 10  1  0
 10 11  2  0
 11 12  1  0
 12 13  1  0
 13 14  1  0
 14 15  2  0
 15 16  1  0
 16 17  2  0
 17 18  1  0
 18 19  2  0
 12 20  1  0
 20 21  2  0
  9 22  1  0
 22 23  1  0
  7  2  1  0
 21 10  1  0
 22  5  1  0
 19 14  1  0
  1 24  1  0
  1 25  1  0
  1 26  1  0
  3 27  1  0
  4 28  1  0
  7 29  1  0
 11 30  1  0
 13 31  1  0
 13 32  1  0
 15 33  1  0
 16 34  1  0
 17 35  1  0
 18 36  1  0
 19 37  1  0
 21 38  1  0
 23 39  1  0
 23 40  1  0
 23 41  1  0
M  END
$$$$
OCNT-2315862
     RDKit          3D

 45 48  0  0  0  0  0  0  0  0999 V2000
   -1.3733    1.4961   -0.5396 C   0  0  0  0  0  0  0  0  0  0  0  0
   -2.2033    0.2354   -0.2599 C   0  0  0  0  0  0  0  0  0  0  0  0
   -3.6369    0.4724   -0.6199 C   0  0  0  0  0  0  0  0  0  0  0  0
   -4.6286    0.6697    0.3144 C   0  0  0  0  0  0  0  0  0  0  0  0
   -4.4869    0.6357    1.7894 C   0  0  0  0  0  0  0  0  0  0  0  0
   -2.9927    0.6560    2.1683 C   0  0  0  0  0  0  0  0  0  0  0  0
   -2.1346   -0.2320    1.2275 C   0  0  0  0  0  0  0  0  0  0  0  0
   -0.7037   -0.3288    1.7142 C   0  0  0  0  0  0  0  0  0  0  0  0
   -0.2093    0.3722    2.5854 O   0  0  0  0  0  0  0  0  0  0  0  0
   -0.0508   -1.3143    1.0356 O   0  0  0  0  0  0  0  0  0  0  0  0
    1.3288   -1.5137    1.3869 C   0  0  0  0  0  0  0  0  0  0  0  0
    2.1977   -0.5822    0.5609 C   0  0  0  0  0  0  0  0  0  0  0  0
    3.7302   -0.8706    0.5860 C   0  0  0  0  0  0  0  0  0  0  0  0
    3.7257   -0.5772   -0.8917 C   0  0  0  0  0  0  0  0  0  0  0  0
    4.6575   -1.3132   -1.8192 C   0  0  0  0  0  0  0  0  0  0  0  0
    4.7365    0.0001   -2.6401 C   0  0  0  0  0  0  0  0  0  0  0  0
    4.2421    0.7586   -1.3813 C   0  0  0  0  0  0  0  0  0  0  0  0
    2.2382   -0.8393   -0.9777 C   0  0  0  0  0  0  0  0  0  0  0  0
   -5.7834    0.8640   -0.3808 N   0  0  0  0  0  0  0  0  0  0  0  0
   -5.6072    0.7988   -1.7140 N   0  0  0  0  0  0  0  0  0  0  0  0
   -4.2991    0.5608   -1.8574 C   0  0  0  0  0  0  0  0  0  0  0  0
   -0.3110    1.3310   -0.3369 H   0  0  0  0  0  0  0  0  0  0  0  0
   -1.4591    1.7906   -1.5920 H   0  0  0  0  0  0  0  0  0  0  0  0
   -1.7077    2.3471    0.0633 H   0  0  0  0  0  0  0  0  0  0  0  0
   -1.8120   -0.5697   -0.8959 H   0  0  0  0  0  0  0  0  0  0  0  0
   -4.9453   -0.2842    2.1714 H   0  0  0  0  0  0  0  0  0  0  0  0
   -5.0014    1.4825    2.2560 H   0  0  0  0  0  0  0  0  0  0  0  0
   -2.8834    0.3286    3.2097 H   0  0  0  0  0  0  0  0  0  0  0  0
   -2.6242    1.6896    2.1352 H   0  0  0  0  0  0  0  0  0  0  0  0
   -2.5505   -1.2486    1.2991 H   0  0  0  0  0  0  0  0  0  0  0  0
    1.5616   -2.5620    1.1702 H   0  0  0  0  0  0  0  0  0  0  0  0
    1.4898   -1.3678    2.4614 H   0  0  0  0  0  0  0  0  0  0  0  0
    1.9879    0.4726    0.7909 H   0  0  0  0  0  0  0  0  0  0  0  0
    4.3189   -0.2010    1.2194 H   0  0  0  0  0  0  0  0  0  0  0  0
    3.9890   -1.9066    0.8344 H   0  0  0  0  0  0  0  0  0  0  0  0
    5.6131   -1.5986   -1.3645 H   0  0  0  0  0  0  0  0  0  0  0  0
    4.2479   -2.1745   -2.3533 H   0  0  0  0  0  0  0  0  0  0  0  0
    5.7318    0.2754   -2.9984 H   0  0  0  0  0  0  0  0  0  0  0  0
    4.0314    0.0361   -3.4786 H   0  0  0  0  0  0  0  0  0  0  0  0
    3.5022    1.5418   -1.5673 H   0  0  0  0  0  0  0  0  0  0  0  0
    5.0580    1.1772   -0.7810 H   0  0  0  0  0  0  0  0  0  0  0  0
    1.9780   -1.8645   -1.2666 H   0  0  0  0  0  0  0  0  0  0  0  0
    1.6462   -0.1453   -1.5810 H   0  0  0  0  0  0  0  0  0  0  0  0
   -6.7183    1.0359   -0.0254 H   0  0  0  0  0  0  0  0  0  0  0  0
   -3.8894    0.4659   -2.8549 H   0  0  0  0  0  0  0  0  0  0  0  0
  1  2  1  0
  2  3  1  0
  3  4  2  0
  4  5  1  0
  5  6  1  0
  6  7  1  0
  7  8  1  0
  8  9  2  0
  8 10  1  0
 10 11  1  0
 11 12  1  0
 12 13  1  0
 13 14  1  0
 14 15  1  0
 15 16  1  0
 16 17  1  0
 14 18  1  0
  4 19  1  0
 19 20  1  0
 20 21  2  0
  7  2  1  0
 18 12  1  0
 21  3  1  0
 17 14  1  0
  1 22  1  0
  1 23  1  0
  1 24  1  0
  2 25  1  0
  5 26  1  0
  5 27  1  0
  6 28  1  0
  6 29  1  0
  7 30  1  0
 11 31  1  0
 11 32  1  0
 12 33  1  0
 13 34  1  0
 13 35  1  0
 15 36  1  0
 15 37  1  0
 16 38  1  0
 16 39  1  0
 17 40  1  0
 17 41  1  0
 18 42  1  0
 18 43  1  0
 19 44  1  0
 21 45  1  0
M  END
$$$$
OCNT-2315864
     RDKit          3D

 45 48  0  0  0  0  0  0  0  0999 V2000
    5.0692   -0.8210    0.6973 C   0  0  0  0  0  0  0  0  0  0  0  0
    5.4828    0.1929   -0.1365 C   0  0  0  0  0  0  0  0  0  0  0  0
    4.3300    0.7854   -0.5730 N   0  0  0  0  0  0  0  0  0  0  0  0
    4.1167    1.8286   -1.4447 C   0  0  0  0  0  0  0  0  0  0  0  0
    2.8482    2.1784   -1.6971 C   0  0  0  0  0  0  0  0  0  0  0  0
    1.7498    1.5633   -1.1343 N   0  0  0  0  0  0  0  0  0  0  0  0
    1.9006    0.5640   -0.2752 C   0  0  0  0  0  0  0  0  0  0  0  0
    0.7253   -0.0008    0.2680 N   0  0  0  0  0  0  0  0  0  0  0  0
    0.7900   -1.0406    1.2859 C   0  0  0  0  0  0  0  0  0  0  0  0
    0.6943   -2.4360    0.6810 C   0  0  0  0  0  0  0  0  0  0  0  0
   -0.6047   -2.7065   -0.0830 C   0  0  0  0  0  0  0  0  0  0  0  0
   -1.7984   -1.9178    0.4557 C   0  0  0  0  0  0  0  0  0  0  0  0
   -1.8571   -0.4052    0.0440 C   0  0  0  0  0  0  0  0  0  0  0  0
   -2.9292   -0.2914   -1.0929 C   0  0  0  0  0  0  0  0  0  0  0  0
   -3.3099    1.1434   -1.4593 C   0  0  0  0  0  0  0  0  0  0  0  0
   -3.7836    1.9221   -0.2391 C   0  0  0  0  0  0  0  0  0  0  0  0
   -2.7723    1.8688    0.8986 C   0  0  0  0  0  0  0  0  0  0  0  0
   -2.3775    0.4324    1.2478 C   0  0  0  0  0  0  0  0  0  0  0  0
   -0.5146    0.1599   -0.5199 C   0  0  0  0  0  0  0  0  0  0  0  0
    3.2777    0.1323    0.0227 C   0  0  0  0  0  0  0  0  0  0  0  0
    3.7001   -0.8602    0.7850 N   0  0  0  0  0  0  0  0  0  0  0  0
    5.6861   -1.5278    1.2375 H   0  0  0  0  0  0  0  0  0  0  0  0
    6.4617    0.5241   -0.4499 H   0  0  0  0  0  0  0  0  0  0  0  0
    4.9741    2.3139   -1.8893 H   0  0  0  0  0  0  0  0  0  0  0  0
    2.6290    2.9945   -2.3808 H   0  0  0  0  0  0  0  0  0  0  0  0
    0.0032   -0.8905    2.0292 H   0  0  0  0  0  0  0  0  0  0  0  0
    1.6927   -0.9570    1.8959 H   0  0  0  0  0  0  0  0  0  0  0  0
    0.7707   -3.1615    1.5009 H   0  0  0  0  0  0  0  0  0  0  0  0
    1.5451   -2.6317    0.0179 H   0  0  0  0  0  0  0  0  0  0  0  0
   -0.4683   -2.5093   -1.1522 H   0  0  0  0  0  0  0  0  0  0  0  0
   -0.8224   -3.7797   -0.0102 H   0  0  0  0  0  0  0  0  0  0  0  0
   -1.8260   -2.0218    1.5484 H   0  0  0  0  0  0  0  0  0  0  0  0
   -2.7091   -2.4283    0.1162 H   0  0  0  0  0  0  0  0  0  0  0  0
   -3.8500   -0.8034   -0.7807 H   0  0  0  0  0  0  0  0  0  0  0  0
   -2.5795   -0.8131   -1.9927 H   0  0  0  0  0  0  0  0  0  0  0  0
   -2.4631    1.6577   -1.9265 H   0  0  0  0  0  0  0  0  0  0  0  0
   -4.1097    1.1248   -2.2090 H   0  0  0  0  0  0  0  0  0  0  0  0
   -3.9748    2.9649   -0.5163 H   0  0  0  0  0  0  0  0  0  0  0  0
   -4.7383    1.5065    0.1068 H   0  0  0  0  0  0  0  0  0  0  0  0
   -1.8840    2.4533    0.6347 H   0  0  0  0  0  0  0  0  0  0  0  0
   -3.2022    2.3497    1.7854 H   0  0  0  0  0  0  0  0  0  0  0  0
   -1.6343    0.4681    2.0502 H   0  0  0  0  0  0  0  0  0  0  0  0
   -3.2599   -0.0652    1.6733 H   0  0  0  0  0  0  0  0  0  0  0  0
   -0.6448    1.2297   -0.7116 H   0  0  0  0  0  0  0  0  0  0  0  0
   -0.3335   -0.2901   -1.5056 H   0  0  0  0  0  0  0  0  0  0  0  0
  1  2  2  0
  2  3  1  0
  3  4  1  0
  4  5  2  0
  5  6  1  0
  6  7  2  0
  7  8  1  0
  8  9  1  0
  9 10  1  0
 10 11  1  0
 11 12  1  0
 12 13  1  0
 13 14  1  0
 14 15  1  0
 15 16  1  0
 16 17  1  0
 17 18  1  0
 13 19  1  0
  7 20  1  0
 20 21  2  0
 21  1  1  0
 20  3  1  0
 19  8  1  0
 18 13  1  0
  1 22  1  0
  2 23  1  0
  4 24  1  0
  5 25  1  0
  9 26  1  0
  9 27  1  0
 10 28  1  0
 10 29  1  0
 11 30  1  0
 11 31  1  0
 12 32  1  0
 12 33  1  0
 14 34  1  0
 14 35  1  0
 15 36  1  0
 15 37  1  0
 16 38  1  0
 16 39  1  0
 17 40  1  0
 17 41  1  0
 18 42  1  0
 18 43  1  0
 19 44  1  0
 19 45  1  0
M  END
$$$$
OCNT-2315875
     RDKit          3D

 52 56  0  0  0  0  0  0  0  0999 V2000
    6.1345   -1.9483    3.2307 C   0  0  0  0  0  0  0  0  0  0  0  0
    6.4225   -0.6582    2.7755 C   0  0  0  0  0  0  0  0  0  0  0  0
    5.8807   -0.2033    1.5708 C   0  0  0  0  0  0  0  0  0  0  0  0
    5.0426   -1.0316    0.8098 C   0  0  0  0  0  0  0  0  0  0  0  0
    4.4664   -0.5420   -0.4945 C   0  0  0  0  0  0  0  0  0  0  0  0
    3.3493    0.4724   -0.2766 C   0  0  0  0  0  0  0  0  0  0  0  0
    2.9115    1.0454   -1.5268 N   0  0  0  0  0  0  0  0  0  0  0  0
    3.4824    2.1361   -2.1279 C   0  0  0  0  0  0  0  0  0  0  0  0
    2.7563    2.3444   -3.2693 C   0  0  0  0  0  0  0  0  0  0  0  0
    1.7664    1.4112   -3.3790 N   0  0  0  0  0  0  0  0  0  0  0  0
    1.8922    0.6157   -2.3311 C   0  0  0  0  0  0  0  0  0  0  0  0
    1.0233   -0.5708   -2.0477 C   0  0  0  0  0  0  0  0  0  0  0  0
   -0.2037   -0.2142   -1.3498 N   0  0  0  0  0  0  0  0  0  0  0  0
   -1.2429   -1.1074   -1.2823 C   0  0  0  0  0  0  0  0  0  0  0  0
   -1.0334   -2.3762   -1.5352 N   0  0  0  0  0  0  0  0  0  0  0  0
   -2.1055   -3.2385   -1.5510 C   0  0  0  0  0  0  0  0  0  0  0  0
   -3.3691   -2.8542   -1.3418 C   0  0  0  0  0  0  0  0  0  0  0  0
   -3.6181   -1.5299   -1.0314 N   0  0  0  0  0  0  0  0  0  0  0  0
   -4.7968   -0.9335   -0.7568 N   0  0  0  0  0  0  0  0  0  0  0  0
   -4.4847    0.3090   -0.3587 C   0  0  0  0  0  0  0  0  0  0  0  0
   -5.5167    1.2381    0.1203 C   0  0  0  0  0  0  0  0  0  0  0  0
   -5.1823    2.4214    0.7870 C   0  0  0  0  0  0  0  0  0  0  0  0
   -6.1794    3.2888    1.2549 C   0  0  0  0  0  0  0  0  0  0  0  0
   -7.5221    2.9802    1.0640 C   0  0  0  0  0  0  0  0  0  0  0  0
   -7.8734    1.8097    0.3975 C   0  0  0  0  0  0  0  0  0  0  0  0
   -6.8777    0.9466   -0.0707 C   0  0  0  0  0  0  0  0  0  0  0  0
   -3.0915    0.5310   -0.4881 C   0  0  0  0  0  0  0  0  0  0  0  0
   -2.5742   -0.6539   -0.9503 C   0  0  0  0  0  0  0  0  0  0  0  0
    4.7490   -2.3186    1.2754 C   0  0  0  0  0  0  0  0  0  0  0  0
    5.2974   -2.7776    2.4791 C   0  0  0  0  0  0  0  0  0  0  0  0
    6.5682   -2.3096    4.1638 H   0  0  0  0  0  0  0  0  0  0  0  0
    7.0791   -0.0120    3.3517 H   0  0  0  0  0  0  0  0  0  0  0  0
    6.1343    0.7979    1.2233 H   0  0  0  0  0  0  0  0  0  0  0  0
    5.2746   -0.0970   -1.0863 H   0  0  0  0  0  0  0  0  0  0  0  0
    4.0943   -1.3932   -1.0849 H   0  0  0  0  0  0  0  0  0  0  0  0
    2.4805    0.0255    0.2232 H   0  0  0  0  0  0  0  0  0  0  0  0
    3.6788    1.3037    0.3507 H   0  0  0  0  0  0  0  0  0  0  0  0
    4.3300    2.6514   -1.7087 H   0  0  0  0  0  0  0  0  0  0  0  0
    2.8922    3.1054   -4.0260 H   0  0  0  0  0  0  0  0  0  0  0  0
    0.7812   -1.0340   -3.0164 H   0  0  0  0  0  0  0  0  0  0  0  0
    1.5683   -1.3192   -1.4704 H   0  0  0  0  0  0  0  0  0  0  0  0
   -0.5157    0.7042   -1.6713 H   0  0  0  0  0  0  0  0  0  0  0  0
   -1.8729   -4.2812   -1.7672 H   0  0  0  0  0  0  0  0  0  0  0  0
   -4.2220   -3.5174   -1.3790 H   0  0  0  0  0  0  0  0  0  0  0  0
   -4.1489    2.6857    0.9713 H   0  0  0  0  0  0  0  0  0  0  0  0
   -5.9010    4.2043    1.7729 H   0  0  0  0  0  0  0  0  0  0  0  0
   -8.2938    3.6495    1.4378 H   0  0  0  0  0  0  0  0  0  0  0  0
   -8.9207    1.5523    0.2432 H   0  0  0  0  0  0  0  0  0  0  0  0
   -7.1704    0.0430   -0.5973 H   0  0  0  0  0  0  0  0  0  0  0  0
   -2.5327    1.4167   -0.2500 H   0  0  0  0  0  0  0  0  0  0  0  0
    4.1104   -2.9821    0.6945 H   0  0  0  0  0  0  0  0  0  0  0  0
    5.0832   -3.7856    2.8339 H   0  0  0  0  0  0  0  0  0  0  0  0
  1  2  2  0
  2  3  1  0
  3  4  2  0
  4  5  1  0
  5  6  1  0
  6  7  1  0
  7  8  1  0
  8  9  2  0
  9 10  1  0
 10 11  2  0
 11 12  1  0
 12 13  1  0
 13 14  1  0
 14 15  2  0
 15 16  1  0
 16 17  2  0
 17 18  1  0
 18 19  1  0
 19 20  2  0
 20 21  1  0
 21 22  2  0
 22 23  1  0
 23 24  2  0
 24 25  1  0
 25 26  2  0
 20 27  1  0
 27 28  2  0
  4 29  1  0
 29 30  2  0
 30  1  1  0
 11  7  1  0
 28 14  1  0
 28 18  1  0
 26 21  1  0
  1 31  1  0
  2 32  1  0
  3 33  1  0
  5 34  1  0
  5 35  1  0
  6 36  1  0
  6 37  1  0
  8 38  1  0
  9 39  1  0
 12 40  1  0
 12 41  1  0
 13 42  1  0
 16 43  1  0
 17 44  1  0
 22 45  1  0
 23 46  1  0
 24 47  1  0
 25 48  1  0
 26 49  1  0
 27 50  1  0
 29 51  1  0
 30 52  1  0
M  END
$$$$
OCNT-2315878
     RDKit          3D

 47 49  0  0  0  0  0  0  0  0999 V2000
    8.5764    1.1813   -0.5167 C   0  0  0  0  0  0  0  0  0  0  0  0
    7.1657    0.9914   -0.6486 O   0  0  0  0  0  0  0  0  0  0  0  0
    6.6121    0.2633    0.3513 C   0  0  0  0  0  0  0  0  0  0  0  0
    7.2024   -0.2185    1.3041 O   0  0  0  0  0  0  0  0  0  0  0  0
    5.1664    0.1170    0.1427 C   0  0  0  0  0  0  0  0  0  0  0  0
    4.4721    0.6372   -0.9202 C   0  0  0  0  0  0  0  0  0  0  0  0
    3.1378    0.4858   -1.0873 N   0  0  0  0  0  0  0  0  0  0  0  0
    2.4560   -0.2120   -0.1586 C   0  0  0  0  0  0  0  0  0  0  0  0
    1.0795   -0.3473   -0.3023 N   0  0  0  0  0  0  0  0  0  0  0  0
    0.5940   -0.1965   -1.6744 C   0  0  0  0  0  0  0  0  0  0  0  0
   -0.8546   -0.6710   -1.8178 C   0  0  0  0  0  0  0  0  0  0  0  0
   -1.6576   -0.3082   -0.5675 C   0  0  0  0  0  0  0  0  0  0  0  0
   -3.0771   -0.6256   -0.8000 N   0  0  0  0  0  0  0  0  0  0  0  0
   -3.9979   -0.2001    0.2666 C   0  0  0  0  0  0  0  0  0  0  0  0
   -5.3929   -0.7720   -0.0453 C   0  0  0  0  0  0  0  0  0  0  0  0
   -6.5055    0.0067    0.6497 C   0  0  0  0  0  0  0  0  0  0  0  0
   -6.0157    0.6257    1.8326 O   0  0  0  0  0  0  0  0  0  0  0  0
   -5.0850    1.6713    1.5459 C   0  0  0  0  0  0  0  0  0  0  0  0
   -4.1039    1.3172    0.4266 C   0  0  0  0  0  0  0  0  0  0  0  0
   -1.0742   -1.0299    0.6594 C   0  0  0  0  0  0  0  0  0  0  0  0
    0.4245   -1.3329    0.5432 C   0  0  0  0  0  0  0  0  0  0  0  0
    3.0641   -0.7540    0.9118 N   0  0  0  0  0  0  0  0  0  0  0  0
    4.3997   -0.5808    1.0419 C   0  0  0  0  0  0  0  0  0  0  0  0
    9.0958    0.2181   -0.5370 H   0  0  0  0  0  0  0  0  0  0  0  0
    8.9185    1.7778   -1.3669 H   0  0  0  0  0  0  0  0  0  0  0  0
    8.8048    1.7268    0.4043 H   0  0  0  0  0  0  0  0  0  0  0  0
    4.9583    1.2118   -1.7029 H   0  0  0  0  0  0  0  0  0  0  0  0
    0.6443    0.8628   -1.9572 H   0  0  0  0  0  0  0  0  0  0  0  0
    1.2095   -0.7632   -2.3856 H   0  0  0  0  0  0  0  0  0  0  0  0
   -0.8721   -1.7584   -1.9727 H   0  0  0  0  0  0  0  0  0  0  0  0
   -1.2915   -0.2193   -2.7171 H   0  0  0  0  0  0  0  0  0  0  0  0
   -1.5508    0.7742   -0.4282 H   0  0  0  0  0  0  0  0  0  0  0  0
   -3.1737   -1.6318   -0.9421 H   0  0  0  0  0  0  0  0  0  0  0  0
   -3.6736   -0.6329    1.2218 H   0  0  0  0  0  0  0  0  0  0  0  0
   -5.4203   -1.8203    0.2799 H   0  0  0  0  0  0  0  0  0  0  0  0
   -5.6017   -0.7853   -1.1229 H   0  0  0  0  0  0  0  0  0  0  0  0
   -7.3227   -0.6684    0.9233 H   0  0  0  0  0  0  0  0  0  0  0  0
   -6.9269    0.7719   -0.0138 H   0  0  0  0  0  0  0  0  0  0  0  0
   -5.6363    2.5859    1.3001 H   0  0  0  0  0  0  0  0  0  0  0  0
   -4.5357    1.8666    2.4731 H   0  0  0  0  0  0  0  0  0  0  0  0
   -3.1405    1.7897    0.6437 H   0  0  0  0  0  0  0  0  0  0  0  0
   -4.4580    1.7608   -0.5136 H   0  0  0  0  0  0  0  0  0  0  0  0
   -1.5939   -1.9781    0.8495 H   0  0  0  0  0  0  0  0  0  0  0  0
   -1.2514   -0.4065    1.5457 H   0  0  0  0  0  0  0  0  0  0  0  0
    0.8282   -1.3564    1.5629 H   0  0  0  0  0  0  0  0  0  0  0  0
    0.5687   -2.3347    0.1179 H   0  0  0  0  0  0  0  0  0  0  0  0
    4.8347   -1.0395    1.9263 H   0  0  0  0  0  0  0  0  0  0  0  0
  1  2  1  0
  2  3  1  0
  3  4  2  0
  3  5  1  0
  5  6  2  0
  6  7  1  0
  7  8  2  0
  8  9  1  0
  9 10  1  0
 10 11  1  0
 11 12  1  0
 12 13  1  0
 13 14  1  0
 14 15  1  0
 15 16  1  0
 16 17  1  0
 17 18  1  0
 18 19  1  0
 12 20  1  0
 20 21  1  0
  8 22  1  0
 22 23  2  0
 23  5  1  0
 21  9  1  0
 19 14  1  0
  1 24  1  0
  1 25  1  0
  1 26  1  0
  6 27  1  0
 10 28  1  0
 10 29  1  0
 11 30  1  0
 11 31  1  0
 12 32  1  0
 13 33  1  0
 14 34  1  0
 15 35  1  0
 15 36  1  0
 16 37  1  0
 16 38  1  0
 18 39  1  0
 18 40  1  0
 19 41  1  0
 19 42  1  0
 20 43  1  0
 20 44  1  0
 21 45  1  0
 21 46  1  0
 23 47  1  0
M  END
$$$$
OCNT-2315880
     RDKit          3D

 50 53  0  0  0  0  0  0  0  0999 V2000
    2.2922    4.3738   -1.4039 C   0  0  0  0  0  0  0  0  0  0  0  0
    2.0006    2.9904   -1.1204 N   0  0  0  0  0  0  0  0  0  0  0  0
    0.8529    2.3223   -1.4160 C   0  0  0  0  0  0  0  0  0  0  0  0
    1.0319    1.0314   -0.9830 C   0  0  0  0  0  0  0  0  0  0  0  0
    0.1452   -0.0280   -1.0705 N   0  0  0  0  0  0  0  0  0  0  0  0
   -1.0906    0.0079   -1.6804 C   0  0  0  0  0  0  0  0  0  0  0  0
   -1.5823    0.9573   -2.2779 O   0  0  0  0  0  0  0  0  0  0  0  0
   -1.7350   -1.2075   -1.5561 N   0  0  0  0  0  0  0  0  0  0  0  0
   -3.0835   -1.3840   -2.0504 C   0  0  0  0  0  0  0  0  0  0  0  0
   -4.0905   -1.2296   -0.9357 C   0  0  0  0  0  0  0  0  0  0  0  0
   -4.6168   -2.3624   -0.2913 C   0  0  0  0  0  0  0  0  0  0  0  0
   -5.5357   -2.2471    0.7592 C   0  0  0  0  0  0  0  0  0  0  0  0
   -5.8914   -0.9552    1.1358 C   0  0  0  0  0  0  0  0  0  0  0  0
   -6.7607   -0.6327    2.1338 O   0  0  0  0  0  0  0  0  0  0  0  0
   -6.8235    0.7241    2.1795 C   0  0  0  0  0  0  0  0  0  0  0  0
   -6.0059    1.2798    1.2225 C   0  0  0  0  0  0  0  0  0  0  0  0
   -5.3956    0.1963    0.5377 C   0  0  0  0  0  0  0  0  0  0  0  0
   -4.4764    0.0618   -0.5179 C   0  0  0  0  0  0  0  0  0  0  0  0
    2.3410    1.0241   -0.4167 C   0  0  0  0  0  0  0  0  0  0  0  0
    3.0779   -0.1237    0.2193 C   0  0  0  0  0  0  0  0  0  0  0  0
    4.0828   -0.7626   -0.7613 C   0  0  0  0  0  0  0  0  0  0  0  0
    5.2338   -1.4975   -0.0674 C   0  0  0  0  0  0  0  0  0  0  0  0
    4.8167   -2.0598    1.2837 C   0  0  0  0  0  0  0  0  0  0  0  0
    4.3659   -0.9575    2.2439 C   0  0  0  0  0  0  0  0  0  0  0  0
    3.7639    0.2611    1.5381 C   0  0  0  0  0  0  0  0  0  0  0  0
    2.9277    2.2265   -0.5183 N   0  0  0  0  0  0  0  0  0  0  0  0
    1.3634    4.8971   -1.6454 H   0  0  0  0  0  0  0  0  0  0  0  0
    2.9776    4.4113   -2.2549 H   0  0  0  0  0  0  0  0  0  0  0  0
    2.7509    4.8246   -0.5200 H   0  0  0  0  0  0  0  0  0  0  0  0
    0.0239    2.8114   -1.9079 H   0  0  0  0  0  0  0  0  0  0  0  0
    0.4720   -0.9209   -0.7400 H   0  0  0  0  0  0  0  0  0  0  0  0
   -1.4854   -1.7677   -0.7570 H   0  0  0  0  0  0  0  0  0  0  0  0
   -3.1397   -2.3936   -2.4729 H   0  0  0  0  0  0  0  0  0  0  0  0
   -3.3035   -0.6819   -2.8622 H   0  0  0  0  0  0  0  0  0  0  0  0
   -4.3152   -3.3597   -0.6085 H   0  0  0  0  0  0  0  0  0  0  0  0
   -5.9512   -3.1129    1.2595 H   0  0  0  0  0  0  0  0  0  0  0  0
   -7.4809    1.1349    2.9332 H   0  0  0  0  0  0  0  0  0  0  0  0
   -5.8643    2.3355    1.0391 H   0  0  0  0  0  0  0  0  0  0  0  0
   -4.0624    0.9446   -1.0013 H   0  0  0  0  0  0  0  0  0  0  0  0
    2.3333   -0.8922    0.4723 H   0  0  0  0  0  0  0  0  0  0  0  0
    3.5376   -1.4672   -1.4036 H   0  0  0  0  0  0  0  0  0  0  0  0
    4.5122   -0.0145   -1.4405 H   0  0  0  0  0  0  0  0  0  0  0  0
    5.6006   -2.3007   -0.7162 H   0  0  0  0  0  0  0  0  0  0  0  0
    6.0725   -0.8047    0.0758 H   0  0  0  0  0  0  0  0  0  0  0  0
    3.9964   -2.7739    1.1383 H   0  0  0  0  0  0  0  0  0  0  0  0
    5.6417   -2.6226    1.7340 H   0  0  0  0  0  0  0  0  0  0  0  0
    3.6358   -1.3792    2.9456 H   0  0  0  0  0  0  0  0  0  0  0  0
    5.2162   -0.6249    2.8527 H   0  0  0  0  0  0  0  0  0  0  0  0
    4.5638    0.9881    1.3415 H   0  0  0  0  0  0  0  0  0  0  0  0
    3.0598    0.7598    2.2159 H   0  0  0  0  0  0  0  0  0  0  0  0
  1  2  1  0
  2  3  1  0
  3  4  2  0
  4  5  1  0
  5  6  1  0
  6  7  2  0
  6  8  1  0
  8  9  1  0
  9 10  1  0
 10 11  2  0
 11 12  1  0
 12 13  2  0
 13 14  1  0
 14 15  1  0
 15 16  2  0
 16 17  1  0
 17 18  2  0
  4 19  1  0
 19 20  1  0
 20 21  1  0
 21 22  1  0
 22 23  1  0
 23 24  1  0
 24 25  1  0
 19 26  2  0
 26  2  1  0
 18 10  1  0
 25 20  1  0
 17 13  1  0
  1 27  1  0
  1 28  1  0
  1 29  1  0
  3 30  1  0
  5 31  1  0
  8 32  1  0
  9 33  1  0
  9 34  1  0
 11 35  1  0
 12 36  1  0
 15 37  1  0
 16 38  1  0
 18 39  1  0
 20 40  1  0
 21 41  1  0
 21 42  1  0
 22 43  1  0
 22 44  1  0
 23 45  1  0
 23 46  1  0
 24 47  1  0
 24 48  1  0
 25 49  1  0
 25 50  1  0
M  END
$$$$
OCNT-2315887
     RDKit          3D

  0  0  0  0  0  0  0  0  0  0999 V3000
M  V30 BEGIN CTAB
M  V30 COUNTS 38 40 0 0 0
M  V30 BEGIN ATOM
M  V30 1 C 6.769359 -0.340266 -0.279951 0
M  V30 2 C 5.268140 -0.367205 -0.231909 0
M  V30 3 C 4.563301 -1.400440 -0.868851 0
M  V30 4 C 3.166195 -1.473879 -0.819363 0
M  V30 5 C 2.517296 -0.477052 -0.097187 0
M  V30 6 O 1.170737 -0.373972 0.069771 0
M  V30 7 C 0.942244 0.735189 0.843340 0
M  V30 8 C -0.417194 1.097378 1.182540 0
M  V30 9 O -0.707933 2.089193 1.846148 0
M  V30 10 N -1.371609 0.232931 0.685058 0
M  V30 11 C -2.782752 0.539546 0.724232 0 CFG=1
M  V30 12 C -3.221756 1.486657 -0.394708 0
M  V30 13 C -4.710230 1.207256 -0.602958 0
M  V30 14 C -5.059505 0.023599 0.300942 0
M  V30 15 C -3.724637 -0.662375 0.595218 0 CFG=1
M  V30 16 C -3.348318 -1.628182 -0.507410 0
M  V30 17 O -2.324848 -1.625223 -1.172064 0
M  V30 18 O -4.265077 -2.600589 -0.681854 0
M  V30 19 C 2.146481 1.333492 1.164714 0
M  V30 20 C 3.168656 0.557372 0.560888 0
M  V30 21 C 4.572819 0.614437 0.500330 0
M  V30 22 H 7.137414 -0.762823 -1.220782 0
M  V30 23 H 7.143840 0.686887 -0.217395 0
M  V30 24 H 7.180046 -0.918487 0.553398 0
M  V30 25 H 5.105783 -2.167976 -1.418760 0
M  V30 26 H 2.613869 -2.264218 -1.312537 0
M  V30 27 H -1.040414 -0.443636 -0.003497 0
M  V30 28 H -2.988045 1.032672 1.684831 0
M  V30 29 H -3.038585 2.533740 -0.130765 0
M  V30 30 H -2.672723 1.289369 -1.323645 0
M  V30 31 H -5.323346 2.080688 -0.357827 0
M  V30 32 H -4.899383 0.958878 -1.653495 0
M  V30 33 H -5.491394 0.399534 1.236934 0
M  V30 34 H -5.805371 -0.626800 -0.165919 0
M  V30 35 H -3.752315 -1.233860 1.529970 0
M  V30 36 H -3.889307 -3.166626 -1.388770 0
M  V30 37 H 2.260086 2.225866 1.764588 0
M  V30 38 H 5.108477 1.408923 1.012405 0
M  V30 END ATOM
M  V30 BEGIN BOND
M  V30 1 1 1 2
M  V30 2 2 2 3
M  V30 3 1 3 4
M  V30 4 2 4 5
M  V30 5 1 5 6
M  V30 6 1 6 7
M  V30 7 1 7 8
M  V30 8 2 8 9
M  V30 9 1 8 10
M  V30 10 1 10 11
M  V30 11 1 11 12
M  V30 12 1 12 13
M  V30 13 1 13 14
M  V30 14 1 14 15
M  V30 15 1 15 16
M  V30 16 2 16 17
M  V30 17 1 16 18
M  V30 18 2 7 19
M  V30 19 1 19 20
M  V30 20 2 20 21
M  V30 21 1 21 2
M  V30 22 1 20 5
M  V30 23 1 15 11
M  V30 24 1 1 22
M  V30 25 1 1 23
M  V30 26 1 1 24
M  V30 27 1 3 25
M  V30 28 1 4 26
M  V30 29 1 10 27
M  V30 30 1 11 28 CFG=1
M  V30 31 1 12 29
M  V30 32 1 12 30
M  V30 33 1 13 31
M  V30 34 1 13 32
M  V30 35 1 14 33
M  V30 36 1 14 34
M  V30 37 1 15 35 CFG=1
M  V30 38 1 18 36
M  V30 39 1 19 37
M  V30 40 1 21 38
M  V30 END BOND
M  V30 BEGIN COLLECTION
M  V30 MDLV30/STERAC1 ATOMS=(2 11 15)
M  V30 END COLLECTION
M  V30 END CTAB
M  END
>  <_CXSMILES_Data>  (1036) 
|&1:10,14|

$$$$
OCNT-2315891
     RDKit          3D

 53 56  0  0  0  0  0  0  0  0999 V2000
    5.8220    1.7561    0.3601 C   0  0  0  0  0  0  0  0  0  0  0  0
    4.5205    0.9824    0.5581 C   0  0  0  0  0  0  0  0  0  0  0  0
    4.0148    0.4086   -0.7005 N   0  0  0  0  0  0  0  0  0  0  0  0
    4.8362   -0.7238   -1.1682 C   0  0  0  0  0  0  0  0  0  0  0  0
    4.3021   -1.9640   -0.4639 C   0  0  0  0  0  0  0  0  0  0  0  0
    2.9094   -1.5825    0.0183 C   0  0  0  0  0  0  0  0  0  0  0  0
    2.6595   -0.1960   -0.5768 C   0  0  0  0  0  0  0  0  0  0  0  0
    1.5792    0.6169    0.1707 C   0  0  0  0  0  0  0  0  0  0  0  0
    0.2294    0.0784   -0.0185 N   0  0  0  0  0  0  0  0  0  0  0  0
   -0.4478    0.3868   -1.2815 C   0  0  0  0  0  0  0  0  0  0  0  0
   -1.7326    1.1639   -1.0952 C   0  0  0  0  0  0  0  0  0  0  0  0
   -1.7942    2.2739   -0.2377 C   0  0  0  0  0  0  0  0  0  0  0  0
   -2.9889    2.9770   -0.0662 C   0  0  0  0  0  0  0  0  0  0  0  0
   -4.1234    2.5777   -0.7638 C   0  0  0  0  0  0  0  0  0  0  0  0
   -5.3112    3.2323   -0.6228 O   0  0  0  0  0  0  0  0  0  0  0  0
   -4.0799    1.4950   -1.6323 C   0  0  0  0  0  0  0  0  0  0  0  0
   -2.8861    0.7927   -1.8029 C   0  0  0  0  0  0  0  0  0  0  0  0
   -0.2818   -0.7997    0.9457 C   0  0  0  0  0  0  0  0  0  0  0  0
    0.3036   -1.0494    1.9995 O   0  0  0  0  0  0  0  0  0  0  0  0
   -1.5889   -1.4551    0.7015 C   0  0  0  0  0  0  0  0  0  0  0  0
   -1.6759   -2.3094   -0.3593 N   0  0  0  0  0  0  0  0  0  0  0  0
   -2.8414   -2.9362   -0.5883 C   0  0  0  0  0  0  0  0  0  0  0  0
   -3.9803   -2.7641    0.1781 C   0  0  0  0  0  0  0  0  0  0  0  0
   -3.9131   -1.8786    1.2722 C   0  0  0  0  0  0  0  0  0  0  0  0
   -2.6978   -1.2300    1.5279 C   0  0  0  0  0  0  0  0  0  0  0  0
   -2.8382   -0.1863    2.8987 S   0  0  0  0  0  0  0  0  0  0  0  0
   -4.4709   -0.5968    3.1510 C   0  0  0  0  0  0  0  0  0  0  0  0
   -4.9225   -1.5023    2.2217 C   0  0  0  0  0  0  0  0  0  0  0  0
    5.7176    2.5075   -0.4298 H   0  0  0  0  0  0  0  0  0  0  0  0
    6.6597    1.1009    0.1062 H   0  0  0  0  0  0  0  0  0  0  0  0
    6.0863    2.2798    1.2850 H   0  0  0  0  0  0  0  0  0  0  0  0
    4.6583    0.2223    1.3361 H   0  0  0  0  0  0  0  0  0  0  0  0
    3.7993    1.7110    0.9440 H   0  0  0  0  0  0  0  0  0  0  0  0
    4.6865   -0.8303   -2.2505 H   0  0  0  0  0  0  0  0  0  0  0  0
    5.9130   -0.6006   -1.0229 H   0  0  0  0  0  0  0  0  0  0  0  0
    4.2701   -2.8211   -1.1445 H   0  0  0  0  0  0  0  0  0  0  0  0
    4.9326   -2.2345    0.3904 H   0  0  0  0  0  0  0  0  0  0  0  0
    2.1602   -2.3087   -0.3136 H   0  0  0  0  0  0  0  0  0  0  0  0
    2.8958   -1.5610    1.1142 H   0  0  0  0  0  0  0  0  0  0  0  0
    2.3012   -0.3372   -1.6070 H   0  0  0  0  0  0  0  0  0  0  0  0
    1.5717    1.6545   -0.1847 H   0  0  0  0  0  0  0  0  0  0  0  0
    1.8037    0.6521    1.2427 H   0  0  0  0  0  0  0  0  0  0  0  0
    0.2173    0.9853   -1.9159 H   0  0  0  0  0  0  0  0  0  0  0  0
   -0.6236   -0.5523   -1.8154 H   0  0  0  0  0  0  0  0  0  0  0  0
   -0.9113    2.5878    0.3155 H   0  0  0  0  0  0  0  0  0  0  0  0
   -3.0123    3.8231    0.6130 H   0  0  0  0  0  0  0  0  0  0  0  0
   -5.1881    3.9567    0.0122 H   0  0  0  0  0  0  0  0  0  0  0  0
   -4.9729    1.1971   -2.1737 H   0  0  0  0  0  0  0  0  0  0  0  0
   -2.8657   -0.0573   -2.4813 H   0  0  0  0  0  0  0  0  0  0  0  0
   -2.8448   -3.6108   -1.4406 H   0  0  0  0  0  0  0  0  0  0  0  0
   -4.8947   -3.2959   -0.0617 H   0  0  0  0  0  0  0  0  0  0  0  0
   -5.0245   -0.1538    3.9676 H   0  0  0  0  0  0  0  0  0  0  0  0
   -5.9371   -1.8819    2.2147 H   0  0  0  0  0  0  0  0  0  0  0  0
  1  2  1  0
  2  3  1  0
  3  4  1  0
  4  5  1  0
  5  6  1  0
  6  7  1  0
  7  8  1  0
  8  9  1  0
  9 10  1  0
 10 11  1  0
 11 12  1  0
 12 13  2  0
 13 14  1  0
 14 15  1  0
 14 16  2  0
 16 17  1  0
  9 18  1  0
 18 19  2  0
 18 20  1  0
 20 21  1  0
 21 22  2  0
 22 23  1  0
 23 24  2  0
 24 25  1  0
 25 26  1  0
 26 27  1  0
 27 28  2  0
  7  3  1  0
 17 11  2  0
 25 20  2  0
 28 24  1  0
  1 29  1  0
  1 30  1  0
  1 31  1  0
  2 32  1  0
  2 33  1  0
  4 34  1  0
  4 35  1  0
  5 36  1  0
  5 37  1  0
  6 38  1  0
  6 39  1  0
  7 40  1  0
  8 41  1  0
  8 42  1  0
 10 43  1  0
 10 44  1  0
 12 45  1  0
 13 46  1  0
 15 47  1  0
 16 48  1  0
 17 49  1  0
 22 50  1  0
 23 51  1  0
 27 52  1  0
 28 53  1  0
M  END
$$$$
OCNT-2315895
     RDKit          3D

 48 50  0  0  0  0  0  0  0  0999 V2000
   -7.4786   -0.8838    0.5072 O   0  0  0  0  0  0  0  0  0  0  0  0
   -6.8308    0.0652    0.0830 C   0  0  0  0  0  0  0  0  0  0  0  0
   -7.4928    1.3255   -0.3419 C   0  0  0  0  0  0  0  0  0  0  0  0
   -6.7519    2.3309   -0.8296 C   0  0  0  0  0  0  0  0  0  0  0  0
   -5.3158    2.2044   -0.9357 C   0  0  0  0  0  0  0  0  0  0  0  0
   -4.7129    1.0764   -0.5286 C   0  0  0  0  0  0  0  0  0  0  0  0
   -3.2219    0.9527   -0.6285 C   0  0  0  0  0  0  0  0  0  0  0  0
   -2.5642    1.6148   -1.4213 O   0  0  0  0  0  0  0  0  0  0  0  0
   -2.6875    0.0571    0.2763 N   0  0  0  0  0  0  0  0  0  0  0  0
   -1.2423   -0.1080    0.4205 C   0  0  0  0  0  0  0  0  0  0  0  0
   -0.6224   -0.8265   -0.7781 C   0  0  0  0  0  0  0  0  0  0  0  0
    0.9017   -0.9179   -0.6268 C   0  0  0  0  0  0  0  0  0  0  0  0
    1.3555   -0.9957    0.7748 N   0  0  0  0  0  0  0  0  0  0  0  0
    2.6896   -1.6027    0.8808 C   0  0  0  0  0  0  0  0  0  0  0  0
    3.7744   -0.7588    0.2480 C   0  0  0  0  0  0  0  0  0  0  0  0
    4.5458   -1.2216   -0.7548 C   0  0  0  0  0  0  0  0  0  0  0  0
    5.6148   -0.4113   -1.4284 C   0  0  0  0  0  0  0  0  0  0  0  0
    5.5471    1.0778   -1.0903 C   0  0  0  0  0  0  0  0  0  0  0  0
    5.2783    1.2897    0.3946 C   0  0  0  0  0  0  0  0  0  0  0  0
    3.9630    0.6299    0.8175 C   0  0  0  0  0  0  0  0  0  0  0  0
    0.3826   -1.6912    1.6125 C   0  0  0  0  0  0  0  0  0  0  0  0
   -0.9100   -0.8733    1.7128 C   0  0  0  0  0  0  0  0  0  0  0  0
   -5.4644    0.0350   -0.0284 N   0  0  0  0  0  0  0  0  0  0  0  0
   -8.5693    1.3736   -0.2467 H   0  0  0  0  0  0  0  0  0  0  0  0
   -7.2115    3.2589   -1.1544 H   0  0  0  0  0  0  0  0  0  0  0  0
   -4.7503    3.0380   -1.3433 H   0  0  0  0  0  0  0  0  0  0  0  0
   -3.2671   -0.1799    1.0705 H   0  0  0  0  0  0  0  0  0  0  0  0
   -0.8138    0.9015    0.4853 H   0  0  0  0  0  0  0  0  0  0  0  0
   -0.8599   -0.3204   -1.7203 H   0  0  0  0  0  0  0  0  0  0  0  0
   -1.0486   -1.8358   -0.8579 H   0  0  0  0  0  0  0  0  0  0  0  0
    1.2401   -1.7850   -1.2090 H   0  0  0  0  0  0  0  0  0  0  0  0
    1.3503   -0.0284   -1.0854 H   0  0  0  0  0  0  0  0  0  0  0  0
    2.9575   -1.7154    1.9400 H   0  0  0  0  0  0  0  0  0  0  0  0
    2.6828   -2.6177    0.4613 H   0  0  0  0  0  0  0  0  0  0  0  0
    4.4044   -2.2330   -1.1287 H   0  0  0  0  0  0  0  0  0  0  0  0
    6.5905   -0.8141   -1.1314 H   0  0  0  0  0  0  0  0  0  0  0  0
    5.5343   -0.5343   -2.5145 H   0  0  0  0  0  0  0  0  0  0  0  0
    6.4854    1.5651   -1.3782 H   0  0  0  0  0  0  0  0  0  0  0  0
    4.7491    1.5523   -1.6757 H   0  0  0  0  0  0  0  0  0  0  0  0
    5.2423    2.3612    0.6219 H   0  0  0  0  0  0  0  0  0  0  0  0
    6.1060    0.8678    0.9789 H   0  0  0  0  0  0  0  0  0  0  0  0
    3.9334    0.5915    1.9130 H   0  0  0  0  0  0  0  0  0  0  0  0
    3.1261    1.2607    0.4934 H   0  0  0  0  0  0  0  0  0  0  0  0
    0.7675   -1.8322    2.6301 H   0  0  0  0  0  0  0  0  0  0  0  0
    0.1702   -2.6925    1.2149 H   0  0  0  0  0  0  0  0  0  0  0  0
   -0.8312   -0.1485    2.5335 H   0  0  0  0  0  0  0  0  0  0  0  0
   -1.7247   -1.5558    1.9871 H   0  0  0  0  0  0  0  0  0  0  0  0
   -5.0207   -0.8462    0.1923 H   0  0  0  0  0  0  0  0  0  0  0  0
  1  2  2  0
  2  3  1  0
  3  4  2  0
  4  5  1  0
  5  6  2  0
  6  7  1  0
  7  8  2  0
  7  9  1  0
  9 10  1  0
 10 11  1  0
 11 12  1  0
 12 13  1  0
 13 14  1  0
 14 15  1  0
 15 16  2  0
 16 17  1  0
 17 18  1  0
 18 19  1  0
 19 20  1  0
 13 21  1  0
 21 22  1  0
  6 23  1  0
 23  2  1  0
 22 10  1  0
 20 15  1  0
  3 24  1  0
  4 25  1  0
  5 26  1  0
  9 27  1  0
 10 28  1  0
 11 29  1  0
 11 30  1  0
 12 31  1  0
 12 32  1  0
 14 33  1  0
 14 34  1  0
 16 35  1  0
 17 36  1  0
 17 37  1  0
 18 38  1  0
 18 39  1  0
 19 40  1  0
 19 41  1  0
 20 42  1  0
 20 43  1  0
 21 44  1  0
 21 45  1  0
 22 46  1  0
 22 47  1  0
 23 48  1  0
M  END
$$$$
OCNT-2315913
     RDKit          3D

 36 38  0  0  0  0  0  0  0  0999 V2000
    6.1206    0.4993   -0.5480 C   0  0  0  0  0  0  0  0  0  0  0  0
    4.6370    0.5038   -0.3283 C   0  0  0  0  0  0  0  0  0  0  0  0
    4.0069   -0.6977   -0.3859 N   0  0  0  0  0  0  0  0  0  0  0  0
    2.6771   -0.7370   -0.1961 C   0  0  0  0  0  0  0  0  0  0  0  0
    2.0179   -1.9544   -0.2534 C   0  0  0  0  0  0  0  0  0  0  0  0
    0.6342   -2.0535   -0.0609 C   0  0  0  0  0  0  0  0  0  0  0  0
   -0.1403   -0.9162    0.1993 C   0  0  0  0  0  0  0  0  0  0  0  0
   -1.5956   -1.0164    0.4043 C   0  0  0  0  0  0  0  0  0  0  0  0
   -2.1351   -1.9336    1.3253 C   0  0  0  0  0  0  0  0  0  0  0  0
   -3.5159   -2.0489    1.5163 C   0  0  0  0  0  0  0  0  0  0  0  0
   -4.3879   -1.2419    0.7921 C   0  0  0  0  0  0  0  0  0  0  0  0
   -3.8668   -0.3163   -0.1140 C   0  0  0  0  0  0  0  0  0  0  0  0
   -4.9830    0.7077   -1.0337 S   0  0  0  0  0  0  0  0  0  0  0  0
   -5.3856    1.8782    0.1091 N   0  0  0  0  0  0  0  0  0  0  0  0
   -6.1692   -0.0598   -1.3261 O   0  0  0  0  0  0  0  0  0  0  0  0
   -4.2354    1.4099   -2.0513 O   0  0  0  0  0  0  0  0  0  0  0  0
   -2.4865   -0.2059   -0.3178 C   0  0  0  0  0  0  0  0  0  0  0  0
    0.5213    0.3205    0.2563 C   0  0  0  0  0  0  0  0  0  0  0  0
    1.9140    0.4188    0.0619 C   0  0  0  0  0  0  0  0  0  0  0  0
    2.5824    1.6496    0.1179 C   0  0  0  0  0  0  0  0  0  0  0  0
    3.9564    1.6910   -0.0799 C   0  0  0  0  0  0  0  0  0  0  0  0
    4.6353    2.8734   -0.0327 O   0  0  0  0  0  0  0  0  0  0  0  0
    6.4838   -0.5179   -0.7277 H   0  0  0  0  0  0  0  0  0  0  0  0
    6.3778    1.1089   -1.4198 H   0  0  0  0  0  0  0  0  0  0  0  0
    6.6369    0.8915    0.3338 H   0  0  0  0  0  0  0  0  0  0  0  0
    2.5952   -2.8534   -0.4573 H   0  0  0  0  0  0  0  0  0  0  0  0
    0.1686   -3.0348   -0.1312 H   0  0  0  0  0  0  0  0  0  0  0  0
   -1.4737   -2.5727    1.9092 H   0  0  0  0  0  0  0  0  0  0  0  0
   -3.9062   -2.7748    2.2262 H   0  0  0  0  0  0  0  0  0  0  0  0
   -5.4630   -1.3430    0.9293 H   0  0  0  0  0  0  0  0  0  0  0  0
   -5.0530    2.7863   -0.2199 H   0  0  0  0  0  0  0  0  0  0  0  0
   -5.0474    1.6631    1.0459 H   0  0  0  0  0  0  0  0  0  0  0  0
   -2.1025    0.4979   -1.0550 H   0  0  0  0  0  0  0  0  0  0  0  0
   -0.0509    1.2225    0.4657 H   0  0  0  0  0  0  0  0  0  0  0  0
    2.0259    2.5604    0.3140 H   0  0  0  0  0  0  0  0  0  0  0  0
    4.0067    3.5953    0.1321 H   0  0  0  0  0  0  0  0  0  0  0  0
  1  2  1  0
  2  3  2  0
  3  4  1  0
  4  5  2  0
  5  6  1  0
  6  7  2  0
  7  8  1  0
  8  9  1  0
  9 10  2  0
 10 11  1  0
 11 12  2  0
 12 13  1  0
 13 14  1  0
 13 15  2  0
 13 16  2  0
 12 17  1  0
  7 18  1  0
 18 19  2  0
 19 20  1  0
 20 21  2  0
 21 22  1  0
 21  2  1  0
 19  4  1  0
 17  8  2  0
  1 23  1  0
  1 24  1  0
  1 25  1  0
  5 26  1  0
  6 27  1  0
  9 28  1  0
 10 29  1  0
 11 30  1  0
 14 31  1  0
 14 32  1  0
 17 33  1  0
 18 34  1  0
 20 35  1  0
 22 36  1  0
M  END
$$$$
OCNT-2315930
     RDKit          3D

 45 46  0  0  0  0  0  0  0  0999 V2000
    4.3734    0.1920    1.7631 C   0  0  0  0  0  0  0  0  0  0  0  0
    3.7664   -0.5861    0.5906 C   0  0  1  0  0  0  0  0  0  0  0  0
    2.3211   -0.4485    0.5517 N   0  0  0  0  0  0  0  0  0  0  0  0
    1.5169   -1.1106    1.4364 C   0  0  0  0  0  0  0  0  0  0  0  0
    1.9132   -1.9120    2.2706 O   0  0  0  0  0  0  0  0  0  0  0  0
    0.2065   -0.7623    1.2764 N   0  0  0  0  0  0  0  0  0  0  0  0
   -0.8121   -1.4478    2.0473 C   0  0  0  0  0  0  0  0  0  0  0  0
   -2.1515   -0.9279    1.6626 C   0  0  0  0  0  0  0  0  0  0  0  0
   -2.5221   -0.3494    0.5341 N   0  0  0  0  0  0  0  0  0  0  0  0
   -3.8624   -0.0713    0.7198 C   0  0  0  0  0  0  0  0  0  0  0  0
   -4.6674    0.6034   -0.3652 C   0  0  0  0  0  0  0  0  0  0  0  0
   -6.0702    1.0101    0.1288 C   0  0  0  0  0  0  0  0  0  0  0  0
   -3.9418    1.8767   -0.8449 C   0  0  0  0  0  0  0  0  0  0  0  0
   -4.8314   -0.3573   -1.5590 C   0  0  0  0  0  0  0  0  0  0  0  0
   -4.2393   -0.5164    1.9686 C   0  0  0  0  0  0  0  0  0  0  0  0
   -3.1551   -1.0655    2.5804 O   0  0  0  0  0  0  0  0  0  0  0  0
    4.3411   -0.1775   -0.7561 C   0  0  0  0  0  0  0  0  0  0  0  0
    4.4911    1.1691   -1.1277 C   0  0  0  0  0  0  0  0  0  0  0  0
    4.9988    1.5101   -2.3847 C   0  0  0  0  0  0  0  0  0  0  0  0
    5.3525    0.5087   -3.2851 C   0  0  0  0  0  0  0  0  0  0  0  0
    5.9739    0.9300   -4.8327 Cl  0  0  0  0  0  0  0  0  0  0  0  0
    5.1995   -0.8314   -2.9417 C   0  0  0  0  0  0  0  0  0  0  0  0
    4.6918   -1.1720   -1.6853 C   0  0  0  0  0  0  0  0  0  0  0  0
    5.4673    0.1355    1.7484 H   0  0  0  0  0  0  0  0  0  0  0  0
    4.0305   -0.2153    2.7204 H   0  0  0  0  0  0  0  0  0  0  0  0
    4.0858    1.2488    1.7472 H   0  0  0  0  0  0  0  0  0  0  0  0
    3.9934   -1.6465    0.7635 H   0  0  0  0  0  0  0  0  0  0  0  0
    1.9483    0.4087    0.1730 H   0  0  0  0  0  0  0  0  0  0  0  0
   -0.0727   -0.4955    0.3413 H   0  0  0  0  0  0  0  0  0  0  0  0
   -0.7496   -2.5202    1.8343 H   0  0  0  0  0  0  0  0  0  0  0  0
   -0.6124   -1.2894    3.1121 H   0  0  0  0  0  0  0  0  0  0  0  0
   -6.6537    0.1374    0.4448 H   0  0  0  0  0  0  0  0  0  0  0  0
   -6.6378    1.5146   -0.6616 H   0  0  0  0  0  0  0  0  0  0  0  0
   -6.0101    1.6961    0.9823 H   0  0  0  0  0  0  0  0  0  0  0  0
   -4.5161    2.3928   -1.6226 H   0  0  0  0  0  0  0  0  0  0  0  0
   -2.9554    1.6449   -1.2641 H   0  0  0  0  0  0  0  0  0  0  0  0
   -3.7888    2.5804   -0.0180 H   0  0  0  0  0  0  0  0  0  0  0  0
   -3.8594   -0.6517   -1.9732 H   0  0  0  0  0  0  0  0  0  0  0  0
   -5.3505   -1.2760   -1.2598 H   0  0  0  0  0  0  0  0  0  0  0  0
   -5.4094    0.1062   -2.3665 H   0  0  0  0  0  0  0  0  0  0  0  0
   -5.1596   -0.5214    2.5339 H   0  0  0  0  0  0  0  0  0  0  0  0
    4.2114    1.9688   -0.4461 H   0  0  0  0  0  0  0  0  0  0  0  0
    5.1124    2.5565   -2.6546 H   0  0  0  0  0  0  0  0  0  0  0  0
    5.4671   -1.6150   -3.6451 H   0  0  0  0  0  0  0  0  0  0  0  0
    4.5664   -2.2241   -1.4352 H   0  0  0  0  0  0  0  0  0  0  0  0
  1  2  1  0
  2  3  1  0
  3  4  1  0
  4  5  2  0
  4  6  1  0
  6  7  1  0
  7  8  1  0
  8  9  2  0
  9 10  1  0
 10 11  1  0
 11 12  1  0
 11 13  1  0
 11 14  1  0
 10 15  2  0
 15 16  1  0
  2 17  1  0
 17 18  1  0
 18 19  2  0
 19 20  1  0
 20 21  1  0
 20 22  2  0
 22 23  1  0
 16  8  1  0
 23 17  2  0
  1 24  1  0
  1 25  1  0
  1 26  1  0
  2 27  1  1
  3 28  1  0
  6 29  1  0
  7 30  1  0
  7 31  1  0
 12 32  1  0
 12 33  1  0
 12 34  1  0
 13 35  1  0
 13 36  1  0
 13 37  1  0
 14 38  1  0
 14 39  1  0
 14 40  1  0
 15 41  1  0
 18 42  1  0
 19 43  1  0
 22 44  1  0
 23 45  1  0
M  END
$$$$
OCNT-2315937
     RDKit          3D

 41 44  0  0  0  0  0  0  0  0999 V2000
    5.9489    1.5306    2.4624 F   0  0  0  0  0  0  0  0  0  0  0  0
    5.5409    0.8964    1.3565 C   0  0  0  0  0  0  0  0  0  0  0  0
    6.4656    0.5316    0.3935 C   0  0  0  0  0  0  0  0  0  0  0  0
    6.0259   -0.1223   -0.7598 C   0  0  0  0  0  0  0  0  0  0  0  0
    4.6829   -0.4220   -0.9661 C   0  0  0  0  0  0  0  0  0  0  0  0
    4.3341   -1.0389   -2.0965 N   0  0  0  0  0  0  0  0  0  0  0  0
    3.0320   -1.2948   -2.2595 C   0  0  0  0  0  0  0  0  0  0  0  0
    2.0524   -1.0074   -1.3957 N   0  0  0  0  0  0  0  0  0  0  0  0
    2.4113   -0.4034   -0.2507 C   0  0  0  0  0  0  0  0  0  0  0  0
    1.4161   -0.0900    0.7030 N   0  0  0  0  0  0  0  0  0  0  0  0
    0.0273   -0.4233    0.3450 C   0  0  0  0  0  0  0  0  0  0  0  0
   -0.5531    0.6424   -0.5920 C   0  0  0  0  0  0  0  0  0  0  0  0
   -2.0227    0.3574   -0.8883 C   0  0  0  0  0  0  0  0  0  0  0  0
   -2.7770    0.2727    0.3732 N   0  0  0  0  0  0  0  0  0  0  0  0
   -4.1701    0.1445    0.1433 C   0  0  0  0  0  0  0  0  0  0  0  0
   -4.8666    1.1968   -0.4469 C   0  0  0  0  0  0  0  0  0  0  0  0
   -6.2366    1.0894   -0.6674 C   0  0  0  0  0  0  0  0  0  0  0  0
   -6.8668   -0.0728   -0.2819 C   0  0  0  0  0  0  0  0  0  0  0  0
   -6.2011   -1.0856    0.2970 N   0  0  0  0  0  0  0  0  0  0  0  0
   -4.8486   -0.9657    0.5146 N   0  0  0  0  0  0  0  0  0  0  0  0
   -2.2763   -0.7603    1.2930 C   0  0  0  0  0  0  0  0  0  0  0  0
   -0.8137   -0.4798    1.6276 C   0  0  0  0  0  0  0  0  0  0  0  0
    3.7503   -0.0615    0.0201 C   0  0  0  0  0  0  0  0  0  0  0  0
    4.1942    0.6115    1.1848 C   0  0  0  0  0  0  0  0  0  0  0  0
    7.5170    0.7594    0.5362 H   0  0  0  0  0  0  0  0  0  0  0  0
    6.7505   -0.4032   -1.5216 H   0  0  0  0  0  0  0  0  0  0  0  0
    2.7420   -1.7860   -3.1821 H   0  0  0  0  0  0  0  0  0  0  0  0
    1.6912   -0.5183    1.5842 H   0  0  0  0  0  0  0  0  0  0  0  0
   -0.0242   -1.4150   -0.1246 H   0  0  0  0  0  0  0  0  0  0  0  0
    0.0010    0.6830   -1.5362 H   0  0  0  0  0  0  0  0  0  0  0  0
   -0.4562    1.6351   -0.1318 H   0  0  0  0  0  0  0  0  0  0  0  0
   -2.1156   -0.5796   -1.4538 H   0  0  0  0  0  0  0  0  0  0  0  0
   -2.3963    1.1666   -1.5266 H   0  0  0  0  0  0  0  0  0  0  0  0
   -4.3505    2.1130   -0.7130 H   0  0  0  0  0  0  0  0  0  0  0  0
   -6.7935    1.9007   -1.1209 H   0  0  0  0  0  0  0  0  0  0  0  0
   -7.9301   -0.2268   -0.4205 H   0  0  0  0  0  0  0  0  0  0  0  0
   -2.3650   -1.7613    0.8496 H   0  0  0  0  0  0  0  0  0  0  0  0
   -2.8470   -0.7490    2.2304 H   0  0  0  0  0  0  0  0  0  0  0  0
   -0.4338   -1.2622    2.2958 H   0  0  0  0  0  0  0  0  0  0  0  0
   -0.7323    0.4694    2.1740 H   0  0  0  0  0  0  0  0  0  0  0  0
    3.4936    0.9286    1.9515 H   0  0  0  0  0  0  0  0  0  0  0  0
  1  2  1  0
  2  3  1  0
  3  4  2  0
  4  5  1  0
  5  6  2  0
  6  7  1  0
  7  8  2  0
  8  9  1  0
  9 10  1  0
 10 11  1  0
 11 12  1  0
 12 13  1  0
 13 14  1  0
 14 15  1  0
 15 16  2  0
 16 17  1  0
 17 18  2  0
 18 19  1  0
 19 20  2  0
 14 21  1  0
 21 22  1  0
  9 23  2  0
 23 24  1  0
 24  2  2  0
 23  5  1  0
 22 11  1  0
 20 15  1  0
  3 25  1  0
  4 26  1  0
  7 27  1  0
 10 28  1  0
 11 29  1  0
 12 30  1  0
 12 31  1  0
 13 32  1  0
 13 33  1  0
 16 34  1  0
 17 35  1  0
 18 36  1  0
 21 37  1  0
 21 38  1  0
 22 39  1  0
 22 40  1  0
 24 41  1  0
M  END
$$$$
OCNT-2315944
     RDKit          3D

 46 50  0  0  0  0  0  0  0  0999 V2000
    0.9753   -1.8417    2.0146 O   0  0  0  0  0  0  0  0  0  0  0  0
    0.8016   -0.9256    1.2158 C   0  0  0  0  0  0  0  0  0  0  0  0
    1.7528   -0.5183    0.3154 O   0  0  0  0  0  0  0  0  0  0  0  0
    2.9862   -1.2361    0.3594 C   0  0  0  0  0  0  0  0  0  0  0  0
    4.0268   -0.4788   -0.4617 C   0  0  0  0  0  0  0  0  0  0  0  0
    5.0631   -1.5462   -0.7723 C   0  0  0  0  0  0  0  0  0  0  0  0
    4.1976   -2.7625   -1.0985 C   0  0  0  0  0  0  0  0  0  0  0  0
    4.0540   -3.0747   -2.6054 C   0  0  0  0  0  0  0  0  0  0  0  0
    5.0373   -4.1358   -2.5050 O   0  0  0  0  0  0  0  0  0  0  0  0
    4.9061   -4.1305   -1.0611 C   0  0  0  0  0  0  0  0  0  0  0  0
    2.8830   -2.6051   -0.3311 C   0  0  0  0  0  0  0  0  0  0  0  0
   -0.4496   -0.1473    1.1152 C   0  0  0  0  0  0  0  0  0  0  0  0
   -0.6358    0.8605    0.2448 N   0  0  0  0  0  0  0  0  0  0  0  0
   -1.9296    1.2261    0.4569 N   0  0  0  0  0  0  0  0  0  0  0  0
   -2.5392    2.1805   -0.4120 C   0  0  0  0  0  0  0  0  0  0  0  0
   -3.9290    2.3572   -0.4739 C   0  0  0  0  0  0  0  0  0  0  0  0
   -4.4793    3.3035   -1.3456 C   0  0  0  0  0  0  0  0  0  0  0  0
   -3.6484    4.0617   -2.1607 C   0  0  0  0  0  0  0  0  0  0  0  0
   -4.1836    4.9640   -2.9926 F   0  0  0  0  0  0  0  0  0  0  0  0
   -2.2723    3.8873   -2.1309 C   0  0  0  0  0  0  0  0  0  0  0  0
   -1.7163    2.9437   -1.2635 C   0  0  0  0  0  0  0  0  0  0  0  0
   -2.4238    0.5211    1.5458 C   0  0  0  0  0  0  0  0  0  0  0  0
   -3.6412    0.7485    2.2643 C   0  0  0  0  0  0  0  0  0  0  0  0
   -4.0525    1.9166    2.8779 C   0  0  0  0  0  0  0  0  0  0  0  0
   -5.3223    1.7766    3.5127 C   0  0  0  0  0  0  0  0  0  0  0  0
   -5.8278    0.5031    3.3773 C   0  0  0  0  0  0  0  0  0  0  0  0
   -4.7733   -0.5157    2.4965 S   0  0  0  0  0  0  0  0  0  0  0  0
   -1.5375   -0.3761    1.9258 N   0  0  0  0  0  0  0  0  0  0  0  0
    3.3460   -1.3384    1.3920 H   0  0  0  0  0  0  0  0  0  0  0  0
    3.5808   -0.0830   -1.3828 H   0  0  0  0  0  0  0  0  0  0  0  0
    4.4485    0.3687    0.0875 H   0  0  0  0  0  0  0  0  0  0  0  0
    5.7295   -1.2508   -1.5883 H   0  0  0  0  0  0  0  0  0  0  0  0
    5.6754   -1.7371    0.1173 H   0  0  0  0  0  0  0  0  0  0  0  0
    4.3726   -2.2888   -3.2960 H   0  0  0  0  0  0  0  0  0  0  0  0
    3.0881   -3.4736   -2.9325 H   0  0  0  0  0  0  0  0  0  0  0  0
    4.3027   -4.9784   -0.7209 H   0  0  0  0  0  0  0  0  0  0  0  0
    5.8807   -4.1532   -0.5655 H   0  0  0  0  0  0  0  0  0  0  0  0
    2.7589   -3.3914    0.4216 H   0  0  0  0  0  0  0  0  0  0  0  0
    2.0129   -2.6493   -0.9960 H   0  0  0  0  0  0  0  0  0  0  0  0
   -4.6245    1.7565    0.1025 H   0  0  0  0  0  0  0  0  0  0  0  0
   -5.5549    3.4438   -1.4022 H   0  0  0  0  0  0  0  0  0  0  0  0
   -1.6394    4.4820   -2.7823 H   0  0  0  0  0  0  0  0  0  0  0  0
   -0.6334    2.8233   -1.2572 H   0  0  0  0  0  0  0  0  0  0  0  0
   -3.4728    2.8326    2.8802 H   0  0  0  0  0  0  0  0  0  0  0  0
   -5.8327    2.5663    4.0511 H   0  0  0  0  0  0  0  0  0  0  0  0
   -6.7606    0.1147    3.7633 H   0  0  0  0  0  0  0  0  0  0  0  0
  1  2  2  0
  2  3  1  0
  3  4  1  0
  4  5  1  0
  5  6  1  0
  6  7  1  0
  7  8  1  0
  8  9  1  0
  9 10  1  0
  7 11  1  0
  2 12  1  0
 12 13  2  0
 13 14  1  0
 14 15  1  0
 15 16  1  0
 16 17  2  0
 17 18  1  0
 18 19  1  0
 18 20  2  0
 20 21  1  0
 14 22  1  0
 22 23  1  0
 23 24  2  0
 24 25  1  0
 25 26  2  0
 26 27  1  0
 22 28  2  0
 11  4  1  0
 28 12  1  0
 10  7  1  0
 21 15  2  0
 27 23  1  0
  4 29  1  0
  5 30  1  0
  5 31  1  0
  6 32  1  0
  6 33  1  0
  8 34  1  0
  8 35  1  0
 10 36  1  0
 10 37  1  0
 11 38  1  0
 11 39  1  0
 16 40  1  0
 17 41  1  0
 20 42  1  0
 21 43  1  0
 24 44  1  0
 25 45  1  0
 26 46  1  0
M  END
$$$$
OCNT-2315946
     RDKit          3D

 41 44  0  0  0  0  0  0  0  0999 V2000
   -3.6468    2.7404   -0.1423 C   0  0  0  0  0  0  0  0  0  0  0  0
   -2.3303    2.8125    0.3178 C   0  0  0  0  0  0  0  0  0  0  0  0
   -1.5870    1.6491    0.5838 C   0  0  0  0  0  0  0  0  0  0  0  0
   -0.1951    1.6976    1.0774 C   0  0  0  0  0  0  0  0  0  0  0  0
    0.3176    2.7420    1.8462 C   0  0  0  0  0  0  0  0  0  0  0  0
    1.5952    2.7833    2.2939 N   0  0  0  0  0  0  0  0  0  0  0  0
    2.3486    1.7138    1.9460 C   0  0  0  0  0  0  0  0  0  0  0  0
    1.8735    0.6566    1.1717 C   0  0  0  0  0  0  0  0  0  0  0  0
    2.6569   -0.4432    0.8181 N   0  0  0  0  0  0  0  0  0  0  0  0
    3.8323   -0.1214   -0.0102 C   0  0  0  0  0  0  0  0  0  0  0  0
    4.7275   -1.3603   -0.0824 C   0  0  0  0  0  0  0  0  0  0  0  0
    4.3257   -2.0798   -1.3688 C   0  0  0  0  0  0  0  0  0  0  0  0
    3.2448   -1.2927   -1.9628 N   0  0  0  0  0  0  0  0  0  0  0  0
    3.4487    0.0793   -1.4831 C   0  0  0  0  0  0  0  0  0  0  0  0
    0.5954    0.6391    0.7453 N   0  0  0  0  0  0  0  0  0  0  0  0
   -2.2192    0.4079    0.3517 C   0  0  0  0  0  0  0  0  0  0  0  0
   -3.5415    0.3141   -0.1144 C   0  0  0  0  0  0  0  0  0  0  0  0
   -4.1765   -0.9895   -0.3485 C   0  0  0  0  0  0  0  0  0  0  0  0
   -5.4887   -1.0954   -0.6271 N   0  0  0  0  0  0  0  0  0  0  0  0
   -5.7045   -2.4098   -0.7729 N   0  0  0  0  0  0  0  0  0  0  0  0
   -4.5886   -3.1681   -0.6072 C   0  0  0  0  0  0  0  0  0  0  0  0
   -3.5769   -2.2813   -0.3315 C   0  0  0  0  0  0  0  0  0  0  0  0
   -4.2469    1.5000   -0.3529 C   0  0  0  0  0  0  0  0  0  0  0  0
   -4.2058    3.6508   -0.3436 H   0  0  0  0  0  0  0  0  0  0  0  0
   -1.8919    3.7994    0.4468 H   0  0  0  0  0  0  0  0  0  0  0  0
   -0.2927    3.5858    2.1485 H   0  0  0  0  0  0  0  0  0  0  0  0
    3.3639    1.7181    2.3257 H   0  0  0  0  0  0  0  0  0  0  0  0
    2.0304   -1.0440    0.2724 H   0  0  0  0  0  0  0  0  0  0  0  0
    4.3929    0.7287    0.3934 H   0  0  0  0  0  0  0  0  0  0  0  0
    5.7781   -1.0536   -0.1549 H   0  0  0  0  0  0  0  0  0  0  0  0
    4.6270   -2.0082    0.7952 H   0  0  0  0  0  0  0  0  0  0  0  0
    3.9867   -3.1006   -1.1681 H   0  0  0  0  0  0  0  0  0  0  0  0
    5.1808   -2.1355   -2.0521 H   0  0  0  0  0  0  0  0  0  0  0  0
    3.2737   -1.3338   -2.9802 H   0  0  0  0  0  0  0  0  0  0  0  0
    4.2716    0.5508   -2.0338 H   0  0  0  0  0  0  0  0  0  0  0  0
    2.5463    0.6816   -1.6204 H   0  0  0  0  0  0  0  0  0  0  0  0
   -1.6535   -0.5003    0.5532 H   0  0  0  0  0  0  0  0  0  0  0  0
   -6.6464   -2.7190   -0.9883 H   0  0  0  0  0  0  0  0  0  0  0  0
   -4.6097   -4.2441   -0.6989 H   0  0  0  0  0  0  0  0  0  0  0  0
   -2.5421   -2.5326   -0.1474 H   0  0  0  0  0  0  0  0  0  0  0  0
   -5.2733    1.4623   -0.7136 H   0  0  0  0  0  0  0  0  0  0  0  0
  1  2  2  0
  2  3  1  0
  3  4  1  0
  4  5  1  0
  5  6  2  0
  6  7  1  0
  7  8  2  0
  8  9  1  0
  9 10  1  0
 10 11  1  0
 11 12  1  0
 12 13  1  0
 13 14  1  0
  8 15  1  0
  3 16  2  0
 16 17  1  0
 17 18  1  0
 18 19  2  0
 19 20  1  0
 20 21  1  0
 21 22  2  0
 17 23  2  0
 23  1  1  0
 15  4  2  0
 22 18  1  0
 14 10  1  0
  1 24  1  0
  2 25  1  0
  5 26  1  0
  7 27  1  0
  9 28  1  0
 10 29  1  0
 11 30  1  0
 11 31  1  0
 12 32  1  0
 12 33  1  0
 13 34  1  0
 14 35  1  0
 14 36  1  0
 16 37  1  0
 20 38  1  0
 21 39  1  0
 22 40  1  0
 23 41  1  0
M  END
$$$$
OCNT-2315948
     RDKit          3D

 44 47  0  0  0  0  0  0  0  0999 V2000
   -5.4570    2.8158    0.2723 C   0  0  0  0  0  0  0  0  0  0  0  0
   -5.8779    1.4289    0.5783 C   0  0  0  0  0  0  0  0  0  0  0  0
   -7.1253    1.1851    1.0002 N   0  0  0  0  0  0  0  0  0  0  0  0
   -7.1975   -0.1804    1.1907 O   0  0  0  0  0  0  0  0  0  0  0  0
   -5.9998   -0.7539    0.8865 C   0  0  0  0  0  0  0  0  0  0  0  0
   -5.9427   -2.2191    1.0467 C   0  0  0  0  0  0  0  0  0  0  0  0
   -5.1241    0.2315    0.4926 C   0  0  0  0  0  0  0  0  0  0  0  0
   -3.6341    0.0909    0.0469 C   0  0  0  0  0  0  0  0  0  0  0  0
   -2.9337    1.1496   -0.3027 N   0  0  0  0  0  0  0  0  0  0  0  0
   -1.6486    0.7865   -0.6762 C   0  0  0  0  0  0  0  0  0  0  0  0
   -0.7527    1.8620   -1.1818 C   0  0  0  0  0  0  0  0  0  0  0  0
   -1.3710   -0.5654   -0.5472 C   0  0  0  0  0  0  0  0  0  0  0  0
   -0.1558   -1.3226   -0.7971 C   0  0  0  0  0  0  0  0  0  0  0  0
   -0.1764   -2.4362   -1.3104 O   0  0  0  0  0  0  0  0  0  0  0  0
    0.9927   -0.6749   -0.3657 N   0  0  0  0  0  0  0  0  0  0  0  0
    2.3315   -1.1010   -0.5023 C   0  0  0  0  0  0  0  0  0  0  0  0
    2.7216   -2.2402   -1.2057 C   0  0  0  0  0  0  0  0  0  0  0  0
    4.0714   -2.5888   -1.2926 C   0  0  0  0  0  0  0  0  0  0  0  0
    5.0443   -1.7992   -0.6800 C   0  0  0  0  0  0  0  0  0  0  0  0
    4.6785   -0.6469    0.0234 C   0  0  0  0  0  0  0  0  0  0  0  0
    5.6966    0.1693    0.6621 C   0  0  0  0  0  0  0  0  0  0  0  0
    5.6331    1.5360    0.8375 C   0  0  0  0  0  0  0  0  0  0  0  0
    6.7955    1.8999    1.4555 N   0  0  0  0  0  0  0  0  0  0  0  0
    7.6170    0.8676    1.6994 N   0  0  0  0  0  0  0  0  0  0  0  0
    6.9514   -0.1833    1.2133 C   0  0  0  0  0  0  0  0  0  0  0  0
    3.3180   -0.3082    0.1056 C   0  0  0  0  0  0  0  0  0  0  0  0
   -2.7838   -1.3921   -0.0326 S   0  0  0  0  0  0  0  0  0  0  0  0
   -4.6207    3.1138    0.9126 H   0  0  0  0  0  0  0  0  0  0  0  0
   -5.1444    2.9007   -0.7733 H   0  0  0  0  0  0  0  0  0  0  0  0
   -6.2721    3.5289    0.4353 H   0  0  0  0  0  0  0  0  0  0  0  0
   -5.1836   -2.4983    1.7834 H   0  0  0  0  0  0  0  0  0  0  0  0
   -5.7065   -2.7035    0.0946 H   0  0  0  0  0  0  0  0  0  0  0  0
   -6.9019   -2.6187    1.3922 H   0  0  0  0  0  0  0  0  0  0  0  0
   -0.1242    1.5002   -2.0013 H   0  0  0  0  0  0  0  0  0  0  0  0
   -1.3386    2.7060   -1.5602 H   0  0  0  0  0  0  0  0  0  0  0  0
   -0.1084    2.2297   -0.3775 H   0  0  0  0  0  0  0  0  0  0  0  0
    0.8566    0.1674    0.1763 H   0  0  0  0  0  0  0  0  0  0  0  0
    2.0032   -2.8837   -1.7041 H   0  0  0  0  0  0  0  0  0  0  0  0
    4.3628   -3.4800   -1.8437 H   0  0  0  0  0  0  0  0  0  0  0  0
    6.0879   -2.0906   -0.7734 H   0  0  0  0  0  0  0  0  0  0  0  0
    4.8925    2.2763    0.5726 H   0  0  0  0  0  0  0  0  0  0  0  0
    7.0952    2.8284    1.7349 H   0  0  0  0  0  0  0  0  0  0  0  0
    7.4048   -1.1637    1.2850 H   0  0  0  0  0  0  0  0  0  0  0  0
    3.0266    0.5758    0.6667 H   0  0  0  0  0  0  0  0  0  0  0  0
  1  2  1  0
  2  3  2  0
  3  4  1  0
  4  5  1  0
  5  6  1  0
  5  7  2  0
  7  8  1  0
  8  9  2  0
  9 10  1  0
 10 11  1  0
 10 12  2  0
 12 13  1  0
 13 14  2  0
 13 15  1  0
 15 16  1  0
 16 17  2  0
 17 18  1  0
 18 19  2  0
 19 20  1  0
 20 21  1  0
 21 22  2  0
 22 23  1  0
 23 24  1  0
 24 25  2  0
 20 26  2  0
 12 27  1  0
  7  2  1  0
 27  8  1  0
 26 16  1  0
 25 21  1  0
  1 28  1  0
  1 29  1  0
  1 30  1  0
  6 31  1  0
  6 32  1  0
  6 33  1  0
 11 34  1  0
 11 35  1  0
 11 36  1  0
 15 37  1  0
 17 38  1  0
 18 39  1  0
 19 40  1  0
 22 41  1  0
 23 42  1  0
 25 43  1  0
 26 44  1  0
M  END
$$$$
OCNT-2315950
     RDKit          3D

 41 44  0  0  0  0  0  0  0  0999 V2000
   -4.2720    1.2379    1.0690 C   0  0  0  0  0  0  0  0  0  0  0  0
   -3.0401    0.7468    0.4551 N   0  0  0  0  0  0  0  0  0  0  0  0
   -1.8063    1.3557    0.9517 C   0  0  0  0  0  0  0  0  0  0  0  0
   -0.6514    1.0209    0.0199 C   0  0  0  0  0  0  0  0  0  0  0  0
   -0.4348   -0.4288   -0.0788 N   0  0  0  0  0  0  0  0  0  0  0  0
    0.8641   -0.9639   -0.1068 C   0  0  0  0  0  0  0  0  0  0  0  0
    1.1449   -2.1070    0.2418 O   0  0  0  0  0  0  0  0  0  0  0  0
    1.9076   -0.0769   -0.5647 C   0  0  0  0  0  0  0  0  0  0  0  0
    3.0468    0.3616    0.0685 C   0  0  0  0  0  0  0  0  0  0  0  0
    3.4451    0.0287    1.3609 C   0  0  0  0  0  0  0  0  0  0  0  0
    4.6449    0.6825    1.7088 C   0  0  0  0  0  0  0  0  0  0  0  0
    5.3417    1.5743    0.8339 C   0  0  0  0  0  0  0  0  0  0  0  0
    6.9450    2.3740    1.4691 Br  0  0  0  0  0  0  0  0  0  0  0  0
    4.9144    1.8989   -0.4699 C   0  0  0  0  0  0  0  0  0  0  0  0
    3.7240    1.2542   -0.8394 C   0  0  0  0  0  0  0  0  0  0  0  0
    3.0301    1.3257   -1.9857 N   0  0  0  0  0  0  0  0  0  0  0  0
    2.0014    0.4652   -1.8236 N   0  0  0  0  0  0  0  0  0  0  0  0
    1.1487    0.1984   -2.9610 C   0  0  0  0  0  0  0  0  0  0  0  0
   -1.6350   -1.2357   -0.0840 C   0  0  0  0  0  0  0  0  0  0  0  0
   -1.5761   -2.6105   -0.3899 C   0  0  0  0  0  0  0  0  0  0  0  0
   -2.7284   -3.3931   -0.4502 C   0  0  0  0  0  0  0  0  0  0  0  0
   -3.9561   -2.8047   -0.2234 C   0  0  0  0  0  0  0  0  0  0  0  0
   -5.0688   -3.5470   -0.2965 F   0  0  0  0  0  0  0  0  0  0  0  0
   -4.0558   -1.4500    0.0699 C   0  0  0  0  0  0  0  0  0  0  0  0
   -2.9122   -0.6321    0.1664 C   0  0  0  0  0  0  0  0  0  0  0  0
   -4.4766    0.7257    2.0157 H   0  0  0  0  0  0  0  0  0  0  0  0
   -4.1963    2.3107    1.2804 H   0  0  0  0  0  0  0  0  0  0  0  0
   -5.1257    1.1214    0.3933 H   0  0  0  0  0  0  0  0  0  0  0  0
   -1.9176    2.4457    0.9927 H   0  0  0  0  0  0  0  0  0  0  0  0
   -1.5976    1.0068    1.9716 H   0  0  0  0  0  0  0  0  0  0  0  0
    0.2454    1.5218    0.3972 H   0  0  0  0  0  0  0  0  0  0  0  0
   -0.8497    1.3945   -0.9918 H   0  0  0  0  0  0  0  0  0  0  0  0
    2.9266   -0.6499    2.0257 H   0  0  0  0  0  0  0  0  0  0  0  0
    5.0582    0.4902    2.6997 H   0  0  0  0  0  0  0  0  0  0  0  0
    5.4410    2.5720   -1.1307 H   0  0  0  0  0  0  0  0  0  0  0  0
    1.7758    0.1017   -3.8515 H   0  0  0  0  0  0  0  0  0  0  0  0
    0.6004   -0.7329   -2.8057 H   0  0  0  0  0  0  0  0  0  0  0  0
    0.4580    1.0372   -3.0728 H   0  0  0  0  0  0  0  0  0  0  0  0
   -0.6397   -3.1112   -0.6146 H   0  0  0  0  0  0  0  0  0  0  0  0
   -2.6686   -4.4506   -0.6859 H   0  0  0  0  0  0  0  0  0  0  0  0
   -5.0553   -1.0581    0.2175 H   0  0  0  0  0  0  0  0  0  0  0  0
  1  2  1  0
  2  3  1  0
  3  4  1  0
  4  5  1  0
  5  6  1  0
  6  7  2  0
  6  8  1  0
  8  9  2  0
  9 10  1  0
 10 11  2  0
 11 12  1  0
 12 13  1  0
 12 14  2  0
 14 15  1  0
 15 16  2  0
 16 17  1  0
 17 18  1  0
  5 19  1  0
 19 20  1  0
 20 21  2  0
 21 22  1  0
 22 23  1  0
 22 24  2  0
 24 25  1  0
 25  2  1  0
 17  8  1  0
 25 19  2  0
 15  9  1  0
  1 26  1  0
  1 27  1  0
  1 28  1  0
  3 29  1  0
  3 30  1  0
  4 31  1  0
  4 32  1  0
 10 33  1  0
 11 34  1  0
 14 35  1  0
 18 36  1  0
 18 37  1  0
 18 38  1  0
 20 39  1  0
 21 40  1  0
 24 41  1  0
M  END
$$$$
OCNT-2315960
     RDKit          3D

 48 50  0  0  0  0  0  0  0  0999 V2000
    7.0622   -2.7181    0.6052 C   0  0  0  0  0  0  0  0  0  0  0  0
    6.4478   -1.7542   -0.2388 O   0  0  0  0  0  0  0  0  0  0  0  0
    5.4218   -1.0199    0.2912 C   0  0  0  0  0  0  0  0  0  0  0  0
    4.8895   -1.1736    1.5728 C   0  0  0  0  0  0  0  0  0  0  0  0
    3.8318   -0.3600    2.0017 C   0  0  0  0  0  0  0  0  0  0  0  0
    3.2940    0.6240    1.1597 C   0  0  0  0  0  0  0  0  0  0  0  0
    2.1408    1.4840    1.6116 C   0  0  0  0  0  0  0  0  0  0  0  0
    0.8843    0.9841    1.0936 N   0  0  0  0  0  0  0  0  0  0  0  0
    0.3316    1.5260   -0.0387 C   0  0  0  0  0  0  0  0  0  0  0  0
    0.8447    2.4705   -0.6318 O   0  0  0  0  0  0  0  0  0  0  0  0
   -0.8658    0.9319   -0.4486 N   0  0  0  0  0  0  0  0  0  0  0  0
   -1.5047    1.5557   -1.6045 C   0  0  0  0  0  0  0  0  0  0  0  0
   -2.5212    0.6778   -2.3335 C   0  0  0  0  0  0  0  0  0  0  0  0
   -2.8316   -0.6418   -1.6249 C   0  0  0  0  0  0  0  0  0  0  0  0
   -4.0210   -1.3460   -2.2795 C   0  0  0  0  0  0  0  0  0  0  0  0
   -2.9867   -0.4462   -0.1043 C   0  0  0  0  0  0  0  0  0  0  0  0
   -4.2186    0.2227    0.3012 N   0  0  0  0  0  0  0  0  0  0  0  0
   -5.3536   -0.4191    0.7300 C   0  0  0  0  0  0  0  0  0  0  0  0
   -6.2457    0.5828    1.0277 C   0  0  0  0  0  0  0  0  0  0  0  0
   -5.6821    1.8097    0.8092 N   0  0  0  0  0  0  0  0  0  0  0  0
   -4.4642    1.5636    0.3817 C   0  0  0  0  0  0  0  0  0  0  0  0
   -1.7160    0.1905    0.4965 C   0  0  0  0  0  0  0  0  0  0  0  0
    3.8257    0.7708   -0.1269 C   0  0  0  0  0  0  0  0  0  0  0  0
    4.8753   -0.0434   -0.5471 C   0  0  0  0  0  0  0  0  0  0  0  0
    5.3593    0.1257   -1.7875 F   0  0  0  0  0  0  0  0  0  0  0  0
    7.5058   -2.2458    1.4880 H   0  0  0  0  0  0  0  0  0  0  0  0
    6.3523   -3.5015    0.8904 H   0  0  0  0  0  0  0  0  0  0  0  0
    7.8703   -3.1918    0.0397 H   0  0  0  0  0  0  0  0  0  0  0  0
    5.2721   -1.9173    2.2642 H   0  0  0  0  0  0  0  0  0  0  0  0
    3.4335   -0.5007    3.0051 H   0  0  0  0  0  0  0  0  0  0  0  0
    2.3044    2.5276    1.3202 H   0  0  0  0  0  0  0  0  0  0  0  0
    2.0629    1.4640    2.7045 H   0  0  0  0  0  0  0  0  0  0  0  0
    0.7515   -0.0071    1.2026 H   0  0  0  0  0  0  0  0  0  0  0  0
   -0.7368    1.8686   -2.3229 H   0  0  0  0  0  0  0  0  0  0  0  0
   -1.9806    2.4795   -1.2561 H   0  0  0  0  0  0  0  0  0  0  0  0
   -2.1440    0.4570   -3.3408 H   0  0  0  0  0  0  0  0  0  0  0  0
   -3.4383    1.2597   -2.4912 H   0  0  0  0  0  0  0  0  0  0  0  0
   -1.9628   -1.3003   -1.7725 H   0  0  0  0  0  0  0  0  0  0  0  0
   -3.8011   -1.5725   -3.3285 H   0  0  0  0  0  0  0  0  0  0  0  0
   -4.9242   -0.7278   -2.2586 H   0  0  0  0  0  0  0  0  0  0  0  0
   -4.2394   -2.2923   -1.7738 H   0  0  0  0  0  0  0  0  0  0  0  0
   -3.0686   -1.4450    0.3499 H   0  0  0  0  0  0  0  0  0  0  0  0
   -5.4366   -1.4958    0.7785 H   0  0  0  0  0  0  0  0  0  0  0  0
   -7.2607    0.4852    1.3905 H   0  0  0  0  0  0  0  0  0  0  0  0
   -3.7386    2.3247    0.1314 H   0  0  0  0  0  0  0  0  0  0  0  0
   -1.1070   -0.6289    0.8959 H   0  0  0  0  0  0  0  0  0  0  0  0
   -1.9396    0.8486    1.3449 H   0  0  0  0  0  0  0  0  0  0  0  0
    3.4282    1.5145   -0.8140 H   0  0  0  0  0  0  0  0  0  0  0  0
  1  2  1  0
  2  3  1  0
  3  4  1  0
  4  5  2  0
  5  6  1  0
  6  7  1  0
  7  8  1  0
  8  9  1  0
  9 10  2  0
  9 11  1  0
 11 12  1  0
 12 13  1  0
 13 14  1  0
 14 15  1  0
 14 16  1  0
 16 17  1  0
 17 18  1  0
 18 19  2  0
 19 20  1  0
 20 21  2  0
 16 22  1  0
  6 23  2  0
 23 24  1  0
 24 25  1  0
 24  3  2  0
 22 11  1  0
 21 17  1  0
  1 26  1  0
  1 27  1  0
  1 28  1  0
  4 29  1  0
  5 30  1  0
  7 31  1  0
  7 32  1  0
  8 33  1  0
 12 34  1  0
 12 35  1  0
 13 36  1  0
 13 37  1  0
 14 38  1  0
 15 39  1  0
 15 40  1  0
 15 41  1  0
 16 42  1  0
 18 43  1  0
 19 44  1  0
 21 45  1  0
 22 46  1  0
 22 47  1  0
 23 48  1  0
M  END
$$$$
OCNT-2315966
     RDKit          3D

 47 50  0  0  0  0  0  0  0  0999 V2000
    7.1053    0.1130    0.1207 C   0  0  0  0  0  0  0  0  0  0  0  0
    6.3854   -0.2069    1.4232 C   0  0  0  0  0  0  0  0  0  0  0  0
    5.4283    0.9022    1.8740 C   0  0  0  0  0  0  0  0  0  0  0  0
    4.2698    1.1321    0.9278 C   0  0  0  0  0  0  0  0  0  0  0  0
    4.1494    2.2889    0.2552 C   0  0  0  0  0  0  0  0  0  0  0  0
    3.0025    2.4904   -0.6603 C   0  0  0  0  0  0  0  0  0  0  0  0
    2.8930    3.5527   -1.2649 O   0  0  0  0  0  0  0  0  0  0  0  0
    2.1526    1.4091   -0.7202 N   0  0  0  0  0  0  0  0  0  0  0  0
    1.0310    1.4054   -1.5139 N   0  0  0  0  0  0  0  0  0  0  0  0
    0.4058    0.2774   -1.3763 C   0  0  0  0  0  0  0  0  0  0  0  0
   -0.7423   -0.0229   -2.0460 N   0  0  0  0  0  0  0  0  0  0  0  0
   -1.7726   -0.9691   -1.6254 C   0  0  0  0  0  0  0  0  0  0  0  0
   -2.5974   -0.4678   -0.4167 C   0  0  0  0  0  0  0  0  0  0  0  0
   -3.5607   -1.5419    0.0766 C   0  0  0  0  0  0  0  0  0  0  0  0
   -3.2920   -2.2227    1.2765 C   0  0  0  0  0  0  0  0  0  0  0  0
   -4.1541   -3.2224    1.7349 C   0  0  0  0  0  0  0  0  0  0  0  0
   -5.2885   -3.5528    0.9977 C   0  0  0  0  0  0  0  0  0  0  0  0
   -6.3483   -4.7832    1.5647 Cl  0  0  0  0  0  0  0  0  0  0  0  0
   -5.5680   -2.8936   -0.1963 C   0  0  0  0  0  0  0  0  0  0  0  0
   -4.7069   -1.8949   -0.6572 C   0  0  0  0  0  0  0  0  0  0  0  0
   -3.3092    0.7892   -0.6752 N   0  0  0  0  0  0  0  0  0  0  0  0
   -3.6603    1.7261    0.2607 C   0  0  0  0  0  0  0  0  0  0  0  0
   -4.2722    2.7465   -0.4273 C   0  0  0  0  0  0  0  0  0  0  0  0
   -4.2381    2.3414   -1.7728 C   0  0  0  0  0  0  0  0  0  0  0  0
   -3.6494    1.1534   -1.9332 N   0  0  0  0  0  0  0  0  0  0  0  0
    1.1239   -0.8703   -0.2618 S   0  0  0  0  0  0  0  0  0  0  0  0
    2.3792    0.2863    0.0246 C   0  0  0  0  0  0  0  0  0  0  0  0
    3.3662    0.0951    0.8337 N   0  0  0  0  0  0  0  0  0  0  0  0
    6.4060    0.1825   -0.7181 H   0  0  0  0  0  0  0  0  0  0  0  0
    7.8275   -0.6759   -0.1125 H   0  0  0  0  0  0  0  0  0  0  0  0
    7.6505    1.0593    0.1962 H   0  0  0  0  0  0  0  0  0  0  0  0
    5.8464   -1.1556    1.3160 H   0  0  0  0  0  0  0  0  0  0  0  0
    7.1353   -0.3590    2.2087 H   0  0  0  0  0  0  0  0  0  0  0  0
    5.0231    0.6402    2.8600 H   0  0  0  0  0  0  0  0  0  0  0  0
    5.9983    1.8289    2.0196 H   0  0  0  0  0  0  0  0  0  0  0  0
    4.8552    3.1052    0.3347 H   0  0  0  0  0  0  0  0  0  0  0  0
   -1.1342    0.7829   -2.5378 H   0  0  0  0  0  0  0  0  0  0  0  0
   -1.3152   -1.9392   -1.3962 H   0  0  0  0  0  0  0  0  0  0  0  0
   -2.4259   -1.1569   -2.4869 H   0  0  0  0  0  0  0  0  0  0  0  0
   -1.9028   -0.2201    0.3974 H   0  0  0  0  0  0  0  0  0  0  0  0
   -2.4089   -1.9843    1.8672 H   0  0  0  0  0  0  0  0  0  0  0  0
   -3.9351   -3.7392    2.6660 H   0  0  0  0  0  0  0  0  0  0  0  0
   -6.4535   -3.1493   -0.7726 H   0  0  0  0  0  0  0  0  0  0  0  0
   -4.9457   -1.3886   -1.5927 H   0  0  0  0  0  0  0  0  0  0  0  0
   -3.4537    1.5872    1.3129 H   0  0  0  0  0  0  0  0  0  0  0  0
   -4.6837    3.6572   -0.0161 H   0  0  0  0  0  0  0  0  0  0  0  0
   -4.6160    2.8641   -2.6425 H   0  0  0  0  0  0  0  0  0  0  0  0
  1  2  1  0
  2  3  1  0
  3  4  1  0
  4  5  2  0
  5  6  1  0
  6  7  2  0
  6  8  1  0
  8  9  1  0
  9 10  2  0
 10 11  1  0
 11 12  1  0
 12 13  1  0
 13 14  1  0
 14 15  1  0
 15 16  2  0
 16 17  1  0
 17 18  1  0
 17 19  2  0
 19 20  1  0
 13 21  1  0
 21 22  1  0
 22 23  2  0
 23 24  1  0
 24 25  2  0
 10 26  1  0
 26 27  1  0
 27 28  2  0
 28  4  1  0
 27  8  1  0
 20 14  2  0
 25 21  1  0
  1 29  1  0
  1 30  1  0
  1 31  1  0
  2 32  1  0
  2 33  1  0
  3 34  1  0
  3 35  1  0
  5 36  1  0
 11 37  1  0
 12 38  1  0
 12 39  1  0
 13 40  1  0
 15 41  1  0
 16 42  1  0
 19 43  1  0
 20 44  1  0
 22 45  1  0
 23 46  1  0
 24 47  1  0
M  END
$$$$
OCNT-2315972
     RDKit          3D

 51 54  0  0  0  0  0  0  0  0999 V2000
   -9.0353    0.7331    2.8529 C   0  0  0  0  0  0  0  0  0  0  0  0
   -8.0080   -0.2391    2.7107 O   0  0  0  0  0  0  0  0  0  0  0  0
   -7.0027    0.0477    1.8295 C   0  0  0  0  0  0  0  0  0  0  0  0
   -6.8658    1.2244    1.0945 C   0  0  0  0  0  0  0  0  0  0  0  0
   -5.7814    1.3884    0.2215 C   0  0  0  0  0  0  0  0  0  0  0  0
   -4.8187    0.3799    0.0711 C   0  0  0  0  0  0  0  0  0  0  0  0
   -3.6885    0.5431   -0.8377 C   0  0  0  0  0  0  0  0  0  0  0  0
   -3.4700    1.6456   -1.5758 N   0  0  0  0  0  0  0  0  0  0  0  0
   -2.3067    1.3495   -2.2813 O   0  0  0  0  0  0  0  0  0  0  0  0
   -1.9289    0.0987   -1.8960 C   0  0  0  0  0  0  0  0  0  0  0  0
   -0.6900   -0.4418   -2.4973 C   0  0  0  0  0  0  0  0  0  0  0  0
    0.5388    0.0551   -1.7418 C   0  0  0  0  0  0  0  0  0  0  0  0
    1.8147   -0.5178   -2.3297 C   0  0  0  0  0  0  0  0  0  0  0  0
    1.7907   -1.1941   -3.3575 O   0  0  0  0  0  0  0  0  0  0  0  0
    2.9956   -0.2369   -1.6520 N   0  0  0  0  0  0  0  0  0  0  0  0
    3.0783    0.5945   -0.4487 C   0  0  0  0  0  0  0  0  0  0  0  0
    4.4762    1.1625   -0.2338 C   0  0  0  0  0  0  0  0  0  0  0  0
    5.5499    0.0626   -0.1674 C   0  0  0  0  0  0  0  0  0  0  0  0
    5.9120   -0.2863    1.2462 C   0  0  0  0  0  0  0  0  0  0  0  0
    5.1603   -0.8928    2.2319 C   0  0  0  0  0  0  0  0  0  0  0  0
    5.9833   -0.9656    3.3211 N   0  0  0  0  0  0  0  0  0  0  0  0
    7.1778   -0.4063    2.9722 C   0  0  0  0  0  0  0  0  0  0  0  0
    7.1648    0.0145    1.7296 N   0  0  0  0  0  0  0  0  0  0  0  0
    5.1725   -1.1840   -0.9859 C   0  0  0  0  0  0  0  0  0  0  0  0
    4.2406   -0.8341   -2.1378 C   0  0  0  0  0  0  0  0  0  0  0  0
   -2.7319   -0.4376   -1.0078 N   0  0  0  0  0  0  0  0  0  0  0  0
   -4.9640   -0.7978    0.8150 C   0  0  0  0  0  0  0  0  0  0  0  0
   -6.0463   -0.9589    1.6861 C   0  0  0  0  0  0  0  0  0  0  0  0
   -8.6384    1.6680    3.2616 H   0  0  0  0  0  0  0  0  0  0  0  0
   -9.7688    0.3429    3.5654 H   0  0  0  0  0  0  0  0  0  0  0  0
   -9.5523    0.9040    1.9029 H   0  0  0  0  0  0  0  0  0  0  0  0
   -7.5811    2.0360    1.1739 H   0  0  0  0  0  0  0  0  0  0  0  0
   -5.6994    2.3163   -0.3417 H   0  0  0  0  0  0  0  0  0  0  0  0
   -0.7290   -1.5376   -2.4753 H   0  0  0  0  0  0  0  0  0  0  0  0
   -0.6359   -0.1499   -3.5535 H   0  0  0  0  0  0  0  0  0  0  0  0
    0.4693   -0.2381   -0.6877 H   0  0  0  0  0  0  0  0  0  0  0  0
    0.5867    1.1487   -1.8007 H   0  0  0  0  0  0  0  0  0  0  0  0
    2.7776   -0.0310    0.3989 H   0  0  0  0  0  0  0  0  0  0  0  0
    2.3620    1.4183   -0.5189 H   0  0  0  0  0  0  0  0  0  0  0  0
    4.4923    1.7958    0.6609 H   0  0  0  0  0  0  0  0  0  0  0  0
    4.7092    1.8213   -1.0819 H   0  0  0  0  0  0  0  0  0  0  0  0
    6.4545    0.4893   -0.6244 H   0  0  0  0  0  0  0  0  0  0  0  0
    4.1502   -1.2744    2.2505 H   0  0  0  0  0  0  0  0  0  0  0  0
    5.7567   -1.3620    4.2232 H   0  0  0  0  0  0  0  0  0  0  0  0
    8.0115   -0.3359    3.6584 H   0  0  0  0  0  0  0  0  0  0  0  0
    6.0824   -1.6598   -1.3704 H   0  0  0  0  0  0  0  0  0  0  0  0
    4.6779   -1.9335   -0.3550 H   0  0  0  0  0  0  0  0  0  0  0  0
    4.7111   -0.1083   -2.8117 H   0  0  0  0  0  0  0  0  0  0  0  0
    4.0280   -1.7343   -2.7242 H   0  0  0  0  0  0  0  0  0  0  0  0
   -4.2370   -1.6021    0.7223 H   0  0  0  0  0  0  0  0  0  0  0  0
   -6.1446   -1.8800    2.2558 H   0  0  0  0  0  0  0  0  0  0  0  0
  1  2  1  0
  2  3  1  0
  3  4  1  0
  4  5  2  0
  5  6  1  0
  6  7  1  0
  7  8  2  0
  8  9  1  0
  9 10  1  0
 10 11  1  0
 11 12  1  0
 12 13  1  0
 13 14  2  0
 13 15  1  0
 15 16  1  0
 16 17  1  0
 17 18  1  0
 18 19  1  0
 19 20  2  0
 20 21  1  0
 21 22  1  0
 22 23  2  0
 18 24  1  0
 24 25  1  0
 10 26  2  0
  6 27  2  0
 27 28  1  0
 28  3  2  0
 26  7  1  0
 25 15  1  0
 23 19  1  0
  1 29  1  0
  1 30  1  0
  1 31  1  0
  4 32  1  0
  5 33  1  0
 11 34  1  0
 11 35  1  0
 12 36  1  0
 12 37  1  0
 16 38  1  0
 16 39  1  0
 17 40  1  0
 17 41  1  0
 18 42  1  0
 20 43  1  0
 21 44  1  0
 22 45  1  0
 24 46  1  0
 24 47  1  0
 25 48  1  0
 25 49  1  0
 27 50  1  0
 28 51  1  0
M  END
$$$$
OCNT-2315974
     RDKit          3D

 49 51  0  0  0  0  0  0  0  0999 V2000
   -3.7260   -1.2809   -2.9575 C   0  0  0  0  0  0  0  0  0  0  0  0
   -3.3011   -1.0810   -1.5071 C   0  0  0  0  0  0  0  0  0  0  0  0
   -3.2923    0.3234   -1.2156 O   0  0  0  0  0  0  0  0  0  0  0  0
   -4.2395    0.7453   -0.3173 C   0  0  0  0  0  0  0  0  0  0  0  0
   -5.5873    0.3927   -0.4304 C   0  0  0  0  0  0  0  0  0  0  0  0
   -6.5204    0.8812    0.4881 C   0  0  0  0  0  0  0  0  0  0  0  0
   -6.1159    1.7345    1.5137 C   0  0  0  0  0  0  0  0  0  0  0  0
   -4.7765    2.1083    1.6200 C   0  0  0  0  0  0  0  0  0  0  0  0
   -3.8429    1.6214    0.7026 C   0  0  0  0  0  0  0  0  0  0  0  0
   -2.1917    2.0994    0.8782 Cl  0  0  0  0  0  0  0  0  0  0  0  0
   -1.8852   -1.6513   -1.2905 C   0  0  0  0  0  0  0  0  0  0  0  0
   -1.4298   -2.5886   -1.9414 O   0  0  0  0  0  0  0  0  0  0  0  0
   -1.1986   -1.0635   -0.2429 N   0  0  0  0  0  0  0  0  0  0  0  0
    0.1902   -1.3992    0.0465 C   0  0  0  0  0  0  0  0  0  0  0  0
    1.1266   -0.7416   -0.9763 C   0  0  0  0  0  0  0  0  0  0  0  0
    2.5534   -0.6662   -0.4498 C   0  0  0  0  0  0  0  0  0  0  0  0
    2.6335    0.0853    0.8067 N   0  0  0  0  0  0  0  0  0  0  0  0
    3.7156    0.8879    1.1687 C   0  0  0  0  0  0  0  0  0  0  0  0
    3.6605    1.7397    2.0525 O   0  0  0  0  0  0  0  0  0  0  0  0
    5.0050    0.7166    0.4661 C   0  0  0  0  0  0  0  0  0  0  0  0
    5.6178   -0.5324    0.3881 C   0  0  0  0  0  0  0  0  0  0  0  0
    6.8339   -0.6069   -0.2640 C   0  0  0  0  0  0  0  0  0  0  0  0
    7.4554    0.4586   -0.8152 N   0  0  0  0  0  0  0  0  0  0  0  0
    6.8480    1.6599   -0.6922 C   0  0  0  0  0  0  0  0  0  0  0  0
    5.6335    1.8424   -0.0604 C   0  0  0  0  0  0  0  0  0  0  0  0
    1.4054    0.2119    1.5882 C   0  0  0  0  0  0  0  0  0  0  0  0
    0.5487   -1.0439    1.4964 C   0  0  0  0  0  0  0  0  0  0  0  0
   -3.7686   -2.3431   -3.2185 H   0  0  0  0  0  0  0  0  0  0  0  0
   -3.0209   -0.7912   -3.6391 H   0  0  0  0  0  0  0  0  0  0  0  0
   -4.7076   -0.8372   -3.1485 H   0  0  0  0  0  0  0  0  0  0  0  0
   -3.9600   -1.6468   -0.8351 H   0  0  0  0  0  0  0  0  0  0  0  0
   -5.9366   -0.2455   -1.2361 H   0  0  0  0  0  0  0  0  0  0  0  0
   -7.5682    0.6028    0.3965 H   0  0  0  0  0  0  0  0  0  0  0  0
   -6.8452    2.1155    2.2250 H   0  0  0  0  0  0  0  0  0  0  0  0
   -4.4675    2.7803    2.4166 H   0  0  0  0  0  0  0  0  0  0  0  0
   -1.5332   -0.1418    0.0282 H   0  0  0  0  0  0  0  0  0  0  0  0
    0.2766   -2.4890   -0.0573 H   0  0  0  0  0  0  0  0  0  0  0  0
    1.1043   -1.2999   -1.9196 H   0  0  0  0  0  0  0  0  0  0  0  0
    0.7756    0.2728   -1.2100 H   0  0  0  0  0  0  0  0  0  0  0  0
    2.9334   -1.6749   -0.2520 H   0  0  0  0  0  0  0  0  0  0  0  0
    3.1949   -0.2017   -1.2052 H   0  0  0  0  0  0  0  0  0  0  0  0
    5.1735   -1.4139    0.8341 H   0  0  0  0  0  0  0  0  0  0  0  0
    7.3630   -1.5509   -0.3603 H   0  0  0  0  0  0  0  0  0  0  0  0
    7.3856    2.4979   -1.1271 H   0  0  0  0  0  0  0  0  0  0  0  0
    5.1893    2.8279    0.0251 H   0  0  0  0  0  0  0  0  0  0  0  0
    1.6573    0.4123    2.6358 H   0  0  0  0  0  0  0  0  0  0  0  0
    0.8612    1.0855    1.2112 H   0  0  0  0  0  0  0  0  0  0  0  0
   -0.3493   -0.9343    2.1158 H   0  0  0  0  0  0  0  0  0  0  0  0
    1.1220   -1.8777    1.9238 H   0  0  0  0  0  0  0  0  0  0  0  0
  1  2  1  0
  2  3  1  0
  3  4  1  0
  4  5  2  0
  5  6  1  0
  6  7  2  0
  7  8  1  0
  8  9  2  0
  9 10  1  0
  2 11  1  0
 11 12  2  0
 11 13  1  0
 13 14  1  0
 14 15  1  0
 15 16  1  0
 16 17  1  0
 17 18  1  0
 18 19  2  0
 18 20  1  0
 20 21  2  0
 21 22  1  0
 22 23  2  0
 23 24  1  0
 24 25  2  0
 17 26  1  0
 26 27  1  0
  9  4  1  0
 27 14  1  0
 25 20  1  0
  1 28  1  0
  1 29  1  0
  1 30  1  0
  2 31  1  0
  5 32  1  0
  6 33  1  0
  7 34  1  0
  8 35  1  0
 13 36  1  0
 14 37  1  0
 15 38  1  0
 15 39  1  0
 16 40  1  0
 16 41  1  0
 21 42  1  0
 22 43  1  0
 24 44  1  0
 25 45  1  0
 26 46  1  0
 26 47  1  0
 27 48  1  0
 27 49  1  0
M  END
$$$$
OCNT-2315975
     RDKit          3D

 40 42  0  0  0  0  0  0  0  0999 V2000
    5.9996    0.6835   -1.9622 C   0  0  0  0  0  0  0  0  0  0  0  0
    4.5635   -0.1950   -2.5203 S   0  0  0  0  0  0  0  0  0  0  0  0
    3.9631    0.5666   -3.5995 O   0  0  0  0  0  0  0  0  0  0  0  0
    4.9293   -1.5862   -2.7076 O   0  0  0  0  0  0  0  0  0  0  0  0
    3.4694   -0.1088   -1.1239 C   0  0  0  0  0  0  0  0  0  0  0  0
    2.5203    0.9131   -1.0523 C   0  0  0  0  0  0  0  0  0  0  0  0
    1.6560    0.9698    0.0417 C   0  0  0  0  0  0  0  0  0  0  0  0
    1.7345    0.0108    1.0638 C   0  0  0  0  0  0  0  0  0  0  0  0
    0.7740    0.0594    2.2323 C   0  0  0  0  0  0  0  0  0  0  0  0
   -0.4426   -0.6989    1.9702 N   0  0  0  0  0  0  0  0  0  0  0  0
   -1.4322   -0.0462    1.2611 N   0  0  0  0  0  0  0  0  0  0  0  0
   -2.5090   -0.7088    0.9717 C   0  0  0  0  0  0  0  0  0  0  0  0
   -3.5881   -0.0286    0.2030 C   0  0  0  0  0  0  0  0  0  0  0  0
   -3.2228    0.8894   -0.7936 C   0  0  0  0  0  0  0  0  0  0  0  0
   -4.2059    1.5516   -1.5311 C   0  0  0  0  0  0  0  0  0  0  0  0
   -5.5467    1.3018   -1.2634 C   0  0  0  0  0  0  0  0  0  0  0  0
   -6.4903    1.9383   -1.9687 F   0  0  0  0  0  0  0  0  0  0  0  0
   -5.9246    0.4055   -0.2689 C   0  0  0  0  0  0  0  0  0  0  0  0
   -4.9448   -0.2612    0.4713 C   0  0  0  0  0  0  0  0  0  0  0  0
   -2.7346   -2.1247    1.3340 C   0  0  0  0  0  0  0  0  0  0  0  0
   -1.7640   -2.7349    2.0149 C   0  0  0  0  0  0  0  0  0  0  0  0
   -0.5238   -2.0212    2.3799 C   0  0  0  0  0  0  0  0  0  0  0  0
    0.3437   -2.6244    3.0072 O   0  0  0  0  0  0  0  0  0  0  0  0
    2.6781   -1.0236    0.9617 C   0  0  0  0  0  0  0  0  0  0  0  0
    3.5445   -1.0875   -0.1304 C   0  0  0  0  0  0  0  0  0  0  0  0
    6.4118    0.1762   -1.0880 H   0  0  0  0  0  0  0  0  0  0  0  0
    5.7179    1.7098   -1.7190 H   0  0  0  0  0  0  0  0  0  0  0  0
    6.7331    0.6823   -2.7715 H   0  0  0  0  0  0  0  0  0  0  0  0
    2.4362    1.6562   -1.8422 H   0  0  0  0  0  0  0  0  0  0  0  0
    0.9034    1.7551    0.0901 H   0  0  0  0  0  0  0  0  0  0  0  0
    1.2689   -0.3247    3.1324 H   0  0  0  0  0  0  0  0  0  0  0  0
    0.4972    1.0978    2.4537 H   0  0  0  0  0  0  0  0  0  0  0  0
   -2.1728    1.0860   -1.0020 H   0  0  0  0  0  0  0  0  0  0  0  0
   -3.9340    2.2593   -2.3080 H   0  0  0  0  0  0  0  0  0  0  0  0
   -6.9794    0.2394   -0.0718 H   0  0  0  0  0  0  0  0  0  0  0  0
   -5.2565   -0.9343    1.2650 H   0  0  0  0  0  0  0  0  0  0  0  0
   -3.6307   -2.6463    1.0297 H   0  0  0  0  0  0  0  0  0  0  0  0
   -1.8269   -3.7731    2.3135 H   0  0  0  0  0  0  0  0  0  0  0  0
    2.7274   -1.7956    1.7292 H   0  0  0  0  0  0  0  0  0  0  0  0
    4.2577   -1.9058   -0.2021 H   0  0  0  0  0  0  0  0  0  0  0  0
  1  2  1  0
  2  3  2  0
  2  4  2  0
  2  5  1  0
  5  6  1  0
  6  7  2  0
  7  8  1  0
  8  9  1  0
  9 10  1  0
 10 11  1  0
 11 12  2  0
 12 13  1  0
 13 14  1  0
 14 15  2  0
 15 16  1  0
 16 17  1  0
 16 18  2  0
 18 19  1  0
 12 20  1  0
 20 21  2  0
 21 22  1  0
 22 23  2  0
  8 24  2  0
 24 25  1  0
 25  5  2  0
 22 10  1  0
 19 13  2  0
  1 26  1  0
  1 27  1  0
  1 28  1  0
  6 29  1  0
  7 30  1  0
  9 31  1  0
  9 32  1  0
 14 33  1  0
 15 34  1  0
 18 35  1  0
 19 36  1  0
 20 37  1  0
 21 38  1  0
 24 39  1  0
 25 40  1  0
M  END
$$$$
OCNT-2315988
     RDKit          3D

 41 43  0  0  0  0  0  0  0  0999 V2000
    6.2266    0.1713    1.0154 C   0  0  0  0  0  0  0  0  0  0  0  0
    4.9522    0.2733    0.2327 C   0  0  0  0  0  0  0  0  0  0  0  0
    4.8923    1.0515   -0.9327 C   0  0  0  0  0  0  0  0  0  0  0  0
    3.7014    1.1646   -1.6646 C   0  0  0  0  0  0  0  0  0  0  0  0
    2.5451    0.4996   -1.2511 C   0  0  0  0  0  0  0  0  0  0  0  0
    2.5992   -0.2772   -0.1017 C   0  0  0  0  0  0  0  0  0  0  0  0
    3.7872   -0.3818    0.6314 C   0  0  0  0  0  0  0  0  0  0  0  0
    3.5386   -1.4126    2.0576 S   0  0  0  0  0  0  0  0  0  0  0  0
    1.8366   -1.6622    1.6497 C   0  0  0  0  0  0  0  0  0  0  0  0
    1.0768   -2.3311    2.3341 O   0  0  0  0  0  0  0  0  0  0  0  0
    1.5397   -1.0200    0.4601 N   0  0  0  0  0  0  0  0  0  0  0  0
    0.1875   -1.0199   -0.0593 C   0  0  0  0  0  0  0  0  0  0  0  0
   -0.6195    0.2069    0.3995 C   0  0  0  0  0  0  0  0  0  0  0  0
   -0.1017    1.1018    1.0717 O   0  0  0  0  0  0  0  0  0  0  0  0
   -1.9518    0.2885   -0.0324 N   0  0  0  0  0  0  0  0  0  0  0  0
   -2.7317    1.4333    0.4472 C   0  0  0  0  0  0  0  0  0  0  0  0
   -3.8165    1.8528   -0.5383 C   0  0  0  0  0  0  0  0  0  0  0  0
   -4.6921    0.6743   -0.9429 C   0  0  0  0  0  0  0  0  0  0  0  0
   -3.8281   -0.4597   -1.4844 C   0  0  0  0  0  0  0  0  0  0  0  0
   -2.7190   -0.8792   -0.5075 C   0  0  0  0  0  0  0  0  0  0  0  0
   -3.2720   -1.6957    0.6663 C   0  0  0  0  0  0  0  0  0  0  0  0
    6.5473   -0.8727    1.0897 H   0  0  0  0  0  0  0  0  0  0  0  0
    7.0368    0.7299    0.5347 H   0  0  0  0  0  0  0  0  0  0  0  0
    6.0909    0.5843    2.0201 H   0  0  0  0  0  0  0  0  0  0  0  0
    5.7744    1.5868   -1.2800 H   0  0  0  0  0  0  0  0  0  0  0  0
    3.6781    1.7830   -2.5594 H   0  0  0  0  0  0  0  0  0  0  0  0
    1.6340    0.6149   -1.8267 H   0  0  0  0  0  0  0  0  0  0  0  0
    0.2154   -1.0576   -1.1527 H   0  0  0  0  0  0  0  0  0  0  0  0
   -0.3129   -1.9225    0.3043 H   0  0  0  0  0  0  0  0  0  0  0  0
   -2.0759    2.2910    0.6327 H   0  0  0  0  0  0  0  0  0  0  0  0
   -3.1730    1.1536    1.4110 H   0  0  0  0  0  0  0  0  0  0  0  0
   -4.4339    2.6432   -0.0975 H   0  0  0  0  0  0  0  0  0  0  0  0
   -3.3460    2.2746   -1.4354 H   0  0  0  0  0  0  0  0  0  0  0  0
   -5.4083    0.9916   -1.7092 H   0  0  0  0  0  0  0  0  0  0  0  0
   -5.2775    0.3298   -0.0829 H   0  0  0  0  0  0  0  0  0  0  0  0
   -4.4581   -1.3192   -1.7412 H   0  0  0  0  0  0  0  0  0  0  0  0
   -3.3616   -0.1224   -2.4195 H   0  0  0  0  0  0  0  0  0  0  0  0
   -2.0451   -1.5365   -1.0660 H   0  0  0  0  0  0  0  0  0  0  0  0
   -3.9741   -1.1174    1.2749 H   0  0  0  0  0  0  0  0  0  0  0  0
   -3.7948   -2.5870    0.3041 H   0  0  0  0  0  0  0  0  0  0  0  0
   -2.4664   -2.0261    1.3301 H   0  0  0  0  0  0  0  0  0  0  0  0
  1  2  1  0
  2  3  2  0
  3  4  1  0
  4  5  2  0
  5  6  1  0
  6  7  2  0
  7  8  1  0
  8  9  1  0
  9 10  2  0
  9 11  1  0
 11 12  1  0
 12 13  1  0
 13 14  2  0
 13 15  1  0
 15 16  1  0
 16 17  1  0
 17 18  1  0
 18 19  1  0
 19 20  1  0
 20 21  1  0
  7  2  1  0
 20 15  1  0
 11  6  1  0
  1 22  1  0
  1 23  1  0
  1 24  1  0
  3 25  1  0
  4 26  1  0
  5 27  1  0
 12 28  1  0
 12 29  1  0
 16 30  1  0
 16 31  1  0
 17 32  1  0
 17 33  1  0
 18 34  1  0
 18 35  1  0
 19 36  1  0
 19 37  1  0
 20 38  1  0
 21 39  1  0
 21 40  1  0
 21 41  1  0
M  END
$$$$
OCNT-2315990
     RDKit          3D

 49 52  0  0  0  0  0  0  0  0999 V2000
   -0.7011    3.0594    0.2752 C   0  0  0  0  0  0  0  0  0  0  0  0
   -0.6633    1.5477    0.0276 C   0  0  0  0  0  0  0  0  0  0  0  0
    0.7014    1.0711   -0.1313 N   0  0  0  0  0  0  0  0  0  0  0  0
    1.5489    0.8999    0.9450 C   0  0  0  0  0  0  0  0  0  0  0  0
    1.1756    1.1517    2.0888 O   0  0  0  0  0  0  0  0  0  0  0  0
    2.8784    0.4169    0.6210 C   0  0  0  0  0  0  0  0  0  0  0  0
    3.4356    0.0081   -0.5727 C   0  0  0  0  0  0  0  0  0  0  0  0
    4.7551   -0.3944   -0.5185 N   0  0  0  0  0  0  0  0  0  0  0  0
    5.2181   -0.3106    0.7167 C   0  0  0  0  0  0  0  0  0  0  0  0
    6.5916   -0.6527    1.1304 C   0  0  0  0  0  0  0  0  0  0  0  0
    6.9578   -0.9737    2.4359 C   0  0  0  0  0  0  0  0  0  0  0  0
    8.2290   -1.2933    2.7978 N   0  0  0  0  0  0  0  0  0  0  0  0
    9.1322   -1.2863    1.7940 C   0  0  0  0  0  0  0  0  0  0  0  0
    8.7850   -0.9745    0.4921 C   0  0  0  0  0  0  0  0  0  0  0  0
    7.5207   -0.6537    0.1344 N   0  0  0  0  0  0  0  0  0  0  0  0
    4.0627    0.2765    1.8572 S   0  0  0  0  0  0  0  0  0  0  0  0
   -1.4783    1.1215   -1.1827 C   0  0  0  0  0  0  0  0  0  0  0  0
   -1.4034    1.8006   -2.4084 C   0  0  0  0  0  0  0  0  0  0  0  0
   -2.1497    1.3677   -3.5034 C   0  0  0  0  0  0  0  0  0  0  0  0
   -2.9687    0.2457   -3.3884 C   0  0  0  0  0  0  0  0  0  0  0  0
   -3.0439   -0.4602   -2.1867 C   0  0  0  0  0  0  0  0  0  0  0  0
   -3.8846   -1.5386   -2.2155 O   0  0  0  0  0  0  0  0  0  0  0  0
   -3.9083   -2.4131   -1.0816 C   0  0  0  0  0  0  0  0  0  0  0  0
   -4.7850   -1.9073    0.0434 C   0  0  0  0  0  0  0  0  0  0  0  0
   -6.0717   -1.4390   -0.2167 C   0  0  0  0  0  0  0  0  0  0  0  0
   -6.8514   -0.9879    0.8443 C   0  0  0  0  0  0  0  0  0  0  0  0
   -6.3325   -1.0192    2.1326 C   0  0  0  0  0  0  0  0  0  0  0  0
   -5.0485   -1.5051    2.3083 C   0  0  0  0  0  0  0  0  0  0  0  0
   -4.2680   -1.9514    1.2991 N   0  0  0  0  0  0  0  0  0  0  0  0
   -2.2977   -0.0207   -1.0911 C   0  0  0  0  0  0  0  0  0  0  0  0
   -0.1786    3.6178   -0.5092 H   0  0  0  0  0  0  0  0  0  0  0  0
   -0.2114    3.3119    1.2219 H   0  0  0  0  0  0  0  0  0  0  0  0
   -1.7328    3.4241    0.3251 H   0  0  0  0  0  0  0  0  0  0  0  0
   -1.0822    1.0688    0.9225 H   0  0  0  0  0  0  0  0  0  0  0  0
    1.0249    0.9070   -1.0720 H   0  0  0  0  0  0  0  0  0  0  0  0
    2.9355   -0.0266   -1.5324 H   0  0  0  0  0  0  0  0  0  0  0  0
    6.2436   -0.9998    3.2518 H   0  0  0  0  0  0  0  0  0  0  0  0
   10.1503   -1.5412    2.0652 H   0  0  0  0  0  0  0  0  0  0  0  0
    9.5180   -0.9739   -0.3068 H   0  0  0  0  0  0  0  0  0  0  0  0
   -0.7661    2.6737   -2.5253 H   0  0  0  0  0  0  0  0  0  0  0  0
   -2.0950    1.9034   -4.4476 H   0  0  0  0  0  0  0  0  0  0  0  0
   -3.5503   -0.0853   -4.2453 H   0  0  0  0  0  0  0  0  0  0  0  0
   -2.8931   -2.6482   -0.7383 H   0  0  0  0  0  0  0  0  0  0  0  0
   -4.3340   -3.3629   -1.4272 H   0  0  0  0  0  0  0  0  0  0  0  0
   -6.4575   -1.4161   -1.2312 H   0  0  0  0  0  0  0  0  0  0  0  0
   -7.8548   -0.6124    0.6652 H   0  0  0  0  0  0  0  0  0  0  0  0
   -6.9139   -0.6727    2.9796 H   0  0  0  0  0  0  0  0  0  0  0  0
   -4.5985   -1.5506    3.2962 H   0  0  0  0  0  0  0  0  0  0  0  0
   -2.3402   -0.5438   -0.1392 H   0  0  0  0  0  0  0  0  0  0  0  0
  1  2  1  0
  2  3  1  0
  3  4  1  0
  4  5  2  0
  4  6  1  0
  6  7  2  0
  7  8  1  0
  8  9  2  0
  9 10  1  0
 10 11  2  0
 11 12  1  0
 12 13  2  0
 13 14  1  0
 14 15  2  0
  9 16  1  0
  2 17  1  0
 17 18  2  0
 18 19  1  0
 19 20  2  0
 20 21  1  0
 21 22  1  0
 22 23  1  0
 23 24  1  0
 24 25  2  0
 25 26  1  0
 26 27  2  0
 27 28  1  0
 28 29  2  0
 21 30  2  0
 16  6  1  0
 30 17  1  0
 15 10  1  0
 29 24  1  0
  1 31  1  0
  1 32  1  0
  1 33  1  0
  2 34  1  0
  3 35  1  0
  7 36  1  0
 11 37  1  0
 13 38  1  0
 14 39  1  0
 18 40  1  0
 19 41  1  0
 20 42  1  0
 23 43  1  0
 23 44  1  0
 25 45  1  0
 26 46  1  0
 27 47  1  0
 28 48  1  0
 30 49  1  0
M  END
$$$$
OCNT-2315994
     RDKit          3D

 40 43  0  0  0  0  0  0  0  0999 V2000
    0.3677   -3.6254   -0.9527 O   0  0  0  0  0  0  0  0  0  0  0  0
    0.9742   -2.6880   -0.4464 C   0  0  0  0  0  0  0  0  0  0  0  0
    0.5902   -2.0583    0.7137 N   0  0  0  0  0  0  0  0  0  0  0  0
   -0.6498   -2.3526    1.3817 C   0  0  0  0  0  0  0  0  0  0  0  0
   -1.7213   -1.3758    0.9740 C   0  0  0  0  0  0  0  0  0  0  0  0
   -1.9642   -0.2189    1.7215 C   0  0  0  0  0  0  0  0  0  0  0  0
   -2.9449    0.6991    1.3224 C   0  0  0  0  0  0  0  0  0  0  0  0
   -3.7015    0.4824    0.1583 C   0  0  0  0  0  0  0  0  0  0  0  0
   -4.6968    1.4239   -0.2379 N   0  0  0  0  0  0  0  0  0  0  0  0
   -5.0378    2.5945    0.4143 C   0  0  0  0  0  0  0  0  0  0  0  0
   -6.0400    3.1758   -0.3245 C   0  0  0  0  0  0  0  0  0  0  0  0
   -6.3387    2.4144   -1.4123 N   0  0  0  0  0  0  0  0  0  0  0  0
   -5.5282    1.3799   -1.3388 C   0  0  0  0  0  0  0  0  0  0  0  0
   -3.4437   -0.6728   -0.5882 C   0  0  0  0  0  0  0  0  0  0  0  0
   -4.1111   -0.9572   -1.7137 F   0  0  0  0  0  0  0  0  0  0  0  0
   -2.4672   -1.5879   -0.1903 C   0  0  0  0  0  0  0  0  0  0  0  0
    2.1888   -2.1097   -1.0287 C   0  0  0  0  0  0  0  0  0  0  0  0
    2.7845   -2.5692   -2.1861 C   0  0  0  0  0  0  0  0  0  0  0  0
    4.1725   -1.6404   -2.5471 S   0  0  0  0  0  0  0  0  0  0  0  0
    3.9022   -0.6743   -1.1423 C   0  0  0  0  0  0  0  0  0  0  0  0
    4.8075    0.4327   -0.7977 C   0  0  0  0  0  0  0  0  0  0  0  0
    4.5837    1.2089    0.3356 C   0  0  0  0  0  0  0  0  0  0  0  0
    5.3863    2.2425    0.7004 N   0  0  0  0  0  0  0  0  0  0  0  0
    6.4336    2.4731   -0.1213 C   0  0  0  0  0  0  0  0  0  0  0  0
    6.6681    1.7090   -1.2515 C   0  0  0  0  0  0  0  0  0  0  0  0
    5.8678    0.6788   -1.6137 N   0  0  0  0  0  0  0  0  0  0  0  0
    2.8373   -1.0191   -0.4353 N   0  0  0  0  0  0  0  0  0  0  0  0
    1.1189   -1.2318    0.9698 H   0  0  0  0  0  0  0  0  0  0  0  0
   -0.9693   -3.3787    1.1670 H   0  0  0  0  0  0  0  0  0  0  0  0
   -0.4657   -2.2892    2.4598 H   0  0  0  0  0  0  0  0  0  0  0  0
   -1.3907   -0.0191    2.6254 H   0  0  0  0  0  0  0  0  0  0  0  0
   -3.0848    1.5742    1.9500 H   0  0  0  0  0  0  0  0  0  0  0  0
   -4.5671    2.9282    1.3250 H   0  0  0  0  0  0  0  0  0  0  0  0
   -6.5594    4.1044   -0.1250 H   0  0  0  0  0  0  0  0  0  0  0  0
   -5.5174    0.5814   -2.0660 H   0  0  0  0  0  0  0  0  0  0  0  0
   -2.2928   -2.4683   -0.8064 H   0  0  0  0  0  0  0  0  0  0  0  0
    2.4696   -3.3894   -2.8170 H   0  0  0  0  0  0  0  0  0  0  0  0
    3.7418    1.0224    0.9943 H   0  0  0  0  0  0  0  0  0  0  0  0
    7.0850    3.2949    0.1541 H   0  0  0  0  0  0  0  0  0  0  0  0
    7.5129    1.9055   -1.9023 H   0  0  0  0  0  0  0  0  0  0  0  0
  1  2  2  0
  2  3  1  0
  3  4  1  0
  4  5  1  0
  5  6  1  0
  6  7  2  0
  7  8  1  0
  8  9  1  0
  9 10  1  0
 10 11  2  0
 11 12  1  0
 12 13  2  0
  8 14  2  0
 14 15  1  0
 14 16  1  0
  2 17  1  0
 17 18  2  0
 18 19  1  0
 19 20  1  0
 20 21  1  0
 21 22  2  0
 22 23  1  0
 23 24  2  0
 24 25  1  0
 25 26  2  0
 20 27  2  0
 16  5  2  0
 27 17  1  0
 13  9  1  0
 26 21  1  0
  3 28  1  0
  4 29  1  0
  4 30  1  0
  6 31  1  0
  7 32  1  0
 10 33  1  0
 11 34  1  0
 13 35  1  0
 16 36  1  0
 18 37  1  0
 22 38  1  0
 24 39  1  0
 25 40  1  0
M  END
$$$$
OCNT-2315996
     RDKit          3D

 50 53  0  0  0  0  0  0  0  0999 V2000
   -7.0428   -0.4944   -1.6429 C   0  0  0  0  0  0  0  0  0  0  0  0
   -6.8201    0.9152   -1.5896 O   0  0  0  0  0  0  0  0  0  0  0  0
   -6.4491    1.2906   -0.3109 C   0  0  0  0  0  0  0  0  0  0  0  0
   -7.3587    2.0745    0.4079 C   0  0  0  0  0  0  0  0  0  0  0  0
   -7.0420    2.5260    1.6839 C   0  0  0  0  0  0  0  0  0  0  0  0
   -5.8039    2.2285    2.2601 C   0  0  0  0  0  0  0  0  0  0  0  0
   -4.8814    1.4742    1.5140 C   0  0  0  0  0  0  0  0  0  0  0  0
   -5.1743    0.9963    0.2337 C   0  0  0  0  0  0  0  0  0  0  0  0
   -4.1455    0.2786   -0.3696 N   0  0  0  0  0  0  0  0  0  0  0  0
   -3.1117    0.2211    0.4331 C   0  0  0  0  0  0  0  0  0  0  0  0
   -1.9494   -0.3860    0.0306 N   0  0  0  0  0  0  0  0  0  0  0  0
   -0.8512   -0.6679    0.7980 C   0  0  0  0  0  0  0  0  0  0  0  0
   -0.7862   -0.5487    2.0190 O   0  0  0  0  0  0  0  0  0  0  0  0
    0.2530   -1.1325    0.0724 N   0  0  0  0  0  0  0  0  0  0  0  0
    1.4090   -1.5870    0.8413 C   0  0  0  0  0  0  0  0  0  0  0  0
    2.3508   -2.4709    0.0325 C   0  0  0  0  0  0  0  0  0  0  0  0
    2.7927   -1.8322   -1.2921 C   0  0  0  0  0  0  0  0  0  0  0  0
    4.2395   -1.3354   -1.2331 C   0  0  0  0  0  0  0  0  0  0  0  0
    5.0905   -1.8610   -1.9447 O   0  0  0  0  0  0  0  0  0  0  0  0
    4.4554   -0.3007   -0.3424 N   0  0  0  0  0  0  0  0  0  0  0  0
    5.6735    0.3668   -0.0825 C   0  0  0  0  0  0  0  0  0  0  0  0
    5.6423    1.4167    0.8372 C   0  0  0  0  0  0  0  0  0  0  0  0
    6.8184    2.0963    1.1114 C   0  0  0  0  0  0  0  0  0  0  0  0
    8.0018    1.8055    0.5369 N   0  0  0  0  0  0  0  0  0  0  0  0
    8.0077    0.7877   -0.3478 C   0  0  0  0  0  0  0  0  0  0  0  0
    6.8850    0.0471   -0.6861 C   0  0  0  0  0  0  0  0  0  0  0  0
    1.8379   -0.7403   -1.7869 C   0  0  0  0  0  0  0  0  0  0  0  0
    0.3993   -1.0324   -1.3818 C   0  0  0  0  0  0  0  0  0  0  0  0
   -3.2813    0.9989    1.9342 S   0  0  0  0  0  0  0  0  0  0  0  0
   -6.1237   -1.0612   -1.4650 H   0  0  0  0  0  0  0  0  0  0  0  0
   -7.3970   -0.7375   -2.6494 H   0  0  0  0  0  0  0  0  0  0  0  0
   -7.8215   -0.7934   -0.9316 H   0  0  0  0  0  0  0  0  0  0  0  0
   -8.3186    2.3275   -0.0366 H   0  0  0  0  0  0  0  0  0  0  0  0
   -7.7610    3.1262    2.2382 H   0  0  0  0  0  0  0  0  0  0  0  0
   -5.5531    2.5889    3.2541 H   0  0  0  0  0  0  0  0  0  0  0  0
   -2.0320   -0.8155   -0.8751 H   0  0  0  0  0  0  0  0  0  0  0  0
    1.9277   -0.6941    1.2067 H   0  0  0  0  0  0  0  0  0  0  0  0
    1.0628   -2.1369    1.7244 H   0  0  0  0  0  0  0  0  0  0  0  0
    3.2137   -2.7549    0.6467 H   0  0  0  0  0  0  0  0  0  0  0  0
    1.8195   -3.4037   -0.1997 H   0  0  0  0  0  0  0  0  0  0  0  0
    2.7912   -2.6365   -2.0428 H   0  0  0  0  0  0  0  0  0  0  0  0
    3.6545    0.0490    0.1658 H   0  0  0  0  0  0  0  0  0  0  0  0
    4.7293    1.7143    1.3399 H   0  0  0  0  0  0  0  0  0  0  0  0
    6.8382    2.9179    1.8210 H   0  0  0  0  0  0  0  0  0  0  0  0
    8.9719    0.5719   -0.8007 H   0  0  0  0  0  0  0  0  0  0  0  0
    6.9923   -0.7543   -1.4072 H   0  0  0  0  0  0  0  0  0  0  0  0
    1.9084   -0.6638   -2.8787 H   0  0  0  0  0  0  0  0  0  0  0  0
    2.1201    0.2452   -1.3983 H   0  0  0  0  0  0  0  0  0  0  0  0
   -0.2439   -0.2401   -1.7749 H   0  0  0  0  0  0  0  0  0  0  0  0
    0.0622   -1.9834   -1.8083 H   0  0  0  0  0  0  0  0  0  0  0  0
  1  2  1  0
  2  3  1  0
  3  4  1  0
  4  5  2  0
  5  6  1  0
  6  7  2  0
  7  8  1  0
  8  9  1  0
  9 10  2  0
 10 11  1  0
 11 12  1  0
 12 13  2  0
 12 14  1  0
 14 15  1  0
 15 16  1  0
 16 17  1  0
 17 18  1  0
 18 19  2  0
 18 20  1  0
 20 21  1  0
 21 22  2  0
 22 23  1  0
 23 24  2  0
 24 25  1  0
 25 26  2  0
 17 27  1  0
 27 28  1  0
 10 29  1  0
  8  3  2  0
 28 14  1  0
 29  7  1  0
 26 21  1  0
  1 30  1  0
  1 31  1  0
  1 32  1  0
  4 33  1  0
  5 34  1  0
  6 35  1  0
 11 36  1  0
 15 37  1  0
 15 38  1  0
 16 39  1  0
 16 40  1  0
 17 41  1  0
 20 42  1  0
 22 43  1  0
 23 44  1  0
 25 45  1  0
 26 46  1  0
 27 47  1  0
 27 48  1  0
 28 49  1  0
 28 50  1  0
M  END
$$$$
OCNT-2316012
     RDKit          3D

  0  0  0  0  0  0  0  0  0  0999 V3000
M  V30 BEGIN CTAB
M  V30 COUNTS 48 50 0 0 0
M  V30 BEGIN ATOM
M  V30 1 C -3.159064 1.659750 -1.585599 0
M  V30 2 C -2.878769 0.244180 -1.079749 0
M  V30 3 C -2.442798 -0.653452 -2.248999 0
M  V30 4 C -2.053018 0.210913 0.253453 0
M  V30 5 N -0.725318 -0.377562 0.055877 0
M  V30 6 C 0.235011 0.680485 -0.287921 0
M  V30 7 C 1.605530 0.080958 -0.642358 0
M  V30 8 N 2.549600 1.132513 -1.022987 0
M  V30 9 S 3.543559 1.834284 0.121751 0
M  V30 10 O 4.117678 3.005275 -0.502687 0
M  V30 11 O 2.809445 1.915955 1.364830 0
M  V30 12 C 4.829743 0.625290 0.290547 0
M  V30 13 C 5.789296 0.504441 -0.719404 0
M  V30 14 C 6.810863 -0.435593 -0.586020 0
M  V30 15 C 6.873965 -1.241437 0.552386 0
M  V30 16 C 5.920016 -1.108400 1.563340 0
M  V30 17 C 4.895061 -0.170498 1.437777 0
M  V30 18 C -3.003403 -0.912289 0.766371 0 CFG=1
M  V30 19 C -3.632494 -0.719938 2.146084 0
M  V30 20 C -5.102112 -0.431371 1.862239 0
M  V30 21 C -5.067341 0.353247 0.558960 0
M  V30 22 C -4.048394 -0.424657 -0.273280 0 CFG=1
M  V30 23 H -3.979604 1.659025 -2.311221 0
M  V30 24 H -3.430195 2.343527 -0.775618 0
M  V30 25 H -2.275332 2.079447 -2.078116 0
M  V30 26 H -1.531223 -0.271330 -2.720857 0
M  V30 27 H -3.223201 -0.691952 -3.017385 0
M  V30 28 H -2.249285 -1.682520 -1.927347 0
M  V30 29 H -2.081399 1.128474 0.853802 0
M  V30 30 H -0.383073 -0.862542 0.887182 0
M  V30 31 H -0.123266 1.258857 -1.147724 0
M  V30 32 H 0.334545 1.378188 0.551463 0
M  V30 33 H 1.999124 -0.510846 0.191278 0
M  V30 34 H 1.504629 -0.601610 -1.494385 0
M  V30 35 H 2.382428 1.689478 -1.858630 0
M  V30 36 H 5.746655 1.137615 -1.602576 0
M  V30 37 H 7.561576 -0.537620 -1.366015 0
M  V30 38 H 7.673713 -1.971346 0.655226 0
M  V30 39 H 5.980040 -1.732917 2.451543 0
M  V30 40 H 4.160545 -0.065343 2.232800 0
M  V30 41 H -2.675620 -1.943491 0.579628 0
M  V30 42 H -3.173689 0.120849 2.678227 0
M  V30 43 H -3.520882 -1.612226 2.770023 0
M  V30 44 H -5.643799 -1.373891 1.716091 0
M  V30 45 H -5.584819 0.118834 2.674639 0
M  V30 46 H -4.742083 1.379383 0.758319 0
M  V30 47 H -6.047575 0.390386 0.075014 0
M  V30 48 H -4.545268 -1.250891 -0.799974 0
M  V30 END ATOM
M  V30 BEGIN BOND
M  V30 1 1 1 2
M  V30 2 1 2 3
M  V30 3 1 2 4
M  V30 4 1 4 5
M  V30 5 1 5 6
M  V30 6 1 6 7
M  V30 7 1 7 8
M  V30 8 1 8 9
M  V30 9 2 9 10
M  V30 10 2 9 11
M  V30 11 1 9 12
M  V30 12 2 12 13
M  V30 13 1 13 14
M  V30 14 2 14 15
M  V30 15 1 15 16
M  V30 16 2 16 17
M  V30 17 1 4 18
M  V30 18 1 18 19
M  V30 19 1 19 20
M  V30 20 1 20 21
M  V30 21 1 21 22
M  V30 22 1 22 2
M  V30 23 1 17 12
M  V30 24 1 22 18
M  V30 25 1 1 23
M  V30 26 1 1 24
M  V30 27 1 1 25
M  V30 28 1 3 26
M  V30 29 1 3 27
M  V30 30 1 3 28
M  V30 31 1 4 29
M  V30 32 1 5 30
M  V30 33 1 6 31
M  V30 34 1 6 32
M  V30 35 1 7 33
M  V30 36 1 7 34
M  V30 37 1 8 35
M  V30 38 1 13 36
M  V30 39 1 14 37
M  V30 40 1 15 38
M  V30 41 1 16 39
M  V30 42 1 17 40
M  V30 43 1 18 41 CFG=3
M  V30 44 1 19 42
M  V30 45 1 19 43
M  V30 46 1 20 44
M  V30 47 1 20 45
M  V30 48 1 21 46
M  V30 49 1 21 47
M  V30 50 1 22 48 CFG=3
M  V30 END BOND
M  V30 BEGIN COLLECTION
M  V30 MDLV30/STERAC1 ATOMS=(2 18 22)
M  V30 END COLLECTION
M  V30 END CTAB
M  END
>  <_CXSMILES_Data>  (1055) 
|&1:17,21|

$$$$
OCNT-2316017
     RDKit          3D

 43 45  0  0  0  0  0  0  0  0999 V2000
   -1.0528    0.7212    2.5050 C   0  0  0  0  0  0  0  0  0  0  0  0
   -2.0570    0.5137    1.4582 N   0  0  0  0  0  0  0  0  0  0  0  0
   -2.7811    1.7765    1.2480 C   0  0  0  0  0  0  0  0  0  0  0  0
   -1.4463    0.0340    0.1770 C   0  0  0  0  0  0  0  0  0  0  0  0
   -0.5190   -1.2252    0.3080 C   0  0  0  0  0  0  0  0  0  0  0  0
    0.8401   -0.9009    0.7716 N   0  0  0  0  0  0  0  0  0  0  0  0
    1.8696   -0.3774   -0.0046 C   0  0  0  0  0  0  0  0  0  0  0  0
    1.7721   -0.0744   -1.3111 C   0  0  0  0  0  0  0  0  0  0  0  0
    2.9049    0.4382   -2.1117 C   0  0  0  0  0  0  0  0  0  0  0  0
    2.7650    0.7087   -3.2993 O   0  0  0  0  0  0  0  0  0  0  0  0
    4.0974    0.5810   -1.4680 N   0  0  0  0  0  0  0  0  0  0  0  0
    4.2620    0.3184   -0.1043 C   0  0  0  0  0  0  0  0  0  0  0  0
    5.4889    0.5292    0.5131 C   0  0  0  0  0  0  0  0  0  0  0  0
    5.7088    0.3344    1.8315 N   0  0  0  0  0  0  0  0  0  0  0  0
    4.6516   -0.0763    2.5616 C   0  0  0  0  0  0  0  0  0  0  0  0
    3.3907   -0.3181    2.0335 C   0  0  0  0  0  0  0  0  0  0  0  0
    3.1813   -0.1371    0.6610 C   0  0  0  0  0  0  0  0  0  0  0  0
   -2.5228   -0.3193   -0.8557 C   0  0  0  0  0  0  0  0  0  0  0  0
   -3.5704   -1.2013   -0.5407 C   0  0  0  0  0  0  0  0  0  0  0  0
   -4.5296   -1.5353   -1.4975 C   0  0  0  0  0  0  0  0  0  0  0  0
   -4.4526   -0.9959   -2.7799 C   0  0  0  0  0  0  0  0  0  0  0  0
   -3.4190   -0.1200   -3.1067 C   0  0  0  0  0  0  0  0  0  0  0  0
   -2.4586    0.2175   -2.1515 C   0  0  0  0  0  0  0  0  0  0  0  0
   -1.5147    1.1491    3.4029 H   0  0  0  0  0  0  0  0  0  0  0  0
   -0.2506    1.3956    2.1851 H   0  0  0  0  0  0  0  0  0  0  0  0
   -0.6196   -0.2287    2.8319 H   0  0  0  0  0  0  0  0  0  0  0  0
   -2.1238    2.5713    0.8767 H   0  0  0  0  0  0  0  0  0  0  0  0
   -3.2334    2.1185    2.1864 H   0  0  0  0  0  0  0  0  0  0  0  0
   -3.6121    1.6572    0.5455 H   0  0  0  0  0  0  0  0  0  0  0  0
   -0.8425    0.8571   -0.2299 H   0  0  0  0  0  0  0  0  0  0  0  0
   -0.9674   -1.9322    1.0183 H   0  0  0  0  0  0  0  0  0  0  0  0
   -0.4458   -1.7718   -0.6413 H   0  0  0  0  0  0  0  0  0  0  0  0
    1.1744   -1.5849    1.4466 H   0  0  0  0  0  0  0  0  0  0  0  0
    0.8610   -0.2146   -1.8768 H   0  0  0  0  0  0  0  0  0  0  0  0
    4.8648    0.9304   -2.0266 H   0  0  0  0  0  0  0  0  0  0  0  0
    6.3534    0.8774   -0.0438 H   0  0  0  0  0  0  0  0  0  0  0  0
    4.8461   -0.2081    3.6228 H   0  0  0  0  0  0  0  0  0  0  0  0
    2.5952   -0.6241    2.7023 H   0  0  0  0  0  0  0  0  0  0  0  0
   -3.6472   -1.6200    0.4609 H   0  0  0  0  0  0  0  0  0  0  0  0
   -5.3389   -2.2134   -1.2401 H   0  0  0  0  0  0  0  0  0  0  0  0
   -5.2006   -1.2555   -3.5244 H   0  0  0  0  0  0  0  0  0  0  0  0
   -3.3609    0.3017   -4.1069 H   0  0  0  0  0  0  0  0  0  0  0  0
   -1.6606    0.9036   -2.4271 H   0  0  0  0  0  0  0  0  0  0  0  0
  1  2  1  0
  2  3  1  0
  2  4  1  0
  4  5  1  0
  5  6  1  0
  6  7  1  0
  7  8  2  0
  8  9  1  0
  9 10  2  0
  9 11  1  0
 11 12  1  0
 12 13  2  0
 13 14  1  0
 14 15  2  0
 15 16  1  0
 16 17  2  0
  4 18  1  0
 18 19  2  0
 19 20  1  0
 20 21  2  0
 21 22  1  0
 22 23  2  0
 17  7  1  0
 23 18  1  0
 17 12  1  0
  1 24  1  0
  1 25  1  0
  1 26  1  0
  3 27  1  0
  3 28  1  0
  3 29  1  0
  4 30  1  0
  5 31  1  0
  5 32  1  0
  6 33  1  0
  8 34  1  0
 11 35  1  0
 13 36  1  0
 15 37  1  0
 16 38  1  0
 19 39  1  0
 20 40  1  0
 21 41  1  0
 22 42  1  0
 23 43  1  0
M  END
$$$$
OCNT-2316040
     RDKit          3D

  0  0  0  0  0  0  0  0  0  0999 V3000
M  V30 BEGIN CTAB
M  V30 COUNTS 44 47 0 0 0
M  V30 BEGIN ATOM
M  V30 1 N -1.644054 -4.445078 -0.737761 0
M  V30 2 C -2.075176 -3.380491 -0.565420 0
M  V30 3 C -2.618261 -2.077019 -0.340691 0
M  V30 4 C -3.818532 -1.941922 0.358996 0
M  V30 5 C -4.391846 -0.675774 0.519459 0
M  V30 6 C -5.600173 -0.491594 1.213481 0
M  V30 7 C -6.149174 0.783319 1.340194 0
M  V30 8 C -5.495757 1.874014 0.775971 0
M  V30 9 C -4.293723 1.685020 0.089053 0
M  V30 10 C -3.724181 0.426382 -0.050961 0
M  V30 11 N -2.564872 0.296654 -0.719992 0
M  V30 12 C -2.013643 -0.928312 -0.850252 0
M  V30 13 N -0.804266 -0.930052 -1.554708 0
M  V30 14 C 0.382325 -1.169962 -0.713646 0 CFG=2
M  V30 15 C 0.780866 0.068908 0.110150 0
M  V30 16 C 2.210989 0.433405 -0.312203 0
M  V30 17 C 3.016724 1.033752 0.839806 0
M  V30 18 N 4.300227 1.558306 0.420773 0
M  V30 19 C 4.542235 2.817312 -0.050869 0
M  V30 20 C 5.896439 2.852542 -0.284560 0
M  V30 21 N 6.475376 1.651216 0.034601 0
M  V30 22 C 5.491268 0.892780 0.462054 0
M  V30 23 C 2.776591 -0.880506 -0.849642 0
M  V30 24 C 1.600714 -1.465973 -1.616784 0 CFG=1
M  V30 25 O 1.785902 -2.858476 -1.823122 0
M  V30 26 H -4.313136 -2.822562 0.764923 0
M  V30 27 H -6.122354 -1.339099 1.654066 0
M  V30 28 H -7.085760 0.924450 1.873335 0
M  V30 29 H -5.918445 2.872781 0.863080 0
M  V30 30 H -3.791848 2.542339 -0.353887 0
M  V30 31 H -0.757255 0.018003 -1.937069 0
M  V30 32 H 0.222579 -2.021084 -0.039699 0
M  V30 33 H 0.116778 0.924023 -0.035520 0
M  V30 34 H 0.741086 -0.185193 1.174523 0
M  V30 35 H 2.153036 1.156656 -1.138907 0
M  V30 36 H 3.199163 0.294506 1.627772 0
M  V30 37 H 2.466718 1.866128 1.296103 0
M  V30 38 H 3.766162 3.560310 -0.173093 0
M  V30 39 H 6.486382 3.677907 -0.663741 0
M  V30 40 H 5.588098 -0.129287 0.806312 0
M  V30 41 H 3.643793 -0.729570 -1.501401 0
M  V30 42 H 3.088623 -1.553321 -0.039581 0
M  V30 43 H 1.506947 -0.978587 -2.597087 0
M  V30 44 H 0.943433 -3.206851 -2.173763 0
M  V30 END ATOM
M  V30 BEGIN BOND
M  V30 1 3 1 2
M  V30 2 1 2 3
M  V30 3 2 3 4
M  V30 4 1 4 5
M  V30 5 2 5 6
M  V30 6 1 6 7
M  V30 7 2 7 8
M  V30 8 1 8 9
M  V30 9 2 9 10
M  V30 10 1 10 11
M  V30 11 2 11 12
M  V30 12 1 12 13
M  V30 13 1 13 14
M  V30 14 1 14 15
M  V30 15 1 15 16
M  V30 16 1 16 17
M  V30 17 1 17 18
M  V30 18 1 18 19
M  V30 19 2 19 20
M  V30 20 1 20 21
M  V30 21 2 21 22
M  V30 22 1 16 23
M  V30 23 1 23 24
M  V30 24 1 24 25
M  V30 25 1 12 3
M  V30 26 1 24 14
M  V30 27 1 10 5
M  V30 28 1 22 18
M  V30 29 1 4 26
M  V30 30 1 6 27
M  V30 31 1 7 28
M  V30 32 1 8 29
M  V30 33 1 9 30
M  V30 34 1 13 31
M  V30 35 1 14 32 CFG=1
M  V30 36 1 15 33
M  V30 37 1 15 34
M  V30 38 1 16 35
M  V30 39 1 17 36
M  V30 40 1 17 37
M  V30 41 1 19 38
M  V30 42 1 20 39
M  V30 43 1 22 40
M  V30 44 1 23 41
M  V30 45 1 23 42
M  V30 46 1 24 43 CFG=3
M  V30 47 1 25 44
M  V30 END BOND
M  V30 BEGIN COLLECTION
M  V30 MDLV30/STERAC1 ATOMS=(2 14 24)
M  V30 END COLLECTION
M  V30 END CTAB
M  END
>  <_CXSMILES_Data>  (1057) 
|&1:13,23|

$$$$
OCNT-2316044
     RDKit          3D

 49 51  0  0  0  0  0  0  0  0999 V2000
    3.8662   -2.0690   -1.3683 C   0  0  0  0  0  0  0  0  0  0  0  0
    4.5568   -1.0116   -0.5522 C   0  0  0  0  0  0  0  0  0  0  0  0
    3.9913   -0.2054    0.3708 C   0  0  0  0  0  0  0  0  0  0  0  0
    2.6527   -0.0515    0.6952 N   0  0  0  0  0  0  0  0  0  0  0  0
    1.5248   -0.2235   -0.0830 C   0  0  0  0  0  0  0  0  0  0  0  0
    1.5398   -0.5453   -1.2713 O   0  0  0  0  0  0  0  0  0  0  0  0
    0.2144    0.0768    0.6836 C   0  0  0  0  0  0  0  0  0  0  0  0
   -1.0406   -0.7265    0.2794 C   0  0  0  0  0  0  0  0  0  0  0  0
   -1.7528    0.5297    0.3419 N   0  0  0  0  0  0  0  0  0  0  0  0
   -3.0559    0.8941    0.5226 C   0  0  0  0  0  0  0  0  0  0  0  0
   -3.3807    2.0733    0.6481 O   0  0  0  0  0  0  0  0  0  0  0  0
   -4.0682   -0.2561    0.5592 C   0  0  0  0  0  0  0  0  0  0  0  0
   -4.1847   -0.9477   -0.8134 C   0  0  0  0  0  0  0  0  0  0  0  0
   -5.5434   -0.7654   -1.4908 C   0  0  0  0  0  0  0  0  0  0  0  0
   -6.0401    0.6633   -1.3393 C   0  0  0  0  0  0  0  0  0  0  0  0
   -6.2517    1.0386    0.1251 C   0  0  0  0  0  0  0  0  0  0  0  0
   -5.4288    0.1982    1.1045 C   0  0  0  0  0  0  0  0  0  0  0  0
   -0.5581    1.3467    0.2797 C   0  0  0  0  0  0  0  0  0  0  0  0
    4.9003    0.6494    1.2472 C   0  0  0  0  0  0  0  0  0  0  0  0
    4.3794    1.3259    2.1383 O   0  0  0  0  0  0  0  0  0  0  0  0
    6.2626    0.6112    0.9817 N   0  0  0  0  0  0  0  0  0  0  0  0
    7.1713    1.4317    1.7664 C   0  0  0  0  0  0  0  0  0  0  0  0
    6.7835   -0.1738   -0.0235 C   0  0  0  0  0  0  0  0  0  0  0  0
    5.9960   -0.9548   -0.7692 C   0  0  0  0  0  0  0  0  0  0  0  0
    4.5101   -2.9470   -1.5029 H   0  0  0  0  0  0  0  0  0  0  0  0
    3.6132   -1.6874   -2.3624 H   0  0  0  0  0  0  0  0  0  0  0  0
    2.9672   -2.4498   -0.8762 H   0  0  0  0  0  0  0  0  0  0  0  0
    2.5298    0.4981    1.5468 H   0  0  0  0  0  0  0  0  0  0  0  0
    0.3614    0.0330    1.7738 H   0  0  0  0  0  0  0  0  0  0  0  0
   -1.3588   -1.4713    1.0129 H   0  0  0  0  0  0  0  0  0  0  0  0
   -1.0377   -1.1616   -0.7238 H   0  0  0  0  0  0  0  0  0  0  0  0
   -3.6683   -0.9822    1.2801 H   0  0  0  0  0  0  0  0  0  0  0  0
   -3.4101   -0.5850   -1.5000 H   0  0  0  0  0  0  0  0  0  0  0  0
   -4.0019   -2.0232   -0.6939 H   0  0  0  0  0  0  0  0  0  0  0  0
   -5.4592   -1.0241   -2.5523 H   0  0  0  0  0  0  0  0  0  0  0  0
   -6.2726   -1.4597   -1.0554 H   0  0  0  0  0  0  0  0  0  0  0  0
   -6.9754    0.8010   -1.8937 H   0  0  0  0  0  0  0  0  0  0  0  0
   -5.3096    1.3486   -1.7880 H   0  0  0  0  0  0  0  0  0  0  0  0
   -6.0258    2.1036    0.2558 H   0  0  0  0  0  0  0  0  0  0  0  0
   -7.3126    0.9271    0.3819 H   0  0  0  0  0  0  0  0  0  0  0  0
   -5.3064    0.7522    2.0434 H   0  0  0  0  0  0  0  0  0  0  0  0
   -6.0097   -0.6989    1.3588 H   0  0  0  0  0  0  0  0  0  0  0  0
   -0.3640    1.7326   -0.7253 H   0  0  0  0  0  0  0  0  0  0  0  0
   -0.5266    2.1579    1.0109 H   0  0  0  0  0  0  0  0  0  0  0  0
    7.9321    0.7896    2.2215 H   0  0  0  0  0  0  0  0  0  0  0  0
    7.6532    2.1591    1.1052 H   0  0  0  0  0  0  0  0  0  0  0  0
    6.6497    1.9723    2.5608 H   0  0  0  0  0  0  0  0  0  0  0  0
    7.8575   -0.1331   -0.1838 H   0  0  0  0  0  0  0  0  0  0  0  0
    6.4303   -1.5602   -1.5601 H   0  0  0  0  0  0  0  0  0  0  0  0
  1  2  1  0
  2  3  2  0
  3  4  1  0
  4  5  1  0
  5  6  2  0
  5  7  1  0
  7  8  1  0
  8  9  1  0
  9 10  1  0
 10 11  2  0
 10 12  1  0
 12 13  1  0
 13 14  1  0
 14 15  1  0
 15 16  1  0
 16 17  1  0
  9 18  1  0
  3 19  1  0
 19 20  2  0
 19 21  1  0
 21 22  1  0
 21 23  1  0
 23 24  2  0
 24  2  1  0
 18  7  1  0
 17 12  1  0
  1 25  1  0
  1 26  1  0
  1 27  1  0
  4 28  1  0
  7 29  1  0
  8 30  1  0
  8 31  1  0
 12 32  1  0
 13 33  1  0
 13 34  1  0
 14 35  1  0
 14 36  1  0
 15 37  1  0
 15 38  1  0
 16 39  1  0
 16 40  1  0
 17 41  1  0
 17 42  1  0
 18 43  1  0
 18 44  1  0
 22 45  1  0
 22 46  1  0
 22 47  1  0
 23 48  1  0
 24 49  1  0
M  END
$$$$
OCNT-2316070
     RDKit          3D

 43 45  0  0  0  0  0  0  0  0999 V2000
    6.2441    2.2965    0.3063 C   0  0  0  0  0  0  0  0  0  0  0  0
    4.8827    2.5651    0.0076 O   0  0  0  0  0  0  0  0  0  0  0  0
    4.2961    1.7623   -1.0362 C   0  0  2  0  0  0  0  0  0  0  0  0
    2.7625    1.9147   -1.2171 C   0  0  0  0  0  0  0  0  0  0  0  0
    2.7276    0.4050   -1.5370 C   0  0  2  0  0  0  0  0  0  0  0  0
    1.5395   -0.3792   -1.0810 N   0  0  0  0  0  0  0  0  0  0  0  0
    0.9908   -1.3186   -2.0579 C   0  0  0  0  0  0  0  0  0  0  0  0
    1.0313   -0.2719    0.2194 C   0  0  0  0  0  0  0  0  0  0  0  0
    1.5846    0.3237    1.1384 O   0  0  0  0  0  0  0  0  0  0  0  0
   -0.2699   -0.9058    0.5281 C   0  0  0  0  0  0  0  0  0  0  0  0
   -0.3307   -1.8638    1.5419 C   0  0  0  0  0  0  0  0  0  0  0  0
   -1.5517   -2.4579    1.8537 C   0  0  0  0  0  0  0  0  0  0  0  0
   -2.7091   -2.0827    1.1663 C   0  0  0  0  0  0  0  0  0  0  0  0
   -2.6657   -1.0946    0.1680 C   0  0  0  0  0  0  0  0  0  0  0  0
   -3.9180   -0.6765   -0.5625 C   0  0  0  0  0  0  0  0  0  0  0  0
   -4.9081   -0.0955    0.3275 N   0  0  0  0  0  0  0  0  0  0  0  0
   -6.1281   -0.6293    0.6417 C   0  0  0  0  0  0  0  0  0  0  0  0
   -6.7206    0.3024    1.4619 C   0  0  0  0  0  0  0  0  0  0  0  0
   -5.8991    1.3844    1.6419 N   0  0  0  0  0  0  0  0  0  0  0  0
   -4.8145    1.1172    0.9494 C   0  0  0  0  0  0  0  0  0  0  0  0
   -1.4312   -0.5060   -0.1459 C   0  0  0  0  0  0  0  0  0  0  0  0
    4.0303    0.2662   -0.7213 C   0  0  0  0  0  0  0  0  0  0  0  0
    6.5768    2.9982    1.0755 H   0  0  0  0  0  0  0  0  0  0  0  0
    6.3545    1.2770    0.6863 H   0  0  0  0  0  0  0  0  0  0  0  0
    6.8603    2.4317   -0.5872 H   0  0  0  0  0  0  0  0  0  0  0  0
    4.8344    1.9059   -1.9834 H   0  0  0  0  0  0  0  0  0  0  0  0
    2.2404    2.2399   -0.3122 H   0  0  0  0  0  0  0  0  0  0  0  0
    2.4569    2.5662   -2.0414 H   0  0  0  0  0  0  0  0  0  0  0  0
    2.9111    0.2380   -2.6095 H   0  0  0  0  0  0  0  0  0  0  0  0
    0.5032   -2.1667   -1.5715 H   0  0  0  0  0  0  0  0  0  0  0  0
    0.2721   -0.7851   -2.6859 H   0  0  0  0  0  0  0  0  0  0  0  0
    1.7979   -1.7118   -2.6835 H   0  0  0  0  0  0  0  0  0  0  0  0
    0.5682   -2.1387    2.0890 H   0  0  0  0  0  0  0  0  0  0  0  0
   -1.6057   -3.2048    2.6425 H   0  0  0  0  0  0  0  0  0  0  0  0
   -3.6535   -2.5542    1.4347 H   0  0  0  0  0  0  0  0  0  0  0  0
   -3.7051    0.0742   -1.3328 H   0  0  0  0  0  0  0  0  0  0  0  0
   -4.3644   -1.5441   -1.0621 H   0  0  0  0  0  0  0  0  0  0  0  0
   -6.4651   -1.5876    0.2732 H   0  0  0  0  0  0  0  0  0  0  0  0
   -7.6960    0.2544    1.9286 H   0  0  0  0  0  0  0  0  0  0  0  0
   -3.9456    1.7581    0.8683 H   0  0  0  0  0  0  0  0  0  0  0  0
   -1.3658    0.2758   -0.8997 H   0  0  0  0  0  0  0  0  0  0  0  0
    4.7622   -0.4311   -1.1401 H   0  0  0  0  0  0  0  0  0  0  0  0
    3.9204    0.0491    0.3455 H   0  0  0  0  0  0  0  0  0  0  0  0
  1  2  1  0
  2  3  1  0
  3  4  1  0
  4  5  1  0
  5  6  1  0
  6  7  1  0
  6  8  1  0
  8  9  2  0
  8 10  1  0
 10 11  1  0
 11 12  2  0
 12 13  1  0
 13 14  2  0
 14 15  1  0
 15 16  1  0
 16 17  1  0
 17 18  2  0
 18 19  1  0
 19 20  2  0
 14 21  1  0
  5 22  1  0
 22  3  1  0
 21 10  2  0
 20 16  1  0
  1 23  1  0
  1 24  1  0
  1 25  1  0
  3 26  1  6
  4 27  1  0
  4 28  1  0
  5 29  1  6
  7 30  1  0
  7 31  1  0
  7 32  1  0
 11 33  1  0
 12 34  1  0
 13 35  1  0
 15 36  1  0
 15 37  1  0
 17 38  1  0
 18 39  1  0
 20 40  1  0
 21 41  1  0
 22 42  1  0
 22 43  1  0
M  END
$$$$
OCNT-2316072
     RDKit          3D

 42 45  0  0  0  0  0  0  0  0999 V2000
    7.2994   -3.2573    0.2260 O   0  0  0  0  0  0  0  0  0  0  0  0
    6.4797   -2.3559    0.1333 C   0  0  0  0  0  0  0  0  0  0  0  0
    5.2349   -2.4803   -0.4381 N   0  0  0  0  0  0  0  0  0  0  0  0
    4.6147   -1.2681   -0.3552 C   0  0  0  0  0  0  0  0  0  0  0  0
    3.3706   -0.8672   -0.7789 C   0  0  0  0  0  0  0  0  0  0  0  0
    3.0212    0.4705   -0.5369 C   0  0  0  0  0  0  0  0  0  0  0  0
    1.6791    0.9305   -0.9904 C   0  0  0  0  0  0  0  0  0  0  0  0
    1.1184    0.3515   -1.9138 O   0  0  0  0  0  0  0  0  0  0  0  0
    1.1258    1.9839   -0.2956 N   0  0  0  0  0  0  0  0  0  0  0  0
   -0.2254    2.4300   -0.5575 C   0  0  0  0  0  0  0  0  0  0  0  0
   -1.1991    1.7736    0.3873 C   0  0  0  0  0  0  0  0  0  0  0  0
   -1.5736    2.3997    1.5825 C   0  0  0  0  0  0  0  0  0  0  0  0
   -2.4636    1.7756    2.4565 C   0  0  0  0  0  0  0  0  0  0  0  0
   -2.9818    0.5170    2.1503 C   0  0  0  0  0  0  0  0  0  0  0  0
   -2.6100   -0.1357    0.9673 C   0  0  0  0  0  0  0  0  0  0  0  0
   -3.1741   -1.4900    0.6232 C   0  0  0  0  0  0  0  0  0  0  0  0
   -4.3656   -1.3771   -0.1978 N   0  0  0  0  0  0  0  0  0  0  0  0
   -4.4203   -1.4208   -1.5638 C   0  0  0  0  0  0  0  0  0  0  0  0
   -5.7587   -1.3281   -1.8671 C   0  0  0  0  0  0  0  0  0  0  0  0
   -6.5127   -1.2440   -0.7249 N   0  0  0  0  0  0  0  0  0  0  0  0
   -5.6473   -1.2746    0.2636 C   0  0  0  0  0  0  0  0  0  0  0  0
   -1.7180    0.5035    0.0928 C   0  0  0  0  0  0  0  0  0  0  0  0
    3.9371    1.3502    0.0933 C   0  0  0  0  0  0  0  0  0  0  0  0
    5.1968    0.8983    0.5093 C   0  0  0  0  0  0  0  0  0  0  0  0
    5.5050   -0.4230    0.2724 C   0  0  0  0  0  0  0  0  0  0  0  0
    6.6935   -1.0527    0.6032 O   0  0  0  0  0  0  0  0  0  0  0  0
    4.8866   -3.3338   -0.8432 H   0  0  0  0  0  0  0  0  0  0  0  0
    2.6884   -1.5478   -1.2763 H   0  0  0  0  0  0  0  0  0  0  0  0
    1.5180    2.2406    0.5986 H   0  0  0  0  0  0  0  0  0  0  0  0
   -0.5047    2.2274   -1.5977 H   0  0  0  0  0  0  0  0  0  0  0  0
   -0.2404    3.5174   -0.4242 H   0  0  0  0  0  0  0  0  0  0  0  0
   -1.1818    3.3818    1.8373 H   0  0  0  0  0  0  0  0  0  0  0  0
   -2.7587    2.2737    3.3770 H   0  0  0  0  0  0  0  0  0  0  0  0
   -3.6803    0.0522    2.8430 H   0  0  0  0  0  0  0  0  0  0  0  0
   -3.4379   -2.0499    1.5283 H   0  0  0  0  0  0  0  0  0  0  0  0
   -2.4391   -2.0931    0.0770 H   0  0  0  0  0  0  0  0  0  0  0  0
   -3.5398   -1.5047   -2.1850 H   0  0  0  0  0  0  0  0  0  0  0  0
   -6.2194   -1.3210   -2.8464 H   0  0  0  0  0  0  0  0  0  0  0  0
   -5.8940   -1.2271    1.3160 H   0  0  0  0  0  0  0  0  0  0  0  0
   -1.4194    0.0121   -0.8339 H   0  0  0  0  0  0  0  0  0  0  0  0
    3.6893    2.3989    0.2385 H   0  0  0  0  0  0  0  0  0  0  0  0
    5.9071    1.5634    0.9882 H   0  0  0  0  0  0  0  0  0  0  0  0
  1  2  2  0
  2  3  1  0
  3  4  1  0
  4  5  1  0
  5  6  2  0
  6  7  1  0
  7  8  2  0
  7  9  1  0
  9 10  1  0
 10 11  1  0
 11 12  1  0
 12 13  2  0
 13 14  1  0
 14 15  2  0
 15 16  1  0
 16 17  1  0
 17 18  1  0
 18 19  2  0
 19 20  1  0
 20 21  2  0
 15 22  1  0
  6 23  1  0
 23 24  2  0
 24 25  1  0
 25 26  1  0
 26  2  1  0
 25  4  2  0
 22 11  2  0
 21 17  1  0
  3 27  1  0
  5 28  1  0
  9 29  1  0
 10 30  1  0
 10 31  1  0
 12 32  1  0
 13 33  1  0
 14 34  1  0
 16 35  1  0
 16 36  1  0
 18 37  1  0
 19 38  1  0
 21 39  1  0
 22 40  1  0
 23 41  1  0
 24 42  1  0
M  END
$$$$
OCNT-2316082
     RDKit          3D

 42 45  0  0  0  0  0  0  0  0999 V2000
    2.1352    2.3663    0.3474 C   0  0  0  0  0  0  0  0  0  0  0  0
    2.3720    1.1462   -0.4205 N   0  0  0  0  0  0  0  0  0  0  0  0
    1.5635    1.0021   -1.6404 C   0  0  0  0  0  0  0  0  0  0  0  0
    1.9251   -0.2503   -2.4378 C   0  0  0  0  0  0  0  0  0  0  0  0
    1.8495   -1.4677   -1.5898 N   0  0  0  0  0  0  0  0  0  0  0  0
    0.3906   -2.3561   -1.6313 S   0  0  0  0  0  0  0  0  0  0  0  0
    0.5560   -3.6037   -0.9148 O   0  0  0  0  0  0  0  0  0  0  0  0
   -0.0746   -2.3678   -3.0051 O   0  0  0  0  0  0  0  0  0  0  0  0
   -0.7668   -1.3772   -0.6960 C   0  0  0  0  0  0  0  0  0  0  0  0
   -0.7432   -1.4193    0.6971 C   0  0  0  0  0  0  0  0  0  0  0  0
   -1.6661   -0.6619    1.4251 C   0  0  0  0  0  0  0  0  0  0  0  0
   -2.6430    0.1330    0.7946 C   0  0  0  0  0  0  0  0  0  0  0  0
   -3.6185    0.9342    1.6382 C   0  0  0  0  0  0  0  0  0  0  0  0
   -5.0609    1.0945    1.2230 C   0  0  0  0  0  0  0  0  0  0  0  0
   -4.1352    2.2769    1.1812 C   0  0  0  0  0  0  0  0  0  0  0  0
   -2.6587    0.1209   -0.6135 C   0  0  0  0  0  0  0  0  0  0  0  0
   -1.7412   -0.6295   -1.3571 C   0  0  0  0  0  0  0  0  0  0  0  0
    2.5050   -1.3214   -0.3039 C   0  0  0  0  0  0  0  0  0  0  0  0
    2.9366   -2.4447    0.4055 C   0  0  0  0  0  0  0  0  0  0  0  0
    3.5182   -2.4026    1.6257 N   0  0  0  0  0  0  0  0  0  0  0  0
    3.7012   -1.1796    2.1523 C   0  0  0  0  0  0  0  0  0  0  0  0
    3.3284    0.0002    1.5217 C   0  0  0  0  0  0  0  0  0  0  0  0
    2.7066   -0.0382    0.2643 C   0  0  0  0  0  0  0  0  0  0  0  0
    1.8088    3.1808   -0.3093 H   0  0  0  0  0  0  0  0  0  0  0  0
    1.3538    2.2134    1.1000 H   0  0  0  0  0  0  0  0  0  0  0  0
    3.0520    2.7138    0.8344 H   0  0  0  0  0  0  0  0  0  0  0  0
    0.5043    1.0029   -1.3706 H   0  0  0  0  0  0  0  0  0  0  0  0
    1.7248    1.8770   -2.2818 H   0  0  0  0  0  0  0  0  0  0  0  0
    2.9534   -0.1707   -2.8147 H   0  0  0  0  0  0  0  0  0  0  0  0
    1.2868   -0.3320   -3.3226 H   0  0  0  0  0  0  0  0  0  0  0  0
   -0.0214   -2.0367    1.2275 H   0  0  0  0  0  0  0  0  0  0  0  0
   -1.6270   -0.7023    2.5127 H   0  0  0  0  0  0  0  0  0  0  0  0
   -3.4644    0.8514    2.7149 H   0  0  0  0  0  0  0  0  0  0  0  0
   -5.3949    0.6686    0.2845 H   0  0  0  0  0  0  0  0  0  0  0  0
   -5.8146    1.0658    2.0026 H   0  0  0  0  0  0  0  0  0  0  0  0
   -4.2651    3.0485    1.9325 H   0  0  0  0  0  0  0  0  0  0  0  0
   -3.8396    2.6622    0.2131 H   0  0  0  0  0  0  0  0  0  0  0  0
   -3.4069    0.6994   -1.1515 H   0  0  0  0  0  0  0  0  0  0  0  0
   -1.8013   -0.6226   -2.4431 H   0  0  0  0  0  0  0  0  0  0  0  0
    2.8352   -3.4455   -0.0050 H   0  0  0  0  0  0  0  0  0  0  0  0
    4.1841   -1.1620    3.1256 H   0  0  0  0  0  0  0  0  0  0  0  0
    3.5522    0.9336    2.0232 H   0  0  0  0  0  0  0  0  0  0  0  0
  1  2  1  0
  2  3  1  0
  3  4  1  0
  4  5  1  0
  5  6  1  0
  6  7  2  0
  6  8  2  0
  6  9  1  0
  9 10  1  0
 10 11  2  0
 11 12  1  0
 12 13  1  0
 13 14  1  0
 14 15  1  0
 12 16  2  0
 16 17  1  0
  5 18  1  0
 18 19  2  0
 19 20  1  0
 20 21  2  0
 21 22  1  0
 22 23  2  0
 23  2  1  0
 17  9  2  0
 23 18  1  0
 15 13  1  0
  1 24  1  0
  1 25  1  0
  1 26  1  0
  3 27  1  0
  3 28  1  0
  4 29  1  0
  4 30  1  0
 10 31  1  0
 11 32  1  0
 13 33  1  0
 14 34  1  0
 14 35  1  0
 15 36  1  0
 15 37  1  0
 16 38  1  0
 17 39  1  0
 19 40  1  0
 21 41  1  0
 22 42  1  0
M  END
$$$$
OCNT-2316083
     RDKit          3D

 40 42  0  0  0  0  0  0  0  0999 V2000
   -7.4165    0.7214   -0.4268 C   0  0  0  0  0  0  0  0  0  0  0  0
   -5.9436    0.5544   -0.1965 C   0  0  0  0  0  0  0  0  0  0  0  0
   -5.1409    1.6593    0.0798 C   0  0  0  0  0  0  0  0  0  0  0  0
   -3.7750    1.4924    0.3180 C   0  0  0  0  0  0  0  0  0  0  0  0
   -3.1703    0.2202    0.2963 C   0  0  0  0  0  0  0  0  0  0  0  0
   -1.7285    0.1653    0.5422 C   0  0  0  0  0  0  0  0  0  0  0  0
   -0.9387    1.0654    1.0966 N   0  0  0  0  0  0  0  0  0  0  0  0
    0.3393    0.5494    1.0508 N   0  0  0  0  0  0  0  0  0  0  0  0
    0.2493   -0.6238    0.4599 C   0  0  0  0  0  0  0  0  0  0  0  0
    1.5831   -1.6953    0.1583 S   0  0  0  0  0  0  0  0  0  0  0  0
    2.9736   -0.6362    0.6605 C   0  0  0  0  0  0  0  0  0  0  0  0
    4.2851   -1.4110    0.5331 C   0  0  0  0  0  0  0  0  0  0  0  0
    5.4879   -0.6004    1.0204 C   0  0  0  0  0  0  0  0  0  0  0  0
    5.7976    0.5396    0.1841 N   0  0  0  0  0  0  0  0  0  0  0  0
    6.4067    0.5009   -1.0386 C   0  0  0  0  0  0  0  0  0  0  0  0
    6.4993    1.8166   -1.4285 C   0  0  0  0  0  0  0  0  0  0  0  0
    5.9730    2.6449   -0.4714 N   0  0  0  0  0  0  0  0  0  0  0  0
    5.5649    1.8491    0.4912 C   0  0  0  0  0  0  0  0  0  0  0  0
   -1.0358   -0.9315    0.1059 O   0  0  0  0  0  0  0  0  0  0  0  0
   -3.9881   -0.9062    0.0538 C   0  0  0  0  0  0  0  0  0  0  0  0
   -3.4625   -2.3178    0.0445 C   0  0  0  0  0  0  0  0  0  0  0  0
   -5.3639   -0.7194   -0.1951 C   0  0  0  0  0  0  0  0  0  0  0  0
   -7.6313    1.6876   -0.8955 H   0  0  0  0  0  0  0  0  0  0  0  0
   -7.7979   -0.0561   -1.0972 H   0  0  0  0  0  0  0  0  0  0  0  0
   -7.9529    0.6626    0.5253 H   0  0  0  0  0  0  0  0  0  0  0  0
   -5.5676    2.6596    0.1082 H   0  0  0  0  0  0  0  0  0  0  0  0
   -3.1729    2.3786    0.5197 H   0  0  0  0  0  0  0  0  0  0  0  0
    2.8301   -0.3186    1.6990 H   0  0  0  0  0  0  0  0  0  0  0  0
    2.9866    0.2531    0.0224 H   0  0  0  0  0  0  0  0  0  0  0  0
    4.4425   -1.7185   -0.5086 H   0  0  0  0  0  0  0  0  0  0  0  0
    4.2319   -2.3264    1.1364 H   0  0  0  0  0  0  0  0  0  0  0  0
    6.3829   -1.2338    1.0324 H   0  0  0  0  0  0  0  0  0  0  0  0
    5.3290   -0.2414    2.0438 H   0  0  0  0  0  0  0  0  0  0  0  0
    6.7114   -0.4195   -1.5164 H   0  0  0  0  0  0  0  0  0  0  0  0
    6.9187    2.2117   -2.3447 H   0  0  0  0  0  0  0  0  0  0  0  0
    5.0984    2.1690    1.4143 H   0  0  0  0  0  0  0  0  0  0  0  0
   -2.8832   -2.5216    0.9507 H   0  0  0  0  0  0  0  0  0  0  0  0
   -4.2782   -3.0492    0.0251 H   0  0  0  0  0  0  0  0  0  0  0  0
   -2.8467   -2.4892   -0.8438 H   0  0  0  0  0  0  0  0  0  0  0  0
   -5.9969   -1.5852   -0.3874 H   0  0  0  0  0  0  0  0  0  0  0  0
  1  2  1  0
  2  3  1  0
  3  4  2  0
  4  5  1  0
  5  6  1  0
  6  7  2  0
  7  8  1  0
  8  9  2  0
  9 10  1  0
 10 11  1  0
 11 12  1  0
 12 13  1  0
 13 14  1  0
 14 15  1  0
 15 16  2  0
 16 17  1  0
 17 18  2  0
  9 19  1  0
  5 20  2  0
 20 21  1  0
 20 22  1  0
 22  2  2  0
 19  6  1  0
 18 14  1  0
  1 23  1  0
  1 24  1  0
  1 25  1  0
  3 26  1  0
  4 27  1  0
 11 28  1  0
 11 29  1  0
 12 30  1  0
 12 31  1  0
 13 32  1  0
 13 33  1  0
 15 34  1  0
 16 35  1  0
 18 36  1  0
 21 37  1  0
 21 38  1  0
 21 39  1  0
 22 40  1  0
M  END
$$$$
OCNT-2316089
     RDKit          3D

 42 45  0  0  0  0  0  0  0  0999 V2000
    6.1082   -2.9230    1.3073 N   0  0  0  0  0  0  0  0  0  0  0  0
    5.4311   -2.2105    0.6905 C   0  0  0  0  0  0  0  0  0  0  0  0
    4.5951   -1.3287   -0.0704 C   0  0  0  0  0  0  0  0  0  0  0  0
    4.9105   -1.0362   -1.3995 C   0  0  0  0  0  0  0  0  0  0  0  0
    4.0939   -0.1798   -2.1383 C   0  0  0  0  0  0  0  0  0  0  0  0
    2.9617    0.3829   -1.5442 C   0  0  0  0  0  0  0  0  0  0  0  0
    2.1747    1.2313   -2.2761 O   0  0  0  0  0  0  0  0  0  0  0  0
    2.6180    0.1072   -0.2075 C   0  0  0  0  0  0  0  0  0  0  0  0
    1.4251    0.6844    0.4394 C   0  0  0  0  0  0  0  0  0  0  0  0
    1.5321    1.4343    1.6185 C   0  0  0  0  0  0  0  0  0  0  0  0
    0.4001    1.9886    2.2249 C   0  0  0  0  0  0  0  0  0  0  0  0
   -0.8696    1.8161    1.6620 C   0  0  0  0  0  0  0  0  0  0  0  0
   -1.9285    2.4811    2.2969 N   0  0  0  0  0  0  0  0  0  0  0  0
   -3.0858    2.9319    1.7171 C   0  0  0  0  0  0  0  0  0  0  0  0
   -3.9028    3.5452    2.4063 O   0  0  0  0  0  0  0  0  0  0  0  0
   -3.2455    2.7600    0.2167 C   0  0  0  0  0  0  0  0  0  0  0  0
   -3.3641    1.3497   -0.1313 N   0  0  0  0  0  0  0  0  0  0  0  0
   -2.3433    0.5744    0.0161 C   0  0  0  0  0  0  0  0  0  0  0  0
   -2.5400   -0.8680   -0.3422 C   0  0  0  0  0  0  0  0  0  0  0  0
   -3.3235   -1.1898   -1.4568 C   0  0  0  0  0  0  0  0  0  0  0  0
   -3.5244   -2.5253   -1.8090 C   0  0  0  0  0  0  0  0  0  0  0  0
   -2.9534   -3.5418   -1.0436 C   0  0  0  0  0  0  0  0  0  0  0  0
   -2.1883   -3.2267    0.0796 C   0  0  0  0  0  0  0  0  0  0  0  0
   -1.9848   -1.8920    0.4359 C   0  0  0  0  0  0  0  0  0  0  0  0
   -1.0059    1.0040    0.5283 C   0  0  0  0  0  0  0  0  0  0  0  0
    0.1420    0.4738   -0.0893 C   0  0  0  0  0  0  0  0  0  0  0  0
    3.4577   -0.7597    0.5175 C   0  0  0  0  0  0  0  0  0  0  0  0
    5.7915   -1.4727   -1.8672 H   0  0  0  0  0  0  0  0  0  0  0  0
    4.3537    0.0376   -3.1705 H   0  0  0  0  0  0  0  0  0  0  0  0
    2.5598    1.3517   -3.1596 H   0  0  0  0  0  0  0  0  0  0  0  0
    2.5085    1.6195    2.0633 H   0  0  0  0  0  0  0  0  0  0  0  0
    0.5334    2.5934    3.1192 H   0  0  0  0  0  0  0  0  0  0  0  0
   -1.8001    2.8351    3.2365 H   0  0  0  0  0  0  0  0  0  0  0  0
   -4.1679    3.2689   -0.0841 H   0  0  0  0  0  0  0  0  0  0  0  0
   -2.4260    3.2555   -0.3165 H   0  0  0  0  0  0  0  0  0  0  0  0
   -3.7801   -0.4009   -2.0502 H   0  0  0  0  0  0  0  0  0  0  0  0
   -4.1330   -2.7712   -2.6754 H   0  0  0  0  0  0  0  0  0  0  0  0
   -3.1159   -4.5819   -1.3159 H   0  0  0  0  0  0  0  0  0  0  0  0
   -1.7594   -4.0221    0.6840 H   0  0  0  0  0  0  0  0  0  0  0  0
   -1.4089   -1.6667    1.3292 H   0  0  0  0  0  0  0  0  0  0  0  0
    0.0398   -0.1266   -0.9929 H   0  0  0  0  0  0  0  0  0  0  0  0
    3.2139   -1.0030    1.5516 H   0  0  0  0  0  0  0  0  0  0  0  0
  1  2  3  0
  2  3  1  0
  3  4  1  0
  4  5  2  0
  5  6  1  0
  6  7  1  0
  6  8  2  0
  8  9  1  0
  9 10  1  0
 10 11  2  0
 11 12  1  0
 12 13  1  0
 13 14  1  0
 14 15  2  0
 14 16  1  0
 16 17  1  0
 17 18  2  0
 18 19  1  0
 19 20  2  0
 20 21  1  0
 21 22  2  0
 22 23  1  0
 23 24  2  0
 18 25  1  0
 25 26  1  0
  8 27  1  0
 27  3  2  0
 26  9  2  0
 25 12  2  0
 24 19  1  0
  4 28  1  0
  5 29  1  0
  7 30  1  0
 10 31  1  0
 11 32  1  0
 13 33  1  0
 16 34  1  0
 16 35  1  0
 20 36  1  0
 21 37  1  0
 22 38  1  0
 23 39  1  0
 24 40  1  0
 26 41  1  0
 27 42  1  0
M  END
$$$$
OCNT-2316100
     RDKit          3D

 42 45  0  0  0  0  0  0  0  0999 V2000
    7.1896   -1.1800    0.9703 C   0  0  0  0  0  0  0  0  0  0  0  0
    7.1305    0.0410    0.2425 O   0  0  0  0  0  0  0  0  0  0  0  0
    5.8887    0.5115   -0.0843 C   0  0  0  0  0  0  0  0  0  0  0  0
    5.8905    1.7047   -0.8058 C   0  0  0  0  0  0  0  0  0  0  0  0
    4.6886    2.2807   -1.1955 C   0  0  0  0  0  0  0  0  0  0  0  0
    4.7012    3.4270   -1.8884 F   0  0  0  0  0  0  0  0  0  0  0  0
    3.4728    1.6889   -0.8788 C   0  0  0  0  0  0  0  0  0  0  0  0
    3.4498    0.4915   -0.1540 C   0  0  0  0  0  0  0  0  0  0  0  0
    2.1744   -0.1328    0.1822 C   0  0  0  0  0  0  0  0  0  0  0  0
    2.0585   -1.2768    0.8741 N   0  0  0  0  0  0  0  0  0  0  0  0
    0.6822   -1.4770    0.9412 O   0  0  0  0  0  0  0  0  0  0  0  0
    0.0902   -0.4260    0.2920 C   0  0  0  0  0  0  0  0  0  0  0  0
   -1.2680   -0.3844    0.2115 N   0  0  0  0  0  0  0  0  0  0  0  0
   -2.0324   -1.1339    1.2105 C   0  0  0  0  0  0  0  0  0  0  0  0
   -3.4685   -1.3388    0.7356 C   0  0  0  0  0  0  0  0  0  0  0  0
   -4.1192   -0.0036    0.3613 C   0  0  0  0  0  0  0  0  0  0  0  0
   -5.5146   -0.2023   -0.1154 C   0  0  0  0  0  0  0  0  0  0  0  0
   -6.1053   -0.8504   -1.1774 C   0  0  0  0  0  0  0  0  0  0  0  0
   -7.4672   -0.7033   -1.1187 N   0  0  0  0  0  0  0  0  0  0  0  0
   -7.6512    0.0195   -0.0377 C   0  0  0  0  0  0  0  0  0  0  0  0
   -6.5148    0.3639    0.6282 O   0  0  0  0  0  0  0  0  0  0  0  0
   -3.2699    0.7143   -0.6917 C   0  0  0  0  0  0  0  0  0  0  0  0
   -1.8376    0.9015   -0.1998 C   0  0  0  0  0  0  0  0  0  0  0  0
    0.9695    0.4198   -0.1884 N   0  0  0  0  0  0  0  0  0  0  0  0
    4.6694   -0.0919    0.2401 C   0  0  0  0  0  0  0  0  0  0  0  0
    8.2442   -1.4147    1.1439 H   0  0  0  0  0  0  0  0  0  0  0  0
    6.7053   -1.0802    1.9473 H   0  0  0  0  0  0  0  0  0  0  0  0
    6.7552   -2.0039    0.3946 H   0  0  0  0  0  0  0  0  0  0  0  0
    6.8258    2.1897   -1.0676 H   0  0  0  0  0  0  0  0  0  0  0  0
    2.5539    2.1701   -1.2026 H   0  0  0  0  0  0  0  0  0  0  0  0
   -1.5982   -2.1255    1.3874 H   0  0  0  0  0  0  0  0  0  0  0  0
   -2.0240   -0.5949    2.1665 H   0  0  0  0  0  0  0  0  0  0  0  0
   -4.0462   -1.8380    1.5235 H   0  0  0  0  0  0  0  0  0  0  0  0
   -3.4685   -2.0150   -0.1302 H   0  0  0  0  0  0  0  0  0  0  0  0
   -4.1498    0.6257    1.2619 H   0  0  0  0  0  0  0  0  0  0  0  0
   -5.6273   -1.4083   -1.9710 H   0  0  0  0  0  0  0  0  0  0  0  0
   -8.5837    0.3694    0.3820 H   0  0  0  0  0  0  0  0  0  0  0  0
   -3.7049    1.6924   -0.9320 H   0  0  0  0  0  0  0  0  0  0  0  0
   -3.2575    0.1372   -1.6263 H   0  0  0  0  0  0  0  0  0  0  0  0
   -1.2587    1.3494   -1.0175 H   0  0  0  0  0  0  0  0  0  0  0  0
   -1.8169    1.6048    0.6427 H   0  0  0  0  0  0  0  0  0  0  0  0
    4.6441   -1.0216    0.8018 H   0  0  0  0  0  0  0  0  0  0  0  0
  1  2  1  0
  2  3  1  0
  3  4  1  0
  4  5  2  0
  5  6  1  0
  5  7  1  0
  7  8  2  0
  8  9  1  0
  9 10  2  0
 10 11  1  0
 11 12  1  0
 12 13  1  0
 13 14  1  0
 14 15  1  0
 15 16  1  0
 16 17  1  0
 17 18  2  0
 18 19  1  0
 19 20  2  0
 20 21  1  0
 16 22  1  0
 22 23  1  0
 12 24  2  0
  8 25  1  0
 25  3  2  0
 24  9  1  0
 23 13  1  0
 21 17  1  0
  1 26  1  0
  1 27  1  0
  1 28  1  0
  4 29  1  0
  7 30  1  0
 14 31  1  0
 14 32  1  0
 15 33  1  0
 15 34  1  0
 16 35  1  0
 18 36  1  0
 20 37  1  0
 22 38  1  0
 22 39  1  0
 23 40  1  0
 23 41  1  0
 25 42  1  0
M  END
$$$$
OCNT-2316109
     RDKit          3D

 33 36  0  0  0  0  0  0  0  0999 V2000
    7.9929   -0.4685   -0.1220 Cl  0  0  0  0  0  0  0  0  0  0  0  0
    6.2928   -0.3074    0.0827 C   0  0  0  0  0  0  0  0  0  0  0  0
    5.4355   -0.6278   -0.9684 C   0  0  0  0  0  0  0  0  0  0  0  0
    4.0510   -0.4993   -0.8092 C   0  0  0  0  0  0  0  0  0  0  0  0
    3.5247   -0.0473    0.4098 C   0  0  0  0  0  0  0  0  0  0  0  0
    2.1239    0.0922    0.5977 N   0  0  0  0  0  0  0  0  0  0  0  0
    1.1019   -0.1626   -0.2900 C   0  0  0  0  0  0  0  0  0  0  0  0
   -0.0516    0.1382    0.3994 C   0  0  0  0  0  0  0  0  0  0  0  0
   -1.4210    0.0438   -0.0801 C   0  0  0  0  0  0  0  0  0  0  0  0
   -1.7273   -0.3910   -1.3763 C   0  0  0  0  0  0  0  0  0  0  0  0
   -3.0560   -0.4707   -1.8072 C   0  0  0  0  0  0  0  0  0  0  0  0
   -4.1072   -0.1156   -0.9465 C   0  0  0  0  0  0  0  0  0  0  0  0
   -5.4520   -0.1752   -1.3220 C   0  0  0  0  0  0  0  0  0  0  0  0
   -6.4887    0.1590   -0.5191 N   0  0  0  0  0  0  0  0  0  0  0  0
   -6.1756    0.5754    0.7249 C   0  0  0  0  0  0  0  0  0  0  0  0
   -4.8786    0.6734    1.2037 C   0  0  0  0  0  0  0  0  0  0  0  0
   -3.8186    0.3232    0.3584 C   0  0  0  0  0  0  0  0  0  0  0  0
   -2.4773    0.3977    0.7763 C   0  0  0  0  0  0  0  0  0  0  0  0
    0.2830    0.5583    1.6575 N   0  0  0  0  0  0  0  0  0  0  0  0
    1.6028    0.5276    1.7699 N   0  0  0  0  0  0  0  0  0  0  0  0
    4.3982    0.2729    1.4626 C   0  0  0  0  0  0  0  0  0  0  0  0
    5.7801    0.1421    1.2967 C   0  0  0  0  0  0  0  0  0  0  0  0
    5.8390   -0.9786   -1.9153 H   0  0  0  0  0  0  0  0  0  0  0  0
    3.4195   -0.7596   -1.6533 H   0  0  0  0  0  0  0  0  0  0  0  0
    1.2765   -0.5201   -1.2906 H   0  0  0  0  0  0  0  0  0  0  0  0
   -0.9452   -0.6754   -2.0748 H   0  0  0  0  0  0  0  0  0  0  0  0
   -3.2655   -0.8117   -2.8190 H   0  0  0  0  0  0  0  0  0  0  0  0
   -5.7443   -0.5054   -2.3155 H   0  0  0  0  0  0  0  0  0  0  0  0
   -7.0230    0.8384    1.3519 H   0  0  0  0  0  0  0  0  0  0  0  0
   -4.7038    1.0171    2.2180 H   0  0  0  0  0  0  0  0  0  0  0  0
   -2.2546    0.7378    1.7876 H   0  0  0  0  0  0  0  0  0  0  0  0
    4.0218    0.6265    2.4218 H   0  0  0  0  0  0  0  0  0  0  0  0
    6.4467    0.3926    2.1182 H   0  0  0  0  0  0  0  0  0  0  0  0
  1  2  1  0
  2  3  1  0
  3  4  2  0
  4  5  1  0
  5  6  1  0
  6  7  1  0
  7  8  2  0
  8  9  1  0
  9 10  1  0
 10 11  2  0
 11 12  1  0
 12 13  2  0
 13 14  1  0
 14 15  2  0
 15 16  1  0
 16 17  2  0
 17 18  1  0
  8 19  1  0
 19 20  2  0
  5 21  2  0
 21 22  1  0
 22  2  2  0
 20  6  1  0
 18  9  2  0
 17 12  1  0
  3 23  1  0
  4 24  1  0
  7 25  1  0
 10 26  1  0
 11 27  1  0
 13 28  1  0
 15 29  1  0
 16 30  1  0
 18 31  1  0
 21 32  1  0
 22 33  1  0
M  END
$$$$
OCNT-2316119
     RDKit          3D

 42 45  0  0  0  0  0  0  0  0999 V2000
   -2.0903    1.0415    4.0147 O   0  0  0  0  0  0  0  0  0  0  0  0
   -1.6397   -0.2387    3.5848 C   0  0  0  0  0  0  0  0  0  0  0  0
   -2.2254   -0.5644    2.2168 C   0  0  0  0  0  0  0  0  0  0  0  0
   -1.7163    0.3807    1.1120 C   0  0  0  0  0  0  0  0  0  0  0  0
   -0.2582    0.3595    0.9390 N   0  0  0  0  0  0  0  0  0  0  0  0
    0.4090   -0.7448    0.4208 C   0  0  0  0  0  0  0  0  0  0  0  0
   -0.1537   -1.9767    0.4730 N   0  0  0  0  0  0  0  0  0  0  0  0
    0.4978   -3.0264   -0.0617 C   0  0  0  0  0  0  0  0  0  0  0  0
    1.6941   -3.0320   -0.6640 N   0  0  0  0  0  0  0  0  0  0  0  0
    2.2361   -1.8074   -0.6749 C   0  0  0  0  0  0  0  0  0  0  0  0
    1.6927   -0.6397   -0.1613 C   0  0  0  0  0  0  0  0  0  0  0  0
    2.6658    0.3957   -0.3861 C   0  0  0  0  0  0  0  0  0  0  0  0
    2.7438    1.7739   -0.0768 C   0  0  0  0  0  0  0  0  0  0  0  0
    3.8718    2.5099   -0.4612 C   0  0  0  0  0  0  0  0  0  0  0  0
    4.9126    1.8915   -1.1384 C   0  0  0  0  0  0  0  0  0  0  0  0
    5.9815    2.6165   -1.4949 F   0  0  0  0  0  0  0  0  0  0  0  0
    4.8806    0.5352   -1.4522 C   0  0  0  0  0  0  0  0  0  0  0  0
    3.7471   -0.1873   -1.0600 C   0  0  0  0  0  0  0  0  0  0  0  0
    3.4528   -1.5201   -1.2196 N   0  0  0  0  0  0  0  0  0  0  0  0
   -2.4204    0.2773   -0.2389 C   0  0  0  0  0  0  0  0  0  0  0  0
   -2.5019    1.4166   -1.0635 C   0  0  0  0  0  0  0  0  0  0  0  0
   -3.1193    1.3571   -2.3174 C   0  0  0  0  0  0  0  0  0  0  0  0
   -3.6591    0.1542   -2.7672 C   0  0  0  0  0  0  0  0  0  0  0  0
   -4.4150    0.0896   -4.3122 Cl  0  0  0  0  0  0  0  0  0  0  0  0
   -3.5788   -0.9798   -1.9651 C   0  0  0  0  0  0  0  0  0  0  0  0
   -4.0863   -2.1501   -2.3810 F   0  0  0  0  0  0  0  0  0  0  0  0
   -2.9668   -0.9249   -0.7139 C   0  0  0  0  0  0  0  0  0  0  0  0
   -1.6933    1.1964    4.8897 H   0  0  0  0  0  0  0  0  0  0  0  0
   -1.9808   -0.9775    4.3173 H   0  0  0  0  0  0  0  0  0  0  0  0
   -0.5457   -0.2458    3.5725 H   0  0  0  0  0  0  0  0  0  0  0  0
   -3.3179   -0.4685    2.2757 H   0  0  0  0  0  0  0  0  0  0  0  0
   -2.0183   -1.6141    1.9921 H   0  0  0  0  0  0  0  0  0  0  0  0
   -1.9528    1.3918    1.4734 H   0  0  0  0  0  0  0  0  0  0  0  0
    0.0841    1.2137    0.5193 H   0  0  0  0  0  0  0  0  0  0  0  0
   -0.0109   -3.9834    0.0017 H   0  0  0  0  0  0  0  0  0  0  0  0
    1.9500    2.2735    0.4691 H   0  0  0  0  0  0  0  0  0  0  0  0
    3.9426    3.5680   -0.2274 H   0  0  0  0  0  0  0  0  0  0  0  0
    5.7097    0.0723   -1.9752 H   0  0  0  0  0  0  0  0  0  0  0  0
    4.0431   -2.2076   -1.6630 H   0  0  0  0  0  0  0  0  0  0  0  0
   -2.0826    2.3642   -0.7294 H   0  0  0  0  0  0  0  0  0  0  0  0
   -3.1728    2.2497   -2.9353 H   0  0  0  0  0  0  0  0  0  0  0  0
   -2.9091   -1.8395   -0.1313 H   0  0  0  0  0  0  0  0  0  0  0  0
  1  2  1  0
  2  3  1  0
  3  4  1  0
  4  5  1  0
  5  6  1  0
  6  7  1  0
  7  8  2  0
  8  9  1  0
  9 10  2  0
 10 11  1  0
 11 12  1  0
 12 13  2  0
 13 14  1  0
 14 15  2  0
 15 16  1  0
 15 17  1  0
 17 18  2  0
 18 19  1  0
  4 20  1  0
 20 21  1  0
 21 22  2  0
 22 23  1  0
 23 24  1  0
 23 25  2  0
 25 26  1  0
 25 27  1  0
 11  6  2  0
 18 12  1  0
 27 20  2  0
 19 10  1  0
  1 28  1  0
  2 29  1  0
  2 30  1  0
  3 31  1  0
  3 32  1  0
  4 33  1  0
  5 34  1  0
  8 35  1  0
 13 36  1  0
 14 37  1  0
 17 38  1  0
 19 39  1  0
 21 40  1  0
 22 41  1  0
 27 42  1  0
M  END
$$$$
OCNT-2316120
     RDKit          3D

 41 44  0  0  0  0  0  0  0  0999 V2000
    5.5094    1.8975   -0.9537 C   0  0  0  0  0  0  0  0  0  0  0  0
    5.0071    0.5604   -0.4843 C   0  0  0  0  0  0  0  0  0  0  0  0
    5.9200   -0.5122   -0.4102 C   0  0  0  0  0  0  0  0  0  0  0  0
    5.5264   -1.7799    0.0144 C   0  0  0  0  0  0  0  0  0  0  0  0
    4.2058   -2.0330    0.3842 C   0  0  0  0  0  0  0  0  0  0  0  0
    3.3006   -0.9696    0.3122 C   0  0  0  0  0  0  0  0  0  0  0  0
    3.6636    0.3101   -0.1110 C   0  0  0  0  0  0  0  0  0  0  0  0
    2.4821    1.1086   -0.0550 C   0  0  0  0  0  0  0  0  0  0  0  0
    1.4427    0.3182    0.3910 C   0  0  0  0  0  0  0  0  0  0  0  0
    0.0102    0.6275    0.6464 C   0  0  0  0  0  0  0  0  0  0  0  0
   -0.8167   -0.4346    0.0808 N   0  0  0  0  0  0  0  0  0  0  0  0
   -2.2507   -0.2528    0.3594 C   0  0  0  0  0  0  0  0  0  0  0  0
   -2.9825   -1.5658   -0.0400 C   0  0  0  0  0  0  0  0  0  0  0  0
   -4.4836   -1.5360    0.3191 C   0  0  0  0  0  0  0  0  0  0  0  0
   -5.0892   -0.2398   -0.0692 C   0  0  0  0  0  0  0  0  0  0  0  0
   -4.3463    0.8807   -0.3583 C   0  0  0  0  0  0  0  0  0  0  0  0
   -2.8664    0.9817   -0.3717 C   0  0  0  0  0  0  0  0  0  0  0  0
   -5.2329    1.8690   -0.6583 N   0  0  0  0  0  0  0  0  0  0  0  0
   -6.5135    1.4620   -0.5736 N   0  0  0  0  0  0  0  0  0  0  0  0
   -6.4231    0.1764   -0.2147 C   0  0  0  0  0  0  0  0  0  0  0  0
    1.9591   -0.9355    0.6117 N   0  0  0  0  0  0  0  0  0  0  0  0
    5.9063    1.8133   -1.9706 H   0  0  0  0  0  0  0  0  0  0  0  0
    6.3024    2.2551   -0.2890 H   0  0  0  0  0  0  0  0  0  0  0  0
    4.7147    2.6488   -0.9636 H   0  0  0  0  0  0  0  0  0  0  0  0
    6.9596   -0.3523   -0.6907 H   0  0  0  0  0  0  0  0  0  0  0  0
    6.2583   -2.5829    0.0584 H   0  0  0  0  0  0  0  0  0  0  0  0
    3.8984   -3.0193    0.7152 H   0  0  0  0  0  0  0  0  0  0  0  0
    2.4056    2.1561   -0.3145 H   0  0  0  0  0  0  0  0  0  0  0  0
   -0.2344    1.5970    0.1988 H   0  0  0  0  0  0  0  0  0  0  0  0
   -0.1462    0.7027    1.7290 H   0  0  0  0  0  0  0  0  0  0  0  0
   -0.6620   -0.4609   -0.9281 H   0  0  0  0  0  0  0  0  0  0  0  0
   -2.3888   -0.1276    1.4427 H   0  0  0  0  0  0  0  0  0  0  0  0
   -2.5200   -2.4286    0.4558 H   0  0  0  0  0  0  0  0  0  0  0  0
   -2.8757   -1.7261   -1.1220 H   0  0  0  0  0  0  0  0  0  0  0  0
   -4.9974   -2.3671   -0.1763 H   0  0  0  0  0  0  0  0  0  0  0  0
   -4.6002   -1.6735    1.4008 H   0  0  0  0  0  0  0  0  0  0  0  0
   -2.5246    1.0121   -1.4139 H   0  0  0  0  0  0  0  0  0  0  0  0
   -2.5443    1.9099    0.1132 H   0  0  0  0  0  0  0  0  0  0  0  0
   -5.0492    2.8301   -0.9277 H   0  0  0  0  0  0  0  0  0  0  0  0
   -7.3321   -0.3945   -0.0746 H   0  0  0  0  0  0  0  0  0  0  0  0
    1.4078   -1.7251    0.9199 H   0  0  0  0  0  0  0  0  0  0  0  0
  1  2  1  0
  2  3  1  0
  3  4  2  0
  4  5  1  0
  5  6  2  0
  6  7  1  0
  7  8  1  0
  8  9  2  0
  9 10  1  0
 10 11  1  0
 11 12  1  0
 12 13  1  0
 13 14  1  0
 14 15  1  0
 15 16  2  0
 16 17  1  0
 16 18  1  0
 18 19  1  0
 19 20  2  0
  9 21  1  0
  7  2  2  0
 17 12  1  0
 21  6  1  0
 20 15  1  0
  1 22  1  0
  1 23  1  0
  1 24  1  0
  3 25  1  0
  4 26  1  0
  5 27  1  0
  8 28  1  0
 10 29  1  0
 10 30  1  0
 11 31  1  0
 12 32  1  0
 13 33  1  0
 13 34  1  0
 14 35  1  0
 14 36  1  0
 17 37  1  0
 17 38  1  0
 18 39  1  0
 20 40  1  0
 21 41  1  0
M  END
$$$$
OCNT-2316133
     RDKit          3D

  0  0  0  0  0  0  0  0  0  0999 V3000
M  V30 BEGIN CTAB
M  V30 COUNTS 55 58 0 0 0
M  V30 BEGIN ATOM
M  V30 1 C 8.728343 2.357725 0.412469 0
M  V30 2 O 7.708169 1.918411 1.298387 0
M  V30 3 C 6.742063 1.106534 0.772657 0
M  V30 4 C 5.723235 0.758250 1.657567 0
M  V30 5 C 4.670011 -0.063510 1.244598 0
M  V30 6 C 4.601710 -0.557879 -0.065222 0
M  V30 7 C 3.467744 -1.452746 -0.504505 0 CFG=2
M  V30 8 C 2.687033 -1.136206 -1.754405 0
M  V30 9 C 2.033458 -0.947059 -0.408706 0 CFG=1
M  V30 10 C 0.954306 -1.872400 0.035979 0
M  V30 11 O 1.241714 -2.848631 0.719724 0
M  V30 12 N -0.342637 -1.561170 -0.355753 0
M  V30 13 C -0.678240 -0.407477 -1.187368 0
M  V30 14 C -2.088075 -0.500949 -1.763516 0
M  V30 15 C -3.156766 -0.677115 -0.668722 0
M  V30 16 C -3.592031 0.688250 -0.124439 0
M  V30 17 O -2.833948 1.658123 -0.190669 0
M  V30 18 N -4.836782 0.783545 0.476839 0
M  V30 19 C -5.278089 2.083933 0.994015 0
M  V30 20 C -6.775979 2.291907 0.749908 0
M  V30 21 O -7.606645 1.278010 1.334213 0
M  V30 22 C -6.940553 0.027996 1.545209 0
M  V30 23 C -5.859944 -0.267239 0.500589 0
M  V30 24 C -2.659348 -1.565114 0.486439 0
M  V30 25 C -1.439256 -2.398292 0.110130 0
M  V30 26 C 5.645097 -0.210675 -0.936362 0
M  V30 27 C 6.702040 0.614235 -0.528983 0
M  V30 28 H 9.398269 3.016073 0.973516 0
M  V30 29 H 9.321040 1.514838 0.044559 0
M  V30 30 H 8.308315 2.938544 -0.415708 0
M  V30 31 H 5.747519 1.127340 2.678801 0
M  V30 32 H 3.892313 -0.324446 1.958277 0
M  V30 33 H 3.621414 -2.511572 -0.299491 0
M  V30 34 H 2.930777 -0.243416 -2.318138 0
M  V30 35 H 2.368407 -1.971777 -2.368001 0
M  V30 36 H 1.906040 0.071273 -0.055877 0
M  V30 37 H 0.041700 -0.333660 -2.007950 0
M  V30 38 H -0.560588 0.487186 -0.566981 0
M  V30 39 H -2.133345 -1.367257 -2.436914 0
M  V30 40 H -2.297160 0.379428 -2.382339 0
M  V30 41 H -4.022147 -1.143610 -1.153485 0
M  V30 42 H -5.070531 2.075168 2.070366 0
M  V30 43 H -4.706577 2.902172 0.544665 0
M  V30 44 H -6.984663 2.304348 -0.325792 0
M  V30 45 H -7.097286 3.255294 1.157702 0
M  V30 46 H -6.503816 0.047330 2.549853 0
M  V30 47 H -7.701941 -0.757923 1.535346 0
M  V30 48 H -6.301122 -0.295540 -0.502326 0
M  V30 49 H -5.404314 -1.236671 0.703423 0
M  V30 50 H -2.410292 -0.949779 1.360616 0
M  V30 51 H -3.458148 -2.242536 0.806136 0
M  V30 52 H -1.127988 -3.000388 0.970427 0
M  V30 53 H -1.685592 -3.096005 -0.699135 0
M  V30 54 H 5.638558 -0.591460 -1.954868 0
M  V30 55 H 7.474527 0.846585 -1.253379 0
M  V30 END ATOM
M  V30 BEGIN BOND
M  V30 1 1 1 2
M  V30 2 1 2 3
M  V30 3 1 3 4
M  V30 4 2 4 5
M  V30 5 1 5 6
M  V30 6 1 6 7
M  V30 7 1 7 8
M  V30 8 1 8 9
M  V30 9 1 9 10
M  V30 10 2 10 11
M  V30 11 1 10 12
M  V30 12 1 12 13
M  V30 13 1 13 14
M  V30 14 1 14 15
M  V30 15 1 15 16
M  V30 16 2 16 17
M  V30 17 1 16 18
M  V30 18 1 18 19
M  V30 19 1 19 20
M  V30 20 1 20 21
M  V30 21 1 21 22
M  V30 22 1 22 23
M  V30 23 1 15 24
M  V30 24 1 24 25
M  V30 25 2 6 26
M  V30 26 1 26 27
M  V30 27 2 27 3
M  V30 28 1 9 7
M  V30 29 1 25 12
M  V30 30 1 23 18
M  V30 31 1 1 28
M  V30 32 1 1 29
M  V30 33 1 1 30
M  V30 34 1 4 31
M  V30 35 1 5 32
M  V30 36 1 7 33 CFG=3
M  V30 37 1 8 34
M  V30 38 1 8 35
M  V30 39 1 9 36 CFG=1
M  V30 40 1 13 37
M  V30 41 1 13 38
M  V30 42 1 14 39
M  V30 43 1 14 40
M  V30 44 1 15 41
M  V30 45 1 19 42
M  V30 46 1 19 43
M  V30 47 1 20 44
M  V30 48 1 20 45
M  V30 49 1 22 46
M  V30 50 1 22 47
M  V30 51 1 23 48
M  V30 52 1 23 49
M  V30 53 1 24 50
M  V30 54 1 24 51
M  V30 55 1 25 52
M  V30 56 1 25 53
M  V30 57 1 26 54
M  V30 58 1 27 55
M  V30 END BOND
M  V30 BEGIN COLLECTION
M  V30 MDLV30/STERAC1 ATOMS=(2 7 9)
M  V30 END COLLECTION
M  V30 END CTAB
M  END
>  <_CXSMILES_Data>  (1068) 
|&1:6,8|

$$$$
OCNT-2316136
     RDKit          3D

 44 46  0  0  0  0  0  0  0  0999 V2000
    3.2033    1.8455    0.4869 C   0  0  0  0  0  0  0  0  0  0  0  0
    4.0289    0.5869    0.4865 C   0  0  0  0  0  0  0  0  0  0  0  0
    5.2068    0.5547   -0.2803 C   0  0  0  0  0  0  0  0  0  0  0  0
    6.0134   -0.5834   -0.3117 C   0  0  0  0  0  0  0  0  0  0  0  0
    5.6501   -1.7029    0.4263 C   0  0  0  0  0  0  0  0  0  0  0  0
    6.7373   -3.2488    0.3833 Br  0  0  0  0  0  0  0  0  0  0  0  0
    4.4890   -1.6929    1.1967 C   0  0  0  0  0  0  0  0  0  0  0  0
    3.6618   -0.5513    1.2404 C   0  0  0  0  0  0  0  0  0  0  0  0
    2.4100   -0.5988    2.0935 C   0  0  0  0  0  0  0  0  0  0  0  0
    1.3608   -1.2496    1.2677 C   0  0  0  0  0  0  0  0  0  0  0  0
    1.0875   -2.5603    1.3528 N   0  0  0  0  0  0  0  0  0  0  0  0
    0.0443   -2.7311    0.4415 O   0  0  0  0  0  0  0  0  0  0  0  0
   -0.2150   -1.5000   -0.0877 C   0  0  0  0  0  0  0  0  0  0  0  0
   -1.2857   -1.4240   -1.1184 C   0  0  0  0  0  0  0  0  0  0  0  0
   -2.3338   -0.4820   -0.7139 N   0  0  0  0  0  0  0  0  0  0  0  0
   -2.0515    0.9455   -0.8652 C   0  0  0  0  0  0  0  0  0  0  0  0
   -3.0566    1.6455   -1.7727 C   0  0  0  0  0  0  0  0  0  0  0  0
   -4.3718    1.9896   -1.0834 C   0  0  0  0  0  0  0  0  0  0  0  0
   -5.1408    0.7787   -0.5609 C   0  0  0  0  0  0  0  0  0  0  0  0
   -4.4499    0.0060    0.5626 C   0  0  0  0  0  0  0  0  0  0  0  0
   -3.9586    0.8903    1.5589 O   0  0  0  0  0  0  0  0  0  0  0  0
   -3.3875   -0.9780    0.0353 C   0  0  0  0  0  0  0  0  0  0  0  0
   -3.4867   -2.1794    0.2978 O   0  0  0  0  0  0  0  0  0  0  0  0
    0.5591   -0.5507    0.3961 N   0  0  0  0  0  0  0  0  0  0  0  0
    3.1886    2.2887    1.4875 H   0  0  0  0  0  0  0  0  0  0  0  0
    3.6139    2.5950   -0.1981 H   0  0  0  0  0  0  0  0  0  0  0  0
    2.1803    1.6375    0.1610 H   0  0  0  0  0  0  0  0  0  0  0  0
    5.5058    1.4233   -0.8642 H   0  0  0  0  0  0  0  0  0  0  0  0
    6.9178   -0.5838   -0.9142 H   0  0  0  0  0  0  0  0  0  0  0  0
    4.2145   -2.5810    1.7649 H   0  0  0  0  0  0  0  0  0  0  0  0
    2.6012   -1.1657    3.0124 H   0  0  0  0  0  0  0  0  0  0  0  0
    2.0922    0.3993    2.4091 H   0  0  0  0  0  0  0  0  0  0  0  0
   -1.7203   -2.4158   -1.2890 H   0  0  0  0  0  0  0  0  0  0  0  0
   -0.8678   -1.0908   -2.0754 H   0  0  0  0  0  0  0  0  0  0  0  0
   -1.0585    1.0553   -1.3180 H   0  0  0  0  0  0  0  0  0  0  0  0
   -2.0002    1.4147    0.1226 H   0  0  0  0  0  0  0  0  0  0  0  0
   -2.6107    2.5850   -2.1221 H   0  0  0  0  0  0  0  0  0  0  0  0
   -3.2507    1.0371   -2.6643 H   0  0  0  0  0  0  0  0  0  0  0  0
   -4.1866    2.6994   -0.2682 H   0  0  0  0  0  0  0  0  0  0  0  0
   -5.0090    2.5171   -1.8043 H   0  0  0  0  0  0  0  0  0  0  0  0
   -5.3830    0.1040   -1.3912 H   0  0  0  0  0  0  0  0  0  0  0  0
   -6.0961    1.1553   -0.1719 H   0  0  0  0  0  0  0  0  0  0  0  0
   -5.2182   -0.6130    1.0445 H   0  0  0  0  0  0  0  0  0  0  0  0
   -3.6275    0.3289    2.2838 H   0  0  0  0  0  0  0  0  0  0  0  0
  1  2  1  0
  2  3  1  0
  3  4  2  0
  4  5  1  0
  5  6  1  0
  5  7  2  0
  7  8  1  0
  8  9  1  0
  9 10  1  0
 10 11  2  0
 11 12  1  0
 12 13  1  0
 13 14  1  0
 14 15  1  0
 15 16  1  0
 16 17  1  0
 17 18  1  0
 18 19  1  0
 19 20  1  0
 20 21  1  0
 20 22  1  0
 22 23  2  0
 13 24  2  0
  8  2  2  0
 24 10  1  0
 22 15  1  0
  1 25  1  0
  1 26  1  0
  1 27  1  0
  3 28  1  0
  4 29  1  0
  7 30  1  0
  9 31  1  0
  9 32  1  0
 14 33  1  0
 14 34  1  0
 16 35  1  0
 16 36  1  0
 17 37  1  0
 17 38  1  0
 18 39  1  0
 18 40  1  0
 19 41  1  0
 19 42  1  0
 20 43  1  0
 21 44  1  0
M  END
$$$$
OCNT-2316175
     RDKit          3D

 45 47  0  0  0  0  0  0  0  0999 V2000
   -3.2639    2.0757    1.5380 C   0  0  0  0  0  0  0  0  0  0  0  0
   -3.0956    0.9368    0.5276 C   0  0  2  0  0  0  0  0  0  0  0  0
   -4.2392   -0.0979    0.6668 C   0  0  0  0  0  0  0  0  0  0  0  0
   -3.9946   -1.3239   -0.0352 O   0  0  0  0  0  0  0  0  0  0  0  0
   -3.0803   -1.1404   -1.1224 C   0  0  0  0  0  0  0  0  0  0  0  0
   -1.6620   -0.7076   -0.6070 C   0  0  1  0  0  0  0  0  0  0  0  0
   -0.8760   -2.0204   -0.2711 C   0  0  0  0  0  0  0  0  0  0  0  0
   -0.6245   -2.8266   -1.4238 O   0  0  0  0  0  0  0  0  0  0  0  0
   -0.9628    0.0236   -1.8008 C   0  0  0  0  0  0  0  0  0  0  0  0
    0.3381    0.5745   -1.4502 N   0  0  0  0  0  0  0  0  0  0  0  0
    1.4974   -0.1463   -1.6164 C   0  0  0  0  0  0  0  0  0  0  0  0
    1.5467   -1.2460   -2.1557 O   0  0  0  0  0  0  0  0  0  0  0  0
    2.7025    0.4515   -1.0319 C   0  0  0  0  0  0  0  0  0  0  0  0
    3.2483    1.6718   -1.4513 C   0  0  0  0  0  0  0  0  0  0  0  0
    2.5428    2.6009   -2.7278 Cl  0  0  0  0  0  0  0  0  0  0  0  0
    4.4103    2.1789   -0.8559 C   0  0  0  0  0  0  0  0  0  0  0  0
    5.0628    1.4833    0.1732 C   0  0  0  0  0  0  0  0  0  0  0  0
    4.5280    0.2573    0.6051 C   0  0  0  0  0  0  0  0  0  0  0  0
    3.3720   -0.2210   -0.0069 C   0  0  0  0  0  0  0  0  0  0  0  0
    3.0057   -1.4062    0.5638 O   0  0  0  0  0  0  0  0  0  0  0  0
    3.9272   -1.6974    1.5163 C   0  0  0  0  0  0  0  0  0  0  0  0
    4.8809   -0.7091    1.5841 C   0  0  0  0  0  0  0  0  0  0  0  0
   -1.7476    0.3081    0.5335 N   0  0  0  0  0  0  0  0  0  0  0  0
   -1.4084   -0.2482    1.8459 C   0  0  0  0  0  0  0  0  0  0  0  0
   -4.1916    2.6236    1.3378 H   0  0  0  0  0  0  0  0  0  0  0  0
   -3.3174    1.7129    2.5692 H   0  0  0  0  0  0  0  0  0  0  0  0
   -2.4368    2.7899    1.4637 H   0  0  0  0  0  0  0  0  0  0  0  0
   -3.2022    1.4195   -0.4538 H   0  0  0  0  0  0  0  0  0  0  0  0
   -5.1733    0.3273    0.2823 H   0  0  0  0  0  0  0  0  0  0  0  0
   -4.4096   -0.3621    1.7162 H   0  0  0  0  0  0  0  0  0  0  0  0
   -3.0348   -2.0862   -1.6726 H   0  0  0  0  0  0  0  0  0  0  0  0
   -3.5132   -0.4061   -1.8143 H   0  0  0  0  0  0  0  0  0  0  0  0
   -1.4463   -2.6380    0.4313 H   0  0  0  0  0  0  0  0  0  0  0  0
    0.0945   -1.8144    0.1900 H   0  0  0  0  0  0  0  0  0  0  0  0
    0.2166   -2.4931   -1.8139 H   0  0  0  0  0  0  0  0  0  0  0  0
   -0.8584   -0.6353   -2.6702 H   0  0  0  0  0  0  0  0  0  0  0  0
   -1.5646    0.8803   -2.1276 H   0  0  0  0  0  0  0  0  0  0  0  0
    0.3266    1.3585   -0.8085 H   0  0  0  0  0  0  0  0  0  0  0  0
    4.8275    3.1258   -1.1953 H   0  0  0  0  0  0  0  0  0  0  0  0
    5.9656    1.8875    0.6232 H   0  0  0  0  0  0  0  0  0  0  0  0
    3.7689   -2.6253    2.0489 H   0  0  0  0  0  0  0  0  0  0  0  0
    5.7265   -0.6881    2.2569 H   0  0  0  0  0  0  0  0  0  0  0  0
   -1.4605    0.5158    2.6279 H   0  0  0  0  0  0  0  0  0  0  0  0
   -2.0581   -1.0790    2.1393 H   0  0  0  0  0  0  0  0  0  0  0  0
   -0.3674   -0.5851    1.8715 H   0  0  0  0  0  0  0  0  0  0  0  0
  1  2  1  0
  2  3  1  0
  3  4  1  0
  4  5  1  0
  5  6  1  0
  6  7  1  1
  7  8  1  0
  6  9  1  0
  9 10  1  0
 10 11  1  0
 11 12  2  0
 11 13  1  0
 13 14  1  0
 14 15  1  0
 14 16  2  0
 16 17  1  0
 17 18  2  0
 18 19  1  0
 19 20  1  0
 20 21  1  0
 21 22  2  0
  6 23  1  0
 23 24  1  0
 23  2  1  0
 19 13  2  0
 22 18  1  0
  1 25  1  0
  1 26  1  0
  1 27  1  0
  2 28  1  6
  3 29  1  0
  3 30  1  0
  5 31  1  0
  5 32  1  0
  7 33  1  0
  7 34  1  0
  8 35  1  0
  9 36  1  0
  9 37  1  0
 10 38  1  0
 16 39  1  0
 17 40  1  0
 21 41  1  0
 22 42  1  0
 24 43  1  0
 24 44  1  0
 24 45  1  0
M  END
$$$$
OCNT-2316176
     RDKit          3D

 56 58  0  0  0  0  0  0  0  0999 V2000
   -3.0470    4.1535    0.7127 C   0  0  0  0  0  0  0  0  0  0  0  0
   -2.5223    2.9585    0.1366 O   0  0  0  0  0  0  0  0  0  0  0  0
   -2.9860    1.8139    0.7157 C   0  0  0  0  0  0  0  0  0  0  0  0
   -3.7976    1.7987    1.6358 O   0  0  0  0  0  0  0  0  0  0  0  0
   -2.4680    0.6068    0.0925 C   0  0  0  0  0  0  0  0  0  0  0  0
   -3.0353   -0.6569    0.1827 C   0  0  0  0  0  0  0  0  0  0  0  0
   -4.2398   -1.1724    0.8968 C   0  0  0  0  0  0  0  0  0  0  0  0
   -4.6755   -2.5430    0.3678 C   0  0  0  0  0  0  0  0  0  0  0  0
   -3.4758   -3.4794    0.2111 C   0  0  0  0  0  0  0  0  0  0  0  0
   -2.4607   -2.8987   -0.7724 C   0  0  0  0  0  0  0  0  0  0  0  0
   -2.2303   -1.4847   -0.5436 N   0  0  0  0  0  0  0  0  0  0  0  0
   -1.1965   -0.8666   -1.1239 N   0  0  0  0  0  0  0  0  0  0  0  0
   -1.2984    0.4079   -0.7075 C   0  0  0  0  0  0  0  0  0  0  0  0
   -0.2387    1.4031   -1.0979 C   0  0  0  0  0  0  0  0  0  0  0  0
    0.4522    1.9340    0.0845 N   0  0  0  0  0  0  0  0  0  0  0  0
    1.3105    0.9951    0.8214 C   0  0  0  0  0  0  0  0  0  0  0  0
    2.4785    0.1881    0.1897 C   0  0  0  0  0  0  0  0  0  0  0  0
    3.4506    1.0012   -0.6813 C   0  0  0  0  0  0  0  0  0  0  0  0
    4.4524    0.1312   -1.4520 C   0  0  0  0  0  0  0  0  0  0  0  0
    4.5990   -1.2643   -0.8607 C   0  0  0  0  0  0  0  0  0  0  0  0
    3.2563   -2.0151   -0.8384 C   0  0  0  0  0  0  0  0  0  0  0  0
    3.3188   -3.1718    0.1610 C   0  0  0  0  0  0  0  0  0  0  0  0
    2.0551   -1.0880   -0.5486 C   0  0  0  0  0  0  0  0  0  0  0  0
    1.3094    3.0109   -0.3935 O   0  0  0  0  0  0  0  0  0  0  0  0
    0.8998    4.2274    0.2239 C   0  0  0  0  0  0  0  0  0  0  0  0
   -4.1385    4.1757    0.6322 H   0  0  0  0  0  0  0  0  0  0  0  0
   -2.7313    4.2445    1.7567 H   0  0  0  0  0  0  0  0  0  0  0  0
   -2.6452    5.0038    0.1547 H   0  0  0  0  0  0  0  0  0  0  0  0
   -4.0049   -1.2528    1.9652 H   0  0  0  0  0  0  0  0  0  0  0  0
   -5.0742   -0.4692    0.7975 H   0  0  0  0  0  0  0  0  0  0  0  0
   -5.4115   -2.9836    1.0496 H   0  0  0  0  0  0  0  0  0  0  0  0
   -5.1697   -2.4233   -0.6049 H   0  0  0  0  0  0  0  0  0  0  0  0
   -3.8050   -4.4651   -0.1355 H   0  0  0  0  0  0  0  0  0  0  0  0
   -3.0006   -3.6235    1.1897 H   0  0  0  0  0  0  0  0  0  0  0  0
   -1.5004   -3.4179   -0.6870 H   0  0  0  0  0  0  0  0  0  0  0  0
   -2.8241   -2.9913   -1.8021 H   0  0  0  0  0  0  0  0  0  0  0  0
   -0.7395    2.2260   -1.6239 H   0  0  0  0  0  0  0  0  0  0  0  0
    0.4643    0.9788   -1.8212 H   0  0  0  0  0  0  0  0  0  0  0  0
    1.7517    1.5801    1.6415 H   0  0  0  0  0  0  0  0  0  0  0  0
    0.6553    0.2820    1.3392 H   0  0  0  0  0  0  0  0  0  0  0  0
    3.0573   -0.1526    1.0623 H   0  0  0  0  0  0  0  0  0  0  0  0
    3.9937    1.7086   -0.0427 H   0  0  0  0  0  0  0  0  0  0  0  0
    2.9150    1.5971   -1.4260 H   0  0  0  0  0  0  0  0  0  0  0  0
    5.4263    0.6331   -1.4830 H   0  0  0  0  0  0  0  0  0  0  0  0
    4.1200    0.0406   -2.4942 H   0  0  0  0  0  0  0  0  0  0  0  0
    5.3287   -1.8393   -1.4436 H   0  0  0  0  0  0  0  0  0  0  0  0
    5.0124   -1.1810    0.1527 H   0  0  0  0  0  0  0  0  0  0  0  0
    3.0942   -2.4572   -1.8308 H   0  0  0  0  0  0  0  0  0  0  0  0
    3.4389   -2.8059    1.1863 H   0  0  0  0  0  0  0  0  0  0  0  0
    2.4023   -3.7700    0.1203 H   0  0  0  0  0  0  0  0  0  0  0  0
    4.1603   -3.8352   -0.0648 H   0  0  0  0  0  0  0  0  0  0  0  0
    1.2895   -1.6276    0.0202 H   0  0  0  0  0  0  0  0  0  0  0  0
    1.6053   -0.8225   -1.5107 H   0  0  0  0  0  0  0  0  0  0  0  0
    1.6054    5.0109   -0.0653 H   0  0  0  0  0  0  0  0  0  0  0  0
    0.9103    4.1346    1.3147 H   0  0  0  0  0  0  0  0  0  0  0  0
   -0.0964    4.5124   -0.1251 H   0  0  0  0  0  0  0  0  0  0  0  0
  1  2  1  0
  2  3  1  0
  3  4  2  0
  3  5  1  0
  5  6  2  0
  6  7  1  0
  7  8  1  0
  8  9  1  0
  9 10  1  0
 10 11  1  0
 11 12  1  0
 12 13  2  0
 13 14  1  0
 14 15  1  0
 15 16  1  0
 16 17  1  0
 17 18  1  0
 18 19  1  0
 19 20  1  0
 20 21  1  0
 21 22  1  0
 21 23  1  0
 15 24  1  0
 24 25  1  0
 13  5  1  0
 23 17  1  0
 11  6  1  0
  1 26  1  0
  1 27  1  0
  1 28  1  0
  7 29  1  0
  7 30  1  0
  8 31  1  0
  8 32  1  0
  9 33  1  0
  9 34  1  0
 10 35  1  0
 10 36  1  0
 14 37  1  0
 14 38  1  0
 16 39  1  0
 16 40  1  0
 17 41  1  0
 18 42  1  0
 18 43  1  0
 19 44  1  0
 19 45  1  0
 20 46  1  0
 20 47  1  0
 21 48  1  0
 22 49  1  0
 22 50  1  0
 22 51  1  0
 23 52  1  0
 23 53  1  0
 25 54  1  0
 25 55  1  0
 25 56  1  0
M  END
$$$$
OCNT-2316179
     RDKit          3D

 52 54  0  0  0  0  0  0  0  0999 V2000
    2.2936   -0.9674    3.2014 C   0  0  0  0  0  0  0  0  0  0  0  0
    2.3712   -0.2109    1.9272 C   0  0  0  0  0  0  0  0  0  0  0  0
    3.5556   -0.0148    1.3422 N   0  0  0  0  0  0  0  0  0  0  0  0
    3.2701    0.6873    0.2283 N   0  0  0  0  0  0  0  0  0  0  0  0
    4.3590    1.0637   -0.6709 C   0  0  0  0  0  0  0  0  0  0  0  0
    5.1201   -0.1618   -1.1786 C   0  0  0  0  0  0  0  0  0  0  0  0
    5.3003    2.0690   -0.0084 C   0  0  0  0  0  0  0  0  0  0  0  0
    1.9328    0.9702    0.0983 C   0  0  0  0  0  0  0  0  0  0  0  0
    1.3607    1.7541   -1.0262 C   0  0  0  0  0  0  0  0  0  0  0  0
    1.3086    0.3737    1.1854 C   0  0  0  0  0  0  0  0  0  0  0  0
   -0.1486    0.3636    1.5246 C   0  0  0  0  0  0  0  0  0  0  0  0
   -0.9058   -0.3931    0.5137 N   0  0  0  0  0  0  0  0  0  0  0  0
   -0.5826   -1.8317    0.5412 C   0  0  0  0  0  0  0  0  0  0  0  0
   -1.6987   -2.7163   -0.0324 C   0  0  0  0  0  0  0  0  0  0  0  0
   -2.4432   -2.0003   -1.1522 C   0  0  0  0  0  0  0  0  0  0  0  0
   -3.0516   -0.6597   -0.6632 C   0  0  0  0  0  0  0  0  0  0  0  0
   -4.5755   -0.7994   -0.4242 C   0  0  0  0  0  0  0  0  0  0  0  0
   -5.1554    0.6061   -0.3117 C   0  0  0  0  0  0  0  0  0  0  0  0
   -4.2518    1.5781   -1.5038 S   0  0  0  0  0  0  0  0  0  0  0  0
   -5.0482    1.6880   -2.7085 O   0  0  0  0  0  0  0  0  0  0  0  0
   -3.7075    2.7388   -0.8304 O   0  0  0  0  0  0  0  0  0  0  0  0
   -2.9402    0.3954   -1.7895 C   0  0  0  0  0  0  0  0  0  0  0  0
   -2.3441   -0.1691    0.6344 C   0  0  0  0  0  0  0  0  0  0  0  0
    1.8110   -0.3630    3.9759 H   0  0  0  0  0  0  0  0  0  0  0  0
    3.2875   -1.2482    3.5654 H   0  0  0  0  0  0  0  0  0  0  0  0
    1.7128   -1.8849    3.0652 H   0  0  0  0  0  0  0  0  0  0  0  0
    3.9051    1.5504   -1.5408 H   0  0  0  0  0  0  0  0  0  0  0  0
    4.4372   -0.8775   -1.6495 H   0  0  0  0  0  0  0  0  0  0  0  0
    5.6395   -0.6821   -0.3662 H   0  0  0  0  0  0  0  0  0  0  0  0
    5.8690    0.1300   -1.9224 H   0  0  0  0  0  0  0  0  0  0  0  0
    5.8113    1.6338    0.8576 H   0  0  0  0  0  0  0  0  0  0  0  0
    6.0650    2.4074   -0.7154 H   0  0  0  0  0  0  0  0  0  0  0  0
    4.7487    2.9493    0.3398 H   0  0  0  0  0  0  0  0  0  0  0  0
    1.8706    2.7174   -1.1281 H   0  0  0  0  0  0  0  0  0  0  0  0
    1.4584    1.2026   -1.9666 H   0  0  0  0  0  0  0  0  0  0  0  0
    0.2985    1.9640   -0.8694 H   0  0  0  0  0  0  0  0  0  0  0  0
   -0.4836    1.4091    1.5402 H   0  0  0  0  0  0  0  0  0  0  0  0
   -0.3248   -0.0362    2.5305 H   0  0  0  0  0  0  0  0  0  0  0  0
   -0.3782   -2.1811    1.5612 H   0  0  0  0  0  0  0  0  0  0  0  0
    0.3290   -1.9943   -0.0462 H   0  0  0  0  0  0  0  0  0  0  0  0
   -2.4079   -2.9831    0.7614 H   0  0  0  0  0  0  0  0  0  0  0  0
   -1.2710   -3.6547   -0.4032 H   0  0  0  0  0  0  0  0  0  0  0  0
   -1.7315   -1.8180   -1.9686 H   0  0  0  0  0  0  0  0  0  0  0  0
   -3.2156   -2.6608   -1.5630 H   0  0  0  0  0  0  0  0  0  0  0  0
   -4.8046   -1.3945    0.4663 H   0  0  0  0  0  0  0  0  0  0  0  0
   -5.0431   -1.3037   -1.2801 H   0  0  0  0  0  0  0  0  0  0  0  0
   -4.9830    1.0329    0.6801 H   0  0  0  0  0  0  0  0  0  0  0  0
   -6.2218    0.6352   -0.5456 H   0  0  0  0  0  0  0  0  0  0  0  0
   -1.9808    0.9181   -1.8064 H   0  0  0  0  0  0  0  0  0  0  0  0
   -3.1294   -0.0492   -2.7727 H   0  0  0  0  0  0  0  0  0  0  0  0
   -2.5457    0.8977    0.7822 H   0  0  0  0  0  0  0  0  0  0  0  0
   -2.7414   -0.6801    1.5220 H   0  0  0  0  0  0  0  0  0  0  0  0
  1  2  1  0
  2  3  2  0
  3  4  1  0
  4  5  1  0
  5  6  1  0
  5  7  1  0
  4  8  1  0
  8  9  1  0
  8 10  2  0
 10 11  1  0
 11 12  1  0
 12 13  1  0
 13 14  1  0
 14 15  1  0
 15 16  1  0
 16 17  1  0
 17 18  1  0
 18 19  1  0
 19 20  2  0
 19 21  2  0
 19 22  1  0
 16 23  1  0
 10  2  1  0
 23 12  1  0
 22 16  1  0
  1 24  1  0
  1 25  1  0
  1 26  1  0
  5 27  1  0
  6 28  1  0
  6 29  1  0
  6 30  1  0
  7 31  1  0
  7 32  1  0
  7 33  1  0
  9 34  1  0
  9 35  1  0
  9 36  1  0
 11 37  1  0
 11 38  1  0
 13 39  1  0
 13 40  1  0
 14 41  1  0
 14 42  1  0
 15 43  1  0
 15 44  1  0
 17 45  1  0
 17 46  1  0
 18 47  1  0
 18 48  1  0
 22 49  1  0
 22 50  1  0
 23 51  1  0
 23 52  1  0
M  END
$$$$
OCNT-2316180
     RDKit          3D

 46 50  0  0  0  0  0  0  0  0999 V2000
   -6.7251    0.5196    0.7381 C   0  0  0  0  0  0  0  0  0  0  0  0
   -6.0820   -0.5436    0.1091 C   0  0  0  0  0  0  0  0  0  0  0  0
   -4.6866   -0.5710    0.0359 C   0  0  0  0  0  0  0  0  0  0  0  0
   -3.9145    0.4627    0.5881 C   0  0  0  0  0  0  0  0  0  0  0  0
   -2.4625    0.4031    0.4865 C   0  0  0  0  0  0  0  0  0  0  0  0
   -1.5625    1.3538    0.9176 C   0  0  0  0  0  0  0  0  0  0  0  0
   -0.3312    0.8579    0.5935 N   0  0  0  0  0  0  0  0  0  0  0  0
   -0.5063   -0.3597   -0.0175 C   0  0  0  0  0  0  0  0  0  0  0  0
    0.6784   -1.1681   -0.4868 C   0  0  0  0  0  0  0  0  0  0  0  0
    0.2195   -2.5479   -1.0172 C   0  0  0  0  0  0  0  0  0  0  0  0
    1.3591   -3.2742   -1.7276 C   0  0  0  0  0  0  0  0  0  0  0  0
    1.9405   -2.4437   -2.8765 C   0  0  0  0  0  0  0  0  0  0  0  0
    1.4661   -0.9918   -2.8523 C   0  0  0  0  0  0  0  0  0  0  0  0
    1.5251   -0.4826   -1.4906 N   0  0  0  0  0  0  0  0  0  0  0  0
    2.4900    0.3773   -1.0518 C   0  0  0  0  0  0  0  0  0  0  0  0
    2.5335    0.8627    0.1753 N   0  0  0  0  0  0  0  0  0  0  0  0
    3.6375    1.6911    0.3077 C   0  0  0  0  0  0  0  0  0  0  0  0
    3.9299    2.3870    1.6741 C   0  0  0  0  0  0  0  0  0  0  0  0
    5.0256    1.8372    2.5522 C   0  0  0  0  0  0  0  0  0  0  0  0
    3.5890    1.6752    2.9591 C   0  0  0  0  0  0  0  0  0  0  0  0
    4.4343    1.9063   -0.7353 N   0  0  0  0  0  0  0  0  0  0  0  0
    3.8059    1.0155   -1.9924 S   0  0  0  0  0  0  0  0  0  0  0  0
   -1.7900   -0.6558   -0.0897 N   0  0  0  0  0  0  0  0  0  0  0  0
   -4.5771    1.5254    1.2198 C   0  0  0  0  0  0  0  0  0  0  0  0
   -5.9740    1.5532    1.2938 C   0  0  0  0  0  0  0  0  0  0  0  0
   -7.8105    0.5429    0.7940 H   0  0  0  0  0  0  0  0  0  0  0  0
   -6.6618   -1.3531   -0.3281 H   0  0  0  0  0  0  0  0  0  0  0  0
   -4.1976   -1.4073   -0.4604 H   0  0  0  0  0  0  0  0  0  0  0  0
   -1.6735    2.3124    1.4015 H   0  0  0  0  0  0  0  0  0  0  0  0
    0.5731    1.2922    0.7448 H   0  0  0  0  0  0  0  0  0  0  0  0
    1.2944   -1.3841    0.3996 H   0  0  0  0  0  0  0  0  0  0  0  0
   -0.6218   -2.4401   -1.7157 H   0  0  0  0  0  0  0  0  0  0  0  0
   -0.1511   -3.1614   -0.1860 H   0  0  0  0  0  0  0  0  0  0  0  0
    2.1538   -3.4914   -1.0024 H   0  0  0  0  0  0  0  0  0  0  0  0
    1.0119   -4.2425   -2.1062 H   0  0  0  0  0  0  0  0  0  0  0  0
    3.0358   -2.4813   -2.8221 H   0  0  0  0  0  0  0  0  0  0  0  0
    1.6645   -2.8941   -3.8377 H   0  0  0  0  0  0  0  0  0  0  0  0
    0.4291   -0.9348   -3.2090 H   0  0  0  0  0  0  0  0  0  0  0  0
    2.0434   -0.3987   -3.5691 H   0  0  0  0  0  0  0  0  0  0  0  0
    3.8031    3.4639    1.6511 H   0  0  0  0  0  0  0  0  0  0  0  0
    5.6354    2.5468    3.0984 H   0  0  0  0  0  0  0  0  0  0  0  0
    5.5630    0.9570    2.2159 H   0  0  0  0  0  0  0  0  0  0  0  0
    3.1580    0.6814    2.9059 H   0  0  0  0  0  0  0  0  0  0  0  0
    3.2231    2.2733    3.7855 H   0  0  0  0  0  0  0  0  0  0  0  0
   -4.0212    2.3465    1.6632 H   0  0  0  0  0  0  0  0  0  0  0  0
   -6.4737    2.3832    1.7860 H   0  0  0  0  0  0  0  0  0  0  0  0
  1  2  2  0
  2  3  1  0
  3  4  2  0
  4  5  1  0
  5  6  2  0
  6  7  1  0
  7  8  1  0
  8  9  1  0
  9 10  1  0
 10 11  1  0
 11 12  1  0
 12 13  1  0
 13 14  1  0
 14 15  1  0
 15 16  2  0
 16 17  1  0
 17 18  1  0
 18 19  1  0
 19 20  1  0
 17 21  2  0
 21 22  1  0
  8 23  2  0
  4 24  1  0
 24 25  2  0
 25  1  1  0
 23  5  1  0
 14  9  1  0
 22 15  1  0
 20 18  1  0
  1 26  1  0
  2 27  1  0
  3 28  1  0
  6 29  1  0
  7 30  1  0
  9 31  1  0
 10 32  1  0
 10 33  1  0
 11 34  1  0
 11 35  1  0
 12 36  1  0
 12 37  1  0
 13 38  1  0
 13 39  1  0
 18 40  1  0
 19 41  1  0
 19 42  1  0
 20 43  1  0
 20 44  1  0
 24 45  1  0
 25 46  1  0
M  END
$$$$
OCNT-2316207
     RDKit          3D

 49 51  0  0  0  0  0  0  0  0999 V2000
    6.8520    1.6603   -1.0342 C   0  0  0  0  0  0  0  0  0  0  0  0
    5.6154    0.9912   -0.5088 C   0  0  0  0  0  0  0  0  0  0  0  0
    4.4666    1.7454   -0.2324 C   0  0  0  0  0  0  0  0  0  0  0  0
    3.3063    1.1239    0.2313 C   0  0  0  0  0  0  0  0  0  0  0  0
    3.2907   -0.2624    0.3987 C   0  0  0  0  0  0  0  0  0  0  0  0
    1.8122   -1.0581    0.9942 S   0  0  0  0  0  0  0  0  0  0  0  0
    2.2256   -2.3110    1.5996 O   0  0  0  0  0  0  0  0  0  0  0  0
    1.0854   -0.0691    1.7659 O   0  0  0  0  0  0  0  0  0  0  0  0
    0.9347   -1.4179   -0.5100 C   0  0  0  0  0  0  0  0  0  0  0  0
   -0.4713   -2.0167   -0.3549 C   0  0  0  0  0  0  0  0  0  0  0  0
   -0.7637   -2.8133    0.9183 C   0  0  0  0  0  0  0  0  0  0  0  0
   -1.5819   -1.1090   -0.7246 N   0  0  0  0  0  0  0  0  0  0  0  0
   -1.7181    0.0350    0.1788 C   0  0  0  0  0  0  0  0  0  0  0  0
   -1.0934    1.2960   -0.4594 C   0  0  0  0  0  0  0  0  0  0  0  0
   -2.3201    2.0701    0.0691 C   0  0  0  0  0  0  0  0  0  0  0  0
   -3.1202    0.7283   -0.0382 C   0  0  0  0  0  0  0  0  0  0  0  0
   -4.1200    0.4439    1.0949 C   0  0  0  0  0  0  0  0  0  0  0  0
   -5.4844    0.4539    0.4146 C   0  0  0  0  0  0  0  0  0  0  0  0
   -5.1887   -0.1139   -0.9629 C   0  0  0  0  0  0  0  0  0  0  0  0
   -3.9087    0.6127   -1.3595 C   0  0  0  0  0  0  0  0  0  0  0  0
    4.4270   -1.0282    0.1299 C   0  0  0  0  0  0  0  0  0  0  0  0
    5.5836   -0.3992   -0.3332 C   0  0  0  0  0  0  0  0  0  0  0  0
    6.8212    1.6967   -2.1275 H   0  0  0  0  0  0  0  0  0  0  0  0
    6.9380    2.6813   -0.6478 H   0  0  0  0  0  0  0  0  0  0  0  0
    7.7514    1.1188   -0.7228 H   0  0  0  0  0  0  0  0  0  0  0  0
    4.4734    2.8252   -0.3688 H   0  0  0  0  0  0  0  0  0  0  0  0
    2.4297    1.7255    0.4609 H   0  0  0  0  0  0  0  0  0  0  0  0
    1.5661   -2.1357   -1.0496 H   0  0  0  0  0  0  0  0  0  0  0  0
    0.9138   -0.5058   -1.1145 H   0  0  0  0  0  0  0  0  0  0  0  0
   -0.5188   -2.7658   -1.1591 H   0  0  0  0  0  0  0  0  0  0  0  0
   -1.7525   -3.2834    0.8615 H   0  0  0  0  0  0  0  0  0  0  0  0
   -0.7487   -2.1937    1.8190 H   0  0  0  0  0  0  0  0  0  0  0  0
   -0.0363   -3.6222    1.0425 H   0  0  0  0  0  0  0  0  0  0  0  0
   -2.4366   -1.6684   -0.7674 H   0  0  0  0  0  0  0  0  0  0  0  0
   -1.4773   -0.1270    1.2342 H   0  0  0  0  0  0  0  0  0  0  0  0
   -0.1347    1.6214   -0.0487 H   0  0  0  0  0  0  0  0  0  0  0  0
   -1.0206    1.2944   -1.5542 H   0  0  0  0  0  0  0  0  0  0  0  0
   -2.1884    2.4407    1.0935 H   0  0  0  0  0  0  0  0  0  0  0  0
   -2.6536    2.9030   -0.5558 H   0  0  0  0  0  0  0  0  0  0  0  0
   -4.0689    1.1751    1.9074 H   0  0  0  0  0  0  0  0  0  0  0  0
   -3.9384   -0.5500    1.5220 H   0  0  0  0  0  0  0  0  0  0  0  0
   -5.8567    1.4817    0.3280 H   0  0  0  0  0  0  0  0  0  0  0  0
   -6.2250   -0.1349    0.9631 H   0  0  0  0  0  0  0  0  0  0  0  0
   -6.0017    0.0610   -1.6731 H   0  0  0  0  0  0  0  0  0  0  0  0
   -5.0104   -1.1937   -0.8985 H   0  0  0  0  0  0  0  0  0  0  0  0
   -4.1715    1.6080   -1.7390 H   0  0  0  0  0  0  0  0  0  0  0  0
   -3.3737    0.0904   -2.1569 H   0  0  0  0  0  0  0  0  0  0  0  0
    4.4253   -2.1055    0.2804 H   0  0  0  0  0  0  0  0  0  0  0  0
    6.4659   -0.9991   -0.5482 H   0  0  0  0  0  0  0  0  0  0  0  0
  1  2  1  0
  2  3  1  0
  3  4  2  0
  4  5  1  0
  5  6  1  0
  6  7  2  0
  6  8  2  0
  6  9  1  0
  9 10  1  0
 10 11  1  0
 10 12  1  0
 12 13  1  0
 13 14  1  0
 14 15  1  0
 15 16  1  0
 16 17  1  0
 17 18  1  0
 18 19  1  0
 19 20  1  0
  5 21  2  0
 21 22  1  0
 22  2  2  0
 16 13  1  0
 20 16  1  0
  1 23  1  0
  1 24  1  0
  1 25  1  0
  3 26  1  0
  4 27  1  0
  9 28  1  0
  9 29  1  0
 10 30  1  0
 11 31  1  0
 11 32  1  0
 11 33  1  0
 12 34  1  0
 13 35  1  0
 14 36  1  0
 14 37  1  0
 15 38  1  0
 15 39  1  0
 17 40  1  0
 17 41  1  0
 18 42  1  0
 18 43  1  0
 19 44  1  0
 19 45  1  0
 20 46  1  0
 20 47  1  0
 21 48  1  0
 22 49  1  0
M  END
$$$$
OCNT-2316212
     RDKit          3D

 41 43  0  0  0  0  0  0  0  0999 V2000
   -1.2128    1.4548   -1.6186 C   0  0  0  0  0  0  0  0  0  0  0  0
   -2.0287    0.4949   -0.8544 C   0  0  0  0  0  0  0  0  0  0  0  0
   -1.7594   -0.5359    0.0203 C   0  0  0  0  0  0  0  0  0  0  0  0
   -0.4610   -1.0947    0.4855 C   0  0  0  0  0  0  0  0  0  0  0  0
    0.5187   -0.0508    1.0087 C   0  0  0  0  0  0  0  0  0  0  0  0
    0.1719    1.1053    1.2567 O   0  0  0  0  0  0  0  0  0  0  0  0
    1.8406   -0.4667    1.1859 N   0  0  0  0  0  0  0  0  0  0  0  0
    2.2931   -1.8484    1.0757 C   0  0  0  0  0  0  0  0  0  0  0  0
    2.8547    0.5442    1.5002 C   0  0  0  0  0  0  0  0  0  0  0  0
    3.8825    0.7050    0.4072 C   0  0  0  0  0  0  0  0  0  0  0  0
    3.5110    1.3487   -0.7811 C   0  0  0  0  0  0  0  0  0  0  0  0
    2.2606    1.8076   -0.9322 F   0  0  0  0  0  0  0  0  0  0  0  0
    4.4053    1.5322   -1.8339 C   0  0  0  0  0  0  0  0  0  0  0  0
    5.7103    1.0678   -1.7189 C   0  0  0  0  0  0  0  0  0  0  0  0
    6.1073    0.4216   -0.5492 C   0  0  0  0  0  0  0  0  0  0  0  0
    5.2022    0.2404    0.5059 C   0  0  0  0  0  0  0  0  0  0  0  0
    5.7887   -0.5817    1.9082 Cl  0  0  0  0  0  0  0  0  0  0  0  0
   -2.9490   -1.1107    0.4197 N   0  0  0  0  0  0  0  0  0  0  0  0
   -3.8922   -0.4021   -0.1788 C   0  0  0  0  0  0  0  0  0  0  0  0
   -5.3046   -0.6327   -0.0356 C   0  0  0  0  0  0  0  0  0  0  0  0
   -6.3234    0.0897   -0.6298 C   0  0  0  0  0  0  0  0  0  0  0  0
   -7.6176   -0.3978   -0.2818 C   0  0  0  0  0  0  0  0  0  0  0  0
   -7.5463   -1.4784    0.5678 C   0  0  0  0  0  0  0  0  0  0  0  0
   -5.9300   -1.8968    0.9389 S   0  0  0  0  0  0  0  0  0  0  0  0
   -3.3839    0.5942   -0.9825 O   0  0  0  0  0  0  0  0  0  0  0  0
   -0.2280    1.0367   -1.8478 H   0  0  0  0  0  0  0  0  0  0  0  0
   -1.0725    2.3769   -1.0468 H   0  0  0  0  0  0  0  0  0  0  0  0
   -1.6965    1.7099   -2.5667 H   0  0  0  0  0  0  0  0  0  0  0  0
   -0.6482   -1.8131    1.2918 H   0  0  0  0  0  0  0  0  0  0  0  0
   -0.0044   -1.6231   -0.3592 H   0  0  0  0  0  0  0  0  0  0  0  0
    2.8202   -1.9741    0.1259 H   0  0  0  0  0  0  0  0  0  0  0  0
    2.9688   -2.0718    1.9063 H   0  0  0  0  0  0  0  0  0  0  0  0
    1.4666   -2.5592    1.1179 H   0  0  0  0  0  0  0  0  0  0  0  0
    3.3025    0.2658    2.4594 H   0  0  0  0  0  0  0  0  0  0  0  0
    2.3959    1.5238    1.6791 H   0  0  0  0  0  0  0  0  0  0  0  0
    4.0731    2.0390   -2.7352 H   0  0  0  0  0  0  0  0  0  0  0  0
    6.4157    1.2077   -2.5341 H   0  0  0  0  0  0  0  0  0  0  0  0
    7.1297    0.0588   -0.4631 H   0  0  0  0  0  0  0  0  0  0  0  0
   -6.1463    0.9344   -1.2856 H   0  0  0  0  0  0  0  0  0  0  0  0
   -8.5504    0.0237   -0.6358 H   0  0  0  0  0  0  0  0  0  0  0  0
   -8.3642   -2.0448    0.9916 H   0  0  0  0  0  0  0  0  0  0  0  0
  1  2  1  0
  2  3  2  0
  3  4  1  0
  4  5  1  0
  5  6  2  0
  5  7  1  0
  7  8  1  0
  7  9  1  0
  9 10  1  0
 10 11  2  0
 11 12  1  0
 11 13  1  0
 13 14  2  0
 14 15  1  0
 15 16  2  0
 16 17  1  0
  3 18  1  0
 18 19  2  0
 19 20  1  0
 20 21  2  0
 21 22  1  0
 22 23  2  0
 23 24  1  0
 19 25  1  0
 25  2  1  0
 16 10  1  0
 24 20  1  0
  1 26  1  0
  1 27  1  0
  1 28  1  0
  4 29  1  0
  4 30  1  0
  8 31  1  0
  8 32  1  0
  8 33  1  0
  9 34  1  0
  9 35  1  0
 13 36  1  0
 14 37  1  0
 15 38  1  0
 21 39  1  0
 22 40  1  0
 23 41  1  0
M  END
$$$$
OCNT-2316228
     RDKit          3D

  0  0  0  0  0  0  0  0  0  0999 V3000
M  V30 BEGIN CTAB
M  V30 COUNTS 46 48 0 0 0
M  V30 BEGIN ATOM
M  V30 1 C -3.923550 -1.861984 0.791784 0
M  V30 2 N -2.996194 -1.289843 -0.169046 0
M  V30 3 C -2.706657 0.083700 -0.147600 0
M  V30 4 C -3.143821 0.921985 0.892253 0
M  V30 5 C -2.824884 2.284209 0.932175 0
M  V30 6 C -2.020749 2.849709 -0.052996 0
M  V30 7 C -1.697490 4.312865 -0.035520 0
M  V30 8 C -1.552152 2.029096 -1.080749 0
M  V30 9 C -1.861601 0.649997 -1.130684 0
M  V30 10 C -1.232255 -0.159595 -2.249471 0
M  V30 11 N 0.235819 -0.139775 -2.242173 0
M  V30 12 C 0.832964 -0.784965 -1.047211 0 CFG=1
M  V30 13 C 0.719177 -2.300536 -1.061604 0
M  V30 14 C 1.873471 -2.725143 -1.940802 0
M  V30 15 O 2.901978 -1.737039 -1.806574 0
M  V30 16 C 2.375228 -0.614319 -1.057418 0 CFG=2
M  V30 17 C 2.971451 -0.552892 0.317480 0
M  V30 18 C 2.771244 0.407383 1.291400 0
M  V30 19 N 3.520311 0.030894 2.366011 0
M  V30 20 C 3.633867 0.716505 3.629506 0
M  V30 21 N 4.204926 -1.108238 2.166906 0
M  V30 22 C 3.880707 -1.454062 0.918411 0
M  V30 23 H -3.548932 -1.763756 1.815611 0
M  V30 24 H -4.032557 -2.932285 0.588304 0
M  V30 25 H -4.915412 -1.405334 0.710999 0
M  V30 26 H -3.196957 -1.605045 -1.113783 0
M  V30 27 H -3.760305 0.537008 1.698722 0
M  V30 28 H -3.208347 2.893762 1.747050 0
M  V30 29 H -1.668338 4.694797 0.990331 0
M  V30 30 H -2.452345 4.869948 -0.598732 0
M  V30 31 H -0.714475 4.500995 -0.479382 0
M  V30 32 H -0.909268 2.451257 -1.852623 0
M  V30 33 H -1.568701 0.286903 -3.194408 0
M  V30 34 H -1.593833 -1.189586 -2.284338 0
M  V30 35 H 0.585791 -0.590021 -3.086427 0
M  V30 36 H 0.396571 -0.354021 -0.140602 0
M  V30 37 H 0.875667 -2.682966 -0.044849 0
M  V30 38 H -0.237890 -2.700390 -1.404939 0
M  V30 39 H 1.580485 -2.763010 -2.995262 0
M  V30 40 H 2.270291 -3.705057 -1.660278 0
M  V30 41 H 2.672194 0.300060 -1.586700 0
M  V30 42 H 2.163501 1.302079 1.301441 0
M  V30 43 H 4.679476 0.997932 3.776230 0
M  V30 44 H 3.303163 0.039233 4.421011 0
M  V30 45 H 3.004789 1.609860 3.616928 0
M  V30 46 H 4.313644 -2.350313 0.491617 0
M  V30 END ATOM
M  V30 BEGIN BOND
M  V30 1 1 1 2
M  V30 2 1 2 3
M  V30 3 1 3 4
M  V30 4 2 4 5
M  V30 5 1 5 6
M  V30 6 1 6 7
M  V30 7 2 6 8
M  V30 8 1 8 9
M  V30 9 1 9 10
M  V30 10 1 10 11
M  V30 11 1 11 12
M  V30 12 1 12 13
M  V30 13 1 13 14
M  V30 14 1 14 15
M  V30 15 1 15 16
M  V30 16 1 16 17
M  V30 17 2 17 18
M  V30 18 1 18 19
M  V30 19 1 19 20
M  V30 20 1 19 21
M  V30 21 2 21 22
M  V30 22 2 9 3
M  V30 23 1 16 12
M  V30 24 1 22 17
M  V30 25 1 1 23
M  V30 26 1 1 24
M  V30 27 1 1 25
M  V30 28 1 2 26
M  V30 29 1 4 27
M  V30 30 1 5 28
M  V30 31 1 7 29
M  V30 32 1 7 30
M  V30 33 1 7 31
M  V30 34 1 8 32
M  V30 35 1 10 33
M  V30 36 1 10 34
M  V30 37 1 11 35
M  V30 38 1 12 36 CFG=1
M  V30 39 1 13 37
M  V30 40 1 13 38
M  V30 41 1 14 39
M  V30 42 1 14 40
M  V30 43 1 16 41 CFG=3
M  V30 44 1 18 42
M  V30 45 1 20 43
M  V30 46 1 20 44
M  V30 47 1 20 45
M  V30 48 1 22 46
M  V30 END BOND
M  V30 BEGIN COLLECTION
M  V30 MDLV30/STERAC1 ATOMS=(2 12 16)
M  V30 END COLLECTION
M  V30 END CTAB
M  END
>  <_CXSMILES_Data>  (1076) 
|&1:11,15|

$$$$
OCNT-2316237
     RDKit          3D

 38 40  0  0  0  0  0  0  0  0999 V2000
   -4.5659   -0.3381   -0.1575 C   0  0  0  0  0  0  0  0  0  0  0  0
   -3.3448   -0.5725    0.7351 C   0  0  0  0  0  0  0  0  0  0  0  0
   -2.3130   -1.4247   -0.0001 C   0  0  0  0  0  0  0  0  0  0  0  0
   -2.7737    0.7407    1.3104 C   0  0  0  0  0  0  0  0  0  0  0  0
   -2.3376    1.7348    0.3511 N   0  0  0  0  0  0  0  0  0  0  0  0
   -3.1817    2.7501   -0.0579 C   0  0  0  0  0  0  0  0  0  0  0  0
   -2.5422    3.3671   -1.0980 C   0  0  0  0  0  0  0  0  0  0  0  0
   -1.3277    2.7873   -1.3133 N   0  0  0  0  0  0  0  0  0  0  0  0
   -1.1791    1.8567   -0.3885 C   0  0  0  0  0  0  0  0  0  0  0  0
    0.0058    1.1722   -0.3429 N   0  0  0  0  0  0  0  0  0  0  0  0
    0.5638    0.4515    0.6787 C   0  0  0  0  0  0  0  0  0  0  0  0
    0.0975    0.2282    1.7871 O   0  0  0  0  0  0  0  0  0  0  0  0
    1.9453   -0.0493    0.2877 C   0  0  0  0  0  0  0  0  0  0  0  0
    2.6061   -0.7994    1.1942 C   0  0  0  0  0  0  0  0  0  0  0  0
    3.8946   -1.2810    0.8617 C   0  0  0  0  0  0  0  0  0  0  0  0
    4.8529   -2.0474    1.4865 C   0  0  0  0  0  0  0  0  0  0  0  0
    5.9441   -2.1651    0.5870 C   0  0  0  0  0  0  0  0  0  0  0  0
    5.6173   -1.4669   -0.5578 C   0  0  0  0  0  0  0  0  0  0  0  0
    4.3652   -0.9299   -0.3828 N   0  0  0  0  0  0  0  0  0  0  0  0
    3.6277   -0.1486   -1.2726 C   0  0  0  0  0  0  0  0  0  0  0  0
    2.4410    0.2953   -0.9711 N   0  0  0  0  0  0  0  0  0  0  0  0
   -5.0332   -1.2917   -0.4266 H   0  0  0  0  0  0  0  0  0  0  0  0
   -4.2961    0.1711   -1.0883 H   0  0  0  0  0  0  0  0  0  0  0  0
   -5.3191    0.2647    0.3603 H   0  0  0  0  0  0  0  0  0  0  0  0
   -3.6883   -1.1623    1.5959 H   0  0  0  0  0  0  0  0  0  0  0  0
   -1.9474   -0.9332   -0.9062 H   0  0  0  0  0  0  0  0  0  0  0  0
   -1.4606   -1.6518    0.6462 H   0  0  0  0  0  0  0  0  0  0  0  0
   -2.7534   -2.3814   -0.3026 H   0  0  0  0  0  0  0  0  0  0  0  0
   -3.5664    1.2158    1.9063 H   0  0  0  0  0  0  0  0  0  0  0  0
   -1.9877    0.5571    2.0346 H   0  0  0  0  0  0  0  0  0  0  0  0
   -4.1533    2.9094    0.3884 H   0  0  0  0  0  0  0  0  0  0  0  0
   -2.8942    4.1899   -1.7060 H   0  0  0  0  0  0  0  0  0  0  0  0
    0.6298    1.3905   -1.1148 H   0  0  0  0  0  0  0  0  0  0  0  0
    2.1780   -1.0393    2.1631 H   0  0  0  0  0  0  0  0  0  0  0  0
    4.7807   -2.4759    2.4783 H   0  0  0  0  0  0  0  0  0  0  0  0
    6.8689   -2.7020    0.7581 H   0  0  0  0  0  0  0  0  0  0  0  0
    6.1693   -1.3096   -1.4747 H   0  0  0  0  0  0  0  0  0  0  0  0
    4.0776    0.0877   -2.2503 H   0  0  0  0  0  0  0  0  0  0  0  0
  1  2  1  0
  2  3  1  0
  2  4  1  0
  4  5  1  0
  5  6  1  0
  6  7  2  0
  7  8  1  0
  8  9  2  0
  9 10  1  0
 10 11  1  0
 11 12  2  0
 11 13  1  0
 13 14  2  0
 14 15  1  0
 15 16  2  0
 16 17  1  0
 17 18  2  0
 18 19  1  0
 19 20  1  0
 20 21  2  0
  9  5  1  0
 21 13  1  0
 19 15  1  0
  1 22  1  0
  1 23  1  0
  1 24  1  0
  2 25  1  0
  3 26  1  0
  3 27  1  0
  3 28  1  0
  4 29  1  0
  4 30  1  0
  6 31  1  0
  7 32  1  0
 10 33  1  0
 14 34  1  0
 16 35  1  0
 17 36  1  0
 18 37  1  0
 20 38  1  0
M  END
$$$$
OCNT-2316240
     RDKit          3D

 48 51  0  0  0  0  0  0  0  0999 V2000
   -0.5869    2.4202    1.9677 O   0  0  0  0  0  0  0  0  0  0  0  0
   -0.3922    1.8662    0.8898 C   0  0  0  0  0  0  0  0  0  0  0  0
   -1.2605    0.9377    0.3807 N   0  0  0  0  0  0  0  0  0  0  0  0
   -2.4678    0.6179    1.1092 C   0  0  0  0  0  0  0  0  0  0  0  0
   -3.1368   -0.5853    0.5155 C   0  0  0  0  0  0  0  0  0  0  0  0
   -2.6064   -1.8737    0.7072 C   0  0  0  0  0  0  0  0  0  0  0  0
   -3.2205   -3.0040    0.1383 C   0  0  0  0  0  0  0  0  0  0  0  0
   -4.3731   -2.8679   -0.6367 C   0  0  0  0  0  0  0  0  0  0  0  0
   -4.8749   -1.5973   -0.8203 C   0  0  0  0  0  0  0  0  0  0  0  0
   -4.2760   -0.4879   -0.2648 C   0  0  0  0  0  0  0  0  0  0  0  0
   -4.9337    0.6604   -0.5870 O   0  0  0  0  0  0  0  0  0  0  0  0
   -6.0206    0.1454   -1.3825 C   0  0  0  0  0  0  0  0  0  0  0  0
   -5.9800   -1.2851   -1.5496 O   0  0  0  0  0  0  0  0  0  0  0  0
    0.7190    2.1113    0.0948 N   0  0  0  0  0  0  0  0  0  0  0  0
    1.7040    3.0708    0.5772 C   0  0  0  0  0  0  0  0  0  0  0  0
    2.8792    2.3412    1.2180 C   0  0  0  0  0  0  0  0  0  0  0  0
    3.4784    1.3082    0.2556 C   0  0  0  0  0  0  0  0  0  0  0  0
    2.4208    0.3419   -0.3595 C   0  0  0  0  0  0  0  0  0  0  0  0
    1.9018   -0.6801    0.6922 C   0  0  0  0  0  0  0  0  0  0  0  0
    2.8571   -1.8061    0.9767 C   0  0  0  0  0  0  0  0  0  0  0  0
    3.8895   -2.1140    0.1792 C   0  0  0  0  0  0  0  0  0  0  0  0
    4.1878   -1.3815   -1.0938 C   0  0  0  0  0  0  0  0  0  0  0  0
    3.0516   -0.4514   -1.5336 C   0  0  0  0  0  0  0  0  0  0  0  0
    1.2375    1.1811   -0.9111 C   0  0  0  0  0  0  0  0  0  0  0  0
   -1.3833    1.0094   -0.6171 H   0  0  0  0  0  0  0  0  0  0  0  0
   -3.1215    1.4974    1.0900 H   0  0  0  0  0  0  0  0  0  0  0  0
   -2.2200    0.4280    2.1607 H   0  0  0  0  0  0  0  0  0  0  0  0
   -1.7036   -2.0034    1.3028 H   0  0  0  0  0  0  0  0  0  0  0  0
   -2.7918   -3.9898    0.3034 H   0  0  0  0  0  0  0  0  0  0  0  0
   -4.8574   -3.7295   -1.0819 H   0  0  0  0  0  0  0  0  0  0  0  0
   -6.9673    0.4166   -0.9009 H   0  0  0  0  0  0  0  0  0  0  0  0
   -5.9830    0.6152   -2.3720 H   0  0  0  0  0  0  0  0  0  0  0  0
    1.2575    3.7693    1.2926 H   0  0  0  0  0  0  0  0  0  0  0  0
    2.0432    3.6608   -0.2826 H   0  0  0  0  0  0  0  0  0  0  0  0
    2.5521    1.8446    2.1386 H   0  0  0  0  0  0  0  0  0  0  0  0
    3.6504    3.0647    1.5057 H   0  0  0  0  0  0  0  0  0  0  0  0
    3.9776    1.8533   -0.5570 H   0  0  0  0  0  0  0  0  0  0  0  0
    4.2644    0.7557    0.7826 H   0  0  0  0  0  0  0  0  0  0  0  0
    0.9647   -1.1346    0.3453 H   0  0  0  0  0  0  0  0  0  0  0  0
    1.6694   -0.1780    1.6372 H   0  0  0  0  0  0  0  0  0  0  0  0
    2.6817   -2.3882    1.8783 H   0  0  0  0  0  0  0  0  0  0  0  0
    4.5532   -2.9311    0.4514 H   0  0  0  0  0  0  0  0  0  0  0  0
    5.1119   -0.8074   -0.9594 H   0  0  0  0  0  0  0  0  0  0  0  0
    4.3801   -2.1076   -1.8922 H   0  0  0  0  0  0  0  0  0  0  0  0
    2.2718   -1.0574   -2.0162 H   0  0  0  0  0  0  0  0  0  0  0  0
    3.4268    0.2321   -2.3057 H   0  0  0  0  0  0  0  0  0  0  0  0
    1.5708    1.7916   -1.7604 H   0  0  0  0  0  0  0  0  0  0  0  0
    0.4549    0.5201   -1.2940 H   0  0  0  0  0  0  0  0  0  0  0  0
  1  2  2  0
  2  3  1  0
  3  4  1  0
  4  5  1  0
  5  6  2  0
  6  7  1  0
  7  8  2  0
  8  9  1  0
  9 10  2  0
 10 11  1  0
 11 12  1  0
 12 13  1  0
  2 14  1  0
 14 15  1  0
 15 16  1  0
 16 17  1  0
 17 18  1  0
 18 19  1  0
 19 20  1  0
 20 21  2  0
 21 22  1  0
 22 23  1  0
 18 24  1  0
 10  5  1  0
 24 14  1  0
 13  9  1  0
 23 18  1  0
  3 25  1  0
  4 26  1  0
  4 27  1  0
  6 28  1  0
  7 29  1  0
  8 30  1  0
 12 31  1  0
 12 32  1  0
 15 33  1  0
 15 34  1  0
 16 35  1  0
 16 36  1  0
 17 37  1  0
 17 38  1  0
 19 39  1  0
 19 40  1  0
 20 41  1  0
 21 42  1  0
 22 43  1  0
 22 44  1  0
 23 45  1  0
 23 46  1  0
 24 47  1  0
 24 48  1  0
M  END
$$$$
OCNT-2316247
     RDKit          3D

  0  0  0  0  0  0  0  0  0  0999 V3000
M  V30 BEGIN CTAB
M  V30 COUNTS 44 47 0 0 0
M  V30 BEGIN ATOM
M  V30 1 O -2.084187 -0.840458 -0.132454 0
M  V30 2 C -1.948856 0.268759 -0.644391 0
M  V30 3 N -0.707259 0.774209 -0.983557 0
M  V30 4 C 0.474883 -0.063998 -1.013929 0 CFG=2
M  V30 5 C 0.866786 -0.637745 0.360074 0
M  V30 6 C 2.387497 -0.445971 0.496334 0
M  V30 7 C 3.074844 -1.659084 1.123875 0
M  V30 8 N 4.490995 -1.449339 1.346961 0
M  V30 9 C 5.510492 -1.882913 0.547480 0
M  V30 10 C 6.656673 -1.441230 1.167902 0
M  V30 11 N 6.356109 -0.761958 2.319794 0
M  V30 12 C 5.045396 -0.792524 2.407587 0
M  V30 13 C 2.861966 -0.124277 -0.921278 0
M  V30 14 C 1.718937 0.710614 -1.473952 0 CFG=1
M  V30 15 O 1.775422 0.807508 -2.886601 0
M  V30 16 C -3.045871 1.158348 -0.967524 0
M  V30 17 C -4.409208 1.072560 -0.769456 0
M  V30 18 C -5.164932 -0.094490 -0.098214 0
M  V30 19 C -4.976731 -0.331772 1.378046 0
M  V30 20 C -6.284126 0.196747 0.867916 0
M  V30 21 C -4.999690 2.228282 -1.323275 0
M  V30 22 C -3.958716 2.971620 -1.825085 0
M  V30 23 O -2.772889 2.341561 -1.616938 0
M  V30 24 H -0.735672 1.572808 -1.611676 0
M  V30 25 H 0.262095 -0.885199 -1.711261 0
M  V30 26 H 0.354752 -0.132138 1.186908 0
M  V30 27 H 0.585729 -1.696646 0.410066 0
M  V30 28 H 2.564662 0.437345 1.126305 0
M  V30 29 H 2.628403 -1.893155 2.097721 0
M  V30 30 H 2.964876 -2.548824 0.492051 0
M  V30 31 H 5.348460 -2.444821 -0.362188 0
M  V30 32 H 7.681192 -1.577247 0.847630 0
M  V30 33 H 4.458412 -0.356618 3.205082 0
M  V30 34 H 3.807689 0.427946 -0.935982 0
M  V30 35 H 3.005467 -1.031639 -1.522288 0
M  V30 36 H 1.732897 1.723869 -1.053234 0
M  V30 37 H 2.620730 1.231322 -3.118570 0
M  V30 38 H -5.268268 -0.976913 -0.723406 0
M  V30 39 H -4.932006 -1.360540 1.717422 0
M  V30 40 H -4.333363 0.341688 1.934303 0
M  V30 41 H -7.137012 -0.472256 0.865202 0
M  V30 42 H -6.531156 1.226057 1.099434 0
M  V30 43 H -6.047508 2.488938 -1.358550 0
M  V30 44 H -3.897912 3.921573 -2.337473 0
M  V30 END ATOM
M  V30 BEGIN BOND
M  V30 1 2 1 2
M  V30 2 1 2 3
M  V30 3 1 3 4
M  V30 4 1 4 5
M  V30 5 1 5 6
M  V30 6 1 6 7
M  V30 7 1 7 8
M  V30 8 1 8 9
M  V30 9 2 9 10
M  V30 10 1 10 11
M  V30 11 2 11 12
M  V30 12 1 6 13
M  V30 13 1 13 14
M  V30 14 1 14 15
M  V30 15 1 2 16
M  V30 16 2 16 17
M  V30 17 1 17 18
M  V30 18 1 18 19
M  V30 19 1 19 20
M  V30 20 1 17 21
M  V30 21 2 21 22
M  V30 22 1 22 23
M  V30 23 1 14 4
M  V30 24 1 23 16
M  V30 25 1 12 8
M  V30 26 1 20 18
M  V30 27 1 3 24
M  V30 28 1 4 25 CFG=3
M  V30 29 1 5 26
M  V30 30 1 5 27
M  V30 31 1 6 28
M  V30 32 1 7 29
M  V30 33 1 7 30
M  V30 34 1 9 31
M  V30 35 1 10 32
M  V30 36 1 12 33
M  V30 37 1 13 34
M  V30 38 1 13 35
M  V30 39 1 14 36 CFG=1
M  V30 40 1 15 37
M  V30 41 1 18 38
M  V30 42 1 19 39
M  V30 43 1 19 40
M  V30 44 1 20 41
M  V30 45 1 20 42
M  V30 46 1 21 43
M  V30 47 1 22 44
M  V30 END BOND
M  V30 BEGIN COLLECTION
M  V30 MDLV30/STERAC1 ATOMS=(2 4 14)
M  V30 END COLLECTION
M  V30 END CTAB
M  END
>  <_CXSMILES_Data>  (1079) 
|&1:3,13|

$$$$
OCNT-2316253
     RDKit          3D

 35 38  0  0  0  0  0  0  0  0999 V2000
    0.8520   -2.1127   -1.4937 O   0  0  0  0  0  0  0  0  0  0  0  0
    1.1196   -1.1424   -0.7888 C   0  0  0  0  0  0  0  0  0  0  0  0
    0.1249   -0.2928   -0.3437 N   0  0  0  0  0  0  0  0  0  0  0  0
   -1.2820   -0.5671   -0.5969 C   0  0  0  0  0  0  0  0  0  0  0  0
   -1.7855   -1.6220    0.4042 C   0  0  0  0  0  0  0  0  0  0  0  0
   -3.3055   -1.7110    0.3943 C   0  0  0  0  0  0  0  0  0  0  0  0
   -3.9116   -0.3835    0.8402 C   0  0  0  0  0  0  0  0  0  0  0  0
   -3.3266    0.7892    0.1036 C   0  0  0  0  0  0  0  0  0  0  0  0
   -4.0051    2.0063    0.0927 C   0  0  0  0  0  0  0  0  0  0  0  0
   -3.5671    3.1170   -0.5377 N   0  0  0  0  0  0  0  0  0  0  0  0
   -2.3982    3.0138   -1.1995 C   0  0  0  0  0  0  0  0  0  0  0  0
   -1.6374    1.8569   -1.2398 C   0  0  0  0  0  0  0  0  0  0  0  0
   -2.0883    0.7195   -0.5542 C   0  0  0  0  0  0  0  0  0  0  0  0
    2.4687   -0.7954   -0.3468 C   0  0  0  0  0  0  0  0  0  0  0  0
    2.9296    0.3725    0.2456 C   0  0  0  0  0  0  0  0  0  0  0  0
    4.3079    0.2509    0.5008 C   0  0  0  0  0  0  0  0  0  0  0  0
    4.8886   -0.9134    0.1311 C   0  0  0  0  0  0  0  0  0  0  0  0
    6.2638   -0.8472    0.4648 C   0  0  0  0  0  0  0  0  0  0  0  0
    6.3971    0.3986    1.0264 C   0  0  0  0  0  0  0  0  0  0  0  0
    5.2251    1.0889    1.0610 O   0  0  0  0  0  0  0  0  0  0  0  0
    3.7280   -1.9740   -0.5836 S   0  0  0  0  0  0  0  0  0  0  0  0
    0.3356    0.3726    0.3849 H   0  0  0  0  0  0  0  0  0  0  0  0
   -1.3822   -0.9781   -1.6104 H   0  0  0  0  0  0  0  0  0  0  0  0
   -1.3541   -2.6013    0.1644 H   0  0  0  0  0  0  0  0  0  0  0  0
   -1.4455   -1.3763    1.4198 H   0  0  0  0  0  0  0  0  0  0  0  0
   -3.6538   -1.9661   -0.6146 H   0  0  0  0  0  0  0  0  0  0  0  0
   -3.6409   -2.5113    1.0634 H   0  0  0  0  0  0  0  0  0  0  0  0
   -4.9963   -0.4220    0.6846 H   0  0  0  0  0  0  0  0  0  0  0  0
   -3.7347   -0.2402    1.9134 H   0  0  0  0  0  0  0  0  0  0  0  0
   -4.9571    2.1243    0.6047 H   0  0  0  0  0  0  0  0  0  0  0  0
   -2.0770    3.9134   -1.7167 H   0  0  0  0  0  0  0  0  0  0  0  0
   -0.7101    1.8440   -1.8045 H   0  0  0  0  0  0  0  0  0  0  0  0
    2.3420    1.2502    0.4734 H   0  0  0  0  0  0  0  0  0  0  0  0
    7.0319   -1.5910    0.3162 H   0  0  0  0  0  0  0  0  0  0  0  0
    7.2442    0.9297    1.4404 H   0  0  0  0  0  0  0  0  0  0  0  0
  1  2  2  0
  2  3  1  0
  3  4  1  0
  4  5  1  0
  5  6  1  0
  6  7  1  0
  7  8  1  0
  8  9  2  0
  9 10  1  0
 10 11  2  0
 11 12  1  0
 12 13  2  0
  2 14  1  0
 14 15  2  0
 15 16  1  0
 16 17  2  0
 17 18  1  0
 18 19  2  0
 19 20  1  0
 17 21  1  0
 13  4  1  0
 21 14  1  0
 13  8  1  0
 20 16  1  0
  3 22  1  0
  4 23  1  0
  5 24  1  0
  5 25  1  0
  6 26  1  0
  6 27  1  0
  7 28  1  0
  7 29  1  0
  9 30  1  0
 11 31  1  0
 12 32  1  0
 15 33  1  0
 18 34  1  0
 19 35  1  0
M  END
$$$$
OCNT-2316255
     RDKit          3D

 47 50  0  0  0  0  0  0  0  0999 V2000
   -4.1050    1.0216    2.1491 C   0  0  0  0  0  0  0  0  0  0  0  0
   -3.4993   -0.3483    1.7787 C   0  0  0  0  0  0  0  0  0  0  0  0
   -4.0025   -1.3413    2.8542 C   0  0  0  0  0  0  0  0  0  0  0  0
   -2.0311   -0.3273    1.8229 N   0  0  0  0  0  0  0  0  0  0  0  0
   -1.2450    0.5846    1.1462 C   0  0  0  0  0  0  0  0  0  0  0  0
   -1.6743    1.5579    0.5388 O   0  0  0  0  0  0  0  0  0  0  0  0
    0.2412    0.2382    1.1883 C   0  0  0  0  0  0  0  0  0  0  0  0
    0.5031   -0.9028    0.1942 C   0  0  0  0  0  0  0  0  0  0  0  0
    1.9480   -0.9368   -0.2933 C   0  0  0  0  0  0  0  0  0  0  0  0
    2.3924    0.3442   -0.8557 N   0  0  0  0  0  0  0  0  0  0  0  0
    3.6915    0.5342   -1.3451 C   0  0  0  0  0  0  0  0  0  0  0  0
    4.1255    1.7606   -1.5235 N   0  0  0  0  0  0  0  0  0  0  0  0
    5.3966    1.8562   -1.9680 N   0  0  0  0  0  0  0  0  0  0  0  0
    6.0015    3.0377   -2.1786 N   0  0  0  0  0  0  0  0  0  0  0  0
    7.2345    2.7390   -2.5751 N   0  0  0  0  0  0  0  0  0  0  0  0
    7.4224    1.3755   -2.6396 N   0  0  0  0  0  0  0  0  0  0  0  0
    6.2851    0.8441   -2.2526 C   0  0  0  0  0  0  0  0  0  0  0  0
    5.8251   -0.4734   -2.0929 C   0  0  0  0  0  0  0  0  0  0  0  0
    4.5719   -0.6619   -1.6579 C   0  0  0  0  0  0  0  0  0  0  0  0
    1.5236    1.5034   -0.5742 C   0  0  0  0  0  0  0  0  0  0  0  0
    1.1050    1.4719    0.8912 C   0  0  0  0  0  0  0  0  0  0  0  0
   -3.9227   -0.8227    0.3864 C   0  0  0  0  0  0  0  0  0  0  0  0
   -4.6568   -0.1502   -0.5823 C   0  0  0  0  0  0  0  0  0  0  0  0
   -4.8819   -0.9281   -1.7566 C   0  0  0  0  0  0  0  0  0  0  0  0
   -4.3059   -2.1746   -1.6639 C   0  0  0  0  0  0  0  0  0  0  0  0
   -3.4690   -2.3887   -0.1898 S   0  0  0  0  0  0  0  0  0  0  0  0
   -5.1993    0.9672    2.2072 H   0  0  0  0  0  0  0  0  0  0  0  0
   -3.7364    1.3596    3.1231 H   0  0  0  0  0  0  0  0  0  0  0  0
   -3.8702    1.8069    1.4270 H   0  0  0  0  0  0  0  0  0  0  0  0
   -3.5590   -2.3374    2.7443 H   0  0  0  0  0  0  0  0  0  0  0  0
   -3.7429   -0.9955    3.8630 H   0  0  0  0  0  0  0  0  0  0  0  0
   -5.0916   -1.4587    2.8093 H   0  0  0  0  0  0  0  0  0  0  0  0
   -1.5994   -1.2133    2.0433 H   0  0  0  0  0  0  0  0  0  0  0  0
    0.4755   -0.0941    2.2085 H   0  0  0  0  0  0  0  0  0  0  0  0
    0.2510   -1.8638    0.6596 H   0  0  0  0  0  0  0  0  0  0  0  0
   -0.1622   -0.8081   -0.6763 H   0  0  0  0  0  0  0  0  0  0  0  0
    2.0251   -1.7219   -1.0539 H   0  0  0  0  0  0  0  0  0  0  0  0
    2.6040   -1.2102    0.5422 H   0  0  0  0  0  0  0  0  0  0  0  0
    6.4830   -1.3009   -2.3325 H   0  0  0  0  0  0  0  0  0  0  0  0
    4.1736   -1.6608   -1.5391 H   0  0  0  0  0  0  0  0  0  0  0  0
    0.6474    1.4714   -1.2347 H   0  0  0  0  0  0  0  0  0  0  0  0
    2.0193    2.4587   -0.7734 H   0  0  0  0  0  0  0  0  0  0  0  0
    0.5857    2.4017    1.1530 H   0  0  0  0  0  0  0  0  0  0  0  0
    2.0078    1.4346    1.5174 H   0  0  0  0  0  0  0  0  0  0  0  0
   -5.0267    0.8625   -0.4612 H   0  0  0  0  0  0  0  0  0  0  0  0
   -5.4360   -0.5858   -2.6238 H   0  0  0  0  0  0  0  0  0  0  0  0
   -4.3230   -2.9636   -2.4042 H   0  0  0  0  0  0  0  0  0  0  0  0
  1  2  1  0
  2  3  1  0
  2  4  1  0
  4  5  1  0
  5  6  2  0
  5  7  1  0
  7  8  1  0
  8  9  1  0
  9 10  1  0
 10 11  1  0
 11 12  2  0
 12 13  1  0
 13 14  1  0
 14 15  2  0
 15 16  1  0
 16 17  2  0
 17 18  1  0
 18 19  2  0
 10 20  1  0
 20 21  1  0
  2 22  1  0
 22 23  2  0
 23 24  1  0
 24 25  2  0
 25 26  1  0
 21  7  1  0
 26 22  1  0
 19 11  1  0
 17 13  1  0
  1 27  1  0
  1 28  1  0
  1 29  1  0
  3 30  1  0
  3 31  1  0
  3 32  1  0
  4 33  1  0
  7 34  1  0
  8 35  1  0
  8 36  1  0
  9 37  1  0
  9 38  1  0
 18 39  1  0
 19 40  1  0
 20 41  1  0
 20 42  1  0
 21 43  1  0
 21 44  1  0
 23 45  1  0
 24 46  1  0
 25 47  1  0
M  END
$$$$
OCNT-2316256
     RDKit          3D

 44 46  0  0  0  0  0  0  0  0999 V2000
    7.0334   -0.4841    1.4771 C   0  0  0  0  0  0  0  0  0  0  0  0
    5.8604    0.0058    0.7222 C   0  0  0  0  0  0  0  0  0  0  0  0
    4.5070   -0.1322    0.9305 C   0  0  0  0  0  0  0  0  0  0  0  0
    3.8958    0.5634   -0.1384 C   0  0  0  0  0  0  0  0  0  0  0  0
    2.4367    0.7360   -0.3988 C   0  0  0  0  0  0  0  0  0  0  0  0
    1.7902   -0.4919   -1.0706 C   0  0  0  0  0  0  0  0  0  0  0  0
    2.2832   -0.6945   -2.5038 C   0  0  0  0  0  0  0  0  0  0  0  0
    0.3291   -0.3768   -1.0858 N   0  0  0  0  0  0  0  0  0  0  0  0
   -0.4001   -0.5854    0.0571 C   0  0  0  0  0  0  0  0  0  0  0  0
    0.0736   -0.9445    1.1252 O   0  0  0  0  0  0  0  0  0  0  0  0
   -1.7293   -0.3330   -0.1565 N   0  0  0  0  0  0  0  0  0  0  0  0
   -2.6850   -0.5817    0.9023 C   0  0  0  0  0  0  0  0  0  0  0  0
   -2.6806    0.5250    1.9755 C   0  0  0  0  0  0  0  0  0  0  0  0
   -3.6662    1.6022    1.4966 C   0  0  0  0  0  0  0  0  0  0  0  0
   -4.6489    0.7820    0.7180 C   0  0  0  0  0  0  0  0  0  0  0  0
   -5.9234    1.1180    0.2924 C   0  0  0  0  0  0  0  0  0  0  0  0
   -6.6188    2.6456    0.6606 Cl  0  0  0  0  0  0  0  0  0  0  0  0
   -6.6503    0.1893   -0.4567 C   0  0  0  0  0  0  0  0  0  0  0  0
   -6.0931   -1.0580   -0.7820 C   0  0  0  0  0  0  0  0  0  0  0  0
   -4.8020   -1.3882   -0.3658 C   0  0  0  0  0  0  0  0  0  0  0  0
   -4.0913   -0.4607    0.3831 C   0  0  0  0  0  0  0  0  0  0  0  0
    4.8053    1.1026   -0.9598 N   0  0  0  0  0  0  0  0  0  0  0  0
    5.9822    0.7540   -0.4155 N   0  0  0  0  0  0  0  0  0  0  0  0
    7.6438    0.3540    1.8281 H   0  0  0  0  0  0  0  0  0  0  0  0
    7.6568   -1.1266    0.8471 H   0  0  0  0  0  0  0  0  0  0  0  0
    6.7228   -1.0659    2.3508 H   0  0  0  0  0  0  0  0  0  0  0  0
    4.0186   -0.6594    1.7391 H   0  0  0  0  0  0  0  0  0  0  0  0
    2.2650    1.6291   -1.0143 H   0  0  0  0  0  0  0  0  0  0  0  0
    1.9443    0.9420    0.5603 H   0  0  0  0  0  0  0  0  0  0  0  0
    2.0354   -1.3920   -0.4918 H   0  0  0  0  0  0  0  0  0  0  0  0
    3.3589   -0.8918   -2.5356 H   0  0  0  0  0  0  0  0  0  0  0  0
    1.7769   -1.5482   -2.9684 H   0  0  0  0  0  0  0  0  0  0  0  0
    2.0759    0.1857   -3.1224 H   0  0  0  0  0  0  0  0  0  0  0  0
   -0.0624    0.3158   -1.7087 H   0  0  0  0  0  0  0  0  0  0  0  0
   -2.0399   -0.5324   -1.0959 H   0  0  0  0  0  0  0  0  0  0  0  0
   -2.4986   -1.5639    1.3508 H   0  0  0  0  0  0  0  0  0  0  0  0
   -3.0564    0.1037    2.9190 H   0  0  0  0  0  0  0  0  0  0  0  0
   -1.6898    0.9425    2.1809 H   0  0  0  0  0  0  0  0  0  0  0  0
   -3.1734    2.3254    0.8385 H   0  0  0  0  0  0  0  0  0  0  0  0
   -4.1226    2.1176    2.3462 H   0  0  0  0  0  0  0  0  0  0  0  0
   -7.6549    0.4290   -0.7966 H   0  0  0  0  0  0  0  0  0  0  0  0
   -6.6724   -1.7693   -1.3664 H   0  0  0  0  0  0  0  0  0  0  0  0
   -4.3686   -2.3503   -0.6232 H   0  0  0  0  0  0  0  0  0  0  0  0
    6.8327    1.0621   -0.8748 H   0  0  0  0  0  0  0  0  0  0  0  0
  1  2  1  0
  2  3  2  0
  3  4  1  0
  4  5  1  0
  5  6  1  0
  6  7  1  0
  6  8  1  0
  8  9  1  0
  9 10  2  0
  9 11  1  0
 11 12  1  0
 12 13  1  0
 13 14  1  0
 14 15  1  0
 15 16  2  0
 16 17  1  0
 16 18  1  0
 18 19  2  0
 19 20  1  0
 20 21  2  0
  4 22  2  0
 22 23  1  0
 23  2  1  0
 21 12  1  0
 21 15  1  0
  1 24  1  0
  1 25  1  0
  1 26  1  0
  3 27  1  0
  5 28  1  0
  5 29  1  0
  6 30  1  0
  7 31  1  0
  7 32  1  0
  7 33  1  0
  8 34  1  0
 11 35  1  0
 12 36  1  0
 13 37  1  0
 13 38  1  0
 14 39  1  0
 14 40  1  0
 18 41  1  0
 19 42  1  0
 20 43  1  0
 23 44  1  0
M  END
$$$$
OCNT-2316262
     RDKit          3D

 40 42  0  0  0  0  0  0  0  0999 V2000
   -3.2898   -3.3531   -0.9329 C   0  0  0  0  0  0  0  0  0  0  0  0
   -2.8694   -2.0116   -1.3161 N   0  0  0  0  0  0  0  0  0  0  0  0
   -2.9071   -0.9831   -0.3440 C   0  0  0  0  0  0  0  0  0  0  0  0
   -3.4488   -1.1375    0.9362 C   0  0  0  0  0  0  0  0  0  0  0  0
   -3.5110   -0.0536    1.8196 C   0  0  0  0  0  0  0  0  0  0  0  0
   -3.0420    1.2049    1.4319 C   0  0  0  0  0  0  0  0  0  0  0  0
   -3.1408    2.3149    2.3339 C   0  0  0  0  0  0  0  0  0  0  0  0
   -3.2323    3.2020    3.0764 N   0  0  0  0  0  0  0  0  0  0  0  0
   -2.4811    1.3757    0.1650 C   0  0  0  0  0  0  0  0  0  0  0  0
   -2.3737    0.2830   -0.6970 C   0  0  0  0  0  0  0  0  0  0  0  0
   -1.7791    0.3922   -2.0041 N   0  0  0  0  0  0  0  0  0  0  0  0
   -0.2199    1.0467   -2.1244 S   0  0  0  0  0  0  0  0  0  0  0  0
   -0.2207    2.4009   -1.6179 O   0  0  0  0  0  0  0  0  0  0  0  0
    0.2574    0.7262   -3.4523 O   0  0  0  0  0  0  0  0  0  0  0  0
    0.8456    0.1589   -1.0901 C   0  0  0  0  0  0  0  0  0  0  0  0
    0.7776   -1.1999   -0.8466 C   0  0  0  0  0  0  0  0  0  0  0  0
    1.7945   -1.5198    0.0105 N   0  0  0  0  0  0  0  0  0  0  0  0
    2.5290   -0.3963    0.3189 C   0  0  0  0  0  0  0  0  0  0  0  0
    3.6527   -0.2622    1.1455 C   0  0  0  0  0  0  0  0  0  0  0  0
    4.2254    1.0137    1.2920 C   0  0  0  0  0  0  0  0  0  0  0  0
    5.4506    1.1961    2.1568 C   0  0  0  0  0  0  0  0  0  0  0  0
    6.6065    0.9886    1.4677 F   0  0  0  0  0  0  0  0  0  0  0  0
    5.4882    0.3353    3.2135 F   0  0  0  0  0  0  0  0  0  0  0  0
    5.5521    2.4441    2.6931 F   0  0  0  0  0  0  0  0  0  0  0  0
    3.6782    2.1028    0.6030 C   0  0  0  0  0  0  0  0  0  0  0  0
    2.5549    1.9501   -0.2206 C   0  0  0  0  0  0  0  0  0  0  0  0
    1.9592    0.6799   -0.3677 C   0  0  0  0  0  0  0  0  0  0  0  0
   -4.3514   -3.3790   -0.6661 H   0  0  0  0  0  0  0  0  0  0  0  0
   -3.1452   -4.0261   -1.7840 H   0  0  0  0  0  0  0  0  0  0  0  0
   -2.6865   -3.7375   -0.1040 H   0  0  0  0  0  0  0  0  0  0  0  0
   -3.4162   -1.6944   -2.1219 H   0  0  0  0  0  0  0  0  0  0  0  0
   -3.8519   -2.0882    1.2718 H   0  0  0  0  0  0  0  0  0  0  0  0
   -3.9465   -0.1970    2.8078 H   0  0  0  0  0  0  0  0  0  0  0  0
   -2.1350    2.3606   -0.1391 H   0  0  0  0  0  0  0  0  0  0  0  0
   -1.7620   -0.5182   -2.4705 H   0  0  0  0  0  0  0  0  0  0  0  0
    0.0980   -1.9599   -1.2091 H   0  0  0  0  0  0  0  0  0  0  0  0
    1.9920   -2.4472    0.3627 H   0  0  0  0  0  0  0  0  0  0  0  0
    4.0728   -1.1222    1.6620 H   0  0  0  0  0  0  0  0  0  0  0  0
    4.1233    3.0927    0.7020 H   0  0  0  0  0  0  0  0  0  0  0  0
    2.1522    2.8177   -0.7395 H   0  0  0  0  0  0  0  0  0  0  0  0
  1  2  1  0
  2  3  1  0
  3  4  1  0
  4  5  2  0
  5  6  1  0
  6  7  1  0
  7  8  3  0
  6  9  2  0
  9 10  1  0
 10 11  1  0
 11 12  1  0
 12 13  2  0
 12 14  2  0
 12 15  1  0
 15 16  2  0
 16 17  1  0
 17 18  1  0
 18 19  2  0
 19 20  1  0
 20 21  1  0
 21 22  1  0
 21 23  1  0
 21 24  1  0
 20 25  2  0
 25 26  1  0
 26 27  2  0
 10  3  2  0
 27 15  1  0
 27 18  1  0
  1 28  1  0
  1 29  1  0
  1 30  1  0
  2 31  1  0
  4 32  1  0
  5 33  1  0
  9 34  1  0
 11 35  1  0
 16 36  1  0
 17 37  1  0
 19 38  1  0
 25 39  1  0
 26 40  1  0
M  END
$$$$
OCNT-2316287
     RDKit          3D

 43 47  0  0  0  0  0  0  0  0999 V2000
    6.1691   -0.9765   -0.9940 C   0  0  0  0  0  0  0  0  0  0  0  0
    5.0255   -1.4474   -1.6320 C   0  0  0  0  0  0  0  0  0  0  0  0
    3.7629   -1.0230   -1.2102 C   0  0  0  0  0  0  0  0  0  0  0  0
    3.6252   -0.1092   -0.1516 C   0  0  0  0  0  0  0  0  0  0  0  0
    4.7852    0.3096    0.5153 C   0  0  0  0  0  0  0  0  0  0  0  0
    6.0477   -0.0999    0.0814 C   0  0  0  0  0  0  0  0  0  0  0  0
    4.7775    1.1399    1.6051 O   0  0  0  0  0  0  0  0  0  0  0  0
    3.5248    1.1651    2.2910 C   0  0  0  0  0  0  0  0  0  0  0  0
    2.3964    1.4946    1.3358 C   0  0  0  0  0  0  0  0  0  0  0  0
    2.2536    0.3698    0.2973 C   0  0  0  0  0  0  0  0  0  0  0  0
    1.3660    0.8538   -0.8746 C   0  0  0  0  0  0  0  0  0  0  0  0
    0.0395    1.2671   -0.4259 N   0  0  0  0  0  0  0  0  0  0  0  0
   -0.9389    0.2701   -0.3705 C   0  0  0  0  0  0  0  0  0  0  0  0
   -2.3022    0.5723   -0.5605 C   0  0  0  0  0  0  0  0  0  0  0  0
   -2.9530    1.7616   -0.8520 N   0  0  0  0  0  0  0  0  0  0  0  0
   -4.2278    1.4326   -0.9233 C   0  0  0  0  0  0  0  0  0  0  0  0
   -4.4140    0.1024   -0.6823 N   0  0  0  0  0  0  0  0  0  0  0  0
   -5.7110   -0.5979   -0.7240 C   0  0  0  0  0  0  0  0  0  0  0  0
   -6.2625   -1.3279    0.4777 C   0  0  0  0  0  0  0  0  0  0  0  0
   -6.9376   -0.0810   -0.0088 C   0  0  0  0  0  0  0  0  0  0  0  0
   -3.1994   -0.4817   -0.4680 C   0  0  0  0  0  0  0  0  0  0  0  0
   -2.9178   -1.7731   -0.2235 N   0  0  0  0  0  0  0  0  0  0  0  0
   -1.5933   -1.9500   -0.0626 C   0  0  0  0  0  0  0  0  0  0  0  0
   -0.6102   -1.0254   -0.1252 N   0  0  0  0  0  0  0  0  0  0  0  0
    7.1523   -1.3016   -1.3222 H   0  0  0  0  0  0  0  0  0  0  0  0
    5.1142   -2.1484   -2.4581 H   0  0  0  0  0  0  0  0  0  0  0  0
    2.8879   -1.4244   -1.7160 H   0  0  0  0  0  0  0  0  0  0  0  0
    6.9362    0.2544    0.5969 H   0  0  0  0  0  0  0  0  0  0  0  0
    3.5939    1.9410    3.0608 H   0  0  0  0  0  0  0  0  0  0  0  0
    3.3650    0.2094    2.8060 H   0  0  0  0  0  0  0  0  0  0  0  0
    1.4603    1.6274    1.8895 H   0  0  0  0  0  0  0  0  0  0  0  0
    2.6243    2.4432    0.8318 H   0  0  0  0  0  0  0  0  0  0  0  0
    1.7791   -0.4849    0.7967 H   0  0  0  0  0  0  0  0  0  0  0  0
    1.8463    1.7205   -1.3481 H   0  0  0  0  0  0  0  0  0  0  0  0
    1.2782    0.1026   -1.6684 H   0  0  0  0  0  0  0  0  0  0  0  0
   -0.3396    2.0902   -0.8926 H   0  0  0  0  0  0  0  0  0  0  0  0
   -5.0451    2.1067   -1.1420 H   0  0  0  0  0  0  0  0  0  0  0  0
   -5.8728   -1.0749   -1.6873 H   0  0  0  0  0  0  0  0  0  0  0  0
   -5.7095   -1.2808    1.4097 H   0  0  0  0  0  0  0  0  0  0  0  0
   -6.7540   -2.2792    0.3070 H   0  0  0  0  0  0  0  0  0  0  0  0
   -6.8555    0.8047    0.6113 H   0  0  0  0  0  0  0  0  0  0  0  0
   -7.8960   -0.1848   -0.5055 H   0  0  0  0  0  0  0  0  0  0  0  0
   -1.2710   -2.9669    0.1436 H   0  0  0  0  0  0  0  0  0  0  0  0
  1  2  2  0
  2  3  1  0
  3  4  2  0
  4  5  1  0
  5  6  2  0
  5  7  1  0
  7  8  1  0
  8  9  1  0
  9 10  1  0
 10 11  1  0
 11 12  1  0
 12 13  1  0
 13 14  2  0
 14 15  1  0
 15 16  2  0
 16 17  1  0
 17 18  1  0
 18 19  1  0
 19 20  1  0
 17 21  1  0
 21 22  2  0
 22 23  1  0
 23 24  2  0
  6  1  1  0
 24 13  1  0
 10  4  1  0
 21 14  1  0
 20 18  1  0
  1 25  1  0
  2 26  1  0
  3 27  1  0
  6 28  1  0
  8 29  1  0
  8 30  1  0
  9 31  1  0
  9 32  1  0
 10 33  1  0
 11 34  1  0
 11 35  1  0
 12 36  1  0
 16 37  1  0
 18 38  1  0
 19 39  1  0
 19 40  1  0
 20 41  1  0
 20 42  1  0
 23 43  1  0
M  END
$$$$
OCNT-2316288
     RDKit          3D

 45 48  0  0  0  0  0  0  0  0999 V2000
    5.7398    0.4501   -1.4782 C   0  0  0  0  0  0  0  0  0  0  0  0
    4.5549    1.2403   -2.0048 C   0  0  0  0  0  0  0  0  0  0  0  0
    3.4714    0.3843   -2.4332 N   0  0  0  0  0  0  0  0  0  0  0  0
    2.4040   -0.0480   -1.7046 C   0  0  0  0  0  0  0  0  0  0  0  0
    1.6591   -0.7819   -2.6052 C   0  0  0  0  0  0  0  0  0  0  0  0
    0.3906   -1.5323   -2.4511 C   0  0  0  0  0  0  0  0  0  0  0  0
   -0.5905   -0.8675   -1.5015 C   0  0  0  0  0  0  0  0  0  0  0  0
   -1.4459   -0.0866   -1.9058 O   0  0  0  0  0  0  0  0  0  0  0  0
   -0.4282   -1.2735   -0.1795 N   0  0  0  0  0  0  0  0  0  0  0  0
   -1.3395   -0.9250    0.8115 C   0  0  0  0  0  0  0  0  0  0  0  0
   -1.7350   -1.7335    1.8443 C   0  0  0  0  0  0  0  0  0  0  0  0
   -1.5075   -3.0692    2.4241 C   0  0  0  0  0  0  0  0  0  0  0  0
   -2.8238   -3.2992    3.2426 C   0  0  0  0  0  0  0  0  0  0  0  0
   -3.4696   -1.8938    3.4837 C   0  0  0  0  0  0  0  0  0  0  0  0
   -2.8186   -1.0946    2.4305 C   0  0  0  0  0  0  0  0  0  0  0  0
   -3.1176    0.0709    1.8873 N   0  0  0  0  0  0  0  0  0  0  0  0
   -2.0827    0.2725    0.9866 N   0  0  0  0  0  0  0  0  0  0  0  0
   -1.8110    1.6082    0.5612 C   0  0  0  0  0  0  0  0  0  0  0  0
   -2.8189    2.5808    0.6672 C   0  0  0  0  0  0  0  0  0  0  0  0
   -2.5691    3.9028    0.2909 C   0  0  0  0  0  0  0  0  0  0  0  0
   -1.3081    4.2676   -0.1766 C   0  0  0  0  0  0  0  0  0  0  0  0
   -0.2951    3.3137   -0.2625 C   0  0  0  0  0  0  0  0  0  0  0  0
   -0.5415    1.9897    0.1129 C   0  0  0  0  0  0  0  0  0  0  0  0
    2.3228   -0.8057   -3.8071 N   0  0  0  0  0  0  0  0  0  0  0  0
    3.4307   -0.0876   -3.6878 N   0  0  0  0  0  0  0  0  0  0  0  0
    6.1446   -0.2172   -2.2474 H   0  0  0  0  0  0  0  0  0  0  0  0
    6.5379    1.1288   -1.1594 H   0  0  0  0  0  0  0  0  0  0  0  0
    5.4519   -0.1667   -0.6201 H   0  0  0  0  0  0  0  0  0  0  0  0
    4.1639    1.9076   -1.2287 H   0  0  0  0  0  0  0  0  0  0  0  0
    4.8512    1.8593   -2.8588 H   0  0  0  0  0  0  0  0  0  0  0  0
    2.2733    0.2019   -0.6628 H   0  0  0  0  0  0  0  0  0  0  0  0
   -0.1085   -1.6316   -3.4226 H   0  0  0  0  0  0  0  0  0  0  0  0
    0.6052   -2.5522   -2.1107 H   0  0  0  0  0  0  0  0  0  0  0  0
    0.0645   -2.1475   -0.0329 H   0  0  0  0  0  0  0  0  0  0  0  0
   -0.6410   -3.0571    3.0929 H   0  0  0  0  0  0  0  0  0  0  0  0
   -1.3725   -3.8480    1.6684 H   0  0  0  0  0  0  0  0  0  0  0  0
   -3.5124   -3.9077    2.6417 H   0  0  0  0  0  0  0  0  0  0  0  0
   -2.6409   -3.8375    4.1781 H   0  0  0  0  0  0  0  0  0  0  0  0
   -3.2054   -1.5164    4.4764 H   0  0  0  0  0  0  0  0  0  0  0  0
   -4.5572   -1.9353    3.3841 H   0  0  0  0  0  0  0  0  0  0  0  0
   -3.8114    2.3165    1.0283 H   0  0  0  0  0  0  0  0  0  0  0  0
   -3.3614    4.6431    0.3602 H   0  0  0  0  0  0  0  0  0  0  0  0
   -1.1161    5.2951   -0.4735 H   0  0  0  0  0  0  0  0  0  0  0  0
    0.6889    3.6012   -0.6226 H   0  0  0  0  0  0  0  0  0  0  0  0
    0.2748    1.2809    0.0645 H   0  0  0  0  0  0  0  0  0  0  0  0
  1  2  1  0
  2  3  1  0
  3  4  1  0
  4  5  2  0
  5  6  1  0
  6  7  1  0
  7  8  2  0
  7  9  1  0
  9 10  1  0
 10 11  2  0
 11 12  1  0
 12 13  1  0
 13 14  1  0
 14 15  1  0
 15 16  2  0
 16 17  1  0
 17 18  1  0
 18 19  2  0
 19 20  1  0
 20 21  2  0
 21 22  1  0
 22 23  2  0
  5 24  1  0
 24 25  2  0
 25  3  1  0
 17 10  1  0
 23 18  1  0
 15 11  1  0
  1 26  1  0
  1 27  1  0
  1 28  1  0
  2 29  1  0
  2 30  1  0
  4 31  1  0
  6 32  1  0
  6 33  1  0
  9 34  1  0
 12 35  1  0
 12 36  1  0
 13 37  1  0
 13 38  1  0
 14 39  1  0
 14 40  1  0
 19 41  1  0
 20 42  1  0
 21 43  1  0
 22 44  1  0
 23 45  1  0
M  END
$$$$
OCNT-2316296
     RDKit          3D

 36 39  0  0  0  0  0  0  0  0999 V2000
   -6.8918   -0.8997    0.2650 O   0  0  0  0  0  0  0  0  0  0  0  0
   -5.6807   -0.7338    0.1623 C   0  0  0  0  0  0  0  0  0  0  0  0
   -4.8316   -1.5476   -0.7845 C   0  0  0  0  0  0  0  0  0  0  0  0
   -3.3706   -1.5218   -0.3663 C   0  0  0  0  0  0  0  0  0  0  0  0
   -2.8789   -0.0729   -0.2915 C   0  0  0  0  0  0  0  0  0  0  0  0
   -1.4963    0.0295    0.1406 N   0  0  0  0  0  0  0  0  0  0  0  0
   -0.5099    0.8107   -0.3883 C   0  0  0  0  0  0  0  0  0  0  0  0
    0.5998    0.4953    0.3652 C   0  0  0  0  0  0  0  0  0  0  0  0
    1.9214    1.0684    0.2186 C   0  0  0  0  0  0  0  0  0  0  0  0
    2.0455    2.4548    0.1168 C   0  0  0  0  0  0  0  0  0  0  0  0
    3.2149    3.1157   -0.0290 N   0  0  0  0  0  0  0  0  0  0  0  0
    4.3281    2.3525   -0.0611 C   0  0  0  0  0  0  0  0  0  0  0  0
    4.3425    0.9594    0.0352 C   0  0  0  0  0  0  0  0  0  0  0  0
    5.5496    0.2383   -0.0131 C   0  0  0  0  0  0  0  0  0  0  0  0
    5.5526   -1.1519    0.0740 C   0  0  0  0  0  0  0  0  0  0  0  0
    4.3512   -1.8353    0.2079 C   0  0  0  0  0  0  0  0  0  0  0  0
    3.1462   -1.1286    0.2573 C   0  0  0  0  0  0  0  0  0  0  0  0
    3.1061    0.2863    0.1785 C   0  0  0  0  0  0  0  0  0  0  0  0
    0.2589   -0.4510    1.2942 N   0  0  0  0  0  0  0  0  0  0  0  0
   -1.0279   -0.7341    1.1443 N   0  0  0  0  0  0  0  0  0  0  0  0
   -3.7773    0.7652    0.6023 C   0  0  0  0  0  0  0  0  0  0  0  0
   -3.4634    1.8767    1.0242 O   0  0  0  0  0  0  0  0  0  0  0  0
   -5.0413    0.2739    0.8399 N   0  0  0  0  0  0  0  0  0  0  0  0
   -4.9572   -1.1418   -1.7942 H   0  0  0  0  0  0  0  0  0  0  0  0
   -5.1961   -2.5803   -0.7770 H   0  0  0  0  0  0  0  0  0  0  0  0
   -2.7665   -2.0934   -1.0809 H   0  0  0  0  0  0  0  0  0  0  0  0
   -3.2710   -2.0180    0.6082 H   0  0  0  0  0  0  0  0  0  0  0  0
   -2.9294    0.3710   -1.2947 H   0  0  0  0  0  0  0  0  0  0  0  0
   -0.6755    1.4941   -1.2082 H   0  0  0  0  0  0  0  0  0  0  0  0
    1.1739    3.1040    0.1618 H   0  0  0  0  0  0  0  0  0  0  0  0
    5.2511    2.9167   -0.1727 H   0  0  0  0  0  0  0  0  0  0  0  0
    6.4991    0.7592   -0.1196 H   0  0  0  0  0  0  0  0  0  0  0  0
    6.4908   -1.6995    0.0378 H   0  0  0  0  0  0  0  0  0  0  0  0
    4.3446   -2.9202    0.2777 H   0  0  0  0  0  0  0  0  0  0  0  0
    2.2285   -1.7042    0.3632 H   0  0  0  0  0  0  0  0  0  0  0  0
   -5.6395    0.8625    1.4058 H   0  0  0  0  0  0  0  0  0  0  0  0
  1  2  2  0
  2  3  1  0
  3  4  1  0
  4  5  1  0
  5  6  1  0
  6  7  1  0
  7  8  2  0
  8  9  1  0
  9 10  1  0
 10 11  2  0
 11 12  1  0
 12 13  2  0
 13 14  1  0
 14 15  2  0
 15 16  1  0
 16 17  2  0
 17 18  1  0
  8 19  1  0
 19 20  2  0
  5 21  1  0
 21 22  2  0
 21 23  1  0
 23  2  1  0
 20  6  1  0
 18  9  2  0
 18 13  1  0
  3 24  1  0
  3 25  1  0
  4 26  1  0
  4 27  1  0
  5 28  1  0
  7 29  1  0
 10 30  1  0
 12 31  1  0
 14 32  1  0
 15 33  1  0
 16 34  1  0
 17 35  1  0
 23 36  1  0
M  END
$$$$
OCNT-2316305
     RDKit          3D

 45 46  0  0  0  0  0  0  0  0999 V2000
    5.6731   -1.3594   -1.1384 C   0  0  0  0  0  0  0  0  0  0  0  0
    4.1929   -1.1055   -0.9063 C   0  0  0  0  0  0  0  0  0  0  0  0
    3.9702    0.0359    0.0848 C   0  0  0  0  0  0  0  0  0  0  0  0
    2.5500    0.2845    0.3106 N   0  0  0  0  0  0  0  0  0  0  0  0
    1.8551   -0.4920    1.3188 C   0  0  0  0  0  0  0  0  0  0  0  0
    0.4375   -0.8298    0.8723 C   0  0  0  0  0  0  0  0  0  0  0  0
   -0.3436    0.3819    0.6167 N   0  0  0  0  0  0  0  0  0  0  0  0
   -1.6919    0.4979    0.9514 C   0  0  0  0  0  0  0  0  0  0  0  0
   -2.3042    1.5623    0.8790 O   0  0  0  0  0  0  0  0  0  0  0  0
   -2.3947   -0.7506    1.4626 C   0  0  0  0  0  0  0  0  0  0  0  0
   -3.9157   -0.6218    1.4137 C   0  0  0  0  0  0  0  0  0  0  0  0
   -4.4459   -0.8708    0.0860 N   0  0  0  0  0  0  0  0  0  0  0  0
   -4.6507    0.0543   -0.8969 C   0  0  0  0  0  0  0  0  0  0  0  0
   -5.1496   -0.6621   -1.9594 C   0  0  0  0  0  0  0  0  0  0  0  0
   -5.2588   -1.9919   -1.6413 N   0  0  0  0  0  0  0  0  0  0  0  0
   -4.8384   -2.0855   -0.4002 C   0  0  0  0  0  0  0  0  0  0  0  0
    0.3692    1.5088   -0.0817 C   0  0  0  0  0  0  0  0  0  0  0  0
    0.4784    2.7307    0.8526 C   0  0  0  0  0  0  0  0  0  0  0  0
   -0.3647    1.8980   -1.3829 C   0  0  0  0  0  0  0  0  0  0  0  0
    1.8547    1.1786   -0.4962 C   0  0  0  0  0  0  0  0  0  0  0  0
    2.4247    1.7810   -1.4089 O   0  0  0  0  0  0  0  0  0  0  0  0
    6.1752   -1.6317   -0.2045 H   0  0  0  0  0  0  0  0  0  0  0  0
    5.8102   -2.1799   -1.8496 H   0  0  0  0  0  0  0  0  0  0  0  0
    6.1644   -0.4704   -1.5467 H   0  0  0  0  0  0  0  0  0  0  0  0
    3.7227   -2.0235   -0.5350 H   0  0  0  0  0  0  0  0  0  0  0  0
    3.7110   -0.8705   -1.8628 H   0  0  0  0  0  0  0  0  0  0  0  0
    4.4389   -0.1833    1.0512 H   0  0  0  0  0  0  0  0  0  0  0  0
    4.4360    0.9511   -0.2990 H   0  0  0  0  0  0  0  0  0  0  0  0
    2.4072   -1.4194    1.5058 H   0  0  0  0  0  0  0  0  0  0  0  0
    1.8494    0.0963    2.2431 H   0  0  0  0  0  0  0  0  0  0  0  0
   -0.0285   -1.4451    1.6452 H   0  0  0  0  0  0  0  0  0  0  0  0
    0.4499   -1.4059   -0.0605 H   0  0  0  0  0  0  0  0  0  0  0  0
   -2.0817   -1.6243    0.8812 H   0  0  0  0  0  0  0  0  0  0  0  0
   -2.0872   -0.8858    2.5060 H   0  0  0  0  0  0  0  0  0  0  0  0
   -4.2752    0.3599    1.7408 H   0  0  0  0  0  0  0  0  0  0  0  0
   -4.3685   -1.3691    2.0764 H   0  0  0  0  0  0  0  0  0  0  0  0
   -4.4272    1.1054   -0.7700 H   0  0  0  0  0  0  0  0  0  0  0  0
   -5.4356   -0.2908   -2.9349 H   0  0  0  0  0  0  0  0  0  0  0  0
   -4.7953   -2.9976    0.1805 H   0  0  0  0  0  0  0  0  0  0  0  0
   -0.4954    3.1757    1.0756 H   0  0  0  0  0  0  0  0  0  0  0  0
    1.0972    3.5180    0.4059 H   0  0  0  0  0  0  0  0  0  0  0  0
    0.9408    2.4559    1.8075 H   0  0  0  0  0  0  0  0  0  0  0  0
    0.1615    2.6926   -1.9243 H   0  0  0  0  0  0  0  0  0  0  0  0
   -1.3796    2.2638   -1.2065 H   0  0  0  0  0  0  0  0  0  0  0  0
   -0.4377    1.0344   -2.0544 H   0  0  0  0  0  0  0  0  0  0  0  0
  1  2  1  0
  2  3  1  0
  3  4  1  0
  4  5  1  0
  5  6  1  0
  6  7  1  0
  7  8  1  0
  8  9  2  0
  8 10  1  0
 10 11  1  0
 11 12  1  0
 12 13  1  0
 13 14  2  0
 14 15  1  0
 15 16  2  0
  7 17  1  0
 17 18  1  0
 17 19  1  0
 17 20  1  0
 20 21  2  0
 20  4  1  0
 16 12  1  0
  1 22  1  0
  1 23  1  0
  1 24  1  0
  2 25  1  0
  2 26  1  0
  3 27  1  0
  3 28  1  0
  5 29  1  0
  5 30  1  0
  6 31  1  0
  6 32  1  0
 10 33  1  0
 10 34  1  0
 11 35  1  0
 11 36  1  0
 13 37  1  0
 14 38  1  0
 16 39  1  0
 18 40  1  0
 18 41  1  0
 18 42  1  0
 19 43  1  0
 19 44  1  0
 19 45  1  0
M  END
$$$$
OCNT-2316334
     RDKit          3D

 40 42  0  0  0  0  0  0  0  0999 V2000
    1.7182   -1.9056   -0.7832 C   0  0  0  0  0  0  0  0  0  0  0  0
    1.8487   -0.4505   -0.8543 N   0  0  0  0  0  0  0  0  0  0  0  0
    0.9821    0.1150   -1.9164 C   0  0  0  0  0  0  0  0  0  0  0  0
   -0.5008   -0.1600   -1.7904 C   0  0  0  0  0  0  0  0  0  0  0  0
   -1.2581    0.2323   -0.7856 N   0  0  0  0  0  0  0  0  0  0  0  0
   -2.5626   -0.1934   -0.9649 C   0  0  0  0  0  0  0  0  0  0  0  0
   -3.5883    0.0893    0.0244 C   0  0  0  0  0  0  0  0  0  0  0  0
   -3.2992    0.0124    1.3907 C   0  0  0  0  0  0  0  0  0  0  0  0
   -2.0859   -0.3682    1.8197 F   0  0  0  0  0  0  0  0  0  0  0  0
   -4.2677    0.2950    2.3569 C   0  0  0  0  0  0  0  0  0  0  0  0
   -5.5540    0.6631    1.9687 C   0  0  0  0  0  0  0  0  0  0  0  0
   -5.8633    0.7434    0.6129 C   0  0  0  0  0  0  0  0  0  0  0  0
   -4.8862    0.4585   -0.3436 C   0  0  0  0  0  0  0  0  0  0  0  0
   -5.2310    0.5590   -1.6371 F   0  0  0  0  0  0  0  0  0  0  0  0
   -2.7846   -0.8947   -2.1338 C   0  0  0  0  0  0  0  0  0  0  0  0
   -1.3263   -1.0356   -3.0230 S   0  0  0  0  0  0  0  0  0  0  0  0
    1.6120    0.1949    0.4570 C   0  0  0  0  0  0  0  0  0  0  0  0
    2.9022    0.6087    1.2135 C   0  0  0  0  0  0  0  0  0  0  0  0
    2.4977    1.3487    2.3989 O   0  0  0  0  0  0  0  0  0  0  0  0
    3.9896   -0.4716    1.5098 C   0  0  0  0  0  0  0  0  0  0  0  0
    4.7833    0.0298    0.2930 C   0  0  0  0  0  0  0  0  0  0  0  0
    3.9842    1.3429    0.3573 C   0  0  0  0  0  0  0  0  0  0  0  0
    1.9073   -2.3561   -1.7643 H   0  0  0  0  0  0  0  0  0  0  0  0
    2.4588   -2.3369   -0.1056 H   0  0  0  0  0  0  0  0  0  0  0  0
    0.7279   -2.2277   -0.4423 H   0  0  0  0  0  0  0  0  0  0  0  0
    1.3530   -0.2521   -2.8824 H   0  0  0  0  0  0  0  0  0  0  0  0
    1.1278    1.2026   -1.9580 H   0  0  0  0  0  0  0  0  0  0  0  0
   -4.0047    0.2220    3.4084 H   0  0  0  0  0  0  0  0  0  0  0  0
   -6.3092    0.8859    2.7183 H   0  0  0  0  0  0  0  0  0  0  0  0
   -6.8593    1.0311    0.2889 H   0  0  0  0  0  0  0  0  0  0  0  0
   -3.7036   -1.3267   -2.5037 H   0  0  0  0  0  0  0  0  0  0  0  0
    1.0379    1.1209    0.3167 H   0  0  0  0  0  0  0  0  0  0  0  0
    0.9928   -0.4398    1.1047 H   0  0  0  0  0  0  0  0  0  0  0  0
    3.3246    1.6339    2.8222 H   0  0  0  0  0  0  0  0  0  0  0  0
    4.5176   -0.3152    2.4590 H   0  0  0  0  0  0  0  0  0  0  0  0
    3.6745   -1.5159    1.4786 H   0  0  0  0  0  0  0  0  0  0  0  0
    5.8614    0.1300    0.4461 H   0  0  0  0  0  0  0  0  0  0  0  0
    4.6161   -0.5516   -0.6196 H   0  0  0  0  0  0  0  0  0  0  0  0
    4.5072    2.1434    0.8942 H   0  0  0  0  0  0  0  0  0  0  0  0
    3.6599    1.7388   -0.6093 H   0  0  0  0  0  0  0  0  0  0  0  0
  1  2  1  0
  2  3  1  0
  3  4  1  0
  4  5  2  0
  5  6  1  0
  6  7  1  0
  7  8  2  0
  8  9  1  0
  8 10  1  0
 10 11  2  0
 11 12  1  0
 12 13  2  0
 13 14  1  0
  6 15  2  0
 15 16  1  0
  2 17  1  0
 17 18  1  0
 18 19  1  0
 18 20  1  0
 20 21  1  0
 21 22  1  0
 16  4  1  0
 22 18  1  0
 13  7  1  0
  1 23  1  0
  1 24  1  0
  1 25  1  0
  3 26  1  0
  3 27  1  0
 10 28  1  0
 11 29  1  0
 12 30  1  0
 15 31  1  0
 17 32  1  0
 17 33  1  0
 19 34  1  0
 20 35  1  0
 20 36  1  0
 21 37  1  0
 21 38  1  0
 22 39  1  0
 22 40  1  0
M  END
$$$$
OCNT-2316345
     RDKit          3D

 38 41  0  0  0  0  0  0  0  0999 V2000
   -4.6347   -2.0192   -0.5633 C   0  0  0  0  0  0  0  0  0  0  0  0
   -3.1950   -1.9028   -0.6373 N   0  0  0  0  0  0  0  0  0  0  0  0
   -2.5762   -2.5952   -1.6175 N   0  0  0  0  0  0  0  0  0  0  0  0
   -1.3089   -2.2002   -1.5415 C   0  0  0  0  0  0  0  0  0  0  0  0
   -1.0921   -1.2312   -0.5356 C   0  0  0  0  0  0  0  0  0  0  0  0
    0.1875   -0.6461   -0.1627 C   0  0  0  0  0  0  0  0  0  0  0  0
    0.5284   -0.5700    1.0109 O   0  0  0  0  0  0  0  0  0  0  0  0
    0.9137   -0.2162   -1.2551 N   0  0  0  0  0  0  0  0  0  0  0  0
    2.1907    0.3841   -1.2899 C   0  0  0  0  0  0  0  0  0  0  0  0
    2.6789    0.7486   -2.5603 C   0  0  0  0  0  0  0  0  0  0  0  0
    3.9266    1.3453   -2.7320 C   0  0  0  0  0  0  0  0  0  0  0  0
    4.7419    1.6030   -1.6311 C   0  0  0  0  0  0  0  0  0  0  0  0
    4.2918    1.2551   -0.3442 C   0  0  0  0  0  0  0  0  0  0  0  0
    3.0336    0.6566   -0.1969 C   0  0  0  0  0  0  0  0  0  0  0  0
    2.8764    0.4399    1.1567 N   0  0  0  0  0  0  0  0  0  0  0  0
    3.9699    0.8699    1.8565 C   0  0  0  0  0  0  0  0  0  0  0  0
    4.8671    1.3812    0.9515 C   0  0  0  0  0  0  0  0  0  0  0  0
   -2.3428   -1.0687    0.0512 C   0  0  0  0  0  0  0  0  0  0  0  0
   -2.7174   -0.2153    1.0976 N   0  0  0  0  0  0  0  0  0  0  0  0
   -2.0908    0.9632    1.4620 C   0  0  0  0  0  0  0  0  0  0  0  0
   -2.7658    1.5475    2.5105 C   0  0  0  0  0  0  0  0  0  0  0  0
   -3.8443    0.7034    2.8279 C   0  0  0  0  0  0  0  0  0  0  0  0
   -3.7893   -0.3654    1.9605 C   0  0  0  0  0  0  0  0  0  0  0  0
   -4.8824   -2.6987    0.2548 H   0  0  0  0  0  0  0  0  0  0  0  0
   -5.0122   -2.4305   -1.5044 H   0  0  0  0  0  0  0  0  0  0  0  0
   -5.0723   -1.0297   -0.4167 H   0  0  0  0  0  0  0  0  0  0  0  0
   -0.5859   -2.6479   -2.2125 H   0  0  0  0  0  0  0  0  0  0  0  0
    0.4566   -0.3019   -2.1539 H   0  0  0  0  0  0  0  0  0  0  0  0
    2.0795    0.5669   -3.4501 H   0  0  0  0  0  0  0  0  0  0  0  0
    4.2690    1.6122   -3.7286 H   0  0  0  0  0  0  0  0  0  0  0  0
    5.7144    2.0678   -1.7654 H   0  0  0  0  0  0  0  0  0  0  0  0
    2.0442    0.0189    1.5592 H   0  0  0  0  0  0  0  0  0  0  0  0
    4.0095    0.7741    2.9330 H   0  0  0  0  0  0  0  0  0  0  0  0
    5.8343    1.8028    1.1909 H   0  0  0  0  0  0  0  0  0  0  0  0
   -1.2217    1.3227    0.9308 H   0  0  0  0  0  0  0  0  0  0  0  0
   -2.4975    2.4790    2.9923 H   0  0  0  0  0  0  0  0  0  0  0  0
   -4.5726    0.8426    3.6166 H   0  0  0  0  0  0  0  0  0  0  0  0
   -4.4119   -1.2458    1.9363 H   0  0  0  0  0  0  0  0  0  0  0  0
  1  2  1  0
  2  3  1  0
  3  4  2  0
  4  5  1  0
  5  6  1  0
  6  7  2  0
  6  8  1  0
  8  9  1  0
  9 10  1  0
 10 11  2  0
 11 12  1  0
 12 13  2  0
 13 14  1  0
 14 15  1  0
 15 16  1  0
 16 17  2  0
  5 18  2  0
 18 19  1  0
 19 20  1  0
 20 21  2  0
 21 22  1  0
 22 23  2  0
 18  2  1  0
 23 19  1  0
 14  9  2  0
 17 13  1  0
  1 24  1  0
  1 25  1  0
  1 26  1  0
  4 27  1  0
  8 28  1  0
 10 29  1  0
 11 30  1  0
 12 31  1  0
 15 32  1  0
 16 33  1  0
 17 34  1  0
 20 35  1  0
 21 36  1  0
 22 37  1  0
 23 38  1  0
M  END
$$$$
OCNT-2316348
     RDKit          3D

 61 63  0  0  0  0  0  0  0  0999 V2000
    1.8322   -2.4657   -0.6975 C   0  0  0  0  0  0  0  0  0  0  0  0
    2.9875   -1.5118   -0.9748 C   0  0  0  0  0  0  0  0  0  0  0  0
    3.3050   -1.6845   -2.3656 O   0  0  0  0  0  0  0  0  0  0  0  0
    2.6989   -0.0207   -0.6773 C   0  0  0  0  0  0  0  0  0  0  0  0
    3.9360    0.7335   -0.4396 N   0  0  0  0  0  0  0  0  0  0  0  0
    4.8472    1.0095   -1.4198 C   0  0  0  0  0  0  0  0  0  0  0  0
    4.7173    0.6209   -2.5744 O   0  0  0  0  0  0  0  0  0  0  0  0
    6.0439    1.8025   -1.0317 C   0  0  0  0  0  0  0  0  0  0  0  0
    5.9627    2.9413   -0.0423 C   0  0  0  0  0  0  0  0  0  0  0  0
    6.6947    1.6829    0.3266 C   0  0  0  0  0  0  0  0  0  0  0  0
    1.8320    0.1967    0.5739 C   0  0  0  0  0  0  0  0  0  0  0  0
    2.3283    0.4130    1.6788 O   0  0  0  0  0  0  0  0  0  0  0  0
    0.4730    0.1169    0.3567 N   0  0  0  0  0  0  0  0  0  0  0  0
   -0.4770    0.4225    1.4114 C   0  0  0  0  0  0  0  0  0  0  0  0
   -1.8966   -0.2224    1.2257 C   0  0  0  0  0  0  0  0  0  0  0  0
   -2.6058    0.1642   -0.0393 N   0  0  0  0  0  0  0  0  0  0  0  0
   -2.3524   -0.6403   -1.2432 C   0  0  0  0  0  0  0  0  0  0  0  0
   -3.3797   -0.3369   -2.3394 C   0  0  0  0  0  0  0  0  0  0  0  0
   -3.4073    1.1435   -2.6858 C   0  0  0  0  0  0  0  0  0  0  0  0
   -3.5997    1.9705   -1.4234 C   0  0  0  0  0  0  0  0  0  0  0  0
   -2.5693    1.6023   -0.3546 C   0  0  0  0  0  0  0  0  0  0  0  0
   -2.7601    0.2678    2.4389 C   0  0  0  0  0  0  0  0  0  0  0  0
   -4.1179   -0.4279    2.5396 C   0  0  0  0  0  0  0  0  0  0  0  0
   -3.9498   -1.9363    2.6711 C   0  0  0  0  0  0  0  0  0  0  0  0
   -3.0953   -2.5054    1.5462 C   0  0  0  0  0  0  0  0  0  0  0  0
   -1.7570   -1.7684    1.4134 C   0  0  0  0  0  0  0  0  0  0  0  0
    0.9423   -2.1842   -1.2695 H   0  0  0  0  0  0  0  0  0  0  0  0
    2.0947   -3.4802   -1.0167 H   0  0  0  0  0  0  0  0  0  0  0  0
    1.5813   -2.5052    0.3656 H   0  0  0  0  0  0  0  0  0  0  0  0
    3.8593   -1.8478   -0.4015 H   0  0  0  0  0  0  0  0  0  0  0  0
    3.9305   -0.9692   -2.6203 H   0  0  0  0  0  0  0  0  0  0  0  0
    2.2094    0.4480   -1.5398 H   0  0  0  0  0  0  0  0  0  0  0  0
    4.1094    1.0273    0.5162 H   0  0  0  0  0  0  0  0  0  0  0  0
    6.7253    1.9521   -1.8665 H   0  0  0  0  0  0  0  0  0  0  0  0
    5.0208    3.1523    0.4489 H   0  0  0  0  0  0  0  0  0  0  0  0
    6.5507    3.8288   -0.2509 H   0  0  0  0  0  0  0  0  0  0  0  0
    7.7784    1.7201    0.3684 H   0  0  0  0  0  0  0  0  0  0  0  0
    6.2585    1.0321    1.0754 H   0  0  0  0  0  0  0  0  0  0  0  0
    0.1525    0.2618   -0.5905 H   0  0  0  0  0  0  0  0  0  0  0  0
   -0.5470    1.5160    1.4662 H   0  0  0  0  0  0  0  0  0  0  0  0
   -0.0457    0.0998    2.3675 H   0  0  0  0  0  0  0  0  0  0  0  0
   -2.4297   -1.7123   -1.0507 H   0  0  0  0  0  0  0  0  0  0  0  0
   -1.3499   -0.4633   -1.6430 H   0  0  0  0  0  0  0  0  0  0  0  0
   -3.1443   -0.9200   -3.2364 H   0  0  0  0  0  0  0  0  0  0  0  0
   -4.3756   -0.6538   -2.0050 H   0  0  0  0  0  0  0  0  0  0  0  0
   -4.2131    1.3480   -3.3983 H   0  0  0  0  0  0  0  0  0  0  0  0
   -2.4659    1.4259   -3.1720 H   0  0  0  0  0  0  0  0  0  0  0  0
   -4.6112    1.8104   -1.0287 H   0  0  0  0  0  0  0  0  0  0  0  0
   -3.5162    3.0366   -1.6647 H   0  0  0  0  0  0  0  0  0  0  0  0
   -2.7928    2.2134    0.5240 H   0  0  0  0  0  0  0  0  0  0  0  0
   -1.5720    1.8971   -0.7031 H   0  0  0  0  0  0  0  0  0  0  0  0
   -2.2112    0.0785    3.3724 H   0  0  0  0  0  0  0  0  0  0  0  0
   -2.9145    1.3516    2.4142 H   0  0  0  0  0  0  0  0  0  0  0  0
   -4.7318   -0.1939    1.6623 H   0  0  0  0  0  0  0  0  0  0  0  0
   -4.6589   -0.0463    3.4129 H   0  0  0  0  0  0  0  0  0  0  0  0
   -4.9325   -2.4205    2.6735 H   0  0  0  0  0  0  0  0  0  0  0  0
   -3.4797   -2.1670    3.6347 H   0  0  0  0  0  0  0  0  0  0  0  0
   -2.9056   -3.5674    1.7373 H   0  0  0  0  0  0  0  0  0  0  0  0
   -3.6602   -2.4563    0.6101 H   0  0  0  0  0  0  0  0  0  0  0  0
   -1.1663   -2.2151    0.6060 H   0  0  0  0  0  0  0  0  0  0  0  0
   -1.1801   -1.9648    2.3282 H   0  0  0  0  0  0  0  0  0  0  0  0
  1  2  1  0
  2  3  1  0
  2  4  1  0
  4  5  1  0
  5  6  1  0
  6  7  2  0
  6  8  1  0
  8  9  1  0
  9 10  1  0
  4 11  1  0
 11 12  2  0
 11 13  1  0
 13 14  1  0
 14 15  1  0
 15 16  1  0
 16 17  1  0
 17 18  1  0
 18 19  1  0
 19 20  1  0
 20 21  1  0
 15 22  1  0
 22 23  1  0
 23 24  1  0
 24 25  1  0
 25 26  1  0
 10  8  1  0
 26 15  1  0
 21 16  1  0
  1 27  1  0
  1 28  1  0
  1 29  1  0
  2 30  1  0
  3 31  1  0
  4 32  1  0
  5 33  1  0
  8 34  1  0
  9 35  1  0
  9 36  1  0
 10 37  1  0
 10 38  1  0
 13 39  1  0
 14 40  1  0
 14 41  1  0
 17 42  1  0
 17 43  1  0
 18 44  1  0
 18 45  1  0
 19 46  1  0
 19 47  1  0
 20 48  1  0
 20 49  1  0
 21 50  1  0
 21 51  1  0
 22 52  1  0
 22 53  1  0
 23 54  1  0
 23 55  1  0
 24 56  1  0
 24 57  1  0
 25 58  1  0
 25 59  1  0
 26 60  1  0
 26 61  1  0
M  END
$$$$
OCNT-2316349
     RDKit          3D

 45 47  0  0  0  0  0  0  0  0999 V2000
   -0.0261   -0.5833    1.9398 C   0  0  0  0  0  0  0  0  0  0  0  0
    0.5283   -1.7496    1.1342 C   0  0  0  0  0  0  0  0  0  0  0  0
   -0.0015   -1.8180   -0.2319 N   0  0  0  0  0  0  0  0  0  0  0  0
   -1.0885   -2.7741   -0.4706 C   0  0  0  0  0  0  0  0  0  0  0  0
   -2.4521   -2.1994   -0.0816 C   0  0  0  0  0  0  0  0  0  0  0  0
   -2.9015   -2.3287    1.0544 O   0  0  0  0  0  0  0  0  0  0  0  0
   -3.0247   -1.4392   -1.0923 N   0  0  0  0  0  0  0  0  0  0  0  0
   -4.2627   -0.7591   -0.9429 C   0  0  0  0  0  0  0  0  0  0  0  0
   -5.4343   -1.3750   -0.4644 C   0  0  0  0  0  0  0  0  0  0  0  0
   -5.5613   -3.0815   -0.1913 Cl  0  0  0  0  0  0  0  0  0  0  0  0
   -6.6170   -0.6356   -0.3220 C   0  0  0  0  0  0  0  0  0  0  0  0
   -6.6583    0.7111   -0.6782 C   0  0  0  0  0  0  0  0  0  0  0  0
   -5.5208    1.3209   -1.1993 C   0  0  0  0  0  0  0  0  0  0  0  0
   -4.3371    0.5894   -1.3401 C   0  0  0  0  0  0  0  0  0  0  0  0
   -2.9549    1.4177   -1.9755 Cl  0  0  0  0  0  0  0  0  0  0  0  0
    0.2601   -0.8921   -1.2533 C   0  0  0  0  0  0  0  0  0  0  0  0
   -0.4747   -0.8695   -2.2469 O   0  0  0  0  0  0  0  0  0  0  0  0
    1.3670    0.0687   -1.1603 C   0  0  0  0  0  0  0  0  0  0  0  0
    2.3721    0.0555   -0.2687 N   0  0  0  0  0  0  0  0  0  0  0  0
    3.1193    1.1340   -0.6280 N   0  0  0  0  0  0  0  0  0  0  0  0
    4.2937    1.5037    0.0778 C   0  0  0  0  0  0  0  0  0  0  0  0
    4.7189    0.7491    1.1812 C   0  0  0  0  0  0  0  0  0  0  0  0
    5.8750    1.1170    1.8727 C   0  0  0  0  0  0  0  0  0  0  0  0
    6.6071    2.2331    1.4681 C   0  0  0  0  0  0  0  0  0  0  0  0
    6.1877    2.9859    0.3714 C   0  0  0  0  0  0  0  0  0  0  0  0
    5.0331    2.6250   -0.3259 C   0  0  0  0  0  0  0  0  0  0  0  0
    2.6696    1.8347   -1.7008 N   0  0  0  0  0  0  0  0  0  0  0  0
    1.5719    1.1561   -2.0347 C   0  0  0  0  0  0  0  0  0  0  0  0
    0.4134   -0.5776    2.9421 H   0  0  0  0  0  0  0  0  0  0  0  0
    0.1893    0.3809    1.4715 H   0  0  0  0  0  0  0  0  0  0  0  0
   -1.1114   -0.6570    2.0502 H   0  0  0  0  0  0  0  0  0  0  0  0
    0.2888   -2.6868    1.6501 H   0  0  0  0  0  0  0  0  0  0  0  0
    1.6189   -1.7112    1.0992 H   0  0  0  0  0  0  0  0  0  0  0  0
   -1.1106   -3.0637   -1.5281 H   0  0  0  0  0  0  0  0  0  0  0  0
   -0.9081   -3.6929    0.0980 H   0  0  0  0  0  0  0  0  0  0  0  0
   -2.3405   -0.9895   -1.7064 H   0  0  0  0  0  0  0  0  0  0  0  0
   -7.5209   -1.1172    0.0458 H   0  0  0  0  0  0  0  0  0  0  0  0
   -7.5806    1.2766   -0.5675 H   0  0  0  0  0  0  0  0  0  0  0  0
   -5.5591    2.3680   -1.4909 H   0  0  0  0  0  0  0  0  0  0  0  0
    4.1633   -0.1254    1.5128 H   0  0  0  0  0  0  0  0  0  0  0  0
    6.2053    0.5319    2.7275 H   0  0  0  0  0  0  0  0  0  0  0  0
    7.5074    2.5165    2.0082 H   0  0  0  0  0  0  0  0  0  0  0  0
    6.7607    3.8553    0.0580 H   0  0  0  0  0  0  0  0  0  0  0  0
    4.7228    3.2256   -1.1790 H   0  0  0  0  0  0  0  0  0  0  0  0
    0.9730    1.4695   -2.8799 H   0  0  0  0  0  0  0  0  0  0  0  0
  1  2  1  0
  2  3  1  0
  3  4  1  0
  4  5  1  0
  5  6  2  0
  5  7  1  0
  7  8  1  0
  8  9  2  0
  9 10  1  0
  9 11  1  0
 11 12  2  0
 12 13  1  0
 13 14  2  0
 14 15  1  0
  3 16  1  0
 16 17  2  0
 16 18  1  0
 18 19  2  0
 19 20  1  0
 20 21  1  0
 21 22  2  0
 22 23  1  0
 23 24  2  0
 24 25  1  0
 25 26  2  0
 20 27  1  0
 27 28  2  0
 14  8  1  0
 28 18  1  0
 26 21  1  0
  1 29  1  0
  1 30  1  0
  1 31  1  0
  2 32  1  0
  2 33  1  0
  4 34  1  0
  4 35  1  0
  7 36  1  0
 11 37  1  0
 12 38  1  0
 13 39  1  0
 22 40  1  0
 23 41  1  0
 24 42  1  0
 25 43  1  0
 26 44  1  0
 28 45  1  0
M  END
$$$$
OCNT-2316354
     RDKit          3D

  0  0  0  0  0  0  0  0  0  0999 V3000
M  V30 BEGIN CTAB
M  V30 COUNTS 50 51 0 0 0
M  V30 BEGIN ATOM
M  V30 1 C 7.997669 -0.748554 2.118501 0
M  V30 2 O 7.571165 -0.478299 0.791623 0
M  V30 3 C 6.246037 -0.187339 0.601399 0
M  V30 4 C 5.277511 -0.159628 1.607873 0
M  V30 5 C 3.945536 0.149060 1.304242 0
M  V30 6 C 3.559981 0.440491 -0.010693 0
M  V30 7 C 2.119326 0.762191 -0.344209 0
M  V30 8 N 1.514556 -0.341512 -1.082928 0
M  V30 9 C 0.062183 -0.266752 -1.263517 0 CFG=1
M  V30 10 C -0.795819 -0.659053 -0.045440 0
M  V30 11 N -2.114965 -0.128839 -0.352718 0
M  V30 12 C -3.227716 -0.487944 0.360427 0
M  V30 13 O -3.187039 -1.218255 1.340535 0
M  V30 14 O -4.350005 0.067425 -0.158519 0
M  V30 15 C -5.648822 -0.177133 0.439287 0
M  V30 16 C -5.714835 0.365639 1.871032 0
M  V30 17 C -6.023971 -1.661462 0.369861 0
M  V30 18 C -6.632936 0.618398 -0.432139 0
M  V30 19 C -2.100262 0.710053 -1.547961 0
M  V30 20 C -0.614935 1.052642 -1.724881 0 CFG=1
M  V30 21 O -0.298394 2.171022 -0.886208 0
M  V30 22 C 4.529304 0.407247 -1.022486 0
M  V30 23 C 5.855119 0.096901 -0.713898 0
M  V30 24 O 6.792993 0.067125 -1.712771 0
M  V30 25 H 7.505514 -1.641643 2.517473 0
M  V30 26 H 7.836731 0.116732 2.770052 0
M  V30 27 H 9.073391 -0.947263 2.090581 0
M  V30 28 H 5.524231 -0.375252 2.641930 0
M  V30 29 H 3.211931 0.160886 2.107536 0
M  V30 30 H 1.575820 0.964288 0.585656 0
M  V30 31 H 2.116237 1.679869 -0.943016 0
M  V30 32 H 1.756955 -1.218023 -0.620237 0
M  V30 33 H -0.160339 -1.007382 -2.046115 0
M  V30 34 H -0.841085 -1.742730 0.104299 0
M  V30 35 H -0.455678 -0.189392 0.883592 0
M  V30 36 H -6.737445 0.333780 2.262320 0
M  V30 37 H -5.358371 1.401080 1.910973 0
M  V30 38 H -5.084988 -0.209472 2.556323 0
M  V30 39 H -5.885750 -2.050249 -0.645291 0
M  V30 40 H -5.398938 -2.272841 1.027585 0
M  V30 41 H -7.066061 -1.823266 0.666050 0
M  V30 42 H -6.374883 1.683950 -0.437587 0
M  V30 43 H -7.664658 0.514254 -0.080187 0
M  V30 44 H -6.587398 0.284487 -1.475401 0
M  V30 45 H -2.735179 1.589010 -1.402076 0
M  V30 46 H -2.479866 0.107576 -2.380066 0
M  V30 47 H -0.365885 1.317955 -2.756076 0
M  V30 48 H -0.755796 2.041705 -0.035543 0
M  V30 49 H 4.231726 0.619243 -2.045964 0
M  V30 50 H 6.358104 0.269272 -2.555269 0
M  V30 END ATOM
M  V30 BEGIN BOND
M  V30 1 1 1 2
M  V30 2 1 2 3
M  V30 3 1 3 4
M  V30 4 2 4 5
M  V30 5 1 5 6
M  V30 6 1 6 7
M  V30 7 1 7 8
M  V30 8 1 8 9
M  V30 9 1 9 10
M  V30 10 1 10 11
M  V30 11 1 11 12
M  V30 12 2 12 13
M  V30 13 1 12 14
M  V30 14 1 14 15
M  V30 15 1 15 16
M  V30 16 1 15 17
M  V30 17 1 15 18
M  V30 18 1 11 19
M  V30 19 1 19 20
M  V30 20 1 20 21
M  V30 21 2 6 22
M  V30 22 1 22 23
M  V30 23 1 23 24
M  V30 24 2 23 3
M  V30 25 1 20 9
M  V30 26 1 1 25
M  V30 27 1 1 26
M  V30 28 1 1 27
M  V30 29 1 4 28
M  V30 30 1 5 29
M  V30 31 1 7 30
M  V30 32 1 7 31
M  V30 33 1 8 32
M  V30 34 1 9 33 CFG=3
M  V30 35 1 10 34
M  V30 36 1 10 35
M  V30 37 1 16 36
M  V30 38 1 16 37
M  V30 39 1 16 38
M  V30 40 1 17 39
M  V30 41 1 17 40
M  V30 42 1 17 41
M  V30 43 1 18 42
M  V30 44 1 18 43
M  V30 45 1 18 44
M  V30 46 1 19 45
M  V30 47 1 19 46
M  V30 48 1 20 47 CFG=3
M  V30 49 1 21 48
M  V30 50 1 22 49
M  V30 51 1 24 50
M  V30 END BOND
M  V30 BEGIN COLLECTION
M  V30 MDLV30/STERAC1 ATOMS=(2 9 20)
M  V30 END COLLECTION
M  V30 END CTAB
M  END
>  <_CXSMILES_Data>  (1092) 
|&1:8,19|

$$$$
OCNT-2316356
     RDKit          3D

 53 56  0  0  0  0  0  0  0  0999 V2000
   -0.6445   -0.0074   -2.9422 O   0  0  0  0  0  0  0  0  0  0  0  0
   -0.3619   -0.4579   -1.8343 C   0  0  0  0  0  0  0  0  0  0  0  0
    0.6457    0.0402   -1.0486 N   0  0  0  0  0  0  0  0  0  0  0  0
    1.4806    1.1595   -1.2740 C   0  0  0  0  0  0  0  0  0  0  0  0
    1.3588    2.0270   -2.3560 C   0  0  0  0  0  0  0  0  0  0  0  0
    2.1920    3.1385   -2.4345 C   0  0  0  0  0  0  0  0  0  0  0  0
    3.1138    3.3423   -1.4232 C   0  0  0  0  0  0  0  0  0  0  0  0
    3.2678    2.5184   -0.3634 N   0  0  0  0  0  0  0  0  0  0  0  0
    2.4705    1.4290   -0.2960 C   0  0  0  0  0  0  0  0  0  0  0  0
    2.6245    0.5042    0.7736 N   0  0  0  0  0  0  0  0  0  0  0  0
    3.1010    1.1310    2.0304 C   0  0  0  0  0  0  0  0  0  0  0  0
    4.6278    1.3231    2.0913 C   0  0  0  0  0  0  0  0  0  0  0  0
    5.3317    0.1126    1.7697 O   0  0  0  0  0  0  0  0  0  0  0  0
    4.9753   -0.3151    0.4468 C   0  0  0  0  0  0  0  0  0  0  0  0
    3.4765   -0.6421    0.3665 C   0  0  0  0  0  0  0  0  0  0  0  0
   -1.0476   -1.5528   -1.2929 N   0  0  0  0  0  0  0  0  0  0  0  0
   -0.7311   -2.2020   -0.0189 C   0  0  0  0  0  0  0  0  0  0  0  0
   -1.2250   -1.4360    1.2143 C   0  0  0  0  0  0  0  0  0  0  0  0
   -2.7264   -1.5579    1.4918 C   0  0  0  0  0  0  0  0  0  0  0  0
   -3.5967   -0.6882    0.6115 C   0  0  0  0  0  0  0  0  0  0  0  0
   -4.0502    0.5430    1.1211 C   0  0  0  0  0  0  0  0  0  0  0  0
   -4.8498    1.3914    0.3538 C   0  0  0  0  0  0  0  0  0  0  0  0
   -5.2038    1.0267   -0.9392 C   0  0  0  0  0  0  0  0  0  0  0  0
   -4.7567   -0.1857   -1.4642 C   0  0  0  0  0  0  0  0  0  0  0  0
   -3.9564   -1.0552   -0.7012 C   0  0  0  0  0  0  0  0  0  0  0  0
   -3.4609   -2.3290   -1.3453 C   0  0  0  0  0  0  0  0  0  0  0  0
   -2.1345   -2.1367   -2.0913 C   0  0  0  0  0  0  0  0  0  0  0  0
    0.8267   -0.3798   -0.1501 H   0  0  0  0  0  0  0  0  0  0  0  0
    0.6175    1.8755   -3.1328 H   0  0  0  0  0  0  0  0  0  0  0  0
    2.1127    3.8342   -3.2633 H   0  0  0  0  0  0  0  0  0  0  0  0
    3.7778    4.2026   -1.4401 H   0  0  0  0  0  0  0  0  0  0  0  0
    2.8168    0.4484    2.8421 H   0  0  0  0  0  0  0  0  0  0  0  0
    2.5798    2.0759    2.2292 H   0  0  0  0  0  0  0  0  0  0  0  0
    4.9150    1.6032    3.1105 H   0  0  0  0  0  0  0  0  0  0  0  0
    4.9786    2.1231    1.4317 H   0  0  0  0  0  0  0  0  0  0  0  0
    5.2678    0.4541   -0.2764 H   0  0  0  0  0  0  0  0  0  0  0  0
    5.5588   -1.2141    0.2252 H   0  0  0  0  0  0  0  0  0  0  0  0
    3.2602   -1.4587    1.0662 H   0  0  0  0  0  0  0  0  0  0  0  0
    3.2220   -1.0101   -0.6347 H   0  0  0  0  0  0  0  0  0  0  0  0
    0.3583   -2.3094    0.0404 H   0  0  0  0  0  0  0  0  0  0  0  0
   -1.1215   -3.2262   -0.0232 H   0  0  0  0  0  0  0  0  0  0  0  0
   -0.7020   -1.8595    2.0817 H   0  0  0  0  0  0  0  0  0  0  0  0
   -0.9406   -0.3781    1.1660 H   0  0  0  0  0  0  0  0  0  0  0  0
   -3.0523   -2.6035    1.4469 H   0  0  0  0  0  0  0  0  0  0  0  0
   -2.8978   -1.2674    2.5374 H   0  0  0  0  0  0  0  0  0  0  0  0
   -3.7764    0.8543    2.1270 H   0  0  0  0  0  0  0  0  0  0  0  0
   -5.1856    2.3401    0.7649 H   0  0  0  0  0  0  0  0  0  0  0  0
   -5.8163    1.6890   -1.5454 H   0  0  0  0  0  0  0  0  0  0  0  0
   -5.0257   -0.4451   -2.4865 H   0  0  0  0  0  0  0  0  0  0  0  0
   -3.3781   -3.1312   -0.6044 H   0  0  0  0  0  0  0  0  0  0  0  0
   -4.2153   -2.6940   -2.0549 H   0  0  0  0  0  0  0  0  0  0  0  0
   -2.3228   -1.5332   -2.9853 H   0  0  0  0  0  0  0  0  0  0  0  0
   -1.7776   -3.1108   -2.4473 H   0  0  0  0  0  0  0  0  0  0  0  0
  1  2  2  0
  2  3  1  0
  3  4  1  0
  4  5  1  0
  5  6  2  0
  6  7  1  0
  7  8  2  0
  8  9  1  0
  9 10  1  0
 10 11  1  0
 11 12  1  0
 12 13  1  0
 13 14  1  0
 14 15  1  0
  2 16  1  0
 16 17  1  0
 17 18  1  0
 18 19  1  0
 19 20  1  0
 20 21  2  0
 21 22  1  0
 22 23  2  0
 23 24  1  0
 24 25  2  0
 25 26  1  0
 26 27  1  0
  9  4  2  0
 15 10  1  0
 27 16  1  0
 25 20  1  0
  3 28  1  0
  5 29  1  0
  6 30  1  0
  7 31  1  0
 11 32  1  0
 11 33  1  0
 12 34  1  0
 12 35  1  0
 14 36  1  0
 14 37  1  0
 15 38  1  0
 15 39  1  0
 17 40  1  0
 17 41  1  0
 18 42  1  0
 18 43  1  0
 19 44  1  0
 19 45  1  0
 21 46  1  0
 22 47  1  0
 23 48  1  0
 24 49  1  0
 26 50  1  0
 26 51  1  0
 27 52  1  0
 27 53  1  0
M  END
$$$$
OCNT-2316388
     RDKit          3D

 43 45  0  0  0  0  0  0  0  0999 V2000
    7.0676    1.6605    1.3933 C   0  0  0  0  0  0  0  0  0  0  0  0
    6.2863    1.1826    0.3056 O   0  0  0  0  0  0  0  0  0  0  0  0
    5.0089    0.7756    0.5872 C   0  0  0  0  0  0  0  0  0  0  0  0
    4.4051    0.7969    1.8481 C   0  0  0  0  0  0  0  0  0  0  0  0
    3.0863    0.3571    2.0294 C   0  0  0  0  0  0  0  0  0  0  0  0
    2.4163   -0.0984    0.8976 C   0  0  0  0  0  0  0  0  0  0  0  0
    1.1386   -0.5594    0.8723 O   0  0  0  0  0  0  0  0  0  0  0  0
    0.8617   -0.9098   -0.4203 C   0  0  0  0  0  0  0  0  0  0  0  0
   -0.5084   -1.4478   -0.6850 C   0  0  0  0  0  0  0  0  0  0  0  0
   -0.6864   -2.8232   -0.0439 C   0  0  0  0  0  0  0  0  0  0  0  0
   -1.4592   -0.4810   -0.1653 N   0  0  0  0  0  0  0  0  0  0  0  0
   -2.7797   -0.5061   -0.5500 C   0  0  0  0  0  0  0  0  0  0  0  0
   -3.2042   -1.2898   -1.3883 O   0  0  0  0  0  0  0  0  0  0  0  0
   -3.5005    0.4637    0.1114 N   0  0  0  0  0  0  0  0  0  0  0  0
   -4.8873    0.7057    0.0329 C   0  0  0  0  0  0  0  0  0  0  0  0
   -5.7803   -0.1159   -0.6475 C   0  0  0  0  0  0  0  0  0  0  0  0
   -7.1241    0.2246   -0.6446 C   0  0  0  0  0  0  0  0  0  0  0  0
   -7.6272    1.3080   -0.0158 N   0  0  0  0  0  0  0  0  0  0  0  0
   -6.7437    2.0864    0.6395 C   0  0  0  0  0  0  0  0  0  0  0  0
   -5.3827    1.8302    0.6942 C   0  0  0  0  0  0  0  0  0  0  0  0
    1.9604   -0.6707   -1.2323 C   0  0  0  0  0  0  0  0  0  0  0  0
    2.0518   -0.9123   -2.6937 C   0  0  0  0  0  0  0  0  0  0  0  0
    2.9722   -0.1411   -0.3733 C   0  0  0  0  0  0  0  0  0  0  0  0
    4.2974    0.3077   -0.5304 C   0  0  0  0  0  0  0  0  0  0  0  0
    8.0511    1.9379    1.0019 H   0  0  0  0  0  0  0  0  0  0  0  0
    7.2172    0.8789    2.1455 H   0  0  0  0  0  0  0  0  0  0  0  0
    6.6208    2.5567    1.8363 H   0  0  0  0  0  0  0  0  0  0  0  0
    4.9368    1.1535    2.7249 H   0  0  0  0  0  0  0  0  0  0  0  0
    2.6076    0.3674    3.0008 H   0  0  0  0  0  0  0  0  0  0  0  0
   -0.6707   -1.5372   -1.7656 H   0  0  0  0  0  0  0  0  0  0  0  0
    0.0606   -3.5305   -0.4209 H   0  0  0  0  0  0  0  0  0  0  0  0
   -0.5814   -2.7752    1.0463 H   0  0  0  0  0  0  0  0  0  0  0  0
   -1.6779   -3.2354   -0.2581 H   0  0  0  0  0  0  0  0  0  0  0  0
   -1.2459   -0.1256    0.7547 H   0  0  0  0  0  0  0  0  0  0  0  0
   -2.9470    1.1439    0.6102 H   0  0  0  0  0  0  0  0  0  0  0  0
   -5.4707   -1.0095   -1.1746 H   0  0  0  0  0  0  0  0  0  0  0  0
   -7.8533   -0.3896   -1.1655 H   0  0  0  0  0  0  0  0  0  0  0  0
   -7.1709    2.9519    1.1379 H   0  0  0  0  0  0  0  0  0  0  0  0
   -4.7360    2.5044    1.2431 H   0  0  0  0  0  0  0  0  0  0  0  0
    1.4222   -0.1997   -3.2361 H   0  0  0  0  0  0  0  0  0  0  0  0
    1.7167   -1.9256   -2.9382 H   0  0  0  0  0  0  0  0  0  0  0  0
    3.0782   -0.8041   -3.0571 H   0  0  0  0  0  0  0  0  0  0  0  0
    4.7735    0.2943   -1.5064 H   0  0  0  0  0  0  0  0  0  0  0  0
  1  2  1  0
  2  3  1  0
  3  4  2  0
  4  5  1  0
  5  6  2  0
  6  7  1  0
  7  8  1  0
  8  9  1  0
  9 10  1  0
  9 11  1  0
 11 12  1  0
 12 13  2  0
 12 14  1  0
 14 15  1  0
 15 16  2  0
 16 17  1  0
 17 18  2  0
 18 19  1  0
 19 20  2  0
  8 21  2  0
 21 22  1  0
 21 23  1  0
 23 24  2  0
 24  3  1  0
 23  6  1  0
 20 15  1  0
  1 25  1  0
  1 26  1  0
  1 27  1  0
  4 28  1  0
  5 29  1  0
  9 30  1  0
 10 31  1  0
 10 32  1  0
 10 33  1  0
 11 34  1  0
 14 35  1  0
 16 36  1  0
 17 37  1  0
 19 38  1  0
 20 39  1  0
 22 40  1  0
 22 41  1  0
 22 42  1  0
 24 43  1  0
M  END
$$$$
OCNT-2316398
     RDKit          3D

 44 47  0  0  0  0  0  0  0  0999 V2000
    0.9524   -1.7477   -1.7033 O   0  0  0  0  0  0  0  0  0  0  0  0
    1.7086   -0.9806   -1.1115 C   0  0  0  0  0  0  0  0  0  0  0  0
    1.3282    0.3079   -0.7699 N   0  0  0  0  0  0  0  0  0  0  0  0
    0.0183    0.8465   -1.0718 C   0  0  0  0  0  0  0  0  0  0  0  0
   -0.9313    0.4287    0.0571 C   0  0  0  0  0  0  0  0  0  0  0  0
   -0.7141    1.0814    1.4365 C   0  0  0  0  0  0  0  0  0  0  0  0
   -1.8693    2.0160    1.0774 C   0  0  0  0  0  0  0  0  0  0  0  0
   -2.2424    1.1360   -0.0541 N   0  0  0  0  0  0  0  0  0  0  0  0
   -3.3759    0.2480    0.2925 C   0  0  0  0  0  0  0  0  0  0  0  0
   -3.5336   -0.8685   -0.7646 C   0  0  0  0  0  0  0  0  0  0  0  0
   -4.9627   -1.3969   -0.8478 C   0  0  0  0  0  0  0  0  0  0  0  0
   -5.6189   -1.2456    0.4051 O   0  0  0  0  0  0  0  0  0  0  0  0
   -5.8536    0.1258    0.7262 C   0  0  0  0  0  0  0  0  0  0  0  0
   -4.6905    1.0405    0.3414 C   0  0  0  0  0  0  0  0  0  0  0  0
    3.0553   -1.3148   -0.6950 C   0  0  0  0  0  0  0  0  0  0  0  0
    3.8873   -0.5363   -0.0290 N   0  0  0  0  0  0  0  0  0  0  0  0
    4.9889   -1.3444    0.0834 C   0  0  0  0  0  0  0  0  0  0  0  0
    6.2918   -0.8943    0.7997 C   0  0  0  0  0  0  0  0  0  0  0  0
    7.4025   -0.2869   -0.0242 C   0  0  0  0  0  0  0  0  0  0  0  0
    6.6157    0.5754    0.9229 C   0  0  0  0  0  0  0  0  0  0  0  0
    4.8681   -2.5577   -0.4665 N   0  0  0  0  0  0  0  0  0  0  0  0
    3.5710   -2.5420   -0.9894 O   0  0  0  0  0  0  0  0  0  0  0  0
    1.9965    0.8672   -0.2482 H   0  0  0  0  0  0  0  0  0  0  0  0
   -0.3258    0.4517   -2.0342 H   0  0  0  0  0  0  0  0  0  0  0  0
    0.1192    1.9346   -1.1485 H   0  0  0  0  0  0  0  0  0  0  0  0
   -0.9887   -0.6656    0.1235 H   0  0  0  0  0  0  0  0  0  0  0  0
    0.2496    1.5679    1.6102 H   0  0  0  0  0  0  0  0  0  0  0  0
   -0.9302    0.4139    2.2790 H   0  0  0  0  0  0  0  0  0  0  0  0
   -1.5401    3.0093    0.7480 H   0  0  0  0  0  0  0  0  0  0  0  0
   -2.6033    2.1563    1.8771 H   0  0  0  0  0  0  0  0  0  0  0  0
   -3.2172   -0.2226    1.2740 H   0  0  0  0  0  0  0  0  0  0  0  0
   -3.2259   -0.5338   -1.7639 H   0  0  0  0  0  0  0  0  0  0  0  0
   -2.8664   -1.6997   -0.5040 H   0  0  0  0  0  0  0  0  0  0  0  0
   -4.9564   -2.4598   -1.1106 H   0  0  0  0  0  0  0  0  0  0  0  0
   -5.5346   -0.8755   -1.6252 H   0  0  0  0  0  0  0  0  0  0  0  0
   -6.7790    0.4544    0.2404 H   0  0  0  0  0  0  0  0  0  0  0  0
   -6.0224    0.1726    1.8072 H   0  0  0  0  0  0  0  0  0  0  0  0
   -4.8905    1.4747   -0.6482 H   0  0  0  0  0  0  0  0  0  0  0  0
   -4.6561    1.8846    1.0386 H   0  0  0  0  0  0  0  0  0  0  0  0
    6.5790   -1.5368    1.6254 H   0  0  0  0  0  0  0  0  0  0  0  0
    8.4228   -0.5406    0.2401 H   0  0  0  0  0  0  0  0  0  0  0  0
    7.2441   -0.1507   -1.0897 H   0  0  0  0  0  0  0  0  0  0  0  0
    5.9276    1.2980    0.4994 H   0  0  0  0  0  0  0  0  0  0  0  0
    7.1023    0.9096    1.8314 H   0  0  0  0  0  0  0  0  0  0  0  0
  1  2  2  0
  2  3  1  0
  3  4  1  0
  4  5  1  0
  5  6  1  0
  6  7  1  0
  7  8  1  0
  8  9  1  0
  9 10  1  0
 10 11  1  0
 11 12  1  0
 12 13  1  0
 13 14  1  0
  2 15  1  0
 15 16  2  0
 16 17  1  0
 17 18  1  0
 18 19  1  0
 19 20  1  0
 17 21  2  0
 21 22  1  0
  8  5  1  0
 14  9  1  0
 22 15  1  0
 20 18  1  0
  3 23  1  0
  4 24  1  0
  4 25  1  0
  5 26  1  0
  6 27  1  0
  6 28  1  0
  7 29  1  0
  7 30  1  0
  9 31  1  0
 10 32  1  0
 10 33  1  0
 11 34  1  0
 11 35  1  0
 13 36  1  0
 13 37  1  0
 14 38  1  0
 14 39  1  0
 18 40  1  0
 19 41  1  0
 19 42  1  0
 20 43  1  0
 20 44  1  0
M  END
$$$$
OCNT-2316402
     RDKit          3D

 53 54  0  0  0  0  0  0  0  0999 V2000
    5.1778    3.1727    0.5382 C   0  0  0  0  0  0  0  0  0  0  0  0
    4.5246    2.1235   -0.1668 O   0  0  0  0  0  0  0  0  0  0  0  0
    4.9386    0.8417    0.0875 C   0  0  0  0  0  0  0  0  0  0  0  0
    5.8385    0.4834    1.0978 C   0  0  0  0  0  0  0  0  0  0  0  0
    6.1792   -0.8576    1.3004 C   0  0  0  0  0  0  0  0  0  0  0  0
    5.6158   -1.8464    0.5004 C   0  0  0  0  0  0  0  0  0  0  0  0
    6.0281   -3.4955    0.7638 Cl  0  0  0  0  0  0  0  0  0  0  0  0
    4.7196   -1.5053   -0.5081 C   0  0  0  0  0  0  0  0  0  0  0  0
    4.3813   -0.1584   -0.7334 C   0  0  0  0  0  0  0  0  0  0  0  0
    3.3950    0.1760   -1.8281 C   0  0  0  0  0  0  0  0  0  0  0  0
    2.0505    0.3012   -1.3084 N   0  0  0  0  0  0  0  0  0  0  0  0
    1.2161   -0.7822   -1.2485 C   0  0  0  0  0  0  0  0  0  0  0  0
    1.5453   -1.8876   -1.6720 O   0  0  0  0  0  0  0  0  0  0  0  0
   -0.0280   -0.5327   -0.6825 N   0  0  0  0  0  0  0  0  0  0  0  0
   -0.9682   -1.6582   -0.6677 C   0  0  0  0  0  0  0  0  0  0  0  0
   -2.0763   -1.5043    0.3880 C   0  0  0  0  0  0  0  0  0  0  0  0
   -2.7784   -0.2039    0.2866 N   0  0  0  0  0  0  0  0  0  0  0  0
   -3.8416   -0.0913    1.3139 C   0  0  0  0  0  0  0  0  0  0  0  0
   -5.2524   -0.1943    0.6707 C   0  0  0  0  0  0  0  0  0  0  0  0
   -6.3288    0.1514    1.7001 C   0  0  0  0  0  0  0  0  0  0  0  0
   -5.5341   -1.5690    0.0622 C   0  0  0  0  0  0  0  0  0  0  0  0
   -5.3338    0.7744   -0.3849 O   0  0  0  0  0  0  0  0  0  0  0  0
   -1.7724    0.8707    0.4379 C   0  0  0  0  0  0  0  0  0  0  0  0
   -0.6545    0.8074   -0.6366 C   0  0  0  0  0  0  0  0  0  0  0  0
   -1.1846    1.2135   -2.0176 C   0  0  0  0  0  0  0  0  0  0  0  0
    6.2568    3.1645    0.3516 H   0  0  0  0  0  0  0  0  0  0  0  0
    4.7827    4.1221    0.1636 H   0  0  0  0  0  0  0  0  0  0  0  0
    4.9589    3.1212    1.6096 H   0  0  0  0  0  0  0  0  0  0  0  0
    6.2887    1.2216    1.7535 H   0  0  0  0  0  0  0  0  0  0  0  0
    6.8783   -1.1227    2.0891 H   0  0  0  0  0  0  0  0  0  0  0  0
    4.2692   -2.2856   -1.1200 H   0  0  0  0  0  0  0  0  0  0  0  0
    3.6557    1.1294   -2.3008 H   0  0  0  0  0  0  0  0  0  0  0  0
    3.4260   -0.5808   -2.6210 H   0  0  0  0  0  0  0  0  0  0  0  0
    1.9639    0.9598   -0.5518 H   0  0  0  0  0  0  0  0  0  0  0  0
   -0.4254   -2.5915   -0.4774 H   0  0  0  0  0  0  0  0  0  0  0  0
   -1.4067   -1.7375   -1.6703 H   0  0  0  0  0  0  0  0  0  0  0  0
   -2.7855   -2.3292    0.2608 H   0  0  0  0  0  0  0  0  0  0  0  0
   -1.6290   -1.6133    1.3854 H   0  0  0  0  0  0  0  0  0  0  0  0
   -3.7256   -0.8343    2.1133 H   0  0  0  0  0  0  0  0  0  0  0  0
   -3.7744    0.8914    1.8004 H   0  0  0  0  0  0  0  0  0  0  0  0
   -6.1858    1.1662    2.0894 H   0  0  0  0  0  0  0  0  0  0  0  0
   -6.3204   -0.5487    2.5420 H   0  0  0  0  0  0  0  0  0  0  0  0
   -7.3252    0.1368    1.2444 H   0  0  0  0  0  0  0  0  0  0  0  0
   -5.4305   -2.3663    0.8044 H   0  0  0  0  0  0  0  0  0  0  0  0
   -6.5505   -1.6091   -0.3467 H   0  0  0  0  0  0  0  0  0  0  0  0
   -4.8673   -1.7801   -0.7804 H   0  0  0  0  0  0  0  0  0  0  0  0
   -4.4824    0.6866   -0.8601 H   0  0  0  0  0  0  0  0  0  0  0  0
   -1.3102    0.8103    1.4331 H   0  0  0  0  0  0  0  0  0  0  0  0
   -2.2648    1.8491    0.3692 H   0  0  0  0  0  0  0  0  0  0  0  0
    0.1002    1.5456   -0.3487 H   0  0  0  0  0  0  0  0  0  0  0  0
   -1.9599    0.5286   -2.3764 H   0  0  0  0  0  0  0  0  0  0  0  0
   -1.6137    2.2202   -1.9848 H   0  0  0  0  0  0  0  0  0  0  0  0
   -0.3804    1.2167   -2.7604 H   0  0  0  0  0  0  0  0  0  0  0  0
  1  2  1  0
  2  3  1  0
  3  4  1  0
  4  5  2  0
  5  6  1  0
  6  7  1  0
  6  8  2  0
  8  9  1  0
  9 10  1  0
 10 11  1  0
 11 12  1  0
 12 13  2  0
 12 14  1  0
 14 15  1  0
 15 16  1  0
 16 17  1  0
 17 18  1  0
 18 19  1  0
 19 20  1  0
 19 21  1  0
 19 22  1  0
 17 23  1  0
 23 24  1  0
 24 25  1  0
  9  3  2  0
 24 14  1  0
  1 26  1  0
  1 27  1  0
  1 28  1  0
  4 29  1  0
  5 30  1  0
  8 31  1  0
 10 32  1  0
 10 33  1  0
 11 34  1  0
 15 35  1  0
 15 36  1  0
 16 37  1  0
 16 38  1  0
 18 39  1  0
 18 40  1  0
 20 41  1  0
 20 42  1  0
 20 43  1  0
 21 44  1  0
 21 45  1  0
 21 46  1  0
 22 47  1  0
 23 48  1  0
 23 49  1  0
 24 50  1  0
 25 51  1  0
 25 52  1  0
 25 53  1  0
M  END
$$$$
OCNT-2316408
     RDKit          3D

 50 53  0  0  0  0  0  0  0  0999 V2000
   -3.6412   -2.6236   -0.5878 C   0  0  0  0  0  0  0  0  0  0  0  0
   -3.6558   -1.1489   -0.3418 N   0  0  0  0  0  0  0  0  0  0  0  0
   -4.3433   -0.7638    0.8819 C   0  0  0  0  0  0  0  0  0  0  0  0
   -5.7137   -1.0432    1.0202 C   0  0  0  0  0  0  0  0  0  0  0  0
   -6.4048   -0.6876    2.1781 C   0  0  0  0  0  0  0  0  0  0  0  0
   -5.7354   -0.0516    3.2159 C   0  0  0  0  0  0  0  0  0  0  0  0
   -4.3735    0.2278    3.0951 C   0  0  0  0  0  0  0  0  0  0  0  0
   -3.6548   -0.1240    1.9356 C   0  0  0  0  0  0  0  0  0  0  0  0
   -2.1930    0.2388    1.9263 C   0  0  0  0  0  0  0  0  0  0  0  0
   -1.7661    0.9531    2.8280 O   0  0  0  0  0  0  0  0  0  0  0  0
   -1.4433   -0.2584    0.8803 N   0  0  0  0  0  0  0  0  0  0  0  0
   -0.0799   -0.0456    0.6018 C   0  0  0  0  0  0  0  0  0  0  0  0
    0.4210   -0.6007   -0.5815 C   0  0  0  0  0  0  0  0  0  0  0  0
    1.7656   -0.4362   -0.9414 C   0  0  0  0  0  0  0  0  0  0  0  0
    2.6411    0.2860   -0.1215 C   0  0  0  0  0  0  0  0  0  0  0  0
    4.0579    0.4856   -0.4506 C   0  0  0  0  0  0  0  0  0  0  0  0
    4.8924    1.2912    0.1850 N   0  0  0  0  0  0  0  0  0  0  0  0
    6.1061    1.1645   -0.4420 C   0  0  0  0  0  0  0  0  0  0  0  0
    7.3282    1.7957   -0.1712 C   0  0  0  0  0  0  0  0  0  0  0  0
    8.4358    1.4836   -0.9703 C   0  0  0  0  0  0  0  0  0  0  0  0
    8.3273    0.5625   -2.0156 C   0  0  0  0  0  0  0  0  0  0  0  0
    7.1145   -0.0766   -2.2998 C   0  0  0  0  0  0  0  0  0  0  0  0
    6.0284    0.2555   -1.4874 C   0  0  0  0  0  0  0  0  0  0  0  0
    4.7227   -0.1605   -1.4703 N   0  0  0  0  0  0  0  0  0  0  0  0
    2.1281    0.8420    1.0587 C   0  0  0  0  0  0  0  0  0  0  0  0
    0.7837    0.6785    1.4191 C   0  0  0  0  0  0  0  0  0  0  0  0
   -4.0910   -0.2651   -1.7576 S   0  0  0  0  0  0  0  0  0  0  0  0
   -3.7413    1.4245   -1.3032 C   0  0  0  0  0  0  0  0  0  0  0  0
   -5.5132   -0.4133   -1.9788 O   0  0  0  0  0  0  0  0  0  0  0  0
   -3.1407   -0.6530   -2.7808 O   0  0  0  0  0  0  0  0  0  0  0  0
   -2.8752   -2.8689   -1.3297 H   0  0  0  0  0  0  0  0  0  0  0  0
   -4.6140   -2.9835   -0.9352 H   0  0  0  0  0  0  0  0  0  0  0  0
   -3.3774   -3.1550    0.3332 H   0  0  0  0  0  0  0  0  0  0  0  0
   -6.2650   -1.5347    0.2207 H   0  0  0  0  0  0  0  0  0  0  0  0
   -7.4669   -0.9049    2.2659 H   0  0  0  0  0  0  0  0  0  0  0  0
   -6.2693    0.2300    4.1210 H   0  0  0  0  0  0  0  0  0  0  0  0
   -3.8692    0.7268    3.9227 H   0  0  0  0  0  0  0  0  0  0  0  0
   -1.9473   -0.8235    0.2051 H   0  0  0  0  0  0  0  0  0  0  0  0
   -0.2296   -1.1603   -1.2504 H   0  0  0  0  0  0  0  0  0  0  0  0
    2.0964   -0.8743   -1.8779 H   0  0  0  0  0  0  0  0  0  0  0  0
    7.4036    2.5085    0.6422 H   0  0  0  0  0  0  0  0  0  0  0  0
    9.3901    1.9653   -0.7714 H   0  0  0  0  0  0  0  0  0  0  0  0
    9.2034    0.3372   -2.6209 H   0  0  0  0  0  0  0  0  0  0  0  0
    7.0314   -0.7913   -3.1111 H   0  0  0  0  0  0  0  0  0  0  0  0
    4.3210   -0.8406   -2.0953 H   0  0  0  0  0  0  0  0  0  0  0  0
    2.7819    1.4139    1.7168 H   0  0  0  0  0  0  0  0  0  0  0  0
    0.4515    1.1296    2.3485 H   0  0  0  0  0  0  0  0  0  0  0  0
   -4.4029    1.7313   -0.4926 H   0  0  0  0  0  0  0  0  0  0  0  0
   -3.9326    2.0467   -2.1809 H   0  0  0  0  0  0  0  0  0  0  0  0
   -2.6918    1.5101   -1.0201 H   0  0  0  0  0  0  0  0  0  0  0  0
  1  2  1  0
  2  3  1  0
  3  4  2  0
  4  5  1  0
  5  6  2  0
  6  7  1  0
  7  8  2  0
  8  9  1  0
  9 10  2  0
  9 11  1  0
 11 12  1  0
 12 13  1  0
 13 14  2  0
 14 15  1  0
 15 16  1  0
 16 17  2  0
 17 18  1  0
 18 19  2  0
 19 20  1  0
 20 21  2  0
 21 22  1  0
 22 23  2  0
 23 24  1  0
 15 25  2  0
 25 26  1  0
  2 27  1  0
 27 28  1  0
 27 29  2  0
 27 30  2  0
  8  3  1  0
 26 12  2  0
 24 16  1  0
 23 18  1  0
  1 31  1  0
  1 32  1  0
  1 33  1  0
  4 34  1  0
  5 35  1  0
  6 36  1  0
  7 37  1  0
 11 38  1  0
 13 39  1  0
 14 40  1  0
 19 41  1  0
 20 42  1  0
 21 43  1  0
 22 44  1  0
 24 45  1  0
 25 46  1  0
 26 47  1  0
 28 48  1  0
 28 49  1  0
 28 50  1  0
M  END
$$$$
OCNT-2316412
     RDKit          3D

 38 40  0  0  0  0  0  0  0  0999 V2000
    6.3253   -0.2781   -0.6340 C   0  0  0  0  0  0  0  0  0  0  0  0
    4.9493    0.2196   -0.4214 C   0  0  0  0  0  0  0  0  0  0  0  0
    4.1988    0.3996    0.7182 C   0  0  0  0  0  0  0  0  0  0  0  0
    2.9565    0.9070    0.2693 C   0  0  0  0  0  0  0  0  0  0  0  0
    1.7684    1.2834    1.1022 C   0  0  0  0  0  0  0  0  0  0  0  0
    0.4696    0.5114    0.7748 C   0  0  0  0  0  0  0  0  0  0  0  0
    0.6789   -1.0051    0.8494 C   0  0  0  0  0  0  0  0  0  0  0  0
   -0.0238    0.9255   -0.5348 N   0  0  0  0  0  0  0  0  0  0  0  0
   -1.2492    0.4852   -0.9708 C   0  0  0  0  0  0  0  0  0  0  0  0
   -1.3924    0.3544   -2.2962 N   0  0  0  0  0  0  0  0  0  0  0  0
   -2.5957   -0.0566   -2.7427 C   0  0  0  0  0  0  0  0  0  0  0  0
   -3.6514   -0.3482   -1.9185 C   0  0  0  0  0  0  0  0  0  0  0  0
   -4.8231   -0.7381   -2.4364 F   0  0  0  0  0  0  0  0  0  0  0  0
   -3.4193   -0.1973   -0.5683 C   0  0  0  0  0  0  0  0  0  0  0  0
   -4.4263   -0.4591    0.4645 C   0  0  0  0  0  0  0  0  0  0  0  0
   -5.5385   -1.2588    0.2732 C   0  0  0  0  0  0  0  0  0  0  0  0
   -6.5220   -1.3844    1.6712 S   0  0  0  0  0  0  0  0  0  0  0  0
   -5.4672   -0.3868    2.5687 C   0  0  0  0  0  0  0  0  0  0  0  0
   -4.3924    0.0310    1.8164 C   0  0  0  0  0  0  0  0  0  0  0  0
   -2.2239    0.2247   -0.0875 N   0  0  0  0  0  0  0  0  0  0  0  0
    2.9339    1.0343   -1.0645 N   0  0  0  0  0  0  0  0  0  0  0  0
    4.1490    0.6189   -1.4551 N   0  0  0  0  0  0  0  0  0  0  0  0
    6.7950   -0.5508    0.3165 H   0  0  0  0  0  0  0  0  0  0  0  0
    6.3200   -1.1652   -1.2754 H   0  0  0  0  0  0  0  0  0  0  0  0
    6.9441    0.4895   -1.1095 H   0  0  0  0  0  0  0  0  0  0  0  0
    4.5022    0.1957    1.7357 H   0  0  0  0  0  0  0  0  0  0  0  0
    2.0139    1.1191    2.1596 H   0  0  0  0  0  0  0  0  0  0  0  0
    1.5932    2.3616    0.9902 H   0  0  0  0  0  0  0  0  0  0  0  0
   -0.2633    0.7994    1.5402 H   0  0  0  0  0  0  0  0  0  0  0  0
    1.1495   -1.2861    1.7976 H   0  0  0  0  0  0  0  0  0  0  0  0
    1.3065   -1.3724    0.0302 H   0  0  0  0  0  0  0  0  0  0  0  0
   -0.2743   -1.5405    0.7880 H   0  0  0  0  0  0  0  0  0  0  0  0
    0.6674    0.8594   -1.2823 H   0  0  0  0  0  0  0  0  0  0  0  0
   -2.6914   -0.1447   -3.8194 H   0  0  0  0  0  0  0  0  0  0  0  0
   -5.8441   -1.7938   -0.6154 H   0  0  0  0  0  0  0  0  0  0  0  0
   -5.6805   -0.1561    3.6034 H   0  0  0  0  0  0  0  0  0  0  0  0
   -3.6080    0.6681    2.2092 H   0  0  0  0  0  0  0  0  0  0  0  0
    4.3652    0.6342   -2.4464 H   0  0  0  0  0  0  0  0  0  0  0  0
  1  2  1  0
  2  3  2  0
  3  4  1  0
  4  5  1  0
  5  6  1  0
  6  7  1  0
  6  8  1  0
  8  9  1  0
  9 10  2  0
 10 11  1  0
 11 12  2  0
 12 13  1  0
 12 14  1  0
 14 15  1  0
 15 16  2  0
 16 17  1  0
 17 18  1  0
 18 19  2  0
 14 20  2  0
  4 21  2  0
 21 22  1  0
 22  2  1  0
 20  9  1  0
 19 15  1  0
  1 23  1  0
  1 24  1  0
  1 25  1  0
  3 26  1  0
  5 27  1  0
  5 28  1  0
  6 29  1  0
  7 30  1  0
  7 31  1  0
  7 32  1  0
  8 33  1  0
 11 34  1  0
 16 35  1  0
 18 36  1  0
 19 37  1  0
 22 38  1  0
M  END
$$$$
OCNT-2316420
     RDKit          3D

 61 64  0  0  0  0  0  0  0  0999 V2000
   -4.9222   -5.3387    0.9177 C   0  0  0  0  0  0  0  0  0  0  0  0
   -4.6180   -3.9055    0.4834 C   0  0  0  0  0  0  0  0  0  0  0  0
   -4.3638   -3.8519   -1.0217 C   0  0  0  0  0  0  0  0  0  0  0  0
   -3.4189   -3.3499    1.2470 C   0  0  0  0  0  0  0  0  0  0  0  0
   -2.6661   -4.0443    1.9241 O   0  0  0  0  0  0  0  0  0  0  0  0
   -3.2598   -1.9865    1.1217 N   0  0  0  0  0  0  0  0  0  0  0  0
   -2.0119   -1.3452    1.5358 C   0  0  0  0  0  0  0  0  0  0  0  0
   -2.2426    0.0191    2.2046 C   0  0  0  0  0  0  0  0  0  0  0  0
   -2.9573    1.0316    1.3576 C   0  0  0  0  0  0  0  0  0  0  0  0
   -4.3273    1.1755    1.2425 C   0  0  0  0  0  0  0  0  0  0  0  0
   -4.5826    2.2060    0.3795 N   0  0  0  0  0  0  0  0  0  0  0  0
   -3.4045    2.7569   -0.0652 C   0  0  0  0  0  0  0  0  0  0  0  0
   -3.1865    3.8237   -0.9458 C   0  0  0  0  0  0  0  0  0  0  0  0
   -1.8631    4.1769   -1.2221 C   0  0  0  0  0  0  0  0  0  0  0  0
   -0.8026    3.4919   -0.6365 C   0  0  0  0  0  0  0  0  0  0  0  0
   -1.0394    2.4304    0.2447 C   0  0  0  0  0  0  0  0  0  0  0  0
   -2.3649    2.0464    0.5359 C   0  0  0  0  0  0  0  0  0  0  0  0
   -1.0877   -1.2288    0.3018 C   0  0  0  0  0  0  0  0  0  0  0  0
   -1.5392   -1.3046   -0.8398 O   0  0  0  0  0  0  0  0  0  0  0  0
    0.2419   -1.0169    0.6404 N   0  0  0  0  0  0  0  0  0  0  0  0
    1.3100   -0.7292   -0.2351 C   0  0  0  0  0  0  0  0  0  0  0  0
    1.1502   -0.4636   -1.5972 C   0  0  0  0  0  0  0  0  0  0  0  0
    2.2572   -0.1705   -2.4005 C   0  0  0  0  0  0  0  0  0  0  0  0
    3.5342   -0.1289   -1.8470 C   0  0  0  0  0  0  0  0  0  0  0  0
    3.6966   -0.3648   -0.4824 C   0  0  0  0  0  0  0  0  0  0  0  0
    4.9327   -0.3696    0.1230 O   0  0  0  0  0  0  0  0  0  0  0  0
    5.7464    0.7180   -0.0989 C   0  0  0  0  0  0  0  0  0  0  0  0
    5.2930    2.0365   -0.0041 C   0  0  0  0  0  0  0  0  0  0  0  0
    6.1850    3.0941   -0.2022 C   0  0  0  0  0  0  0  0  0  0  0  0
    7.5326    2.8347   -0.4802 C   0  0  0  0  0  0  0  0  0  0  0  0
    8.4475    3.9212   -0.6790 C   0  0  0  0  0  0  0  0  0  0  0  0
    9.1848    4.8036   -0.8380 N   0  0  0  0  0  0  0  0  0  0  0  0
    7.9848    1.5123   -0.5556 C   0  0  0  0  0  0  0  0  0  0  0  0
    7.0929    0.4554   -0.3567 C   0  0  0  0  0  0  0  0  0  0  0  0
    2.5954   -0.6806    0.3172 C   0  0  0  0  0  0  0  0  0  0  0  0
   -4.0900   -6.0135    0.6857 H   0  0  0  0  0  0  0  0  0  0  0  0
   -5.8170   -5.7175    0.4130 H   0  0  0  0  0  0  0  0  0  0  0  0
   -5.0985   -5.3883    1.9982 H   0  0  0  0  0  0  0  0  0  0  0  0
   -5.4884   -3.2820    0.7249 H   0  0  0  0  0  0  0  0  0  0  0  0
   -3.4411   -4.3792   -1.2851 H   0  0  0  0  0  0  0  0  0  0  0  0
   -5.1898   -4.3101   -1.5746 H   0  0  0  0  0  0  0  0  0  0  0  0
   -4.2640   -2.8210   -1.3743 H   0  0  0  0  0  0  0  0  0  0  0  0
   -3.7062   -1.5424    0.3252 H   0  0  0  0  0  0  0  0  0  0  0  0
   -1.5087   -1.9963    2.2613 H   0  0  0  0  0  0  0  0  0  0  0  0
   -1.2821    0.4397    2.5279 H   0  0  0  0  0  0  0  0  0  0  0  0
   -2.8282   -0.1343    3.1212 H   0  0  0  0  0  0  0  0  0  0  0  0
   -5.1412    0.6299    1.7025 H   0  0  0  0  0  0  0  0  0  0  0  0
   -5.5017    2.5282    0.1098 H   0  0  0  0  0  0  0  0  0  0  0  0
   -4.0113    4.3604   -1.4028 H   0  0  0  0  0  0  0  0  0  0  0  0
   -1.6605    4.9984   -1.9050 H   0  0  0  0  0  0  0  0  0  0  0  0
    0.2199    3.7799   -0.8661 H   0  0  0  0  0  0  0  0  0  0  0  0
   -0.1995    1.9094    0.6917 H   0  0  0  0  0  0  0  0  0  0  0  0
    0.4917   -1.1545    1.6126 H   0  0  0  0  0  0  0  0  0  0  0  0
    0.1722   -0.4710   -2.0695 H   0  0  0  0  0  0  0  0  0  0  0  0
    2.1154    0.0225   -3.4609 H   0  0  0  0  0  0  0  0  0  0  0  0
    4.3894    0.0809   -2.4827 H   0  0  0  0  0  0  0  0  0  0  0  0
    4.2529    2.2504    0.2282 H   0  0  0  0  0  0  0  0  0  0  0  0
    5.8232    4.1180   -0.1305 H   0  0  0  0  0  0  0  0  0  0  0  0
    9.0313    1.2956   -0.7630 H   0  0  0  0  0  0  0  0  0  0  0  0
    7.4454   -0.5718   -0.4072 H   0  0  0  0  0  0  0  0  0  0  0  0
    2.7600   -0.8858    1.3711 H   0  0  0  0  0  0  0  0  0  0  0  0
  1  2  1  0
  2  3  1  0
  2  4  1  0
  4  5  2  0
  4  6  1  0
  6  7  1  0
  7  8  1  0
  8  9  1  0
  9 10  2  0
 10 11  1  0
 11 12  1  0
 12 13  2  0
 13 14  1  0
 14 15  2  0
 15 16  1  0
 16 17  2  0
  7 18  1  0
 18 19  2  0
 18 20  1  0
 20 21  1  0
 21 22  2  0
 22 23  1  0
 23 24  2  0
 24 25  1  0
 25 26  1  0
 26 27  1  0
 27 28  1  0
 28 29  2  0
 29 30  1  0
 30 31  1  0
 31 32  3  0
 30 33  2  0
 33 34  1  0
 25 35  2  0
 17  9  1  0
 35 21  1  0
 17 12  1  0
 34 27  2  0
  1 36  1  0
  1 37  1  0
  1 38  1  0
  2 39  1  0
  3 40  1  0
  3 41  1  0
  3 42  1  0
  6 43  1  0
  7 44  1  0
  8 45  1  0
  8 46  1  0
 10 47  1  0
 11 48  1  0
 13 49  1  0
 14 50  1  0
 15 51  1  0
 16 52  1  0
 20 53  1  0
 22 54  1  0
 23 55  1  0
 24 56  1  0
 28 57  1  0
 29 58  1  0
 33 59  1  0
 34 60  1  0
 35 61  1  0
M  END
$$$$
OCNT-2316424
     RDKit          3D

 49 53  0  0  0  0  0  0  0  0999 V2000
    3.0568   -2.4602   -0.9821 O   0  0  0  0  0  0  0  0  0  0  0  0
    2.5933   -1.4237   -0.5162 C   0  0  0  0  0  0  0  0  0  0  0  0
    3.4847   -0.2449   -0.5149 C   0  0  0  0  0  0  0  0  0  0  0  0
    3.8395    0.3271   -1.7410 C   0  0  0  0  0  0  0  0  0  0  0  0
    4.6832    1.4412   -1.7912 C   0  0  0  0  0  0  0  0  0  0  0  0
    5.1535    1.9360   -0.5697 C   0  0  0  0  0  0  0  0  0  0  0  0
    5.9839    2.9862   -0.2728 N   0  0  0  0  0  0  0  0  0  0  0  0
    6.2096    3.1533    1.0424 N   0  0  0  0  0  0  0  0  0  0  0  0
    5.5165    2.1607    1.6056 C   0  0  0  0  0  0  0  0  0  0  0  0
    4.8286    1.3695    0.6591 C   0  0  0  0  0  0  0  0  0  0  0  0
    3.9834    0.2485    0.7006 C   0  0  0  0  0  0  0  0  0  0  0  0
    1.3137   -1.2404   -0.0193 N   0  0  0  0  0  0  0  0  0  0  0  0
    0.7334    0.0221    0.4711 C   0  0  0  0  0  0  0  0  0  0  0  0
   -0.7898   -0.2010    0.6354 C   0  0  0  0  0  0  0  0  0  0  0  0
   -1.5503    0.5081   -0.5022 C   0  0  0  0  0  0  0  0  0  0  0  0
   -3.0860    0.4136   -0.4537 C   0  0  0  0  0  0  0  0  0  0  0  0
   -3.6813    0.9653    0.8626 C   0  0  0  0  0  0  0  0  0  0  0  0
   -5.1138    0.8980    0.8603 O   0  0  0  0  0  0  0  0  0  0  0  0
   -5.6573    1.6214   -0.2499 C   0  0  0  0  0  0  0  0  0  0  0  0
   -5.1021    1.0944   -1.5795 C   0  0  0  0  0  0  0  0  0  0  0  0
   -3.6294    1.1493   -1.6252 N   0  0  0  0  0  0  0  0  0  0  0  0
   -0.8584   -1.7031    0.5874 C   0  0  0  0  0  0  0  0  0  0  0  0
   -1.9357   -2.5220    0.8996 C   0  0  0  0  0  0  0  0  0  0  0  0
   -1.7982   -3.9015    0.7340 C   0  0  0  0  0  0  0  0  0  0  0  0
   -0.5945   -4.4456    0.2671 C   0  0  0  0  0  0  0  0  0  0  0  0
    0.4932   -3.6188   -0.0253 C   0  0  0  0  0  0  0  0  0  0  0  0
    0.3521   -2.2524    0.1520 C   0  0  0  0  0  0  0  0  0  0  0  0
    3.4595   -0.1031   -2.6662 H   0  0  0  0  0  0  0  0  0  0  0  0
    4.9634    1.8895   -2.7391 H   0  0  0  0  0  0  0  0  0  0  0  0
    6.4281    3.6260   -0.9215 H   0  0  0  0  0  0  0  0  0  0  0  0
    5.5361    2.0537    2.6825 H   0  0  0  0  0  0  0  0  0  0  0  0
    3.7303   -0.2286    1.6424 H   0  0  0  0  0  0  0  0  0  0  0  0
    0.9824    0.8486   -0.2029 H   0  0  0  0  0  0  0  0  0  0  0  0
    1.1876    0.2317    1.4476 H   0  0  0  0  0  0  0  0  0  0  0  0
   -1.0997    0.1789    1.6143 H   0  0  0  0  0  0  0  0  0  0  0  0
   -1.2670    1.5701   -0.4867 H   0  0  0  0  0  0  0  0  0  0  0  0
   -1.2050    0.1134   -1.4686 H   0  0  0  0  0  0  0  0  0  0  0  0
   -3.3894   -0.6326   -0.5721 H   0  0  0  0  0  0  0  0  0  0  0  0
   -3.3732    2.0036    1.0376 H   0  0  0  0  0  0  0  0  0  0  0  0
   -3.3457    0.3726    1.7180 H   0  0  0  0  0  0  0  0  0  0  0  0
   -5.4383    2.6885   -0.1241 H   0  0  0  0  0  0  0  0  0  0  0  0
   -6.7447    1.4993   -0.2258 H   0  0  0  0  0  0  0  0  0  0  0  0
   -5.4198    0.0555   -1.7289 H   0  0  0  0  0  0  0  0  0  0  0  0
   -5.5084    1.6810   -2.4101 H   0  0  0  0  0  0  0  0  0  0  0  0
   -3.3405    2.1258   -1.5675 H   0  0  0  0  0  0  0  0  0  0  0  0
   -2.8745   -2.1146    1.2606 H   0  0  0  0  0  0  0  0  0  0  0  0
   -2.6323   -4.5603    0.9643 H   0  0  0  0  0  0  0  0  0  0  0  0
   -0.5010   -5.5213    0.1382 H   0  0  0  0  0  0  0  0  0  0  0  0
    1.4235   -4.0586   -0.3680 H   0  0  0  0  0  0  0  0  0  0  0  0
  1  2  2  0
  2  3  1  0
  3  4  2  0
  4  5  1  0
  5  6  2  0
  6  7  1  0
  7  8  1  0
  8  9  2  0
  9 10  1  0
 10 11  2  0
  2 12  1  0
 12 13  1  0
 13 14  1  0
 14 15  1  0
 15 16  1  0
 16 17  1  0
 17 18  1  0
 18 19  1  0
 19 20  1  0
 20 21  1  0
 14 22  1  0
 22 23  2  0
 23 24  1  0
 24 25  2  0
 25 26  1  0
 26 27  2  0
 11  3  1  0
 27 12  1  0
 10  6  1  0
 21 16  1  0
 27 22  1  0
  4 28  1  0
  5 29  1  0
  7 30  1  0
  9 31  1  0
 11 32  1  0
 13 33  1  0
 13 34  1  0
 14 35  1  0
 15 36  1  0
 15 37  1  0
 16 38  1  0
 17 39  1  0
 17 40  1  0
 19 41  1  0
 19 42  1  0
 20 43  1  0
 20 44  1  0
 21 45  1  0
 23 46  1  0
 24 47  1  0
 25 48  1  0
 26 49  1  0
M  END
$$$$
OCNT-2316431
     RDKit          3D

 43 45  0  0  0  0  0  0  0  0999 V2000
    5.3892   -1.6178    0.3593 C   0  0  0  0  0  0  0  0  0  0  0  0
    4.4937   -0.4996    0.7755 C   0  0  0  0  0  0  0  0  0  0  0  0
    3.3462   -0.5470    1.4797 C   0  0  0  0  0  0  0  0  0  0  0  0
    2.7487   -1.7876    2.0660 C   0  0  0  0  0  0  0  0  0  0  0  0
    2.7647    0.7076    1.6714 N   0  0  0  0  0  0  0  0  0  0  0  0
    1.5377    0.9668    2.4138 C   0  0  0  0  0  0  0  0  0  0  0  0
    0.2579    0.4193    1.7784 C   0  0  0  0  0  0  0  0  0  0  0  0
   -0.1757    1.1568    0.5201 C   0  0  0  0  0  0  0  0  0  0  0  0
    0.4761    2.1020    0.0859 O   0  0  0  0  0  0  0  0  0  0  0  0
   -1.3410    0.6765   -0.0633 N   0  0  0  0  0  0  0  0  0  0  0  0
   -2.1505   -0.4583    0.4219 C   0  0  0  0  0  0  0  0  0  0  0  0
   -3.3195   -0.6566   -0.5628 C   0  0  0  0  0  0  0  0  0  0  0  0
   -3.2526   -2.0107   -1.2637 C   0  0  0  0  0  0  0  0  0  0  0  0
   -3.3846   -3.0540   -0.3026 O   0  0  0  0  0  0  0  0  0  0  0  0
   -3.1307    0.4966   -1.5034 C   0  0  0  0  0  0  0  0  0  0  0  0
   -3.9465    0.8589   -2.5681 C   0  0  0  0  0  0  0  0  0  0  0  0
   -3.5863    1.9666   -3.3354 C   0  0  0  0  0  0  0  0  0  0  0  0
   -2.4274    2.6930   -3.0312 C   0  0  0  0  0  0  0  0  0  0  0  0
   -1.6166    2.3245   -1.9530 C   0  0  0  0  0  0  0  0  0  0  0  0
   -1.9802    1.2252   -1.1926 C   0  0  0  0  0  0  0  0  0  0  0  0
    3.5014    1.7831    1.1737 C   0  0  0  0  0  0  0  0  0  0  0  0
    3.2975    2.9781    1.3096 O   0  0  0  0  0  0  0  0  0  0  0  0
    4.9085    1.1356    0.3286 S   0  0  0  0  0  0  0  0  0  0  0  0
    6.3388   -1.5684    0.9012 H   0  0  0  0  0  0  0  0  0  0  0  0
    5.6021   -1.5643   -0.7136 H   0  0  0  0  0  0  0  0  0  0  0  0
    4.9482   -2.6011    0.5451 H   0  0  0  0  0  0  0  0  0  0  0  0
    3.4913   -2.5811    2.1893 H   0  0  0  0  0  0  0  0  0  0  0  0
    1.9549   -2.1748    1.4215 H   0  0  0  0  0  0  0  0  0  0  0  0
    2.3387   -1.6063    3.0638 H   0  0  0  0  0  0  0  0  0  0  0  0
    1.6641    0.5334    3.4130 H   0  0  0  0  0  0  0  0  0  0  0  0
    1.4271    2.0465    2.5691 H   0  0  0  0  0  0  0  0  0  0  0  0
   -0.5490    0.5239    2.5135 H   0  0  0  0  0  0  0  0  0  0  0  0
    0.3659   -0.6404    1.5418 H   0  0  0  0  0  0  0  0  0  0  0  0
   -1.5112   -1.3432    0.5115 H   0  0  0  0  0  0  0  0  0  0  0  0
   -2.5229   -0.2070    1.4224 H   0  0  0  0  0  0  0  0  0  0  0  0
   -4.2651   -0.5608   -0.0155 H   0  0  0  0  0  0  0  0  0  0  0  0
   -4.0653   -2.1128   -1.9909 H   0  0  0  0  0  0  0  0  0  0  0  0
   -2.3024   -2.1450   -1.7934 H   0  0  0  0  0  0  0  0  0  0  0  0
   -3.3863   -3.8938   -0.7958 H   0  0  0  0  0  0  0  0  0  0  0  0
   -4.8478    0.3013   -2.8034 H   0  0  0  0  0  0  0  0  0  0  0  0
   -4.2070    2.2715   -4.1744 H   0  0  0  0  0  0  0  0  0  0  0  0
   -2.1555    3.5559   -3.6346 H   0  0  0  0  0  0  0  0  0  0  0  0
   -0.7286    2.9074   -1.7332 H   0  0  0  0  0  0  0  0  0  0  0  0
  1  2  1  0
  2  3  2  0
  3  4  1  0
  3  5  1  0
  5  6  1  0
  6  7  1  0
  7  8  1  0
  8  9  2  0
  8 10  1  0
 10 11  1  0
 11 12  1  0
 12 13  1  0
 13 14  1  0
 12 15  1  0
 15 16  2  0
 16 17  1  0
 17 18  2  0
 18 19  1  0
 19 20  2  0
  5 21  1  0
 21 22  2  0
 21 23  1  0
 23  2  1  0
 20 10  1  0
 20 15  1  0
  1 24  1  0
  1 25  1  0
  1 26  1  0
  4 27  1  0
  4 28  1  0
  4 29  1  0
  6 30  1  0
  6 31  1  0
  7 32  1  0
  7 33  1  0
 11 34  1  0
 11 35  1  0
 12 36  1  0
 13 37  1  0
 13 38  1  0
 14 39  1  0
 16 40  1  0
 17 41  1  0
 18 42  1  0
 19 43  1  0
M  END
$$$$
OCNT-2316444
     RDKit          3D

 50 53  0  0  0  0  0  0  0  0999 V2000
   -0.8922    1.2566    1.3697 O   0  0  0  0  0  0  0  0  0  0  0  0
   -0.2230    1.1913    0.0933 S   0  0  0  0  0  0  0  0  0  0  0  0
    0.0370    2.3836   -0.6750 O   0  0  0  0  0  0  0  0  0  0  0  0
    1.2623    0.4204    0.3147 N   0  0  0  0  0  0  0  0  0  0  0  0
    2.1057    0.3261   -0.9071 C   0  0  0  0  0  0  0  0  0  0  0  0
    3.2281   -0.6845   -0.6695 C   0  0  0  0  0  0  0  0  0  0  0  0
    4.0056   -0.3788    0.5860 C   0  0  0  0  0  0  0  0  0  0  0  0
    5.2889   -0.9153    0.7633 C   0  0  0  0  0  0  0  0  0  0  0  0
    6.0104   -0.6480    1.9278 C   0  0  0  0  0  0  0  0  0  0  0  0
    5.4470    0.1337    2.9320 C   0  0  0  0  0  0  0  0  0  0  0  0
    4.1573    0.6498    2.7762 C   0  0  0  0  0  0  0  0  0  0  0  0
    3.4225    0.3920    1.6087 C   0  0  0  0  0  0  0  0  0  0  0  0
    2.0379    0.9896    1.4490 C   0  0  0  0  0  0  0  0  0  0  0  0
   -1.0161    0.0715   -0.8804 N   0  0  0  0  0  0  0  0  0  0  0  0
   -2.0354    0.6348   -1.8003 C   0  0  0  0  0  0  0  0  0  0  0  0
   -3.3600    1.0358   -1.1865 C   0  0  0  0  0  0  0  0  0  0  0  0
   -4.4693    0.1764   -1.2474 C   0  0  0  0  0  0  0  0  0  0  0  0
   -5.6896    0.5435   -0.6763 C   0  0  0  0  0  0  0  0  0  0  0  0
   -5.8227    1.7750   -0.0381 C   0  0  0  0  0  0  0  0  0  0  0  0
   -4.7304    2.6306    0.0190 C   0  0  0  0  0  0  0  0  0  0  0  0
   -4.8159    3.8451    0.6313 O   0  0  0  0  0  0  0  0  0  0  0  0
   -3.5102    2.2759   -0.5508 C   0  0  0  0  0  0  0  0  0  0  0  0
   -1.4114   -1.2052   -0.2433 C   0  0  0  0  0  0  0  0  0  0  0  0
   -0.3483   -2.2483   -0.4344 C   0  0  0  0  0  0  0  0  0  0  0  0
   -0.7206   -3.6495   -0.8518 C   0  0  0  0  0  0  0  0  0  0  0  0
    0.0126   -2.7548   -1.8118 C   0  0  0  0  0  0  0  0  0  0  0  0
    2.5287    1.3094   -1.1464 H   0  0  0  0  0  0  0  0  0  0  0  0
    1.5155   -0.0053   -1.7679 H   0  0  0  0  0  0  0  0  0  0  0  0
    3.8975   -0.6773   -1.5384 H   0  0  0  0  0  0  0  0  0  0  0  0
    2.8139   -1.6954   -0.5728 H   0  0  0  0  0  0  0  0  0  0  0  0
    5.7369   -1.5327   -0.0115 H   0  0  0  0  0  0  0  0  0  0  0  0
    7.0109   -1.0561    2.0557 H   0  0  0  0  0  0  0  0  0  0  0  0
    6.0095    0.3402    3.8383 H   0  0  0  0  0  0  0  0  0  0  0  0
    3.7324    1.2521    3.5720 H   0  0  0  0  0  0  0  0  0  0  0  0
    1.4828    0.8001    2.3737 H   0  0  0  0  0  0  0  0  0  0  0  0
    2.1474    2.0746    1.3190 H   0  0  0  0  0  0  0  0  0  0  0  0
   -1.6161    1.4872   -2.3491 H   0  0  0  0  0  0  0  0  0  0  0  0
   -2.2168   -0.1097   -2.5892 H   0  0  0  0  0  0  0  0  0  0  0  0
   -4.3892   -0.7894   -1.7439 H   0  0  0  0  0  0  0  0  0  0  0  0
   -6.5370   -0.1322   -0.7291 H   0  0  0  0  0  0  0  0  0  0  0  0
   -6.7747    2.0470    0.4066 H   0  0  0  0  0  0  0  0  0  0  0  0
   -5.7100    3.9523    0.9941 H   0  0  0  0  0  0  0  0  0  0  0  0
   -2.6781    2.9780   -0.4930 H   0  0  0  0  0  0  0  0  0  0  0  0
   -1.6214   -1.0789    0.8252 H   0  0  0  0  0  0  0  0  0  0  0  0
   -2.3407   -1.5758   -0.6811 H   0  0  0  0  0  0  0  0  0  0  0  0
    0.4444   -2.1495    0.2979 H   0  0  0  0  0  0  0  0  0  0  0  0
   -0.1680   -4.4708   -0.3998 H   0  0  0  0  0  0  0  0  0  0  0  0
   -1.7603   -3.8783   -1.0571 H   0  0  0  0  0  0  0  0  0  0  0  0
   -0.5335   -2.3672   -2.6653 H   0  0  0  0  0  0  0  0  0  0  0  0
    1.0559   -2.9698   -2.0135 H   0  0  0  0  0  0  0  0  0  0  0  0
  1  2  2  0
  2  3  2  0
  2  4  1  0
  4  5  1  0
  5  6  1  0
  6  7  1  0
  7  8  2  0
  8  9  1  0
  9 10  2  0
 10 11  1  0
 11 12  2  0
 12 13  1  0
  2 14  1  0
 14 15  1  0
 15 16  1  0
 16 17  2  0
 17 18  1  0
 18 19  2  0
 19 20  1  0
 20 21  1  0
 20 22  2  0
 14 23  1  0
 23 24  1  0
 24 25  1  0
 25 26  1  0
 13  4  1  0
 22 16  1  0
 26 24  1  0
 12  7  1  0
  5 27  1  0
  5 28  1  0
  6 29  1  0
  6 30  1  0
  8 31  1  0
  9 32  1  0
 10 33  1  0
 11 34  1  0
 13 35  1  0
 13 36  1  0
 15 37  1  0
 15 38  1  0
 17 39  1  0
 18 40  1  0
 19 41  1  0
 21 42  1  0
 22 43  1  0
 23 44  1  0
 23 45  1  0
 24 46  1  0
 25 47  1  0
 25 48  1  0
 26 49  1  0
 26 50  1  0
M  END
$$$$
OCNT-2316459
     RDKit          3D

 55 57  0  0  0  0  0  0  0  0999 V2000
    1.7148   -3.5438    0.4112 C   0  0  0  0  0  0  0  0  0  0  0  0
    2.0114   -2.3027    1.2437 C   0  0  0  0  0  0  0  0  0  0  0  0
    1.6103   -1.0008    0.5275 C   0  0  0  0  0  0  0  0  0  0  0  0
    2.0515    0.2484    1.3271 C   0  0  0  0  0  0  0  0  0  0  0  0
    3.5373    0.5049    1.2727 C   0  0  0  0  0  0  0  0  0  0  0  0
    4.3387    0.3221    2.4063 C   0  0  0  0  0  0  0  0  0  0  0  0
    5.7163    0.5517    2.3444 C   0  0  0  0  0  0  0  0  0  0  0  0
    6.3154    0.9611    1.1481 C   0  0  0  0  0  0  0  0  0  0  0  0
    7.7905    1.2286    1.0815 C   0  0  0  0  0  0  0  0  0  0  0  0
    5.5109    1.1664    0.0201 C   0  0  0  0  0  0  0  0  0  0  0  0
    4.1344    0.9372    0.0812 C   0  0  0  0  0  0  0  0  0  0  0  0
    0.1618   -0.9732    0.3018 N   0  0  0  0  0  0  0  0  0  0  0  0
   -0.3750   -0.1701   -0.6686 C   0  0  0  0  0  0  0  0  0  0  0  0
    0.2847    0.5163   -1.4366 O   0  0  0  0  0  0  0  0  0  0  0  0
   -1.7409   -0.2076   -0.6525 N   0  0  0  0  0  0  0  0  0  0  0  0
   -2.5301    0.4291   -1.7102 C   0  0  0  0  0  0  0  0  0  0  0  0
   -3.9483   -0.1347   -1.6776 C   0  0  0  0  0  0  0  0  0  0  0  0
   -4.5067   -0.7209   -2.8231 C   0  0  0  0  0  0  0  0  0  0  0  0
   -5.7956   -1.2571   -2.7899 C   0  0  0  0  0  0  0  0  0  0  0  0
   -6.5467   -1.2117   -1.6147 C   0  0  0  0  0  0  0  0  0  0  0  0
   -6.0190   -0.6258   -0.4579 C   0  0  0  0  0  0  0  0  0  0  0  0
   -6.8271   -0.5633    0.8147 C   0  0  0  0  0  0  0  0  0  0  0  0
   -7.5978    0.5533    0.9023 F   0  0  0  0  0  0  0  0  0  0  0  0
   -7.6778   -1.6184    0.9542 F   0  0  0  0  0  0  0  0  0  0  0  0
   -6.0470   -0.5746    1.9336 F   0  0  0  0  0  0  0  0  0  0  0  0
   -4.7256   -0.0787   -0.5041 C   0  0  0  0  0  0  0  0  0  0  0  0
   -2.4932    1.9304   -1.6090 C   0  0  0  0  0  0  0  0  0  0  0  0
   -3.4969    2.7893   -1.6041 N   0  0  0  0  0  0  0  0  0  0  0  0
   -2.9744    4.0647   -1.6179 N   0  0  0  0  0  0  0  0  0  0  0  0
   -1.6669    3.9588   -1.6069 C   0  0  0  0  0  0  0  0  0  0  0  0
   -1.3205    2.6472   -1.6102 N   0  0  0  0  0  0  0  0  0  0  0  0
    2.2254   -3.4953   -0.5567 H   0  0  0  0  0  0  0  0  0  0  0  0
    2.0655   -4.4401    0.9327 H   0  0  0  0  0  0  0  0  0  0  0  0
    0.6412   -3.6605    0.2286 H   0  0  0  0  0  0  0  0  0  0  0  0
    1.4873   -2.3849    2.2052 H   0  0  0  0  0  0  0  0  0  0  0  0
    3.0846   -2.2937    1.4611 H   0  0  0  0  0  0  0  0  0  0  0  0
    2.0863   -0.9840   -0.4613 H   0  0  0  0  0  0  0  0  0  0  0  0
    1.5502    1.1476    0.9442 H   0  0  0  0  0  0  0  0  0  0  0  0
    1.7205    0.1573    2.3682 H   0  0  0  0  0  0  0  0  0  0  0  0
    3.8991   -0.0018    3.3478 H   0  0  0  0  0  0  0  0  0  0  0  0
    6.3207    0.4035    3.2360 H   0  0  0  0  0  0  0  0  0  0  0  0
    7.9828    2.3017    1.1834 H   0  0  0  0  0  0  0  0  0  0  0  0
    8.2029    0.8791    0.1280 H   0  0  0  0  0  0  0  0  0  0  0  0
    8.3229    0.7005    1.8794 H   0  0  0  0  0  0  0  0  0  0  0  0
    5.9542    1.5034   -0.9162 H   0  0  0  0  0  0  0  0  0  0  0  0
    3.5290    1.1002   -0.8076 H   0  0  0  0  0  0  0  0  0  0  0  0
   -0.4271   -1.1240    1.1104 H   0  0  0  0  0  0  0  0  0  0  0  0
   -2.0938   -1.1094   -0.3720 H   0  0  0  0  0  0  0  0  0  0  0  0
   -2.0609    0.1501   -2.6636 H   0  0  0  0  0  0  0  0  0  0  0  0
   -3.9482   -0.7566   -3.7559 H   0  0  0  0  0  0  0  0  0  0  0  0
   -6.2185   -1.7084   -3.6869 H   0  0  0  0  0  0  0  0  0  0  0  0
   -7.5526   -1.6321   -1.6089 H   0  0  0  0  0  0  0  0  0  0  0  0
   -4.3186    0.4075    0.3831 H   0  0  0  0  0  0  0  0  0  0  0  0
   -0.9549    4.7683   -1.6170 H   0  0  0  0  0  0  0  0  0  0  0  0
   -0.3866    2.2455   -1.6165 H   0  0  0  0  0  0  0  0  0  0  0  0
  1  2  1  0
  2  3  1  0
  3  4  1  0
  4  5  1  0
  5  6  1  0
  6  7  2  0
  7  8  1  0
  8  9  1  0
  8 10  2  0
 10 11  1  0
  3 12  1  0
 12 13  1  0
 13 14  2  0
 13 15  1  0
 15 16  1  0
 16 17  1  0
 17 18  2  0
 18 19  1  0
 19 20  2  0
 20 21  1  0
 21 22  1  0
 22 23  1  0
 22 24  1  0
 22 25  1  0
 21 26  2  0
 16 27  1  0
 27 28  2  0
 28 29  1  0
 29 30  2  0
 30 31  1  0
 11  5  2  0
 26 17  1  0
 31 27  1  0
  1 32  1  0
  1 33  1  0
  1 34  1  0
  2 35  1  0
  2 36  1  0
  3 37  1  0
  4 38  1  0
  4 39  1  0
  6 40  1  0
  7 41  1  0
  9 42  1  0
  9 43  1  0
  9 44  1  0
 10 45  1  0
 11 46  1  0
 12 47  1  0
 15 48  1  0
 16 49  1  0
 18 50  1  0
 19 51  1  0
 20 52  1  0
 26 53  1  0
 30 54  1  0
 31 55  1  0
M  END
$$$$
OCNT-2316493
     RDKit          3D

 38 39  0  0  0  0  0  0  0  0999 V2000
    6.8232    1.8532   -0.6633 C   0  0  0  0  0  0  0  0  0  0  0  0
    5.5172    1.2822   -0.7357 O   0  0  0  0  0  0  0  0  0  0  0  0
    5.1141    0.6568    0.4082 C   0  0  0  0  0  0  0  0  0  0  0  0
    5.7960    0.5825    1.4246 O   0  0  0  0  0  0  0  0  0  0  0  0
    3.7800    0.0936    0.2728 C   0  0  0  0  0  0  0  0  0  0  0  0
    3.0859   -0.6103    1.2425 C   0  0  0  0  0  0  0  0  0  0  0  0
    1.7998   -1.0327    0.7997 C   0  0  0  0  0  0  0  0  0  0  0  0
    1.5388   -0.6318   -0.4952 C   0  0  0  0  0  0  0  0  0  0  0  0
    0.1374   -0.8663   -1.5592 S   0  0  0  0  0  0  0  0  0  0  0  0
   -0.2308    0.4409   -2.0516 O   0  0  0  0  0  0  0  0  0  0  0  0
    0.4976   -1.9567   -2.4358 O   0  0  0  0  0  0  0  0  0  0  0  0
   -1.1225   -1.4364   -0.5964 N   0  0  0  0  0  0  0  0  0  0  0  0
   -1.8566   -0.4648    0.2437 C   0  0  0  0  0  0  0  0  0  0  0  0
   -2.4883   -1.2275    1.4118 C   0  0  0  0  0  0  0  0  0  0  0  0
   -3.2244   -0.2787    2.3635 C   0  0  0  0  0  0  0  0  0  0  0  0
   -3.5740    1.0677    1.7265 C   0  0  0  0  0  0  0  0  0  0  0  0
   -4.0135    0.8794    0.3521 N   0  0  0  0  0  0  0  0  0  0  0  0
   -2.9446    0.3544   -0.5257 C   0  0  0  0  0  0  0  0  0  0  0  0
   -3.6521   -0.4259   -1.6374 C   0  0  0  0  0  0  0  0  0  0  0  0
    2.8543    0.2280   -1.1640 S   0  0  0  0  0  0  0  0  0  0  0  0
    6.8625    2.6238    0.1129 H   0  0  0  0  0  0  0  0  0  0  0  0
    7.5720    1.0767   -0.4786 H   0  0  0  0  0  0  0  0  0  0  0  0
    7.0419    2.3219   -1.6268 H   0  0  0  0  0  0  0  0  0  0  0  0
    3.4952   -0.8150    2.2264 H   0  0  0  0  0  0  0  0  0  0  0  0
    1.0984   -1.6055    1.3946 H   0  0  0  0  0  0  0  0  0  0  0  0
   -1.6977   -2.1070   -1.1076 H   0  0  0  0  0  0  0  0  0  0  0  0
   -1.1305    0.2363    0.6776 H   0  0  0  0  0  0  0  0  0  0  0  0
   -3.1952   -1.9751    1.0282 H   0  0  0  0  0  0  0  0  0  0  0  0
   -1.7284   -1.7909    1.9675 H   0  0  0  0  0  0  0  0  0  0  0  0
   -2.6057   -0.0961    3.2504 H   0  0  0  0  0  0  0  0  0  0  0  0
   -4.1360   -0.7750    2.7191 H   0  0  0  0  0  0  0  0  0  0  0  0
   -4.3748    1.5392    2.3068 H   0  0  0  0  0  0  0  0  0  0  0  0
   -2.7168    1.7511    1.7642 H   0  0  0  0  0  0  0  0  0  0  0  0
   -4.3653    1.7563   -0.0338 H   0  0  0  0  0  0  0  0  0  0  0  0
   -2.4460    1.2151   -0.9879 H   0  0  0  0  0  0  0  0  0  0  0  0
   -2.9527   -0.7183   -2.4269 H   0  0  0  0  0  0  0  0  0  0  0  0
   -4.4252    0.1866   -2.1166 H   0  0  0  0  0  0  0  0  0  0  0  0
   -4.1331   -1.3314   -1.2518 H   0  0  0  0  0  0  0  0  0  0  0  0
  1  2  1  0
  2  3  1  0
  3  4  2  0
  3  5  1  0
  5  6  2  0
  6  7  1  0
  7  8  2  0
  8  9  1  0
  9 10  2  0
  9 11  2  0
  9 12  1  0
 12 13  1  0
 13 14  1  0
 14 15  1  0
 15 16  1  0
 16 17  1  0
 17 18  1  0
 18 19  1  0
  8 20  1  0
 20  5  1  0
 18 13  1  0
  1 21  1  0
  1 22  1  0
  1 23  1  0
  6 24  1  0
  7 25  1  0
 12 26  1  0
 13 27  1  0
 14 28  1  0
 14 29  1  0
 15 30  1  0
 15 31  1  0
 16 32  1  0
 16 33  1  0
 17 34  1  0
 18 35  1  0
 19 36  1  0
 19 37  1  0
 19 38  1  0
M  END
$$$$
OCNT-2316497
     RDKit          3D

 39 41  0  0  0  0  0  0  0  0999 V2000
   -3.2964   -2.6258   -0.6193 C   0  0  0  0  0  0  0  0  0  0  0  0
   -2.5531   -1.6138    0.2629 C   0  0  0  0  0  0  0  0  0  0  0  0
   -1.1187   -1.9218    0.3959 N   0  0  0  0  0  0  0  0  0  0  0  0
   -0.3766   -1.9524   -0.8770 C   0  0  0  0  0  0  0  0  0  0  0  0
    1.1552   -1.9963   -0.6792 C   0  0  1  0  0  0  0  0  0  0  0  0
    1.7761   -2.2951   -1.9339 O   0  0  0  0  0  0  0  0  0  0  0  0
    1.7535   -0.7162   -0.2035 C   0  0  0  0  0  0  0  0  0  0  0  0
    1.3251    0.5957   -0.1427 C   0  0  0  0  0  0  0  0  0  0  0  0
    2.3932    1.3533    0.4030 C   0  0  0  0  0  0  0  0  0  0  0  0
    2.6059    2.7054    0.7240 C   0  0  0  0  0  0  0  0  0  0  0  0
    3.8441    3.0817    1.2646 C   0  0  0  0  0  0  0  0  0  0  0  0
    4.8521    2.1380    1.4819 C   0  0  0  0  0  0  0  0  0  0  0  0
    4.6597    0.7886    1.1669 C   0  0  0  0  0  0  0  0  0  0  0  0
    3.4200    0.4465    0.6324 C   0  0  0  0  0  0  0  0  0  0  0  0
    3.0388   -0.8058    0.2587 O   0  0  0  0  0  0  0  0  0  0  0  0
   -2.7850   -0.1505   -0.0617 C   0  0  0  0  0  0  0  0  0  0  0  0
   -2.4284    0.8338    0.8724 C   0  0  0  0  0  0  0  0  0  0  0  0
   -2.6346    2.1809    0.5899 C   0  0  0  0  0  0  0  0  0  0  0  0
   -3.1961    2.5124   -0.6293 C   0  0  0  0  0  0  0  0  0  0  0  0
   -3.5520    1.6037   -1.5605 N   0  0  0  0  0  0  0  0  0  0  0  0
   -3.3374    0.3006   -1.2570 C   0  0  0  0  0  0  0  0  0  0  0  0
   -2.9841   -2.5806   -1.6678 H   0  0  0  0  0  0  0  0  0  0  0  0
   -3.1262   -3.6483   -0.2635 H   0  0  0  0  0  0  0  0  0  0  0  0
   -4.3769   -2.4444   -0.5885 H   0  0  0  0  0  0  0  0  0  0  0  0
   -2.9787   -1.7507    1.2674 H   0  0  0  0  0  0  0  0  0  0  0  0
   -1.0151   -2.8270    0.8543 H   0  0  0  0  0  0  0  0  0  0  0  0
   -0.6305   -1.0943   -1.5110 H   0  0  0  0  0  0  0  0  0  0  0  0
   -0.6696   -2.8439   -1.4457 H   0  0  0  0  0  0  0  0  0  0  0  0
    1.4134   -2.8090    0.0102 H   0  0  0  0  0  0  0  0  0  0  0  0
    2.7317   -2.1614   -1.7943 H   0  0  0  0  0  0  0  0  0  0  0  0
    0.3578    0.9631   -0.4555 H   0  0  0  0  0  0  0  0  0  0  0  0
    1.8295    3.4455    0.5566 H   0  0  0  0  0  0  0  0  0  0  0  0
    4.0217    4.1250    1.5171 H   0  0  0  0  0  0  0  0  0  0  0  0
    5.8038    2.4570    1.9019 H   0  0  0  0  0  0  0  0  0  0  0  0
    5.4296    0.0444    1.3275 H   0  0  0  0  0  0  0  0  0  0  0  0
   -1.9769    0.5465    1.8198 H   0  0  0  0  0  0  0  0  0  0  0  0
   -2.3612    2.9496    1.3033 H   0  0  0  0  0  0  0  0  0  0  0  0
   -3.3789    3.5483   -0.8991 H   0  0  0  0  0  0  0  0  0  0  0  0
   -3.6349   -0.3825   -2.0468 H   0  0  0  0  0  0  0  0  0  0  0  0
  1  2  1  0
  2  3  1  0
  3  4  1  0
  4  5  1  0
  5  6  1  0
  5  7  1  0
  7  8  2  0
  8  9  1  0
  9 10  2  0
 10 11  1  0
 11 12  2  0
 12 13  1  0
 13 14  2  0
 14 15  1  0
  2 16  1  0
 16 17  1  0
 17 18  2  0
 18 19  1  0
 19 20  2  0
 20 21  1  0
 15  7  1  0
 21 16  2  0
 14  9  1  0
  1 22  1  0
  1 23  1  0
  1 24  1  0
  2 25  1  0
  3 26  1  0
  4 27  1  0
  4 28  1  0
  5 29  1  1
  6 30  1  0
  8 31  1  0
 10 32  1  0
 11 33  1  0
 12 34  1  0
 13 35  1  0
 17 36  1  0
 18 37  1  0
 19 38  1  0
 21 39  1  0
M  END
$$$$
OCNT-2316507
     RDKit          3D

 47 50  0  0  0  0  0  0  0  0999 V2000
    6.9419   -1.3567   -0.3770 C   0  0  0  0  0  0  0  0  0  0  0  0
    6.2901   -0.5427    0.7288 C   0  0  0  0  0  0  0  0  0  0  0  0
    4.9894    0.0167    0.2981 C   0  0  0  0  0  0  0  0  0  0  0  0
    3.6827   -0.3852    0.4203 C   0  0  0  0  0  0  0  0  0  0  0  0
    2.9320    0.6253   -0.2306 C   0  0  0  0  0  0  0  0  0  0  0  0
    1.5558    0.5987   -0.3257 N   0  0  0  0  0  0  0  0  0  0  0  0
    0.7897    1.5029   -1.0212 C   0  0  0  0  0  0  0  0  0  0  0  0
    1.2061    2.4324   -1.7053 O   0  0  0  0  0  0  0  0  0  0  0  0
   -0.5717    1.2715   -0.9025 N   0  0  0  0  0  0  0  0  0  0  0  0
   -1.5820    2.2926   -1.1901 C   0  0  0  0  0  0  0  0  0  0  0  0
   -2.5725    1.4388   -0.3619 C   0  0  0  0  0  0  0  0  0  0  0  0
   -3.4155    2.1869    0.6868 C   0  0  0  0  0  0  0  0  0  0  0  0
   -4.8613    1.9621    0.2549 C   0  0  0  0  0  0  0  0  0  0  0  0
   -4.8270    0.5828   -0.3804 C   0  0  0  0  0  0  0  0  0  0  0  0
   -3.5626    0.6402   -1.2286 C   0  0  0  0  0  0  0  0  0  0  0  0
   -1.3120    0.7360    0.2485 C   0  0  0  0  0  0  0  0  0  0  0  0
   -1.3246   -0.8377    0.4731 C   0  0  0  0  0  0  0  0  0  0  0  0
   -1.6422   -1.3843    1.7332 C   0  0  0  0  0  0  0  0  0  0  0  0
   -1.6432   -2.7624    1.9677 C   0  0  0  0  0  0  0  0  0  0  0  0
   -1.3251   -3.6427    0.9399 C   0  0  0  0  0  0  0  0  0  0  0  0
   -1.0101   -3.1445   -0.3189 C   0  0  0  0  0  0  0  0  0  0  0  0
   -1.0119   -1.7652   -0.5440 C   0  0  0  0  0  0  0  0  0  0  0  0
    3.7414    1.5767   -0.7039 N   0  0  0  0  0  0  0  0  0  0  0  0
    5.0266    1.1953   -0.3759 O   0  0  0  0  0  0  0  0  0  0  0  0
    7.9005   -1.7608   -0.0365 H   0  0  0  0  0  0  0  0  0  0  0  0
    6.3064   -2.1967   -0.6779 H   0  0  0  0  0  0  0  0  0  0  0  0
    7.1280   -0.7422   -1.2647 H   0  0  0  0  0  0  0  0  0  0  0  0
    6.1441   -1.1784    1.6097 H   0  0  0  0  0  0  0  0  0  0  0  0
    6.9619    0.2691    1.0307 H   0  0  0  0  0  0  0  0  0  0  0  0
    3.3233   -1.2794    0.9057 H   0  0  0  0  0  0  0  0  0  0  0  0
    1.0950   -0.2025    0.0703 H   0  0  0  0  0  0  0  0  0  0  0  0
   -1.3250    3.2704   -0.7687 H   0  0  0  0  0  0  0  0  0  0  0  0
   -1.7953    2.3947   -2.2575 H   0  0  0  0  0  0  0  0  0  0  0  0
   -3.1774    3.2532    0.7474 H   0  0  0  0  0  0  0  0  0  0  0  0
   -3.2674    1.7510    1.6821 H   0  0  0  0  0  0  0  0  0  0  0  0
   -5.1540    2.7131   -0.4887 H   0  0  0  0  0  0  0  0  0  0  0  0
   -5.5586    2.0222    1.0952 H   0  0  0  0  0  0  0  0  0  0  0  0
   -5.7183    0.3732   -0.9781 H   0  0  0  0  0  0  0  0  0  0  0  0
   -4.7357   -0.1900    0.3920 H   0  0  0  0  0  0  0  0  0  0  0  0
   -3.7851    1.1835   -2.1557 H   0  0  0  0  0  0  0  0  0  0  0  0
   -3.2140   -0.3549   -1.5101 H   0  0  0  0  0  0  0  0  0  0  0  0
   -0.9543    1.2417    1.1608 H   0  0  0  0  0  0  0  0  0  0  0  0
   -1.8977   -0.7157    2.5545 H   0  0  0  0  0  0  0  0  0  0  0  0
   -1.8968   -3.1456    2.9531 H   0  0  0  0  0  0  0  0  0  0  0  0
   -1.3299   -4.7149    1.1174 H   0  0  0  0  0  0  0  0  0  0  0  0
   -0.7700   -3.8266   -1.1309 H   0  0  0  0  0  0  0  0  0  0  0  0
   -0.7732   -1.4019   -1.5438 H   0  0  0  0  0  0  0  0  0  0  0  0
  1  2  1  0
  2  3  1  0
  3  4  2  0
  4  5  1  0
  5  6  1  0
  6  7  1  0
  7  8  2  0
  7  9  1  0
  9 10  1  0
 10 11  1  0
 11 12  1  0
 12 13  1  0
 13 14  1  0
 14 15  1  0
 11 16  1  0
 16 17  1  0
 17 18  2  0
 18 19  1  0
 19 20  2  0
 20 21  1  0
 21 22  2  0
  5 23  2  0
 23 24  1  0
 24  3  1  0
 16  9  1  0
 22 17  1  0
 15 11  1  0
  1 25  1  0
  1 26  1  0
  1 27  1  0
  2 28  1  0
  2 29  1  0
  4 30  1  0
  6 31  1  0
 10 32  1  0
 10 33  1  0
 12 34  1  0
 12 35  1  0
 13 36  1  0
 13 37  1  0
 14 38  1  0
 14 39  1  0
 15 40  1  0
 15 41  1  0
 16 42  1  0
 18 43  1  0
 19 44  1  0
 20 45  1  0
 21 46  1  0
 22 47  1  0
M  END
$$$$
OCNT-2316527
     RDKit          3D

 46 49  0  0  0  0  0  0  0  0999 V2000
    2.0658   -1.1767    0.9533 O   0  0  0  0  0  0  0  0  0  0  0  0
    1.6530   -0.1648    0.3848 C   0  0  0  0  0  0  0  0  0  0  0  0
    2.6040    0.8764   -0.2003 C   0  0  0  0  0  0  0  0  0  0  0  0
    4.0647    0.4768   -0.1703 C   0  0  0  0  0  0  0  0  0  0  0  0
    4.6383   -0.1768   -1.2659 C   0  0  0  0  0  0  0  0  0  0  0  0
    5.9853   -0.5579   -1.2512 C   0  0  0  0  0  0  0  0  0  0  0  0
    6.7790   -0.2909   -0.1188 C   0  0  0  0  0  0  0  0  0  0  0  0
    8.1206   -0.6093    0.0269 N   0  0  0  0  0  0  0  0  0  0  0  0
    8.5328   -0.2245    1.2125 C   0  0  0  0  0  0  0  0  0  0  0  0
    7.3748    0.5402    2.2142 S   0  0  0  0  0  0  0  0  0  0  0  0
    6.1921    0.3506    0.9741 C   0  0  0  0  0  0  0  0  0  0  0  0
    4.8414    0.7404    0.9714 C   0  0  0  0  0  0  0  0  0  0  0  0
    0.2804    0.0835    0.2331 N   0  0  0  0  0  0  0  0  0  0  0  0
   -0.6303   -0.8590    0.8800 C   0  0  0  0  0  0  0  0  0  0  0  0
   -2.0009   -0.9089    0.2128 C   0  0  0  0  0  0  0  0  0  0  0  0
   -2.6066    0.4936    0.0876 C   0  0  0  0  0  0  0  0  0  0  0  0
   -3.8959    0.4948   -0.6277 N   0  0  0  0  0  0  0  0  0  0  0  0
   -4.9472   -0.1438    0.1681 C   0  0  0  0  0  0  0  0  0  0  0  0
   -6.3220    0.2379   -0.4393 C   0  0  0  0  0  0  0  0  0  0  0  0
   -6.7159   -1.2446   -0.2679 C   0  0  0  0  0  0  0  0  0  0  0  0
   -5.2104   -1.5738   -0.3643 C   0  0  0  0  0  0  0  0  0  0  0  0
   -1.6246    1.3872   -0.6840 C   0  0  0  0  0  0  0  0  0  0  0  0
   -0.2568    1.4211   -0.0109 C   0  0  0  0  0  0  0  0  0  0  0  0
    2.3188    1.0707   -1.2413 H   0  0  0  0  0  0  0  0  0  0  0  0
    2.4858    1.8132    0.3575 H   0  0  0  0  0  0  0  0  0  0  0  0
    4.0406   -0.4055   -2.1462 H   0  0  0  0  0  0  0  0  0  0  0  0
    6.4257   -1.0653   -2.1036 H   0  0  0  0  0  0  0  0  0  0  0  0
    9.5509   -0.3786    1.5450 H   0  0  0  0  0  0  0  0  0  0  0  0
    4.4103    1.2248    1.8428 H   0  0  0  0  0  0  0  0  0  0  0  0
   -0.7267   -0.5506    1.9285 H   0  0  0  0  0  0  0  0  0  0  0  0
   -0.1982   -1.8659    0.8770 H   0  0  0  0  0  0  0  0  0  0  0  0
   -1.9021   -1.3629   -0.7821 H   0  0  0  0  0  0  0  0  0  0  0  0
   -2.6474   -1.5644    0.8057 H   0  0  0  0  0  0  0  0  0  0  0  0
   -2.7460    0.9262    1.0875 H   0  0  0  0  0  0  0  0  0  0  0  0
   -4.1279    1.4561   -0.8810 H   0  0  0  0  0  0  0  0  0  0  0  0
   -4.8988   -0.0334    1.2571 H   0  0  0  0  0  0  0  0  0  0  0  0
   -6.9145    0.9496    0.1423 H   0  0  0  0  0  0  0  0  0  0  0  0
   -6.3151    0.5597   -1.4884 H   0  0  0  0  0  0  0  0  0  0  0  0
   -7.3471   -1.6646   -1.0547 H   0  0  0  0  0  0  0  0  0  0  0  0
   -7.1576   -1.4750    0.7085 H   0  0  0  0  0  0  0  0  0  0  0  0
   -4.8769   -1.7725   -1.3906 H   0  0  0  0  0  0  0  0  0  0  0  0
   -4.8766   -2.3924    0.2791 H   0  0  0  0  0  0  0  0  0  0  0  0
   -2.0122    2.4109   -0.7567 H   0  0  0  0  0  0  0  0  0  0  0  0
   -1.5086    1.0141   -1.7107 H   0  0  0  0  0  0  0  0  0  0  0  0
    0.4224    2.0091   -0.6324 H   0  0  0  0  0  0  0  0  0  0  0  0
   -0.3205    1.9252    0.9612 H   0  0  0  0  0  0  0  0  0  0  0  0
  1  2  2  0
  2  3  1  0
  3  4  1  0
  4  5  2  0
  5  6  1  0
  6  7  2  0
  7  8  1  0
  8  9  2  0
  9 10  1  0
 10 11  1  0
 11 12  2  0
  2 13  1  0
 13 14  1  0
 14 15  1  0
 15 16  1  0
 16 17  1  0
 17 18  1  0
 18 19  1  0
 19 20  1  0
 20 21  1  0
 16 22  1  0
 22 23  1  0
 12  4  1  0
 23 13  1  0
 11  7  1  0
 21 18  1  0
  3 24  1  0
  3 25  1  0
  5 26  1  0
  6 27  1  0
  9 28  1  0
 12 29  1  0
 14 30  1  0
 14 31  1  0
 15 32  1  0
 15 33  1  0
 16 34  1  0
 17 35  1  0
 18 36  1  0
 19 37  1  0
 19 38  1  0
 20 39  1  0
 20 40  1  0
 21 41  1  0
 21 42  1  0
 22 43  1  0
 22 44  1  0
 23 45  1  0
 23 46  1  0
M  END
$$$$
OCNT-2316535
     RDKit          3D

 43 46  0  0  0  0  0  0  0  0999 V2000
    1.2562    0.9011    1.1585 O   0  0  0  0  0  0  0  0  0  0  0  0
    1.1460    0.2068    0.1558 C   0  0  0  0  0  0  0  0  0  0  0  0
   -0.0613   -0.2474   -0.3328 N   0  0  0  0  0  0  0  0  0  0  0  0
   -1.3363    0.2188    0.1980 C   0  0  0  0  0  0  0  0  0  0  0  0
   -1.6462    1.6531   -0.3444 C   0  0  0  0  0  0  0  0  0  0  0  0
   -3.0373    2.1115   -0.4251 N   0  0  0  0  0  0  0  0  0  0  0  0
   -3.7928    2.0433    0.8230 C   0  0  0  0  0  0  0  0  0  0  0  0
   -3.8626    0.6883    1.5491 C   0  0  0  0  0  0  0  0  0  0  0  0
   -3.7142   -0.5205    0.6501 C   0  0  0  0  0  0  0  0  0  0  0  0
   -4.7931   -1.4018    0.4843 C   0  0  0  0  0  0  0  0  0  0  0  0
   -4.6661   -2.5277   -0.3252 C   0  0  0  0  0  0  0  0  0  0  0  0
   -3.4612   -2.7850   -0.9710 C   0  0  0  0  0  0  0  0  0  0  0  0
   -2.3788   -1.9152   -0.8153 C   0  0  0  0  0  0  0  0  0  0  0  0
   -2.4846   -0.7673   -0.0123 C   0  0  0  0  0  0  0  0  0  0  0  0
    2.3293   -0.1957   -0.6724 C   0  0  0  0  0  0  0  0  0  0  0  0
    2.0395   -0.8259   -1.8446 N   0  0  0  0  0  0  0  0  0  0  0  0
    3.0981   -1.1560   -2.6079 C   0  0  0  0  0  0  0  0  0  0  0  0
    4.3902   -0.9186   -2.3291 N   0  0  0  0  0  0  0  0  0  0  0  0
    4.6022   -0.3063   -1.1584 C   0  0  0  0  0  0  0  0  0  0  0  0
    3.6121    0.0757   -0.2802 C   0  0  0  0  0  0  0  0  0  0  0  0
    4.1744    0.7635    0.9129 C   0  0  0  0  0  0  0  0  0  0  0  0
    5.6522    0.3459    0.8287 C   0  0  0  0  0  0  0  0  0  0  0  0
    5.9567    0.1062   -0.6554 C   0  0  0  0  0  0  0  0  0  0  0  0
   -0.0263   -0.6237   -1.2745 H   0  0  0  0  0  0  0  0  0  0  0  0
   -1.1876    0.2953    1.2830 H   0  0  0  0  0  0  0  0  0  0  0  0
   -1.2582    1.7142   -1.3702 H   0  0  0  0  0  0  0  0  0  0  0  0
   -1.0576    2.3805    0.2298 H   0  0  0  0  0  0  0  0  0  0  0  0
   -3.0595    3.0634   -0.7877 H   0  0  0  0  0  0  0  0  0  0  0  0
   -3.4293    2.8053    1.5235 H   0  0  0  0  0  0  0  0  0  0  0  0
   -4.8212    2.3349    0.5749 H   0  0  0  0  0  0  0  0  0  0  0  0
   -3.0880    0.6410    2.3248 H   0  0  0  0  0  0  0  0  0  0  0  0
   -4.8120    0.6356    2.0976 H   0  0  0  0  0  0  0  0  0  0  0  0
   -5.7397   -1.2148    0.9853 H   0  0  0  0  0  0  0  0  0  0  0  0
   -5.5061   -3.2054   -0.4497 H   0  0  0  0  0  0  0  0  0  0  0  0
   -3.3604   -3.6670   -1.5980 H   0  0  0  0  0  0  0  0  0  0  0  0
   -1.4560   -2.1627   -1.3302 H   0  0  0  0  0  0  0  0  0  0  0  0
    2.8875   -1.6603   -3.5456 H   0  0  0  0  0  0  0  0  0  0  0  0
    3.7324    0.4228    1.8530 H   0  0  0  0  0  0  0  0  0  0  0  0
    4.0660    1.8485    0.8150 H   0  0  0  0  0  0  0  0  0  0  0  0
    6.3218    1.0847    1.2800 H   0  0  0  0  0  0  0  0  0  0  0  0
    5.7912   -0.5946    1.3802 H   0  0  0  0  0  0  0  0  0  0  0  0
    6.7086   -0.6742   -0.7988 H   0  0  0  0  0  0  0  0  0  0  0  0
    6.2720    1.0297   -1.1513 H   0  0  0  0  0  0  0  0  0  0  0  0
  1  2  2  0
  2  3  1  0
  3  4  1  0
  4  5  1  0
  5  6  1  0
  6  7  1  0
  7  8  1  0
  8  9  1  0
  9 10  2  0
 10 11  1  0
 11 12  2  0
 12 13  1  0
 13 14  2  0
  2 15  1  0
 15 16  1  0
 16 17  2  0
 17 18  1  0
 18 19  2  0
 19 20  1  0
 20 21  1  0
 21 22  1  0
 22 23  1  0
 14  4  1  0
 20 15  2  0
 14  9  1  0
 23 19  1  0
  3 24  1  0
  4 25  1  0
  5 26  1  0
  5 27  1  0
  6 28  1  0
  7 29  1  0
  7 30  1  0
  8 31  1  0
  8 32  1  0
 10 33  1  0
 11 34  1  0
 12 35  1  0
 13 36  1  0
 17 37  1  0
 21 38  1  0
 21 39  1  0
 22 40  1  0
 22 41  1  0
 23 42  1  0
 23 43  1  0
M  END
$$$$
OCNT-2316543
     RDKit          3D

 42 45  0  0  0  0  0  0  0  0999 V2000
   -3.8318    1.8463    3.4616 F   0  0  0  0  0  0  0  0  0  0  0  0
   -3.1249    1.8595    2.3240 C   0  0  0  0  0  0  0  0  0  0  0  0
   -2.7051    3.0699    1.7972 C   0  0  0  0  0  0  0  0  0  0  0  0
   -1.9654    3.0590    0.6267 C   0  0  0  0  0  0  0  0  0  0  0  0
   -1.5389    4.2166    0.1053 F   0  0  0  0  0  0  0  0  0  0  0  0
   -1.6529    1.8631   -0.0202 C   0  0  0  0  0  0  0  0  0  0  0  0
   -2.0926    0.6276    0.4943 C   0  0  0  0  0  0  0  0  0  0  0  0
   -1.7210   -0.6840   -0.2054 C   0  0  0  0  0  0  0  0  0  0  0  0
   -0.3012   -1.0592    0.1422 C   0  0  0  0  0  0  0  0  0  0  0  0
    0.7937   -0.9853   -0.5845 N   0  0  0  0  0  0  0  0  0  0  0  0
    1.7556   -1.4207    0.2954 C   0  0  0  0  0  0  0  0  0  0  0  0
    3.1907   -1.5097   -0.0683 C   0  0  0  0  0  0  0  0  0  0  0  0
    3.7676   -0.1434    0.1784 C   0  0  0  0  0  0  0  0  0  0  0  0
    3.7979    0.8329   -0.8235 C   0  0  0  0  0  0  0  0  0  0  0  0
    4.3355    2.0871   -0.5505 C   0  0  0  0  0  0  0  0  0  0  0  0
    4.8284    2.3267    0.7210 C   0  0  0  0  0  0  0  0  0  0  0  0
    4.8156    1.4137    1.7150 N   0  0  0  0  0  0  0  0  0  0  0  0
    4.2806    0.2062    1.4254 C   0  0  0  0  0  0  0  0  0  0  0  0
    1.2908   -1.7942    1.4958 N   0  0  0  0  0  0  0  0  0  0  0  0
   -0.0764   -1.5358    1.4043 O   0  0  0  0  0  0  0  0  0  0  0  0
   -1.9045   -0.5903   -1.7427 C   0  0  0  0  0  0  0  0  0  0  0  0
   -2.0294   -2.0298   -2.2430 C   0  0  0  0  0  0  0  0  0  0  0  0
   -2.4768   -2.8567   -1.0434 C   0  0  0  0  0  0  0  0  0  0  0  0
   -2.6867   -1.8581    0.0921 C   0  0  0  0  0  0  0  0  0  0  0  0
   -2.8241    0.6500    1.6951 C   0  0  0  0  0  0  0  0  0  0  0  0
   -2.9415    4.0024    2.2946 H   0  0  0  0  0  0  0  0  0  0  0  0
   -1.0497    1.9172   -0.9235 H   0  0  0  0  0  0  0  0  0  0  0  0
    3.3073   -1.7950   -1.1199 H   0  0  0  0  0  0  0  0  0  0  0  0
    3.7128   -2.2660    0.5290 H   0  0  0  0  0  0  0  0  0  0  0  0
    3.3957    0.6242   -1.8121 H   0  0  0  0  0  0  0  0  0  0  0  0
    4.3660    2.8604   -1.3096 H   0  0  0  0  0  0  0  0  0  0  0  0
    5.2574    3.2896    0.9828 H   0  0  0  0  0  0  0  0  0  0  0  0
    4.2751   -0.4955    2.2563 H   0  0  0  0  0  0  0  0  0  0  0  0
   -1.0913   -0.0659   -2.2573 H   0  0  0  0  0  0  0  0  0  0  0  0
   -2.8340   -0.0563   -1.9844 H   0  0  0  0  0  0  0  0  0  0  0  0
   -1.0659   -2.3969   -2.6143 H   0  0  0  0  0  0  0  0  0  0  0  0
   -2.7440   -2.0965   -3.0699 H   0  0  0  0  0  0  0  0  0  0  0  0
   -1.6980   -3.5809   -0.7773 H   0  0  0  0  0  0  0  0  0  0  0  0
   -3.3902   -3.4219   -1.2538 H   0  0  0  0  0  0  0  0  0  0  0  0
   -2.5265   -2.3308    1.0674 H   0  0  0  0  0  0  0  0  0  0  0  0
   -3.7303   -1.5158    0.0638 H   0  0  0  0  0  0  0  0  0  0  0  0
   -3.1676   -0.2631    2.1738 H   0  0  0  0  0  0  0  0  0  0  0  0
  1  2  1  0
  2  3  1  0
  3  4  2  0
  4  5  1  0
  4  6  1  0
  6  7  2  0
  7  8  1  0
  8  9  1  0
  9 10  2  0
 10 11  1  0
 11 12  1  0
 12 13  1  0
 13 14  1  0
 14 15  2  0
 15 16  1  0
 16 17  2  0
 17 18  1  0
 11 19  2  0
 19 20  1  0
  8 21  1  0
 21 22  1  0
 22 23  1  0
 23 24  1  0
  7 25  1  0
 25  2  2  0
 24  8  1  0
 20  9  1  0
 18 13  2  0
  3 26  1  0
  6 27  1  0
 12 28  1  0
 12 29  1  0
 14 30  1  0
 15 31  1  0
 16 32  1  0
 18 33  1  0
 21 34  1  0
 21 35  1  0
 22 36  1  0
 22 37  1  0
 23 38  1  0
 23 39  1  0
 24 40  1  0
 24 41  1  0
 25 42  1  0
M  END
$$$$
OCNT-2316553
     RDKit          3D

 54 57  0  0  0  0  0  0  0  0999 V2000
    3.2646    4.1367    2.1212 C   0  0  0  0  0  0  0  0  0  0  0  0
    2.5955    3.1407    1.2221 C   0  0  0  0  0  0  0  0  0  0  0  0
    1.3556    3.4298    0.6479 C   0  0  0  0  0  0  0  0  0  0  0  0
    0.7173    2.4903   -0.1637 C   0  0  0  0  0  0  0  0  0  0  0  0
    1.3014    1.2375   -0.4245 C   0  0  0  0  0  0  0  0  0  0  0  0
    0.5362    0.2571   -1.2868 C   0  0  0  0  0  0  0  0  0  0  0  0
   -0.3814   -0.5313   -0.4710 N   0  0  0  0  0  0  0  0  0  0  0  0
   -1.1312   -1.4823   -1.2841 C   0  0  0  0  0  0  0  0  0  0  0  0
   -2.3032   -2.0204   -0.4742 C   0  0  0  0  0  0  0  0  0  0  0  0
   -3.6478   -1.3423   -0.7388 C   0  0  0  0  0  0  0  0  0  0  0  0
   -4.0942   -1.7253   -2.0425 O   0  0  0  0  0  0  0  0  0  0  0  0
   -3.6089    0.1683   -0.5872 C   0  0  0  0  0  0  0  0  0  0  0  0
   -3.3949    0.7418    0.6773 C   0  0  0  0  0  0  0  0  0  0  0  0
   -3.3555    2.1285    0.8399 C   0  0  0  0  0  0  0  0  0  0  0  0
   -3.5360    2.9654   -0.2583 C   0  0  0  0  0  0  0  0  0  0  0  0
   -3.7524    2.4162   -1.5192 C   0  0  0  0  0  0  0  0  0  0  0  0
   -3.7887    1.0294   -1.6819 C   0  0  0  0  0  0  0  0  0  0  0  0
   -2.3383   -3.5296   -0.2388 C   0  0  0  0  0  0  0  0  0  0  0  0
   -2.0475   -2.6182    0.9083 C   0  0  0  0  0  0  0  0  0  0  0  0
    2.5345    0.9310    0.1816 C   0  0  0  0  0  0  0  0  0  0  0  0
    3.1765   -0.3535    0.0084 C   0  0  0  0  0  0  0  0  0  0  0  0
    3.2040   -1.3417    0.9681 C   0  0  0  0  0  0  0  0  0  0  0  0
    3.9043   -2.3760    0.4195 N   0  0  0  0  0  0  0  0  0  0  0  0
    4.2102   -3.6418    1.0393 C   0  0  0  0  0  0  0  0  0  0  0  0
    4.3313   -2.1320   -0.8340 N   0  0  0  0  0  0  0  0  0  0  0  0
    3.8974   -0.8914   -1.0770 C   0  0  0  0  0  0  0  0  0  0  0  0
    3.1699    1.8834    0.9969 C   0  0  0  0  0  0  0  0  0  0  0  0
    2.8614    4.0550    3.1358 H   0  0  0  0  0  0  0  0  0  0  0  0
    4.3464    3.9702    2.1584 H   0  0  0  0  0  0  0  0  0  0  0  0
    3.1052    5.1569    1.7553 H   0  0  0  0  0  0  0  0  0  0  0  0
    0.8712    4.3855    0.8333 H   0  0  0  0  0  0  0  0  0  0  0  0
   -0.2585    2.7280   -0.5850 H   0  0  0  0  0  0  0  0  0  0  0  0
   -0.0234    0.8235   -2.0429 H   0  0  0  0  0  0  0  0  0  0  0  0
    1.2224   -0.3878   -1.8460 H   0  0  0  0  0  0  0  0  0  0  0  0
    0.1592   -1.0319    0.2302 H   0  0  0  0  0  0  0  0  0  0  0  0
   -0.4675   -2.2981   -1.5951 H   0  0  0  0  0  0  0  0  0  0  0  0
   -1.5019   -1.0155   -2.2044 H   0  0  0  0  0  0  0  0  0  0  0  0
   -4.4073   -1.7156   -0.0391 H   0  0  0  0  0  0  0  0  0  0  0  0
   -4.1870   -2.6907   -2.0238 H   0  0  0  0  0  0  0  0  0  0  0  0
   -3.2384    0.1063    1.5451 H   0  0  0  0  0  0  0  0  0  0  0  0
   -3.1757    2.5529    1.8235 H   0  0  0  0  0  0  0  0  0  0  0  0
   -3.5045    4.0433   -0.1318 H   0  0  0  0  0  0  0  0  0  0  0  0
   -3.8930    3.0640   -2.3796 H   0  0  0  0  0  0  0  0  0  0  0  0
   -3.9569    0.6200   -2.6754 H   0  0  0  0  0  0  0  0  0  0  0  0
   -1.5239   -4.1394   -0.6156 H   0  0  0  0  0  0  0  0  0  0  0  0
   -3.2930   -4.0439   -0.2364 H   0  0  0  0  0  0  0  0  0  0  0  0
   -2.8078   -2.4999    1.6722 H   0  0  0  0  0  0  0  0  0  0  0  0
   -1.0398   -2.6180    1.3069 H   0  0  0  0  0  0  0  0  0  0  0  0
    2.7953   -1.3896    1.9677 H   0  0  0  0  0  0  0  0  0  0  0  0
    5.2936   -3.7822    1.0230 H   0  0  0  0  0  0  0  0  0  0  0  0
    3.7108   -4.4319    0.4728 H   0  0  0  0  0  0  0  0  0  0  0  0
    3.8516   -3.6370    2.0715 H   0  0  0  0  0  0  0  0  0  0  0  0
    4.1190   -0.4324   -2.0318 H   0  0  0  0  0  0  0  0  0  0  0  0
    4.1235    1.6388    1.4624 H   0  0  0  0  0  0  0  0  0  0  0  0
  1  2  1  0
  2  3  1  0
  3  4  2  0
  4  5  1  0
  5  6  1  0
  6  7  1  0
  7  8  1  0
  8  9  1  0
  9 10  1  0
 10 11  1  0
 10 12  1  0
 12 13  2  0
 13 14  1  0
 14 15  2  0
 15 16  1  0
 16 17  2  0
  9 18  1  0
 18 19  1  0
  5 20  2  0
 20 21  1  0
 21 22  2  0
 22 23  1  0
 23 24  1  0
 23 25  1  0
 25 26  2  0
 20 27  1  0
 27  2  2  0
 19  9  1  0
 26 21  1  0
 17 12  1  0
  1 28  1  0
  1 29  1  0
  1 30  1  0
  3 31  1  0
  4 32  1  0
  6 33  1  0
  6 34  1  0
  7 35  1  0
  8 36  1  0
  8 37  1  0
 10 38  1  0
 11 39  1  0
 13 40  1  0
 14 41  1  0
 15 42  1  0
 16 43  1  0
 17 44  1  0
 18 45  1  0
 18 46  1  0
 19 47  1  0
 19 48  1  0
 22 49  1  0
 24 50  1  0
 24 51  1  0
 24 52  1  0
 26 53  1  0
 27 54  1  0
M  END
$$$$
OCNT-2316555
     RDKit          3D

 51 53  0  0  0  0  0  0  0  0999 V2000
   -0.0562    1.8574   -1.1796 C   0  0  0  0  0  0  0  0  0  0  0  0
   -0.7294    0.8920   -0.1891 C   0  0  0  0  0  0  0  0  0  0  0  0
   -0.1906   -0.5496   -0.3755 C   0  0  0  0  0  0  0  0  0  0  0  0
    1.1758   -0.7012    0.1051 N   0  0  0  0  0  0  0  0  0  0  0  0
    1.7264   -1.9570    0.1906 C   0  0  0  0  0  0  0  0  0  0  0  0
    1.0986   -2.9674   -0.1137 O   0  0  0  0  0  0  0  0  0  0  0  0
    3.0392   -1.9820    0.6364 N   0  0  0  0  0  0  0  0  0  0  0  0
    3.6978   -3.2788    0.6978 C   0  0  0  0  0  0  0  0  0  0  0  0
    3.6482   -0.9082    1.4226 C   0  0  0  0  0  0  0  0  0  0  0  0
    4.8829   -0.3247    0.7762 C   0  0  0  0  0  0  0  0  0  0  0  0
    5.9851    0.0331    1.5651 C   0  0  0  0  0  0  0  0  0  0  0  0
    7.0907    0.5989    0.9493 C   0  0  0  0  0  0  0  0  0  0  0  0
    7.1704    0.8403   -0.3770 N   0  0  0  0  0  0  0  0  0  0  0  0
    6.0984    0.4953   -1.1223 C   0  0  0  0  0  0  0  0  0  0  0  0
    4.9471   -0.0753   -0.6003 C   0  0  0  0  0  0  0  0  0  0  0  0
   -2.1958    1.0552   -0.2938 N   0  0  0  0  0  0  0  0  0  0  0  0
   -2.8096    0.3800   -1.4474 C   0  0  0  0  0  0  0  0  0  0  0  0
   -4.2597    0.8523   -1.6315 C   0  0  0  0  0  0  0  0  0  0  0  0
   -5.0521    0.7944   -0.3506 C   0  0  0  0  0  0  0  0  0  0  0  0
   -6.4523    0.8600   -0.3821 C   0  0  0  0  0  0  0  0  0  0  0  0
   -7.1843    0.8411    0.8042 C   0  0  0  0  0  0  0  0  0  0  0  0
   -6.5255    0.7623    2.0293 C   0  0  0  0  0  0  0  0  0  0  0  0
   -5.1322    0.7060    2.0701 C   0  0  0  0  0  0  0  0  0  0  0  0
   -4.3827    0.7355    0.8843 C   0  0  0  0  0  0  0  0  0  0  0  0
   -2.8730    0.6316    0.9486 C   0  0  0  0  0  0  0  0  0  0  0  0
    1.0255    1.9019   -1.0103 H   0  0  0  0  0  0  0  0  0  0  0  0
   -0.2164    1.5574   -2.2212 H   0  0  0  0  0  0  0  0  0  0  0  0
   -0.4422    2.8772   -1.0560 H   0  0  0  0  0  0  0  0  0  0  0  0
   -0.4241    1.2413    0.8075 H   0  0  0  0  0  0  0  0  0  0  0  0
   -0.2100   -0.8493   -1.4313 H   0  0  0  0  0  0  0  0  0  0  0  0
   -0.8050   -1.2675    0.1811 H   0  0  0  0  0  0  0  0  0  0  0  0
    1.8351   -0.0051   -0.2117 H   0  0  0  0  0  0  0  0  0  0  0  0
    3.3344   -3.9432   -0.0923 H   0  0  0  0  0  0  0  0  0  0  0  0
    4.7782   -3.1541    0.5821 H   0  0  0  0  0  0  0  0  0  0  0  0
    3.4833   -3.7338    1.6702 H   0  0  0  0  0  0  0  0  0  0  0  0
    3.8953   -1.3336    2.4049 H   0  0  0  0  0  0  0  0  0  0  0  0
    2.9408   -0.0935    1.6150 H   0  0  0  0  0  0  0  0  0  0  0  0
    5.9912   -0.1246    2.6408 H   0  0  0  0  0  0  0  0  0  0  0  0
    7.9687    0.8832    1.5259 H   0  0  0  0  0  0  0  0  0  0  0  0
    6.1898    0.6974   -2.1868 H   0  0  0  0  0  0  0  0  0  0  0  0
    4.1258   -0.3317   -1.2653 H   0  0  0  0  0  0  0  0  0  0  0  0
   -2.7887   -0.7112   -1.3213 H   0  0  0  0  0  0  0  0  0  0  0  0
   -2.2695    0.6072   -2.3729 H   0  0  0  0  0  0  0  0  0  0  0  0
   -4.7400    0.2294   -2.3964 H   0  0  0  0  0  0  0  0  0  0  0  0
   -4.2655    1.8902   -1.9906 H   0  0  0  0  0  0  0  0  0  0  0  0
   -6.9766    0.9282   -1.3324 H   0  0  0  0  0  0  0  0  0  0  0  0
   -8.2703    0.8899    0.7738 H   0  0  0  0  0  0  0  0  0  0  0  0
   -7.0966    0.7454    2.9527 H   0  0  0  0  0  0  0  0  0  0  0  0
   -4.6311    0.6418    3.0333 H   0  0  0  0  0  0  0  0  0  0  0  0
   -2.6241   -0.4076    1.2010 H   0  0  0  0  0  0  0  0  0  0  0  0
   -2.5251    1.2731    1.7687 H   0  0  0  0  0  0  0  0  0  0  0  0
  1  2  1  0
  2  3  1  0
  3  4  1  0
  4  5  1  0
  5  6  2  0
  5  7  1  0
  7  8  1  0
  7  9  1  0
  9 10  1  0
 10 11  2  0
 11 12  1  0
 12 13  2  0
 13 14  1  0
 14 15  2  0
  2 16  1  0
 16 17  1  0
 17 18  1  0
 18 19  1  0
 19 20  2  0
 20 21  1  0
 21 22  2  0
 22 23  1  0
 23 24  2  0
 24 25  1  0
 15 10  1  0
 25 16  1  0
 24 19  1  0
  1 26  1  0
  1 27  1  0
  1 28  1  0
  2 29  1  0
  3 30  1  0
  3 31  1  0
  4 32  1  0
  8 33  1  0
  8 34  1  0
  8 35  1  0
  9 36  1  0
  9 37  1  0
 11 38  1  0
 12 39  1  0
 14 40  1  0
 15 41  1  0
 17 42  1  0
 17 43  1  0
 18 44  1  0
 18 45  1  0
 20 46  1  0
 21 47  1  0
 22 48  1  0
 23 49  1  0
 25 50  1  0
 25 51  1  0
M  END
$$$$
OCNT-2316568
     RDKit          3D

 46 49  0  0  0  0  0  0  0  0999 V2000
   -6.1944    1.3300   -0.1724 C   0  0  0  0  0  0  0  0  0  0  0  0
   -5.3143    0.2304   -0.7745 C   0  0  0  0  0  0  0  0  0  0  0  0
   -5.4003   -1.0715    0.0443 C   0  0  0  0  0  0  0  0  0  0  0  0
   -4.1431   -1.3827    0.8593 C   0  0  0  0  0  0  0  0  0  0  0  0
   -3.5373   -0.1236    1.4681 C   0  0  0  0  0  0  0  0  0  0  0  0
   -3.1309    0.9064    0.3975 C   0  0  0  0  0  0  0  0  0  0  0  0
   -1.6557    0.8895    0.1721 C   0  0  0  0  0  0  0  0  0  0  0  0
   -0.8607   -0.1150   -0.1153 N   0  0  0  0  0  0  0  0  0  0  0  0
    0.3737    0.4942   -0.2032 C   0  0  0  0  0  0  0  0  0  0  0  0
    1.5904   -0.2519   -0.5093 C   0  0  0  0  0  0  0  0  0  0  0  0
    1.5331   -1.6341   -0.7331 C   0  0  0  0  0  0  0  0  0  0  0  0
    2.6919   -2.3567   -1.0224 C   0  0  0  0  0  0  0  0  0  0  0  0
    3.9232   -1.7061   -1.0941 C   0  0  0  0  0  0  0  0  0  0  0  0
    4.0092   -0.3237   -0.8802 C   0  0  0  0  0  0  0  0  0  0  0  0
    5.3395    0.3828   -0.9405 C   0  0  0  0  0  0  0  0  0  0  0  0
    6.0214    0.3430    0.3400 N   0  0  0  0  0  0  0  0  0  0  0  0
    5.8852    1.2400    1.3638 C   0  0  0  0  0  0  0  0  0  0  0  0
    6.7644    0.8097    2.3301 C   0  0  0  0  0  0  0  0  0  0  0  0
    7.4369   -0.3102    1.9131 N   0  0  0  0  0  0  0  0  0  0  0  0
    6.9691   -0.5677    0.7124 C   0  0  0  0  0  0  0  0  0  0  0  0
    2.8362    0.3924   -0.5840 C   0  0  0  0  0  0  0  0  0  0  0  0
    0.3398    1.8205    0.0133 N   0  0  0  0  0  0  0  0  0  0  0  0
   -1.0048    2.0832    0.2627 O   0  0  0  0  0  0  0  0  0  0  0  0
   -3.8635    0.6984   -0.9415 C   0  0  0  0  0  0  0  0  0  0  0  0
   -5.9071    1.5729    0.8549 H   0  0  0  0  0  0  0  0  0  0  0  0
   -7.2441    1.0169   -0.1597 H   0  0  0  0  0  0  0  0  0  0  0  0
   -6.1300    2.2469   -0.7678 H   0  0  0  0  0  0  0  0  0  0  0  0
   -5.7179    0.0245   -1.7749 H   0  0  0  0  0  0  0  0  0  0  0  0
   -5.5794   -1.9136   -0.6362 H   0  0  0  0  0  0  0  0  0  0  0  0
   -6.2688   -1.0423    0.7141 H   0  0  0  0  0  0  0  0  0  0  0  0
   -3.4004   -1.8735    0.2180 H   0  0  0  0  0  0  0  0  0  0  0  0
   -4.3918   -2.0996    1.6503 H   0  0  0  0  0  0  0  0  0  0  0  0
   -4.2843    0.3296    2.1327 H   0  0  0  0  0  0  0  0  0  0  0  0
   -2.6896   -0.3926    2.1105 H   0  0  0  0  0  0  0  0  0  0  0  0
   -3.3962    1.8989    0.7865 H   0  0  0  0  0  0  0  0  0  0  0  0
    0.5815   -2.1601   -0.6787 H   0  0  0  0  0  0  0  0  0  0  0  0
    2.6327   -3.4300   -1.1870 H   0  0  0  0  0  0  0  0  0  0  0  0
    4.8151   -2.2897   -1.3135 H   0  0  0  0  0  0  0  0  0  0  0  0
    5.9922   -0.0769   -1.6921 H   0  0  0  0  0  0  0  0  0  0  0  0
    5.2167    1.4349   -1.2240 H   0  0  0  0  0  0  0  0  0  0  0  0
    5.1981    2.0735    1.3280 H   0  0  0  0  0  0  0  0  0  0  0  0
    6.9513    1.2483    3.3017 H   0  0  0  0  0  0  0  0  0  0  0  0
    7.2802   -1.3892    0.0804 H   0  0  0  0  0  0  0  0  0  0  0  0
    2.8967    1.4655   -0.4049 H   0  0  0  0  0  0  0  0  0  0  0  0
   -3.8289    1.6274   -1.5257 H   0  0  0  0  0  0  0  0  0  0  0  0
   -3.3347   -0.0492   -1.5499 H   0  0  0  0  0  0  0  0  0  0  0  0
  1  2  1  0
  2  3  1  0
  3  4  1  0
  4  5  1  0
  5  6  1  0
  6  7  1  0
  7  8  2  0
  8  9  1  0
  9 10  1  0
 10 11  1  0
 11 12  2  0
 12 13  1  0
 13 14  2  0
 14 15  1  0
 15 16  1  0
 16 17  1  0
 17 18  2  0
 18 19  1  0
 19 20  2  0
 14 21  1  0
  9 22  2  0
 22 23  1  0
  6 24  1  0
 24  2  1  0
 23  7  1  0
 21 10  2  0
 20 16  1  0
  1 25  1  0
  1 26  1  0
  1 27  1  0
  2 28  1  0
  3 29  1  0
  3 30  1  0
  4 31  1  0
  4 32  1  0
  5 33  1  0
  5 34  1  0
  6 35  1  0
 11 36  1  0
 12 37  1  0
 13 38  1  0
 15 39  1  0
 15 40  1  0
 17 41  1  0
 18 42  1  0
 20 43  1  0
 21 44  1  0
 24 45  1  0
 24 46  1  0
M  END
$$$$
OCNT-2316569
     RDKit          3D

 54 57  0  0  0  0  0  0  0  0999 V2000
    7.5783    1.9050   -0.6695 C   0  0  0  0  0  0  0  0  0  0  0  0
    6.5388    0.8812   -0.9618 C   0  0  0  0  0  0  0  0  0  0  0  0
    6.2929    0.2064   -2.1404 C   0  0  0  0  0  0  0  0  0  0  0  0
    5.2141   -0.6752   -1.9131 C   0  0  0  0  0  0  0  0  0  0  0  0
    4.8326   -0.5533   -0.5901 C   0  0  0  0  0  0  0  0  0  0  0  0
    3.8102   -1.3083    0.0738 C   0  0  0  0  0  0  0  0  0  0  0  0
    2.6288   -1.4926   -0.4718 N   0  0  0  0  0  0  0  0  0  0  0  0
    1.8446   -2.3052    0.3424 C   0  0  0  0  0  0  0  0  0  0  0  0
    0.4839   -2.6865   -0.0432 C   0  0  0  0  0  0  0  0  0  0  0  0
    0.2898   -3.3997   -1.0244 O   0  0  0  0  0  0  0  0  0  0  0  0
   -0.5719   -2.2384    0.7720 N   0  0  0  0  0  0  0  0  0  0  0  0
   -0.4647   -1.0695    1.6401 C   0  0  0  0  0  0  0  0  0  0  0  0
   -0.9931    0.2100    0.9912 C   0  0  0  0  0  0  0  0  0  0  0  0
   -2.5250    0.2356    0.9109 C   0  0  0  0  0  0  0  0  0  0  0  0
   -3.1487   -0.4370   -0.2394 N   0  0  0  0  0  0  0  0  0  0  0  0
   -4.5924   -0.6520   -0.0373 C   0  0  0  0  0  0  0  0  0  0  0  0
   -5.3198    0.6461    0.0754 C   0  0  0  0  0  0  0  0  0  0  0  0
   -5.3760    1.6880   -0.8326 C   0  0  0  0  0  0  0  0  0  0  0  0
   -6.1637    2.6475   -0.2724 N   0  0  0  0  0  0  0  0  0  0  0  0
   -6.5211    3.9259   -0.8400 C   0  0  0  0  0  0  0  0  0  0  0  0
   -6.6455    2.3040    0.9372 N   0  0  0  0  0  0  0  0  0  0  0  0
   -6.1369    1.0863    1.1436 C   0  0  0  0  0  0  0  0  0  0  0  0
   -2.4865   -1.6655   -0.7140 C   0  0  0  0  0  0  0  0  0  0  0  0
   -1.9233   -2.6150    0.3591 C   0  0  0  0  0  0  0  0  0  0  0  0
    2.4732   -2.7376    1.4983 C   0  0  0  0  0  0  0  0  0  0  0  0
    4.0613   -2.1030    1.5763 S   0  0  0  0  0  0  0  0  0  0  0  0
    5.6045    0.4512   -0.0377 N   0  0  0  0  0  0  0  0  0  0  0  0
    5.4357    1.0199    1.2850 C   0  0  0  0  0  0  0  0  0  0  0  0
    8.3315    1.9322   -1.4627 H   0  0  0  0  0  0  0  0  0  0  0  0
    7.1303    2.8992   -0.5992 H   0  0  0  0  0  0  0  0  0  0  0  0
    8.0938    1.6824    0.2689 H   0  0  0  0  0  0  0  0  0  0  0  0
    6.8368    0.3341   -3.0664 H   0  0  0  0  0  0  0  0  0  0  0  0
    4.7695   -1.3567   -2.6272 H   0  0  0  0  0  0  0  0  0  0  0  0
   -1.0135   -1.2932    2.5637 H   0  0  0  0  0  0  0  0  0  0  0  0
    0.5715   -0.8965    1.9335 H   0  0  0  0  0  0  0  0  0  0  0  0
   -0.6826    1.0530    1.6227 H   0  0  0  0  0  0  0  0  0  0  0  0
   -0.5416    0.3787    0.0046 H   0  0  0  0  0  0  0  0  0  0  0  0
   -2.9282   -0.1611    1.8525 H   0  0  0  0  0  0  0  0  0  0  0  0
   -2.8139    1.2938    0.8735 H   0  0  0  0  0  0  0  0  0  0  0  0
   -5.0218   -1.1785   -0.9000 H   0  0  0  0  0  0  0  0  0  0  0  0
   -4.7763   -1.2795    0.8448 H   0  0  0  0  0  0  0  0  0  0  0  0
   -4.9106    1.8142   -1.8009 H   0  0  0  0  0  0  0  0  0  0  0  0
   -6.0533    4.0354   -1.8219 H   0  0  0  0  0  0  0  0  0  0  0  0
   -7.6076    3.9635   -0.9409 H   0  0  0  0  0  0  0  0  0  0  0  0
   -6.1717    4.7140   -0.1678 H   0  0  0  0  0  0  0  0  0  0  0  0
   -6.3736    0.5708    2.0672 H   0  0  0  0  0  0  0  0  0  0  0  0
   -3.1775   -2.2355   -1.3485 H   0  0  0  0  0  0  0  0  0  0  0  0
   -1.6812   -1.3604   -1.3936 H   0  0  0  0  0  0  0  0  0  0  0  0
   -1.8929   -3.6299   -0.0506 H   0  0  0  0  0  0  0  0  0  0  0  0
   -2.5660   -2.6622    1.2447 H   0  0  0  0  0  0  0  0  0  0  0  0
    2.0796   -3.3816    2.2708 H   0  0  0  0  0  0  0  0  0  0  0  0
    4.3832    0.9697    1.5775 H   0  0  0  0  0  0  0  0  0  0  0  0
    6.0617    0.4551    1.9816 H   0  0  0  0  0  0  0  0  0  0  0  0
    5.7343    2.0708    1.2712 H   0  0  0  0  0  0  0  0  0  0  0  0
  1  2  1  0
  2  3  2  0
  3  4  1  0
  4  5  2  0
  5  6  1  0
  6  7  2  0
  7  8  1  0
  8  9  1  0
  9 10  2  0
  9 11  1  0
 11 12  1  0
 12 13  1  0
 13 14  1  0
 14 15  1  0
 15 16  1  0
 16 17  1  0
 17 18  2  0
 18 19  1  0
 19 20  1  0
 19 21  1  0
 21 22  2  0
 15 23  1  0
 23 24  1  0
  8 25  2  0
 25 26  1  0
  5 27  1  0
 27 28  1  0
 27  2  1  0
 26  6  1  0
 24 11  1  0
 22 17  1  0
  1 29  1  0
  1 30  1  0
  1 31  1  0
  3 32  1  0
  4 33  1  0
 12 34  1  0
 12 35  1  0
 13 36  1  0
 13 37  1  0
 14 38  1  0
 14 39  1  0
 16 40  1  0
 16 41  1  0
 18 42  1  0
 20 43  1  0
 20 44  1  0
 20 45  1  0
 22 46  1  0
 23 47  1  0
 23 48  1  0
 24 49  1  0
 24 50  1  0
 25 51  1  0
 28 52  1  0
 28 53  1  0
 28 54  1  0
M  END
$$$$
OCNT-2316570
     RDKit          3D

 53 54  0  0  0  0  0  0  0  0999 V2000
    2.9811   -0.0054    3.0252 C   0  0  0  0  0  0  0  0  0  0  0  0
    3.1431   -0.8078    1.7303 C   0  0  0  0  0  0  0  0  0  0  0  0
    4.6425   -0.9530    1.4283 C   0  0  0  0  0  0  0  0  0  0  0  0
    2.5338   -2.2097    1.8407 C   0  0  0  0  0  0  0  0  0  0  0  0
    2.6118   -0.0842    0.5929 O   0  0  0  0  0  0  0  0  0  0  0  0
    1.2907    0.2268    0.5186 C   0  0  0  0  0  0  0  0  0  0  0  0
    0.4672   -0.0963    1.3597 O   0  0  0  0  0  0  0  0  0  0  0  0
    0.9881    0.9293   -0.6441 N   0  0  0  0  0  0  0  0  0  0  0  0
    1.8787    0.8820   -1.7947 C   0  0  0  0  0  0  0  0  0  0  0  0
    1.5131   -0.3132   -2.6751 C   0  0  0  0  0  0  0  0  0  0  0  0
    0.0128   -0.3615   -3.0174 C   0  0  0  0  0  0  0  0  0  0  0  0
   -0.9676   -0.0623   -1.8411 C   0  0  0  0  0  0  0  0  0  0  0  0
   -1.4127   -1.3059   -1.0792 C   0  0  0  0  0  0  0  0  0  0  0  0
   -0.5295   -2.3072   -0.6535 C   0  0  0  0  0  0  0  0  0  0  0  0
   -0.9865   -3.4346    0.0358 C   0  0  0  0  0  0  0  0  0  0  0  0
   -2.3401   -3.5874    0.3086 C   0  0  0  0  0  0  0  0  0  0  0  0
   -3.2395   -2.6145   -0.1139 C   0  0  0  0  0  0  0  0  0  0  0  0
   -2.7799   -1.4879   -0.8024 C   0  0  0  0  0  0  0  0  0  0  0  0
   -0.4220    1.1294   -1.0048 C   0  0  0  0  0  0  0  0  0  0  0  0
   -1.3153    1.7738    0.0926 C   0  0  0  0  0  0  0  0  0  0  0  0
   -0.8591    2.4092    1.0461 O   0  0  0  0  0  0  0  0  0  0  0  0
   -2.6759    1.7595   -0.1571 N   0  0  0  0  0  0  0  0  0  0  0  0
   -3.5621    2.5189    0.7034 C   0  0  0  0  0  0  0  0  0  0  0  0
   -3.5908    3.9592    0.1986 C   0  0  0  0  0  0  0  0  0  0  0  0
   -3.4336    4.9258    1.1509 N   0  0  0  0  0  0  0  0  0  0  0  0
   -3.7332    4.2528   -0.9869 O   0  0  0  0  0  0  0  0  0  0  0  0
    3.3137    1.0305    2.8842 H   0  0  0  0  0  0  0  0  0  0  0  0
    3.5598   -0.4488    3.8443 H   0  0  0  0  0  0  0  0  0  0  0  0
    1.9374    0.0418    3.3507 H   0  0  0  0  0  0  0  0  0  0  0  0
    5.1613   -1.5070    2.2166 H   0  0  0  0  0  0  0  0  0  0  0  0
    5.1177    0.0290    1.3257 H   0  0  0  0  0  0  0  0  0  0  0  0
    4.7992   -1.4762    0.4782 H   0  0  0  0  0  0  0  0  0  0  0  0
    1.4791   -2.1776    2.1307 H   0  0  0  0  0  0  0  0  0  0  0  0
    2.5797   -2.7320    0.8769 H   0  0  0  0  0  0  0  0  0  0  0  0
    3.0574   -2.8143    2.5901 H   0  0  0  0  0  0  0  0  0  0  0  0
    1.7635    1.8183   -2.3540 H   0  0  0  0  0  0  0  0  0  0  0  0
    2.9271    0.8219   -1.4926 H   0  0  0  0  0  0  0  0  0  0  0  0
    2.0957   -0.2719   -3.6020 H   0  0  0  0  0  0  0  0  0  0  0  0
    1.8106   -1.2388   -2.1738 H   0  0  0  0  0  0  0  0  0  0  0  0
   -0.1586    0.4079   -3.7831 H   0  0  0  0  0  0  0  0  0  0  0  0
   -0.2275   -1.3183   -3.4953 H   0  0  0  0  0  0  0  0  0  0  0  0
   -1.8769    0.2962   -2.3461 H   0  0  0  0  0  0  0  0  0  0  0  0
    0.5367   -2.2282   -0.8251 H   0  0  0  0  0  0  0  0  0  0  0  0
   -0.2766   -4.1872    0.3718 H   0  0  0  0  0  0  0  0  0  0  0  0
   -2.6905   -4.4580    0.8533 H   0  0  0  0  0  0  0  0  0  0  0  0
   -4.2986   -2.7261    0.0977 H   0  0  0  0  0  0  0  0  0  0  0  0
   -3.5143   -0.7511   -1.1198 H   0  0  0  0  0  0  0  0  0  0  0  0
   -0.3810    1.9692   -1.7209 H   0  0  0  0  0  0  0  0  0  0  0  0
   -2.9779    1.6719   -1.1179 H   0  0  0  0  0  0  0  0  0  0  0  0
   -4.5663    2.0951    0.6169 H   0  0  0  0  0  0  0  0  0  0  0  0
   -3.2335    2.4601    1.7468 H   0  0  0  0  0  0  0  0  0  0  0  0
   -2.8435    4.7020    1.9410 H   0  0  0  0  0  0  0  0  0  0  0  0
   -3.3089    5.8555    0.7700 H   0  0  0  0  0  0  0  0  0  0  0  0
  1  2  1  0
  2  3  1  0
  2  4  1  0
  2  5  1  0
  5  6  1  0
  6  7  2  0
  6  8  1  0
  8  9  1  0
  9 10  1  0
 10 11  1  0
 11 12  1  0
 12 13  1  0
 13 14  2  0
 14 15  1  0
 15 16  2  0
 16 17  1  0
 17 18  2  0
 12 19  1  0
 19 20  1  0
 20 21  2  0
 20 22  1  0
 22 23  1  0
 23 24  1  0
 24 25  1  0
 24 26  2  0
 19  8  1  0
 18 13  1  0
  1 27  1  0
  1 28  1  0
  1 29  1  0
  3 30  1  0
  3 31  1  0
  3 32  1  0
  4 33  1  0
  4 34  1  0
  4 35  1  0
  9 36  1  0
  9 37  1  0
 10 38  1  0
 10 39  1  0
 11 40  1  0
 11 41  1  0
 12 42  1  0
 14 43  1  0
 15 44  1  0
 16 45  1  0
 17 46  1  0
 18 47  1  0
 19 48  1  0
 22 49  1  0
 23 50  1  0
 23 51  1  0
 25 52  1  0
 25 53  1  0
M  END
$$$$
OCNT-2316573
     RDKit          3D

 45 47  0  0  0  0  0  0  0  0999 V2000
    1.9034    0.7744    2.4730 C   0  0  0  0  0  0  0  0  0  0  0  0
    2.7011    0.1316    1.3977 C   0  0  0  0  0  0  0  0  0  0  0  0
    2.3636   -0.8112    0.4491 C   0  0  0  0  0  0  0  0  0  0  0  0
    0.7890   -1.5514    0.2620 S   0  0  0  0  0  0  0  0  0  0  0  0
    0.1968   -0.6995   -1.2380 C   0  0  0  0  0  0  0  0  0  0  0  0
   -0.1105    0.7980   -1.0553 C   0  0  0  0  0  0  0  0  0  0  0  0
   -1.0615    1.1762   -0.0041 N   0  0  0  0  0  0  0  0  0  0  0  0
   -2.3957    0.5562   -0.0693 C   0  0  0  0  0  0  0  0  0  0  0  0
   -3.0684    0.8667    1.2826 C   0  0  0  0  0  0  0  0  0  0  0  0
   -4.2055   -0.0728    1.6838 C   0  0  0  0  0  0  0  0  0  0  0  0
   -5.0907   -0.5854    0.5611 C   0  0  0  0  0  0  0  0  0  0  0  0
   -5.4033    0.4405   -0.3713 O   0  0  0  0  0  0  0  0  0  0  0  0
   -4.5409    0.4419   -1.5016 C   0  0  0  0  0  0  0  0  0  0  0  0
   -3.2082    1.1346   -1.2425 C   0  0  0  0  0  0  0  0  0  0  0  0
    3.5149   -1.0897   -0.3422 C   0  0  0  0  0  0  0  0  0  0  0  0
    3.7995   -1.9525   -1.4225 C   0  0  0  0  0  0  0  0  0  0  0  0
    5.0826   -1.9612   -1.9814 C   0  0  0  0  0  0  0  0  0  0  0  0
    6.0798   -1.1288   -1.4797 C   0  0  0  0  0  0  0  0  0  0  0  0
    5.8278   -0.2687   -0.4070 C   0  0  0  0  0  0  0  0  0  0  0  0
    4.5390   -0.2732    0.1406 C   0  0  0  0  0  0  0  0  0  0  0  0
    4.0212    0.4510    1.1909 N   0  0  0  0  0  0  0  0  0  0  0  0
    1.2861    0.0373    2.9962 H   0  0  0  0  0  0  0  0  0  0  0  0
    1.2461    1.5411    2.0517 H   0  0  0  0  0  0  0  0  0  0  0  0
    2.5490    1.2529    3.2168 H   0  0  0  0  0  0  0  0  0  0  0  0
    0.9420   -0.8191   -2.0321 H   0  0  0  0  0  0  0  0  0  0  0  0
   -0.6995   -1.2255   -1.5828 H   0  0  0  0  0  0  0  0  0  0  0  0
    0.8290    1.3234   -0.8456 H   0  0  0  0  0  0  0  0  0  0  0  0
   -0.4483    1.2000   -2.0173 H   0  0  0  0  0  0  0  0  0  0  0  0
   -1.1498    2.1916    0.0280 H   0  0  0  0  0  0  0  0  0  0  0  0
   -2.2972   -0.5296   -0.1668 H   0  0  0  0  0  0  0  0  0  0  0  0
   -2.3280    0.8251    2.0941 H   0  0  0  0  0  0  0  0  0  0  0  0
   -3.4419    1.8999    1.2804 H   0  0  0  0  0  0  0  0  0  0  0  0
   -4.8299    0.4616    2.4114 H   0  0  0  0  0  0  0  0  0  0  0  0
   -3.7947   -0.9371    2.2202 H   0  0  0  0  0  0  0  0  0  0  0  0
   -6.0356   -0.9365    0.9909 H   0  0  0  0  0  0  0  0  0  0  0  0
   -4.6371   -1.4540    0.0685 H   0  0  0  0  0  0  0  0  0  0  0  0
   -4.3913   -0.5767   -1.8798 H   0  0  0  0  0  0  0  0  0  0  0  0
   -5.0631    0.9892   -2.2946 H   0  0  0  0  0  0  0  0  0  0  0  0
   -3.3972    2.2004   -1.0570 H   0  0  0  0  0  0  0  0  0  0  0  0
   -2.6340    1.0767   -2.1738 H   0  0  0  0  0  0  0  0  0  0  0  0
    3.0308   -2.6114   -1.8154 H   0  0  0  0  0  0  0  0  0  0  0  0
    5.3012   -2.6279   -2.8117 H   0  0  0  0  0  0  0  0  0  0  0  0
    7.0718   -1.1510   -1.9252 H   0  0  0  0  0  0  0  0  0  0  0  0
    6.6093    0.3737   -0.0148 H   0  0  0  0  0  0  0  0  0  0  0  0
    4.5484    1.1193    1.7352 H   0  0  0  0  0  0  0  0  0  0  0  0
  1  2  1  0
  2  3  2  0
  3  4  1  0
  4  5  1  0
  5  6  1  0
  6  7  1  0
  7  8  1  0
  8  9  1  0
  9 10  1  0
 10 11  1  0
 11 12  1  0
 12 13  1  0
 13 14  1  0
  3 15  1  0
 15 16  2  0
 16 17  1  0
 17 18  2  0
 18 19  1  0
 19 20  2  0
 20 21  1  0
 21  2  1  0
 14  8  1  0
 20 15  1  0
  1 22  1  0
  1 23  1  0
  1 24  1  0
  5 25  1  0
  5 26  1  0
  6 27  1  0
  6 28  1  0
  7 29  1  0
  8 30  1  0
  9 31  1  0
  9 32  1  0
 10 33  1  0
 10 34  1  0
 11 35  1  0
 11 36  1  0
 13 37  1  0
 13 38  1  0
 14 39  1  0
 14 40  1  0
 16 41  1  0
 17 42  1  0
 18 43  1  0
 19 44  1  0
 21 45  1  0
M  END
$$$$
OCNT-2316587
     RDKit          3D

 49 50  0  0  0  0  0  0  0  0999 V2000
   -2.4366    2.6282   -0.9202 C   0  0  0  0  0  0  0  0  0  0  0  0
   -2.6860    1.4724   -1.8761 C   0  0  0  0  0  0  0  0  0  0  0  0
   -1.8762    0.2141   -1.5475 C   0  0  0  0  0  0  0  0  0  0  0  0
   -2.1510   -0.4366   -0.1728 C   0  0  0  0  0  0  0  0  0  0  0  0
   -1.1398   -1.4807    0.0786 N   0  0  0  0  0  0  0  0  0  0  0  0
   -0.1195   -1.0987    1.0566 C   0  0  0  0  0  0  0  0  0  0  0  0
    0.9169   -0.1450    0.5429 C   0  0  0  0  0  0  0  0  0  0  0  0
    1.9683   -0.5193   -0.1990 C   0  0  0  0  0  0  0  0  0  0  0  0
    2.9244    0.3713   -0.6444 N   0  0  0  0  0  0  0  0  0  0  0  0
    4.0740   -0.1292   -1.4085 C   0  0  0  0  0  0  0  0  0  0  0  0
    5.1226   -0.8200   -0.5267 C   0  0  0  0  0  0  0  0  0  0  0  0
    5.7055    0.1186    0.3763 O   0  0  0  0  0  0  0  0  0  0  0  0
    6.6921   -0.4816    1.2032 C   0  0  0  0  0  0  0  0  0  0  0  0
    2.8576    1.7273   -0.3449 C   0  0  0  0  0  0  0  0  0  0  0  0
    3.6569    2.5749   -0.7346 O   0  0  0  0  0  0  0  0  0  0  0  0
    1.7910    2.1024    0.4291 N   0  0  0  0  0  0  0  0  0  0  0  0
    0.8275    1.2802    0.9371 C   0  0  0  0  0  0  0  0  0  0  0  0
   -0.0558    1.7035    1.6748 O   0  0  0  0  0  0  0  0  0  0  0  0
   -3.5260   -1.1237   -0.1583 C   0  0  0  0  0  0  0  0  0  0  0  0
   -4.7976   -0.2503    0.0592 C   0  0  0  0  0  0  0  0  0  0  0  0
   -5.3713   -1.4108    0.8940 C   0  0  0  0  0  0  0  0  0  0  0  0
   -3.9172   -1.8255    1.1796 C   0  0  0  0  0  0  0  0  0  0  0  0
   -2.7988    2.4061    0.0872 H   0  0  0  0  0  0  0  0  0  0  0  0
   -2.9620    3.5229   -1.2695 H   0  0  0  0  0  0  0  0  0  0  0  0
   -1.3699    2.8658   -0.8615 H   0  0  0  0  0  0  0  0  0  0  0  0
   -3.7550    1.2490   -1.9176 H   0  0  0  0  0  0  0  0  0  0  0  0
   -2.4076    1.7991   -2.8860 H   0  0  0  0  0  0  0  0  0  0  0  0
   -0.8158    0.4846   -1.6231 H   0  0  0  0  0  0  0  0  0  0  0  0
   -2.0583   -0.5211   -2.3430 H   0  0  0  0  0  0  0  0  0  0  0  0
   -2.1246    0.3168    0.6209 H   0  0  0  0  0  0  0  0  0  0  0  0
   -0.7182   -1.8047   -0.7883 H   0  0  0  0  0  0  0  0  0  0  0  0
   -0.5866   -0.7365    1.9804 H   0  0  0  0  0  0  0  0  0  0  0  0
    0.3896   -2.0233    1.3595 H   0  0  0  0  0  0  0  0  0  0  0  0
    2.1020   -1.5590   -0.4854 H   0  0  0  0  0  0  0  0  0  0  0  0
    3.7013   -0.8303   -2.1649 H   0  0  0  0  0  0  0  0  0  0  0  0
    4.5450    0.7048   -1.9407 H   0  0  0  0  0  0  0  0  0  0  0  0
    5.9087   -1.2354   -1.1676 H   0  0  0  0  0  0  0  0  0  0  0  0
    4.6668   -1.6378    0.0431 H   0  0  0  0  0  0  0  0  0  0  0  0
    7.5073   -0.8857    0.5954 H   0  0  0  0  0  0  0  0  0  0  0  0
    6.2490   -1.2739    1.8142 H   0  0  0  0  0  0  0  0  0  0  0  0
    7.0986    0.2857    1.8675 H   0  0  0  0  0  0  0  0  0  0  0  0
    1.7454    3.0769    0.6802 H   0  0  0  0  0  0  0  0  0  0  0  0
   -3.6447   -1.8066   -1.0142 H   0  0  0  0  0  0  0  0  0  0  0  0
   -4.6297    0.6637    0.6401 H   0  0  0  0  0  0  0  0  0  0  0  0
   -5.3710   -0.0045   -0.8380 H   0  0  0  0  0  0  0  0  0  0  0  0
   -5.9652   -1.1234    1.7649 H   0  0  0  0  0  0  0  0  0  0  0  0
   -5.9322   -2.1446    0.3038 H   0  0  0  0  0  0  0  0  0  0  0  0
   -3.7343   -2.9025    1.2228 H   0  0  0  0  0  0  0  0  0  0  0  0
   -3.4998   -1.3577    2.0794 H   0  0  0  0  0  0  0  0  0  0  0  0
  1  2  1  0
  2  3  1  0
  3  4  1  0
  4  5  1  0
  5  6  1  0
  6  7  1  0
  7  8  2  0
  8  9  1  0
  9 10  1  0
 10 11  1  0
 11 12  1  0
 12 13  1  0
  9 14  1  0
 14 15  2  0
 14 16  1  0
 16 17  1  0
 17 18  2  0
  4 19  1  0
 19 20  1  0
 20 21  1  0
 21 22  1  0
 17  7  1  0
 22 19  1  0
  1 23  1  0
  1 24  1  0
  1 25  1  0
  2 26  1  0
  2 27  1  0
  3 28  1  0
  3 29  1  0
  4 30  1  0
  5 31  1  0
  6 32  1  0
  6 33  1  0
  8 34  1  0
 10 35  1  0
 10 36  1  0
 11 37  1  0
 11 38  1  0
 13 39  1  0
 13 40  1  0
 13 41  1  0
 16 42  1  0
 19 43  1  0
 20 44  1  0
 20 45  1  0
 21 46  1  0
 21 47  1  0
 22 48  1  0
 22 49  1  0
M  END
$$$$
OCNT-2316594
     RDKit          3D

 39 41  0  0  0  0  0  0  0  0999 V2000
    6.1528    1.0315   -1.4714 C   0  0  0  0  0  0  0  0  0  0  0  0
    5.8721    0.7428   -0.0904 N   0  0  0  0  0  0  0  0  0  0  0  0
    6.8544    0.8354    0.8221 N   0  0  0  0  0  0  0  0  0  0  0  0
    6.3324    0.5266    2.0003 N   0  0  0  0  0  0  0  0  0  0  0  0
    5.0087    0.2374    1.8141 C   0  0  0  0  0  0  0  0  0  0  0  0
    4.6819    0.3639    0.4796 C   0  0  0  0  0  0  0  0  0  0  0  0
    3.5065    0.1800   -0.2267 N   0  0  0  0  0  0  0  0  0  0  0  0
    2.3040   -0.0875    0.3982 C   0  0  0  0  0  0  0  0  0  0  0  0
    2.1089   -0.1326    1.6051 O   0  0  0  0  0  0  0  0  0  0  0  0
    1.3066   -0.2935   -0.5383 N   0  0  0  0  0  0  0  0  0  0  0  0
   -0.0338   -0.6277   -0.0784 C   0  0  0  0  0  0  0  0  0  0  0  0
   -1.0524   -0.5566   -1.2157 C   0  0  0  0  0  0  0  0  0  0  0  0
   -2.4379   -0.9515   -0.7654 C   0  0  0  0  0  0  0  0  0  0  0  0
   -2.9095   -2.2504   -1.0147 C   0  0  0  0  0  0  0  0  0  0  0  0
   -4.1782   -2.6430   -0.5829 C   0  0  0  0  0  0  0  0  0  0  0  0
   -4.9948   -1.7416    0.0973 C   0  0  0  0  0  0  0  0  0  0  0  0
   -4.5437   -0.4473    0.3451 C   0  0  0  0  0  0  0  0  0  0  0  0
   -3.2612   -0.0566   -0.0642 C   0  0  0  0  0  0  0  0  0  0  0  0
   -2.7590    1.1975    0.1886 O   0  0  0  0  0  0  0  0  0  0  0  0
   -3.5069    1.8684    1.2080 C   0  0  0  0  0  0  0  0  0  0  0  0
   -4.9953    1.7494    0.9344 C   0  0  0  0  0  0  0  0  0  0  0  0
   -5.4132    0.3826    1.0071 O   0  0  0  0  0  0  0  0  0  0  0  0
    7.2116    1.2759   -1.5904 H   0  0  0  0  0  0  0  0  0  0  0  0
    5.9088    0.1483   -2.0669 H   0  0  0  0  0  0  0  0  0  0  0  0
    5.5396    1.8824   -1.7781 H   0  0  0  0  0  0  0  0  0  0  0  0
    4.3749   -0.0437    2.6432 H   0  0  0  0  0  0  0  0  0  0  0  0
    3.4730    0.3939   -1.2114 H   0  0  0  0  0  0  0  0  0  0  0  0
    1.6184   -0.7883   -1.3603 H   0  0  0  0  0  0  0  0  0  0  0  0
   -0.3030    0.0557    0.7355 H   0  0  0  0  0  0  0  0  0  0  0  0
    0.0075   -1.6385    0.3455 H   0  0  0  0  0  0  0  0  0  0  0  0
   -1.0752    0.4532   -1.6454 H   0  0  0  0  0  0  0  0  0  0  0  0
   -0.7332   -1.2091   -2.0392 H   0  0  0  0  0  0  0  0  0  0  0  0
   -2.2882   -2.9700   -1.5439 H   0  0  0  0  0  0  0  0  0  0  0  0
   -4.5316   -3.6523   -0.7785 H   0  0  0  0  0  0  0  0  0  0  0  0
   -5.9844   -2.0440    0.4283 H   0  0  0  0  0  0  0  0  0  0  0  0
   -3.2385    1.4382    2.1808 H   0  0  0  0  0  0  0  0  0  0  0  0
   -3.2035    2.9199    1.2041 H   0  0  0  0  0  0  0  0  0  0  0  0
   -5.5643    2.3105    1.6823 H   0  0  0  0  0  0  0  0  0  0  0  0
   -5.2544    2.1405   -0.0572 H   0  0  0  0  0  0  0  0  0  0  0  0
  1  2  1  0
  2  3  1  0
  3  4  2  0
  4  5  1  0
  5  6  2  0
  6  7  1  0
  7  8  1  0
  8  9  2  0
  8 10  1  0
 10 11  1  0
 11 12  1  0
 12 13  1  0
 13 14  2  0
 14 15  1  0
 15 16  2  0
 16 17  1  0
 17 18  2  0
 18 19  1  0
 19 20  1  0
 20 21  1  0
 21 22  1  0
  6  2  1  0
 18 13  1  0
 22 17  1  0
  1 23  1  0
  1 24  1  0
  1 25  1  0
  5 26  1  0
  7 27  1  0
 10 28  1  0
 11 29  1  0
 11 30  1  0
 12 31  1  0
 12 32  1  0
 14 33  1  0
 15 34  1  0
 16 35  1  0
 20 36  1  0
 20 37  1  0
 21 38  1  0
 21 39  1  0
M  END
$$$$
OCNT-2316612
     RDKit          3D

 43 45  0  0  0  0  0  0  0  0999 V2000
    5.3659   -0.5143    0.0943 C   0  0  0  0  0  0  0  0  0  0  0  0
    4.0306   -0.9972    0.0126 O   0  0  0  0  0  0  0  0  0  0  0  0
    3.2071   -0.5730    1.1012 C   0  0  0  0  0  0  0  0  0  0  0  0
    2.8140    0.9068    1.0150 C   0  0  0  0  0  0  0  0  0  0  0  0
    2.3954    1.4397   -0.3553 C   0  0  0  0  0  0  0  0  0  0  0  0
    1.6116    0.5003   -1.2670 C   0  0  0  0  0  0  0  0  0  0  0  0
    0.6262   -0.2862   -0.5027 N   0  0  0  0  0  0  0  0  0  0  0  0
   -0.6017   -0.4488   -1.2093 C   0  0  0  0  0  0  0  0  0  0  0  0
   -0.6405   -1.0089   -2.4890 C   0  0  0  0  0  0  0  0  0  0  0  0
   -1.8661   -1.1581   -3.1064 C   0  0  0  0  0  0  0  0  0  0  0  0
   -3.0400   -0.8003   -2.5478 N   0  0  0  0  0  0  0  0  0  0  0  0
   -3.0154   -0.2664   -1.3149 C   0  0  0  0  0  0  0  0  0  0  0  0
   -4.2181    0.0992   -0.7240 C   0  0  0  0  0  0  0  0  0  0  0  0
   -4.2876    0.6586    0.5578 C   0  0  0  0  0  0  0  0  0  0  0  0
   -5.5532    0.9503    0.9806 O   0  0  0  0  0  0  0  0  0  0  0  0
   -5.7086    1.4918    2.2809 C   0  0  0  0  0  0  0  0  0  0  0  0
   -5.0834    2.6834    2.3907 F   0  0  0  0  0  0  0  0  0  0  0  0
   -5.2368    0.6461    3.2224 F   0  0  0  0  0  0  0  0  0  0  0  0
   -7.0251    1.6868    2.5154 F   0  0  0  0  0  0  0  0  0  0  0  0
   -3.1107    0.8647    1.2674 C   0  0  0  0  0  0  0  0  0  0  0  0
   -1.8889    0.5050    0.6951 C   0  0  0  0  0  0  0  0  0  0  0  0
   -1.8206   -0.0651   -0.5945 C   0  0  0  0  0  0  0  0  0  0  0  0
    1.1425   -1.6040   -0.0732 C   0  0  0  0  0  0  0  0  0  0  0  0
    1.9799   -1.4866    1.1957 C   0  0  0  0  0  0  0  0  0  0  0  0
    5.8331   -0.8264    1.0342 H   0  0  0  0  0  0  0  0  0  0  0  0
    5.3949    0.5750    0.0007 H   0  0  0  0  0  0  0  0  0  0  0  0
    5.9347   -0.9451   -0.7347 H   0  0  0  0  0  0  0  0  0  0  0  0
    3.7632   -0.7183    2.0375 H   0  0  0  0  0  0  0  0  0  0  0  0
    2.0136    1.1085    1.7396 H   0  0  0  0  0  0  0  0  0  0  0  0
    3.6614    1.5177    1.3526 H   0  0  0  0  0  0  0  0  0  0  0  0
    3.2874    1.7743   -0.9005 H   0  0  0  0  0  0  0  0  0  0  0  0
    1.7989    2.3465   -0.1873 H   0  0  0  0  0  0  0  0  0  0  0  0
    2.2978   -0.1526   -1.8206 H   0  0  0  0  0  0  0  0  0  0  0  0
    1.1221    1.1299   -2.0232 H   0  0  0  0  0  0  0  0  0  0  0  0
    0.2622   -1.3301   -2.9944 H   0  0  0  0  0  0  0  0  0  0  0  0
   -1.9411   -1.5879   -4.1011 H   0  0  0  0  0  0  0  0  0  0  0  0
   -5.1362   -0.0620   -1.2862 H   0  0  0  0  0  0  0  0  0  0  0  0
   -3.0929    1.2992    2.2621 H   0  0  0  0  0  0  0  0  0  0  0  0
   -0.9723    0.6714    1.2582 H   0  0  0  0  0  0  0  0  0  0  0  0
    0.3102   -2.2826    0.1604 H   0  0  0  0  0  0  0  0  0  0  0  0
    1.7185   -2.0867   -0.8733 H   0  0  0  0  0  0  0  0  0  0  0  0
    2.3253   -2.4977    1.4478 H   0  0  0  0  0  0  0  0  0  0  0  0
    1.3427   -1.1568    2.0264 H   0  0  0  0  0  0  0  0  0  0  0  0
  1  2  1  0
  2  3  1  0
  3  4  1  0
  4  5  1  0
  5  6  1  0
  6  7  1  0
  7  8  1  0
  8  9  2  0
  9 10  1  0
 10 11  2  0
 11 12  1  0
 12 13  2  0
 13 14  1  0
 14 15  1  0
 15 16  1  0
 16 17  1  0
 16 18  1  0
 16 19  1  0
 14 20  2  0
 20 21  1  0
 21 22  2  0
  7 23  1  0
 23 24  1  0
 24  3  1  0
 22  8  1  0
 22 12  1  0
  1 25  1  0
  1 26  1  0
  1 27  1  0
  3 28  1  0
  4 29  1  0
  4 30  1  0
  5 31  1  0
  5 32  1  0
  6 33  1  0
  6 34  1  0
  9 35  1  0
 10 36  1  0
 13 37  1  0
 20 38  1  0
 21 39  1  0
 23 40  1  0
 23 41  1  0
 24 42  1  0
 24 43  1  0
M  END
$$$$
OCNT-2316617
     RDKit          3D

  0  0  0  0  0  0  0  0  0  0999 V3000
M  V30 BEGIN CTAB
M  V30 COUNTS 45 47 0 0 0
M  V30 BEGIN ATOM
M  V30 1 O 3.105595 -0.933991 -3.130249 0
M  V30 2 C 2.588015 -0.929307 -2.020029 0
M  V30 3 C 1.303447 -1.724395 -1.745139 0
M  V30 4 N 0.422962 -1.011744 -0.785436 0
M  V30 5 C -0.237712 0.154110 -1.411005 0
M  V30 6 C -1.421807 0.438687 -0.475604 0 CFG=2
M  V30 7 O -1.080776 1.480087 0.438348 0
M  V30 8 C -1.659222 -0.876456 0.286979 0 CFG=1
M  V30 9 C -3.106685 -1.380130 0.225549 0
M  V30 10 C -4.037655 -0.612444 1.131118 0
M  V30 11 C -4.105801 -0.919576 2.497395 0
M  V30 12 C -4.959077 -0.208417 3.342515 0
M  V30 13 C -5.749325 0.818680 2.831831 0
M  V30 14 C -5.686707 1.135095 1.476386 0
M  V30 15 C -4.835424 0.423362 0.629232 0
M  V30 16 C -0.705996 -1.864719 -0.387836 0
M  V30 17 N 3.031354 -0.264476 -0.890084 0
M  V30 18 C 4.200107 0.506230 -0.737242 0
M  V30 19 C 4.218576 1.406852 0.335388 0
M  V30 20 C 5.331204 2.217805 0.550711 0
M  V30 21 F 5.322971 3.083544 1.572247 0
M  V30 22 C 6.446443 2.145312 -0.273408 0
M  V30 23 C 6.451583 1.234049 -1.325711 0
M  V30 24 C 5.339936 0.417033 -1.549451 0
M  V30 25 F 5.449669 -0.501586 -2.516369 0
M  V30 26 H 0.792910 -1.920584 -2.695382 0
M  V30 27 H 1.619248 -2.684477 -1.319049 0
M  V30 28 H -0.617858 -0.099498 -2.409032 0
M  V30 29 H 0.442425 1.007674 -1.490584 0
M  V30 30 H -2.290699 0.771511 -1.051104 0
M  V30 31 H -0.322662 1.166995 0.961469 0
M  V30 32 H -1.357572 -0.760177 1.337573 0
M  V30 33 H -3.482154 -1.352286 -0.805540 0
M  V30 34 H -3.142745 -2.437456 0.520913 0
M  V30 35 H -3.493127 -1.715974 2.913299 0
M  V30 36 H -5.004990 -0.454307 4.399772 0
M  V30 37 H -6.411125 1.375090 3.489870 0
M  V30 38 H -6.298478 1.940279 1.078358 0
M  V30 39 H -4.797927 0.689533 -0.424006 0
M  V30 40 H -0.390681 -2.649108 0.308438 0
M  V30 41 H -1.178967 -2.340592 -1.257483 0
M  V30 42 H 2.316487 -0.201139 -0.169349 0
M  V30 43 H 3.370522 1.508815 1.005332 0
M  V30 44 H 7.302305 2.785637 -0.085380 0
M  V30 45 H 7.319414 1.136458 -1.970937 0
M  V30 END ATOM
M  V30 BEGIN BOND
M  V30 1 2 1 2
M  V30 2 1 2 3
M  V30 3 1 3 4
M  V30 4 1 4 5
M  V30 5 1 5 6
M  V30 6 1 6 7
M  V30 7 1 6 8
M  V30 8 1 8 9
M  V30 9 1 9 10
M  V30 10 2 10 11
M  V30 11 1 11 12
M  V30 12 2 12 13
M  V30 13 1 13 14
M  V30 14 2 14 15
M  V30 15 1 8 16
M  V30 16 1 2 17
M  V30 17 1 17 18
M  V30 18 1 18 19
M  V30 19 2 19 20
M  V30 20 1 20 21
M  V30 21 1 20 22
M  V30 22 2 22 23
M  V30 23 1 23 24
M  V30 24 1 24 25
M  V30 25 1 16 4
M  V30 26 2 24 18
M  V30 27 1 15 10
M  V30 28 1 3 26
M  V30 29 1 3 27
M  V30 30 1 5 28
M  V30 31 1 5 29
M  V30 32 1 6 30 CFG=3
M  V30 33 1 7 31
M  V30 34 1 8 32 CFG=1
M  V30 35 1 9 33
M  V30 36 1 9 34
M  V30 37 1 11 35
M  V30 38 1 12 36
M  V30 39 1 13 37
M  V30 40 1 14 38
M  V30 41 1 15 39
M  V30 42 1 16 40
M  V30 43 1 16 41
M  V30 44 1 17 42
M  V30 45 1 19 43
M  V30 46 1 22 44
M  V30 47 1 23 45
M  V30 END BOND
M  V30 BEGIN COLLECTION
M  V30 MDLV30/STERAC1 ATOMS=(2 6 8)
M  V30 END COLLECTION
M  V30 END CTAB
M  END
>  <_CXSMILES_Data>  (1119) 
|&1:5,7|

$$$$
OCNT-2316619
     RDKit          3D

 47 50  0  0  0  0  0  0  0  0999 V2000
    0.7115   -2.5347    0.9756 C   0  0  0  0  0  0  0  0  0  0  0  0
   -0.2037   -1.4656    0.3495 C   0  0  0  0  0  0  0  0  0  0  0  0
   -1.4666   -1.3358    1.2627 C   0  0  0  0  0  0  0  0  0  0  0  0
   -2.5885   -0.4333    0.7877 C   0  0  0  0  0  0  0  0  0  0  0  0
   -2.4996    0.9567    0.9309 C   0  0  0  0  0  0  0  0  0  0  0  0
   -3.5355    1.7867    0.4959 C   0  0  0  0  0  0  0  0  0  0  0  0
   -4.6892    1.2421   -0.0819 C   0  0  0  0  0  0  0  0  0  0  0  0
   -5.7874    2.1389   -0.5882 C   0  0  0  0  0  0  0  0  0  0  0  0
   -7.0185    1.5544   -0.5508 F   0  0  0  0  0  0  0  0  0  0  0  0
   -5.9078    3.2953    0.1237 F   0  0  0  0  0  0  0  0  0  0  0  0
   -4.7813   -0.1484   -0.2240 C   0  0  0  0  0  0  0  0  0  0  0  0
   -3.7441   -0.9771    0.2113 C   0  0  0  0  0  0  0  0  0  0  0  0
   -0.5740   -1.9228   -1.0847 C   0  0  0  0  0  0  0  0  0  0  0  0
   -0.3469   -0.7029   -1.9632 C   0  0  0  0  0  0  0  0  0  0  0  0
    0.7892    0.0123   -1.2611 C   0  0  0  0  0  0  0  0  0  0  0  0
    0.4335   -0.1533    0.1381 N   0  0  0  0  0  0  0  0  0  0  0  0
    1.3439    0.4158    1.1274 C   0  0  0  0  0  0  0  0  0  0  0  0
    2.7721   -0.0038    1.0573 C   0  0  0  0  0  0  0  0  0  0  0  0
    3.3478   -1.0117    1.6905 N   0  0  0  0  0  0  0  0  0  0  0  0
    4.6860   -1.0190    1.3699 N   0  0  0  0  0  0  0  0  0  0  0  0
    4.9078   -0.0018    0.5688 C   0  0  0  0  0  0  0  0  0  0  0  0
    6.0763    0.4800   -0.0581 C   0  0  0  0  0  0  0  0  0  0  0  0
    5.9991    1.5750   -0.8248 C   0  0  0  0  0  0  0  0  0  0  0  0
    4.6664    2.2139   -0.9616 C   0  0  0  0  0  0  0  0  0  0  0  0
    3.5619    1.8133   -0.4145 N   0  0  0  0  0  0  0  0  0  0  0  0
    3.7292    0.6851    0.3483 N   0  0  0  0  0  0  0  0  0  0  0  0
    0.2084   -3.5089    0.9990 H   0  0  0  0  0  0  0  0  0  0  0  0
    1.6329   -2.6659    0.3977 H   0  0  0  0  0  0  0  0  0  0  0  0
    0.9792   -2.2875    2.0081 H   0  0  0  0  0  0  0  0  0  0  0  0
   -1.8860   -2.3385    1.4281 H   0  0  0  0  0  0  0  0  0  0  0  0
   -1.1645   -0.9929    2.2624 H   0  0  0  0  0  0  0  0  0  0  0  0
   -1.6157    1.4037    1.3799 H   0  0  0  0  0  0  0  0  0  0  0  0
   -3.4385    2.8642    0.6163 H   0  0  0  0  0  0  0  0  0  0  0  0
   -5.5831    2.4112   -1.6284 H   0  0  0  0  0  0  0  0  0  0  0  0
   -5.6682   -0.5954   -0.6697 H   0  0  0  0  0  0  0  0  0  0  0  0
   -3.8457   -2.0541    0.0957 H   0  0  0  0  0  0  0  0  0  0  0  0
    0.0984   -2.7197   -1.4289 H   0  0  0  0  0  0  0  0  0  0  0  0
   -1.5943   -2.3035   -1.1837 H   0  0  0  0  0  0  0  0  0  0  0  0
   -1.2458   -0.0755   -1.9865 H   0  0  0  0  0  0  0  0  0  0  0  0
   -0.0959   -0.9763   -2.9923 H   0  0  0  0  0  0  0  0  0  0  0  0
    0.8378    1.0640   -1.5590 H   0  0  0  0  0  0  0  0  0  0  0  0
    1.7399   -0.4757   -1.5045 H   0  0  0  0  0  0  0  0  0  0  0  0
    0.9675    0.2065    2.1363 H   0  0  0  0  0  0  0  0  0  0  0  0
    1.2891    1.5089    1.0424 H   0  0  0  0  0  0  0  0  0  0  0  0
    7.0103   -0.0474    0.0977 H   0  0  0  0  0  0  0  0  0  0  0  0
    6.8466    2.0084   -1.3380 H   0  0  0  0  0  0  0  0  0  0  0  0
    4.6461    3.1151   -1.5976 H   0  0  0  0  0  0  0  0  0  0  0  0
  1  2  1  0
  2  3  1  0
  3  4  1  0
  4  5  1  0
  5  6  2  0
  6  7  1  0
  7  8  1  0
  8  9  1  0
  8 10  1  0
  7 11  2  0
 11 12  1  0
  2 13  1  0
 13 14  1  0
 14 15  1  0
 15 16  1  0
 16 17  1  0
 17 18  1  0
 18 19  2  0
 19 20  1  0
 20 21  2  0
 21 22  1  0
 22 23  2  0
 23 24  1  0
 24 25  2  0
 25 26  1  0
 16  2  1  0
 26 18  1  0
 12  4  2  0
 26 21  1  0
  1 27  1  0
  1 28  1  0
  1 29  1  0
  3 30  1  0
  3 31  1  0
  5 32  1  0
  6 33  1  0
  8 34  1  0
 11 35  1  0
 12 36  1  0
 13 37  1  0
 13 38  1  0
 14 39  1  0
 14 40  1  0
 15 41  1  0
 15 42  1  0
 17 43  1  0
 17 44  1  0
 22 45  1  0
 23 46  1  0
 24 47  1  0
M  END
$$$$
OCNT-2316630
     RDKit          3D

 40 42  0  0  0  0  0  0  0  0999 V2000
   -1.2584   -0.4417   -3.0504 O   0  0  0  0  0  0  0  0  0  0  0  0
   -0.7668   -0.5278   -1.6970 C   0  0  0  0  0  0  0  0  0  0  0  0
   -1.9553   -0.8940   -0.7769 C   0  0  0  0  0  0  0  0  0  0  0  0
   -3.0806    0.0435   -1.0116 N   0  0  0  0  0  0  0  0  0  0  0  0
   -2.8690    1.3191   -0.2856 C   0  0  0  0  0  0  0  0  0  0  0  0
   -4.0672    2.2686   -0.4509 C   0  0  0  0  0  0  0  0  0  0  0  0
   -5.2838    1.6561   -0.0022 O   0  0  0  0  0  0  0  0  0  0  0  0
   -5.5216    0.4416   -0.7221 C   0  0  0  0  0  0  0  0  0  0  0  0
   -4.3559   -0.5436   -0.5379 C   0  0  0  0  0  0  0  0  0  0  0  0
    0.3594   -1.5590   -1.6457 C   0  0  0  0  0  0  0  0  0  0  0  0
    1.2720   -1.3127   -0.5512 N   0  0  0  0  0  0  0  0  0  0  0  0
    2.5142   -0.7516   -0.6068 C   0  0  0  0  0  0  0  0  0  0  0  0
    2.9183   -0.7102    0.7095 C   0  0  0  0  0  0  0  0  0  0  0  0
    4.1670   -0.1959    1.2318 C   0  0  0  0  0  0  0  0  0  0  0  0
    4.3773   -0.1303    2.6103 C   0  0  0  0  0  0  0  0  0  0  0  0
    5.5113    0.3366    3.1965 N   0  0  0  0  0  0  0  0  0  0  0  0
    6.4885    0.7567    2.3627 C   0  0  0  0  0  0  0  0  0  0  0  0
    6.3745    0.7292    0.9851 C   0  0  0  0  0  0  0  0  0  0  0  0
    7.3778    1.1566    0.2097 F   0  0  0  0  0  0  0  0  0  0  0  0
    5.2054    0.2500    0.4083 C   0  0  0  0  0  0  0  0  0  0  0  0
    1.9244   -1.2398    1.4954 N   0  0  0  0  0  0  0  0  0  0  0  0
    0.9247   -1.6154    0.7093 N   0  0  0  0  0  0  0  0  0  0  0  0
   -2.1768   -0.1189   -2.9441 H   0  0  0  0  0  0  0  0  0  0  0  0
   -0.3773    0.4643   -1.4488 H   0  0  0  0  0  0  0  0  0  0  0  0
   -2.2868   -1.9044   -1.0619 H   0  0  0  0  0  0  0  0  0  0  0  0
   -1.6688   -0.9272    0.2825 H   0  0  0  0  0  0  0  0  0  0  0  0
   -1.9749    1.8286   -0.6538 H   0  0  0  0  0  0  0  0  0  0  0  0
   -2.7236    1.1182    0.7850 H   0  0  0  0  0  0  0  0  0  0  0  0
   -4.1832    2.5855   -1.4934 H   0  0  0  0  0  0  0  0  0  0  0  0
   -3.9094    3.1672    0.1502 H   0  0  0  0  0  0  0  0  0  0  0  0
   -6.4490    0.0009   -0.3388 H   0  0  0  0  0  0  0  0  0  0  0  0
   -5.6804    0.6784   -1.7823 H   0  0  0  0  0  0  0  0  0  0  0  0
   -4.5809   -1.4545   -1.1028 H   0  0  0  0  0  0  0  0  0  0  0  0
   -4.2727   -0.8129    0.5240 H   0  0  0  0  0  0  0  0  0  0  0  0
    0.9459   -1.5334   -2.5738 H   0  0  0  0  0  0  0  0  0  0  0  0
   -0.0229   -2.5832   -1.5441 H   0  0  0  0  0  0  0  0  0  0  0  0
    2.9672   -0.4405   -1.5362 H   0  0  0  0  0  0  0  0  0  0  0  0
    3.6148   -0.4602    3.3136 H   0  0  0  0  0  0  0  0  0  0  0  0
    7.3906    1.1249    2.8390 H   0  0  0  0  0  0  0  0  0  0  0  0
    5.1318    0.2312   -0.6727 H   0  0  0  0  0  0  0  0  0  0  0  0
  1  2  1  0
  2  3  1  0
  3  4  1  0
  4  5  1  0
  5  6  1  0
  6  7  1  0
  7  8  1  0
  8  9  1  0
  2 10  1  0
 10 11  1  0
 11 12  1  0
 12 13  2  0
 13 14  1  0
 14 15  2  0
 15 16  1  0
 16 17  2  0
 17 18  1  0
 18 19  1  0
 18 20  2  0
 13 21  1  0
 21 22  2  0
  9  4  1  0
 22 11  1  0
 20 14  1  0
  1 23  1  0
  2 24  1  0
  3 25  1  0
  3 26  1  0
  5 27  1  0
  5 28  1  0
  6 29  1  0
  6 30  1  0
  8 31  1  0
  8 32  1  0
  9 33  1  0
  9 34  1  0
 10 35  1  0
 10 36  1  0
 12 37  1  0
 15 38  1  0
 17 39  1  0
 20 40  1  0
M  END
$$$$
OCNT-2316644
     RDKit          3D

 54 55  0  0  0  0  0  0  0  0999 V2000
   -5.8595    0.8475   -0.6718 C   0  0  0  0  0  0  0  0  0  0  0  0
   -5.1921   -0.3593   -0.0021 C   0  0  0  0  0  0  0  0  0  0  0  0
   -6.0959   -0.8497    1.1399 C   0  0  0  0  0  0  0  0  0  0  0  0
   -4.9768   -1.5132   -0.9873 C   0  0  0  0  0  0  0  0  0  0  0  0
   -3.9532    0.0192    0.6493 O   0  0  0  0  0  0  0  0  0  0  0  0
   -2.9157    0.5038   -0.0710 C   0  0  0  0  0  0  0  0  0  0  0  0
   -2.8898    0.6642   -1.2804 O   0  0  0  0  0  0  0  0  0  0  0  0
   -1.8913    0.7864    0.7876 N   0  0  0  0  0  0  0  0  0  0  0  0
   -0.5594    1.3182    0.3778 C   0  0  0  0  0  0  0  0  0  0  0  0
    0.2447    0.1645   -0.2384 C   0  0  0  0  0  0  0  0  0  0  0  0
    1.5942    0.5891   -0.8307 C   0  0  0  0  0  0  0  0  0  0  0  0
    2.3777   -0.5385   -1.3376 N   0  0  0  0  0  0  0  0  0  0  0  0
    3.0688   -1.3067   -0.2924 C   0  0  0  0  0  0  0  0  0  0  0  0
    3.2537   -2.7650   -0.7373 C   0  0  0  0  0  0  0  0  0  0  0  0
    2.4550   -3.4457   -1.3586 O   0  0  0  0  0  0  0  0  0  0  0  0
    4.4707   -3.2074   -0.2639 N   0  0  0  0  0  0  0  0  0  0  0  0
    5.1573   -2.2028    0.4919 C   0  0  0  0  0  0  0  0  0  0  0  0
    4.5306   -0.8757    0.0280 C   0  0  0  0  0  0  0  0  0  0  0  0
    5.2907   -0.3493   -1.2070 C   0  0  0  0  0  0  0  0  0  0  0  0
    4.6013    0.1719    1.1453 C   0  0  0  0  0  0  0  0  0  0  0  0
   -0.6469    2.7109   -0.3355 C   0  0  0  0  0  0  0  0  0  0  0  0
   -0.5858    3.3691    1.0573 C   0  0  0  0  0  0  0  0  0  0  0  0
    0.1076    2.0900    1.5691 C   0  0  0  0  0  0  0  0  0  0  0  0
   -5.9109    1.6974    0.0194 H   0  0  0  0  0  0  0  0  0  0  0  0
   -6.8744    0.6065   -1.0051 H   0  0  0  0  0  0  0  0  0  0  0  0
   -5.3011    1.1891   -1.5505 H   0  0  0  0  0  0  0  0  0  0  0  0
   -6.2387   -0.0638    1.8900 H   0  0  0  0  0  0  0  0  0  0  0  0
   -5.6362   -1.6959    1.6631 H   0  0  0  0  0  0  0  0  0  0  0  0
   -7.0785   -1.1623    0.7743 H   0  0  0  0  0  0  0  0  0  0  0  0
   -4.3989   -1.2026   -1.8634 H   0  0  0  0  0  0  0  0  0  0  0  0
   -4.4171   -2.3283   -0.5150 H   0  0  0  0  0  0  0  0  0  0  0  0
   -5.9305   -1.9103   -1.3489 H   0  0  0  0  0  0  0  0  0  0  0  0
   -2.0978    0.5636    1.7520 H   0  0  0  0  0  0  0  0  0  0  0  0
   -0.3389   -0.3085   -1.0395 H   0  0  0  0  0  0  0  0  0  0  0  0
    0.3936   -0.6035    0.5308 H   0  0  0  0  0  0  0  0  0  0  0  0
    1.4082    1.2473   -1.6859 H   0  0  0  0  0  0  0  0  0  0  0  0
    2.1833    1.1770   -0.1249 H   0  0  0  0  0  0  0  0  0  0  0  0
    1.7534   -1.1797   -1.8409 H   0  0  0  0  0  0  0  0  0  0  0  0
    2.4744   -1.3664    0.6284 H   0  0  0  0  0  0  0  0  0  0  0  0
    4.7592   -4.1693   -0.3871 H   0  0  0  0  0  0  0  0  0  0  0  0
    6.2319   -2.2723    0.2979 H   0  0  0  0  0  0  0  0  0  0  0  0
    4.9724   -2.4025    1.5539 H   0  0  0  0  0  0  0  0  0  0  0  0
    6.3452   -0.1724   -0.9662 H   0  0  0  0  0  0  0  0  0  0  0  0
    5.2579   -1.0583   -2.0424 H   0  0  0  0  0  0  0  0  0  0  0  0
    4.8743    0.6024   -1.5571 H   0  0  0  0  0  0  0  0  0  0  0  0
    5.6353    0.3243    1.4695 H   0  0  0  0  0  0  0  0  0  0  0  0
    4.0209   -0.1396    2.0214 H   0  0  0  0  0  0  0  0  0  0  0  0
    4.2156    1.1416    0.8177 H   0  0  0  0  0  0  0  0  0  0  0  0
    0.2129    2.9721   -0.9601 H   0  0  0  0  0  0  0  0  0  0  0  0
   -1.5533    2.9265   -0.9070 H   0  0  0  0  0  0  0  0  0  0  0  0
    0.0033    4.2877    1.1225 H   0  0  0  0  0  0  0  0  0  0  0  0
   -1.5700    3.5479    1.5039 H   0  0  0  0  0  0  0  0  0  0  0  0
   -0.1813    1.7754    2.5771 H   0  0  0  0  0  0  0  0  0  0  0  0
    1.2001    2.1551    1.5401 H   0  0  0  0  0  0  0  0  0  0  0  0
  1  2  1  0
  2  3  1  0
  2  4  1  0
  2  5  1  0
  5  6  1  0
  6  7  2  0
  6  8  1  0
  8  9  1  0
  9 10  1  0
 10 11  1  0
 11 12  1  0
 12 13  1  0
 13 14  1  0
 14 15  2  0
 14 16  1  0
 16 17  1  0
 17 18  1  0
 18 19  1  0
 18 20  1  0
  9 21  1  0
 21 22  1  0
 22 23  1  0
 23  9  1  0
 18 13  1  0
  1 24  1  0
  1 25  1  0
  1 26  1  0
  3 27  1  0
  3 28  1  0
  3 29  1  0
  4 30  1  0
  4 31  1  0
  4 32  1  0
  8 33  1  0
 10 34  1  0
 10 35  1  0
 11 36  1  0
 11 37  1  0
 12 38  1  0
 13 39  1  0
 16 40  1  0
 17 41  1  0
 17 42  1  0
 19 43  1  0
 19 44  1  0
 19 45  1  0
 20 46  1  0
 20 47  1  0
 20 48  1  0
 21 49  1  0
 21 50  1  0
 22 51  1  0
 22 52  1  0
 23 53  1  0
 23 54  1  0
M  END
$$$$
OCNT-2316654
     RDKit          3D

 39 42  0  0  0  0  0  0  0  0999 V2000
    3.0076   -2.5253    1.8465 C   0  0  0  0  0  0  0  0  0  0  0  0
    3.1125   -1.3119    0.9925 C   0  0  0  0  0  0  0  0  0  0  0  0
    2.1424   -0.6332    0.2638 C   0  0  0  0  0  0  0  0  0  0  0  0
    0.7265   -1.0148    0.2155 C   0  0  0  0  0  0  0  0  0  0  0  0
    0.3828   -2.1905    0.2439 O   0  0  0  0  0  0  0  0  0  0  0  0
   -0.1234    0.0759    0.1987 N   0  0  0  0  0  0  0  0  0  0  0  0
   -1.5304    0.0817    0.1220 C   0  0  0  0  0  0  0  0  0  0  0  0
   -2.3029   -1.0698   -0.0555 C   0  0  0  0  0  0  0  0  0  0  0  0
   -3.7178   -1.0285   -0.1294 C   0  0  0  0  0  0  0  0  0  0  0  0
   -4.4931   -2.3012   -0.3473 C   0  0  0  0  0  0  0  0  0  0  0  0
   -5.7424   -2.2657    0.1967 F   0  0  0  0  0  0  0  0  0  0  0  0
   -4.6725   -2.5756   -1.6687 F   0  0  0  0  0  0  0  0  0  0  0  0
   -3.8932   -3.4004    0.1870 F   0  0  0  0  0  0  0  0  0  0  0  0
   -4.3346    0.2369   -0.0392 C   0  0  0  0  0  0  0  0  0  0  0  0
   -5.6606    0.7317   -0.0791 C   0  0  0  0  0  0  0  0  0  0  0  0
   -5.7214    2.0583    0.0547 N   0  0  0  0  0  0  0  0  0  0  0  0
   -4.4347    2.4199    0.1840 N   0  0  0  0  0  0  0  0  0  0  0  0
   -3.5519    1.3723    0.1316 C   0  0  0  0  0  0  0  0  0  0  0  0
   -2.1562    1.3331    0.2173 C   0  0  0  0  0  0  0  0  0  0  0  0
    2.8108    0.4503   -0.4079 C   0  0  0  0  0  0  0  0  0  0  0  0
    2.4124    1.4460   -1.3291 C   0  0  0  0  0  0  0  0  0  0  0  0
    3.3469    2.3808   -1.7906 C   0  0  0  0  0  0  0  0  0  0  0  0
    4.6688    2.3334   -1.3592 C   0  0  0  0  0  0  0  0  0  0  0  0
    5.0974    1.3468   -0.4683 C   0  0  0  0  0  0  0  0  0  0  0  0
    4.1502    0.4187   -0.0184 C   0  0  0  0  0  0  0  0  0  0  0  0
    4.3052   -0.6580    0.8209 N   0  0  0  0  0  0  0  0  0  0  0  0
    2.1778   -2.4274    2.5538 H   0  0  0  0  0  0  0  0  0  0  0  0
    2.8346   -3.4112    1.2275 H   0  0  0  0  0  0  0  0  0  0  0  0
    3.9223   -2.6895    2.4255 H   0  0  0  0  0  0  0  0  0  0  0  0
    0.3249    0.9739    0.3264 H   0  0  0  0  0  0  0  0  0  0  0  0
   -1.8287   -2.0456   -0.1475 H   0  0  0  0  0  0  0  0  0  0  0  0
   -6.5833    0.1769   -0.1989 H   0  0  0  0  0  0  0  0  0  0  0  0
   -4.2237    3.4042    0.3034 H   0  0  0  0  0  0  0  0  0  0  0  0
   -1.5863    2.2468    0.3519 H   0  0  0  0  0  0  0  0  0  0  0  0
    1.3941    1.4854   -1.7054 H   0  0  0  0  0  0  0  0  0  0  0  0
    3.0388    3.1437   -2.5017 H   0  0  0  0  0  0  0  0  0  0  0  0
    5.3830    3.0645   -1.7317 H   0  0  0  0  0  0  0  0  0  0  0  0
    6.1336    1.3006   -0.1485 H   0  0  0  0  0  0  0  0  0  0  0  0
    5.1844   -0.9331    1.2374 H   0  0  0  0  0  0  0  0  0  0  0  0
  1  2  1  0
  2  3  2  0
  3  4  1  0
  4  5  2  0
  4  6  1  0
  6  7  1  0
  7  8  2  0
  8  9  1  0
  9 10  1  0
 10 11  1  0
 10 12  1  0
 10 13  1  0
  9 14  2  0
 14 15  1  0
 15 16  2  0
 16 17  1  0
 17 18  1  0
 18 19  2  0
  3 20  1  0
 20 21  2  0
 21 22  1  0
 22 23  2  0
 23 24  1  0
 24 25  2  0
 25 26  1  0
 26  2  1  0
 19  7  1  0
 25 20  1  0
 18 14  1  0
  1 27  1  0
  1 28  1  0
  1 29  1  0
  6 30  1  0
  8 31  1  0
 15 32  1  0
 17 33  1  0
 19 34  1  0
 21 35  1  0
 22 36  1  0
 23 37  1  0
 24 38  1  0
 26 39  1  0
M  END
$$$$
OCNT-2316656
     RDKit          3D

 49 52  0  0  0  0  0  0  0  0999 V2000
    5.6588   -2.2895   -1.7041 C   0  0  0  0  0  0  0  0  0  0  0  0
    4.7780   -2.6149   -0.5084 C   0  0  0  0  0  0  0  0  0  0  0  0
    4.2694   -1.3920    0.1619 C   0  0  0  0  0  0  0  0  0  0  0  0
    4.8904   -0.8239    1.2047 N   0  0  0  0  0  0  0  0  0  0  0  0
    4.0902    0.2239    1.4491 N   0  0  0  0  0  0  0  0  0  0  0  0
    4.2954    1.0986    2.5819 C   0  0  0  0  0  0  0  0  0  0  0  0
    3.4121    2.3444    2.5059 C   0  0  0  0  0  0  0  0  0  0  0  0
    1.9903    1.9899    2.0545 C   0  0  0  0  0  0  0  0  0  0  0  0
    2.0028    1.3428    0.6558 C   0  0  0  0  0  0  0  0  0  0  0  0
    0.7260    0.7435    0.3136 N   0  0  0  0  0  0  0  0  0  0  0  0
   -0.3472    1.5360    0.0023 C   0  0  0  0  0  0  0  0  0  0  0  0
   -0.2893    2.7601    0.0807 O   0  0  0  0  0  0  0  0  0  0  0  0
   -1.4947    0.8484   -0.3628 N   0  0  0  0  0  0  0  0  0  0  0  0
   -1.6314   -0.6083   -0.3027 C   0  0  0  0  0  0  0  0  0  0  0  0
   -2.9713   -1.0999   -0.8353 C   0  0  0  0  0  0  0  0  0  0  0  0
   -4.1519   -0.4180   -0.1222 C   0  0  0  0  0  0  0  0  0  0  0  0
   -5.3978   -0.5423   -0.9640 C   0  0  0  0  0  0  0  0  0  0  0  0
   -5.5774    0.0748   -2.1145 N   0  0  0  0  0  0  0  0  0  0  0  0
   -6.8223   -0.2383   -2.6228 C   0  0  0  0  0  0  0  0  0  0  0  0
   -7.5797   -1.0953   -1.8552 C   0  0  0  0  0  0  0  0  0  0  0  0
   -6.7090   -1.5312   -0.4454 S   0  0  0  0  0  0  0  0  0  0  0  0
   -3.8681    1.0593    0.2110 C   0  0  0  0  0  0  0  0  0  0  0  0
   -2.7166    1.6129   -0.6199 C   0  0  0  0  0  0  0  0  0  0  0  0
    3.0350    0.2637    0.5860 C   0  0  0  0  0  0  0  0  0  0  0  0
    3.1189   -0.7582   -0.2433 N   0  0  0  0  0  0  0  0  0  0  0  0
    6.5368   -1.7082   -1.4008 H   0  0  0  0  0  0  0  0  0  0  0  0
    6.0082   -3.2104   -2.1814 H   0  0  0  0  0  0  0  0  0  0  0  0
    5.1112   -1.7047   -2.4515 H   0  0  0  0  0  0  0  0  0  0  0  0
    3.9290   -3.2246   -0.8384 H   0  0  0  0  0  0  0  0  0  0  0  0
    5.3446   -3.2238    0.2056 H   0  0  0  0  0  0  0  0  0  0  0  0
    4.0560    0.5128    3.4767 H   0  0  0  0  0  0  0  0  0  0  0  0
    5.3540    1.3757    2.6134 H   0  0  0  0  0  0  0  0  0  0  0  0
    3.8452    3.0587    1.7944 H   0  0  0  0  0  0  0  0  0  0  0  0
    3.3881    2.8396    3.4825 H   0  0  0  0  0  0  0  0  0  0  0  0
    1.5387    1.3068    2.7860 H   0  0  0  0  0  0  0  0  0  0  0  0
    1.3731    2.8950    2.0514 H   0  0  0  0  0  0  0  0  0  0  0  0
    2.2426    2.1016   -0.0999 H   0  0  0  0  0  0  0  0  0  0  0  0
    0.8224   -0.0795   -0.2644 H   0  0  0  0  0  0  0  0  0  0  0  0
   -0.8247   -1.0669   -0.8834 H   0  0  0  0  0  0  0  0  0  0  0  0
   -1.5032   -0.9100    0.7436 H   0  0  0  0  0  0  0  0  0  0  0  0
   -3.0095   -0.9067   -1.9161 H   0  0  0  0  0  0  0  0  0  0  0  0
   -3.0440   -2.1883   -0.7201 H   0  0  0  0  0  0  0  0  0  0  0  0
   -4.3148   -0.9352    0.8337 H   0  0  0  0  0  0  0  0  0  0  0  0
   -7.1315    0.1916   -3.5676 H   0  0  0  0  0  0  0  0  0  0  0  0
   -8.5735   -1.4735   -2.0476 H   0  0  0  0  0  0  0  0  0  0  0  0
   -4.7593    1.6854    0.0849 H   0  0  0  0  0  0  0  0  0  0  0  0
   -3.5906    1.1268    1.2712 H   0  0  0  0  0  0  0  0  0  0  0  0
   -2.5754    2.6731   -0.3871 H   0  0  0  0  0  0  0  0  0  0  0  0
   -2.9340    1.5443   -1.6920 H   0  0  0  0  0  0  0  0  0  0  0  0
  1  2  1  0
  2  3  1  0
  3  4  2  0
  4  5  1  0
  5  6  1  0
  6  7  1  0
  7  8  1  0
  8  9  1  0
  9 10  1  0
 10 11  1  0
 11 12  2  0
 11 13  1  0
 13 14  1  0
 14 15  1  0
 15 16  1  0
 16 17  1  0
 17 18  2  0
 18 19  1  0
 19 20  2  0
 20 21  1  0
 16 22  1  0
 22 23  1  0
  9 24  1  0
 24 25  2  0
 25  3  1  0
 24  5  1  0
 23 13  1  0
 21 17  1  0
  1 26  1  0
  1 27  1  0
  1 28  1  0
  2 29  1  0
  2 30  1  0
  6 31  1  0
  6 32  1  0
  7 33  1  0
  7 34  1  0
  8 35  1  0
  8 36  1  0
  9 37  1  0
 10 38  1  0
 14 39  1  0
 14 40  1  0
 15 41  1  0
 15 42  1  0
 16 43  1  0
 19 44  1  0
 20 45  1  0
 22 46  1  0
 22 47  1  0
 23 48  1  0
 23 49  1  0
M  END
$$$$
OCNT-2316657
     RDKit          3D

 46 49  0  0  0  0  0  0  0  0999 V2000
    6.6275    0.5838   -0.1389 C   0  0  0  0  0  0  0  0  0  0  0  0
    6.0739   -0.8149    0.1267 C   0  0  0  0  0  0  0  0  0  0  0  0
    6.2807   -1.7323   -1.0770 C   0  0  0  0  0  0  0  0  0  0  0  0
    4.6754   -0.7644    0.5193 N   0  0  0  0  0  0  0  0  0  0  0  0
    4.2692   -1.1851    1.7261 N   0  0  0  0  0  0  0  0  0  0  0  0
    2.9568   -0.9939    1.7224 N   0  0  0  0  0  0  0  0  0  0  0  0
    2.6404   -0.4629    0.5032 C   0  0  0  0  0  0  0  0  0  0  0  0
    1.3911   -0.1044    0.0885 N   0  0  0  0  0  0  0  0  0  0  0  0
    0.2424   -0.3233    0.7978 C   0  0  0  0  0  0  0  0  0  0  0  0
    0.1690   -0.9028    1.8760 O   0  0  0  0  0  0  0  0  0  0  0  0
   -0.8811    0.1730    0.1698 N   0  0  0  0  0  0  0  0  0  0  0  0
   -1.0204    1.3323   -0.7118 C   0  0  0  0  0  0  0  0  0  0  0  0
   -2.2943    1.6239    0.0341 C   0  0  0  0  0  0  0  0  0  0  0  0
   -2.3674    2.9225    0.8155 C   0  0  0  0  0  0  0  0  0  0  0  0
   -3.1909    3.4828   -0.3717 C   0  0  0  0  0  0  0  0  0  0  0  0
   -3.5189    2.0186   -0.7610 C   0  0  0  0  0  0  0  0  0  0  0  0
   -2.2169    0.3231    0.7926 C   0  0  0  0  0  0  0  0  0  0  0  0
   -3.2693   -0.8308    0.4894 C   0  0  0  0  0  0  0  0  0  0  0  0
   -4.3353   -1.0891    1.3762 C   0  0  0  0  0  0  0  0  0  0  0  0
   -5.2851   -2.0852    1.1305 C   0  0  0  0  0  0  0  0  0  0  0  0
   -5.1962   -2.8607   -0.0195 C   0  0  0  0  0  0  0  0  0  0  0  0
   -4.1586   -2.6403   -0.9179 C   0  0  0  0  0  0  0  0  0  0  0  0
   -3.2135   -1.6415   -0.6635 C   0  0  0  0  0  0  0  0  0  0  0  0
    3.7056   -0.2925   -0.2907 N   0  0  0  0  0  0  0  0  0  0  0  0
    7.7004    0.5414   -0.3542 H   0  0  0  0  0  0  0  0  0  0  0  0
    6.4831    1.2326    0.7321 H   0  0  0  0  0  0  0  0  0  0  0  0
    6.1307    1.0589   -0.9922 H   0  0  0  0  0  0  0  0  0  0  0  0
    6.6195   -1.2415    0.9781 H   0  0  0  0  0  0  0  0  0  0  0  0
    5.8887   -2.7353   -0.8751 H   0  0  0  0  0  0  0  0  0  0  0  0
    7.3457   -1.8273   -1.3133 H   0  0  0  0  0  0  0  0  0  0  0  0
    5.7702   -1.3501   -1.9680 H   0  0  0  0  0  0  0  0  0  0  0  0
    1.3424    0.2406   -0.8528 H   0  0  0  0  0  0  0  0  0  0  0  0
   -1.1263    1.0364   -1.7594 H   0  0  0  0  0  0  0  0  0  0  0  0
   -0.2216    2.0719   -0.6099 H   0  0  0  0  0  0  0  0  0  0  0  0
   -1.4252    3.4382    1.0190 H   0  0  0  0  0  0  0  0  0  0  0  0
   -2.9425    2.8578    1.7467 H   0  0  0  0  0  0  0  0  0  0  0  0
   -4.0477    4.1055   -0.1025 H   0  0  0  0  0  0  0  0  0  0  0  0
   -2.5846    4.0107   -1.1170 H   0  0  0  0  0  0  0  0  0  0  0  0
   -3.5062    1.8050   -1.8331 H   0  0  0  0  0  0  0  0  0  0  0  0
   -4.4717    1.6741   -0.3434 H   0  0  0  0  0  0  0  0  0  0  0  0
   -2.1132    0.4791    1.8768 H   0  0  0  0  0  0  0  0  0  0  0  0
   -4.4220   -0.4978    2.2865 H   0  0  0  0  0  0  0  0  0  0  0  0
   -6.0888   -2.2553    1.8420 H   0  0  0  0  0  0  0  0  0  0  0  0
   -5.9295   -3.6389   -0.2117 H   0  0  0  0  0  0  0  0  0  0  0  0
   -4.0775   -3.2472   -1.8156 H   0  0  0  0  0  0  0  0  0  0  0  0
   -2.4081   -1.4948   -1.3802 H   0  0  0  0  0  0  0  0  0  0  0  0
  1  2  1  0
  2  3  1  0
  2  4  1  0
  4  5  1  0
  5  6  2  0
  6  7  1  0
  7  8  1  0
  8  9  1  0
  9 10  2  0
  9 11  1  0
 11 12  1  0
 12 13  1  0
 13 14  1  0
 14 15  1  0
 15 16  1  0
 13 17  1  0
 17 18  1  0
 18 19  2  0
 19 20  1  0
 20 21  2  0
 21 22  1  0
 22 23  2  0
  7 24  2  0
 24  4  1  0
 17 11  1  0
 23 18  1  0
 16 13  1  0
  1 25  1  0
  1 26  1  0
  1 27  1  0
  2 28  1  0
  3 29  1  0
  3 30  1  0
  3 31  1  0
  8 32  1  0
 12 33  1  0
 12 34  1  0
 14 35  1  0
 14 36  1  0
 15 37  1  0
 15 38  1  0
 16 39  1  0
 16 40  1  0
 17 41  1  0
 19 42  1  0
 20 43  1  0
 21 44  1  0
 22 45  1  0
 23 46  1  0
M  END
$$$$
OCNT-2316664
     RDKit          3D

 45 48  0  0  0  0  0  0  0  0999 V2000
    5.2215    2.7288    0.8291 C   0  0  0  0  0  0  0  0  0  0  0  0
    4.7917    1.3318    1.1738 C   0  0  0  0  0  0  0  0  0  0  0  0
    5.5363    0.5515    2.0545 C   0  0  0  0  0  0  0  0  0  0  0  0
    5.1113   -0.7348    2.3568 C   0  0  0  0  0  0  0  0  0  0  0  0
    3.9344   -1.2423    1.7905 C   0  0  0  0  0  0  0  0  0  0  0  0
    3.1360   -0.4809    0.9144 C   0  0  0  0  0  0  0  0  0  0  0  0
    1.9185   -1.0351    0.3277 N   0  0  0  0  0  0  0  0  0  0  0  0
    1.6833   -2.4721    0.5465 C   0  0  0  0  0  0  0  0  0  0  0  0
    0.3703   -3.0308    0.0321 C   0  0  0  0  0  0  0  0  0  0  0  0
    0.0851   -2.4847   -1.3461 C   0  0  0  0  0  0  0  0  0  0  0  0
   -0.0017   -0.9650   -1.3075 C   0  0  0  0  0  0  0  0  0  0  0  0
   -1.3378   -0.4710   -0.9981 N   0  0  0  0  0  0  0  0  0  0  0  0
   -2.1113    0.3658   -1.7526 C   0  0  0  0  0  0  0  0  0  0  0  0
   -3.2792    0.4660   -1.0376 C   0  0  0  0  0  0  0  0  0  0  0  0
   -4.5141    1.3007   -1.4226 C   0  0  0  0  0  0  0  0  0  0  0  0
   -4.6836    2.0966   -2.5335 C   0  0  0  0  0  0  0  0  0  0  0  0
   -5.9277    2.6776   -2.5353 N   0  0  0  0  0  0  0  0  0  0  0  0
   -6.5069    2.2493   -1.4355 C   0  0  0  0  0  0  0  0  0  0  0  0
   -5.6883    1.4147   -0.7274 N   0  0  0  0  0  0  0  0  0  0  0  0
   -6.0197    0.7796    0.5229 C   0  0  0  0  0  0  0  0  0  0  0  0
   -3.1931   -0.3040    0.0879 N   0  0  0  0  0  0  0  0  0  0  0  0
   -1.9978   -0.8778    0.1037 N   0  0  0  0  0  0  0  0  0  0  0  0
    1.0324   -0.2547   -0.4362 C   0  0  0  0  0  0  0  0  0  0  0  0
    1.0452    0.9800   -0.4809 O   0  0  0  0  0  0  0  0  0  0  0  0
    3.6069    0.8095    0.6162 C   0  0  0  0  0  0  0  0  0  0  0  0
    5.2648    2.8555   -0.2578 H   0  0  0  0  0  0  0  0  0  0  0  0
    4.5158    3.4526    1.2489 H   0  0  0  0  0  0  0  0  0  0  0  0
    6.2161    2.9524    1.2284 H   0  0  0  0  0  0  0  0  0  0  0  0
    6.4477    0.9365    2.5047 H   0  0  0  0  0  0  0  0  0  0  0  0
    5.6926   -1.3507    3.0390 H   0  0  0  0  0  0  0  0  0  0  0  0
    3.6745   -2.2549    2.0794 H   0  0  0  0  0  0  0  0  0  0  0  0
    1.7036   -2.6747    1.6232 H   0  0  0  0  0  0  0  0  0  0  0  0
    2.5102   -3.0118    0.0678 H   0  0  0  0  0  0  0  0  0  0  0  0
   -0.4356   -2.7818    0.7292 H   0  0  0  0  0  0  0  0  0  0  0  0
    0.4231   -4.1252    0.0036 H   0  0  0  0  0  0  0  0  0  0  0  0
   -0.8351   -2.9254   -1.7471 H   0  0  0  0  0  0  0  0  0  0  0  0
    0.8984   -2.7838   -2.0200 H   0  0  0  0  0  0  0  0  0  0  0  0
    0.1984   -0.6222   -2.3330 H   0  0  0  0  0  0  0  0  0  0  0  0
   -1.7716    0.8049   -2.6778 H   0  0  0  0  0  0  0  0  0  0  0  0
   -3.9820    2.2847   -3.3350 H   0  0  0  0  0  0  0  0  0  0  0  0
   -7.5050    2.5118   -1.1092 H   0  0  0  0  0  0  0  0  0  0  0  0
   -5.9734   -0.3039    0.3873 H   0  0  0  0  0  0  0  0  0  0  0  0
   -5.3076    1.1104    1.2830 H   0  0  0  0  0  0  0  0  0  0  0  0
   -7.0313    1.0666    0.8216 H   0  0  0  0  0  0  0  0  0  0  0  0
    3.0848    1.4606   -0.0770 H   0  0  0  0  0  0  0  0  0  0  0  0
  1  2  1  0
  2  3  2  0
  3  4  1  0
  4  5  2  0
  5  6  1  0
  6  7  1  0
  7  8  1  0
  8  9  1  0
  9 10  1  0
 10 11  1  0
 11 12  1  0
 12 13  1  0
 13 14  2  0
 14 15  1  0
 15 16  2  0
 16 17  1  0
 17 18  2  0
 18 19  1  0
 19 20  1  0
 14 21  1  0
 21 22  2  0
 11 23  1  0
 23 24  2  0
  6 25  2  0
 25  2  1  0
 23  7  1  0
 22 12  1  0
 19 15  1  0
  1 26  1  0
  1 27  1  0
  1 28  1  0
  3 29  1  0
  4 30  1  0
  5 31  1  0
  8 32  1  0
  8 33  1  0
  9 34  1  0
  9 35  1  0
 10 36  1  0
 10 37  1  0
 11 38  1  0
 13 39  1  0
 16 40  1  0
 18 41  1  0
 20 42  1  0
 20 43  1  0
 20 44  1  0
 25 45  1  0
M  END
$$$$
OCNT-2316676
     RDKit          3D

 44 47  0  0  0  0  0  0  0  0999 V2000
   -5.9039   -2.3370   -0.0332 C   0  0  0  0  0  0  0  0  0  0  0  0
   -5.8737   -1.1492    0.9212 C   0  0  0  0  0  0  0  0  0  0  0  0
   -4.9472   -0.0033    0.4946 C   0  0  0  0  0  0  0  0  0  0  0  0
   -3.4584   -0.3666    0.5676 C   0  0  0  0  0  0  0  0  0  0  0  0
   -2.6128    0.5076   -0.3729 C   0  0  0  0  0  0  0  0  0  0  0  0
   -1.2235    0.6673    0.1338 C   0  0  0  0  0  0  0  0  0  0  0  0
   -0.0979    0.2186   -0.3700 N   0  0  0  0  0  0  0  0  0  0  0  0
    0.8405    0.6791    0.5306 C   0  0  0  0  0  0  0  0  0  0  0  0
    2.2667    0.4129    0.3726 C   0  0  0  0  0  0  0  0  0  0  0  0
    3.2023    0.8921    1.2978 C   0  0  0  0  0  0  0  0  0  0  0  0
    4.5705    0.6321    1.1388 C   0  0  0  0  0  0  0  0  0  0  0  0
    5.0307   -0.1159    0.0460 C   0  0  0  0  0  0  0  0  0  0  0  0
    6.4225   -0.3809   -0.1167 N   0  0  0  0  0  0  0  0  0  0  0  0
    7.4553    0.0215    0.7051 C   0  0  0  0  0  0  0  0  0  0  0  0
    8.6098   -0.4696    0.1431 C   0  0  0  0  0  0  0  0  0  0  0  0
    8.3351   -1.1628   -0.9981 N   0  0  0  0  0  0  0  0  0  0  0  0
    7.0281   -1.0953   -1.1303 C   0  0  0  0  0  0  0  0  0  0  0  0
    4.0973   -0.5976   -0.8825 C   0  0  0  0  0  0  0  0  0  0  0  0
    2.7307   -0.3338   -0.7173 C   0  0  0  0  0  0  0  0  0  0  0  0
    0.3147    1.3838    1.5470 N   0  0  0  0  0  0  0  0  0  0  0  0
   -1.0523    1.3768    1.2856 O   0  0  0  0  0  0  0  0  0  0  0  0
   -3.2867    1.8562   -0.6176 C   0  0  0  0  0  0  0  0  0  0  0  0
   -4.6869    1.6584   -1.1921 C   0  0  0  0  0  0  0  0  0  0  0  0
   -5.2723    0.4063   -0.8326 O   0  0  0  0  0  0  0  0  0  0  0  0
   -6.1994   -2.0324   -1.0418 H   0  0  0  0  0  0  0  0  0  0  0  0
   -4.9327   -2.8351   -0.0933 H   0  0  0  0  0  0  0  0  0  0  0  0
   -6.6317   -3.0763    0.3174 H   0  0  0  0  0  0  0  0  0  0  0  0
   -5.6010   -1.4926    1.9257 H   0  0  0  0  0  0  0  0  0  0  0  0
   -6.8968   -0.7571    0.9824 H   0  0  0  0  0  0  0  0  0  0  0  0
   -5.1441    0.8383    1.1732 H   0  0  0  0  0  0  0  0  0  0  0  0
   -3.1327   -0.2865    1.6128 H   0  0  0  0  0  0  0  0  0  0  0  0
   -3.2868   -1.4127    0.2891 H   0  0  0  0  0  0  0  0  0  0  0  0
   -2.5489   -0.0085   -1.3416 H   0  0  0  0  0  0  0  0  0  0  0  0
    2.8771    1.4763    2.1576 H   0  0  0  0  0  0  0  0  0  0  0  0
    5.2422    1.0327    1.8921 H   0  0  0  0  0  0  0  0  0  0  0  0
    7.3100    0.6065    1.5994 H   0  0  0  0  0  0  0  0  0  0  0  0
    9.6238   -0.3572    0.5051 H   0  0  0  0  0  0  0  0  0  0  0  0
    6.4827   -1.5495   -1.9446 H   0  0  0  0  0  0  0  0  0  0  0  0
    4.3856   -1.1829   -1.7506 H   0  0  0  0  0  0  0  0  0  0  0  0
    2.0272   -0.7204   -1.4539 H   0  0  0  0  0  0  0  0  0  0  0  0
   -2.6950    2.4944   -1.2851 H   0  0  0  0  0  0  0  0  0  0  0  0
   -3.3667    2.4073    0.3294 H   0  0  0  0  0  0  0  0  0  0  0  0
   -4.6495    1.6872   -2.2862 H   0  0  0  0  0  0  0  0  0  0  0  0
   -5.3518    2.4678   -0.8707 H   0  0  0  0  0  0  0  0  0  0  0  0
  1  2  1  0
  2  3  1  0
  3  4  1  0
  4  5  1  0
  5  6  1  0
  6  7  2  0
  7  8  1  0
  8  9  1  0
  9 10  1  0
 10 11  2  0
 11 12  1  0
 12 13  1  0
 13 14  1  0
 14 15  2  0
 15 16  1  0
 16 17  2  0
 12 18  2  0
 18 19  1  0
  8 20  2  0
 20 21  1  0
  5 22  1  0
 22 23  1  0
 23 24  1  0
 24  3  1  0
 21  6  1  0
 19  9  2  0
 17 13  1  0
  1 25  1  0
  1 26  1  0
  1 27  1  0
  2 28  1  0
  2 29  1  0
  3 30  1  0
  4 31  1  0
  4 32  1  0
  5 33  1  0
 10 34  1  0
 11 35  1  0
 14 36  1  0
 15 37  1  0
 17 38  1  0
 18 39  1  0
 19 40  1  0
 22 41  1  0
 22 42  1  0
 23 43  1  0
 23 44  1  0
M  END
$$$$
OCNT-2316682
     RDKit          3D

  0  0  0  0  0  0  0  0  0  0999 V3000
M  V30 BEGIN CTAB
M  V30 COUNTS 44 46 0 0 0
M  V30 BEGIN ATOM
M  V30 1 C 4.786723 -4.060880 -0.704952 0
M  V30 2 N 4.032533 -2.844138 -0.549717 0
M  V30 3 C 3.264733 -2.247537 -1.505600 0
M  V30 4 N 2.695325 -1.154508 -1.049606 0
M  V30 5 C 3.115052 -1.040536 0.264077 0
M  V30 6 C 2.636101 0.078672 1.121418 0
M  V30 7 N 1.195805 0.123779 1.036140 0
M  V30 8 C 0.462937 1.007723 1.786384 0
M  V30 9 O 0.967890 1.715848 2.652332 0
M  V30 10 C -1.018774 1.008838 1.460440 0 CFG=1
M  V30 11 C -1.808343 1.928277 2.387138 0
M  V30 12 N -3.004696 2.223557 1.590666 0
M  V30 13 C -3.791606 3.311765 2.155757 0
M  V30 14 C -2.485710 2.542891 0.253230 0
M  V30 15 C -1.307692 1.567868 0.050891 0 CFG=2
M  V30 16 C -1.587117 0.475448 -0.966266 0
M  V30 17 C -0.677918 0.243757 -2.008983 0
M  V30 18 C -0.908507 -0.766783 -2.943003 0
M  V30 19 C -2.050391 -1.558822 -2.848335 0
M  V30 20 C -2.960891 -1.342975 -1.817330 0
M  V30 21 C -2.730476 -0.334604 -0.880960 0
M  V30 22 C 3.955137 -2.087783 0.584963 0
M  V30 23 H 4.208188 -4.878155 -0.266735 0
M  V30 24 H 5.743223 -3.952124 -0.187126 0
M  V30 25 H 4.963718 -4.248856 -1.766476 0
M  V30 26 H 3.149775 -2.646861 -2.504661 0
M  V30 27 H 2.929052 -0.054822 2.167821 0
M  V30 28 H 3.035752 1.034086 0.765539 0
M  V30 29 H 0.782624 -0.332797 0.228430 0
M  V30 30 H -1.386633 -0.019771 1.577597 0
M  V30 31 H -2.063502 1.423247 3.324220 0
M  V30 32 H -1.252986 2.844525 2.627811 0
M  V30 33 H -4.664128 3.516455 1.527311 0
M  V30 34 H -3.216276 4.238584 2.256129 0
M  V30 35 H -4.169816 3.031598 3.145205 0
M  V30 36 H -3.264259 2.459073 -0.512967 0
M  V30 37 H -2.098758 3.570606 0.224637 0
M  V30 38 H -0.451942 2.159498 -0.302723 0
M  V30 39 H 0.228009 0.841059 -2.100501 0
M  V30 40 H -0.190392 -0.936959 -3.741149 0
M  V30 41 H -2.229224 -2.344530 -3.576428 0
M  V30 42 H -3.851247 -1.961125 -1.738155 0
M  V30 43 H -3.451695 -0.185673 -0.078853 0
M  V30 44 H 4.470399 -2.346918 1.499386 0
M  V30 END ATOM
M  V30 BEGIN BOND
M  V30 1 1 1 2
M  V30 2 1 2 3
M  V30 3 2 3 4
M  V30 4 1 4 5
M  V30 5 1 5 6
M  V30 6 1 6 7
M  V30 7 1 7 8
M  V30 8 2 8 9
M  V30 9 1 8 10
M  V30 10 1 10 11
M  V30 11 1 11 12
M  V30 12 1 12 13
M  V30 13 1 12 14
M  V30 14 1 14 15
M  V30 15 1 15 16
M  V30 16 2 16 17
M  V30 17 1 17 18
M  V30 18 2 18 19
M  V30 19 1 19 20
M  V30 20 2 20 21
M  V30 21 2 5 22
M  V30 22 1 22 2
M  V30 23 1 15 10
M  V30 24 1 21 16
M  V30 25 1 1 23
M  V30 26 1 1 24
M  V30 27 1 1 25
M  V30 28 1 3 26
M  V30 29 1 6 27
M  V30 30 1 6 28
M  V30 31 1 7 29
M  V30 32 1 10 30 CFG=3
M  V30 33 1 11 31
M  V30 34 1 11 32
M  V30 35 1 13 33
M  V30 36 1 13 34
M  V30 37 1 13 35
M  V30 38 1 14 36
M  V30 39 1 14 37
M  V30 40 1 15 38 CFG=3
M  V30 41 1 17 39
M  V30 42 1 18 40
M  V30 43 1 19 41
M  V30 44 1 20 42
M  V30 45 1 21 43
M  V30 46 1 22 44
M  V30 END BOND
M  V30 BEGIN COLLECTION
M  V30 MDLV30/STERAC1 ATOMS=(2 10 15)
M  V30 END COLLECTION
M  V30 END CTAB
M  END
>  <_CXSMILES_Data>  (1128) 
|&1:9,14|

$$$$
OCNT-2316696
     RDKit          3D

 48 51  0  0  0  0  0  0  0  0999 V2000
    4.0592    0.0334   -3.8155 C   0  0  0  0  0  0  0  0  0  0  0  0
    3.0969    0.3898   -2.8306 O   0  0  0  0  0  0  0  0  0  0  0  0
    3.3721    0.0290   -1.5405 C   0  0  0  0  0  0  0  0  0  0  0  0
    4.5203   -0.6151   -1.0969 C   0  0  0  0  0  0  0  0  0  0  0  0
    4.6709   -0.8944    0.2609 C   0  0  0  0  0  0  0  0  0  0  0  0
    3.6796   -0.5352    1.1817 C   0  0  0  0  0  0  0  0  0  0  0  0
    4.0003   -0.8128    2.4849 O   0  0  0  0  0  0  0  0  0  0  0  0
    3.7733    0.3025    3.3437 C   0  0  0  0  0  0  0  0  0  0  0  0
    2.4135    0.1802    4.0047 C   0  0  0  0  0  0  0  0  0  0  0  0
    1.3248   -0.3220    3.0591 C   0  0  0  0  0  0  0  0  0  0  0  0
    1.3079    0.3871    1.6900 C   0  0  0  0  0  0  0  0  0  0  0  0
    0.0049    0.0061    1.1106 N   0  0  0  0  0  0  0  0  0  0  0  0
   -0.8185    1.1559    0.7557 C   0  0  0  0  0  0  0  0  0  0  0  0
   -2.1030    0.7074    0.0988 C   0  0  0  0  0  0  0  0  0  0  0  0
   -2.3287    0.9373   -1.2640 C   0  0  0  0  0  0  0  0  0  0  0  0
   -3.5145    0.5107   -1.8683 C   0  0  0  0  0  0  0  0  0  0  0  0
   -4.4906   -0.1608   -1.1184 C   0  0  0  0  0  0  0  0  0  0  0  0
   -5.6834   -0.5910   -1.7544 N   0  0  0  0  0  0  0  0  0  0  0  0
   -6.7544   -1.2675   -1.2198 C   0  0  0  0  0  0  0  0  0  0  0  0
   -7.6709   -1.4836   -2.1364 N   0  0  0  0  0  0  0  0  0  0  0  0
   -7.1200   -0.9185   -3.2441 C   0  0  0  0  0  0  0  0  0  0  0  0
   -5.9210   -0.3628   -3.0721 N   0  0  0  0  0  0  0  0  0  0  0  0
   -4.2689   -0.3995    0.2436 C   0  0  0  0  0  0  0  0  0  0  0  0
   -3.0816    0.0331    0.8431 C   0  0  0  0  0  0  0  0  0  0  0  0
    2.4740    0.0474    0.7583 C   0  0  0  0  0  0  0  0  0  0  0  0
    2.3716    0.3581   -0.6170 C   0  0  0  0  0  0  0  0  0  0  0  0
    3.6867    0.3762   -4.7859 H   0  0  0  0  0  0  0  0  0  0  0  0
    4.1843   -1.0535   -3.8707 H   0  0  0  0  0  0  0  0  0  0  0  0
    5.0162    0.5330   -3.6317 H   0  0  0  0  0  0  0  0  0  0  0  0
    5.3205   -0.9003   -1.7702 H   0  0  0  0  0  0  0  0  0  0  0  0
    5.5793   -1.3777    0.6132 H   0  0  0  0  0  0  0  0  0  0  0  0
    3.8830    1.2608    2.8168 H   0  0  0  0  0  0  0  0  0  0  0  0
    4.5535    0.2910    4.1136 H   0  0  0  0  0  0  0  0  0  0  0  0
    2.4802   -0.5258    4.8416 H   0  0  0  0  0  0  0  0  0  0  0  0
    2.1323    1.1483    4.4354 H   0  0  0  0  0  0  0  0  0  0  0  0
    1.4301   -1.4077    2.9226 H   0  0  0  0  0  0  0  0  0  0  0  0
    0.3650   -0.1747    3.5746 H   0  0  0  0  0  0  0  0  0  0  0  0
    1.3509    1.4704    1.8696 H   0  0  0  0  0  0  0  0  0  0  0  0
    0.1358   -0.6024    0.3036 H   0  0  0  0  0  0  0  0  0  0  0  0
   -1.0738    1.7326    1.6536 H   0  0  0  0  0  0  0  0  0  0  0  0
   -0.2822    1.8367    0.0849 H   0  0  0  0  0  0  0  0  0  0  0  0
   -1.5825    1.4476   -1.8689 H   0  0  0  0  0  0  0  0  0  0  0  0
   -3.6590    0.7055   -2.9292 H   0  0  0  0  0  0  0  0  0  0  0  0
   -6.8172   -1.5718   -0.1870 H   0  0  0  0  0  0  0  0  0  0  0  0
   -7.6085   -0.9101   -4.2103 H   0  0  0  0  0  0  0  0  0  0  0  0
   -4.9861   -0.9209    0.8692 H   0  0  0  0  0  0  0  0  0  0  0  0
   -2.9092   -0.1686    1.8991 H   0  0  0  0  0  0  0  0  0  0  0  0
    1.4869    0.8599   -1.0010 H   0  0  0  0  0  0  0  0  0  0  0  0
  1  2  1  0
  2  3  1  0
  3  4  1  0
  4  5  2  0
  5  6  1  0
  6  7  1  0
  7  8  1  0
  8  9  1  0
  9 10  1  0
 10 11  1  0
 11 12  1  0
 12 13  1  0
 13 14  1  0
 14 15  1  0
 15 16  2  0
 16 17  1  0
 17 18  1  0
 18 19  1  0
 19 20  2  0
 20 21  1  0
 21 22  2  0
 17 23  2  0
 23 24  1  0
 11 25  1  0
 25 26  1  0
 26  3  2  0
 25  6  2  0
 24 14  2  0
 22 18  1  0
  1 27  1  0
  1 28  1  0
  1 29  1  0
  4 30  1  0
  5 31  1  0
  8 32  1  0
  8 33  1  0
  9 34  1  0
  9 35  1  0
 10 36  1  0
 10 37  1  0
 11 38  1  0
 12 39  1  0
 13 40  1  0
 13 41  1  0
 15 42  1  0
 16 43  1  0
 19 44  1  0
 21 45  1  0
 23 46  1  0
 24 47  1  0
 26 48  1  0
M  END
$$$$
OCNT-2316701
     RDKit          3D

 34 36  0  0  0  0  0  0  0  0999 V2000
    6.8894    0.1955   -0.2123 C   0  0  0  0  0  0  0  0  0  0  0  0
    5.8901   -0.4132   -1.0200 O   0  0  0  0  0  0  0  0  0  0  0  0
    4.5903   -0.2870   -0.6133 C   0  0  0  0  0  0  0  0  0  0  0  0
    4.1600    0.3832    0.5288 C   0  0  0  0  0  0  0  0  0  0  0  0
    2.7968    0.4307    0.8203 C   0  0  0  0  0  0  0  0  0  0  0  0
    2.3966    1.0784    1.9269 F   0  0  0  0  0  0  0  0  0  0  0  0
    1.8347   -0.1741   -0.0014 C   0  0  0  0  0  0  0  0  0  0  0  0
    0.4836   -0.0609    0.4022 N   0  0  0  0  0  0  0  0  0  0  0  0
   -0.6289   -0.5076   -0.2837 C   0  0  0  0  0  0  0  0  0  0  0  0
   -0.6404   -1.0221   -1.3950 O   0  0  0  0  0  0  0  0  0  0  0  0
   -1.9315   -0.2940    0.3925 C   0  0  0  0  0  0  0  0  0  0  0  0
   -2.0715   -0.3885    1.7757 C   0  0  0  0  0  0  0  0  0  0  0  0
   -3.2207   -0.2044    2.4713 N   0  0  0  0  0  0  0  0  0  0  0  0
   -4.2781    0.0618    1.6775 C   0  0  0  0  0  0  0  0  0  0  0  0
   -5.5422    0.2807    2.1349 O   0  0  0  0  0  0  0  0  0  0  0  0
   -6.3941    0.5190    1.0648 N   0  0  0  0  0  0  0  0  0  0  0  0
   -5.6297    0.4376   -0.0324 C   0  0  0  0  0  0  0  0  0  0  0  0
   -6.2228    0.6384   -1.3743 C   0  0  0  0  0  0  0  0  0  0  0  0
   -4.2803    0.1567    0.2930 C   0  0  0  0  0  0  0  0  0  0  0  0
   -3.0665   -0.0311   -0.3857 C   0  0  0  0  0  0  0  0  0  0  0  0
    2.2675   -0.8466   -1.1399 C   0  0  0  0  0  0  0  0  0  0  0  0
    3.6321   -0.8960   -1.4347 C   0  0  0  0  0  0  0  0  0  0  0  0
    4.0207   -1.5515   -2.5393 F   0  0  0  0  0  0  0  0  0  0  0  0
    6.9072   -0.2439    0.7905 H   0  0  0  0  0  0  0  0  0  0  0  0
    7.8604    0.0021   -0.6784 H   0  0  0  0  0  0  0  0  0  0  0  0
    6.7518    1.2808   -0.1659 H   0  0  0  0  0  0  0  0  0  0  0  0
    4.8428    0.8753    1.2108 H   0  0  0  0  0  0  0  0  0  0  0  0
    0.3514    0.4775    1.2532 H   0  0  0  0  0  0  0  0  0  0  0  0
   -1.2257   -0.6483    2.4092 H   0  0  0  0  0  0  0  0  0  0  0  0
   -5.7934    1.5254   -1.8510 H   0  0  0  0  0  0  0  0  0  0  0  0
   -6.0232   -0.2274   -2.0138 H   0  0  0  0  0  0  0  0  0  0  0  0
   -7.3079    0.7745   -1.3209 H   0  0  0  0  0  0  0  0  0  0  0  0
   -3.0057    0.0247   -1.4689 H   0  0  0  0  0  0  0  0  0  0  0  0
    1.5872   -1.3459   -1.8203 H   0  0  0  0  0  0  0  0  0  0  0  0
  1  2  1  0
  2  3  1  0
  3  4  1  0
  4  5  2  0
  5  6  1  0
  5  7  1  0
  7  8  1  0
  8  9  1  0
  9 10  2  0
  9 11  1  0
 11 12  2  0
 12 13  1  0
 13 14  2  0
 14 15  1  0
 15 16  1  0
 16 17  2  0
 17 18  1  0
 17 19  1  0
 19 20  2  0
  7 21  2  0
 21 22  1  0
 22 23  1  0
 22  3  2  0
 20 11  1  0
 19 14  1  0
  1 24  1  0
  1 25  1  0
  1 26  1  0
  4 27  1  0
  8 28  1  0
 12 29  1  0
 18 30  1  0
 18 31  1  0
 18 32  1  0
 20 33  1  0
 21 34  1  0
M  END
$$$$
OCNT-2316720
     RDKit          3D

 56 59  0  0  0  0  0  0  0  0999 V2000
   -0.4931   -0.8655    2.9822 O   0  0  0  0  0  0  0  0  0  0  0  0
   -0.2732   -0.3320    1.9024 C   0  0  0  0  0  0  0  0  0  0  0  0
   -1.1709    0.5207    1.2910 N   0  0  0  0  0  0  0  0  0  0  0  0
   -2.4946    0.6943    1.8665 C   0  0  0  0  0  0  0  0  0  0  0  0
   -3.4213    1.4572    0.9034 C   0  0  0  0  0  0  0  0  0  0  0  0
   -3.3742    0.9371   -0.4851 N   0  0  0  0  0  0  0  0  0  0  0  0
   -3.8763   -0.4442   -0.6230 C   0  0  0  0  0  0  0  0  0  0  0  0
   -5.3611   -0.6203   -0.2761 C   0  0  0  0  0  0  0  0  0  0  0  0
   -6.2255    0.4746   -0.8531 C   0  0  0  0  0  0  0  0  0  0  0  0
   -7.6191    0.3415   -0.8458 C   0  0  0  0  0  0  0  0  0  0  0  0
   -8.4288    1.3683   -1.3412 C   0  0  0  0  0  0  0  0  0  0  0  0
   -7.8534    2.5267   -1.8479 C   0  0  0  0  0  0  0  0  0  0  0  0
   -6.4672    2.6704   -1.8505 C   0  0  0  0  0  0  0  0  0  0  0  0
   -5.6402    1.6575   -1.3424 C   0  0  0  0  0  0  0  0  0  0  0  0
   -4.1351    1.8139   -1.4015 C   0  0  0  0  0  0  0  0  0  0  0  0
    0.8594   -0.4660    1.1318 N   0  0  0  0  0  0  0  0  0  0  0  0
    1.9055   -1.3928    1.3096 C   0  0  0  0  0  0  0  0  0  0  0  0
    1.8042   -2.5149    2.1419 C   0  0  0  0  0  0  0  0  0  0  0  0
    2.8527   -3.4362    2.2266 C   0  0  0  0  0  0  0  0  0  0  0  0
    4.0203   -3.2370    1.4918 C   0  0  0  0  0  0  0  0  0  0  0  0
    4.1386   -2.1068    0.6762 C   0  0  0  0  0  0  0  0  0  0  0  0
    5.3997   -1.9019   -0.0838 C   0  0  0  0  0  0  0  0  0  0  0  0
    5.9274   -2.8707   -0.6205 O   0  0  0  0  0  0  0  0  0  0  0  0
    5.8634   -0.6058   -0.0685 N   0  0  0  0  0  0  0  0  0  0  0  0
    7.0045   -0.0911   -0.6829 C   0  0  0  0  0  0  0  0  0  0  0  0
    7.8451   -0.8241   -1.5144 C   0  0  0  0  0  0  0  0  0  0  0  0
    8.9657   -0.1976   -2.0647 C   0  0  0  0  0  0  0  0  0  0  0  0
    9.2087    1.1380   -1.7707 C   0  0  0  0  0  0  0  0  0  0  0  0
   10.5753    1.9466   -2.4189 Cl  0  0  0  0  0  0  0  0  0  0  0  0
    8.3186    1.7957   -0.9383 C   0  0  0  0  0  0  0  0  0  0  0  0
    7.2227    1.2130   -0.3929 N   0  0  0  0  0  0  0  0  0  0  0  0
    3.0774   -1.1956    0.5694 C   0  0  0  0  0  0  0  0  0  0  0  0
   -1.1955    0.4456    0.2820 H   0  0  0  0  0  0  0  0  0  0  0  0
   -2.9106   -0.2926    2.1021 H   0  0  0  0  0  0  0  0  0  0  0  0
   -2.3848    1.2433    2.8052 H   0  0  0  0  0  0  0  0  0  0  0  0
   -3.0718    2.4978    0.8855 H   0  0  0  0  0  0  0  0  0  0  0  0
   -4.4364    1.4713    1.3139 H   0  0  0  0  0  0  0  0  0  0  0  0
   -3.7173   -0.7582   -1.6643 H   0  0  0  0  0  0  0  0  0  0  0  0
   -3.2744   -1.1425   -0.0276 H   0  0  0  0  0  0  0  0  0  0  0  0
   -5.6972   -1.5940   -0.6527 H   0  0  0  0  0  0  0  0  0  0  0  0
   -5.4892   -0.6214    0.8135 H   0  0  0  0  0  0  0  0  0  0  0  0
   -8.0848   -0.5663   -0.4523 H   0  0  0  0  0  0  0  0  0  0  0  0
   -9.5093    1.2575   -1.3339 H   0  0  0  0  0  0  0  0  0  0  0  0
   -8.4852    3.3221   -2.2404 H   0  0  0  0  0  0  0  0  0  0  0  0
   -6.0324    3.5856   -2.2505 H   0  0  0  0  0  0  0  0  0  0  0  0
   -3.8198    1.5930   -2.4300 H   0  0  0  0  0  0  0  0  0  0  0  0
   -3.8592    2.8612   -1.2213 H   0  0  0  0  0  0  0  0  0  0  0  0
    0.9987    0.2801    0.4663 H   0  0  0  0  0  0  0  0  0  0  0  0
    0.9041   -2.7126    2.7201 H   0  0  0  0  0  0  0  0  0  0  0  0
    2.7507   -4.3109    2.8617 H   0  0  0  0  0  0  0  0  0  0  0  0
    4.8323   -3.9579    1.5550 H   0  0  0  0  0  0  0  0  0  0  0  0
    5.4086    0.0823    0.5168 H   0  0  0  0  0  0  0  0  0  0  0  0
    7.6586   -1.8677   -1.7484 H   0  0  0  0  0  0  0  0  0  0  0  0
    9.6386   -0.7601   -2.7095 H   0  0  0  0  0  0  0  0  0  0  0  0
    8.4605    2.8406   -0.6728 H   0  0  0  0  0  0  0  0  0  0  0  0
    3.1606   -0.3489   -0.1038 H   0  0  0  0  0  0  0  0  0  0  0  0
  1  2  2  0
  2  3  1  0
  3  4  1  0
  4  5  1  0
  5  6  1  0
  6  7  1  0
  7  8  1  0
  8  9  1  0
  9 10  2  0
 10 11  1  0
 11 12  2  0
 12 13  1  0
 13 14  2  0
 14 15  1  0
  2 16  1  0
 16 17  1  0
 17 18  2  0
 18 19  1  0
 19 20  2  0
 20 21  1  0
 21 22  1  0
 22 23  2  0
 22 24  1  0
 24 25  1  0
 25 26  2  0
 26 27  1  0
 27 28  2  0
 28 29  1  0
 28 30  1  0
 30 31  2  0
 21 32  2  0
 15  6  1  0
 32 17  1  0
 14  9  1  0
 31 25  1  0
  3 33  1  0
  4 34  1  0
  4 35  1  0
  5 36  1  0
  5 37  1  0
  7 38  1  0
  7 39  1  0
  8 40  1  0
  8 41  1  0
 10 42  1  0
 11 43  1  0
 12 44  1  0
 13 45  1  0
 15 46  1  0
 15 47  1  0
 16 48  1  0
 18 49  1  0
 19 50  1  0
 20 51  1  0
 24 52  1  0
 26 53  1  0
 27 54  1  0
 30 55  1  0
 32 56  1  0
M  END
$$$$
OCNT-2316751
     RDKit          3D

 57 60  0  0  0  0  0  0  0  0999 V2000
   -2.8703    2.3091   -1.5173 C   0  0  0  0  0  0  0  0  0  0  0  0
   -3.4487    1.4647   -0.4708 N   0  0  0  0  0  0  0  0  0  0  0  0
   -4.2968    2.2729    0.4084 C   0  0  0  0  0  0  0  0  0  0  0  0
   -4.2249    0.3336   -1.0258 C   0  0  0  0  0  0  0  0  0  0  0  0
   -3.3947   -0.7320   -1.7723 C   0  0  0  0  0  0  0  0  0  0  0  0
   -2.4237   -1.3658   -0.9375 O   0  0  0  0  0  0  0  0  0  0  0  0
   -2.8324   -2.2932   -0.0130 C   0  0  0  0  0  0  0  0  0  0  0  0
   -3.9966   -3.0606   -0.1438 C   0  0  0  0  0  0  0  0  0  0  0  0
   -4.3326   -4.0147    0.8204 C   0  0  0  0  0  0  0  0  0  0  0  0
   -3.5050   -4.2195    1.9184 C   0  0  0  0  0  0  0  0  0  0  0  0
   -2.3377   -3.4703    2.0521 C   0  0  0  0  0  0  0  0  0  0  0  0
   -1.9810   -2.5011    1.0999 C   0  0  0  0  0  0  0  0  0  0  0  0
   -0.7810   -1.7930    1.3430 N   0  0  0  0  0  0  0  0  0  0  0  0
   -0.9653   -0.3257    1.4755 C   0  0  0  0  0  0  0  0  0  0  0  0
   -0.1590    0.4889    0.4488 C   0  0  0  0  0  0  0  0  0  0  0  0
    1.2592    0.1158    0.4211 N   0  0  0  0  0  0  0  0  0  0  0  0
    2.2046    1.0894    0.0886 C   0  0  0  0  0  0  0  0  0  0  0  0
    1.8425    2.2109   -0.2799 O   0  0  0  0  0  0  0  0  0  0  0  0
    3.6531    0.7834    0.1778 C   0  0  0  0  0  0  0  0  0  0  0  0
    4.1963   -0.2925    0.8084 N   0  0  0  0  0  0  0  0  0  0  0  0
    5.5375   -0.1529    0.6750 N   0  0  0  0  0  0  0  0  0  0  0  0
    5.8548    0.9594   -0.0093 C   0  0  0  0  0  0  0  0  0  0  0  0
    4.6919    1.5838   -0.3343 C   0  0  0  0  0  0  0  0  0  0  0  0
    4.9315    2.8324   -1.0765 C   0  0  0  0  0  0  0  0  0  0  0  0
    6.4843    3.0169   -0.8965 C   0  0  0  0  0  0  0  0  0  0  0  0
    7.0800    1.6336   -0.4496 C   0  0  0  0  0  0  0  0  0  0  0  0
    1.5478   -1.3118    0.6138 C   0  0  0  0  0  0  0  0  0  0  0  0
    0.3063   -2.2070    0.4326 C   0  0  0  0  0  0  0  0  0  0  0  0
   -2.1383    1.7579   -2.1148 H   0  0  0  0  0  0  0  0  0  0  0  0
   -3.6348    2.7152   -2.1891 H   0  0  0  0  0  0  0  0  0  0  0  0
   -2.3235    3.1492   -1.0735 H   0  0  0  0  0  0  0  0  0  0  0  0
   -5.1459    2.7129   -0.1270 H   0  0  0  0  0  0  0  0  0  0  0  0
   -3.7175    3.0834    0.8651 H   0  0  0  0  0  0  0  0  0  0  0  0
   -4.6851    1.6661    1.2343 H   0  0  0  0  0  0  0  0  0  0  0  0
   -4.7377   -0.1694   -0.1969 H   0  0  0  0  0  0  0  0  0  0  0  0
   -5.0039    0.7099   -1.7014 H   0  0  0  0  0  0  0  0  0  0  0  0
   -4.0459   -1.4623   -2.2633 H   0  0  0  0  0  0  0  0  0  0  0  0
   -2.8413   -0.2653   -2.5940 H   0  0  0  0  0  0  0  0  0  0  0  0
   -4.6588   -2.9578   -0.9947 H   0  0  0  0  0  0  0  0  0  0  0  0
   -5.2389   -4.6040    0.7077 H   0  0  0  0  0  0  0  0  0  0  0  0
   -3.7621   -4.9612    2.6692 H   0  0  0  0  0  0  0  0  0  0  0  0
   -1.6915   -3.6310    2.9120 H   0  0  0  0  0  0  0  0  0  0  0  0
   -2.0201   -0.0305    1.4513 H   0  0  0  0  0  0  0  0  0  0  0  0
   -0.6051   -0.0601    2.4777 H   0  0  0  0  0  0  0  0  0  0  0  0
   -0.5401    0.3315   -0.5652 H   0  0  0  0  0  0  0  0  0  0  0  0
   -0.2628    1.5561    0.6733 H   0  0  0  0  0  0  0  0  0  0  0  0
    6.1438   -0.8565    1.0845 H   0  0  0  0  0  0  0  0  0  0  0  0
    4.3862    3.6874   -0.6680 H   0  0  0  0  0  0  0  0  0  0  0  0
    4.6830    2.7111   -2.1357 H   0  0  0  0  0  0  0  0  0  0  0  0
    6.6637    3.7542   -0.1026 H   0  0  0  0  0  0  0  0  0  0  0  0
    6.9607    3.3950   -1.8068 H   0  0  0  0  0  0  0  0  0  0  0  0
    7.5332    1.1178   -1.3015 H   0  0  0  0  0  0  0  0  0  0  0  0
    7.8192    1.7587    0.3456 H   0  0  0  0  0  0  0  0  0  0  0  0
    1.9375   -1.4282    1.6315 H   0  0  0  0  0  0  0  0  0  0  0  0
    2.3098   -1.6304   -0.1037 H   0  0  0  0  0  0  0  0  0  0  0  0
    0.5855   -3.2463    0.6453 H   0  0  0  0  0  0  0  0  0  0  0  0
   -0.0093   -2.1582   -0.6170 H   0  0  0  0  0  0  0  0  0  0  0  0
  1  2  1  0
  2  3  1  0
  2  4  1  0
  4  5  1  0
  5  6  1  0
  6  7  1  0
  7  8  2  0
  8  9  1  0
  9 10  2  0
 10 11  1  0
 11 12  2  0
 12 13  1  0
 13 14  1  0
 14 15  1  0
 15 16  1  0
 16 17  1  0
 17 18  2  0
 17 19  1  0
 19 20  2  0
 20 21  1  0
 21 22  1  0
 22 23  2  0
 23 24  1  0
 24 25  1  0
 25 26  1  0
 16 27  1  0
 27 28  1  0
 12  7  1  0
 28 13  1  0
 23 19  1  0
 26 22  1  0
  1 29  1  0
  1 30  1  0
  1 31  1  0
  3 32  1  0
  3 33  1  0
  3 34  1  0
  4 35  1  0
  4 36  1  0
  5 37  1  0
  5 38  1  0
  8 39  1  0
  9 40  1  0
 10 41  1  0
 11 42  1  0
 14 43  1  0
 14 44  1  0
 15 45  1  0
 15 46  1  0
 21 47  1  0
 24 48  1  0
 24 49  1  0
 25 50  1  0
 25 51  1  0
 26 52  1  0
 26 53  1  0
 27 54  1  0
 27 55  1  0
 28 56  1  0
 28 57  1  0
M  END
$$$$
OCNT-2316755
     RDKit          3D

  0  0  0  0  0  0  0  0  0  0999 V3000
M  V30 BEGIN CTAB
M  V30 COUNTS 37 39 0 0 0
M  V30 BEGIN ATOM
M  V30 1 C 7.021135 -0.510885 1.117572 0
M  V30 2 C 5.658051 -0.312450 0.578700 0
M  V30 3 C 5.226099 0.571906 -0.388108 0
M  V30 4 N 3.879627 0.351186 -0.517429 0
M  V30 5 C 2.952141 0.968221 -1.345744 0
M  V30 6 C 1.665973 0.577689 -1.296178 0
M  V30 7 C 1.263225 -0.491199 -0.379136 0
M  V30 8 N -0.046623 -0.917131 -0.293432 0
M  V30 9 C -1.124620 -0.591518 -1.089709 0
M  V30 10 O -1.105003 0.086566 -2.107468 0
M  V30 11 N -2.283806 -1.159441 -0.596628 0
M  V30 12 C -3.551685 -0.924803 -1.250633 0
M  V30 13 C -4.148099 0.346682 -0.741024 0 CFG=1
M  V30 14 C -5.645376 0.534365 -0.674667 0
M  V30 15 C -4.848927 0.375959 0.601997 0 CFG=2
M  V30 16 C -4.632880 1.499279 1.550221 0
M  V30 17 F -4.518834 2.687321 0.917973 0
M  V30 18 F -3.502750 1.289426 2.262494 0
M  V30 19 F -5.663042 1.582785 2.420723 0
M  V30 20 C 2.188286 -1.066716 0.424847 0
M  V30 21 C 3.551110 -0.657559 0.375944 0
M  V30 22 N 4.607265 -1.069792 1.045379 0
M  V30 23 H 7.030914 -0.339134 2.198314 0
M  V30 24 H 7.735863 0.177379 0.655646 0
M  V30 25 H 7.359297 -1.534007 0.926755 0
M  V30 26 H 5.745550 1.314752 -0.975465 0
M  V30 27 H 3.306545 1.751244 -2.003355 0
M  V30 28 H 0.937462 1.065407 -1.932495 0
M  V30 29 H -0.226507 -1.668622 0.356526 0
M  V30 30 H -2.313346 -1.313763 0.399316 0
M  V30 31 H -4.190878 -1.785511 -1.027284 0
M  V30 32 H -3.412906 -0.872362 -2.335520 0
M  V30 33 H -3.561170 1.210868 -1.041056 0
M  V30 34 H -6.040407 1.515542 -0.919163 0
M  V30 35 H -6.288237 -0.284563 -0.977643 0
M  V30 36 H -4.964427 -0.552374 1.147267 0
M  V30 37 H 1.940979 -1.854745 1.125815 0
M  V30 END ATOM
M  V30 BEGIN BOND
M  V30 1 1 1 2
M  V30 2 2 2 3
M  V30 3 1 3 4
M  V30 4 1 4 5
M  V30 5 2 5 6
M  V30 6 1 6 7
M  V30 7 1 7 8
M  V30 8 1 8 9
M  V30 9 2 9 10
M  V30 10 1 9 11
M  V30 11 1 11 12
M  V30 12 1 12 13
M  V30 13 1 13 14
M  V30 14 1 14 15
M  V30 15 1 15 16
M  V30 16 1 16 17
M  V30 17 1 16 18
M  V30 18 1 16 19
M  V30 19 2 7 20
M  V30 20 1 20 21
M  V30 21 2 21 22
M  V30 22 1 22 2
M  V30 23 1 21 4
M  V30 24 1 15 13
M  V30 25 1 1 23
M  V30 26 1 1 24
M  V30 27 1 1 25
M  V30 28 1 3 26
M  V30 29 1 5 27
M  V30 30 1 6 28
M  V30 31 1 8 29
M  V30 32 1 11 30
M  V30 33 1 12 31
M  V30 34 1 12 32
M  V30 35 1 13 33 CFG=1
M  V30 36 1 14 34
M  V30 37 1 14 35
M  V30 38 1 15 36 CFG=1
M  V30 39 1 20 37
M  V30 END BOND
M  V30 BEGIN COLLECTION
M  V30 MDLV30/STERAC1 ATOMS=(2 13 15)
M  V30 END COLLECTION
M  V30 END CTAB
M  END
>  <_CXSMILES_Data>  (1133) 
|&1:12,14|

$$$$
OCNT-2316758
     RDKit          3D

 45 47  0  0  0  0  0  0  0  0999 V2000
    2.4678   -1.8934    1.6988 O   0  0  0  0  0  0  0  0  0  0  0  0
    2.2675   -1.0159    0.8628 C   0  0  0  0  0  0  0  0  0  0  0  0
    1.0317   -0.6970    0.3557 N   0  0  0  0  0  0  0  0  0  0  0  0
   -0.2032   -1.2467    0.8800 C   0  0  0  0  0  0  0  0  0  0  0  0
   -1.4514   -0.8149    0.0323 C   0  0  0  0  0  0  0  0  0  0  0  0
   -1.4463    0.6602   -0.2706 N   0  0  0  0  0  0  0  0  0  0  0  0
   -2.6370    1.1273   -1.0276 C   0  0  0  0  0  0  0  0  0  0  0  0
   -2.4845    2.5448   -1.5992 C   0  0  0  0  0  0  0  0  0  0  0  0
   -2.3279    3.7940   -0.2920 S   0  0  0  0  0  0  0  0  0  0  0  0
   -0.9875    2.9853    0.6255 C   0  0  0  0  0  0  0  0  0  0  0  0
   -1.2907    1.5113    0.9392 C   0  0  0  0  0  0  0  0  0  0  0  0
   -2.7348   -1.3224    0.7522 C   0  0  0  0  0  0  0  0  0  0  0  0
   -3.5202   -2.1048   -0.2910 C   0  0  0  0  0  0  0  0  0  0  0  0
   -2.4353   -2.7590   -1.1233 C   0  0  0  0  0  0  0  0  0  0  0  0
   -1.3929   -1.6593   -1.2881 C   0  0  0  0  0  0  0  0  0  0  0  0
    3.3996   -0.1940    0.3321 C   0  0  0  0  0  0  0  0  0  0  0  0
    3.0568    0.8021   -0.5379 N   0  0  0  0  0  0  0  0  0  0  0  0
    4.0753    1.5487   -1.0176 C   0  0  0  0  0  0  0  0  0  0  0  0
    5.4061    1.3565   -0.6730 C   0  0  0  0  0  0  0  0  0  0  0  0
    5.7246    0.3362    0.2208 C   0  0  0  0  0  0  0  0  0  0  0  0
    4.7085   -0.4562    0.7377 C   0  0  0  0  0  0  0  0  0  0  0  0
    5.0654   -1.4423    1.6145 O   0  0  0  0  0  0  0  0  0  0  0  0
    0.9755    0.1228   -0.2479 H   0  0  0  0  0  0  0  0  0  0  0  0
   -0.2944   -0.9233    1.9237 H   0  0  0  0  0  0  0  0  0  0  0  0
   -0.1014   -2.3392    0.9073 H   0  0  0  0  0  0  0  0  0  0  0  0
   -2.8301    0.4855   -1.8907 H   0  0  0  0  0  0  0  0  0  0  0  0
   -3.5419    1.0804   -0.4079 H   0  0  0  0  0  0  0  0  0  0  0  0
   -3.3643    2.7945   -2.2011 H   0  0  0  0  0  0  0  0  0  0  0  0
   -1.6106    2.6044   -2.2572 H   0  0  0  0  0  0  0  0  0  0  0  0
   -0.0614    3.0702    0.0461 H   0  0  0  0  0  0  0  0  0  0  0  0
   -0.8377    3.5352    1.5604 H   0  0  0  0  0  0  0  0  0  0  0  0
   -2.1755    1.4400    1.5846 H   0  0  0  0  0  0  0  0  0  0  0  0
   -0.4436    1.1767    1.5436 H   0  0  0  0  0  0  0  0  0  0  0  0
   -2.4740   -1.9939    1.5806 H   0  0  0  0  0  0  0  0  0  0  0  0
   -3.3442   -0.5273    1.1917 H   0  0  0  0  0  0  0  0  0  0  0  0
   -4.1909   -2.8390    0.1647 H   0  0  0  0  0  0  0  0  0  0  0  0
   -4.1242   -1.4304   -0.9078 H   0  0  0  0  0  0  0  0  0  0  0  0
   -2.8100   -3.1206   -2.0852 H   0  0  0  0  0  0  0  0  0  0  0  0
   -2.0033   -3.6102   -0.5840 H   0  0  0  0  0  0  0  0  0  0  0  0
   -1.6270   -1.0762   -2.1829 H   0  0  0  0  0  0  0  0  0  0  0  0
   -0.4041   -2.0906   -1.4822 H   0  0  0  0  0  0  0  0  0  0  0  0
    3.7885    2.3349   -1.7115 H   0  0  0  0  0  0  0  0  0  0  0  0
    6.1820    1.9892   -1.0914 H   0  0  0  0  0  0  0  0  0  0  0  0
    6.7559    0.1600    0.5129 H   0  0  0  0  0  0  0  0  0  0  0  0
    4.2449   -1.9036    1.9051 H   0  0  0  0  0  0  0  0  0  0  0  0
  1  2  2  0
  2  3  1  0
  3  4  1  0
  4  5  1  0
  5  6  1  0
  6  7  1  0
  7  8  1  0
  8  9  1  0
  9 10  1  0
 10 11  1  0
  5 12  1  0
 12 13  1  0
 13 14  1  0
 14 15  1  0
  2 16  1  0
 16 17  1  0
 17 18  2  0
 18 19  1  0
 19 20  2  0
 20 21  1  0
 21 22  1  0
 15  5  1  0
 21 16  2  0
 11  6  1  0
  3 23  1  0
  4 24  1  0
  4 25  1  0
  7 26  1  0
  7 27  1  0
  8 28  1  0
  8 29  1  0
 10 30  1  0
 10 31  1  0
 11 32  1  0
 11 33  1  0
 12 34  1  0
 12 35  1  0
 13 36  1  0
 13 37  1  0
 14 38  1  0
 14 39  1  0
 15 40  1  0
 15 41  1  0
 18 42  1  0
 19 43  1  0
 20 44  1  0
 22 45  1  0
M  END
$$$$
OCNT-2316768
     RDKit          3D

 38 39  0  0  0  0  0  0  0  0999 V2000
   -2.1152    2.7982    0.1445 O   0  0  0  0  0  0  0  0  0  0  0  0
   -1.4583    1.8317    0.9718 C   0  0  0  0  0  0  0  0  0  0  0  0
   -1.4686    0.4311    0.3082 C   0  0  1  0  0  0  0  0  0  0  0  0
   -0.5981   -0.5673    0.9683 N   0  0  0  0  0  0  0  0  0  0  0  0
    0.8430   -0.2628    0.9584 C   0  0  0  0  0  0  0  0  0  0  0  0
    1.5213   -0.1465   -0.4321 C   0  0  1  0  0  0  0  0  0  0  0  0
    1.2194    1.1161   -1.0266 O   0  0  0  0  0  0  0  0  0  0  0  0
    3.0290   -0.2824   -0.3373 C   0  0  0  0  0  0  0  0  0  0  0  0
    3.6680   -1.4345   -0.8153 C   0  0  0  0  0  0  0  0  0  0  0  0
    5.0563   -1.5664   -0.7205 C   0  0  0  0  0  0  0  0  0  0  0  0
    5.8251   -0.5504   -0.1458 C   0  0  0  0  0  0  0  0  0  0  0  0
    7.5346   -0.7842   -0.0638 Cl  0  0  0  0  0  0  0  0  0  0  0  0
    5.2003    0.6032    0.3366 C   0  0  0  0  0  0  0  0  0  0  0  0
    6.0810    1.9017    1.0595 Cl  0  0  0  0  0  0  0  0  0  0  0  0
    3.8101    0.7332    0.2409 C   0  0  0  0  0  0  0  0  0  0  0  0
   -2.9034   -0.1087    0.2755 C   0  0  0  0  0  0  0  0  0  0  0  0
   -3.6592   -0.0210   -0.9044 C   0  0  0  0  0  0  0  0  0  0  0  0
   -4.9695   -0.5017   -0.9495 C   0  0  0  0  0  0  0  0  0  0  0  0
   -5.5437   -1.0725    0.1844 C   0  0  0  0  0  0  0  0  0  0  0  0
   -4.8111   -1.1588    1.3662 C   0  0  0  0  0  0  0  0  0  0  0  0
   -3.5015   -0.6773    1.4134 C   0  0  0  0  0  0  0  0  0  0  0  0
   -2.1402    3.6262    0.6526 H   0  0  0  0  0  0  0  0  0  0  0  0
   -0.4371    2.1957    1.1125 H   0  0  0  0  0  0  0  0  0  0  0  0
   -1.9549    1.8174    1.9485 H   0  0  0  0  0  0  0  0  0  0  0  0
   -1.1572    0.5328   -0.7378 H   0  0  0  0  0  0  0  0  0  0  0  0
   -0.7532   -1.4569    0.4930 H   0  0  0  0  0  0  0  0  0  0  0  0
    1.0303    0.6396    1.5511 H   0  0  0  0  0  0  0  0  0  0  0  0
    1.3204   -1.0826    1.5105 H   0  0  0  0  0  0  0  0  0  0  0  0
    1.1248   -0.9210   -1.0998 H   0  0  0  0  0  0  0  0  0  0  0  0
    1.7959    1.2173   -1.8035 H   0  0  0  0  0  0  0  0  0  0  0  0
    3.0920   -2.2423   -1.2643 H   0  0  0  0  0  0  0  0  0  0  0  0
    5.5343   -2.4684   -1.0970 H   0  0  0  0  0  0  0  0  0  0  0  0
    3.3274    1.6351    0.6162 H   0  0  0  0  0  0  0  0  0  0  0  0
   -3.2327    0.4394   -1.7932 H   0  0  0  0  0  0  0  0  0  0  0  0
   -5.5437   -0.4226   -1.8687 H   0  0  0  0  0  0  0  0  0  0  0  0
   -6.5643   -1.4436    0.1488 H   0  0  0  0  0  0  0  0  0  0  0  0
   -5.2589   -1.5981    2.2534 H   0  0  0  0  0  0  0  0  0  0  0  0
   -2.9423   -0.7486    2.3442 H   0  0  0  0  0  0  0  0  0  0  0  0
  1  2  1  0
  2  3  1  0
  3  4  1  0
  4  5  1  0
  5  6  1  0
  6  7  1  0
  6  8  1  0
  8  9  1  0
  9 10  2  0
 10 11  1  0
 11 12  1  0
 11 13  2  0
 13 14  1  0
 13 15  1  0
  3 16  1  0
 16 17  2  0
 17 18  1  0
 18 19  2  0
 19 20  1  0
 20 21  2  0
 15  8  2  0
 21 16  1  0
  1 22  1  0
  2 23  1  0
  2 24  1  0
  3 25  1  6
  4 26  1  0
  5 27  1  0
  5 28  1  0
  6 29  1  6
  7 30  1  0
  9 31  1  0
 10 32  1  0
 15 33  1  0
 17 34  1  0
 18 35  1  0
 19 36  1  0
 20 37  1  0
 21 38  1  0
M  END
$$$$
OCNT-2316781
     RDKit          3D

 45 48  0  0  0  0  0  0  0  0999 V2000
    0.3866   -2.0416    1.9382 O   0  0  0  0  0  0  0  0  0  0  0  0
    0.4962   -1.4931    0.8494 C   0  0  0  0  0  0  0  0  0  0  0  0
   -0.4517   -0.6978    0.2325 N   0  0  0  0  0  0  0  0  0  0  0  0
   -1.6948   -0.3019    0.7730 C   0  0  0  0  0  0  0  0  0  0  0  0
   -2.1333   -0.5800    2.0654 C   0  0  0  0  0  0  0  0  0  0  0  0
   -3.3287   -0.1768    2.5709 N   0  0  0  0  0  0  0  0  0  0  0  0
   -4.1342    0.5296    1.7513 C   0  0  0  0  0  0  0  0  0  0  0  0
   -5.4526    1.0212    2.2861 C   0  0  0  0  0  0  0  0  0  0  0  0
   -6.5644    0.8048    1.2597 C   0  0  0  0  0  0  0  0  0  0  0  0
   -6.1943    1.2038   -0.1785 C   0  0  0  0  0  0  0  0  0  0  0  0
   -4.7509    1.6801   -0.3685 C   0  0  0  0  0  0  0  0  0  0  0  0
   -3.7916    0.8555    0.4393 C   0  0  0  0  0  0  0  0  0  0  0  0
   -2.5502    0.4403   -0.0460 C   0  0  0  0  0  0  0  0  0  0  0  0
    1.7415   -1.7157    0.0614 C   0  0  0  0  0  0  0  0  0  0  0  0
    2.3674   -2.9637    0.1476 C   0  0  0  0  0  0  0  0  0  0  0  0
    3.5359   -3.2105   -0.5711 C   0  0  0  0  0  0  0  0  0  0  0  0
    4.0891   -2.2096   -1.3711 C   0  0  0  0  0  0  0  0  0  0  0  0
    3.4848   -0.9455   -1.4574 C   0  0  0  0  0  0  0  0  0  0  0  0
    4.1090    0.1413   -2.2974 C   0  0  0  0  0  0  0  0  0  0  0  0
    5.2136    0.7838   -1.6098 N   0  0  0  0  0  0  0  0  0  0  0  0
    6.5451    0.5398   -1.8057 C   0  0  0  0  0  0  0  0  0  0  0  0
    7.1924    1.4286   -0.9789 C   0  0  0  0  0  0  0  0  0  0  0  0
    6.2911    2.2091   -0.3023 N   0  0  0  0  0  0  0  0  0  0  0  0
    5.1086    1.7971   -0.6994 C   0  0  0  0  0  0  0  0  0  0  0  0
    2.3082   -0.7034   -0.7280 C   0  0  0  0  0  0  0  0  0  0  0  0
   -0.2820   -0.4285   -0.7268 H   0  0  0  0  0  0  0  0  0  0  0  0
   -1.5350   -1.1416    2.7750 H   0  0  0  0  0  0  0  0  0  0  0  0
   -5.3583    2.0883    2.5208 H   0  0  0  0  0  0  0  0  0  0  0  0
   -5.7040    0.5032    3.2184 H   0  0  0  0  0  0  0  0  0  0  0  0
   -6.8378   -0.2593    1.2570 H   0  0  0  0  0  0  0  0  0  0  0  0
   -7.4656    1.3436    1.5756 H   0  0  0  0  0  0  0  0  0  0  0  0
   -6.3661    0.3325   -0.8255 H   0  0  0  0  0  0  0  0  0  0  0  0
   -6.8812    1.9797   -0.5384 H   0  0  0  0  0  0  0  0  0  0  0  0
   -4.4977    1.6422   -1.4343 H   0  0  0  0  0  0  0  0  0  0  0  0
   -4.6589    2.7270   -0.0533 H   0  0  0  0  0  0  0  0  0  0  0  0
   -2.2630    0.6972   -1.0614 H   0  0  0  0  0  0  0  0  0  0  0  0
    1.9465   -3.7445    0.7789 H   0  0  0  0  0  0  0  0  0  0  0  0
    4.0212   -4.1812   -0.4985 H   0  0  0  0  0  0  0  0  0  0  0  0
    5.0094   -2.4201   -1.9138 H   0  0  0  0  0  0  0  0  0  0  0  0
    4.4829   -0.2698   -3.2425 H   0  0  0  0  0  0  0  0  0  0  0  0
    3.3777    0.9177   -2.5523 H   0  0  0  0  0  0  0  0  0  0  0  0
    6.9126   -0.2152   -2.4864 H   0  0  0  0  0  0  0  0  0  0  0  0
    8.2583    1.5516   -0.8380 H   0  0  0  0  0  0  0  0  0  0  0  0
    4.1605    2.1958   -0.3627 H   0  0  0  0  0  0  0  0  0  0  0  0
    1.8575    0.2860   -0.7502 H   0  0  0  0  0  0  0  0  0  0  0  0
  1  2  2  0
  2  3  1  0
  3  4  1  0
  4  5  1  0
  5  6  2  0
  6  7  1  0
  7  8  1  0
  8  9  1  0
  9 10  1  0
 10 11  1  0
 11 12  1  0
 12 13  1  0
  2 14  1  0
 14 15  1  0
 15 16  2  0
 16 17  1  0
 17 18  2  0
 18 19  1  0
 19 20  1  0
 20 21  1  0
 21 22  2  0
 22 23  1  0
 23 24  2  0
 18 25  1  0
 13  4  2  0
 25 14  2  0
 12  7  2  0
 24 20  1  0
  3 26  1  0
  5 27  1  0
  8 28  1  0
  8 29  1  0
  9 30  1  0
  9 31  1  0
 10 32  1  0
 10 33  1  0
 11 34  1  0
 11 35  1  0
 13 36  1  0
 15 37  1  0
 16 38  1  0
 17 39  1  0
 19 40  1  0
 19 41  1  0
 21 42  1  0
 22 43  1  0
 24 44  1  0
 25 45  1  0
M  END
$$$$
OCNT-2316796
     RDKit          3D

 38 40  0  0  0  0  0  0  0  0999 V2000
    4.0807    1.5352   -0.2988 C   0  0  0  0  0  0  0  0  0  0  0  0
    4.0606    0.0454   -0.0656 C   0  0  0  0  0  0  0  0  0  0  0  0
    5.2617   -0.6958   -0.1111 C   0  0  0  0  0  0  0  0  0  0  0  0
    6.9487    0.1201   -0.4520 Br  0  0  0  0  0  0  0  0  0  0  0  0
    5.2700   -2.0773    0.1055 C   0  0  0  0  0  0  0  0  0  0  0  0
    4.0843   -2.7463    0.3822 C   0  0  0  0  0  0  0  0  0  0  0  0
    2.8918   -2.0330    0.4549 C   0  0  0  0  0  0  0  0  0  0  0  0
    2.8617   -0.6400    0.2485 C   0  0  0  0  0  0  0  0  0  0  0  0
    1.5152    0.0458    0.3560 C   0  0  0  0  0  0  0  0  0  0  0  0
    0.8048    0.1239   -0.9977 C   0  0  0  0  0  0  0  0  0  0  0  0
   -0.4661    0.8077   -0.9065 N   0  0  0  0  0  0  0  0  0  0  0  0
   -1.6051    0.2032   -0.4221 C   0  0  0  0  0  0  0  0  0  0  0  0
   -1.6490   -0.9688   -0.0634 O   0  0  0  0  0  0  0  0  0  0  0  0
   -2.7433    1.1126   -0.3788 C   0  0  0  0  0  0  0  0  0  0  0  0
   -4.0267    0.8436    0.0549 C   0  0  0  0  0  0  0  0  0  0  0  0
   -4.5740   -0.4956    0.6078 C   0  0  0  0  0  0  0  0  0  0  0  0
   -4.4412   -0.7734    2.0822 C   0  0  0  0  0  0  0  0  0  0  0  0
   -5.7915   -0.4851    1.4942 C   0  0  0  0  0  0  0  0  0  0  0  0
   -4.7655    1.9858   -0.0870 O   0  0  0  0  0  0  0  0  0  0  0  0
   -3.8871    2.8897   -0.5940 C   0  0  0  0  0  0  0  0  0  0  0  0
   -2.6680    2.4414   -0.7905 N   0  0  0  0  0  0  0  0  0  0  0  0
    4.6778    1.7849   -1.1818 H   0  0  0  0  0  0  0  0  0  0  0  0
    4.4916    2.0458    0.5778 H   0  0  0  0  0  0  0  0  0  0  0  0
    3.0897    1.9493   -0.4973 H   0  0  0  0  0  0  0  0  0  0  0  0
    6.1991   -2.6400    0.0631 H   0  0  0  0  0  0  0  0  0  0  0  0
    4.0883   -3.8202    0.5489 H   0  0  0  0  0  0  0  0  0  0  0  0
    1.9719   -2.5721    0.6805 H   0  0  0  0  0  0  0  0  0  0  0  0
    0.8882   -0.4999    1.0740 H   0  0  0  0  0  0  0  0  0  0  0  0
    1.6252    1.0422    0.7999 H   0  0  0  0  0  0  0  0  0  0  0  0
    0.6292   -0.8829   -1.3951 H   0  0  0  0  0  0  0  0  0  0  0  0
    1.4092    0.6686   -1.7306 H   0  0  0  0  0  0  0  0  0  0  0  0
   -0.5408    1.7951   -1.1352 H   0  0  0  0  0  0  0  0  0  0  0  0
   -4.4636   -1.3397   -0.0663 H   0  0  0  0  0  0  0  0  0  0  0  0
   -3.9909   -0.0183    2.7161 H   0  0  0  0  0  0  0  0  0  0  0  0
   -4.2167   -1.7912    2.3802 H   0  0  0  0  0  0  0  0  0  0  0  0
   -6.4912   -1.3073    1.3993 H   0  0  0  0  0  0  0  0  0  0  0  0
   -6.2559    0.4653    1.7311 H   0  0  0  0  0  0  0  0  0  0  0  0
   -4.2729    3.8814   -0.7846 H   0  0  0  0  0  0  0  0  0  0  0  0
  1  2  1  0
  2  3  2  0
  3  4  1  0
  3  5  1  0
  5  6  2  0
  6  7  1  0
  7  8  2  0
  8  9  1  0
  9 10  1  0
 10 11  1  0
 11 12  1  0
 12 13  2  0
 12 14  1  0
 14 15  2  0
 15 16  1  0
 16 17  1  0
 17 18  1  0
 15 19  1  0
 19 20  1  0
 20 21  2  0
  8  2  1  0
 21 14  1  0
 18 16  1  0
  1 22  1  0
  1 23  1  0
  1 24  1  0
  5 25  1  0
  6 26  1  0
  7 27  1  0
  9 28  1  0
  9 29  1  0
 10 30  1  0
 10 31  1  0
 11 32  1  0
 16 33  1  0
 17 34  1  0
 17 35  1  0
 18 36  1  0
 18 37  1  0
 20 38  1  0
M  END
$$$$
OCNT-2316818
     RDKit          3D

 37 39  0  0  0  0  0  0  0  0999 V2000
   -3.3267   -2.0252    1.4467 C   0  0  0  0  0  0  0  0  0  0  0  0
   -2.4847   -0.8198    1.0226 C   0  0  1  0  0  0  0  0  0  0  0  0
   -1.1823   -1.2723    0.5517 N   0  0  0  0  0  0  0  0  0  0  0  0
   -0.0457   -0.5284    0.8096 C   0  0  0  0  0  0  0  0  0  0  0  0
   -0.0527    0.4724    1.5129 O   0  0  0  0  0  0  0  0  0  0  0  0
    1.0495   -1.0957    0.1931 N   0  0  0  0  0  0  0  0  0  0  0  0
    2.3674   -0.5952    0.1473 C   0  0  0  0  0  0  0  0  0  0  0  0
    3.3455   -1.4303   -0.4131 C   0  0  0  0  0  0  0  0  0  0  0  0
    4.6863   -1.0354   -0.5198 C   0  0  0  0  0  0  0  0  0  0  0  0
    5.0079    0.2365   -0.0444 C   0  0  0  0  0  0  0  0  0  0  0  0
    6.1933    0.9223    0.0044 N   0  0  0  0  0  0  0  0  0  0  0  0
    6.0967    2.1513    0.5420 N   0  0  0  0  0  0  0  0  0  0  0  0
    4.8006    2.2516    0.8509 C   0  0  0  0  0  0  0  0  0  0  0  0
    4.0668    1.0933    0.5114 C   0  0  0  0  0  0  0  0  0  0  0  0
    2.7248    0.6784    0.6091 C   0  0  0  0  0  0  0  0  0  0  0  0
   -3.1432    0.0441   -0.0424 C   0  0  0  0  0  0  0  0  0  0  0  0
   -2.9687    1.4386    0.0037 C   0  0  0  0  0  0  0  0  0  0  0  0
   -3.5321    2.2682   -0.9684 C   0  0  0  0  0  0  0  0  0  0  0  0
   -4.2731    1.7158   -2.0105 C   0  0  0  0  0  0  0  0  0  0  0  0
   -4.4403    0.3355   -2.0776 C   0  0  0  0  0  0  0  0  0  0  0  0
   -5.3416   -0.3529   -3.3728 Cl  0  0  0  0  0  0  0  0  0  0  0  0
   -3.8786   -0.4989   -1.1084 C   0  0  0  0  0  0  0  0  0  0  0  0
   -3.4275   -2.7639    0.6441 H   0  0  0  0  0  0  0  0  0  0  0  0
   -4.3305   -1.7171    1.7582 H   0  0  0  0  0  0  0  0  0  0  0  0
   -2.8533   -2.5394    2.2911 H   0  0  0  0  0  0  0  0  0  0  0  0
   -2.3443   -0.2094    1.9241 H   0  0  0  0  0  0  0  0  0  0  0  0
   -1.1885   -1.7312   -0.3459 H   0  0  0  0  0  0  0  0  0  0  0  0
    0.9121   -2.0353   -0.1458 H   0  0  0  0  0  0  0  0  0  0  0  0
    3.0774   -2.4190   -0.7796 H   0  0  0  0  0  0  0  0  0  0  0  0
    5.4328   -1.6928   -0.9528 H   0  0  0  0  0  0  0  0  0  0  0  0
    7.1028    0.6086   -0.3134 H   0  0  0  0  0  0  0  0  0  0  0  0
    4.4383    3.1620    1.3107 H   0  0  0  0  0  0  0  0  0  0  0  0
    1.9998    1.3611    1.0367 H   0  0  0  0  0  0  0  0  0  0  0  0
   -2.3758    1.8875    0.8014 H   0  0  0  0  0  0  0  0  0  0  0  0
   -3.3850    3.3441   -0.9133 H   0  0  0  0  0  0  0  0  0  0  0  0
   -4.7085    2.3633   -2.7664 H   0  0  0  0  0  0  0  0  0  0  0  0
   -4.0188   -1.5724   -1.1969 H   0  0  0  0  0  0  0  0  0  0  0  0
  1  2  1  0
  2  3  1  0
  3  4  1  0
  4  5  2  0
  4  6  1  0
  6  7  1  0
  7  8  2  0
  8  9  1  0
  9 10  2  0
 10 11  1  0
 11 12  1  0
 12 13  2  0
 13 14  1  0
 14 15  2  0
  2 16  1  0
 16 17  2  0
 17 18  1  0
 18 19  2  0
 19 20  1  0
 20 21  1  0
 20 22  2  0
 15  7  1  0
 22 16  1  0
 14 10  1  0
  1 23  1  0
  1 24  1  0
  1 25  1  0
  2 26  1  1
  3 27  1  0
  6 28  1  0
  8 29  1  0
  9 30  1  0
 11 31  1  0
 13 32  1  0
 15 33  1  0
 17 34  1  0
 18 35  1  0
 19 36  1  0
 22 37  1  0
M  END
$$$$
OCNT-2316819
     RDKit          3D

 46 49  0  0  0  0  0  0  0  0999 V2000
   -1.8624   -3.2832   -1.8545 C   0  0  0  0  0  0  0  0  0  0  0  0
   -1.9783   -2.1561   -0.8952 C   0  0  0  0  0  0  0  0  0  0  0  0
   -3.1637   -1.5911   -0.6730 N   0  0  0  0  0  0  0  0  0  0  0  0
   -2.9234   -0.5490    0.1675 N   0  0  0  0  0  0  0  0  0  0  0  0
   -3.9933    0.3598    0.4488 C   0  0  0  0  0  0  0  0  0  0  0  0
   -3.7841    1.6257    1.0079 C   0  0  0  0  0  0  0  0  0  0  0  0
   -4.8663    2.4779    1.2585 C   0  0  0  0  0  0  0  0  0  0  0  0
   -6.1638    2.0812    0.9445 C   0  0  0  0  0  0  0  0  0  0  0  0
   -6.3842    0.8348    0.3673 C   0  0  0  0  0  0  0  0  0  0  0  0
   -5.3068   -0.0181    0.1144 C   0  0  0  0  0  0  0  0  0  0  0  0
   -1.6035   -0.5761    0.6169 C   0  0  0  0  0  0  0  0  0  0  0  0
   -1.0496    0.2677    1.7093 C   0  0  0  0  0  0  0  0  0  0  0  0
   -0.9548   -1.5628   -0.1192 C   0  0  0  0  0  0  0  0  0  0  0  0
    0.4821   -1.9655   -0.0741 C   0  0  0  0  0  0  0  0  0  0  0  0
    1.1395   -1.6775   -1.3511 N   0  0  0  0  0  0  0  0  0  0  0  0
    1.3230   -0.2441   -1.6093 C   0  0  0  0  0  0  0  0  0  0  0  0
    2.3512    0.3741   -0.7364 C   0  0  0  0  0  0  0  0  0  0  0  0
    3.7256    0.3540   -0.7109 C   0  0  0  0  0  0  0  0  0  0  0  0
    4.0559    1.1567    0.3972 C   0  0  0  0  0  0  0  0  0  0  0  0
    5.4896    1.4832    0.9012 C   0  0  0  0  0  0  0  0  0  0  0  0
    6.5807    0.4474    0.8201 C   0  0  0  0  0  0  0  0  0  0  0  0
    6.6230    1.6522   -0.0770 C   0  0  0  0  0  0  0  0  0  0  0  0
    2.9706    1.6366    1.0096 N   0  0  0  0  0  0  0  0  0  0  0  0
    1.8954    1.1474    0.2870 O   0  0  0  0  0  0  0  0  0  0  0  0
   -2.8465   -3.6679   -2.1424 H   0  0  0  0  0  0  0  0  0  0  0  0
   -1.2975   -4.1105   -1.4136 H   0  0  0  0  0  0  0  0  0  0  0  0
   -1.3476   -2.9566   -2.7635 H   0  0  0  0  0  0  0  0  0  0  0  0
   -2.7959    2.0110    1.2232 H   0  0  0  0  0  0  0  0  0  0  0  0
   -4.6914    3.4610    1.6892 H   0  0  0  0  0  0  0  0  0  0  0  0
   -7.0003    2.7473    1.1386 H   0  0  0  0  0  0  0  0  0  0  0  0
   -7.3928    0.5221    0.1099 H   0  0  0  0  0  0  0  0  0  0  0  0
   -5.5094   -0.9882   -0.3373 H   0  0  0  0  0  0  0  0  0  0  0  0
   -0.1714   -0.2024    2.1631 H   0  0  0  0  0  0  0  0  0  0  0  0
   -1.7715    0.4034    2.5201 H   0  0  0  0  0  0  0  0  0  0  0  0
   -0.7353    1.2424    1.3256 H   0  0  0  0  0  0  0  0  0  0  0  0
    0.5288   -3.0481    0.0969 H   0  0  0  0  0  0  0  0  0  0  0  0
    1.0168   -1.5093    0.7644 H   0  0  0  0  0  0  0  0  0  0  0  0
    2.0523   -2.1273   -1.3525 H   0  0  0  0  0  0  0  0  0  0  0  0
    1.6533   -0.1395   -2.6499 H   0  0  0  0  0  0  0  0  0  0  0  0
    0.3760    0.3037   -1.5499 H   0  0  0  0  0  0  0  0  0  0  0  0
    4.3834   -0.1635   -1.3914 H   0  0  0  0  0  0  0  0  0  0  0  0
    5.5018    2.1326    1.7726 H   0  0  0  0  0  0  0  0  0  0  0  0
    6.3638   -0.5157    0.3741 H   0  0  0  0  0  0  0  0  0  0  0  0
    7.2883    0.3993    1.6406 H   0  0  0  0  0  0  0  0  0  0  0  0
    6.4344    1.5111   -1.1344 H   0  0  0  0  0  0  0  0  0  0  0  0
    7.3587    2.4199    0.1362 H   0  0  0  0  0  0  0  0  0  0  0  0
  1  2  1  0
  2  3  2  0
  3  4  1  0
  4  5  1  0
  5  6  2  0
  6  7  1  0
  7  8  2  0
  8  9  1  0
  9 10  2  0
  4 11  1  0
 11 12  1  0
 11 13  2  0
 13 14  1  0
 14 15  1  0
 15 16  1  0
 16 17  1  0
 17 18  2  0
 18 19  1  0
 19 20  1  0
 20 21  1  0
 21 22  1  0
 19 23  2  0
 23 24  1  0
 13  2  1  0
 24 17  1  0
 10  5  1  0
 22 20  1  0
  1 25  1  0
  1 26  1  0
  1 27  1  0
  6 28  1  0
  7 29  1  0
  8 30  1  0
  9 31  1  0
 10 32  1  0
 12 33  1  0
 12 34  1  0
 12 35  1  0
 14 36  1  0
 14 37  1  0
 15 38  1  0
 16 39  1  0
 16 40  1  0
 18 41  1  0
 20 42  1  0
 21 43  1  0
 21 44  1  0
 22 45  1  0
 22 46  1  0
M  END
$$$$
OCNT-2316822
     RDKit          3D

 41 44  0  0  0  0  0  0  0  0999 V2000
    5.6380   -0.4288    1.3332 C   0  0  0  0  0  0  0  0  0  0  0  0
    4.4251   -0.3774    0.5618 N   0  0  0  0  0  0  0  0  0  0  0  0
    4.3251   -0.4060   -0.8018 C   0  0  0  0  0  0  0  0  0  0  0  0
    3.0721   -0.3429   -1.2029 N   0  0  0  0  0  0  0  0  0  0  0  0
    2.3327   -0.2734   -0.0363 C   0  0  0  0  0  0  0  0  0  0  0  0
    0.9452   -0.1814    0.1968 C   0  0  0  0  0  0  0  0  0  0  0  0
    0.0400   -0.1851   -0.8642 N   0  0  0  0  0  0  0  0  0  0  0  0
   -1.1380    0.6928   -0.8143 C   0  0  0  0  0  0  0  0  0  0  0  0
   -2.2545    0.1846    0.1331 C   0  0  0  0  0  0  0  0  0  0  0  0
   -2.9084   -1.1011   -0.3295 C   0  0  0  0  0  0  0  0  0  0  0  0
   -2.3443   -2.3406   -0.0009 C   0  0  0  0  0  0  0  0  0  0  0  0
   -2.9388   -3.5263   -0.4340 C   0  0  0  0  0  0  0  0  0  0  0  0
   -4.1019   -3.4845   -1.2003 C   0  0  0  0  0  0  0  0  0  0  0  0
   -4.6699   -2.2568   -1.5363 C   0  0  0  0  0  0  0  0  0  0  0  0
   -4.0758   -1.0694   -1.1050 C   0  0  0  0  0  0  0  0  0  0  0  0
   -0.8236    2.1653   -0.5893 C   0  0  0  0  0  0  0  0  0  0  0  0
   -0.6843    2.8605    0.5989 C   0  0  0  0  0  0  0  0  0  0  0  0
   -0.3781    4.2367    0.3975 C   0  0  0  0  0  0  0  0  0  0  0  0
   -0.2873    4.5529   -0.9384 C   0  0  0  0  0  0  0  0  0  0  0  0
   -0.5662    3.1970   -1.9399 S   0  0  0  0  0  0  0  0  0  0  0  0
    0.5315   -0.1266    1.4900 N   0  0  0  0  0  0  0  0  0  0  0  0
    1.4571   -0.1589    2.4744 C   0  0  0  0  0  0  0  0  0  0  0  0
    2.7976   -0.2365    2.3640 N   0  0  0  0  0  0  0  0  0  0  0  0
    3.1612   -0.2910    1.0732 C   0  0  0  0  0  0  0  0  0  0  0  0
    6.4972   -0.4963    0.6610 H   0  0  0  0  0  0  0  0  0  0  0  0
    5.7086    0.4825    1.9325 H   0  0  0  0  0  0  0  0  0  0  0  0
    5.6036   -1.3104    1.9783 H   0  0  0  0  0  0  0  0  0  0  0  0
    5.1881   -0.4726   -1.4524 H   0  0  0  0  0  0  0  0  0  0  0  0
    0.5651   -0.0690   -1.7307 H   0  0  0  0  0  0  0  0  0  0  0  0
   -1.5719    0.6279   -1.8237 H   0  0  0  0  0  0  0  0  0  0  0  0
   -3.0410    0.9490    0.2092 H   0  0  0  0  0  0  0  0  0  0  0  0
   -1.9010    0.0512    1.1611 H   0  0  0  0  0  0  0  0  0  0  0  0
   -1.4296   -2.3835    0.5876 H   0  0  0  0  0  0  0  0  0  0  0  0
   -2.4895   -4.4814   -0.1762 H   0  0  0  0  0  0  0  0  0  0  0  0
   -4.5631   -4.4083   -1.5382 H   0  0  0  0  0  0  0  0  0  0  0  0
   -5.5754   -2.2239   -2.1360 H   0  0  0  0  0  0  0  0  0  0  0  0
   -4.5309   -0.1202   -1.3776 H   0  0  0  0  0  0  0  0  0  0  0  0
   -0.7900    2.3969    1.5728 H   0  0  0  0  0  0  0  0  0  0  0  0
   -0.2269    4.9560    1.1928 H   0  0  0  0  0  0  0  0  0  0  0  0
   -0.0651    5.5156   -1.3776 H   0  0  0  0  0  0  0  0  0  0  0  0
    1.0668   -0.1165    3.4873 H   0  0  0  0  0  0  0  0  0  0  0  0
  1  2  1  0
  2  3  1  0
  3  4  2  0
  4  5  1  0
  5  6  2  0
  6  7  1  0
  7  8  1  0
  8  9  1  0
  9 10  1  0
 10 11  2  0
 11 12  1  0
 12 13  2  0
 13 14  1  0
 14 15  2  0
  8 16  1  0
 16 17  2  0
 17 18  1  0
 18 19  2  0
 19 20  1  0
  6 21  1  0
 21 22  2  0
 22 23  1  0
 23 24  2  0
 24  2  1  0
 24  5  1  0
 15 10  1  0
 20 16  1  0
  1 25  1  0
  1 26  1  0
  1 27  1  0
  3 28  1  0
  7 29  1  0
  8 30  1  0
  9 31  1  0
  9 32  1  0
 11 33  1  0
 12 34  1  0
 13 35  1  0
 14 36  1  0
 15 37  1  0
 17 38  1  0
 18 39  1  0
 19 40  1  0
 22 41  1  0
M  END
$$$$
OCNT-2316823
     RDKit          3D

 38 41  0  0  0  0  0  0  0  0999 V2000
    6.9883   -0.6265   -0.7273 N   0  0  0  0  0  0  0  0  0  0  0  0
    5.6196   -1.5977   -0.5755 S   0  0  0  0  0  0  0  0  0  0  0  0
    5.1171   -1.8656   -1.9014 O   0  0  0  0  0  0  0  0  0  0  0  0
    5.9905   -2.6488    0.3441 O   0  0  0  0  0  0  0  0  0  0  0  0
    4.4988   -0.4963    0.2463 C   0  0  0  0  0  0  0  0  0  0  0  0
    4.4316   -0.4925    1.6415 C   0  0  0  0  0  0  0  0  0  0  0  0
    3.5445    0.3716    2.2803 C   0  0  0  0  0  0  0  0  0  0  0  0
    2.7280    1.2196    1.5281 C   0  0  0  0  0  0  0  0  0  0  0  0
    2.7823    1.2143    0.1235 C   0  0  0  0  0  0  0  0  0  0  0  0
    1.8765    2.1170   -0.6825 C   0  0  0  0  0  0  0  0  0  0  0  0
    0.5950    1.3847   -0.8353 C   0  0  0  0  0  0  0  0  0  0  0  0
    0.3043    0.6521   -1.9187 N   0  0  0  0  0  0  0  0  0  0  0  0
   -0.9686    0.1582   -1.6350 O   0  0  0  0  0  0  0  0  0  0  0  0
   -1.3324    0.6600   -0.4103 C   0  0  0  0  0  0  0  0  0  0  0  0
   -2.7038    0.3287    0.2671 C   0  0  0  0  0  0  0  0  0  0  0  0
   -3.0694    0.8164    1.4597 N   0  0  0  0  0  0  0  0  0  0  0  0
   -4.3281    0.2903    1.7046 O   0  0  0  0  0  0  0  0  0  0  0  0
   -4.7009   -0.4952    0.6598 C   0  0  0  0  0  0  0  0  0  0  0  0
   -6.0416   -1.2631    0.5701 C   0  0  0  0  0  0  0  0  0  0  0  0
   -7.0467   -0.8655   -0.4789 C   0  0  0  0  0  0  0  0  0  0  0  0
   -7.3110   -0.5557    0.9658 C   0  0  0  0  0  0  0  0  0  0  0  0
   -3.7016   -0.5078   -0.2800 C   0  0  0  0  0  0  0  0  0  0  0  0
   -0.4022    1.4380    0.1066 N   0  0  0  0  0  0  0  0  0  0  0  0
    3.6756    0.3406   -0.5157 C   0  0  0  0  0  0  0  0  0  0  0  0
    7.7453   -1.0412   -0.1811 H   0  0  0  0  0  0  0  0  0  0  0  0
    6.8207    0.3444   -0.4679 H   0  0  0  0  0  0  0  0  0  0  0  0
    5.0534   -1.1604    2.2341 H   0  0  0  0  0  0  0  0  0  0  0  0
    3.4759    0.3783    3.3663 H   0  0  0  0  0  0  0  0  0  0  0  0
    2.0270    1.8747    2.0454 H   0  0  0  0  0  0  0  0  0  0  0  0
    1.7228    3.0688   -0.1615 H   0  0  0  0  0  0  0  0  0  0  0  0
    2.3253    2.3512   -1.6548 H   0  0  0  0  0  0  0  0  0  0  0  0
   -5.9702   -2.3171    0.8202 H   0  0  0  0  0  0  0  0  0  0  0  0
   -6.8197   -0.0347   -1.1376 H   0  0  0  0  0  0  0  0  0  0  0  0
   -7.6305   -1.6517   -0.9436 H   0  0  0  0  0  0  0  0  0  0  0  0
   -7.2523    0.4797    1.2840 H   0  0  0  0  0  0  0  0  0  0  0  0
   -8.0707   -1.1319    1.4813 H   0  0  0  0  0  0  0  0  0  0  0  0
   -3.6924   -1.0401   -1.2192 H   0  0  0  0  0  0  0  0  0  0  0  0
    3.7201    0.3034   -1.6041 H   0  0  0  0  0  0  0  0  0  0  0  0
  1  2  1  0
  2  3  2  0
  2  4  2  0
  2  5  1  0
  5  6  2  0
  6  7  1  0
  7  8  2  0
  8  9  1  0
  9 10  1  0
 10 11  1  0
 11 12  2  0
 12 13  1  0
 13 14  1  0
 14 15  1  0
 15 16  2  0
 16 17  1  0
 17 18  1  0
 18 19  1  0
 19 20  1  0
 20 21  1  0
 18 22  2  0
 14 23  2  0
  9 24  2  0
 24  5  1  0
 23 11  1  0
 22 15  1  0
 21 19  1  0
  1 25  1  0
  1 26  1  0
  6 27  1  0
  7 28  1  0
  8 29  1  0
 10 30  1  0
 10 31  1  0
 19 32  1  0
 20 33  1  0
 20 34  1  0
 21 35  1  0
 21 36  1  0
 22 37  1  0
 24 38  1  0
M  END
$$$$
OCNT-2316834
     RDKit          3D

 39 40  0  0  0  0  0  0  0  0999 V2000
    5.5901   -1.2207   -0.3240 C   0  0  0  0  0  0  0  0  0  0  0  0
    4.1641   -0.8201   -0.2530 C   0  0  0  0  0  0  0  0  0  0  0  0
    3.3057   -0.9553    0.8231 C   0  0  0  0  0  0  0  0  0  0  0  0
    3.4630   -1.5047    2.1863 C   0  0  0  0  0  0  0  0  0  0  0  0
    2.0693   -0.4775    0.5114 O   0  0  0  0  0  0  0  0  0  0  0  0
    2.1216   -0.0187   -0.7784 C   0  0  0  0  0  0  0  0  0  0  0  0
    0.9347    0.5523   -1.3764 C   0  0  0  0  0  0  0  0  0  0  0  0
    0.8884    0.9953   -2.5214 O   0  0  0  0  0  0  0  0  0  0  0  0
   -0.1597    0.5704   -0.5428 N   0  0  0  0  0  0  0  0  0  0  0  0
   -1.5022    0.9329   -0.9802 C   0  0  0  0  0  0  0  0  0  0  0  0
   -1.6083    2.4161   -1.4325 C   0  0  0  0  0  0  0  0  0  0  0  0
   -1.2073    2.6000   -2.7906 O   0  0  0  0  0  0  0  0  0  0  0  0
   -2.4758    0.5978    0.1488 C   0  0  0  0  0  0  0  0  0  0  0  0
   -2.5556    1.4500    1.2700 C   0  0  0  0  0  0  0  0  0  0  0  0
   -3.4141    1.1692    2.3326 C   0  0  0  0  0  0  0  0  0  0  0  0
   -4.2024    0.0262    2.3046 C   0  0  0  0  0  0  0  0  0  0  0  0
   -4.1261   -0.8425    1.2174 C   0  0  0  0  0  0  0  0  0  0  0  0
   -3.2631   -0.5808    0.1343 C   0  0  0  0  0  0  0  0  0  0  0  0
   -3.2063   -1.5747   -1.0082 C   0  0  0  0  0  0  0  0  0  0  0  0
   -1.9467   -2.0415   -1.2312 F   0  0  0  0  0  0  0  0  0  0  0  0
   -3.9766   -2.6818   -0.8080 F   0  0  0  0  0  0  0  0  0  0  0  0
   -3.6300   -1.0400   -2.1854 F   0  0  0  0  0  0  0  0  0  0  0  0
    3.3925   -0.2110   -1.2814 C   0  0  0  0  0  0  0  0  0  0  0  0
    5.7243   -2.2430    0.0450 H   0  0  0  0  0  0  0  0  0  0  0  0
    6.2045   -0.5493    0.2846 H   0  0  0  0  0  0  0  0  0  0  0  0
    5.9605   -1.1831   -1.3536 H   0  0  0  0  0  0  0  0  0  0  0  0
    3.1431   -2.5509    2.2119 H   0  0  0  0  0  0  0  0  0  0  0  0
    4.5067   -1.4559    2.5115 H   0  0  0  0  0  0  0  0  0  0  0  0
    2.8600   -0.9418    2.9056 H   0  0  0  0  0  0  0  0  0  0  0  0
   -0.0417    0.0954    0.3465 H   0  0  0  0  0  0  0  0  0  0  0  0
   -1.7096    0.3207   -1.8634 H   0  0  0  0  0  0  0  0  0  0  0  0
   -2.6454    2.7634   -1.3760 H   0  0  0  0  0  0  0  0  0  0  0  0
   -0.9953    3.0738   -0.8065 H   0  0  0  0  0  0  0  0  0  0  0  0
   -0.3523    2.1296   -2.9082 H   0  0  0  0  0  0  0  0  0  0  0  0
   -1.9406    2.3465    1.3293 H   0  0  0  0  0  0  0  0  0  0  0  0
   -3.4644    1.8436    3.1845 H   0  0  0  0  0  0  0  0  0  0  0  0
   -4.8736   -0.1935    3.1317 H   0  0  0  0  0  0  0  0  0  0  0  0
   -4.7469   -1.7385    1.2204 H   0  0  0  0  0  0  0  0  0  0  0  0
    3.7155    0.0586   -2.2784 H   0  0  0  0  0  0  0  0  0  0  0  0
  1  2  1  0
  2  3  2  0
  3  4  1  0
  3  5  1  0
  5  6  1  0
  6  7  1  0
  7  8  2  0
  7  9  1  0
  9 10  1  0
 10 11  1  0
 11 12  1  0
 10 13  1  0
 13 14  2  0
 14 15  1  0
 15 16  2  0
 16 17  1  0
 17 18  2  0
 18 19  1  0
 19 20  1  0
 19 21  1  0
 19 22  1  0
  6 23  2  0
 23  2  1  0
 18 13  1  0
  1 24  1  0
  1 25  1  0
  1 26  1  0
  4 27  1  0
  4 28  1  0
  4 29  1  0
  9 30  1  0
 10 31  1  0
 11 32  1  0
 11 33  1  0
 12 34  1  0
 14 35  1  0
 15 36  1  0
 16 37  1  0
 17 38  1  0
 23 39  1  0
M  END
$$$$
OCNT-2316839
     RDKit          3D

 47 48  0  0  0  0  0  0  0  0999 V2000
   -2.8074    1.4581    2.4997 C   0  0  0  0  0  0  0  0  0  0  0  0
   -2.1970   -0.2291    2.7542 S   0  0  0  0  0  0  0  0  0  0  0  0
   -3.1105   -1.1569    1.4195 C   0  0  0  0  0  0  0  0  0  0  0  0
   -4.5969   -1.3222    1.7917 C   0  0  0  0  0  0  0  0  0  0  0  0
   -5.3546   -0.1492    1.5206 O   0  0  0  0  0  0  0  0  0  0  0  0
   -2.8749   -0.5815   -0.0138 C   0  0  0  0  0  0  0  0  0  0  0  0
   -3.4680   -1.5164   -1.0765 C   0  0  0  0  0  0  0  0  0  0  0  0
   -1.4242   -0.4148   -0.2696 N   0  0  0  0  0  0  0  0  0  0  0  0
   -1.1451    0.5178   -1.3735 C   0  0  0  0  0  0  0  0  0  0  0  0
    0.3609    0.8451   -1.4642 C   0  0  0  0  0  0  0  0  0  0  0  0
    0.7384    1.5424   -0.2669 O   0  0  0  0  0  0  0  0  0  0  0  0
    1.2045   -0.4338   -1.6340 C   0  0  0  0  0  0  0  0  0  0  0  0
    2.5210   -0.1565   -2.2026 N   0  0  0  0  0  0  0  0  0  0  0  0
    2.6879    0.0274   -3.5358 C   0  0  0  0  0  0  0  0  0  0  0  0
    1.8320   -0.0745   -4.4015 O   0  0  0  0  0  0  0  0  0  0  0  0
    3.9837    0.4092   -3.7761 O   0  0  0  0  0  0  0  0  0  0  0  0
    4.5996    0.5380   -2.5006 N   0  0  0  0  0  0  0  0  0  0  0  0
    3.6955    0.1886   -1.6441 C   0  0  0  0  0  0  0  0  0  0  0  0
    3.9417    0.2190   -0.1949 C   0  0  0  0  0  0  0  0  0  0  0  0
    4.5998    1.3390    0.3323 C   0  0  0  0  0  0  0  0  0  0  0  0
    4.8690    1.4143    1.6980 C   0  0  0  0  0  0  0  0  0  0  0  0
    4.4873    0.3690    2.5383 C   0  0  0  0  0  0  0  0  0  0  0  0
    3.8532   -0.7589    2.0123 C   0  0  0  0  0  0  0  0  0  0  0  0
    3.5896   -0.8423    0.6434 C   0  0  0  0  0  0  0  0  0  0  0  0
   -2.5345    1.8324    1.5083 H   0  0  0  0  0  0  0  0  0  0  0  0
   -3.8875    1.5212    2.6458 H   0  0  0  0  0  0  0  0  0  0  0  0
   -2.3328    2.1072    3.2436 H   0  0  0  0  0  0  0  0  0  0  0  0
   -2.6630   -2.1588    1.4591 H   0  0  0  0  0  0  0  0  0  0  0  0
   -5.0384   -2.1363    1.2102 H   0  0  0  0  0  0  0  0  0  0  0  0
   -4.7162   -1.5832    2.8487 H   0  0  0  0  0  0  0  0  0  0  0  0
   -6.2593   -0.3155    1.8348 H   0  0  0  0  0  0  0  0  0  0  0  0
   -3.3768    0.3909   -0.0895 H   0  0  0  0  0  0  0  0  0  0  0  0
   -3.3245   -1.1250   -2.0897 H   0  0  0  0  0  0  0  0  0  0  0  0
   -3.0130   -2.5134   -1.0264 H   0  0  0  0  0  0  0  0  0  0  0  0
   -4.5513   -1.6362   -0.9404 H   0  0  0  0  0  0  0  0  0  0  0  0
   -1.0040   -0.0142    0.5810 H   0  0  0  0  0  0  0  0  0  0  0  0
   -1.6907    1.4546   -1.2078 H   0  0  0  0  0  0  0  0  0  0  0  0
   -1.4732    0.0870   -2.3245 H   0  0  0  0  0  0  0  0  0  0  0  0
    0.5131    1.5334   -2.3025 H   0  0  0  0  0  0  0  0  0  0  0  0
    1.6601    1.8377   -0.3663 H   0  0  0  0  0  0  0  0  0  0  0  0
    1.3238   -0.9338   -0.6741 H   0  0  0  0  0  0  0  0  0  0  0  0
    0.7004   -1.1238   -2.3216 H   0  0  0  0  0  0  0  0  0  0  0  0
    4.9114    2.1556   -0.3174 H   0  0  0  0  0  0  0  0  0  0  0  0
    5.3751    2.2838    2.1086 H   0  0  0  0  0  0  0  0  0  0  0  0
    4.6941    0.4267    3.6081 H   0  0  0  0  0  0  0  0  0  0  0  0
    3.5665   -1.5762    2.6694 H   0  0  0  0  0  0  0  0  0  0  0  0
    3.1354   -1.7460    0.2486 H   0  0  0  0  0  0  0  0  0  0  0  0
  1  2  1  0
  2  3  1  0
  3  4  1  0
  4  5  1  0
  3  6  1  0
  6  7  1  0
  6  8  1  0
  8  9  1  0
  9 10  1  0
 10 11  1  0
 10 12  1  0
 12 13  1  0
 13 14  1  0
 14 15  2  0
 14 16  1  0
 16 17  1  0
 17 18  2  0
 18 19  1  0
 19 20  2  0
 20 21  1  0
 21 22  2  0
 22 23  1  0
 23 24  2  0
 18 13  1  0
 24 19  1  0
  1 25  1  0
  1 26  1  0
  1 27  1  0
  3 28  1  0
  4 29  1  0
  4 30  1  0
  5 31  1  0
  6 32  1  0
  7 33  1  0
  7 34  1  0
  7 35  1  0
  8 36  1  0
  9 37  1  0
  9 38  1  0
 10 39  1  0
 11 40  1  0
 12 41  1  0
 12 42  1  0
 20 43  1  0
 21 44  1  0
 22 45  1  0
 23 46  1  0
 24 47  1  0
M  END
$$$$
OCNT-2316841
     RDKit          3D

  0  0  0  0  0  0  0  0  0  0999 V3000
M  V30 BEGIN CTAB
M  V30 COUNTS 50 52 0 0 0
M  V30 BEGIN ATOM
M  V30 1 C 7.715389 2.090842 -0.053132 0
M  V30 2 C 6.652855 1.156561 0.387146 0
M  V30 3 N 6.884169 -0.160059 0.417998 0
M  V30 4 N 5.730605 -0.690607 0.865477 0
M  V30 5 C 5.625023 -2.123168 1.021136 0
M  V30 6 C 4.760811 0.247424 1.112029 0
M  V30 7 C 3.405434 -0.084621 1.607200 0
M  V30 8 N 2.613037 -0.489997 0.474086 0
M  V30 9 C 1.371203 -1.028691 0.691433 0
M  V30 10 O 0.922777 -1.293999 1.797235 0
M  V30 11 N 0.709225 -1.230176 -0.490542 0
M  V30 12 C -0.593565 -1.854536 -0.517138 0
M  V30 13 C -1.652870 -0.815869 -0.329717 0 CFG=1
M  V30 14 C -2.048974 0.095320 -1.469479 0
M  V30 15 C -3.003798 -0.974732 -0.997041 0 CFG=2
M  V30 16 C -4.311380 -0.653323 -0.304054 0
M  V30 17 C -4.204104 0.333732 0.873373 0
M  V30 18 C -5.558998 0.943151 1.213999 0
M  V30 19 C -6.119361 1.759586 0.048848 0
M  V30 20 C -5.637275 1.276821 -1.319733 0
M  V30 21 C -5.380590 -0.225993 -1.334515 0
M  V30 22 C 5.340918 1.462486 0.809665 0
M  V30 23 H 7.360957 3.126419 -0.038454 0
M  V30 24 H 8.585808 2.021361 0.607158 0
M  V30 25 H 8.034384 1.856941 -1.073895 0
M  V30 26 H 4.818483 -2.484053 0.378661 0
M  V30 27 H 6.567789 -2.592951 0.728200 0
M  V30 28 H 5.414624 -2.342096 2.070700 0
M  V30 29 H 2.926713 0.789315 2.063251 0
M  V30 30 H 3.423353 -0.883697 2.355912 0
M  V30 31 H 2.660913 0.116224 -0.331540 0
M  V30 32 H 1.297170 -1.363383 -1.298647 0
M  V30 33 H -0.692356 -2.356996 -1.485468 0
M  V30 34 H -0.660847 -2.613601 0.269420 0
M  V30 35 H -1.603267 -0.385057 0.663876 0
M  V30 36 H -1.572410 -0.044227 -2.433656 0
M  V30 37 H -2.250753 1.133921 -1.237163 0
M  V30 38 H -3.130491 -1.832020 -1.654961 0
M  V30 39 H -4.655026 -1.609527 0.115927 0
M  V30 40 H -3.803945 -0.188451 1.750896 0
M  V30 41 H -3.505641 1.149188 0.654874 0
M  V30 42 H -6.262079 0.140059 1.468748 0
M  V30 43 H -5.477712 1.578968 2.102882 0
M  V30 44 H -7.214833 1.726100 0.090935 0
M  V30 45 H -5.842008 2.814194 0.166394 0
M  V30 46 H -4.714432 1.805056 -1.588801 0
M  V30 47 H -6.378719 1.541355 -2.082345 0
M  V30 48 H -5.105133 -0.543469 -2.347191 0
M  V30 49 H -6.323001 -0.738101 -1.098651 0
M  V30 50 H 4.881926 2.438375 0.886619 0
M  V30 END ATOM
M  V30 BEGIN BOND
M  V30 1 1 1 2
M  V30 2 2 2 3
M  V30 3 1 3 4
M  V30 4 1 4 5
M  V30 5 1 4 6
M  V30 6 1 6 7
M  V30 7 1 7 8
M  V30 8 1 8 9
M  V30 9 2 9 10
M  V30 10 1 9 11
M  V30 11 1 11 12
M  V30 12 1 12 13
M  V30 13 1 13 14
M  V30 14 1 14 15
M  V30 15 1 15 16
M  V30 16 1 16 17
M  V30 17 1 17 18
M  V30 18 1 18 19
M  V30 19 1 19 20
M  V30 20 1 20 21
M  V30 21 2 6 22
M  V30 22 1 22 2
M  V30 23 1 15 13
M  V30 24 1 21 16
M  V30 25 1 1 23
M  V30 26 1 1 24
M  V30 27 1 1 25
M  V30 28 1 5 26
M  V30 29 1 5 27
M  V30 30 1 5 28
M  V30 31 1 7 29
M  V30 32 1 7 30
M  V30 33 1 8 31
M  V30 34 1 11 32
M  V30 35 1 12 33
M  V30 36 1 12 34
M  V30 37 1 13 35 CFG=1
M  V30 38 1 14 36
M  V30 39 1 14 37
M  V30 40 1 15 38 CFG=3
M  V30 41 1 16 39
M  V30 42 1 17 40
M  V30 43 1 17 41
M  V30 44 1 18 42
M  V30 45 1 18 43
M  V30 46 1 19 44
M  V30 47 1 19 45
M  V30 48 1 20 46
M  V30 49 1 20 47
M  V30 50 1 21 48
M  V30 51 1 21 49
M  V30 52 1 22 50
M  V30 END BOND
M  V30 BEGIN COLLECTION
M  V30 MDLV30/STERAC1 ATOMS=(2 13 15)
M  V30 END COLLECTION
M  V30 END CTAB
M  END
>  <_CXSMILES_Data>  (1144) 
|&1:12,14|

$$$$
OCNT-2316845
     RDKit          3D

 46 49  0  0  0  0  0  0  0  0999 V2000
    5.4357    2.8878   -0.1964 C   0  0  0  0  0  0  0  0  0  0  0  0
    5.6046    1.5719   -0.9343 C   0  0  0  0  0  0  0  0  0  0  0  0
    4.3921    0.7885   -0.9373 N   0  0  0  0  0  0  0  0  0  0  0  0
    3.4678    0.9569   -1.9037 N   0  0  0  0  0  0  0  0  0  0  0  0
    2.4745    0.1118   -1.6488 N   0  0  0  0  0  0  0  0  0  0  0  0
    2.7840   -0.5988   -0.5102 C   0  0  0  0  0  0  0  0  0  0  0  0
    2.1194   -1.6047    0.2298 C   0  0  0  0  0  0  0  0  0  0  0  0
    0.8937   -2.1933   -0.0778 N   0  0  0  0  0  0  0  0  0  0  0  0
    0.1382   -1.7992   -1.2692 C   0  0  0  0  0  0  0  0  0  0  0  0
   -0.9575   -0.7543   -0.9455 C   0  0  0  0  0  0  0  0  0  0  0  0
   -1.7048   -0.9883    0.3159 N   0  0  0  0  0  0  0  0  0  0  0  0
   -3.1489   -0.7180    0.1877 C   0  0  0  0  0  0  0  0  0  0  0  0
   -3.4927    0.7710   -0.0856 C   0  0  0  0  0  0  0  0  0  0  0  0
   -3.2769    1.0928   -1.4593 O   0  0  0  0  0  0  0  0  0  0  0  0
   -4.9413    1.0520    0.2099 C   0  0  0  0  0  0  0  0  0  0  0  0
   -5.3996    2.4593    0.5043 C   0  0  0  0  0  0  0  0  0  0  0  0
   -5.3855    1.4299    1.6004 C   0  0  0  0  0  0  0  0  0  0  0  0
   -1.4370   -2.3365    0.8486 C   0  0  0  0  0  0  0  0  0  0  0  0
    0.0775   -2.5541    1.0983 C   0  0  0  0  0  0  0  0  0  0  0  0
    2.7752   -2.0542    1.3495 N   0  0  0  0  0  0  0  0  0  0  0  0
    3.9766   -1.5417    1.6856 C   0  0  0  0  0  0  0  0  0  0  0  0
    4.6774   -0.5895    1.0492 N   0  0  0  0  0  0  0  0  0  0  0  0
    4.0143   -0.1677   -0.0400 C   0  0  0  0  0  0  0  0  0  0  0  0
    6.3706    3.4563   -0.2140 H   0  0  0  0  0  0  0  0  0  0  0  0
    4.6538    3.5011   -0.6566 H   0  0  0  0  0  0  0  0  0  0  0  0
    5.1565    2.7208    0.8493 H   0  0  0  0  0  0  0  0  0  0  0  0
    5.8907    1.7488   -1.9771 H   0  0  0  0  0  0  0  0  0  0  0  0
    6.3953    0.9715   -0.4718 H   0  0  0  0  0  0  0  0  0  0  0  0
    0.7672   -1.4685   -2.0997 H   0  0  0  0  0  0  0  0  0  0  0  0
   -0.3552   -2.7035   -1.6518 H   0  0  0  0  0  0  0  0  0  0  0  0
   -0.4966    0.2376   -0.8751 H   0  0  0  0  0  0  0  0  0  0  0  0
   -1.6288   -0.7413   -1.8122 H   0  0  0  0  0  0  0  0  0  0  0  0
   -3.6285   -0.9971    1.1349 H   0  0  0  0  0  0  0  0  0  0  0  0
   -3.5844   -1.3545   -0.5939 H   0  0  0  0  0  0  0  0  0  0  0  0
   -2.8440    1.4155    0.5208 H   0  0  0  0  0  0  0  0  0  0  0  0
   -3.4405    2.0472   -1.5443 H   0  0  0  0  0  0  0  0  0  0  0  0
   -5.6035    0.4269   -0.3803 H   0  0  0  0  0  0  0  0  0  0  0  0
   -6.3617    2.7704    0.1124 H   0  0  0  0  0  0  0  0  0  0  0  0
   -4.6628    3.2532    0.5502 H   0  0  0  0  0  0  0  0  0  0  0  0
   -6.3380    1.0470    1.9498 H   0  0  0  0  0  0  0  0  0  0  0  0
   -4.6366    1.5278    2.3786 H   0  0  0  0  0  0  0  0  0  0  0  0
   -1.9562   -2.4728    1.8051 H   0  0  0  0  0  0  0  0  0  0  0  0
   -1.8199   -3.1048    0.1641 H   0  0  0  0  0  0  0  0  0  0  0  0
    0.2574   -3.6047    1.3541 H   0  0  0  0  0  0  0  0  0  0  0  0
    0.3479   -1.9462    1.9728 H   0  0  0  0  0  0  0  0  0  0  0  0
    4.4305   -1.9522    2.5828 H   0  0  0  0  0  0  0  0  0  0  0  0
  1  2  1  0
  2  3  1  0
  3  4  1  0
  4  5  2  0
  5  6  1  0
  6  7  2  0
  7  8  1  0
  8  9  1  0
  9 10  1  0
 10 11  1  0
 11 12  1  0
 12 13  1  0
 13 14  1  0
 13 15  1  0
 15 16  1  0
 16 17  1  0
 11 18  1  0
 18 19  1  0
  7 20  1  0
 20 21  2  0
 21 22  1  0
 22 23  2  0
 23  3  1  0
 23  6  1  0
 19  8  1  0
 17 15  1  0
  1 24  1  0
  1 25  1  0
  1 26  1  0
  2 27  1  0
  2 28  1  0
  9 29  1  0
  9 30  1  0
 10 31  1  0
 10 32  1  0
 12 33  1  0
 12 34  1  0
 13 35  1  0
 14 36  1  0
 15 37  1  0
 16 38  1  0
 16 39  1  0
 17 40  1  0
 17 41  1  0
 18 42  1  0
 18 43  1  0
 19 44  1  0
 19 45  1  0
 21 46  1  0
M  END
$$$$
OCNT-2316852
     RDKit          3D

 40 42  0  0  0  0  0  0  0  0999 V2000
   -0.9504   -2.5855   -1.2503 C   0  0  0  0  0  0  0  0  0  0  0  0
   -1.4333   -1.2446   -0.8068 C   0  0  0  0  0  0  0  0  0  0  0  0
   -1.2030    0.0130   -1.3541 C   0  0  0  0  0  0  0  0  0  0  0  0
   -0.2378    0.3897   -2.7477 S   0  0  0  0  0  0  0  0  0  0  0  0
   -0.0574   -0.8522   -3.4630 O   0  0  0  0  0  0  0  0  0  0  0  0
   -0.8681    1.5419   -3.3521 O   0  0  0  0  0  0  0  0  0  0  0  0
    1.2663    0.9075   -2.1813 N   0  0  0  0  0  0  0  0  0  0  0  0
    2.1045    0.1474   -1.2179 C   0  0  0  0  0  0  0  0  0  0  0  0
    1.8575    0.4080    0.2864 C   0  0  0  0  0  0  0  0  0  0  0  0
    3.3884    0.3173    0.5040 C   0  0  0  0  0  0  0  0  0  0  0  0
    3.9535   -1.0510    0.9730 C   0  0  0  0  0  0  0  0  0  0  0  0
    3.6270   -2.1712    0.6021 O   0  0  0  0  0  0  0  0  0  0  0  0
    4.9202   -0.9362    1.9135 O   0  0  0  0  0  0  0  0  0  0  0  0
    3.5430    0.6671   -0.9968 C   0  0  0  0  0  0  0  0  0  0  0  0
   -1.8200    0.9866   -0.5116 C   0  0  0  0  0  0  0  0  0  0  0  0
   -1.8980    2.3984   -0.5120 C   0  0  0  0  0  0  0  0  0  0  0  0
   -2.5847    3.0642    0.5078 C   0  0  0  0  0  0  0  0  0  0  0  0
   -3.1940    2.3475    1.5289 C   0  0  0  0  0  0  0  0  0  0  0  0
   -3.1397    0.9520    1.5542 C   0  0  0  0  0  0  0  0  0  0  0  0
   -2.4509    0.2877    0.5233 C   0  0  0  0  0  0  0  0  0  0  0  0
   -2.2511   -1.0602    0.2895 N   0  0  0  0  0  0  0  0  0  0  0  0
   -2.8114   -2.1273    1.0953 C   0  0  0  0  0  0  0  0  0  0  0  0
   -1.5206   -2.9236   -2.1211 H   0  0  0  0  0  0  0  0  0  0  0  0
   -1.0429   -3.3433   -0.4672 H   0  0  0  0  0  0  0  0  0  0  0  0
    0.1101   -2.5469   -1.5168 H   0  0  0  0  0  0  0  0  0  0  0  0
    1.2595    1.9217   -2.0758 H   0  0  0  0  0  0  0  0  0  0  0  0
    2.0972   -0.9224   -1.4655 H   0  0  0  0  0  0  0  0  0  0  0  0
    1.4424    1.3970    0.5151 H   0  0  0  0  0  0  0  0  0  0  0  0
    1.2580   -0.3486    0.8005 H   0  0  0  0  0  0  0  0  0  0  0  0
    3.7545    1.1263    1.1512 H   0  0  0  0  0  0  0  0  0  0  0  0
    5.1746   -1.8639    2.1044 H   0  0  0  0  0  0  0  0  0  0  0  0
    3.6739    1.7399   -1.1833 H   0  0  0  0  0  0  0  0  0  0  0  0
    4.3226    0.1223   -1.5373 H   0  0  0  0  0  0  0  0  0  0  0  0
   -1.4391    2.9813   -1.3066 H   0  0  0  0  0  0  0  0  0  0  0  0
   -2.6452    4.1496    0.4954 H   0  0  0  0  0  0  0  0  0  0  0  0
   -3.7265    2.8774    2.3154 H   0  0  0  0  0  0  0  0  0  0  0  0
   -3.6247    0.4082    2.3585 H   0  0  0  0  0  0  0  0  0  0  0  0
   -3.1571   -2.9266    0.4346 H   0  0  0  0  0  0  0  0  0  0  0  0
   -2.0312   -2.4886    1.7696 H   0  0  0  0  0  0  0  0  0  0  0  0
   -3.6662   -1.7601    1.6663 H   0  0  0  0  0  0  0  0  0  0  0  0
  1  2  1  0
  2  3  2  0
  3  4  1  0
  4  5  2  0
  4  6  2  0
  4  7  1  0
  7  8  1  0
  8  9  1  0
  9 10  1  0
 10 11  1  0
 11 12  2  0
 11 13  1  0
 10 14  1  0
  3 15  1  0
 15 16  2  0
 16 17  1  0
 17 18  2  0
 18 19  1  0
 19 20  2  0
 20 21  1  0
 21 22  1  0
 21  2  1  0
 14  8  1  0
 20 15  1  0
  1 23  1  0
  1 24  1  0
  1 25  1  0
  7 26  1  0
  8 27  1  0
  9 28  1  0
  9 29  1  0
 10 30  1  0
 13 31  1  0
 14 32  1  0
 14 33  1  0
 16 34  1  0
 17 35  1  0
 18 36  1  0
 19 37  1  0
 22 38  1  0
 22 39  1  0
 22 40  1  0
M  END
$$$$
OCNT-2316861
     RDKit          3D

 51 54  0  0  0  0  0  0  0  0999 V2000
   -1.6620    2.4933   -0.3840 C   0  0  0  0  0  0  0  0  0  0  0  0
   -2.8626    1.6910   -0.6009 N   0  0  0  0  0  0  0  0  0  0  0  0
   -3.4739    1.8640   -1.9254 C   0  0  0  0  0  0  0  0  0  0  0  0
   -2.7938    0.3190   -0.2393 C   0  0  0  0  0  0  0  0  0  0  0  0
   -1.7669   -0.5661   -0.6078 C   0  0  0  0  0  0  0  0  0  0  0  0
   -0.6033   -0.2176   -1.4379 C   0  0  0  0  0  0  0  0  0  0  0  0
   -0.7904    0.0039   -2.6315 O   0  0  0  0  0  0  0  0  0  0  0  0
    0.6649   -0.2178   -0.8413 N   0  0  0  0  0  0  0  0  0  0  0  0
    0.8763   -0.0923    0.6014 C   0  0  0  0  0  0  0  0  0  0  0  0
    2.1634   -0.7755    1.0507 C   0  0  0  0  0  0  0  0  0  0  0  0
    3.3782   -0.2552    0.2539 C   0  0  0  0  0  0  0  0  0  0  0  0
    4.6042   -0.9723    0.6704 N   0  0  0  0  0  0  0  0  0  0  0  0
    5.0591   -0.5702    2.0274 C   0  0  0  0  0  0  0  0  0  0  0  0
    6.0231    0.4406    1.4001 C   0  0  0  0  0  0  0  0  0  0  0  0
    5.8356   -0.3584    0.1074 C   0  0  0  0  0  0  0  0  0  0  0  0
    3.0912   -0.5101   -1.2401 C   0  0  0  0  0  0  0  0  0  0  0  0
    1.7956    0.1643   -1.6795 C   0  0  0  0  0  0  0  0  0  0  0  0
   -1.8593   -1.9003   -0.2360 C   0  0  0  0  0  0  0  0  0  0  0  0
   -2.8607   -2.4170    0.5073 N   0  0  0  0  0  0  0  0  0  0  0  0
   -3.8426   -1.5878    0.8871 C   0  0  0  0  0  0  0  0  0  0  0  0
   -4.8772   -2.1130    1.6502 C   0  0  0  0  0  0  0  0  0  0  0  0
   -5.9416   -1.3267    2.0948 C   0  0  0  0  0  0  0  0  0  0  0  0
   -5.9778    0.0213    1.7734 C   0  0  0  0  0  0  0  0  0  0  0  0
   -4.9502    0.5709    1.0079 C   0  0  0  0  0  0  0  0  0  0  0  0
   -3.8663   -0.2140    0.5445 C   0  0  0  0  0  0  0  0  0  0  0  0
   -0.9193    2.3653   -1.1766 H   0  0  0  0  0  0  0  0  0  0  0  0
   -1.2053    2.2689    0.5858 H   0  0  0  0  0  0  0  0  0  0  0  0
   -1.9374    3.5538   -0.3672 H   0  0  0  0  0  0  0  0  0  0  0  0
   -2.8159    1.5242   -2.7306 H   0  0  0  0  0  0  0  0  0  0  0  0
   -4.4273    1.3285   -2.0008 H   0  0  0  0  0  0  0  0  0  0  0  0
   -3.6891    2.9251   -2.0938 H   0  0  0  0  0  0  0  0  0  0  0  0
    0.0356   -0.5010    1.1662 H   0  0  0  0  0  0  0  0  0  0  0  0
    0.9195    0.9799    0.8281 H   0  0  0  0  0  0  0  0  0  0  0  0
    2.0630   -1.8604    0.9114 H   0  0  0  0  0  0  0  0  0  0  0  0
    2.2857   -0.6027    2.1249 H   0  0  0  0  0  0  0  0  0  0  0  0
    3.4742    0.8272    0.4177 H   0  0  0  0  0  0  0  0  0  0  0  0
    5.5660   -1.3846    2.5597 H   0  0  0  0  0  0  0  0  0  0  0  0
    4.3218   -0.1342    2.7072 H   0  0  0  0  0  0  0  0  0  0  0  0
    5.6341    1.4639    1.3556 H   0  0  0  0  0  0  0  0  0  0  0  0
    7.0354    0.4588    1.8114 H   0  0  0  0  0  0  0  0  0  0  0  0
    5.7386    0.2522   -0.7946 H   0  0  0  0  0  0  0  0  0  0  0  0
    6.6294   -1.0946   -0.0698 H   0  0  0  0  0  0  0  0  0  0  0  0
    3.0139   -1.5904   -1.4238 H   0  0  0  0  0  0  0  0  0  0  0  0
    3.9027   -0.1379   -1.8739 H   0  0  0  0  0  0  0  0  0  0  0  0
    1.5962   -0.0904   -2.7262 H   0  0  0  0  0  0  0  0  0  0  0  0
    1.8912    1.2556   -1.6232 H   0  0  0  0  0  0  0  0  0  0  0  0
   -1.1005   -2.6193   -0.5361 H   0  0  0  0  0  0  0  0  0  0  0  0
   -4.8541   -3.1700    1.9067 H   0  0  0  0  0  0  0  0  0  0  0  0
   -6.7345   -1.7716    2.6897 H   0  0  0  0  0  0  0  0  0  0  0  0
   -6.7980    0.6470    2.1146 H   0  0  0  0  0  0  0  0  0  0  0  0
   -4.9891    1.6324    0.7697 H   0  0  0  0  0  0  0  0  0  0  0  0
  1  2  1  0
  2  3  1  0
  2  4  1  0
  4  5  2  0
  5  6  1  0
  6  7  2  0
  6  8  1  0
  8  9  1  0
  9 10  1  0
 10 11  1  0
 11 12  1  0
 12 13  1  0
 13 14  1  0
 14 15  1  0
 11 16  1  0
 16 17  1  0
  5 18  1  0
 18 19  2  0
 19 20  1  0
 20 21  2  0
 21 22  1  0
 22 23  2  0
 23 24  1  0
 24 25  2  0
 25  4  1  0
 17  8  1  0
 25 20  1  0
 15 12  1  0
  1 26  1  0
  1 27  1  0
  1 28  1  0
  3 29  1  0
  3 30  1  0
  3 31  1  0
  9 32  1  0
  9 33  1  0
 10 34  1  0
 10 35  1  0
 11 36  1  0
 13 37  1  0
 13 38  1  0
 14 39  1  0
 14 40  1  0
 15 41  1  0
 15 42  1  0
 16 43  1  0
 16 44  1  0
 17 45  1  0
 17 46  1  0
 18 47  1  0
 21 48  1  0
 22 49  1  0
 23 50  1  0
 24 51  1  0
M  END
$$$$
OCNT-2316870
     RDKit          3D

  0  0  0  0  0  0  0  0  0  0999 V3000
M  V30 BEGIN CTAB
M  V30 COUNTS 36 38 0 0 0
M  V30 BEGIN ATOM
M  V30 1 C 3.944401 -0.116177 -2.002057 0
M  V30 2 C 4.209962 -0.085006 -0.518247 0
M  V30 3 C 5.515232 -0.142628 0.005530 0
M  V30 4 Br 7.080360 -0.261369 -1.061236 0
M  V30 5 C 5.693343 -0.110382 1.383972 0
M  V30 6 N 4.684796 -0.024855 2.273443 0
M  V30 7 C 3.432121 0.034652 1.761187 0
M  V30 8 C 3.130869 0.011547 0.395913 0
M  V30 9 N 1.804280 0.079223 -0.098591 0
M  V30 10 C 0.644347 0.182250 0.635729 0
M  V30 11 O 0.527875 0.262289 1.847874 0
M  V30 12 C -0.577555 0.231037 -0.210257 0 CFG=1
M  V30 13 C -0.886446 -0.830296 -1.233576 0
M  V30 14 C -1.680070 -0.785754 0.048604 0 CFG=2
M  V30 15 C -3.114995 -0.317140 0.063530 0
M  V30 16 C -4.068184 -0.821650 -0.837690 0
M  V30 17 C -5.396842 -0.387755 -0.811127 0
M  V30 18 C -5.800503 0.556785 0.127920 0
M  V30 19 C -4.876202 1.053891 1.035479 0
M  V30 20 O -5.309569 1.969404 1.948592 0
M  V30 21 C -3.550365 0.625537 1.011824 0
M  V30 22 H 4.840558 -0.230674 -2.613800 0
M  V30 23 H 3.463773 0.817105 -2.314779 0
M  V30 24 H 3.292724 -0.961628 -2.248579 0
M  V30 25 H 6.683474 -0.153349 1.830422 0
M  V30 26 H 2.667017 0.103173 2.527496 0
M  V30 27 H 1.681420 0.058482 -1.101106 0
M  V30 28 H -0.893171 1.244468 -0.440939 0
M  V30 29 H -1.362125 -0.513304 -2.155125 0
M  V30 30 H -0.204092 -1.664014 -1.357578 0
M  V30 31 H -1.453226 -1.568732 0.772014 0
M  V30 32 H -3.773184 -1.568025 -1.572202 0
M  V30 33 H -6.115741 -0.790306 -1.519614 0
M  V30 34 H -6.831085 0.898029 0.157543 0
M  V30 35 H -4.569590 2.191345 2.537925 0
M  V30 36 H -2.833608 1.013828 1.731506 0
M  V30 END ATOM
M  V30 BEGIN BOND
M  V30 1 1 1 2
M  V30 2 2 2 3
M  V30 3 1 3 4
M  V30 4 1 3 5
M  V30 5 2 5 6
M  V30 6 1 6 7
M  V30 7 2 7 8
M  V30 8 1 8 9
M  V30 9 1 9 10
M  V30 10 2 10 11
M  V30 11 1 10 12
M  V30 12 1 12 13
M  V30 13 1 13 14
M  V30 14 1 14 15
M  V30 15 2 15 16
M  V30 16 1 16 17
M  V30 17 2 17 18
M  V30 18 1 18 19
M  V30 19 1 19 20
M  V30 20 2 19 21
M  V30 21 1 8 2
M  V30 22 1 14 12
M  V30 23 1 21 15
M  V30 24 1 1 22
M  V30 25 1 1 23
M  V30 26 1 1 24
M  V30 27 1 5 25
M  V30 28 1 7 26
M  V30 29 1 9 27
M  V30 30 1 12 28 CFG=3
M  V30 31 1 13 29
M  V30 32 1 13 30
M  V30 33 1 14 31 CFG=1
M  V30 34 1 16 32
M  V30 35 1 17 33
M  V30 36 1 18 34
M  V30 37 1 20 35
M  V30 38 1 21 36
M  V30 END BOND
M  V30 BEGIN COLLECTION
M  V30 MDLV30/STERAC1 ATOMS=(2 12 14)
M  V30 END COLLECTION
M  V30 END CTAB
M  END
>  <_CXSMILES_Data>  (1148) 
|&1:11,13|

$$$$
OCNT-2316874
     RDKit          3D

 43 45  0  0  0  0  0  0  0  0999 V2000
    0.6177   -1.6501   -0.7175 C   0  0  0  0  0  0  0  0  0  0  0  0
    0.6924   -0.4505    0.2490 C   0  0  0  0  0  0  0  0  0  0  0  0
    1.1245   -0.9868    1.6340 C   0  0  0  0  0  0  0  0  0  0  0  0
   -0.6827    0.0733    0.4844 N   0  0  0  0  0  0  0  0  0  0  0  0
   -1.3606    0.6552   -0.6714 C   0  0  0  0  0  0  0  0  0  0  0  0
   -2.7981    0.9651   -0.3229 C   0  0  0  0  0  0  0  0  0  0  0  0
   -3.1568    2.2424    0.1450 C   0  0  0  0  0  0  0  0  0  0  0  0
   -4.4808    2.5161    0.4679 C   0  0  0  0  0  0  0  0  0  0  0  0
   -5.5096    1.6458    0.3821 N   0  0  0  0  0  0  0  0  0  0  0  0
   -5.1256    0.4329   -0.0549 C   0  0  0  0  0  0  0  0  0  0  0  0
   -3.8455    0.0217   -0.4123 C   0  0  0  0  0  0  0  0  0  0  0  0
   -3.9537   -1.3465   -0.7952 C   0  0  0  0  0  0  0  0  0  0  0  0
   -5.2757   -1.7187   -0.6693 C   0  0  0  0  0  0  0  0  0  0  0  0
   -5.9736   -0.6277   -0.2195 N   0  0  0  0  0  0  0  0  0  0  0  0
    1.7054    0.6595   -0.2466 C   0  0  0  0  0  0  0  0  0  0  0  0
    1.4069    1.0779   -1.5865 O   0  0  0  0  0  0  0  0  0  0  0  0
    3.1833    0.3023   -0.1803 C   0  0  0  0  0  0  0  0  0  0  0  0
    3.9737    0.7747    0.8806 C   0  0  0  0  0  0  0  0  0  0  0  0
    5.3319    0.4555    0.9561 C   0  0  0  0  0  0  0  0  0  0  0  0
    5.9120   -0.3369   -0.0311 C   0  0  0  0  0  0  0  0  0  0  0  0
    7.7492   -0.7689    0.0710 Br  0  0  0  0  0  0  0  0  0  0  0  0
    5.1477   -0.8118   -1.0935 C   0  0  0  0  0  0  0  0  0  0  0  0
    3.7900   -0.4920   -1.1674 C   0  0  0  0  0  0  0  0  0  0  0  0
    1.5497   -2.2251   -0.7134 H   0  0  0  0  0  0  0  0  0  0  0  0
   -0.1785   -2.3454   -0.4242 H   0  0  0  0  0  0  0  0  0  0  0  0
    0.4254   -1.3435   -1.7505 H   0  0  0  0  0  0  0  0  0  0  0  0
    0.3908   -1.6985    2.0333 H   0  0  0  0  0  0  0  0  0  0  0  0
    2.0802   -1.5200    1.5838 H   0  0  0  0  0  0  0  0  0  0  0  0
    1.2291   -0.1749    2.3634 H   0  0  0  0  0  0  0  0  0  0  0  0
   -0.6714    0.7642    1.2321 H   0  0  0  0  0  0  0  0  0  0  0  0
   -0.8781    1.5850   -0.9892 H   0  0  0  0  0  0  0  0  0  0  0  0
   -1.3609   -0.0241   -1.5297 H   0  0  0  0  0  0  0  0  0  0  0  0
   -2.4090    3.0217    0.2530 H   0  0  0  0  0  0  0  0  0  0  0  0
   -4.7590    3.5050    0.8249 H   0  0  0  0  0  0  0  0  0  0  0  0
   -3.1451   -1.9878   -1.1213 H   0  0  0  0  0  0  0  0  0  0  0  0
   -5.7754   -2.6598   -0.8546 H   0  0  0  0  0  0  0  0  0  0  0  0
   -6.9624   -0.5841   -0.0239 H   0  0  0  0  0  0  0  0  0  0  0  0
    1.5530    1.5526    0.3744 H   0  0  0  0  0  0  0  0  0  0  0  0
    2.1766    1.5784   -1.9086 H   0  0  0  0  0  0  0  0  0  0  0  0
    3.5365    1.3931    1.6625 H   0  0  0  0  0  0  0  0  0  0  0  0
    5.9254    0.8280    1.7871 H   0  0  0  0  0  0  0  0  0  0  0  0
    5.5957   -1.4300   -1.8672 H   0  0  0  0  0  0  0  0  0  0  0  0
    3.2052   -0.8675   -2.0059 H   0  0  0  0  0  0  0  0  0  0  0  0
  1  2  1  0
  2  3  1  0
  2  4  1  0
  4  5  1  0
  5  6  1  0
  6  7  2  0
  7  8  1  0
  8  9  2  0
  9 10  1  0
 10 11  2  0
 11 12  1  0
 12 13  2  0
 13 14  1  0
  2 15  1  0
 15 16  1  0
 15 17  1  0
 17 18  1  0
 18 19  2  0
 19 20  1  0
 20 21  1  0
 20 22  2  0
 22 23  1  0
 11  6  1  0
 23 17  2  0
 14 10  1  0
  1 24  1  0
  1 25  1  0
  1 26  1  0
  3 27  1  0
  3 28  1  0
  3 29  1  0
  4 30  1  0
  5 31  1  0
  5 32  1  0
  7 33  1  0
  8 34  1  0
 12 35  1  0
 13 36  1  0
 14 37  1  0
 15 38  1  0
 16 39  1  0
 18 40  1  0
 19 41  1  0
 22 42  1  0
 23 43  1  0
M  END
$$$$
OCNT-2316883
     RDKit          3D

 44 46  0  0  0  0  0  0  0  0999 V2000
    5.6688   -0.6539   -2.1629 C   0  0  0  0  0  0  0  0  0  0  0  0
    5.3220   -0.1791   -0.7819 C   0  0  0  0  0  0  0  0  0  0  0  0
    6.2691   -0.2455    0.2445 C   0  0  0  0  0  0  0  0  0  0  0  0
    5.9623    0.1592    1.5480 C   0  0  0  0  0  0  0  0  0  0  0  0
    4.6666    0.6247    1.7955 C   0  0  0  0  0  0  0  0  0  0  0  0
    4.0956    1.0758    2.9619 N   0  0  0  0  0  0  0  0  0  0  0  0
    2.7911    1.4286    2.7453 C   0  0  0  0  0  0  0  0  0  0  0  0
    2.4958    1.2045    1.4146 C   0  0  0  0  0  0  0  0  0  0  0  0
    1.1813    1.4474    0.7466 C   0  0  0  0  0  0  0  0  0  0  0  0
    0.3192    0.1879    0.6759 C   0  0  0  0  0  0  0  0  0  0  0  0
   -0.9389    0.4366   -0.0115 N   0  0  0  0  0  0  0  0  0  0  0  0
   -1.9433   -0.4963    0.0686 C   0  0  0  0  0  0  0  0  0  0  0  0
   -1.9048   -1.5095    0.7496 O   0  0  0  0  0  0  0  0  0  0  0  0
   -3.0081   -0.1309   -0.7201 N   0  0  0  0  0  0  0  0  0  0  0  0
   -4.2186   -0.9344   -0.7261 C   0  0  0  0  0  0  0  0  0  0  0  0
   -5.1503   -0.5555   -1.8907 C   0  0  0  0  0  0  0  0  0  0  0  0
   -6.4638   -0.1276   -1.2452 C   0  0  0  0  0  0  0  0  0  0  0  0
   -6.4621   -0.8816    0.0650 C   0  0  0  0  0  0  0  0  0  0  0  0
   -6.7828   -2.1781   -0.1449 F   0  0  0  0  0  0  0  0  0  0  0  0
   -7.3478   -0.3723    0.9388 F   0  0  0  0  0  0  0  0  0  0  0  0
   -5.0402   -0.7610    0.5553 C   0  0  0  0  0  0  0  0  0  0  0  0
    3.6880    0.6950    0.8051 C   0  0  0  0  0  0  0  0  0  0  0  0
    4.0235    0.2794   -0.5013 C   0  0  0  0  0  0  0  0  0  0  0  0
    5.0967   -0.1064   -2.9193 H   0  0  0  0  0  0  0  0  0  0  0  0
    6.7300   -0.4897   -2.3777 H   0  0  0  0  0  0  0  0  0  0  0  0
    5.4494   -1.7218   -2.2571 H   0  0  0  0  0  0  0  0  0  0  0  0
    7.2701   -0.6189    0.0362 H   0  0  0  0  0  0  0  0  0  0  0  0
    6.7071    0.1060    2.3352 H   0  0  0  0  0  0  0  0  0  0  0  0
    4.5754    1.1321    3.8494 H   0  0  0  0  0  0  0  0  0  0  0  0
    2.1819    1.8053    3.5565 H   0  0  0  0  0  0  0  0  0  0  0  0
    0.6352    2.2344    1.2828 H   0  0  0  0  0  0  0  0  0  0  0  0
    1.3520    1.8380   -0.2648 H   0  0  0  0  0  0  0  0  0  0  0  0
    0.8353   -0.6136    0.1338 H   0  0  0  0  0  0  0  0  0  0  0  0
    0.1028   -0.1875    1.6836 H   0  0  0  0  0  0  0  0  0  0  0  0
   -0.8642    0.8506   -0.9295 H   0  0  0  0  0  0  0  0  0  0  0  0
   -3.1097    0.8694   -0.8210 H   0  0  0  0  0  0  0  0  0  0  0  0
   -3.9212   -1.9857   -0.8326 H   0  0  0  0  0  0  0  0  0  0  0  0
   -5.3206   -1.4382   -2.5193 H   0  0  0  0  0  0  0  0  0  0  0  0
   -4.7485    0.2323   -2.5365 H   0  0  0  0  0  0  0  0  0  0  0  0
   -6.4749    0.9538   -1.0679 H   0  0  0  0  0  0  0  0  0  0  0  0
   -7.3237   -0.3815   -1.8717 H   0  0  0  0  0  0  0  0  0  0  0  0
   -4.8752    0.2199    1.0170 H   0  0  0  0  0  0  0  0  0  0  0  0
   -4.7952   -1.5274    1.2972 H   0  0  0  0  0  0  0  0  0  0  0  0
    3.2751    0.3153   -1.2875 H   0  0  0  0  0  0  0  0  0  0  0  0
  1  2  1  0
  2  3  2  0
  3  4  1  0
  4  5  2  0
  5  6  1  0
  6  7  1  0
  7  8  2  0
  8  9  1  0
  9 10  1  0
 10 11  1  0
 11 12  1  0
 12 13  2  0
 12 14  1  0
 14 15  1  0
 15 16  1  0
 16 17  1  0
 17 18  1  0
 18 19  1  0
 18 20  1  0
 18 21  1  0
  8 22  1  0
 22 23  2  0
 23  2  1  0
 22  5  1  0
 21 15  1  0
  1 24  1  0
  1 25  1  0
  1 26  1  0
  3 27  1  0
  4 28  1  0
  6 29  1  0
  7 30  1  0
  9 31  1  0
  9 32  1  0
 10 33  1  0
 10 34  1  0
 11 35  1  0
 14 36  1  0
 15 37  1  0
 16 38  1  0
 16 39  1  0
 17 40  1  0
 17 41  1  0
 21 42  1  0
 21 43  1  0
 23 44  1  0
M  END
$$$$
OCNT-2316908
     RDKit          3D

 39 41  0  0  0  0  0  0  0  0999 V2000
   -5.9374    0.0935   -0.2633 C   0  0  0  0  0  0  0  0  0  0  0  0
   -4.4357    0.0586   -0.1684 C   0  0  0  0  0  0  0  0  0  0  0  0
   -3.8355   -0.3997    1.0150 C   0  0  0  0  0  0  0  0  0  0  0  0
   -2.4514   -0.4318    1.1022 C   0  0  0  0  0  0  0  0  0  0  0  0
   -1.6489   -0.0194    0.0418 C   0  0  0  0  0  0  0  0  0  0  0  0
   -2.2196    0.4361   -1.1344 C   0  0  0  0  0  0  0  0  0  0  0  0
   -3.6223    0.4794   -1.2507 C   0  0  0  0  0  0  0  0  0  0  0  0
   -4.2302    0.9770   -2.5352 C   0  0  0  0  0  0  0  0  0  0  0  0
   -0.2880   -0.1494    0.3816 N   0  0  0  0  0  0  0  0  0  0  0  0
    0.7898    0.1699   -0.4380 C   0  0  0  0  0  0  0  0  0  0  0  0
    0.6842    0.6132   -1.5817 O   0  0  0  0  0  0  0  0  0  0  0  0
    2.1710   -0.0729    0.1931 C   0  0  0  0  0  0  0  0  0  0  0  0
    3.2226    0.2752   -0.7002 O   0  0  0  0  0  0  0  0  0  0  0  0
    4.4988    0.1033   -0.2518 C   0  0  0  0  0  0  0  0  0  0  0  0
    5.5022    0.4541   -1.1518 C   0  0  0  0  0  0  0  0  0  0  0  0
    6.8404    0.3165   -0.7915 C   0  0  0  0  0  0  0  0  0  0  0  0
    7.1315   -0.1728    0.4705 C   0  0  0  0  0  0  0  0  0  0  0  0
    6.1901   -0.5243    1.3726 N   0  0  0  0  0  0  0  0  0  0  0  0
    4.8974   -0.3777    0.9893 C   0  0  0  0  0  0  0  0  0  0  0  0
   -0.2045   -0.6811    1.7534 C   0  0  0  0  0  0  0  0  0  0  0  0
   -1.6346   -0.8829    2.2675 C   0  0  0  0  0  0  0  0  0  0  0  0
   -6.2819   -0.5502   -1.0787 H   0  0  0  0  0  0  0  0  0  0  0  0
   -6.4067   -0.2642    0.6594 H   0  0  0  0  0  0  0  0  0  0  0  0
   -6.2840    1.1177   -0.4331 H   0  0  0  0  0  0  0  0  0  0  0  0
   -4.4416   -0.7265    1.8553 H   0  0  0  0  0  0  0  0  0  0  0  0
   -1.6011    0.7594   -1.9657 H   0  0  0  0  0  0  0  0  0  0  0  0
   -3.4614    1.2592   -3.2624 H   0  0  0  0  0  0  0  0  0  0  0  0
   -4.8443    0.1950   -2.9927 H   0  0  0  0  0  0  0  0  0  0  0  0
   -4.8452    1.8625   -2.3463 H   0  0  0  0  0  0  0  0  0  0  0  0
    2.2390    0.5479    1.0937 H   0  0  0  0  0  0  0  0  0  0  0  0
    2.2415   -1.1385    0.4395 H   0  0  0  0  0  0  0  0  0  0  0  0
    5.2388    0.8353   -2.1352 H   0  0  0  0  0  0  0  0  0  0  0  0
    7.6336    0.5848   -1.4799 H   0  0  0  0  0  0  0  0  0  0  0  0
    8.1593   -0.2985    0.7989 H   0  0  0  0  0  0  0  0  0  0  0  0
    4.1883   -0.6752    1.7531 H   0  0  0  0  0  0  0  0  0  0  0  0
    0.3467    0.0284    2.3804 H   0  0  0  0  0  0  0  0  0  0  0  0
    0.3496   -1.6262    1.7390 H   0  0  0  0  0  0  0  0  0  0  0  0
   -1.8241   -1.9346    2.5036 H   0  0  0  0  0  0  0  0  0  0  0  0
   -1.8267   -0.2667    3.1513 H   0  0  0  0  0  0  0  0  0  0  0  0
  1  2  1  0
  2  3  1  0
  3  4  2  0
  4  5  1  0
  5  6  2  0
  6  7  1  0
  7  8  1  0
  5  9  1  0
  9 10  1  0
 10 11  2  0
 10 12  1  0
 12 13  1  0
 13 14  1  0
 14 15  1  0
 15 16  2  0
 16 17  1  0
 17 18  2  0
 18 19  1  0
  9 20  1  0
 20 21  1  0
  7  2  2  0
 19 14  2  0
 21  4  1  0
  1 22  1  0
  1 23  1  0
  1 24  1  0
  3 25  1  0
  6 26  1  0
  8 27  1  0
  8 28  1  0
  8 29  1  0
 12 30  1  0
 12 31  1  0
 15 32  1  0
 16 33  1  0
 17 34  1  0
 19 35  1  0
 20 36  1  0
 20 37  1  0
 21 38  1  0
 21 39  1  0
M  END
$$$$
OCNT-2316911
     RDKit          3D

 42 44  0  0  0  0  0  0  0  0999 V2000
   -0.1696    1.8275    1.0973 C   0  0  0  0  0  0  0  0  0  0  0  0
   -0.9531    1.2318   -0.0155 C   0  0  0  0  0  0  0  0  0  0  0  0
   -0.7803    0.0292   -0.6805 C   0  0  0  0  0  0  0  0  0  0  0  0
    0.2243   -0.8821   -0.3995 N   0  0  0  0  0  0  0  0  0  0  0  0
    0.3700   -2.0941   -1.0476 C   0  0  0  0  0  0  0  0  0  0  0  0
   -0.3784   -2.5484   -1.9055 O   0  0  0  0  0  0  0  0  0  0  0  0
    1.5348   -2.9117   -0.6283 C   0  0  0  0  0  0  0  0  0  0  0  0
    2.7233   -2.3687   -0.1353 C   0  0  0  0  0  0  0  0  0  0  0  0
    3.7639   -3.2247    0.2271 C   0  0  0  0  0  0  0  0  0  0  0  0
    3.5838   -4.5929    0.0827 C   0  0  0  0  0  0  0  0  0  0  0  0
    4.6481   -5.3893    0.4258 O   0  0  0  0  0  0  0  0  0  0  0  0
    4.2976   -6.7584    0.4783 C   0  0  0  0  0  0  0  0  0  0  0  0
    3.6085   -6.9877    1.6254 F   0  0  0  0  0  0  0  0  0  0  0  0
    5.4633   -7.4519    0.5986 F   0  0  0  0  0  0  0  0  0  0  0  0
    2.4611   -5.1461   -0.4170 N   0  0  0  0  0  0  0  0  0  0  0  0
    1.4616   -4.2938   -0.7636 C   0  0  0  0  0  0  0  0  0  0  0  0
   -1.8087   -0.0081   -1.6405 C   0  0  0  0  0  0  0  0  0  0  0  0
   -2.5844    1.0745   -1.5929 N   0  0  0  0  0  0  0  0  0  0  0  0
   -2.0668    1.8132   -0.5893 N   0  0  0  0  0  0  0  0  0  0  0  0
   -2.7289    3.0717   -0.2933 C   0  0  0  0  0  0  0  0  0  0  0  0
   -1.9431    4.3109   -0.7377 C   0  0  0  0  0  0  0  0  0  0  0  0
   -2.4108    5.4005    0.2149 C   0  0  0  0  0  0  0  0  0  0  0  0
   -2.5469    4.6741    1.5435 C   0  0  0  0  0  0  0  0  0  0  0  0
   -3.1157    3.3052    1.1778 C   0  0  0  0  0  0  0  0  0  0  0  0
   -0.1509    2.9170    1.0610 H   0  0  0  0  0  0  0  0  0  0  0  0
    0.8735    1.4971    1.0606 H   0  0  0  0  0  0  0  0  0  0  0  0
   -0.5837    1.5173    2.0614 H   0  0  0  0  0  0  0  0  0  0  0  0
    0.8335   -0.6470    0.3695 H   0  0  0  0  0  0  0  0  0  0  0  0
    2.8727   -1.2968   -0.0541 H   0  0  0  0  0  0  0  0  0  0  0  0
    4.7012   -2.8332    0.6101 H   0  0  0  0  0  0  0  0  0  0  0  0
    3.7624   -7.1455   -0.3959 H   0  0  0  0  0  0  0  0  0  0  0  0
    0.5701   -4.7736   -1.1633 H   0  0  0  0  0  0  0  0  0  0  0  0
   -2.0286   -0.7734   -2.3737 H   0  0  0  0  0  0  0  0  0  0  0  0
   -3.6704    3.0575   -0.8624 H   0  0  0  0  0  0  0  0  0  0  0  0
   -0.8610    4.1690   -0.6470 H   0  0  0  0  0  0  0  0  0  0  0  0
   -2.1472    4.5690   -1.7820 H   0  0  0  0  0  0  0  0  0  0  0  0
   -3.3843    5.7915   -0.1046 H   0  0  0  0  0  0  0  0  0  0  0  0
   -1.7067    6.2360    0.2680 H   0  0  0  0  0  0  0  0  0  0  0  0
   -3.1896    5.2130    2.2461 H   0  0  0  0  0  0  0  0  0  0  0  0
   -1.5627    4.5594    2.0120 H   0  0  0  0  0  0  0  0  0  0  0  0
   -2.7720    2.5283    1.8666 H   0  0  0  0  0  0  0  0  0  0  0  0
   -4.2100    3.3339    1.2609 H   0  0  0  0  0  0  0  0  0  0  0  0
  1  2  1  0
  2  3  2  0
  3  4  1  0
  4  5  1  0
  5  6  2  0
  5  7  1  0
  7  8  2  0
  8  9  1  0
  9 10  2  0
 10 11  1  0
 11 12  1  0
 12 13  1  0
 12 14  1  0
 10 15  1  0
 15 16  2  0
  3 17  1  0
 17 18  2  0
 18 19  1  0
 19 20  1  0
 20 21  1  0
 21 22  1  0
 22 23  1  0
 23 24  1  0
 19  2  1  0
 24 20  1  0
 16  7  1  0
  1 25  1  0
  1 26  1  0
  1 27  1  0
  4 28  1  0
  8 29  1  0
  9 30  1  0
 12 31  1  0
 16 32  1  0
 17 33  1  0
 20 34  1  0
 21 35  1  0
 21 36  1  0
 22 37  1  0
 22 38  1  0
 23 39  1  0
 23 40  1  0
 24 41  1  0
 24 42  1  0
M  END
$$$$
OCNT-2316921
     RDKit          3D

 58 60  0  0  0  0  0  0  0  0999 V2000
    4.9530    0.7384    2.3395 C   0  0  0  0  0  0  0  0  0  0  0  0
    4.8438    1.3598    1.0629 O   0  0  0  0  0  0  0  0  0  0  0  0
    4.3086    0.6041    0.0480 C   0  0  0  0  0  0  0  0  0  0  0  0
    3.7121   -0.6506    0.2168 C   0  0  0  0  0  0  0  0  0  0  0  0
    3.1961   -1.3634   -0.8811 C   0  0  0  0  0  0  0  0  0  0  0  0
    2.5311   -2.7003   -0.6642 C   0  0  0  0  0  0  0  0  0  0  0  0
    1.1960   -2.5535    0.0459 C   0  0  0  0  0  0  0  0  0  0  0  0
    1.0520   -2.8210    1.2343 O   0  0  0  0  0  0  0  0  0  0  0  0
    0.1875   -2.0590   -0.7584 N   0  0  0  0  0  0  0  0  0  0  0  0
   -1.1466   -1.7675   -0.2585 C   0  0  0  0  0  0  0  0  0  0  0  0
   -1.5274   -0.2441   -0.2524 C   0  0  0  0  0  0  0  0  0  0  0  0
   -2.9594   -0.0609    0.1567 N   0  0  0  0  0  0  0  0  0  0  0  0
   -3.9576   -0.8463   -0.5791 C   0  0  0  0  0  0  0  0  0  0  0  0
   -5.3549   -0.2291   -0.4216 C   0  0  0  0  0  0  0  0  0  0  0  0
   -5.6526    0.2263    1.0046 C   0  0  0  0  0  0  0  0  0  0  0  0
   -4.6718   -0.4011    1.9945 C   0  0  0  0  0  0  0  0  0  0  0  0
   -3.2166   -0.0769    1.6092 C   0  0  0  0  0  0  0  0  0  0  0  0
   -0.5149    0.5480    0.6447 C   0  0  0  0  0  0  0  0  0  0  0  0
   -0.2159    1.9686    0.1559 C   0  0  0  0  0  0  0  0  0  0  0  0
   -1.3254    2.5463   -0.5120 O   0  0  0  0  0  0  0  0  0  0  0  0
   -1.6887    1.8494   -1.7026 C   0  0  0  0  0  0  0  0  0  0  0  0
   -1.3544    0.3545   -1.6742 C   0  0  0  0  0  0  0  0  0  0  0  0
    3.2759   -0.7990   -2.1556 C   0  0  0  0  0  0  0  0  0  0  0  0
    3.8596    0.4561   -2.3340 C   0  0  0  0  0  0  0  0  0  0  0  0
    4.3768    1.1662   -1.2396 C   0  0  0  0  0  0  0  0  0  0  0  0
    5.0047    2.5179   -1.4550 C   0  0  0  0  0  0  0  0  0  0  0  0
    3.9625    0.5870    2.7821 H   0  0  0  0  0  0  0  0  0  0  0  0
    5.5078   -0.2028    2.2765 H   0  0  0  0  0  0  0  0  0  0  0  0
    5.5150    1.4122    2.9960 H   0  0  0  0  0  0  0  0  0  0  0  0
    3.6269   -1.1018    1.2024 H   0  0  0  0  0  0  0  0  0  0  0  0
    2.3779   -3.2233   -1.6106 H   0  0  0  0  0  0  0  0  0  0  0  0
    3.1830   -3.3402   -0.0639 H   0  0  0  0  0  0  0  0  0  0  0  0
    0.3839   -1.8854   -1.7370 H   0  0  0  0  0  0  0  0  0  0  0  0
   -1.2547   -2.1817    0.7484 H   0  0  0  0  0  0  0  0  0  0  0  0
   -1.8145   -2.3299   -0.9184 H   0  0  0  0  0  0  0  0  0  0  0  0
   -3.7502   -0.8906   -1.6515 H   0  0  0  0  0  0  0  0  0  0  0  0
   -3.9710   -1.8862   -0.2222 H   0  0  0  0  0  0  0  0  0  0  0  0
   -6.1002   -0.9710   -0.7294 H   0  0  0  0  0  0  0  0  0  0  0  0
   -5.4667    0.6256   -1.1008 H   0  0  0  0  0  0  0  0  0  0  0  0
   -5.5762    1.3221    1.0570 H   0  0  0  0  0  0  0  0  0  0  0  0
   -6.6840   -0.0353    1.2725 H   0  0  0  0  0  0  0  0  0  0  0  0
   -4.8724   -0.0371    3.0118 H   0  0  0  0  0  0  0  0  0  0  0  0
   -4.8215   -1.4951    2.0133 H   0  0  0  0  0  0  0  0  0  0  0  0
   -2.9825    0.9217    2.0042 H   0  0  0  0  0  0  0  0  0  0  0  0
   -2.5751   -0.8030    2.1277 H   0  0  0  0  0  0  0  0  0  0  0  0
   -0.8445    0.5965    1.6864 H   0  0  0  0  0  0  0  0  0  0  0  0
    0.4480    0.0312    0.7117 H   0  0  0  0  0  0  0  0  0  0  0  0
    0.0405    2.6065    1.0091 H   0  0  0  0  0  0  0  0  0  0  0  0
    0.6521    1.9767   -0.5179 H   0  0  0  0  0  0  0  0  0  0  0  0
   -1.1916    2.3311   -2.5528 H   0  0  0  0  0  0  0  0  0  0  0  0
   -2.7656    1.9947   -1.8418 H   0  0  0  0  0  0  0  0  0  0  0  0
   -1.9333   -0.1732   -2.4376 H   0  0  0  0  0  0  0  0  0  0  0  0
   -0.3066    0.2421   -1.9852 H   0  0  0  0  0  0  0  0  0  0  0  0
    2.8893   -1.3300   -3.0257 H   0  0  0  0  0  0  0  0  0  0  0  0
    3.9168    0.8769   -3.3390 H   0  0  0  0  0  0  0  0  0  0  0  0
    6.0551    2.5041   -1.1403 H   0  0  0  0  0  0  0  0  0  0  0  0
    4.4633    3.2829   -0.8883 H   0  0  0  0  0  0  0  0  0  0  0  0
    4.9776    2.8123   -2.5089 H   0  0  0  0  0  0  0  0  0  0  0  0
  1  2  1  0
  2  3  1  0
  3  4  1  0
  4  5  2  0
  5  6  1  0
  6  7  1  0
  7  8  2  0
  7  9  1  0
  9 10  1  0
 10 11  1  0
 11 12  1  0
 12 13  1  0
 13 14  1  0
 14 15  1  0
 15 16  1  0
 16 17  1  0
 11 18  1  0
 18 19  1  0
 19 20  1  0
 20 21  1  0
 21 22  1  0
  5 23  1  0
 23 24  2  0
 24 25  1  0
 25 26  1  0
 25  3  2  0
 22 11  1  0
 17 12  1  0
  1 27  1  0
  1 28  1  0
  1 29  1  0
  4 30  1  0
  6 31  1  0
  6 32  1  0
  9 33  1  0
 10 34  1  0
 10 35  1  0
 13 36  1  0
 13 37  1  0
 14 38  1  0
 14 39  1  0
 15 40  1  0
 15 41  1  0
 16 42  1  0
 16 43  1  0
 17 44  1  0
 17 45  1  0
 18 46  1  0
 18 47  1  0
 19 48  1  0
 19 49  1  0
 21 50  1  0
 21 51  1  0
 22 52  1  0
 22 53  1  0
 23 54  1  0
 24 55  1  0
 26 56  1  0
 26 57  1  0
 26 58  1  0
M  END
$$$$
OCNT-2316942
     RDKit          3D

 40 44  0  0  0  0  0  0  0  0999 V2000
    5.8919   -0.4730    2.5937 C   0  0  0  0  0  0  0  0  0  0  0  0
    5.4041   -0.8235    1.2210 C   0  0  0  0  0  0  0  0  0  0  0  0
    6.2626   -1.4006    0.2860 C   0  0  0  0  0  0  0  0  0  0  0  0
    5.7745   -1.6767   -0.9806 C   0  0  0  0  0  0  0  0  0  0  0  0
    4.5113   -1.4121   -1.3745 N   0  0  0  0  0  0  0  0  0  0  0  0
    3.6810   -0.8349   -0.4668 C   0  0  0  0  0  0  0  0  0  0  0  0
    2.3089   -0.5384   -0.8936 C   0  0  0  0  0  0  0  0  0  0  0  0
    1.8543   -0.6993   -2.1489 N   0  0  0  0  0  0  0  0  0  0  0  0
    0.5270   -0.2874   -2.0833 O   0  0  0  0  0  0  0  0  0  0  0  0
    0.2926    0.0717   -0.7896 C   0  0  0  0  0  0  0  0  0  0  0  0
   -1.0857    0.5150   -0.4407 C   0  0  0  0  0  0  0  0  0  0  0  0
   -2.0929   -0.6627   -0.5291 C   0  0  0  0  0  0  0  0  0  0  0  0
   -3.5022   -0.2494   -0.6635 N   0  0  0  0  0  0  0  0  0  0  0  0
   -4.4420   -0.8961    0.2536 C   0  0  0  0  0  0  0  0  0  0  0  0
   -5.0535    0.3312    0.9142 C   0  0  0  0  0  0  0  0  0  0  0  0
   -3.8025    1.1698    1.2885 C   0  0  0  0  0  0  0  0  0  0  0  0
   -3.6515    1.1795   -0.2852 C   0  0  0  0  0  0  0  0  0  0  0  0
   -2.7477    2.1412   -1.0210 C   0  0  0  0  0  0  0  0  0  0  0  0
   -1.4479    1.5924   -1.3163 O   0  0  0  0  0  0  0  0  0  0  0  0
   -5.2150    1.3540   -0.2526 C   0  0  0  0  0  0  0  0  0  0  0  0
    1.3459   -0.0671   -0.0138 N   0  0  0  0  0  0  0  0  0  0  0  0
    4.0945   -0.5269    0.8299 C   0  0  0  0  0  0  0  0  0  0  0  0
    6.6394   -1.1958    2.9368 H   0  0  0  0  0  0  0  0  0  0  0  0
    6.3395    0.5256    2.5887 H   0  0  0  0  0  0  0  0  0  0  0  0
    5.0701   -0.4879    3.3175 H   0  0  0  0  0  0  0  0  0  0  0  0
    7.2930   -1.6344    0.5326 H   0  0  0  0  0  0  0  0  0  0  0  0
    6.4078   -2.1311   -1.7376 H   0  0  0  0  0  0  0  0  0  0  0  0
   -1.0592    0.9115    0.5820 H   0  0  0  0  0  0  0  0  0  0  0  0
   -1.9276   -1.3237    0.3317 H   0  0  0  0  0  0  0  0  0  0  0  0
   -1.8755   -1.2697   -1.4172 H   0  0  0  0  0  0  0  0  0  0  0  0
   -3.9761   -1.5536    0.9954 H   0  0  0  0  0  0  0  0  0  0  0  0
   -5.1919   -1.4684   -0.3015 H   0  0  0  0  0  0  0  0  0  0  0  0
   -5.8536    0.2224    1.6436 H   0  0  0  0  0  0  0  0  0  0  0  0
   -3.9998    2.1437    1.7530 H   0  0  0  0  0  0  0  0  0  0  0  0
   -3.0332    0.6616    1.8778 H   0  0  0  0  0  0  0  0  0  0  0  0
   -2.6046    3.0634   -0.4483 H   0  0  0  0  0  0  0  0  0  0  0  0
   -3.1869    2.4239   -1.9833 H   0  0  0  0  0  0  0  0  0  0  0  0
   -5.5812    2.3484    0.0298 H   0  0  0  0  0  0  0  0  0  0  0  0
   -5.7726    1.0162   -1.1327 H   0  0  0  0  0  0  0  0  0  0  0  0
    3.4048   -0.0588    1.5267 H   0  0  0  0  0  0  0  0  0  0  0  0
  1  2  1  0
  2  3  2  0
  3  4  1  0
  4  5  2  0
  5  6  1  0
  6  7  1  0
  7  8  2  0
  8  9  1  0
  9 10  1  0
 10 11  1  0
 11 12  1  0
 12 13  1  0
 13 14  1  0
 14 15  1  0
 15 16  1  0
 16 17  1  0
 17 18  1  0
 18 19  1  0
 17 20  1  0
 10 21  2  0
  6 22  2  0
 22  2  1  0
 21  7  1  0
 19 11  1  0
 17 13  1  0
 20 15  1  0
  1 23  1  0
  1 24  1  0
  1 25  1  0
  3 26  1  0
  4 27  1  0
 11 28  1  0
 12 29  1  0
 12 30  1  0
 14 31  1  0
 14 32  1  0
 15 33  1  0
 16 34  1  0
 16 35  1  0
 18 36  1  0
 18 37  1  0
 20 38  1  0
 20 39  1  0
 22 40  1  0
M  END
$$$$
OCNT-2316951
     RDKit          3D

 52 55  0  0  0  0  0  0  0  0999 V2000
    9.0677   -0.3613    0.2950 C   0  0  0  0  0  0  0  0  0  0  0  0
    7.7911   -0.1851   -0.4318 C   0  0  0  0  0  0  0  0  0  0  0  0
    7.5628   -0.8520   -1.5692 N   0  0  0  0  0  0  0  0  0  0  0  0
    6.3008   -0.4656   -1.9846 O   0  0  0  0  0  0  0  0  0  0  0  0
    5.7874    0.4359   -1.1026 C   0  0  0  0  0  0  0  0  0  0  0  0
    4.4396    0.9792   -1.4186 C   0  0  0  0  0  0  0  0  0  0  0  0
    3.3568    0.1535   -0.8708 N   0  0  0  0  0  0  0  0  0  0  0  0
    2.0732    0.4323   -1.5253 C   0  0  0  0  0  0  0  0  0  0  0  0
    0.9442   -0.4424   -0.9490 C   0  0  0  0  0  0  0  0  0  0  0  0
    0.8186   -0.3398    0.5067 N   0  0  0  0  0  0  0  0  0  0  0  0
   -0.2448   -0.8115    1.2486 C   0  0  0  0  0  0  0  0  0  0  0  0
   -0.3945   -0.5426    2.4377 O   0  0  0  0  0  0  0  0  0  0  0  0
   -1.1266   -1.6048    0.5702 N   0  0  0  0  0  0  0  0  0  0  0  0
   -2.3158   -2.1405    1.1881 C   0  0  0  0  0  0  0  0  0  0  0  0
   -3.5347   -1.3749    0.7438 C   0  0  0  0  0  0  0  0  0  0  0  0
   -3.8336   -0.1306    1.3103 C   0  0  0  0  0  0  0  0  0  0  0  0
   -4.9524    0.6003    0.8914 C   0  0  0  0  0  0  0  0  0  0  0  0
   -5.7981    0.1022   -0.1126 C   0  0  0  0  0  0  0  0  0  0  0  0
   -6.9347    0.8537   -0.5327 N   0  0  0  0  0  0  0  0  0  0  0  0
   -7.3347    2.0890   -0.0579 C   0  0  0  0  0  0  0  0  0  0  0  0
   -8.4737    2.4236   -0.7496 C   0  0  0  0  0  0  0  0  0  0  0  0
   -8.8006    1.4461   -1.6387 N   0  0  0  0  0  0  0  0  0  0  0  0
   -7.8740    0.5237   -1.4884 C   0  0  0  0  0  0  0  0  0  0  0  0
   -5.4861   -1.1392   -0.6791 C   0  0  0  0  0  0  0  0  0  0  0  0
   -6.2302   -1.6875   -1.6480 F   0  0  0  0  0  0  0  0  0  0  0  0
   -4.3704   -1.8685   -0.2612 C   0  0  0  0  0  0  0  0  0  0  0  0
    1.8457    0.4509    1.1788 C   0  0  0  0  0  0  0  0  0  0  0  0
    3.2589    0.2129    0.6031 C   0  0  0  0  0  0  0  0  0  0  0  0
    6.7013    0.6499   -0.0987 C   0  0  0  0  0  0  0  0  0  0  0  0
    8.9439   -0.1403    1.3602 H   0  0  0  0  0  0  0  0  0  0  0  0
    9.8288    0.3142   -0.1078 H   0  0  0  0  0  0  0  0  0  0  0  0
    9.4361   -1.3888    0.2065 H   0  0  0  0  0  0  0  0  0  0  0  0
    4.3560    2.0155   -1.0667 H   0  0  0  0  0  0  0  0  0  0  0  0
    4.3551    1.0205   -2.5128 H   0  0  0  0  0  0  0  0  0  0  0  0
    1.8097    1.4925   -1.4136 H   0  0  0  0  0  0  0  0  0  0  0  0
    2.1482    0.2264   -2.6001 H   0  0  0  0  0  0  0  0  0  0  0  0
   -0.0094   -0.1527   -1.4049 H   0  0  0  0  0  0  0  0  0  0  0  0
    1.1260   -1.4972   -1.1879 H   0  0  0  0  0  0  0  0  0  0  0  0
   -0.9523   -1.8398   -0.3910 H   0  0  0  0  0  0  0  0  0  0  0  0
   -2.3923   -3.1914    0.8883 H   0  0  0  0  0  0  0  0  0  0  0  0
   -2.2387   -2.1233    2.2810 H   0  0  0  0  0  0  0  0  0  0  0  0
   -3.1855    0.2806    2.0854 H   0  0  0  0  0  0  0  0  0  0  0  0
   -5.1234    1.5563    1.3767 H   0  0  0  0  0  0  0  0  0  0  0  0
   -6.8066    2.6311    0.7100 H   0  0  0  0  0  0  0  0  0  0  0  0
   -9.0721    3.3203   -0.6499 H   0  0  0  0  0  0  0  0  0  0  0  0
   -7.8545   -0.3956   -2.0547 H   0  0  0  0  0  0  0  0  0  0  0  0
   -4.1688   -2.8260   -0.7344 H   0  0  0  0  0  0  0  0  0  0  0  0
    1.8540    0.2434    2.2544 H   0  0  0  0  0  0  0  0  0  0  0  0
    1.5657    1.5046    1.0549 H   0  0  0  0  0  0  0  0  0  0  0  0
    3.6238   -0.7503    0.9810 H   0  0  0  0  0  0  0  0  0  0  0  0
    3.9151    0.9827    1.0276 H   0  0  0  0  0  0  0  0  0  0  0  0
    6.5985    1.3105    0.7482 H   0  0  0  0  0  0  0  0  0  0  0  0
  1  2  1  0
  2  3  2  0
  3  4  1  0
  4  5  1  0
  5  6  1  0
  6  7  1  0
  7  8  1  0
  8  9  1  0
  9 10  1  0
 10 11  1  0
 11 12  2  0
 11 13  1  0
 13 14  1  0
 14 15  1  0
 15 16  1  0
 16 17  2  0
 17 18  1  0
 18 19  1  0
 19 20  1  0
 20 21  2  0
 21 22  1  0
 22 23  2  0
 18 24  2  0
 24 25  1  0
 24 26  1  0
 10 27  1  0
 27 28  1  0
  5 29  2  0
 29  2  1  0
 28  7  1  0
 26 15  2  0
 23 19  1  0
  1 30  1  0
  1 31  1  0
  1 32  1  0
  6 33  1  0
  6 34  1  0
  8 35  1  0
  8 36  1  0
  9 37  1  0
  9 38  1  0
 13 39  1  0
 14 40  1  0
 14 41  1  0
 16 42  1  0
 17 43  1  0
 20 44  1  0
 21 45  1  0
 23 46  1  0
 26 47  1  0
 27 48  1  0
 27 49  1  0
 28 50  1  0
 28 51  1  0
 29 52  1  0
M  END
$$$$
OCNT-2316959
     RDKit          3D

 46 48  0  0  0  0  0  0  0  0999 V2000
   -3.1329    2.1662    1.4366 C   0  0  0  0  0  0  0  0  0  0  0  0
   -2.2108    1.0969    0.8481 C   0  0  0  0  0  0  0  0  0  0  0  0
   -1.4805    1.6210   -0.4053 C   0  0  0  0  0  0  0  0  0  0  0  0
   -0.7375    0.5293   -1.1850 C   0  0  0  0  0  0  0  0  0  0  0  0
   -0.6833   -0.7113   -0.4183 N   0  0  0  0  0  0  0  0  0  0  0  0
    0.4059   -1.1107    0.3552 C   0  0  0  0  0  0  0  0  0  0  0  0
    0.2912   -1.9750    1.2277 O   0  0  0  0  0  0  0  0  0  0  0  0
    1.7577   -0.4071    0.1102 C   0  0  1  0  0  0  0  0  0  0  0  0
    1.6827    0.9241    0.6358 O   0  0  0  0  0  0  0  0  0  0  0  0
    2.9104   -1.1807    0.7735 C   0  0  0  0  0  0  0  0  0  0  0  0
    4.2614   -0.8118    0.1995 C   0  0  0  0  0  0  0  0  0  0  0  0
    4.8801    0.3978    0.5429 C   0  0  0  0  0  0  0  0  0  0  0  0
    6.1216    0.7371    0.0027 C   0  0  0  0  0  0  0  0  0  0  0  0
    6.7567   -0.1279   -0.8859 C   0  0  0  0  0  0  0  0  0  0  0  0
    6.1504   -1.3324   -1.2363 C   0  0  0  0  0  0  0  0  0  0  0  0
    4.9083   -1.6732   -0.6979 C   0  0  0  0  0  0  0  0  0  0  0  0
   -1.9990   -1.2814   -0.1295 C   0  0  0  0  0  0  0  0  0  0  0  0
   -2.9008   -0.2819    0.6348 C   0  0  0  0  0  0  0  0  0  0  0  0
   -4.2305   -0.2044    0.0397 N   0  0  0  0  0  0  0  0  0  0  0  0
   -5.4019   -0.5424    0.6643 C   0  0  0  0  0  0  0  0  0  0  0  0
   -6.3847   -0.3182   -0.2705 C   0  0  0  0  0  0  0  0  0  0  0  0
   -5.8432    0.1398   -1.4418 N   0  0  0  0  0  0  0  0  0  0  0  0
   -4.5487    0.1974   -1.2270 C   0  0  0  0  0  0  0  0  0  0  0  0
   -2.5584    3.0585    1.7082 H   0  0  0  0  0  0  0  0  0  0  0  0
   -3.9052    2.4762    0.7257 H   0  0  0  0  0  0  0  0  0  0  0  0
   -3.6256    1.7992    2.3430 H   0  0  0  0  0  0  0  0  0  0  0  0
   -1.4302    0.9268    1.6054 H   0  0  0  0  0  0  0  0  0  0  0  0
   -0.7602    2.3882   -0.0926 H   0  0  0  0  0  0  0  0  0  0  0  0
   -2.1763    2.1321   -1.0813 H   0  0  0  0  0  0  0  0  0  0  0  0
    0.2511    0.8820   -1.4840 H   0  0  0  0  0  0  0  0  0  0  0  0
   -1.2758    0.3084   -2.1147 H   0  0  0  0  0  0  0  0  0  0  0  0
    1.9296   -0.3509   -0.9704 H   0  0  0  0  0  0  0  0  0  0  0  0
    1.5849    0.8391    1.6013 H   0  0  0  0  0  0  0  0  0  0  0  0
    2.7651   -2.2616    0.6500 H   0  0  0  0  0  0  0  0  0  0  0  0
    2.9313   -0.9950    1.8553 H   0  0  0  0  0  0  0  0  0  0  0  0
    4.3960    1.0881    1.2299 H   0  0  0  0  0  0  0  0  0  0  0  0
    6.5920    1.6784    0.2746 H   0  0  0  0  0  0  0  0  0  0  0  0
    7.7234    0.1371   -1.3056 H   0  0  0  0  0  0  0  0  0  0  0  0
    6.6454   -2.0077   -1.9292 H   0  0  0  0  0  0  0  0  0  0  0  0
    4.4517   -2.6183   -0.9832 H   0  0  0  0  0  0  0  0  0  0  0  0
   -2.4316   -1.5777   -1.0927 H   0  0  0  0  0  0  0  0  0  0  0  0
   -1.9041   -2.2061    0.4509 H   0  0  0  0  0  0  0  0  0  0  0  0
   -3.0647   -0.7033    1.6374 H   0  0  0  0  0  0  0  0  0  0  0  0
   -5.4441   -0.8985    1.6842 H   0  0  0  0  0  0  0  0  0  0  0  0
   -7.4519   -0.4633   -0.1623 H   0  0  0  0  0  0  0  0  0  0  0  0
   -3.8153    0.5172   -1.9544 H   0  0  0  0  0  0  0  0  0  0  0  0
  1  2  1  0
  2  3  1  0
  3  4  1  0
  4  5  1  0
  5  6  1  0
  6  7  2  0
  6  8  1  0
  8  9  1  0
  8 10  1  0
 10 11  1  0
 11 12  2  0
 12 13  1  0
 13 14  2  0
 14 15  1  0
 15 16  2  0
  5 17  1  0
 17 18  1  0
 18 19  1  0
 19 20  1  0
 20 21  2  0
 21 22  1  0
 22 23  2  0
 18  2  1  0
 23 19  1  0
 16 11  1  0
  1 24  1  0
  1 25  1  0
  1 26  1  0
  2 27  1  0
  3 28  1  0
  3 29  1  0
  4 30  1  0
  4 31  1  0
  8 32  1  6
  9 33  1  0
 10 34  1  0
 10 35  1  0
 12 36  1  0
 13 37  1  0
 14 38  1  0
 15 39  1  0
 16 40  1  0
 17 41  1  0
 17 42  1  0
 18 43  1  0
 20 44  1  0
 21 45  1  0
 23 46  1  0
M  END
$$$$
OCNT-2316968
     RDKit          3D

 46 49  0  0  0  0  0  0  0  0999 V2000
   -4.4071    3.4131    0.9328 C   0  0  0  0  0  0  0  0  0  0  0  0
   -3.6096    2.2772    0.6258 O   0  0  0  0  0  0  0  0  0  0  0  0
   -4.2664    1.1374    0.2285 C   0  0  0  0  0  0  0  0  0  0  0  0
   -5.6433    0.9446    0.3444 C   0  0  0  0  0  0  0  0  0  0  0  0
   -6.3060   -0.1538   -0.0834 N   0  0  0  0  0  0  0  0  0  0  0  0
   -5.5566   -1.1051   -0.6663 C   0  0  0  0  0  0  0  0  0  0  0  0
   -4.1803   -1.0188   -0.8240 C   0  0  0  0  0  0  0  0  0  0  0  0
   -3.4887    0.1071   -0.3556 C   0  0  0  0  0  0  0  0  0  0  0  0
   -2.0985    0.2241   -0.4868 N   0  0  0  0  0  0  0  0  0  0  0  0
   -1.3296    0.4325    0.7655 C   0  0  0  0  0  0  0  0  0  0  0  0
   -0.7099   -0.8940    1.2633 C   0  0  0  0  0  0  0  0  0  0  0  0
    0.0679   -1.5376    0.1944 N   0  0  0  0  0  0  0  0  0  0  0  0
    1.4447   -1.3680    0.0294 C   0  0  0  0  0  0  0  0  0  0  0  0
    1.9717   -1.5013   -1.0761 O   0  0  0  0  0  0  0  0  0  0  0  0
    2.2385   -0.9952    1.2742 C   0  0  0  0  0  0  0  0  0  0  0  0
    3.7165   -1.1856    1.1151 C   0  0  0  0  0  0  0  0  0  0  0  0
    4.2924   -2.1756    1.8014 N   0  0  0  0  0  0  0  0  0  0  0  0
    5.9139   -2.1751    1.4912 S   0  0  0  0  0  0  0  0  0  0  0  0
    5.9164   -0.8066    0.4546 C   0  0  0  0  0  0  0  0  0  0  0  0
    6.9949   -0.1852   -0.1977 C   0  0  0  0  0  0  0  0  0  0  0  0
    6.7330    0.9293   -0.9977 C   0  0  0  0  0  0  0  0  0  0  0  0
    5.4366    1.4072   -1.1450 C   0  0  0  0  0  0  0  0  0  0  0  0
    4.3701    0.7804   -0.4907 C   0  0  0  0  0  0  0  0  0  0  0  0
    4.6023   -0.3501    0.3304 C   0  0  0  0  0  0  0  0  0  0  0  0
   -0.7374   -1.8103   -1.0013 C   0  0  0  0  0  0  0  0  0  0  0  0
   -1.3595   -0.5078   -1.5428 C   0  0  0  0  0  0  0  0  0  0  0  0
   -4.9760    3.2531    1.8542 H   0  0  0  0  0  0  0  0  0  0  0  0
   -5.0674    3.6756    0.0994 H   0  0  0  0  0  0  0  0  0  0  0  0
   -3.7330    4.2583    1.1019 H   0  0  0  0  0  0  0  0  0  0  0  0
   -6.2942    1.6843    0.7971 H   0  0  0  0  0  0  0  0  0  0  0  0
   -6.1030   -1.9768   -1.0156 H   0  0  0  0  0  0  0  0  0  0  0  0
   -3.6721   -1.8493   -1.2965 H   0  0  0  0  0  0  0  0  0  0  0  0
   -1.9268    0.8566    1.5787 H   0  0  0  0  0  0  0  0  0  0  0  0
   -0.5263    1.1481    0.5508 H   0  0  0  0  0  0  0  0  0  0  0  0
   -1.5023   -1.5939    1.5544 H   0  0  0  0  0  0  0  0  0  0  0  0
   -0.0990   -0.7019    2.1474 H   0  0  0  0  0  0  0  0  0  0  0  0
    2.0352    0.0557    1.5108 H   0  0  0  0  0  0  0  0  0  0  0  0
    1.8868   -1.6092    2.1122 H   0  0  0  0  0  0  0  0  0  0  0  0
    8.0068   -0.5624   -0.0858 H   0  0  0  0  0  0  0  0  0  0  0  0
    7.5526    1.4231   -1.5151 H   0  0  0  0  0  0  0  0  0  0  0  0
    5.2454    2.2696   -1.7795 H   0  0  0  0  0  0  0  0  0  0  0  0
    3.3605    1.1575   -0.6321 H   0  0  0  0  0  0  0  0  0  0  0  0
   -1.5168   -2.5215   -0.7067 H   0  0  0  0  0  0  0  0  0  0  0  0
   -0.1362   -2.2914   -1.7795 H   0  0  0  0  0  0  0  0  0  0  0  0
   -0.5530    0.1496   -1.8922 H   0  0  0  0  0  0  0  0  0  0  0  0
   -1.9875   -0.7079   -2.4183 H   0  0  0  0  0  0  0  0  0  0  0  0
  1  2  1  0
  2  3  1  0
  3  4  2  0
  4  5  1  0
  5  6  2  0
  6  7  1  0
  7  8  2  0
  8  9  1  0
  9 10  1  0
 10 11  1  0
 11 12  1  0
 12 13  1  0
 13 14  2  0
 13 15  1  0
 15 16  1  0
 16 17  2  0
 17 18  1  0
 18 19  1  0
 19 20  2  0
 20 21  1  0
 21 22  2  0
 22 23  1  0
 23 24  2  0
 12 25  1  0
 25 26  1  0
  8  3  1  0
 26  9  1  0
 24 16  1  0
 24 19  1  0
  1 27  1  0
  1 28  1  0
  1 29  1  0
  4 30  1  0
  6 31  1  0
  7 32  1  0
 10 33  1  0
 10 34  1  0
 11 35  1  0
 11 36  1  0
 15 37  1  0
 15 38  1  0
 20 39  1  0
 21 40  1  0
 22 41  1  0
 23 42  1  0
 25 43  1  0
 25 44  1  0
 26 45  1  0
 26 46  1  0
M  END
$$$$
OCNT-2316971
     RDKit          3D

  0  0  0  0  0  0  0  0  0  0999 V3000
M  V30 BEGIN CTAB
M  V30 COUNTS 40 43 0 0 0
M  V30 BEGIN ATOM
M  V30 1 C 8.386279 0.998350 -1.249043 0
M  V30 2 C 7.265980 0.624177 -1.032488 0
M  V30 3 C 5.933535 0.178908 -0.774741 0
M  V30 4 C 5.062451 0.937509 0.000715 0
M  V30 5 C 3.766561 0.471777 0.234781 0
M  V30 6 C 3.377605 -0.747333 -0.318774 0
M  V30 7 C 2.040073 -1.308597 -0.131509 0
M  V30 8 N 1.668915 -2.574078 -0.215467 0
M  V30 9 N 0.318113 -2.660225 0.032090 0
M  V30 10 C -0.131345 -1.445008 0.247218 0
M  V30 11 C -1.547111 -1.053395 0.549279 0 CFG=1
M  V30 12 C -1.741027 -0.776610 2.027875 0
M  V30 13 C -1.375784 0.687714 2.165400 0
M  V30 14 O -1.443147 1.283510 0.857845 0
M  V30 15 C -1.924553 0.291370 -0.082650 0 CFG=2
M  V30 16 C -3.411108 0.456091 -0.361968 0
M  V30 17 C -4.050852 -0.426864 -1.249435 0
M  V30 18 C -5.411291 -0.295398 -1.535803 0
M  V30 19 C -6.151567 0.727317 -0.949432 0
M  V30 20 C -5.530542 1.622838 -0.082832 0
M  V30 21 C -4.169709 1.491990 0.204476 0
M  V30 22 N 0.920275 -0.569008 0.155890 0
M  V30 23 N 4.214258 -1.495959 -1.075829 0
M  V30 24 C 5.466039 -1.022322 -1.284961 0
M  V30 25 H 9.380979 1.328014 -1.441864 0
M  V30 26 H 5.385080 1.883270 0.428689 0
M  V30 27 H 3.097998 1.057183 0.855415 0
M  V30 28 H -2.190610 -1.877255 0.220964 0
M  V30 29 H -1.155602 -1.415817 2.696528 0
M  V30 30 H -2.797327 -0.908733 2.293454 0
M  V30 31 H -2.052746 1.218949 2.841286 0
M  V30 32 H -0.354261 0.814623 2.537807 0
M  V30 33 H -1.403563 0.471735 -1.031362 0
M  V30 34 H -3.492319 -1.226992 -1.732629 0
M  V30 35 H -5.891509 -0.989600 -2.220935 0
M  V30 36 H -7.209830 0.831373 -1.173788 0
M  V30 37 H -6.104009 2.429243 0.367128 0
M  V30 38 H -3.708256 2.215256 0.873276 0
M  V30 39 H 0.866643 0.434877 0.250736 0
M  V30 40 H 6.097280 -1.662879 -1.895339 0
M  V30 END ATOM
M  V30 BEGIN BOND
M  V30 1 3 1 2
M  V30 2 1 2 3
M  V30 3 2 3 4
M  V30 4 1 4 5
M  V30 5 2 5 6
M  V30 6 1 6 7
M  V30 7 2 7 8
M  V30 8 1 8 9
M  V30 9 2 9 10
M  V30 10 1 10 11
M  V30 11 1 11 12
M  V30 12 1 12 13
M  V30 13 1 13 14
M  V30 14 1 14 15
M  V30 15 1 15 16
M  V30 16 2 16 17
M  V30 17 1 17 18
M  V30 18 2 18 19
M  V30 19 1 19 20
M  V30 20 2 20 21
M  V30 21 1 10 22
M  V30 22 1 6 23
M  V30 23 2 23 24
M  V30 24 1 24 3
M  V30 25 1 22 7
M  V30 26 1 15 11
M  V30 27 1 21 16
M  V30 28 1 1 25
M  V30 29 1 4 26
M  V30 30 1 5 27
M  V30 31 1 11 28 CFG=3
M  V30 32 1 12 29
M  V30 33 1 12 30
M  V30 34 1 13 31
M  V30 35 1 13 32
M  V30 36 1 15 33 CFG=3
M  V30 37 1 17 34
M  V30 38 1 18 35
M  V30 39 1 19 36
M  V30 40 1 20 37
M  V30 41 1 21 38
M  V30 42 1 22 39
M  V30 43 1 24 40
M  V30 END BOND
M  V30 BEGIN COLLECTION
M  V30 MDLV30/STERAC1 ATOMS=(2 11 15)
M  V30 END COLLECTION
M  V30 END CTAB
M  END
>  <_CXSMILES_Data>  (1158) 
|&1:10,14|

$$$$
OCNT-2316975
     RDKit          3D

 41 42  0  0  0  0  0  0  0  0999 V2000
    4.7648    0.8549   -2.0711 C   0  0  0  0  0  0  0  0  0  0  0  0
    3.3312    0.4017   -2.3003 C   0  0  0  0  0  0  0  0  0  0  0  0
    2.4544    0.6916   -1.1086 C   0  0  0  0  0  0  0  0  0  0  0  0
    1.7751    1.9147   -1.0061 C   0  0  0  0  0  0  0  0  0  0  0  0
    0.9836    2.2000    0.1091 C   0  0  0  0  0  0  0  0  0  0  0  0
    0.8612    1.2666    1.1365 C   0  0  0  0  0  0  0  0  0  0  0  0
    1.5315    0.0452    1.0368 C   0  0  0  0  0  0  0  0  0  0  0  0
    1.3871   -1.1508    2.3399 S   0  0  0  0  0  0  0  0  0  0  0  0
    0.7699   -0.5288    3.4897 O   0  0  0  0  0  0  0  0  0  0  0  0
    2.6462   -1.8556    2.4396 O   0  0  0  0  0  0  0  0  0  0  0  0
    0.2941   -2.2356    1.6864 N   0  0  0  0  0  0  0  0  0  0  0  0
   -1.1204   -1.8869    1.5985 C   0  0  0  0  0  0  0  0  0  0  0  0
   -1.6433   -2.3206    0.2298 C   0  0  0  0  0  0  0  0  0  0  0  0
   -3.0749   -1.8445   -0.0367 C   0  0  0  0  0  0  0  0  0  0  0  0
   -3.2031   -0.3499   -0.1647 C   0  0  0  0  0  0  0  0  0  0  0  0
   -2.5377    0.3609   -1.1679 C   0  0  0  0  0  0  0  0  0  0  0  0
   -2.6746    1.7437   -1.2440 C   0  0  0  0  0  0  0  0  0  0  0  0
   -3.4810    2.3749   -0.3131 C   0  0  0  0  0  0  0  0  0  0  0  0
   -4.1457    1.7252    0.6651 N   0  0  0  0  0  0  0  0  0  0  0  0
   -3.9956    0.3826    0.7148 C   0  0  0  0  0  0  0  0  0  0  0  0
    2.3348   -0.2429   -0.0716 C   0  0  0  0  0  0  0  0  0  0  0  0
    5.3767    0.6337   -2.9513 H   0  0  0  0  0  0  0  0  0  0  0  0
    4.8157    1.9330   -1.8845 H   0  0  0  0  0  0  0  0  0  0  0  0
    5.2103    0.3437   -1.2110 H   0  0  0  0  0  0  0  0  0  0  0  0
    2.9227    0.8989   -3.1885 H   0  0  0  0  0  0  0  0  0  0  0  0
    3.3120   -0.6730   -2.5190 H   0  0  0  0  0  0  0  0  0  0  0  0
    1.8675    2.6593   -1.7944 H   0  0  0  0  0  0  0  0  0  0  0  0
    0.4660    3.1536    0.1798 H   0  0  0  0  0  0  0  0  0  0  0  0
    0.2446    1.4967    2.0028 H   0  0  0  0  0  0  0  0  0  0  0  0
    0.5927   -3.2084    1.6928 H   0  0  0  0  0  0  0  0  0  0  0  0
   -1.2633   -0.8120    1.7380 H   0  0  0  0  0  0  0  0  0  0  0  0
   -1.6661   -2.4029    2.3954 H   0  0  0  0  0  0  0  0  0  0  0  0
   -0.9696   -1.9614   -0.5583 H   0  0  0  0  0  0  0  0  0  0  0  0
   -1.6200   -3.4165    0.1721 H   0  0  0  0  0  0  0  0  0  0  0  0
   -3.4368   -2.2964   -0.9690 H   0  0  0  0  0  0  0  0  0  0  0  0
   -3.7346   -2.2167    0.7572 H   0  0  0  0  0  0  0  0  0  0  0  0
   -1.9098   -0.1524   -1.8918 H   0  0  0  0  0  0  0  0  0  0  0  0
   -2.1636    2.3139   -2.0113 H   0  0  0  0  0  0  0  0  0  0  0  0
   -3.6202    3.4518   -0.3308 H   0  0  0  0  0  0  0  0  0  0  0  0
   -4.5486   -0.1003    1.5164 H   0  0  0  0  0  0  0  0  0  0  0  0
    2.8667   -1.1909   -0.1248 H   0  0  0  0  0  0  0  0  0  0  0  0
  1  2  1  0
  2  3  1  0
  3  4  1  0
  4  5  2  0
  5  6  1  0
  6  7  2  0
  7  8  1  0
  8  9  2  0
  8 10  2  0
  8 11  1  0
 11 12  1  0
 12 13  1  0
 13 14  1  0
 14 15  1  0
 15 16  1  0
 16 17  2  0
 17 18  1  0
 18 19  2  0
 19 20  1  0
  7 21  1  0
 21  3  2  0
 20 15  2  0
  1 22  1  0
  1 23  1  0
  1 24  1  0
  2 25  1  0
  2 26  1  0
  4 27  1  0
  5 28  1  0
  6 29  1  0
 11 30  1  0
 12 31  1  0
 12 32  1  0
 13 33  1  0
 13 34  1  0
 14 35  1  0
 14 36  1  0
 16 37  1  0
 17 38  1  0
 18 39  1  0
 20 40  1  0
 21 41  1  0
M  END
$$$$
OCNT-2316976
     RDKit          3D

 36 39  0  0  0  0  0  0  0  0999 V2000
   -0.2169    1.5698    1.0574 O   0  0  0  0  0  0  0  0  0  0  0  0
   -0.9793    0.7124    0.6228 C   0  0  0  0  0  0  0  0  0  0  0  0
   -0.6175   -0.3864   -0.1336 N   0  0  0  0  0  0  0  0  0  0  0  0
    0.6740   -0.7659   -0.5555 C   0  0  0  0  0  0  0  0  0  0  0  0
    0.7693   -1.9147   -1.3490 C   0  0  0  0  0  0  0  0  0  0  0  0
    2.0085   -2.3590   -1.8096 C   0  0  0  0  0  0  0  0  0  0  0  0
    3.1676   -1.6572   -1.4795 C   0  0  0  0  0  0  0  0  0  0  0  0
    3.0996   -0.5052   -0.6855 C   0  0  0  0  0  0  0  0  0  0  0  0
    4.3169    0.2164   -0.3440 C   0  0  0  0  0  0  0  0  0  0  0  0
    4.3858    1.5495    0.0041 C   0  0  0  0  0  0  0  0  0  0  0  0
    5.7022    1.8238    0.2355 N   0  0  0  0  0  0  0  0  0  0  0  0
    6.5092    0.7663    0.0549 N   0  0  0  0  0  0  0  0  0  0  0  0
    5.6663   -0.2098   -0.2942 C   0  0  0  0  0  0  0  0  0  0  0  0
    1.8426   -0.0721   -0.2269 C   0  0  0  0  0  0  0  0  0  0  0  0
   -2.4388    0.8511    0.9222 C   0  0  0  0  0  0  0  0  0  0  0  0
   -2.8672    1.9447    1.6985 C   0  0  0  0  0  0  0  0  0  0  0  0
   -4.2259    2.1277    2.0129 C   0  0  0  0  0  0  0  0  0  0  0  0
   -5.1819    1.2212    1.5572 C   0  0  0  0  0  0  0  0  0  0  0  0
   -4.7455    0.1557    0.7980 C   0  0  0  0  0  0  0  0  0  0  0  0
   -3.4153   -0.0319    0.4847 C   0  0  0  0  0  0  0  0  0  0  0  0
   -3.2351   -1.1530   -0.2750 O   0  0  0  0  0  0  0  0  0  0  0  0
   -4.5900   -1.6378   -0.3963 C   0  0  0  0  0  0  0  0  0  0  0  0
   -5.5513   -0.8110    0.2811 O   0  0  0  0  0  0  0  0  0  0  0  0
   -1.3742   -0.9933   -0.4324 H   0  0  0  0  0  0  0  0  0  0  0  0
   -0.1196   -2.4777   -1.6214 H   0  0  0  0  0  0  0  0  0  0  0  0
    2.0717   -3.2501   -2.4288 H   0  0  0  0  0  0  0  0  0  0  0  0
    4.1200   -2.0171   -1.8608 H   0  0  0  0  0  0  0  0  0  0  0  0
    3.6338    2.3196    0.1037 H   0  0  0  0  0  0  0  0  0  0  0  0
    6.1185    2.7059    0.5143 H   0  0  0  0  0  0  0  0  0  0  0  0
    6.0700   -1.1937   -0.4939 H   0  0  0  0  0  0  0  0  0  0  0  0
    1.7927    0.8083    0.4041 H   0  0  0  0  0  0  0  0  0  0  0  0
   -2.1402    2.6678    2.0675 H   0  0  0  0  0  0  0  0  0  0  0  0
   -4.5288    2.9818    2.6148 H   0  0  0  0  0  0  0  0  0  0  0  0
   -6.2335    1.3479    1.7907 H   0  0  0  0  0  0  0  0  0  0  0  0
   -4.8505   -1.6836   -1.4599 H   0  0  0  0  0  0  0  0  0  0  0  0
   -4.6375   -2.6499    0.0215 H   0  0  0  0  0  0  0  0  0  0  0  0
  1  2  2  0
  2  3  1  0
  3  4  1  0
  4  5  2  0
  5  6  1  0
  6  7  2  0
  7  8  1  0
  8  9  1  0
  9 10  2  0
 10 11  1  0
 11 12  1  0
 12 13  2  0
  8 14  2  0
  2 15  1  0
 15 16  2  0
 16 17  1  0
 17 18  2  0
 18 19  1  0
 19 20  2  0
 20 21  1  0
 21 22  1  0
 22 23  1  0
 14  4  1  0
 20 15  1  0
 13  9  1  0
 23 19  1  0
  3 24  1  0
  5 25  1  0
  6 26  1  0
  7 27  1  0
 10 28  1  0
 11 29  1  0
 13 30  1  0
 14 31  1  0
 16 32  1  0
 17 33  1  0
 18 34  1  0
 22 35  1  0
 22 36  1  0
M  END
$$$$
OCNT-2316987
     RDKit          3D

 47 50  0  0  0  0  0  0  0  0999 V2000
   -3.5076   -1.7420   -1.1780 C   0  0  0  0  0  0  0  0  0  0  0  0
   -3.7333   -0.7859   -0.0035 C   0  0  0  0  0  0  0  0  0  0  0  0
   -4.5666    0.4369   -0.3707 C   0  0  0  0  0  0  0  0  0  0  0  0
   -4.7433    0.9737   -1.6357 C   0  0  0  0  0  0  0  0  0  0  0  0
   -5.7571    2.3513   -1.6499 S   0  0  0  0  0  0  0  0  0  0  0  0
   -5.9823    2.2691    0.0394 C   0  0  0  0  0  0  0  0  0  0  0  0
   -5.3000    1.2121    0.5976 C   0  0  0  0  0  0  0  0  0  0  0  0
   -2.5356   -0.3059    0.6984 N   0  0  0  0  0  0  0  0  0  0  0  0
   -2.0145   -1.2095    1.7409 C   0  0  0  0  0  0  0  0  0  0  0  0
   -0.9301   -2.1950    1.2660 C   0  0  0  0  0  0  0  0  0  0  0  0
    0.1440   -1.4990    0.5595 N   0  0  0  0  0  0  0  0  0  0  0  0
    1.2202   -1.0593    1.3317 C   0  0  0  0  0  0  0  0  0  0  0  0
    1.2559   -1.1547    2.5569 O   0  0  0  0  0  0  0  0  0  0  0  0
    2.4040   -0.5185    0.5809 C   0  0  0  0  0  0  0  0  0  0  0  0
    3.1238    0.4728    1.1260 C   0  0  0  0  0  0  0  0  0  0  0  0
    4.2883    0.9915    0.4044 C   0  0  0  0  0  0  0  0  0  0  0  0
    5.0569    2.0343    0.9307 C   0  0  0  0  0  0  0  0  0  0  0  0
    6.1635    2.5153    0.2243 C   0  0  0  0  0  0  0  0  0  0  0  0
    6.5098    1.9595   -1.0088 C   0  0  0  0  0  0  0  0  0  0  0  0
    5.7512    0.9182   -1.5428 C   0  0  0  0  0  0  0  0  0  0  0  0
    4.6445    0.4380   -0.8359 C   0  0  0  0  0  0  0  0  0  0  0  0
    3.8266   -0.6730   -1.3882 C   0  0  0  0  0  0  0  0  0  0  0  0
    4.0868   -1.2000   -2.4633 O   0  0  0  0  0  0  0  0  0  0  0  0
    2.7547   -1.0749   -0.6270 N   0  0  0  0  0  0  0  0  0  0  0  0
   -0.3526   -0.7060   -0.5730 C   0  0  0  0  0  0  0  0  0  0  0  0
   -1.4610    0.2760   -0.1230 C   0  0  0  0  0  0  0  0  0  0  0  0
   -2.9908   -2.6512   -0.8612 H   0  0  0  0  0  0  0  0  0  0  0  0
   -4.4681   -2.0539   -1.6055 H   0  0  0  0  0  0  0  0  0  0  0  0
   -2.9323   -1.2837   -1.9885 H   0  0  0  0  0  0  0  0  0  0  0  0
   -4.3580   -1.3353    0.7161 H   0  0  0  0  0  0  0  0  0  0  0  0
   -4.3242    0.6277   -2.5700 H   0  0  0  0  0  0  0  0  0  0  0  0
   -6.5991    2.9994    0.5446 H   0  0  0  0  0  0  0  0  0  0  0  0
   -5.3088    0.9981    1.6600 H   0  0  0  0  0  0  0  0  0  0  0  0
   -1.5790   -0.5737    2.5230 H   0  0  0  0  0  0  0  0  0  0  0  0
   -2.8248   -1.7597    2.2336 H   0  0  0  0  0  0  0  0  0  0  0  0
   -1.3495   -2.9368    0.5796 H   0  0  0  0  0  0  0  0  0  0  0  0
   -0.5256   -2.7462    2.1224 H   0  0  0  0  0  0  0  0  0  0  0  0
    2.8677    0.8987    2.0911 H   0  0  0  0  0  0  0  0  0  0  0  0
    4.8062    2.4804    1.8905 H   0  0  0  0  0  0  0  0  0  0  0  0
    6.7590    3.3261    0.6383 H   0  0  0  0  0  0  0  0  0  0  0  0
    7.3725    2.3368   -1.5529 H   0  0  0  0  0  0  0  0  0  0  0  0
    6.0214    0.4827   -2.5021 H   0  0  0  0  0  0  0  0  0  0  0  0
    2.2130   -1.8548   -0.9808 H   0  0  0  0  0  0  0  0  0  0  0  0
    0.4442   -0.1250   -1.0423 H   0  0  0  0  0  0  0  0  0  0  0  0
   -0.7290   -1.4110   -1.3203 H   0  0  0  0  0  0  0  0  0  0  0  0
   -1.8569    0.8039   -0.9975 H   0  0  0  0  0  0  0  0  0  0  0  0
   -0.9841    1.0524    0.4904 H   0  0  0  0  0  0  0  0  0  0  0  0
  1  2  1  0
  2  3  1  0
  3  4  2  0
  4  5  1  0
  5  6  1  0
  6  7  2  0
  2  8  1  0
  8  9  1  0
  9 10  1  0
 10 11  1  0
 11 12  1  0
 12 13  2  0
 12 14  1  0
 14 15  2  0
 15 16  1  0
 16 17  2  0
 17 18  1  0
 18 19  2  0
 19 20  1  0
 20 21  2  0
 21 22  1  0
 22 23  2  0
 22 24  1  0
 11 25  1  0
 25 26  1  0
  7  3  1  0
 26  8  1  0
 24 14  1  0
 21 16  1  0
  1 27  1  0
  1 28  1  0
  1 29  1  0
  2 30  1  0
  4 31  1  0
  6 32  1  0
  7 33  1  0
  9 34  1  0
  9 35  1  0
 10 36  1  0
 10 37  1  0
 15 38  1  0
 17 39  1  0
 18 40  1  0
 19 41  1  0
 20 42  1  0
 24 43  1  0
 25 44  1  0
 25 45  1  0
 26 46  1  0
 26 47  1  0
M  END
$$$$
OCNT-2317028
     RDKit          3D

 43 45  0  0  0  0  0  0  0  0999 V2000
   -6.3526   -0.4742   -1.0107 C   0  0  0  0  0  0  0  0  0  0  0  0
   -6.0569    0.8118   -0.2728 C   0  0  0  0  0  0  0  0  0  0  0  0
   -4.7666    0.6947    0.9620 S   0  0  0  0  0  0  0  0  0  0  0  0
   -4.9855   -0.4690    1.7924 O   0  0  0  0  0  0  0  0  0  0  0  0
   -4.6411    2.0125    1.5512 O   0  0  0  0  0  0  0  0  0  0  0  0
   -3.3675    0.4223    0.0342 N   0  0  0  0  0  0  0  0  0  0  0  0
   -3.0994   -0.9943   -0.3831 C   0  0  0  0  0  0  0  0  0  0  0  0
   -1.8371   -1.5676    0.2691 C   0  0  0  0  0  0  0  0  0  0  0  0
   -0.6491   -0.7660   -0.0331 N   0  0  0  0  0  0  0  0  0  0  0  0
    0.5970   -1.3684    0.1259 C   0  0  0  0  0  0  0  0  0  0  0  0
    0.7057   -2.4953    0.6061 O   0  0  0  0  0  0  0  0  0  0  0  0
    1.7831   -0.6422   -0.2981 C   0  0  0  0  0  0  0  0  0  0  0  0
    3.0405   -0.7743    0.2621 C   0  0  0  0  0  0  0  0  0  0  0  0
    3.8997    0.0466   -0.4312 N   0  0  0  0  0  0  0  0  0  0  0  0
    5.2875    0.2530   -0.2088 C   0  0  0  0  0  0  0  0  0  0  0  0
    5.9907    1.1408   -1.0293 C   0  0  0  0  0  0  0  0  0  0  0  0
    7.3414    1.3246   -0.7901 C   0  0  0  0  0  0  0  0  0  0  0  0
    8.0214    0.6954    0.1913 N   0  0  0  0  0  0  0  0  0  0  0  0
    7.3210   -0.1573    0.9681 C   0  0  0  0  0  0  0  0  0  0  0  0
    5.9672   -0.4127    0.8136 C   0  0  0  0  0  0  0  0  0  0  0  0
    3.2497    0.6983   -1.4306 N   0  0  0  0  0  0  0  0  0  0  0  0
    1.9951    0.2527   -1.3626 C   0  0  0  0  0  0  0  0  0  0  0  0
   -0.8735    0.6796   -0.1624 C   0  0  0  0  0  0  0  0  0  0  0  0
   -2.1551    1.1415    0.5465 C   0  0  0  0  0  0  0  0  0  0  0  0
   -5.5283   -0.7536   -1.6716 H   0  0  0  0  0  0  0  0  0  0  0  0
   -7.2426   -0.3511   -1.6362 H   0  0  0  0  0  0  0  0  0  0  0  0
   -6.5363   -1.3023   -0.3197 H   0  0  0  0  0  0  0  0  0  0  0  0
   -6.9531    1.1372    0.2671 H   0  0  0  0  0  0  0  0  0  0  0  0
   -5.7778    1.6113   -0.9661 H   0  0  0  0  0  0  0  0  0  0  0  0
   -3.9440   -1.6505   -0.1566 H   0  0  0  0  0  0  0  0  0  0  0  0
   -2.9851   -0.9907   -1.4741 H   0  0  0  0  0  0  0  0  0  0  0  0
   -1.6774   -2.5961   -0.0738 H   0  0  0  0  0  0  0  0  0  0  0  0
   -1.9461   -1.5947    1.3603 H   0  0  0  0  0  0  0  0  0  0  0  0
    3.3653   -1.3901    1.0874 H   0  0  0  0  0  0  0  0  0  0  0  0
    5.5110    1.6823   -1.8387 H   0  0  0  0  0  0  0  0  0  0  0  0
    7.9299    2.0036   -1.4007 H   0  0  0  0  0  0  0  0  0  0  0  0
    7.8973   -0.6489    1.7473 H   0  0  0  0  0  0  0  0  0  0  0  0
    5.4919   -1.1153    1.4865 H   0  0  0  0  0  0  0  0  0  0  0  0
    1.2882    0.6001   -2.1046 H   0  0  0  0  0  0  0  0  0  0  0  0
   -0.9503    0.8938   -1.2344 H   0  0  0  0  0  0  0  0  0  0  0  0
   -0.0219    1.2316    0.2460 H   0  0  0  0  0  0  0  0  0  0  0  0
   -2.2825    2.2158    0.3751 H   0  0  0  0  0  0  0  0  0  0  0  0
   -2.0538    0.9650    1.6245 H   0  0  0  0  0  0  0  0  0  0  0  0
  1  2  1  0
  2  3  1  0
  3  4  2  0
  3  5  2  0
  3  6  1  0
  6  7  1  0
  7  8  1  0
  8  9  1  0
  9 10  1  0
 10 11  2  0
 10 12  1  0
 12 13  2  0
 13 14  1  0
 14 15  1  0
 15 16  2  0
 16 17  1  0
 17 18  2  0
 18 19  1  0
 19 20  2  0
 14 21  1  0
 21 22  2  0
  9 23  1  0
 23 24  1  0
 24  6  1  0
 22 12  1  0
 20 15  1  0
  1 25  1  0
  1 26  1  0
  1 27  1  0
  2 28  1  0
  2 29  1  0
  7 30  1  0
  7 31  1  0
  8 32  1  0
  8 33  1  0
 13 34  1  0
 16 35  1  0
 17 36  1  0
 19 37  1  0
 20 38  1  0
 22 39  1  0
 23 40  1  0
 23 41  1  0
 24 42  1  0
 24 43  1  0
M  END
$$$$
OCNT-2317040
     RDKit          3D

 40 42  0  0  0  0  0  0  0  0999 V2000
   -0.2727   -1.5454   -1.7574 O   0  0  0  0  0  0  0  0  0  0  0  0
    0.3936   -1.3829   -0.7411 C   0  0  0  0  0  0  0  0  0  0  0  0
    1.6009   -2.2596   -0.4618 C   0  0  0  0  0  0  0  0  0  0  0  0
    2.8821   -1.4762   -0.5595 C   0  0  0  0  0  0  0  0  0  0  0  0
    3.7480   -1.6491   -1.6320 C   0  0  0  0  0  0  0  0  0  0  0  0
    4.9120   -0.8901   -1.6810 C   0  0  0  0  0  0  0  0  0  0  0  0
    5.1788    0.0248   -0.6672 C   0  0  0  0  0  0  0  0  0  0  0  0
    4.2642    0.1674    0.3759 C   0  0  0  0  0  0  0  0  0  0  0  0
    4.5580    1.1631    1.4915 C   0  0  0  0  0  0  0  0  0  0  0  0
    5.3392    0.6339    2.4755 F   0  0  0  0  0  0  0  0  0  0  0  0
    5.2193    2.2743    1.0533 F   0  0  0  0  0  0  0  0  0  0  0  0
    3.4331    1.6256    2.1102 F   0  0  0  0  0  0  0  0  0  0  0  0
    3.1216   -0.5825    0.4375 N   0  0  0  0  0  0  0  0  0  0  0  0
    0.1977   -0.4275    0.2416 N   0  0  0  0  0  0  0  0  0  0  0  0
   -0.8286    0.5419    0.3310 C   0  0  0  0  0  0  0  0  0  0  0  0
   -0.4623    1.7622    0.9147 C   0  0  0  0  0  0  0  0  0  0  0  0
   -1.2793    2.8223    1.0969 N   0  0  0  0  0  0  0  0  0  0  0  0
   -2.5500    2.6593    0.6898 C   0  0  0  0  0  0  0  0  0  0  0  0
   -3.0505    1.4855    0.1267 C   0  0  0  0  0  0  0  0  0  0  0  0
   -2.1772    0.3832   -0.0402 C   0  0  0  0  0  0  0  0  0  0  0  0
   -2.7414   -0.9132   -0.5751 C   0  0  0  0  0  0  0  0  0  0  0  0
   -4.2551   -1.0454   -0.4049 C   0  0  0  0  0  0  0  0  0  0  0  0
   -4.9409    0.1866   -0.9731 C   0  0  0  0  0  0  0  0  0  0  0  0
   -4.5240    1.4251   -0.1894 C   0  0  0  0  0  0  0  0  0  0  0  0
    1.5976   -3.1020   -1.1631 H   0  0  0  0  0  0  0  0  0  0  0  0
    1.5056   -2.6877    0.5433 H   0  0  0  0  0  0  0  0  0  0  0  0
    3.5260   -2.3588   -2.4238 H   0  0  0  0  0  0  0  0  0  0  0  0
    5.6069   -1.0089   -2.5089 H   0  0  0  0  0  0  0  0  0  0  0  0
    6.0862    0.6228   -0.6979 H   0  0  0  0  0  0  0  0  0  0  0  0
    1.0550   -0.2048    0.7498 H   0  0  0  0  0  0  0  0  0  0  0  0
    0.5568    1.9379    1.2524 H   0  0  0  0  0  0  0  0  0  0  0  0
   -3.1913    3.5226    0.8506 H   0  0  0  0  0  0  0  0  0  0  0  0
   -2.5254   -0.9657   -1.6473 H   0  0  0  0  0  0  0  0  0  0  0  0
   -2.2763   -1.7671   -0.0710 H   0  0  0  0  0  0  0  0  0  0  0  0
   -4.6058   -1.9441   -0.9247 H   0  0  0  0  0  0  0  0  0  0  0  0
   -4.5104   -1.1627    0.6558 H   0  0  0  0  0  0  0  0  0  0  0  0
   -6.0298    0.0717   -0.9332 H   0  0  0  0  0  0  0  0  0  0  0  0
   -4.6701    0.3050   -2.0300 H   0  0  0  0  0  0  0  0  0  0  0  0
   -5.0717    1.4411    0.7618 H   0  0  0  0  0  0  0  0  0  0  0  0
   -4.8198    2.3175   -0.7540 H   0  0  0  0  0  0  0  0  0  0  0  0
  1  2  2  0
  2  3  1  0
  3  4  1  0
  4  5  2  0
  5  6  1  0
  6  7  2  0
  7  8  1  0
  8  9  1  0
  9 10  1  0
  9 11  1  0
  9 12  1  0
  8 13  2  0
  2 14  1  0
 14 15  1  0
 15 16  1  0
 16 17  2  0
 17 18  1  0
 18 19  2  0
 19 20  1  0
 20 21  1  0
 21 22  1  0
 22 23  1  0
 23 24  1  0
 13  4  1  0
 20 15  2  0
 24 19  1  0
  3 25  1  0
  3 26  1  0
  5 27  1  0
  6 28  1  0
  7 29  1  0
 14 30  1  0
 16 31  1  0
 18 32  1  0
 21 33  1  0
 21 34  1  0
 22 35  1  0
 22 36  1  0
 23 37  1  0
 23 38  1  0
 24 39  1  0
 24 40  1  0
M  END
$$$$
OCNT-2317064
     RDKit          3D

 49 52  0  0  0  0  0  0  0  0999 V2000
   -4.0426    2.5989    2.4943 C   0  0  0  0  0  0  0  0  0  0  0  0
   -4.6750    1.3246    2.4328 O   0  0  0  0  0  0  0  0  0  0  0  0
   -4.1603    0.5088    1.4421 C   0  0  0  0  0  0  0  0  0  0  0  0
   -4.7527   -0.7142    1.3027 C   0  0  0  0  0  0  0  0  0  0  0  0
   -4.2177   -1.4908    0.3150 C   0  0  0  0  0  0  0  0  0  0  0  0
   -4.7909   -2.7370    0.1415 O   0  0  0  0  0  0  0  0  0  0  0  0
   -4.1905   -3.4865   -0.9106 C   0  0  0  0  0  0  0  0  0  0  0  0
   -3.1945   -1.1097   -0.4672 N   0  0  0  0  0  0  0  0  0  0  0  0
   -2.6673    0.1049   -0.2583 C   0  0  0  0  0  0  0  0  0  0  0  0
   -1.6223    0.5431   -1.0708 N   0  0  0  0  0  0  0  0  0  0  0  0
   -0.9208   -0.4821   -1.8341 C   0  0  0  0  0  0  0  0  0  0  0  0
   -0.2001    0.1611   -3.0222 C   0  0  0  0  0  0  0  0  0  0  0  0
    0.3090    1.5814   -2.7564 C   0  0  0  0  0  0  0  0  0  0  0  0
    0.4889    1.8994   -1.2691 C   0  0  0  0  0  0  0  0  0  0  0  0
    1.6847    1.1980   -0.6777 C   0  0  0  0  0  0  0  0  0  0  0  0
    2.2757    0.1063   -1.1210 N   0  0  0  0  0  0  0  0  0  0  0  0
    3.3149   -0.1373   -0.2582 C   0  0  0  0  0  0  0  0  0  0  0  0
    3.3677    0.8294    0.7365 C   0  0  0  0  0  0  0  0  0  0  0  0
    4.3219    0.8299    1.7544 C   0  0  0  0  0  0  0  0  0  0  0  0
    5.2592   -0.2118    1.7376 C   0  0  0  0  0  0  0  0  0  0  0  0
    5.2484   -1.1995    0.7411 C   0  0  0  0  0  0  0  0  0  0  0  0
    6.2502   -2.3169    0.7657 C   0  0  0  0  0  0  0  0  0  0  0  0
    4.2617   -1.1720   -0.2610 C   0  0  0  0  0  0  0  0  0  0  0  0
    2.3265    1.6712    0.4443 N   0  0  0  0  0  0  0  0  0  0  0  0
   -0.8047    1.6073   -0.4774 C   0  0  0  0  0  0  0  0  0  0  0  0
   -3.1326    0.9367    0.6888 N   0  0  0  0  0  0  0  0  0  0  0  0
   -4.1741    3.1539    1.5590 H   0  0  0  0  0  0  0  0  0  0  0  0
   -4.5250    3.1723    3.2916 H   0  0  0  0  0  0  0  0  0  0  0  0
   -2.9814    2.5029    2.7493 H   0  0  0  0  0  0  0  0  0  0  0  0
   -5.5749   -1.0396    1.9204 H   0  0  0  0  0  0  0  0  0  0  0  0
   -4.3086   -2.9819   -1.8756 H   0  0  0  0  0  0  0  0  0  0  0  0
   -3.1352   -3.6924   -0.6990 H   0  0  0  0  0  0  0  0  0  0  0  0
   -4.7101   -4.4475   -0.9725 H   0  0  0  0  0  0  0  0  0  0  0  0
   -1.5972   -1.2411   -2.2460 H   0  0  0  0  0  0  0  0  0  0  0  0
   -0.2094   -1.0105   -1.1876 H   0  0  0  0  0  0  0  0  0  0  0  0
   -0.8772    0.1962   -3.8851 H   0  0  0  0  0  0  0  0  0  0  0  0
    0.6312   -0.4873   -3.3239 H   0  0  0  0  0  0  0  0  0  0  0  0
    1.2385    1.7500   -3.3142 H   0  0  0  0  0  0  0  0  0  0  0  0
   -0.4236    2.2883   -3.1691 H   0  0  0  0  0  0  0  0  0  0  0  0
    0.6955    2.9759   -1.1829 H   0  0  0  0  0  0  0  0  0  0  0  0
    4.3431    1.5922    2.5252 H   0  0  0  0  0  0  0  0  0  0  0  0
    6.0134   -0.2450    2.5224 H   0  0  0  0  0  0  0  0  0  0  0  0
    7.1430   -2.0348    1.3339 H   0  0  0  0  0  0  0  0  0  0  0  0
    5.8079   -3.2061    1.2262 H   0  0  0  0  0  0  0  0  0  0  0  0
    6.5764   -2.5650   -0.2501 H   0  0  0  0  0  0  0  0  0  0  0  0
    4.2192   -1.9296   -1.0358 H   0  0  0  0  0  0  0  0  0  0  0  0
    2.0743    2.4968    0.9672 H   0  0  0  0  0  0  0  0  0  0  0  0
   -0.5597    1.3800    0.5694 H   0  0  0  0  0  0  0  0  0  0  0  0
   -1.4030    2.5289   -0.4773 H   0  0  0  0  0  0  0  0  0  0  0  0
  1  2  1  0
  2  3  1  0
  3  4  2  0
  4  5  1  0
  5  6  1  0
  6  7  1  0
  5  8  2  0
  8  9  1  0
  9 10  1  0
 10 11  1  0
 11 12  1  0
 12 13  1  0
 13 14  1  0
 14 15  1  0
 15 16  2  0
 16 17  1  0
 17 18  1  0
 18 19  2  0
 19 20  1  0
 20 21  2  0
 21 22  1  0
 21 23  1  0
 18 24  1  0
 14 25  1  0
  9 26  2  0
 26  3  1  0
 25 10  1  0
 24 15  1  0
 23 17  2  0
  1 27  1  0
  1 28  1  0
  1 29  1  0
  4 30  1  0
  7 31  1  0
  7 32  1  0
  7 33  1  0
 11 34  1  0
 11 35  1  0
 12 36  1  0
 12 37  1  0
 13 38  1  0
 13 39  1  0
 14 40  1  0
 19 41  1  0
 20 42  1  0
 22 43  1  0
 22 44  1  0
 22 45  1  0
 23 46  1  0
 24 47  1  0
 25 48  1  0
 25 49  1  0
M  END
$$$$
OCNT-2317084
     RDKit          3D

 45 47  0  0  0  0  0  0  0  0999 V2000
    2.3187    0.0398    2.1937 C   0  0  0  0  0  0  0  0  0  0  0  0
    3.2382    0.3094    0.9842 C   0  0  0  0  0  0  0  0  0  0  0  0
    3.1009    1.7897    0.5865 C   0  0  0  0  0  0  0  0  0  0  0  0
    4.6862    0.0257    1.4224 C   0  0  0  0  0  0  0  0  0  0  0  0
    2.8233   -0.5864   -0.1803 C   0  0  0  0  0  0  0  0  0  0  0  0
    1.7173   -1.3054   -0.1993 N   0  0  0  0  0  0  0  0  0  0  0  0
    1.6115   -2.0230   -1.3824 C   0  0  0  0  0  0  0  0  0  0  0  0
    0.4158   -2.8988   -1.5689 C   0  0  0  0  0  0  0  0  0  0  0  0
   -0.8142   -2.0777   -1.9066 C   0  0  0  0  0  0  0  0  0  0  0  0
   -1.4775   -2.2617   -2.9242 O   0  0  0  0  0  0  0  0  0  0  0  0
   -1.1508   -1.1381   -0.9565 N   0  0  0  0  0  0  0  0  0  0  0  0
   -2.1877   -0.1658   -1.2179 C   0  0  0  0  0  0  0  0  0  0  0  0
   -2.2196    0.9002   -0.1642 C   0  0  0  0  0  0  0  0  0  0  0  0
   -1.2413    1.8456    0.1060 C   0  0  0  0  0  0  0  0  0  0  0  0
   -1.4593    2.7561    1.1397 C   0  0  0  0  0  0  0  0  0  0  0  0
   -2.6459    2.7164    1.8849 C   0  0  0  0  0  0  0  0  0  0  0  0
   -3.6281    1.7655    1.6018 C   0  0  0  0  0  0  0  0  0  0  0  0
   -3.4021    0.8640    0.5735 C   0  0  0  0  0  0  0  0  0  0  0  0
   -4.2976   -0.2521    0.1338 C   0  0  0  0  0  0  0  0  0  0  0  0
   -3.6245   -0.7677   -1.1540 C   0  0  0  0  0  0  0  0  0  0  0  0
   -4.3929   -0.3614   -2.2962 O   0  0  0  0  0  0  0  0  0  0  0  0
    2.6449   -1.8173   -2.2722 C   0  0  0  0  0  0  0  0  0  0  0  0
    3.7722   -0.7101   -1.6165 S   0  0  0  0  0  0  0  0  0  0  0  0
    1.2687    0.2518    1.9568 H   0  0  0  0  0  0  0  0  0  0  0  0
    2.3824   -1.0083    2.5066 H   0  0  0  0  0  0  0  0  0  0  0  0
    2.5931    0.6614    3.0527 H   0  0  0  0  0  0  0  0  0  0  0  0
    2.0736    2.0251    0.2894 H   0  0  0  0  0  0  0  0  0  0  0  0
    3.3695    2.4512    1.4187 H   0  0  0  0  0  0  0  0  0  0  0  0
    3.7542    2.0452   -0.2566 H   0  0  0  0  0  0  0  0  0  0  0  0
    4.9499    0.6057    2.3141 H   0  0  0  0  0  0  0  0  0  0  0  0
    4.8316   -1.0341    1.6585 H   0  0  0  0  0  0  0  0  0  0  0  0
    5.4080    0.2880    0.6408 H   0  0  0  0  0  0  0  0  0  0  0  0
    0.5856   -3.6294   -2.3676 H   0  0  0  0  0  0  0  0  0  0  0  0
    0.2140   -3.4590   -0.6478 H   0  0  0  0  0  0  0  0  0  0  0  0
   -0.4370   -0.9113   -0.2643 H   0  0  0  0  0  0  0  0  0  0  0  0
   -2.0008    0.2879   -2.1997 H   0  0  0  0  0  0  0  0  0  0  0  0
   -0.3207    1.8771   -0.4681 H   0  0  0  0  0  0  0  0  0  0  0  0
   -0.7047    3.5049    1.3609 H   0  0  0  0  0  0  0  0  0  0  0  0
   -2.8042    3.4355    2.6838 H   0  0  0  0  0  0  0  0  0  0  0  0
   -4.5529    1.7361    2.1719 H   0  0  0  0  0  0  0  0  0  0  0  0
   -4.3041   -1.0324    0.9030 H   0  0  0  0  0  0  0  0  0  0  0  0
   -5.3142    0.1044   -0.0500 H   0  0  0  0  0  0  0  0  0  0  0  0
   -3.6272   -1.8631   -1.1636 H   0  0  0  0  0  0  0  0  0  0  0  0
   -3.9371   -0.7380   -3.0728 H   0  0  0  0  0  0  0  0  0  0  0  0
    2.7847   -2.2460   -3.2539 H   0  0  0  0  0  0  0  0  0  0  0  0
  1  2  1  0
  2  3  1  0
  2  4  1  0
  2  5  1  0
  5  6  2  0
  6  7  1  0
  7  8  1  0
  8  9  1  0
  9 10  2  0
  9 11  1  0
 11 12  1  0
 12 13  1  0
 13 14  2  0
 14 15  1  0
 15 16  2  0
 16 17  1  0
 17 18  2  0
 18 19  1  0
 19 20  1  0
 20 21  1  0
  7 22  2  0
 22 23  1  0
 23  5  1  0
 20 12  1  0
 18 13  1  0
  1 24  1  0
  1 25  1  0
  1 26  1  0
  3 27  1  0
  3 28  1  0
  3 29  1  0
  4 30  1  0
  4 31  1  0
  4 32  1  0
  8 33  1  0
  8 34  1  0
 11 35  1  0
 12 36  1  0
 14 37  1  0
 15 38  1  0
 16 39  1  0
 17 40  1  0
 19 41  1  0
 19 42  1  0
 20 43  1  0
 21 44  1  0
 22 45  1  0
M  END
$$$$
OCNT-2317090
     RDKit          3D

 43 47  0  0  0  0  0  0  0  0999 V2000
    6.2107    1.1126    0.2610 C   0  0  0  0  0  0  0  0  0  0  0  0
    5.7408    1.7538   -0.8839 C   0  0  0  0  0  0  0  0  0  0  0  0
    4.4200    1.5679   -1.2921 C   0  0  0  0  0  0  0  0  0  0  0  0
    3.5712    0.7354   -0.5609 C   0  0  0  0  0  0  0  0  0  0  0  0
    2.2907    0.6269   -1.0240 O   0  0  0  0  0  0  0  0  0  0  0  0
    1.4357   -0.4023   -0.4665 C   0  0  0  0  0  0  0  0  0  0  0  0
    1.9153   -0.9718    0.8592 C   0  0  0  0  0  0  0  0  0  0  0  0
    3.1317   -0.7421    1.3614 C   0  0  0  0  0  0  0  0  0  0  0  0
    4.0346    0.0955    0.5904 C   0  0  0  0  0  0  0  0  0  0  0  0
    5.3592    0.2873    0.9991 C   0  0  0  0  0  0  0  0  0  0  0  0
    1.3360   -1.5148   -1.5338 C   0  0  0  0  0  0  0  0  0  0  0  0
    0.1886   -2.4901   -1.2733 C   0  0  0  0  0  0  0  0  0  0  0  0
   -1.1393   -1.7512   -1.1058 C   0  0  0  0  0  0  0  0  0  0  0  0
   -1.0171   -0.7570   -0.0250 N   0  0  0  0  0  0  0  0  0  0  0  0
   -2.2538   -0.1565    0.2978 C   0  0  0  0  0  0  0  0  0  0  0  0
   -2.3663    0.5713    1.4778 C   0  0  0  0  0  0  0  0  0  0  0  0
   -3.5856    1.1525    1.8098 C   0  0  0  0  0  0  0  0  0  0  0  0
   -4.6764    1.0007    0.9777 C   0  0  0  0  0  0  0  0  0  0  0  0
   -5.8571    1.5715    1.3091 N   0  0  0  0  0  0  0  0  0  0  0  0
   -6.8683    1.3690    0.4427 C   0  0  0  0  0  0  0  0  0  0  0  0
   -6.7012    0.6266   -0.7061 C   0  0  0  0  0  0  0  0  0  0  0  0
   -5.5207    0.0575   -1.0363 N   0  0  0  0  0  0  0  0  0  0  0  0
   -4.4914    0.2358   -0.1991 C   0  0  0  0  0  0  0  0  0  0  0  0
   -3.3171   -0.3216   -0.5138 N   0  0  0  0  0  0  0  0  0  0  0  0
    0.0371    0.2556   -0.2844 C   0  0  0  0  0  0  0  0  0  0  0  0
    7.2392    1.2575    0.5818 H   0  0  0  0  0  0  0  0  0  0  0  0
    6.4005    2.3996   -1.4574 H   0  0  0  0  0  0  0  0  0  0  0  0
    4.0508    2.0703   -2.1819 H   0  0  0  0  0  0  0  0  0  0  0  0
    1.2243   -1.6052    1.4104 H   0  0  0  0  0  0  0  0  0  0  0  0
    3.4554   -1.1664    2.3044 H   0  0  0  0  0  0  0  0  0  0  0  0
    5.7382   -0.2013    1.8932 H   0  0  0  0  0  0  0  0  0  0  0  0
    2.2830   -2.0659   -1.6017 H   0  0  0  0  0  0  0  0  0  0  0  0
    1.1963   -1.0564   -2.5227 H   0  0  0  0  0  0  0  0  0  0  0  0
    0.1119   -3.1962   -2.1079 H   0  0  0  0  0  0  0  0  0  0  0  0
    0.3990   -3.0835   -0.3756 H   0  0  0  0  0  0  0  0  0  0  0  0
   -1.9104   -2.4934   -0.8625 H   0  0  0  0  0  0  0  0  0  0  0  0
   -1.4116   -1.2697   -2.0547 H   0  0  0  0  0  0  0  0  0  0  0  0
   -1.5208    0.6699    2.1507 H   0  0  0  0  0  0  0  0  0  0  0  0
   -3.6863    1.7214    2.7291 H   0  0  0  0  0  0  0  0  0  0  0  0
   -7.8193    1.8214    0.6985 H   0  0  0  0  0  0  0  0  0  0  0  0
   -7.5159    0.4642   -1.4026 H   0  0  0  0  0  0  0  0  0  0  0  0
   -0.2176    0.8330   -1.1855 H   0  0  0  0  0  0  0  0  0  0  0  0
    0.1062    0.9883    0.5308 H   0  0  0  0  0  0  0  0  0  0  0  0
  1  2  2  0
  2  3  1  0
  3  4  2  0
  4  5  1  0
  5  6  1  0
  6  7  1  0
  7  8  2  0
  8  9  1  0
  9 10  2  0
  6 11  1  0
 11 12  1  0
 12 13  1  0
 13 14  1  0
 14 15  1  0
 15 16  2  0
 16 17  1  0
 17 18  2  0
 18 19  1  0
 19 20  2  0
 20 21  1  0
 21 22  2  0
 22 23  1  0
 23 24  2  0
 14 25  1  0
 10  1  1  0
 24 15  1  0
  9  4  1  0
 23 18  1  0
 25  6  1  0
  1 26  1  0
  2 27  1  0
  3 28  1  0
  7 29  1  0
  8 30  1  0
 10 31  1  0
 11 32  1  0
 11 33  1  0
 12 34  1  0
 12 35  1  0
 13 36  1  0
 13 37  1  0
 16 38  1  0
 17 39  1  0
 20 40  1  0
 21 41  1  0
 25 42  1  0
 25 43  1  0
M  END
$$$$
OCNT-2317099
     RDKit          3D

 56 58  0  0  0  0  0  0  0  0999 V2000
    7.1098   -0.2983   -2.4232 C   0  0  0  0  0  0  0  0  0  0  0  0
    6.8738    0.9348   -1.7552 O   0  0  0  0  0  0  0  0  0  0  0  0
    6.0571    0.8996   -0.6580 C   0  0  0  0  0  0  0  0  0  0  0  0
    5.9126    2.1240   -0.0011 C   0  0  0  0  0  0  0  0  0  0  0  0
    5.1046    2.2339    1.1304 C   0  0  0  0  0  0  0  0  0  0  0  0
    4.4334    1.1135    1.6147 C   0  0  0  0  0  0  0  0  0  0  0  0
    4.5714   -0.1257    0.9739 C   0  0  0  0  0  0  0  0  0  0  0  0
    3.8145   -1.3228    1.4862 C   0  0  0  0  0  0  0  0  0  0  0  0
    2.4612   -1.3035    0.9860 N   0  0  0  0  0  0  0  0  0  0  0  0
    1.3775   -1.5646    1.8005 C   0  0  0  0  0  0  0  0  0  0  0  0
    1.4863   -1.8969    2.9795 O   0  0  0  0  0  0  0  0  0  0  0  0
    0.0208   -1.4048    1.1017 C   0  0  0  0  0  0  0  0  0  0  0  0
   -0.5462   -0.0785    1.3495 N   0  0  0  0  0  0  0  0  0  0  0  0
    0.1643    1.0301    0.7234 C   0  0  0  0  0  0  0  0  0  0  0  0
   -0.7583    2.1924    1.0231 C   0  0  0  0  0  0  0  0  0  0  0  0
   -2.1545    1.6022    0.8886 C   0  0  0  0  0  0  0  0  0  0  0  0
   -1.9768    0.0791    1.0078 C   0  0  0  0  0  0  0  0  0  0  0  0
   -2.4758   -0.6669   -0.2683 C   0  0  0  0  0  0  0  0  0  0  0  0
   -3.8751   -0.3924   -0.6624 N   0  0  0  0  0  0  0  0  0  0  0  0
   -4.1482   -0.9888   -1.9805 C   0  0  0  0  0  0  0  0  0  0  0  0
   -5.5619   -0.6585   -2.4596 C   0  0  0  0  0  0  0  0  0  0  0  0
   -6.6043   -1.1244   -1.4511 C   0  0  0  0  0  0  0  0  0  0  0  0
   -6.2777   -0.5753   -0.0681 C   0  0  0  0  0  0  0  0  0  0  0  0
   -4.8354   -0.8868    0.3385 C   0  0  0  0  0  0  0  0  0  0  0  0
    5.3819   -0.2220   -0.1709 C   0  0  0  0  0  0  0  0  0  0  0  0
    7.5803   -1.0270   -1.7550 H   0  0  0  0  0  0  0  0  0  0  0  0
    6.1849   -0.6950   -2.8542 H   0  0  0  0  0  0  0  0  0  0  0  0
    7.8042   -0.1050   -3.2463 H   0  0  0  0  0  0  0  0  0  0  0  0
    6.4377    3.0006   -0.3746 H   0  0  0  0  0  0  0  0  0  0  0  0
    5.0000    3.1923    1.6329 H   0  0  0  0  0  0  0  0  0  0  0  0
    3.7986    1.2066    2.4948 H   0  0  0  0  0  0  0  0  0  0  0  0
    4.2784   -2.2515    1.1363 H   0  0  0  0  0  0  0  0  0  0  0  0
    3.8354   -1.3439    2.5815 H   0  0  0  0  0  0  0  0  0  0  0  0
    2.3054   -0.9661    0.0469 H   0  0  0  0  0  0  0  0  0  0  0  0
   -0.6290   -2.1812    1.5229 H   0  0  0  0  0  0  0  0  0  0  0  0
    0.1285   -1.6148    0.0313 H   0  0  0  0  0  0  0  0  0  0  0  0
    1.1533    1.2023    1.1575 H   0  0  0  0  0  0  0  0  0  0  0  0
    0.2716    0.8878   -0.3589 H   0  0  0  0  0  0  0  0  0  0  0  0
   -0.6000    3.0361    0.3455 H   0  0  0  0  0  0  0  0  0  0  0  0
   -0.6035    2.5502    2.0488 H   0  0  0  0  0  0  0  0  0  0  0  0
   -2.5858    1.8988   -0.0720 H   0  0  0  0  0  0  0  0  0  0  0  0
   -2.8067    1.9892    1.6803 H   0  0  0  0  0  0  0  0  0  0  0  0
   -2.5489   -0.2852    1.8691 H   0  0  0  0  0  0  0  0  0  0  0  0
   -1.8200   -0.3713   -1.0986 H   0  0  0  0  0  0  0  0  0  0  0  0
   -2.3452   -1.7490   -0.1338 H   0  0  0  0  0  0  0  0  0  0  0  0
   -3.4414   -0.5969   -2.7209 H   0  0  0  0  0  0  0  0  0  0  0  0
   -4.0165   -2.0771   -1.9464 H   0  0  0  0  0  0  0  0  0  0  0  0
   -5.6556    0.4245   -2.6111 H   0  0  0  0  0  0  0  0  0  0  0  0
   -5.7464   -1.1326   -3.4300 H   0  0  0  0  0  0  0  0  0  0  0  0
   -7.6023   -0.7961   -1.7608 H   0  0  0  0  0  0  0  0  0  0  0  0
   -6.6197   -2.2214   -1.4237 H   0  0  0  0  0  0  0  0  0  0  0  0
   -6.9702   -0.9940    0.6703 H   0  0  0  0  0  0  0  0  0  0  0  0
   -6.4288    0.5117   -0.0657 H   0  0  0  0  0  0  0  0  0  0  0  0
   -4.7196   -1.9687    0.4867 H   0  0  0  0  0  0  0  0  0  0  0  0
   -4.6633   -0.4035    1.3058 H   0  0  0  0  0  0  0  0  0  0  0  0
    5.4696   -1.1850   -0.6639 H   0  0  0  0  0  0  0  0  0  0  0  0
  1  2  1  0
  2  3  1  0
  3  4  1  0
  4  5  2  0
  5  6  1  0
  6  7  2  0
  7  8  1  0
  8  9  1  0
  9 10  1  0
 10 11  2  0
 10 12  1  0
 12 13  1  0
 13 14  1  0
 14 15  1  0
 15 16  1  0
 16 17  1  0
 17 18  1  0
 18 19  1  0
 19 20  1  0
 20 21  1  0
 21 22  1  0
 22 23  1  0
 23 24  1  0
  7 25  1  0
 25  3  2  0
 17 13  1  0
 24 19  1  0
  1 26  1  0
  1 27  1  0
  1 28  1  0
  4 29  1  0
  5 30  1  0
  6 31  1  0
  8 32  1  0
  8 33  1  0
  9 34  1  0
 12 35  1  0
 12 36  1  0
 14 37  1  0
 14 38  1  0
 15 39  1  0
 15 40  1  0
 16 41  1  0
 16 42  1  0
 17 43  1  0
 18 44  1  0
 18 45  1  0
 20 46  1  0
 20 47  1  0
 21 48  1  0
 21 49  1  0
 22 50  1  0
 22 51  1  0
 23 52  1  0
 23 53  1  0
 24 54  1  0
 24 55  1  0
 25 56  1  0
M  END
$$$$
OCNT-2317105
     RDKit          3D

 41 43  0  0  0  0  0  0  0  0999 V2000
    2.9498   -0.3181   -2.2388 C   0  0  0  0  0  0  0  0  0  0  0  0
    2.9265    0.2328   -0.8153 C   0  0  0  0  0  0  0  0  0  0  0  0
    1.4866    0.5039   -0.3884 C   0  0  0  0  0  0  0  0  0  0  0  0
    0.9252    1.5710   -0.6469 O   0  0  0  0  0  0  0  0  0  0  0  0
    0.7983   -0.5236    0.2351 N   0  0  0  0  0  0  0  0  0  0  0  0
    1.3517   -1.7848    0.7104 C   0  0  0  0  0  0  0  0  0  0  0  0
    0.1545   -2.5582    1.2375 C   0  0  0  0  0  0  0  0  0  0  0  0
   -0.7655   -1.4522    1.7378 C   0  0  0  0  0  0  0  0  0  0  0  0
   -0.5862   -0.3378    0.6965 C   0  0  0  0  0  0  0  0  0  0  0  0
   -1.5823   -0.4335   -0.4786 C   0  0  0  0  0  0  0  0  0  0  0  0
   -2.9974   -0.0741   -0.0933 C   0  0  0  0  0  0  0  0  0  0  0  0
   -3.3378    1.2587    0.1772 C   0  0  0  0  0  0  0  0  0  0  0  0
   -4.6422    1.5965    0.5399 C   0  0  0  0  0  0  0  0  0  0  0  0
   -5.6188    0.6071    0.6334 C   0  0  0  0  0  0  0  0  0  0  0  0
   -5.2925   -0.7204    0.3619 C   0  0  0  0  0  0  0  0  0  0  0  0
   -3.9884   -1.0605   -0.0015 C   0  0  0  0  0  0  0  0  0  0  0  0
    3.7701    1.4126   -0.6795 N   0  0  0  0  0  0  0  0  0  0  0  0
    3.6237    2.6474   -1.2354 C   0  0  0  0  0  0  0  0  0  0  0  0
    4.6627    3.3932   -0.9359 N   0  0  0  0  0  0  0  0  0  0  0  0
    5.4337    2.5576   -0.1829 C   0  0  0  0  0  0  0  0  0  0  0  0
    4.9406    1.3289   -0.0076 N   0  0  0  0  0  0  0  0  0  0  0  0
    2.5228    0.3966   -2.9517 H   0  0  0  0  0  0  0  0  0  0  0  0
    3.9746   -0.5364   -2.5585 H   0  0  0  0  0  0  0  0  0  0  0  0
    2.3654   -1.2411   -2.3135 H   0  0  0  0  0  0  0  0  0  0  0  0
    3.3690   -0.5125   -0.1459 H   0  0  0  0  0  0  0  0  0  0  0  0
    2.0635   -1.5610    1.5126 H   0  0  0  0  0  0  0  0  0  0  0  0
    1.8694   -2.3130   -0.0946 H   0  0  0  0  0  0  0  0  0  0  0  0
   -0.3297   -3.1102    0.4235 H   0  0  0  0  0  0  0  0  0  0  0  0
    0.4277   -3.2723    2.0191 H   0  0  0  0  0  0  0  0  0  0  0  0
   -1.7969   -1.7885    1.8675 H   0  0  0  0  0  0  0  0  0  0  0  0
   -0.4057   -1.1009    2.7134 H   0  0  0  0  0  0  0  0  0  0  0  0
   -0.6672    0.6438    1.1792 H   0  0  0  0  0  0  0  0  0  0  0  0
   -1.2773    0.2381   -1.2916 H   0  0  0  0  0  0  0  0  0  0  0  0
   -1.5556   -1.4388   -0.9186 H   0  0  0  0  0  0  0  0  0  0  0  0
   -2.5867    2.0434    0.1013 H   0  0  0  0  0  0  0  0  0  0  0  0
   -4.8961    2.6331    0.7463 H   0  0  0  0  0  0  0  0  0  0  0  0
   -6.6348    0.8714    0.9144 H   0  0  0  0  0  0  0  0  0  0  0  0
   -6.0555   -1.4912    0.4312 H   0  0  0  0  0  0  0  0  0  0  0  0
   -3.7526   -2.1011   -0.2116 H   0  0  0  0  0  0  0  0  0  0  0  0
    2.7697    2.9431   -1.8302 H   0  0  0  0  0  0  0  0  0  0  0  0
    6.3837    2.8512    0.2449 H   0  0  0  0  0  0  0  0  0  0  0  0
  1  2  1  0
  2  3  1  0
  3  4  2  0
  3  5  1  0
  5  6  1  0
  6  7  1  0
  7  8  1  0
  8  9  1  0
  9 10  1  0
 10 11  1  0
 11 12  2  0
 12 13  1  0
 13 14  2  0
 14 15  1  0
 15 16  2  0
  2 17  1  0
 17 18  1  0
 18 19  2  0
 19 20  1  0
 20 21  2  0
  9  5  1  0
 16 11  1  0
 21 17  1  0
  1 22  1  0
  1 23  1  0
  1 24  1  0
  2 25  1  0
  6 26  1  0
  6 27  1  0
  7 28  1  0
  7 29  1  0
  8 30  1  0
  8 31  1  0
  9 32  1  0
 10 33  1  0
 10 34  1  0
 12 35  1  0
 13 36  1  0
 14 37  1  0
 15 38  1  0
 16 39  1  0
 18 40  1  0
 20 41  1  0
M  END
$$$$
OCNT-2317109
     RDKit          3D

 43 45  0  0  0  0  0  0  0  0999 V2000
    6.5658   -1.1179   -0.0611 C   0  0  0  0  0  0  0  0  0  0  0  0
    5.2519   -1.8207   -0.4052 C   0  0  0  0  0  0  0  0  0  0  0  0
    5.0379   -3.0430    0.4888 C   0  0  0  0  0  0  0  0  0  0  0  0
    4.0836   -0.8602   -0.2943 C   0  0  0  0  0  0  0  0  0  0  0  0
    3.3245   -0.5411   -1.4195 C   0  0  0  0  0  0  0  0  0  0  0  0
    2.2548    0.3470   -1.2914 C   0  0  0  0  0  0  0  0  0  0  0  0
    1.9641    0.8928   -0.0410 C   0  0  0  0  0  0  0  0  0  0  0  0
    0.8537    1.8438    0.2014 C   0  0  0  0  0  0  0  0  0  0  0  0
    0.8900    2.5923    1.1714 O   0  0  0  0  0  0  0  0  0  0  0  0
   -0.2005    1.8060   -0.6881 N   0  0  0  0  0  0  0  0  0  0  0  0
   -1.3840    2.6115   -0.4819 C   0  0  0  0  0  0  0  0  0  0  0  0
   -2.4573    1.8199    0.2183 C   0  0  0  0  0  0  0  0  0  0  0  0
   -2.4232    1.6634    1.6057 C   0  0  0  0  0  0  0  0  0  0  0  0
   -3.4096    0.9084    2.2121 C   0  0  0  0  0  0  0  0  0  0  0  0
   -4.4113    0.3058    1.5374 N   0  0  0  0  0  0  0  0  0  0  0  0
   -4.4416    0.4541    0.1876 C   0  0  0  0  0  0  0  0  0  0  0  0
   -5.5014   -0.1913   -0.5100 N   0  0  0  0  0  0  0  0  0  0  0  0
   -6.4941   -0.9570    0.0657 C   0  0  0  0  0  0  0  0  0  0  0  0
   -7.2923   -1.3843   -0.9668 C   0  0  0  0  0  0  0  0  0  0  0  0
   -6.8307   -0.9097   -2.1634 N   0  0  0  0  0  0  0  0  0  0  0  0
   -5.7648   -0.1997   -1.8609 C   0  0  0  0  0  0  0  0  0  0  0  0
   -3.4847    1.1968   -0.5038 C   0  0  0  0  0  0  0  0  0  0  0  0
    2.7807    0.5377    1.0231 C   0  0  0  0  0  0  0  0  0  0  0  0
    3.8216   -0.3273    0.9240 N   0  0  0  0  0  0  0  0  0  0  0  0
    6.5787   -0.7655    0.9765 H   0  0  0  0  0  0  0  0  0  0  0  0
    7.4141   -1.7978   -0.1944 H   0  0  0  0  0  0  0  0  0  0  0  0
    6.7265   -0.2492   -0.7093 H   0  0  0  0  0  0  0  0  0  0  0  0
    5.3258   -2.1766   -1.4409 H   0  0  0  0  0  0  0  0  0  0  0  0
    4.9926   -2.7687    1.5488 H   0  0  0  0  0  0  0  0  0  0  0  0
    5.8554   -3.7611    0.3635 H   0  0  0  0  0  0  0  0  0  0  0  0
    4.1013   -3.5528    0.2369 H   0  0  0  0  0  0  0  0  0  0  0  0
    3.5623   -0.9680   -2.3892 H   0  0  0  0  0  0  0  0  0  0  0  0
    1.6872    0.6163   -2.1758 H   0  0  0  0  0  0  0  0  0  0  0  0
   -0.2819    1.0245   -1.3222 H   0  0  0  0  0  0  0  0  0  0  0  0
   -1.1444    3.5159    0.0889 H   0  0  0  0  0  0  0  0  0  0  0  0
   -1.7310    2.9354   -1.4694 H   0  0  0  0  0  0  0  0  0  0  0  0
   -1.6374    2.1174    2.2039 H   0  0  0  0  0  0  0  0  0  0  0  0
   -3.4190    0.7619    3.2887 H   0  0  0  0  0  0  0  0  0  0  0  0
   -6.5368   -1.1226    1.1333 H   0  0  0  0  0  0  0  0  0  0  0  0
   -8.1747   -2.0087   -0.9089 H   0  0  0  0  0  0  0  0  0  0  0  0
   -5.1609    0.3210   -2.5895 H   0  0  0  0  0  0  0  0  0  0  0  0
   -3.5102    1.3086   -1.5813 H   0  0  0  0  0  0  0  0  0  0  0  0
    2.6192    0.9421    2.0196 H   0  0  0  0  0  0  0  0  0  0  0  0
  1  2  1  0
  2  3  1  0
  2  4  1  0
  4  5  2  0
  5  6  1  0
  6  7  2  0
  7  8  1  0
  8  9  2  0
  8 10  1  0
 10 11  1  0
 11 12  1  0
 12 13  2  0
 13 14  1  0
 14 15  2  0
 15 16  1  0
 16 17  1  0
 17 18  1  0
 18 19  2  0
 19 20  1  0
 20 21  2  0
 16 22  2  0
  7 23  1  0
 23 24  2  0
 24  4  1  0
 22 12  1  0
 21 17  1  0
  1 25  1  0
  1 26  1  0
  1 27  1  0
  2 28  1  0
  3 29  1  0
  3 30  1  0
  3 31  1  0
  5 32  1  0
  6 33  1  0
 10 34  1  0
 11 35  1  0
 11 36  1  0
 13 37  1  0
 14 38  1  0
 18 39  1  0
 19 40  1  0
 21 41  1  0
 22 42  1  0
 23 43  1  0
M  END
$$$$
OCNT-2317112
     RDKit          3D

 42 43  0  0  0  0  0  0  0  0999 V2000
    4.7554   -0.0444   -2.8473 C   0  0  0  0  0  0  0  0  0  0  0  0
    3.6478    0.2226   -1.9959 O   0  0  0  0  0  0  0  0  0  0  0  0
    3.4254   -0.6574   -0.9734 C   0  0  0  0  0  0  0  0  0  0  0  0
    4.1043   -1.8513   -0.7595 C   0  0  0  0  0  0  0  0  0  0  0  0
    3.7665   -2.6601    0.3290 C   0  0  0  0  0  0  0  0  0  0  0  0
    2.7483   -2.2818    1.2118 C   0  0  0  0  0  0  0  0  0  0  0  0
    2.3660   -3.4786    2.6379 Br  0  0  0  0  0  0  0  0  0  0  0  0
    2.0528   -1.0793    1.0168 C   0  0  0  0  0  0  0  0  0  0  0  0
    0.9478   -0.5810    1.9210 C   0  0  0  0  0  0  0  0  0  0  0  0
   -0.3646   -0.6108    1.2674 N   0  0  0  0  0  0  0  0  0  0  0  0
   -1.0047   -1.9175    1.1617 C   0  0  0  0  0  0  0  0  0  0  0  0
   -0.9616    0.6070    0.9411 C   0  0  0  0  0  0  0  0  0  0  0  0
   -0.3655    1.6749    1.1065 O   0  0  0  0  0  0  0  0  0  0  0  0
   -2.3649    0.5717    0.2868 C   0  0  2  0  0  0  0  0  0  0  0  0
   -2.2031    0.3218   -1.2232 C   0  0  0  0  0  0  0  0  0  0  0  0
   -3.1361    1.3292   -1.8873 C   0  0  0  0  0  0  0  0  0  0  0  0
   -3.1339    2.5004   -0.9235 C   0  0  0  0  0  0  0  0  0  0  0  0
   -3.0556    1.8626    0.3709 N   0  0  0  0  0  0  0  0  0  0  0  0
   -3.5312    2.4734    1.4926 C   0  0  0  0  0  0  0  0  0  0  0  0
   -3.4473    1.7563    2.6400 N   0  0  0  0  0  0  0  0  0  0  0  0
   -4.0212    3.5962    1.5172 O   0  0  0  0  0  0  0  0  0  0  0  0
    2.4083   -0.2836   -0.0897 C   0  0  0  0  0  0  0  0  0  0  0  0
    4.5793   -0.9446   -3.4448 H   0  0  0  0  0  0  0  0  0  0  0  0
    5.6882   -0.1220   -2.2792 H   0  0  0  0  0  0  0  0  0  0  0  0
    4.8573    0.7991   -3.5366 H   0  0  0  0  0  0  0  0  0  0  0  0
    4.8970   -2.1859   -1.4199 H   0  0  0  0  0  0  0  0  0  0  0  0
    4.3095   -3.5896    0.4816 H   0  0  0  0  0  0  0  0  0  0  0  0
    0.8655   -1.1498    2.8514 H   0  0  0  0  0  0  0  0  0  0  0  0
    1.2082    0.4351    2.2384 H   0  0  0  0  0  0  0  0  0  0  0  0
   -0.2919   -2.6507    0.7755 H   0  0  0  0  0  0  0  0  0  0  0  0
   -1.3362   -2.2207    2.1631 H   0  0  0  0  0  0  0  0  0  0  0  0
   -1.8623   -1.9111    0.4932 H   0  0  0  0  0  0  0  0  0  0  0  0
   -3.0076   -0.1713    0.7662 H   0  0  0  0  0  0  0  0  0  0  0  0
   -2.4584   -0.7068   -1.4991 H   0  0  0  0  0  0  0  0  0  0  0  0
   -1.1719    0.5010   -1.5532 H   0  0  0  0  0  0  0  0  0  0  0  0
   -2.8124    1.6090   -2.8930 H   0  0  0  0  0  0  0  0  0  0  0  0
   -4.1440    0.9036   -1.9570 H   0  0  0  0  0  0  0  0  0  0  0  0
   -4.0232    3.1305   -1.0157 H   0  0  0  0  0  0  0  0  0  0  0  0
   -2.2395    3.1203   -1.0512 H   0  0  0  0  0  0  0  0  0  0  0  0
   -3.8766    2.2428    3.4161 H   0  0  0  0  0  0  0  0  0  0  0  0
   -3.6980    0.7835    2.5871 H   0  0  0  0  0  0  0  0  0  0  0  0
    1.8840    0.6571   -0.2655 H   0  0  0  0  0  0  0  0  0  0  0  0
  1  2  1  0
  2  3  1  0
  3  4  1  0
  4  5  2  0
  5  6  1  0
  6  7  1  0
  6  8  2  0
  8  9  1  0
  9 10  1  0
 10 11  1  0
 10 12  1  0
 12 13  2  0
 12 14  1  0
 14 15  1  0
 15 16  1  0
 16 17  1  0
 17 18  1  0
 18 19  1  0
 19 20  1  0
 19 21  2  0
  8 22  1  0
 22  3  2  0
 18 14  1  0
  1 23  1  0
  1 24  1  0
  1 25  1  0
  4 26  1  0
  5 27  1  0
  9 28  1  0
  9 29  1  0
 11 30  1  0
 11 31  1  0
 11 32  1  0
 14 33  1  1
 15 34  1  0
 15 35  1  0
 16 36  1  0
 16 37  1  0
 17 38  1  0
 17 39  1  0
 20 40  1  0
 20 41  1  0
 22 42  1  0
M  END
$$$$
OCNT-2317130
     RDKit          3D

 46 49  0  0  0  0  0  0  0  0999 V2000
    2.2497    2.0944    1.6310 C   0  0  0  0  0  0  0  0  0  0  0  0
    3.2891    1.5100    0.6732 C   0  0  1  0  0  0  0  0  0  0  0  0
    2.9706    0.0595    0.2674 C   0  0  0  0  0  0  0  0  0  0  0  0
    2.4069   -0.0684   -1.1562 C   0  0  1  0  0  0  0  0  0  0  0  0
    1.6915   -1.4034   -1.3449 C   0  0  0  0  0  0  0  0  0  0  0  0
    2.2227   -2.2797   -2.0238 O   0  0  0  0  0  0  0  0  0  0  0  0
    0.4869   -1.5200   -0.6820 N   0  0  0  0  0  0  0  0  0  0  0  0
   -0.3179   -2.6793   -0.5245 C   0  0  0  0  0  0  0  0  0  0  0  0
    0.1765   -3.9544   -0.8511 C   0  0  0  0  0  0  0  0  0  0  0  0
   -0.5930   -5.0990   -0.6489 C   0  0  0  0  0  0  0  0  0  0  0  0
   -1.8590   -4.9766   -0.1099 C   0  0  0  0  0  0  0  0  0  0  0  0
   -2.5978   -6.0734    0.1003 F   0  0  0  0  0  0  0  0  0  0  0  0
   -2.3789   -3.7303    0.2201 C   0  0  0  0  0  0  0  0  0  0  0  0
   -1.6320   -2.5516    0.0122 C   0  0  0  0  0  0  0  0  0  0  0  0
   -2.2151   -1.2168    0.3259 C   0  0  0  0  0  0  0  0  0  0  0  0
   -1.5158   -0.0949    0.3800 N   0  0  0  0  0  0  0  0  0  0  0  0
   -2.3443    0.9875    0.6483 C   0  0  0  0  0  0  0  0  0  0  0  0
   -1.9431    2.3340    0.7647 C   0  0  0  0  0  0  0  0  0  0  0  0
   -2.8912    3.3249    1.0415 C   0  0  0  0  0  0  0  0  0  0  0  0
   -4.2325    2.9921    1.1990 C   0  0  0  0  0  0  0  0  0  0  0  0
   -4.6576    1.6660    1.0828 C   0  0  0  0  0  0  0  0  0  0  0  0
   -3.6947    0.6805    0.8056 C   0  0  0  0  0  0  0  0  0  0  0  0
   -3.9081   -1.0077    0.5987 S   0  0  0  0  0  0  0  0  0  0  0  0
    1.5603    1.1464   -1.5218 C   0  0  0  0  0  0  0  0  0  0  0  0
    2.3787    2.4351   -1.4172 C   0  0  0  0  0  0  0  0  0  0  0  0
    3.5088    2.3781   -0.4868 N   0  0  0  0  0  0  0  0  0  0  0  0
    2.2157    1.5116    2.5578 H   0  0  0  0  0  0  0  0  0  0  0  0
    2.5030    3.1249    1.9007 H   0  0  0  0  0  0  0  0  0  0  0  0
    1.2451    2.0934    1.2054 H   0  0  0  0  0  0  0  0  0  0  0  0
    4.2315    1.4902    1.2364 H   0  0  0  0  0  0  0  0  0  0  0  0
    3.8938   -0.5330    0.3116 H   0  0  0  0  0  0  0  0  0  0  0  0
    2.2963   -0.3960    1.0027 H   0  0  0  0  0  0  0  0  0  0  0  0
    3.2575   -0.0885   -1.8540 H   0  0  0  0  0  0  0  0  0  0  0  0
    0.0762   -0.6701   -0.2951 H   0  0  0  0  0  0  0  0  0  0  0  0
    1.1764   -4.0943   -1.2504 H   0  0  0  0  0  0  0  0  0  0  0  0
   -0.2012   -6.0799   -0.8993 H   0  0  0  0  0  0  0  0  0  0  0  0
   -3.3779   -3.7162    0.6444 H   0  0  0  0  0  0  0  0  0  0  0  0
   -0.8998    2.6016    0.6367 H   0  0  0  0  0  0  0  0  0  0  0  0
   -2.5744    4.3615    1.1319 H   0  0  0  0  0  0  0  0  0  0  0  0
   -4.9608    3.7719    1.4130 H   0  0  0  0  0  0  0  0  0  0  0  0
   -5.7060    1.4069    1.2019 H   0  0  0  0  0  0  0  0  0  0  0  0
    1.1550    1.0429   -2.5361 H   0  0  0  0  0  0  0  0  0  0  0  0
    0.6944    1.2254   -0.8573 H   0  0  0  0  0  0  0  0  0  0  0  0
    2.7703    2.6959   -2.4083 H   0  0  0  0  0  0  0  0  0  0  0  0
    1.7158    3.2611   -1.1337 H   0  0  0  0  0  0  0  0  0  0  0  0
    4.3288    2.0379   -0.9917 H   0  0  0  0  0  0  0  0  0  0  0  0
  1  2  1  0
  2  3  1  0
  3  4  1  0
  4  5  1  0
  5  6  2  0
  5  7  1  0
  7  8  1  0
  8  9  1  0
  9 10  2  0
 10 11  1  0
 11 12  1  0
 11 13  2  0
 13 14  1  0
 14 15  1  0
 15 16  2  0
 16 17  1  0
 17 18  2  0
 18 19  1  0
 19 20  2  0
 20 21  1  0
 21 22  2  0
 22 23  1  0
  4 24  1  0
 24 25  1  0
 25 26  1  0
 26  2  1  0
 14  8  2  0
 23 15  1  0
 22 17  1  0
  1 27  1  0
  1 28  1  0
  1 29  1  0
  2 30  1  1
  3 31  1  0
  3 32  1  0
  4 33  1  6
  7 34  1  0
  9 35  1  0
 10 36  1  0
 13 37  1  0
 18 38  1  0
 19 39  1  0
 20 40  1  0
 21 41  1  0
 24 42  1  0
 24 43  1  0
 25 44  1  0
 25 45  1  0
 26 46  1  0
M  END
$$$$
OCNT-2317145
     RDKit          3D

 55 59  0  0  0  0  0  0  0  0999 V2000
   -3.8092    2.2893    0.4723 C   0  0  0  0  0  0  0  0  0  0  0  0
   -3.2131    1.4931   -0.6895 C   0  0  0  0  0  0  0  0  0  0  0  0
   -1.8655    1.0542   -0.3125 N   0  0  0  0  0  0  0  0  0  0  0  0
   -0.9611    0.6584   -1.2672 C   0  0  0  0  0  0  0  0  0  0  0  0
   -1.2033    0.7442   -2.4690 O   0  0  0  0  0  0  0  0  0  0  0  0
    0.2166    0.1329   -0.7623 N   0  0  0  0  0  0  0  0  0  0  0  0
    1.1696   -0.4640   -1.6928 C   0  0  0  0  0  0  0  0  0  0  0  0
    2.4203    0.4010   -1.8226 C   0  0  0  0  0  0  0  0  0  0  0  0
    3.0525    0.6828   -0.4453 C   0  0  0  0  0  0  0  0  0  0  0  0
    4.1773    1.6838   -0.6181 C   0  0  0  0  0  0  0  0  0  0  0  0
    5.4564    1.4173   -0.3381 C   0  0  0  0  0  0  0  0  0  0  0  0
    5.7807    0.0954    0.1706 C   0  0  0  0  0  0  0  0  0  0  0  0
    7.1030   -0.2560    0.4669 C   0  0  0  0  0  0  0  0  0  0  0  0
    7.3989   -1.5229    0.9758 C   0  0  0  0  0  0  0  0  0  0  0  0
    6.3773   -2.4448    1.1843 C   0  0  0  0  0  0  0  0  0  0  0  0
    5.0599   -2.0998    0.8821 C   0  0  0  0  0  0  0  0  0  0  0  0
    4.7624   -0.8337    0.3759 C   0  0  0  0  0  0  0  0  0  0  0  0
    3.4449   -0.5899    0.1174 O   0  0  0  0  0  0  0  0  0  0  0  0
    1.9892    1.2714    0.5032 C   0  0  0  0  0  0  0  0  0  0  0  0
    0.7507    0.3774    0.5783 C   0  0  0  0  0  0  0  0  0  0  0  0
   -4.0847    0.3102   -1.1914 C   0  0  0  0  0  0  0  0  0  0  0  0
   -5.5013    0.7353   -1.6112 C   0  0  0  0  0  0  0  0  0  0  0  0
   -6.4151    0.4881   -0.5141 O   0  0  0  0  0  0  0  0  0  0  0  0
   -5.7914   -0.5046    0.1976 C   0  0  0  0  0  0  0  0  0  0  0  0
   -6.4007   -1.2599    1.1749 C   0  0  0  0  0  0  0  0  0  0  0  0
   -5.6421   -2.2518    1.7999 C   0  0  0  0  0  0  0  0  0  0  0  0
   -4.2999   -2.4567    1.4424 C   0  0  0  0  0  0  0  0  0  0  0  0
   -3.6976   -1.6676    0.4601 C   0  0  0  0  0  0  0  0  0  0  0  0
   -4.4601   -0.6847   -0.1476 C   0  0  0  0  0  0  0  0  0  0  0  0
   -3.8782    1.6870    1.3851 H   0  0  0  0  0  0  0  0  0  0  0  0
   -3.1721    3.1497    0.7084 H   0  0  0  0  0  0  0  0  0  0  0  0
   -4.8037    2.6734    0.2318 H   0  0  0  0  0  0  0  0  0  0  0  0
   -3.0933    2.1870   -1.5319 H   0  0  0  0  0  0  0  0  0  0  0  0
   -1.8218    0.5155    0.5391 H   0  0  0  0  0  0  0  0  0  0  0  0
    0.7201   -0.6060   -2.6812 H   0  0  0  0  0  0  0  0  0  0  0  0
    1.4222   -1.4619   -1.3143 H   0  0  0  0  0  0  0  0  0  0  0  0
    3.1363   -0.1195   -2.4701 H   0  0  0  0  0  0  0  0  0  0  0  0
    2.1526    1.3435   -2.3188 H   0  0  0  0  0  0  0  0  0  0  0  0
    3.9170    2.6652   -1.0074 H   0  0  0  0  0  0  0  0  0  0  0  0
    6.2419    2.1496   -0.4825 H   0  0  0  0  0  0  0  0  0  0  0  0
    7.9119    0.4503    0.3068 H   0  0  0  0  0  0  0  0  0  0  0  0
    8.4276   -1.7879    1.2079 H   0  0  0  0  0  0  0  0  0  0  0  0
    6.6040   -3.4293    1.5803 H   0  0  0  0  0  0  0  0  0  0  0  0
    4.2614   -2.8166    1.0408 H   0  0  0  0  0  0  0  0  0  0  0  0
    1.6874    2.2704    0.1604 H   0  0  0  0  0  0  0  0  0  0  0  0
    2.4015    1.3813    1.5146 H   0  0  0  0  0  0  0  0  0  0  0  0
    0.9918   -0.5955    1.0213 H   0  0  0  0  0  0  0  0  0  0  0  0
    0.0178    0.8602    1.2287 H   0  0  0  0  0  0  0  0  0  0  0  0
   -3.5980   -0.1868   -2.0387 H   0  0  0  0  0  0  0  0  0  0  0  0
   -5.8496    0.1353   -2.4635 H   0  0  0  0  0  0  0  0  0  0  0  0
   -5.5628    1.7879   -1.9075 H   0  0  0  0  0  0  0  0  0  0  0  0
   -7.4400   -1.0974    1.4346 H   0  0  0  0  0  0  0  0  0  0  0  0
   -6.0968   -2.8793    2.5612 H   0  0  0  0  0  0  0  0  0  0  0  0
   -3.7281   -3.2410    1.9312 H   0  0  0  0  0  0  0  0  0  0  0  0
   -2.6636   -1.8334    0.1763 H   0  0  0  0  0  0  0  0  0  0  0  0
  1  2  1  0
  2  3  1  0
  3  4  1  0
  4  5  2  0
  4  6  1  0
  6  7  1  0
  7  8  1  0
  8  9  1  0
  9 10  1  0
 10 11  2  0
 11 12  1  0
 12 13  2  0
 13 14  1  0
 14 15  2  0
 15 16  1  0
 16 17  2  0
 17 18  1  0
  9 19  1  0
 19 20  1  0
  2 21  1  0
 21 22  1  0
 22 23  1  0
 23 24  1  0
 24 25  2  0
 25 26  1  0
 26 27  2  0
 27 28  1  0
 28 29  2  0
 20  6  1  0
 29 21  1  0
 18  9  1  0
 29 24  1  0
 17 12  1  0
  1 30  1  0
  1 31  1  0
  1 32  1  0
  2 33  1  0
  3 34  1  0
  7 35  1  0
  7 36  1  0
  8 37  1  0
  8 38  1  0
 10 39  1  0
 11 40  1  0
 13 41  1  0
 14 42  1  0
 15 43  1  0
 16 44  1  0
 19 45  1  0
 19 46  1  0
 20 47  1  0
 20 48  1  0
 21 49  1  0
 22 50  1  0
 22 51  1  0
 25 52  1  0
 26 53  1  0
 27 54  1  0
 28 55  1  0
M  END
$$$$
OCNT-2317158
     RDKit          3D

 47 49  0  0  0  0  0  0  0  0999 V2000
    3.8656   -1.3724   -1.2156 C   0  0  0  0  0  0  0  0  0  0  0  0
    3.5177   -0.4879   -0.1045 N   0  0  0  0  0  0  0  0  0  0  0  0
    4.2728    0.7029   -0.0533 C   0  0  0  0  0  0  0  0  0  0  0  0
    5.6607    0.6724   -0.1845 C   0  0  0  0  0  0  0  0  0  0  0  0
    6.4033    1.8503   -0.1237 C   0  0  0  0  0  0  0  0  0  0  0  0
    5.7307    3.0343    0.0739 C   0  0  0  0  0  0  0  0  0  0  0  0
    4.3979    3.0737    0.2124 N   0  0  0  0  0  0  0  0  0  0  0  0
    3.6778    1.8991    0.1561 N   0  0  0  0  0  0  0  0  0  0  0  0
    2.0867   -0.3356    0.2630 C   0  0  0  0  0  0  0  0  0  0  0  0
    1.2101    0.1614   -0.8994 C   0  0  0  0  0  0  0  0  0  0  0  0
   -0.2107   -0.4136   -0.8551 C   0  0  0  0  0  0  0  0  0  0  0  0
   -0.6851   -0.4854    0.5269 N   0  0  0  0  0  0  0  0  0  0  0  0
   -2.1273   -0.7564    0.6406 C   0  0  0  0  0  0  0  0  0  0  0  0
   -2.9781    0.4714    0.2869 C   0  0  0  0  0  0  0  0  0  0  0  0
   -4.4697    0.1833    0.4824 C   0  0  0  0  0  0  0  0  0  0  0  0
   -4.7409   -0.1330    1.8680 O   0  0  0  0  0  0  0  0  0  0  0  0
   -5.4086    1.2698   -0.1224 C   0  0  0  0  0  0  0  0  0  0  0  0
   -6.3231    0.1294   -0.6053 C   0  0  0  0  0  0  0  0  0  0  0  0
   -5.0997   -0.8030   -0.5444 C   0  0  0  0  0  0  0  0  0  0  0  0
    0.0886   -1.4637    1.3125 C   0  0  0  0  0  0  0  0  0  0  0  0
    1.5355   -1.6447    0.8386 C   0  0  0  0  0  0  0  0  0  0  0  0
    3.9255   -0.8250   -2.1638 H   0  0  0  0  0  0  0  0  0  0  0  0
    4.8231   -1.8719   -1.0339 H   0  0  0  0  0  0  0  0  0  0  0  0
    3.1293   -2.1700   -1.3495 H   0  0  0  0  0  0  0  0  0  0  0  0
    6.1856   -0.2680   -0.3065 H   0  0  0  0  0  0  0  0  0  0  0  0
    7.4824    1.8337   -0.2194 H   0  0  0  0  0  0  0  0  0  0  0  0
    6.2406    3.9878    0.1335 H   0  0  0  0  0  0  0  0  0  0  0  0
    2.0071    0.3886    1.0875 H   0  0  0  0  0  0  0  0  0  0  0  0
    1.6453   -0.0751   -1.8765 H   0  0  0  0  0  0  0  0  0  0  0  0
    1.1578    1.2570   -0.8528 H   0  0  0  0  0  0  0  0  0  0  0  0
   -0.2355   -1.4053   -1.3258 H   0  0  0  0  0  0  0  0  0  0  0  0
   -0.8422    0.2362   -1.4696 H   0  0  0  0  0  0  0  0  0  0  0  0
   -2.3559   -1.0303    1.6788 H   0  0  0  0  0  0  0  0  0  0  0  0
   -2.4099   -1.6183    0.0230 H   0  0  0  0  0  0  0  0  0  0  0  0
   -2.7988    0.7744   -0.7505 H   0  0  0  0  0  0  0  0  0  0  0  0
   -2.6832    1.3194    0.9181 H   0  0  0  0  0  0  0  0  0  0  0  0
   -4.5164    0.6752    2.3621 H   0  0  0  0  0  0  0  0  0  0  0  0
   -5.8680    1.9568    0.5941 H   0  0  0  0  0  0  0  0  0  0  0  0
   -4.9677    1.8562   -0.9370 H   0  0  0  0  0  0  0  0  0  0  0  0
   -7.1120   -0.1336    0.1087 H   0  0  0  0  0  0  0  0  0  0  0  0
   -6.7689    0.2642   -1.5939 H   0  0  0  0  0  0  0  0  0  0  0  0
   -4.5574   -0.8818   -1.4939 H   0  0  0  0  0  0  0  0  0  0  0  0
   -5.3060   -1.8108   -0.1730 H   0  0  0  0  0  0  0  0  0  0  0  0
   -0.3889   -2.4525    1.2990 H   0  0  0  0  0  0  0  0  0  0  0  0
    0.0940   -1.1278    2.3566 H   0  0  0  0  0  0  0  0  0  0  0  0
    1.5590   -2.4400    0.0843 H   0  0  0  0  0  0  0  0  0  0  0  0
    2.1570   -1.9912    1.6732 H   0  0  0  0  0  0  0  0  0  0  0  0
  1  2  1  0
  2  3  1  0
  3  4  2  0
  4  5  1  0
  5  6  2  0
  6  7  1  0
  7  8  2  0
  2  9  1  0
  9 10  1  0
 10 11  1  0
 11 12  1  0
 12 13  1  0
 13 14  1  0
 14 15  1  0
 15 16  1  0
 15 17  1  0
 17 18  1  0
 18 19  1  0
 12 20  1  0
 20 21  1  0
  8  3  1  0
 21  9  1  0
 19 15  1  0
  1 22  1  0
  1 23  1  0
  1 24  1  0
  4 25  1  0
  5 26  1  0
  6 27  1  0
  9 28  1  0
 10 29  1  0
 10 30  1  0
 11 31  1  0
 11 32  1  0
 13 33  1  0
 13 34  1  0
 14 35  1  0
 14 36  1  0
 16 37  1  0
 17 38  1  0
 17 39  1  0
 18 40  1  0
 18 41  1  0
 19 42  1  0
 19 43  1  0
 20 44  1  0
 20 45  1  0
 21 46  1  0
 21 47  1  0
M  END
$$$$
OCNT-2317163
     RDKit          3D

 48 50  0  0  0  0  0  0  0  0999 V2000
    6.7591    1.2678   -0.2985 C   0  0  0  0  0  0  0  0  0  0  0  0
    6.0140    0.3684   -1.6333 S   0  0  0  0  0  0  0  0  0  0  0  0
    5.9782    1.2405   -2.7917 O   0  0  0  0  0  0  0  0  0  0  0  0
    6.6293   -0.9417   -1.7030 O   0  0  0  0  0  0  0  0  0  0  0  0
    4.3384    0.1321   -1.0882 C   0  0  0  0  0  0  0  0  0  0  0  0
    3.3169    0.9156   -1.6177 C   0  0  0  0  0  0  0  0  0  0  0  0
    1.9946    0.7042   -1.2068 C   0  0  0  0  0  0  0  0  0  0  0  0
    1.6538   -0.3021   -0.2887 C   0  0  0  0  0  0  0  0  0  0  0  0
    0.3428   -0.4961    0.1621 N   0  0  0  0  0  0  0  0  0  0  0  0
   -0.8155    0.1219   -0.4955 C   0  0  0  0  0  0  0  0  0  0  0  0
   -1.1010    1.5137    0.0617 C   0  0  0  0  0  0  0  0  0  0  0  0
   -2.5649    1.7444   -0.3033 C   0  0  0  0  0  0  0  0  0  0  0  0
   -3.1639    0.4166   -0.2339 N   0  0  0  0  0  0  0  0  0  0  0  0
   -4.5143    0.1667   -0.2782 C   0  0  0  0  0  0  0  0  0  0  0  0
   -5.0360   -1.1247   -0.0987 C   0  0  0  0  0  0  0  0  0  0  0  0
   -6.4117   -1.3857   -0.1422 C   0  0  0  0  0  0  0  0  0  0  0  0
   -7.3103   -0.3511   -0.3677 C   0  0  0  0  0  0  0  0  0  0  0  0
   -6.8294    0.9393   -0.5474 C   0  0  0  0  0  0  0  0  0  0  0  0
   -5.4515    1.1885   -0.5014 C   0  0  0  0  0  0  0  0  0  0  0  0
   -2.1347   -0.6211   -0.1670 C   0  0  0  0  0  0  0  0  0  0  0  0
    2.7227   -1.0467    0.2596 C   0  0  0  0  0  0  0  0  0  0  0  0
    2.4070   -2.2872    1.5033 S   0  0  0  0  0  0  0  0  0  0  0  0
    2.0824   -1.3388    2.9678 C   0  0  0  0  0  0  0  0  0  0  0  0
    3.6403   -3.0197    1.7227 O   0  0  0  0  0  0  0  0  0  0  0  0
    1.1898   -2.9826    1.1205 O   0  0  0  0  0  0  0  0  0  0  0  0
    4.0520   -0.8596   -0.1535 C   0  0  0  0  0  0  0  0  0  0  0  0
    6.7177    0.6630    0.6092 H   0  0  0  0  0  0  0  0  0  0  0  0
    6.2248    2.2101   -0.1624 H   0  0  0  0  0  0  0  0  0  0  0  0
    7.7998    1.4664   -0.5637 H   0  0  0  0  0  0  0  0  0  0  0  0
    3.5281    1.6856   -2.3579 H   0  0  0  0  0  0  0  0  0  0  0  0
    1.2347    1.3413   -1.6503 H   0  0  0  0  0  0  0  0  0  0  0  0
    0.1771   -1.4989    0.3392 H   0  0  0  0  0  0  0  0  0  0  0  0
   -0.7015    0.1449   -1.5871 H   0  0  0  0  0  0  0  0  0  0  0  0
   -0.9800    1.5263    1.1529 H   0  0  0  0  0  0  0  0  0  0  0  0
   -0.4527    2.2917   -0.3507 H   0  0  0  0  0  0  0  0  0  0  0  0
   -2.6477    2.1427   -1.3211 H   0  0  0  0  0  0  0  0  0  0  0  0
   -3.0208    2.4496    0.3999 H   0  0  0  0  0  0  0  0  0  0  0  0
   -4.3751   -1.9656    0.0911 H   0  0  0  0  0  0  0  0  0  0  0  0
   -6.7735   -2.3999    0.0035 H   0  0  0  0  0  0  0  0  0  0  0  0
   -8.3776   -0.5491   -0.4022 H   0  0  0  0  0  0  0  0  0  0  0  0
   -7.5208    1.7584   -0.7253 H   0  0  0  0  0  0  0  0  0  0  0  0
   -5.1248    2.2129   -0.6544 H   0  0  0  0  0  0  0  0  0  0  0  0
   -2.2970   -1.4208   -0.8986 H   0  0  0  0  0  0  0  0  0  0  0  0
   -2.1078   -1.0589    0.8383 H   0  0  0  0  0  0  0  0  0  0  0  0
    1.9137   -2.0375    3.7902 H   0  0  0  0  0  0  0  0  0  0  0  0
    2.9515   -0.7151    3.1859 H   0  0  0  0  0  0  0  0  0  0  0  0
    1.1926   -0.7256    2.8201 H   0  0  0  0  0  0  0  0  0  0  0  0
    4.8513   -1.4839    0.2432 H   0  0  0  0  0  0  0  0  0  0  0  0
  1  2  1  0
  2  3  2  0
  2  4  2  0
  2  5  1  0
  5  6  1  0
  6  7  2  0
  7  8  1  0
  8  9  1  0
  9 10  1  0
 10 11  1  0
 11 12  1  0
 12 13  1  0
 13 14  1  0
 14 15  2  0
 15 16  1  0
 16 17  2  0
 17 18  1  0
 18 19  2  0
 13 20  1  0
  8 21  2  0
 21 22  1  0
 22 23  1  0
 22 24  2  0
 22 25  2  0
 21 26  1  0
 26  5  2  0
 20 10  1  0
 19 14  1  0
  1 27  1  0
  1 28  1  0
  1 29  1  0
  6 30  1  0
  7 31  1  0
  9 32  1  0
 10 33  1  0
 11 34  1  0
 11 35  1  0
 12 36  1  0
 12 37  1  0
 15 38  1  0
 16 39  1  0
 17 40  1  0
 18 41  1  0
 19 42  1  0
 20 43  1  0
 20 44  1  0
 23 45  1  0
 23 46  1  0
 23 47  1  0
 26 48  1  0
M  END
$$$$
OCNT-2317169
     RDKit          3D

 54 57  0  0  0  0  0  0  0  0999 V2000
   -0.4533   -3.0174    0.5551 O   0  0  0  0  0  0  0  0  0  0  0  0
   -0.6746   -1.9215    1.0642 C   0  0  0  0  0  0  0  0  0  0  0  0
    0.1384   -0.8368    0.8493 N   0  0  0  0  0  0  0  0  0  0  0  0
    1.2706   -0.9305   -0.0626 C   0  0  0  0  0  0  0  0  0  0  0  0
    0.8199   -0.8958   -1.5261 C   0  0  0  0  0  0  0  0  0  0  0  0
    2.0310   -0.8829   -2.4446 C   0  0  0  0  0  0  0  0  0  0  0  0
    2.8856    0.2178   -2.1355 O   0  0  0  0  0  0  0  0  0  0  0  0
    3.4085    0.1473   -0.8036 C   0  0  0  0  0  0  0  0  0  0  0  0
    4.3777    1.2821   -0.5744 C   0  0  0  0  0  0  0  0  0  0  0  0
    5.4239    1.1565    0.3472 C   0  0  0  0  0  0  0  0  0  0  0  0
    6.2882    2.2252    0.5671 C   0  0  0  0  0  0  0  0  0  0  0  0
    6.0751    3.3975   -0.1391 C   0  0  0  0  0  0  0  0  0  0  0  0
    5.0756    3.5640   -1.0296 N   0  0  0  0  0  0  0  0  0  0  0  0
    4.2548    2.5049   -1.2287 C   0  0  0  0  0  0  0  0  0  0  0  0
    2.2629    0.1995    0.2104 C   0  0  0  0  0  0  0  0  0  0  0  0
   -1.7711   -1.6714    1.8763 N   0  0  0  0  0  0  0  0  0  0  0  0
   -2.8606   -2.6396    1.8468 C   0  0  0  0  0  0  0  0  0  0  0  0
   -3.6575   -2.6068    0.5349 C   0  0  0  0  0  0  0  0  0  0  0  0
   -4.5031   -1.3479    0.3195 C   0  0  0  0  0  0  0  0  0  0  0  0
   -3.7269   -0.1071   -0.0751 C   0  0  0  0  0  0  0  0  0  0  0  0
   -3.6139    0.2049   -1.4411 C   0  0  0  0  0  0  0  0  0  0  0  0
   -2.9268    1.3426   -1.8651 C   0  0  0  0  0  0  0  0  0  0  0  0
   -2.3359    2.1863   -0.9316 C   0  0  0  0  0  0  0  0  0  0  0  0
   -2.4240    1.8880    0.4261 C   0  0  0  0  0  0  0  0  0  0  0  0
   -3.1125    0.7440    0.8691 C   0  0  0  0  0  0  0  0  0  0  0  0
   -3.1047    0.4196    2.3443 C   0  0  0  0  0  0  0  0  0  0  0  0
   -1.9340   -0.4902    2.7349 C   0  0  0  0  0  0  0  0  0  0  0  0
   -0.3885    0.0224    0.7788 H   0  0  0  0  0  0  0  0  0  0  0  0
    1.7708   -1.8894    0.1283 H   0  0  0  0  0  0  0  0  0  0  0  0
    0.1774   -1.7508   -1.7638 H   0  0  0  0  0  0  0  0  0  0  0  0
    0.2257    0.0111   -1.6985 H   0  0  0  0  0  0  0  0  0  0  0  0
    2.5980   -1.8187   -2.3745 H   0  0  0  0  0  0  0  0  0  0  0  0
    1.7075   -0.7706   -3.4843 H   0  0  0  0  0  0  0  0  0  0  0  0
    3.9596   -0.7986   -0.7107 H   0  0  0  0  0  0  0  0  0  0  0  0
    5.5699    0.2295    0.8957 H   0  0  0  0  0  0  0  0  0  0  0  0
    7.1071    2.1474    1.2728 H   0  0  0  0  0  0  0  0  0  0  0  0
    6.7223    4.2590   -0.0043 H   0  0  0  0  0  0  0  0  0  0  0  0
    3.4647    2.6765   -1.9562 H   0  0  0  0  0  0  0  0  0  0  0  0
    2.6441    0.1276    1.2369 H   0  0  0  0  0  0  0  0  0  0  0  0
    1.7391    1.1631    0.1366 H   0  0  0  0  0  0  0  0  0  0  0  0
   -3.5205   -2.4800    2.7070 H   0  0  0  0  0  0  0  0  0  0  0  0
   -2.4254   -3.6397    1.9653 H   0  0  0  0  0  0  0  0  0  0  0  0
   -4.3424   -3.4639    0.5534 H   0  0  0  0  0  0  0  0  0  0  0  0
   -2.9934   -2.7604   -0.3237 H   0  0  0  0  0  0  0  0  0  0  0  0
   -5.1311   -1.1473    1.1937 H   0  0  0  0  0  0  0  0  0  0  0  0
   -5.2236   -1.5643   -0.4811 H   0  0  0  0  0  0  0  0  0  0  0  0
   -4.0688   -0.4411   -2.1898 H   0  0  0  0  0  0  0  0  0  0  0  0
   -2.8595    1.5711   -2.9267 H   0  0  0  0  0  0  0  0  0  0  0  0
   -1.8044    3.0752   -1.2624 H   0  0  0  0  0  0  0  0  0  0  0  0
   -1.9467    2.5546    1.1418 H   0  0  0  0  0  0  0  0  0  0  0  0
   -4.0561   -0.0328    2.6420 H   0  0  0  0  0  0  0  0  0  0  0  0
   -3.0474    1.3472    2.9289 H   0  0  0  0  0  0  0  0  0  0  0  0
   -1.0082    0.0934    2.7616 H   0  0  0  0  0  0  0  0  0  0  0  0
   -2.0838   -0.8532    3.7593 H   0  0  0  0  0  0  0  0  0  0  0  0
  1  2  2  0
  2  3  1  0
  3  4  1  0
  4  5  1  0
  5  6  1  0
  6  7  1  0
  7  8  1  0
  8  9  1  0
  9 10  1  0
 10 11  2  0
 11 12  1  0
 12 13  2  0
 13 14  1  0
  8 15  1  0
  2 16  1  0
 16 17  1  0
 17 18  1  0
 18 19  1  0
 19 20  1  0
 20 21  2  0
 21 22  1  0
 22 23  2  0
 23 24  1  0
 24 25  2  0
 25 26  1  0
 26 27  1  0
 15  4  1  0
 27 16  1  0
 14  9  2  0
 25 20  1  0
  3 28  1  0
  4 29  1  0
  5 30  1  0
  5 31  1  0
  6 32  1  0
  6 33  1  0
  8 34  1  0
 10 35  1  0
 11 36  1  0
 12 37  1  0
 14 38  1  0
 15 39  1  0
 15 40  1  0
 17 41  1  0
 17 42  1  0
 18 43  1  0
 18 44  1  0
 19 45  1  0
 19 46  1  0
 21 47  1  0
 22 48  1  0
 23 49  1  0
 24 50  1  0
 26 51  1  0
 26 52  1  0
 27 53  1  0
 27 54  1  0
M  END
$$$$
OCNT-2317170
     RDKit          3D

 50 53  0  0  0  0  0  0  0  0999 V2000
   -5.6948   -2.0661    1.1338 C   0  0  0  0  0  0  0  0  0  0  0  0
   -4.9706   -0.8778    0.7396 N   0  0  0  0  0  0  0  0  0  0  0  0
   -3.6648   -0.8615    0.3239 C   0  0  0  0  0  0  0  0  0  0  0  0
   -3.3064    0.4483    0.0380 C   0  0  0  0  0  0  0  0  0  0  0  0
   -2.0026    0.9276   -0.4281 C   0  0  0  0  0  0  0  0  0  0  0  0
   -1.7064    2.1179   -0.4592 O   0  0  0  0  0  0  0  0  0  0  0  0
   -1.1338   -0.0618   -0.8476 N   0  0  0  0  0  0  0  0  0  0  0  0
    0.1271    0.2620   -1.4836 C   0  0  0  0  0  0  0  0  0  0  0  0
    1.1913   -0.8105   -1.2117 C   0  0  0  0  0  0  0  0  0  0  0  0
    1.6158   -0.8350    0.2677 C   0  0  0  0  0  0  0  0  0  0  0  0
    2.8659    0.0047    0.5265 C   0  0  0  0  0  0  0  0  0  0  0  0
    3.9881   -0.4981   -0.2738 N   0  0  0  0  0  0  0  0  0  0  0  0
    5.2990   -0.3338    0.1551 C   0  0  0  0  0  0  0  0  0  0  0  0
    6.3383   -1.1483   -0.3085 C   0  0  0  0  0  0  0  0  0  0  0  0
    7.6353   -0.9511    0.1500 C   0  0  0  0  0  0  0  0  0  0  0  0
    7.9847    0.0002    1.0355 N   0  0  0  0  0  0  0  0  0  0  0  0
    6.9843    0.7839    1.4787 C   0  0  0  0  0  0  0  0  0  0  0  0
    5.6598    0.6543    1.0784 C   0  0  0  0  0  0  0  0  0  0  0  0
    3.6903   -1.1514   -1.5517 C   0  0  0  0  0  0  0  0  0  0  0  0
    2.3971   -0.5923   -2.1411 C   0  0  0  0  0  0  0  0  0  0  0  0
   -4.4691    1.2499    0.3104 C   0  0  0  0  0  0  0  0  0  0  0  0
   -4.7460    2.6326    0.2249 C   0  0  0  0  0  0  0  0  0  0  0  0
   -6.0155    3.1134    0.5599 C   0  0  0  0  0  0  0  0  0  0  0  0
   -7.0130    2.2398    0.9775 C   0  0  0  0  0  0  0  0  0  0  0  0
   -6.7703    0.8673    1.0740 C   0  0  0  0  0  0  0  0  0  0  0  0
   -5.4913    0.3958    0.7365 C   0  0  0  0  0  0  0  0  0  0  0  0
   -6.0028   -1.9532    2.1764 H   0  0  0  0  0  0  0  0  0  0  0  0
   -5.0466   -2.9400    1.0344 H   0  0  0  0  0  0  0  0  0  0  0  0
   -6.5655   -2.1739    0.4818 H   0  0  0  0  0  0  0  0  0  0  0  0
   -3.0954   -1.7807    0.2824 H   0  0  0  0  0  0  0  0  0  0  0  0
   -1.5317   -0.9715   -1.0272 H   0  0  0  0  0  0  0  0  0  0  0  0
   -0.0796    0.3311   -2.5578 H   0  0  0  0  0  0  0  0  0  0  0  0
    0.4748    1.2465   -1.1509 H   0  0  0  0  0  0  0  0  0  0  0  0
    0.7532   -1.7918   -1.4407 H   0  0  0  0  0  0  0  0  0  0  0  0
    1.8309   -1.8746    0.5500 H   0  0  0  0  0  0  0  0  0  0  0  0
    0.8037   -0.5046    0.9248 H   0  0  0  0  0  0  0  0  0  0  0  0
    3.0883   -0.0619    1.5982 H   0  0  0  0  0  0  0  0  0  0  0  0
    2.6782    1.0575    0.2844 H   0  0  0  0  0  0  0  0  0  0  0  0
    6.1571   -1.9576   -1.0055 H   0  0  0  0  0  0  0  0  0  0  0  0
    8.4487   -1.5819   -0.1961 H   0  0  0  0  0  0  0  0  0  0  0  0
    7.2772    1.5526    2.1878 H   0  0  0  0  0  0  0  0  0  0  0  0
    4.9322    1.3501    1.4788 H   0  0  0  0  0  0  0  0  0  0  0  0
    3.6066   -2.2349   -1.4047 H   0  0  0  0  0  0  0  0  0  0  0  0
    4.4871   -0.9698   -2.2833 H   0  0  0  0  0  0  0  0  0  0  0  0
    2.1981   -1.0589   -3.1133 H   0  0  0  0  0  0  0  0  0  0  0  0
    2.5359    0.4806   -2.3343 H   0  0  0  0  0  0  0  0  0  0  0  0
   -3.9737    3.3256   -0.1002 H   0  0  0  0  0  0  0  0  0  0  0  0
   -6.2192    4.1787    0.4911 H   0  0  0  0  0  0  0  0  0  0  0  0
   -7.9951    2.6287    1.2316 H   0  0  0  0  0  0  0  0  0  0  0  0
   -7.5550    0.1938    1.4023 H   0  0  0  0  0  0  0  0  0  0  0  0
  1  2  1  0
  2  3  1  0
  3  4  2  0
  4  5  1  0
  5  6  2  0
  5  7  1  0
  7  8  1  0
  8  9  1  0
  9 10  1  0
 10 11  1  0
 11 12  1  0
 12 13  1  0
 13 14  2  0
 14 15  1  0
 15 16  2  0
 16 17  1  0
 17 18  2  0
 12 19  1  0
 19 20  1  0
  4 21  1  0
 21 22  2  0
 22 23  1  0
 23 24  2  0
 24 25  1  0
 25 26  2  0
 26  2  1  0
 20  9  1  0
 26 21  1  0
 18 13  1  0
  1 27  1  0
  1 28  1  0
  1 29  1  0
  3 30  1  0
  7 31  1  0
  8 32  1  0
  8 33  1  0
  9 34  1  0
 10 35  1  0
 10 36  1  0
 11 37  1  0
 11 38  1  0
 14 39  1  0
 15 40  1  0
 17 41  1  0
 18 42  1  0
 19 43  1  0
 19 44  1  0
 20 45  1  0
 20 46  1  0
 22 47  1  0
 23 48  1  0
 24 49  1  0
 25 50  1  0
M  END
$$$$
OCNT-2317172
     RDKit          3D

 46 48  0  0  0  0  0  0  0  0999 V2000
    0.5667   -0.7504   -2.3283 O   0  0  0  0  0  0  0  0  0  0  0  0
   -0.0392   -0.4885   -1.2913 C   0  0  0  0  0  0  0  0  0  0  0  0
    0.4014    0.4080   -0.3393 N   0  0  0  0  0  0  0  0  0  0  0  0
    1.7156    0.8945   -0.5371 O   0  0  0  0  0  0  0  0  0  0  0  0
    2.5212    0.6057    0.6089 C   0  0  0  0  0  0  0  0  0  0  0  0
    3.9605    0.9147    0.3149 C   0  0  0  0  0  0  0  0  0  0  0  0
    4.5416    0.6368   -0.9263 C   0  0  0  0  0  0  0  0  0  0  0  0
    5.8908    0.9058   -1.1357 C   0  0  0  0  0  0  0  0  0  0  0  0
    6.6240    1.4337   -0.0868 C   0  0  0  0  0  0  0  0  0  0  0  0
    6.1061    1.7003    1.1313 N   0  0  0  0  0  0  0  0  0  0  0  0
    4.7912    1.4339    1.3029 C   0  0  0  0  0  0  0  0  0  0  0  0
   -1.4408   -1.0713   -0.9842 C   0  0  0  0  0  0  0  0  0  0  0  0
   -1.5535   -2.5241   -1.4558 C   0  0  0  0  0  0  0  0  0  0  0  0
   -0.6740   -3.4812   -0.6468 C   0  0  0  0  0  0  0  0  0  0  0  0
   -0.3606   -2.9754    0.7604 C   0  0  0  0  0  0  0  0  0  0  0  0
   -1.4716   -2.0976    1.3199 C   0  0  0  0  0  0  0  0  0  0  0  0
   -1.8014   -0.9640    0.4530 N   0  0  0  0  0  0  0  0  0  0  0  0
   -2.5688    0.0613    1.0091 C   0  0  0  0  0  0  0  0  0  0  0  0
   -2.7935    0.1569    2.2116 O   0  0  0  0  0  0  0  0  0  0  0  0
   -3.1281    1.0952    0.1209 C   0  0  0  0  0  0  0  0  0  0  0  0
   -2.4940    2.3350    0.0172 C   0  0  0  0  0  0  0  0  0  0  0  0
   -3.0304    3.3077   -0.8259 C   0  0  0  0  0  0  0  0  0  0  0  0
   -4.1987    3.0434   -1.5444 C   0  0  0  0  0  0  0  0  0  0  0  0
   -4.8407    1.8098   -1.4181 C   0  0  0  0  0  0  0  0  0  0  0  0
   -4.3096    0.8313   -0.5789 C   0  0  0  0  0  0  0  0  0  0  0  0
    0.0511    0.3284    0.6103 H   0  0  0  0  0  0  0  0  0  0  0  0
    2.1595    1.2153    1.4451 H   0  0  0  0  0  0  0  0  0  0  0  0
    2.4337   -0.4553    0.8728 H   0  0  0  0  0  0  0  0  0  0  0  0
    3.9434    0.2177   -1.7340 H   0  0  0  0  0  0  0  0  0  0  0  0
    6.3566    0.7078   -2.0942 H   0  0  0  0  0  0  0  0  0  0  0  0
    7.6798    1.6617   -0.2012 H   0  0  0  0  0  0  0  0  0  0  0  0
    4.4159    1.6596    2.2977 H   0  0  0  0  0  0  0  0  0  0  0  0
   -2.1324   -0.4705   -1.5813 H   0  0  0  0  0  0  0  0  0  0  0  0
   -1.3109   -2.6168   -2.5209 H   0  0  0  0  0  0  0  0  0  0  0  0
   -2.5992   -2.8427   -1.3494 H   0  0  0  0  0  0  0  0  0  0  0  0
   -1.1760   -4.4547   -0.5881 H   0  0  0  0  0  0  0  0  0  0  0  0
    0.2699   -3.6584   -1.1764 H   0  0  0  0  0  0  0  0  0  0  0  0
   -0.1783   -3.8260    1.4269 H   0  0  0  0  0  0  0  0  0  0  0  0
    0.5735   -2.4011    0.7348 H   0  0  0  0  0  0  0  0  0  0  0  0
   -1.1872   -1.7239    2.3101 H   0  0  0  0  0  0  0  0  0  0  0  0
   -2.3900   -2.6844    1.4456 H   0  0  0  0  0  0  0  0  0  0  0  0
   -1.5944    2.5489    0.5872 H   0  0  0  0  0  0  0  0  0  0  0  0
   -2.5426    4.2751   -0.9200 H   0  0  0  0  0  0  0  0  0  0  0  0
   -4.6155    3.8064   -2.1982 H   0  0  0  0  0  0  0  0  0  0  0  0
   -5.7575    1.6162   -1.9698 H   0  0  0  0  0  0  0  0  0  0  0  0
   -4.8136   -0.1250   -0.4689 H   0  0  0  0  0  0  0  0  0  0  0  0
  1  2  2  0
  2  3  1  0
  3  4  1  0
  4  5  1  0
  5  6  1  0
  6  7  1  0
  7  8  2  0
  8  9  1  0
  9 10  2  0
 10 11  1  0
  2 12  1  0
 12 13  1  0
 13 14  1  0
 14 15  1  0
 15 16  1  0
 16 17  1  0
 17 18  1  0
 18 19  2  0
 18 20  1  0
 20 21  2  0
 21 22  1  0
 22 23  2  0
 23 24  1  0
 24 25  2  0
 11  6  2  0
 17 12  1  0
 25 20  1  0
  3 26  1  0
  5 27  1  0
  5 28  1  0
  7 29  1  0
  8 30  1  0
  9 31  1  0
 11 32  1  0
 12 33  1  0
 13 34  1  0
 13 35  1  0
 14 36  1  0
 14 37  1  0
 15 38  1  0
 15 39  1  0
 16 40  1  0
 16 41  1  0
 21 42  1  0
 22 43  1  0
 23 44  1  0
 24 45  1  0
 25 46  1  0
M  END
$$$$
OCNT-2317174
     RDKit          3D

 51 52  0  0  0  0  0  0  0  0999 V2000
    7.9467    1.3706   -0.0403 C   0  0  0  0  0  0  0  0  0  0  0  0
    7.2402    0.4486   -1.0244 C   0  0  0  0  0  0  0  0  0  0  0  0
    6.3729   -0.4619   -0.3423 O   0  0  0  0  0  0  0  0  0  0  0  0
    5.1089   -0.0614   -0.0111 C   0  0  0  0  0  0  0  0  0  0  0  0
    4.5315    1.1766   -0.2984 C   0  0  0  0  0  0  0  0  0  0  0  0
    3.2220    1.4663    0.1168 C   0  0  0  0  0  0  0  0  0  0  0  0
    2.4730    0.5261    0.8300 C   0  0  0  0  0  0  0  0  0  0  0  0
    1.0717    0.8221    1.3018 C   0  0  0  0  0  0  0  0  0  0  0  0
    0.1027    0.1327    0.4797 N   0  0  0  0  0  0  0  0  0  0  0  0
   -1.0378   -0.3901    1.0223 C   0  0  0  0  0  0  0  0  0  0  0  0
   -1.2503   -0.3570    2.2361 O   0  0  0  0  0  0  0  0  0  0  0  0
   -1.9164   -0.9792    0.1261 N   0  0  0  0  0  0  0  0  0  0  0  0
   -1.7442   -1.0040   -1.3343 C   0  0  0  0  0  0  0  0  0  0  0  0
   -2.4264   -2.1997   -1.9932 C   0  0  0  0  0  0  0  0  0  0  0  0
   -3.8019   -2.2789   -1.6106 O   0  0  0  0  0  0  0  0  0  0  0  0
   -3.9083   -2.5012   -0.2018 C   0  0  0  0  0  0  0  0  0  0  0  0
   -3.2359   -1.4012    0.6445 C   0  0  2  0  0  0  0  0  0  0  0  0
   -4.1748   -0.2215    1.0164 C   0  0  0  0  0  0  0  0  0  0  0  0
   -4.4250    0.9162    0.0024 C   0  0  0  0  0  0  0  0  0  0  0  0
   -5.2804    0.4967   -1.1907 C   0  0  0  0  0  0  0  0  0  0  0  0
   -5.1277    2.0798    0.7269 C   0  0  0  0  0  0  0  0  0  0  0  0
    3.0494   -0.7199    1.1040 C   0  0  0  0  0  0  0  0  0  0  0  0
    4.3487   -1.0005    0.6881 C   0  0  0  0  0  0  0  0  0  0  0  0
    4.8677   -2.2059    0.9839 F   0  0  0  0  0  0  0  0  0  0  0  0
    8.4991    0.7832    0.7013 H   0  0  0  0  0  0  0  0  0  0  0  0
    8.6496    2.0277   -0.5612 H   0  0  0  0  0  0  0  0  0  0  0  0
    7.2348    1.9888    0.5140 H   0  0  0  0  0  0  0  0  0  0  0  0
    7.9985   -0.1655   -1.5251 H   0  0  0  0  0  0  0  0  0  0  0  0
    6.7268    0.9954   -1.8206 H   0  0  0  0  0  0  0  0  0  0  0  0
    5.0714    1.9498   -0.8313 H   0  0  0  0  0  0  0  0  0  0  0  0
    2.8003    2.4414   -0.1145 H   0  0  0  0  0  0  0  0  0  0  0  0
    0.9726    0.5433    2.3595 H   0  0  0  0  0  0  0  0  0  0  0  0
    0.8516    1.8947    1.2303 H   0  0  0  0  0  0  0  0  0  0  0  0
    0.0811    0.4060   -0.4821 H   0  0  0  0  0  0  0  0  0  0  0  0
   -0.6822   -1.0237   -1.6002 H   0  0  0  0  0  0  0  0  0  0  0  0
   -2.1735   -0.0703   -1.7176 H   0  0  0  0  0  0  0  0  0  0  0  0
   -2.3891   -2.0900   -3.0818 H   0  0  0  0  0  0  0  0  0  0  0  0
   -1.9186   -3.1391   -1.7349 H   0  0  0  0  0  0  0  0  0  0  0  0
   -3.4426   -3.4744    0.0190 H   0  0  0  0  0  0  0  0  0  0  0  0
   -4.9728   -2.5952    0.0526 H   0  0  0  0  0  0  0  0  0  0  0  0
   -3.0352   -1.8920    1.6111 H   0  0  0  0  0  0  0  0  0  0  0  0
   -5.1401   -0.6310    1.3437 H   0  0  0  0  0  0  0  0  0  0  0  0
   -3.7508    0.2445    1.9178 H   0  0  0  0  0  0  0  0  0  0  0  0
   -3.4675    1.3024   -0.3662 H   0  0  0  0  0  0  0  0  0  0  0  0
   -5.6336    1.3720   -1.7484 H   0  0  0  0  0  0  0  0  0  0  0  0
   -6.1568   -0.0761   -0.8740 H   0  0  0  0  0  0  0  0  0  0  0  0
   -4.7092   -0.1063   -1.8987 H   0  0  0  0  0  0  0  0  0  0  0  0
   -5.2776    2.9323    0.0498 H   0  0  0  0  0  0  0  0  0  0  0  0
   -4.5267    2.4328    1.5714 H   0  0  0  0  0  0  0  0  0  0  0  0
   -6.1114    1.7763    1.1119 H   0  0  0  0  0  0  0  0  0  0  0  0
    2.4957   -1.4804    1.6478 H   0  0  0  0  0  0  0  0  0  0  0  0
  1  2  1  0
  2  3  1  0
  3  4  1  0
  4  5  1  0
  5  6  2  0
  6  7  1  0
  7  8  1  0
  8  9  1  0
  9 10  1  0
 10 11  2  0
 10 12  1  0
 12 13  1  0
 13 14  1  0
 14 15  1  0
 15 16  1  0
 16 17  1  0
 17 18  1  0
 18 19  1  0
 19 20  1  0
 19 21  1  0
  7 22  2  0
 22 23  1  0
 23 24  1  0
 23  4  2  0
 17 12  1  0
  1 25  1  0
  1 26  1  0
  1 27  1  0
  2 28  1  0
  2 29  1  0
  5 30  1  0
  6 31  1  0
  8 32  1  0
  8 33  1  0
  9 34  1  0
 13 35  1  0
 13 36  1  0
 14 37  1  0
 14 38  1  0
 16 39  1  0
 16 40  1  0
 17 41  1  1
 18 42  1  0
 18 43  1  0
 19 44  1  0
 20 45  1  0
 20 46  1  0
 20 47  1  0
 21 48  1  0
 21 49  1  0
 21 50  1  0
 22 51  1  0
M  END
$$$$
OCNT-2317181
     RDKit          3D

 47 49  0  0  0  0  0  0  0  0999 V2000
   -6.1205   -1.9000   -1.2452 C   0  0  0  0  0  0  0  0  0  0  0  0
   -5.2416   -0.8579   -0.6225 C   0  0  0  0  0  0  0  0  0  0  0  0
   -5.7543    0.0296    0.2941 C   0  0  0  0  0  0  0  0  0  0  0  0
   -4.8694    0.9563    0.8092 C   0  0  0  0  0  0  0  0  0  0  0  0
   -5.3732    1.9654    1.8246 C   0  0  0  0  0  0  0  0  0  0  0  0
   -4.4294    2.8443    2.2651 F   0  0  0  0  0  0  0  0  0  0  0  0
   -5.8743    1.3659    2.9450 F   0  0  0  0  0  0  0  0  0  0  0  0
   -6.3944    2.7291    1.3357 F   0  0  0  0  0  0  0  0  0  0  0  0
   -3.5659    0.9871    0.4314 N   0  0  0  0  0  0  0  0  0  0  0  0
   -3.1338    0.0931   -0.4694 C   0  0  0  0  0  0  0  0  0  0  0  0
   -1.8031    0.1448   -0.8840 N   0  0  0  0  0  0  0  0  0  0  0  0
   -0.8996    0.7864    0.0789 C   0  0  0  0  0  0  0  0  0  0  0  0
    0.5412    0.8747   -0.4813 C   0  0  0  0  0  0  0  0  0  0  0  0
    1.1072   -0.3808   -1.0471 N   0  0  0  0  0  0  0  0  0  0  0  0
    1.3915   -1.3805    0.0164 C   0  0  0  0  0  0  0  0  0  0  0  0
    2.6701   -1.0233    0.7930 C   0  0  0  0  0  0  0  0  0  0  0  0
    2.8306   -1.3995    1.9499 O   0  0  0  0  0  0  0  0  0  0  0  0
    3.5701   -0.3131    0.0190 N   0  0  0  0  0  0  0  0  0  0  0  0
    4.8475    0.1534    0.3663 C   0  0  0  0  0  0  0  0  0  0  0  0
    5.4587   -0.0989    1.5977 C   0  0  0  0  0  0  0  0  0  0  0  0
    6.7367    0.4010    1.8671 C   0  0  0  0  0  0  0  0  0  0  0  0
    7.4000    1.1502    0.9046 C   0  0  0  0  0  0  0  0  0  0  0  0
    8.6239    1.6276    1.1642 F   0  0  0  0  0  0  0  0  0  0  0  0
    6.8103    1.4097   -0.3252 C   0  0  0  0  0  0  0  0  0  0  0  0
    5.5337    0.9104   -0.5943 C   0  0  0  0  0  0  0  0  0  0  0  0
    0.1264   -0.9189   -2.0217 C   0  0  0  0  0  0  0  0  0  0  0  0
   -1.3156   -1.0973   -1.4932 C   0  0  0  0  0  0  0  0  0  0  0  0
   -3.9494   -0.8304   -1.0034 N   0  0  0  0  0  0  0  0  0  0  0  0
   -5.5487   -2.5327   -1.9319 H   0  0  0  0  0  0  0  0  0  0  0  0
   -6.5529   -2.5423   -0.4719 H   0  0  0  0  0  0  0  0  0  0  0  0
   -6.9274   -1.4246   -1.8114 H   0  0  0  0  0  0  0  0  0  0  0  0
   -6.7951    0.0049    0.5946 H   0  0  0  0  0  0  0  0  0  0  0  0
   -1.2249    1.8121    0.2949 H   0  0  0  0  0  0  0  0  0  0  0  0
   -0.8947    0.2299    1.0247 H   0  0  0  0  0  0  0  0  0  0  0  0
    0.5492    1.6224   -1.2861 H   0  0  0  0  0  0  0  0  0  0  0  0
    1.2041    1.2780    0.2935 H   0  0  0  0  0  0  0  0  0  0  0  0
    1.5876   -2.3613   -0.4346 H   0  0  0  0  0  0  0  0  0  0  0  0
    0.5640   -1.4900    0.7244 H   0  0  0  0  0  0  0  0  0  0  0  0
    3.1996   -0.0604   -0.8954 H   0  0  0  0  0  0  0  0  0  0  0  0
    4.9673   -0.6835    2.3692 H   0  0  0  0  0  0  0  0  0  0  0  0
    7.2136    0.2069    2.8226 H   0  0  0  0  0  0  0  0  0  0  0  0
    7.3454    1.9960   -1.0651 H   0  0  0  0  0  0  0  0  0  0  0  0
    5.0836    1.1205   -1.5613 H   0  0  0  0  0  0  0  0  0  0  0  0
    0.4886   -1.8721   -2.4264 H   0  0  0  0  0  0  0  0  0  0  0  0
    0.0995   -0.2304   -2.8772 H   0  0  0  0  0  0  0  0  0  0  0  0
   -1.3427   -1.9167   -0.7633 H   0  0  0  0  0  0  0  0  0  0  0  0
   -1.9394   -1.3851   -2.3488 H   0  0  0  0  0  0  0  0  0  0  0  0
  1  2  1  0
  2  3  2  0
  3  4  1  0
  4  5  1  0
  5  6  1  0
  5  7  1  0
  5  8  1  0
  4  9  2  0
  9 10  1  0
 10 11  1  0
 11 12  1  0
 12 13  1  0
 13 14  1  0
 14 15  1  0
 15 16  1  0
 16 17  2  0
 16 18  1  0
 18 19  1  0
 19 20  1  0
 20 21  2  0
 21 22  1  0
 22 23  1  0
 22 24  2  0
 24 25  1  0
 14 26  1  0
 26 27  1  0
 10 28  2  0
 28  2  1  0
 27 11  1  0
 25 19  2  0
  1 29  1  0
  1 30  1  0
  1 31  1  0
  3 32  1  0
 12 33  1  0
 12 34  1  0
 13 35  1  0
 13 36  1  0
 15 37  1  0
 15 38  1  0
 18 39  1  0
 20 40  1  0
 21 41  1  0
 24 42  1  0
 25 43  1  0
 26 44  1  0
 26 45  1  0
 27 46  1  0
 27 47  1  0
M  END
$$$$
OCNT-2317186
     RDKit          3D

 58 59  0  0  0  0  0  0  0  0999 V2000
    7.1139    0.4404   -1.3413 C   0  0  0  0  0  0  0  0  0  0  0  0
    6.2913   -0.5456   -0.5077 C   0  0  0  0  0  0  0  0  0  0  0  0
    7.2192   -1.5733    0.1458 C   0  0  0  0  0  0  0  0  0  0  0  0
    5.4592    0.1717    0.5790 C   0  0  0  0  0  0  0  0  0  0  0  0
    4.5131    1.1581    0.0387 N   0  0  0  0  0  0  0  0  0  0  0  0
    4.0850    2.1039    1.0908 C   0  0  0  0  0  0  0  0  0  0  0  0
    2.7911    2.8312    0.7018 C   0  0  0  0  0  0  0  0  0  0  0  0
    1.6697    1.9452    0.5737 O   0  0  0  0  0  0  0  0  0  0  0  0
    2.0509    0.5959    0.2202 C   0  0  0  0  0  0  0  0  0  0  0  0
    0.8801   -0.0403   -0.5377 C   0  0  0  0  0  0  0  0  0  0  0  0
   -0.3267   -0.0485    0.2741 N   0  0  0  0  0  0  0  0  0  0  0  0
   -1.4343   -0.7293   -0.1632 C   0  0  0  0  0  0  0  0  0  0  0  0
   -1.4537   -1.4398   -1.1567 O   0  0  0  0  0  0  0  0  0  0  0  0
   -2.4999   -0.5055    0.6718 N   0  0  0  0  0  0  0  0  0  0  0  0
   -3.7978   -1.1613    0.5158 C   0  0  0  0  0  0  0  0  0  0  0  0
   -3.6615   -2.6743    0.7131 C   0  0  0  0  0  0  0  0  0  0  0  0
   -4.5123   -0.7740   -0.8159 C   0  0  0  0  0  0  0  0  0  0  0  0
   -4.6197    0.7562   -1.0077 C   0  0  0  0  0  0  0  0  0  0  0  0
   -5.6206    1.4046   -0.0526 C   0  0  0  0  0  0  0  0  0  0  0  0
   -6.9866    0.7459   -0.1452 C   0  0  0  0  0  0  0  0  0  0  0  0
   -7.5489    1.0541   -1.3430 F   0  0  0  0  0  0  0  0  0  0  0  0
   -7.8027    1.2644    0.8064 F   0  0  0  0  0  0  0  0  0  0  0  0
   -6.9344   -0.7658    0.0042 C   0  0  0  0  0  0  0  0  0  0  0  0
   -5.9217   -1.3869   -0.9561 C   0  0  0  0  0  0  0  0  0  0  0  0
    3.3405    0.5490   -0.6288 C   0  0  0  0  0  0  0  0  0  0  0  0
    6.4676    1.1323   -1.8907 H   0  0  0  0  0  0  0  0  0  0  0  0
    7.7859    1.0308   -0.7092 H   0  0  0  0  0  0  0  0  0  0  0  0
    7.7253   -0.0917   -2.0781 H   0  0  0  0  0  0  0  0  0  0  0  0
    5.6266   -1.0919   -1.1867 H   0  0  0  0  0  0  0  0  0  0  0  0
    6.6427   -2.3108    0.7141 H   0  0  0  0  0  0  0  0  0  0  0  0
    7.9264   -1.0933    0.8311 H   0  0  0  0  0  0  0  0  0  0  0  0
    7.7963   -2.1135   -0.6121 H   0  0  0  0  0  0  0  0  0  0  0  0
    4.9270   -0.5658    1.1944 H   0  0  0  0  0  0  0  0  0  0  0  0
    6.1656    0.6826    1.2480 H   0  0  0  0  0  0  0  0  0  0  0  0
    3.9119    1.5716    2.0354 H   0  0  0  0  0  0  0  0  0  0  0  0
    4.8813    2.8376    1.2576 H   0  0  0  0  0  0  0  0  0  0  0  0
    2.9134    3.3672   -0.2466 H   0  0  0  0  0  0  0  0  0  0  0  0
    2.5334    3.5744    1.4632 H   0  0  0  0  0  0  0  0  0  0  0  0
    2.2041    0.0471    1.1589 H   0  0  0  0  0  0  0  0  0  0  0  0
    0.6482    0.5325   -1.4435 H   0  0  0  0  0  0  0  0  0  0  0  0
    1.1139   -1.0698   -0.8307 H   0  0  0  0  0  0  0  0  0  0  0  0
   -0.5314    0.8424    0.7083 H   0  0  0  0  0  0  0  0  0  0  0  0
   -2.2260   -0.2708    1.6154 H   0  0  0  0  0  0  0  0  0  0  0  0
   -4.3898   -0.7836    1.3574 H   0  0  0  0  0  0  0  0  0  0  0  0
   -4.6366   -3.1445    0.8716 H   0  0  0  0  0  0  0  0  0  0  0  0
   -3.0480   -2.8975    1.5933 H   0  0  0  0  0  0  0  0  0  0  0  0
   -3.1898   -3.1545   -0.1501 H   0  0  0  0  0  0  0  0  0  0  0  0
   -3.9122   -1.1618   -1.6488 H   0  0  0  0  0  0  0  0  0  0  0  0
   -4.9396    0.9568   -2.0389 H   0  0  0  0  0  0  0  0  0  0  0  0
   -3.6421    1.2380   -0.8990 H   0  0  0  0  0  0  0  0  0  0  0  0
   -5.7148    2.4685   -0.2989 H   0  0  0  0  0  0  0  0  0  0  0  0
   -5.2533    1.3578    0.9786 H   0  0  0  0  0  0  0  0  0  0  0  0
   -7.9270   -1.1835   -0.2003 H   0  0  0  0  0  0  0  0  0  0  0  0
   -6.6951   -1.0309    1.0401 H   0  0  0  0  0  0  0  0  0  0  0  0
   -6.2713   -1.2236   -1.9845 H   0  0  0  0  0  0  0  0  0  0  0  0
   -5.8981   -2.4729   -0.8221 H   0  0  0  0  0  0  0  0  0  0  0  0
    3.1738    1.1253   -1.5482 H   0  0  0  0  0  0  0  0  0  0  0  0
    3.5387   -0.4806   -0.9452 H   0  0  0  0  0  0  0  0  0  0  0  0
  1  2  1  0
  2  3  1  0
  2  4  1  0
  4  5  1  0
  5  6  1  0
  6  7  1  0
  7  8  1  0
  8  9  1  0
  9 10  1  0
 10 11  1  0
 11 12  1  0
 12 13  2  0
 12 14  1  0
 14 15  1  0
 15 16  1  0
 15 17  1  0
 17 18  1  0
 18 19  1  0
 19 20  1  0
 20 21  1  0
 20 22  1  0
 20 23  1  0
 23 24  1  0
  9 25  1  0
 25  5  1  0
 24 17  1  0
  1 26  1  0
  1 27  1  0
  1 28  1  0
  2 29  1  0
  3 30  1  0
  3 31  1  0
  3 32  1  0
  4 33  1  0
  4 34  1  0
  6 35  1  0
  6 36  1  0
  7 37  1  0
  7 38  1  0
  9 39  1  0
 10 40  1  0
 10 41  1  0
 11 42  1  0
 14 43  1  0
 15 44  1  0
 16 45  1  0
 16 46  1  0
 16 47  1  0
 17 48  1  0
 18 49  1  0
 18 50  1  0
 19 51  1  0
 19 52  1  0
 23 53  1  0
 23 54  1  0
 24 55  1  0
 24 56  1  0
 25 57  1  0
 25 58  1  0
M  END
$$$$
OCNT-2317192
     RDKit          3D

 52 54  0  0  0  0  0  0  0  0999 V2000
    4.8445    0.5246   -3.7405 C   0  0  0  0  0  0  0  0  0  0  0  0
    3.9907    0.2256   -2.6395 O   0  0  0  0  0  0  0  0  0  0  0  0
    4.6120    0.4043   -1.4078 C   0  0  0  0  0  0  0  0  0  0  0  0
    5.9195    0.7465   -1.3706 N   0  0  0  0  0  0  0  0  0  0  0  0
    6.4643    0.8931   -0.1420 C   0  0  0  0  0  0  0  0  0  0  0  0
    5.7646    0.7335    1.0502 C   0  0  0  0  0  0  0  0  0  0  0  0
    6.4427    0.8842    2.3763 C   0  0  0  0  0  0  0  0  0  0  0  0
    4.4158    0.3683    0.9714 C   0  0  0  0  0  0  0  0  0  0  0  0
    3.8148    0.1909   -0.2736 C   0  0  0  0  0  0  0  0  0  0  0  0
    2.4573   -0.1606   -0.4624 N   0  0  0  0  0  0  0  0  0  0  0  0
    1.5752   -0.6348    0.4787 C   0  0  0  0  0  0  0  0  0  0  0  0
    1.9011   -0.9521    1.6218 O   0  0  0  0  0  0  0  0  0  0  0  0
    0.2484   -0.7458    0.0408 N   0  0  0  0  0  0  0  0  0  0  0  0
   -0.2075   -0.4361   -1.3194 C   0  0  0  0  0  0  0  0  0  0  0  0
   -1.6681   -0.0017   -1.3745 C   0  0  0  0  0  0  0  0  0  0  0  0
   -2.5547   -1.0148   -0.6515 C   0  0  0  0  0  0  0  0  0  0  0  0
   -3.9968   -0.6969   -0.8289 N   0  0  0  0  0  0  0  0  0  0  0  0
   -4.8209   -1.8131   -1.3045 C   0  0  0  0  0  0  0  0  0  0  0  0
   -4.6073    0.1484    0.1072 C   0  0  0  0  0  0  0  0  0  0  0  0
   -5.4652   -0.3250    1.1133 C   0  0  0  0  0  0  0  0  0  0  0  0
   -6.0613    0.5460    2.0332 C   0  0  0  0  0  0  0  0  0  0  0  0
   -5.7991    1.9129    1.9706 C   0  0  0  0  0  0  0  0  0  0  0  0
   -4.9511    2.4065    0.9818 C   0  0  0  0  0  0  0  0  0  0  0  0
   -4.3695    1.5305    0.0600 C   0  0  0  0  0  0  0  0  0  0  0  0
   -2.1003   -1.1505    0.8036 C   0  0  0  0  0  0  0  0  0  0  0  0
   -0.6387   -1.5818    0.8570 C   0  0  0  0  0  0  0  0  0  0  0  0
    5.1483    1.5789   -3.7323 H   0  0  0  0  0  0  0  0  0  0  0  0
    5.7167   -0.1386   -3.7628 H   0  0  0  0  0  0  0  0  0  0  0  0
    4.2743    0.3499   -4.6591 H   0  0  0  0  0  0  0  0  0  0  0  0
    7.5196    1.1527   -0.1428 H   0  0  0  0  0  0  0  0  0  0  0  0
    7.3010    1.5610    2.3061 H   0  0  0  0  0  0  0  0  0  0  0  0
    6.7933   -0.0906    2.7318 H   0  0  0  0  0  0  0  0  0  0  0  0
    5.7568    1.3062    3.1188 H   0  0  0  0  0  0  0  0  0  0  0  0
    3.8520    0.2355    1.8905 H   0  0  0  0  0  0  0  0  0  0  0  0
    2.2115   -0.2730   -1.4363 H   0  0  0  0  0  0  0  0  0  0  0  0
    0.3946    0.3702   -1.7510 H   0  0  0  0  0  0  0  0  0  0  0  0
   -0.0471   -1.3350   -1.9277 H   0  0  0  0  0  0  0  0  0  0  0  0
   -1.7492    0.9873   -0.9083 H   0  0  0  0  0  0  0  0  0  0  0  0
   -1.9816    0.1098   -2.4202 H   0  0  0  0  0  0  0  0  0  0  0  0
   -2.3758   -1.9875   -1.1361 H   0  0  0  0  0  0  0  0  0  0  0  0
   -4.4014   -2.2111   -2.2362 H   0  0  0  0  0  0  0  0  0  0  0  0
   -4.8504   -2.6312   -0.5744 H   0  0  0  0  0  0  0  0  0  0  0  0
   -5.8428   -1.4911   -1.5308 H   0  0  0  0  0  0  0  0  0  0  0  0
   -5.6687   -1.3873    1.2124 H   0  0  0  0  0  0  0  0  0  0  0  0
   -6.7286    0.1539    2.7972 H   0  0  0  0  0  0  0  0  0  0  0  0
   -6.2639    2.5947    2.6765 H   0  0  0  0  0  0  0  0  0  0  0  0
   -4.7559    3.4739    0.9106 H   0  0  0  0  0  0  0  0  0  0  0  0
   -3.7481    1.9479   -0.7280 H   0  0  0  0  0  0  0  0  0  0  0  0
   -2.7168   -1.8855    1.3366 H   0  0  0  0  0  0  0  0  0  0  0  0
   -2.2015   -0.1943    1.3343 H   0  0  0  0  0  0  0  0  0  0  0  0
   -0.5351   -2.6087    0.4825 H   0  0  0  0  0  0  0  0  0  0  0  0
   -0.3116   -1.5904    1.9030 H   0  0  0  0  0  0  0  0  0  0  0  0
  1  2  1  0
  2  3  1  0
  3  4  1  0
  4  5  2  0
  5  6  1  0
  6  7  1  0
  6  8  2  0
  8  9  1  0
  9 10  1  0
 10 11  1  0
 11 12  2  0
 11 13  1  0
 13 14  1  0
 14 15  1  0
 15 16  1  0
 16 17  1  0
 17 18  1  0
 17 19  1  0
 19 20  2  0
 20 21  1  0
 21 22  2  0
 22 23  1  0
 23 24  2  0
 16 25  1  0
 25 26  1  0
  9  3  2  0
 26 13  1  0
 24 19  1  0
  1 27  1  0
  1 28  1  0
  1 29  1  0
  5 30  1  0
  7 31  1  0
  7 32  1  0
  7 33  1  0
  8 34  1  0
 10 35  1  0
 14 36  1  0
 14 37  1  0
 15 38  1  0
 15 39  1  0
 16 40  1  0
 18 41  1  0
 18 42  1  0
 18 43  1  0
 20 44  1  0
 21 45  1  0
 22 46  1  0
 23 47  1  0
 24 48  1  0
 25 49  1  0
 25 50  1  0
 26 51  1  0
 26 52  1  0
M  END
$$$$
OCNT-2317197
     RDKit          3D

 50 52  0  0  0  0  0  0  0  0999 V2000
    3.4459    1.6110   -2.0949 C   0  0  0  0  0  0  0  0  0  0  0  0
    3.9367    0.3033   -1.7979 O   0  0  0  0  0  0  0  0  0  0  0  0
    4.4368    0.2360   -0.5172 C   0  0  0  0  0  0  0  0  0  0  0  0
    5.6104    0.9620   -0.2451 C   0  0  0  0  0  0  0  0  0  0  0  0
    6.1874    0.9208    1.0181 C   0  0  0  0  0  0  0  0  0  0  0  0
    5.5940    0.1444    2.0009 C   0  0  0  0  0  0  0  0  0  0  0  0
    6.2875    0.0873    3.5768 Cl  0  0  0  0  0  0  0  0  0  0  0  0
    4.4425   -0.6001    1.7232 C   0  0  0  0  0  0  0  0  0  0  0  0
    3.8338   -0.6033    0.4507 C   0  0  0  0  0  0  0  0  0  0  0  0
    2.6954   -1.3668    0.2380 N   0  0  0  0  0  0  0  0  0  0  0  0
    2.3944   -2.5495    1.0535 C   0  0  0  0  0  0  0  0  0  0  0  0
    1.4653   -3.4049    0.1910 C   0  0  0  0  0  0  0  0  0  0  0  0
    0.8137   -2.4038   -0.7521 C   0  0  0  0  0  0  0  0  0  0  0  0
   -0.3188   -1.7373   -0.1081 N   0  0  0  0  0  0  0  0  0  0  0  0
   -1.1821   -0.9948   -0.8760 C   0  0  0  0  0  0  0  0  0  0  0  0
   -1.1290   -0.9082   -2.0940 O   0  0  0  0  0  0  0  0  0  0  0  0
   -2.1100   -0.3629   -0.0872 N   0  0  0  0  0  0  0  0  0  0  0  0
   -3.1809    0.3709   -0.7223 C   0  0  0  0  0  0  0  0  0  0  0  0
   -3.9304    1.1505    0.3014 C   0  0  0  0  0  0  0  0  0  0  0  0
   -5.3288    1.7255    0.0460 C   0  0  0  0  0  0  0  0  0  0  0  0
   -6.0120    1.4886   -1.2739 C   0  0  0  0  0  0  0  0  0  0  0  0
   -5.6518    3.0541    0.6759 C   0  0  0  0  0  0  0  0  0  0  0  0
   -5.1261    0.5577    0.9528 C   0  0  0  0  0  0  0  0  0  0  0  0
   -5.2902    0.6784    2.3134 F   0  0  0  0  0  0  0  0  0  0  0  0
   -5.5583   -0.7006    0.6028 F   0  0  0  0  0  0  0  0  0  0  0  0
    1.9773   -1.4370   -1.0440 C   0  0  0  0  0  0  0  0  0  0  0  0
    2.7672    1.5287   -2.9490 H   0  0  0  0  0  0  0  0  0  0  0  0
    4.2680    2.2720   -2.3823 H   0  0  0  0  0  0  0  0  0  0  0  0
    2.8848    2.0383   -1.2564 H   0  0  0  0  0  0  0  0  0  0  0  0
    6.0825    1.5505   -1.0266 H   0  0  0  0  0  0  0  0  0  0  0  0
    7.0902    1.4874    1.2242 H   0  0  0  0  0  0  0  0  0  0  0  0
    4.0129   -1.1815    2.5336 H   0  0  0  0  0  0  0  0  0  0  0  0
    1.8859   -2.2438    1.9749 H   0  0  0  0  0  0  0  0  0  0  0  0
    3.2900   -3.1260    1.3132 H   0  0  0  0  0  0  0  0  0  0  0  0
    2.0646   -4.1187   -0.3876 H   0  0  0  0  0  0  0  0  0  0  0  0
    0.7516   -3.9733    0.7952 H   0  0  0  0  0  0  0  0  0  0  0  0
    0.4544   -2.8819   -1.6696 H   0  0  0  0  0  0  0  0  0  0  0  0
   -0.0979   -1.2802    0.7667 H   0  0  0  0  0  0  0  0  0  0  0  0
   -2.3644   -0.9102    0.7231 H   0  0  0  0  0  0  0  0  0  0  0  0
   -2.7495    1.0497   -1.4662 H   0  0  0  0  0  0  0  0  0  0  0  0
   -3.8072   -0.3535   -1.2526 H   0  0  0  0  0  0  0  0  0  0  0  0
   -3.2627    1.7414    0.9177 H   0  0  0  0  0  0  0  0  0  0  0  0
   -5.9118    0.4560   -1.6235 H   0  0  0  0  0  0  0  0  0  0  0  0
   -5.5899    2.1481   -2.0393 H   0  0  0  0  0  0  0  0  0  0  0  0
   -7.0834    1.7007   -1.1938 H   0  0  0  0  0  0  0  0  0  0  0  0
   -5.1559    3.1830    1.6433 H   0  0  0  0  0  0  0  0  0  0  0  0
   -5.3305    3.8712    0.0222 H   0  0  0  0  0  0  0  0  0  0  0  0
   -6.7303    3.1474    0.8401 H   0  0  0  0  0  0  0  0  0  0  0  0
    2.6245   -1.8685   -1.8168 H   0  0  0  0  0  0  0  0  0  0  0  0
    1.6042   -0.4582   -1.3588 H   0  0  0  0  0  0  0  0  0  0  0  0
  1  2  1  0
  2  3  1  0
  3  4  1  0
  4  5  2  0
  5  6  1  0
  6  7  1  0
  6  8  2  0
  8  9  1  0
  9 10  1  0
 10 11  1  0
 11 12  1  0
 12 13  1  0
 13 14  1  0
 14 15  1  0
 15 16  2  0
 15 17  1  0
 17 18  1  0
 18 19  1  0
 19 20  1  0
 20 21  1  0
 20 22  1  0
 20 23  1  0
 23 24  1  0
 23 25  1  0
 13 26  1  0
  9  3  2  0
 26 10  1  0
 23 19  1  0
  1 27  1  0
  1 28  1  0
  1 29  1  0
  4 30  1  0
  5 31  1  0
  8 32  1  0
 11 33  1  0
 11 34  1  0
 12 35  1  0
 12 36  1  0
 13 37  1  0
 14 38  1  0
 17 39  1  0
 18 40  1  0
 18 41  1  0
 19 42  1  0
 21 43  1  0
 21 44  1  0
 21 45  1  0
 22 46  1  0
 22 47  1  0
 22 48  1  0
 26 49  1  0
 26 50  1  0
M  END
$$$$
OCNT-2317199
     RDKit          3D

 50 53  0  0  0  0  0  0  0  0999 V2000
    4.2271    1.5380    1.6452 C   0  0  0  0  0  0  0  0  0  0  0  0
    3.2096    0.5588    1.1807 C   0  0  0  0  0  0  0  0  0  0  0  0
    3.4417   -0.6881    0.6198 C   0  0  0  0  0  0  0  0  0  0  0  0
    4.7318   -1.4004    0.3461 C   0  0  0  0  0  0  0  0  0  0  0  0
    5.5844   -0.7182   -0.7035 C   0  0  0  0  0  0  0  0  0  0  0  0
    5.1459   -0.6374   -2.0364 C   0  0  0  0  0  0  0  0  0  0  0  0
    5.9325   -0.0091   -3.0025 C   0  0  0  0  0  0  0  0  0  0  0  0
    7.1586    0.5345   -2.6405 C   0  0  0  0  0  0  0  0  0  0  0  0
    7.9133    1.1371   -3.5684 F   0  0  0  0  0  0  0  0  0  0  0  0
    7.6146    0.4613   -1.3301 C   0  0  0  0  0  0  0  0  0  0  0  0
    6.8300   -0.1662   -0.3611 C   0  0  0  0  0  0  0  0  0  0  0  0
    1.9387   -1.4281    0.2405 S   0  0  0  0  0  0  0  0  0  0  0  0
    1.1156   -0.0699    0.8435 C   0  0  0  0  0  0  0  0  0  0  0  0
   -0.2491    0.0454    0.8352 N   0  0  0  0  0  0  0  0  0  0  0  0
   -1.1612   -0.9345    0.5435 C   0  0  0  0  0  0  0  0  0  0  0  0
   -0.9393   -2.1116    0.2945 O   0  0  0  0  0  0  0  0  0  0  0  0
   -2.4478   -0.4315    0.5867 N   0  0  0  0  0  0  0  0  0  0  0  0
   -3.5484   -1.2845    0.2092 C   0  0  0  0  0  0  0  0  0  0  0  0
   -4.8025   -0.5736    0.5426 C   0  0  0  0  0  0  0  0  0  0  0  0
   -5.6819    0.1498   -0.2312 C   0  0  0  0  0  0  0  0  0  0  0  0
   -5.5927    0.4101   -1.7465 C   0  0  0  0  0  0  0  0  0  0  0  0
   -4.4187    1.1749   -2.3002 C   0  0  0  0  0  0  0  0  0  0  0  0
   -5.7762    1.8115   -2.2683 C   0  0  0  0  0  0  0  0  0  0  0  0
   -6.7070    0.5647    0.6285 C   0  0  0  0  0  0  0  0  0  0  0  0
   -6.4974    0.1546    1.8811 N   0  0  0  0  0  0  0  0  0  0  0  0
   -5.3421   -0.5391    1.8070 N   0  0  0  0  0  0  0  0  0  0  0  0
   -4.8080   -1.1476    3.0043 C   0  0  0  0  0  0  0  0  0  0  0  0
    1.8705    0.9035    1.2935 N   0  0  0  0  0  0  0  0  0  0  0  0
    3.7677    2.3088    2.2717 H   0  0  0  0  0  0  0  0  0  0  0  0
    4.6969    2.0317    0.7895 H   0  0  0  0  0  0  0  0  0  0  0  0
    5.0036    1.0442    2.2371 H   0  0  0  0  0  0  0  0  0  0  0  0
    4.5575   -2.4348    0.0222 H   0  0  0  0  0  0  0  0  0  0  0  0
    5.2902   -1.4793    1.2879 H   0  0  0  0  0  0  0  0  0  0  0  0
    4.1866   -1.0618   -2.3276 H   0  0  0  0  0  0  0  0  0  0  0  0
    5.5968    0.0589   -4.0325 H   0  0  0  0  0  0  0  0  0  0  0  0
    8.5772    0.8913   -1.0726 H   0  0  0  0  0  0  0  0  0  0  0  0
    7.1972   -0.2206    0.6616 H   0  0  0  0  0  0  0  0  0  0  0  0
   -0.5786    0.9048    1.2431 H   0  0  0  0  0  0  0  0  0  0  0  0
   -2.5419    0.5372    0.3203 H   0  0  0  0  0  0  0  0  0  0  0  0
   -3.4699   -2.2440    0.7314 H   0  0  0  0  0  0  0  0  0  0  0  0
   -3.4729   -1.4856   -0.8651 H   0  0  0  0  0  0  0  0  0  0  0  0
   -5.9897   -0.3940   -2.3598 H   0  0  0  0  0  0  0  0  0  0  0  0
   -4.0238    0.8645   -3.2609 H   0  0  0  0  0  0  0  0  0  0  0  0
   -3.6707    1.5631   -1.6201 H   0  0  0  0  0  0  0  0  0  0  0  0
   -5.9366    2.6193   -1.5635 H   0  0  0  0  0  0  0  0  0  0  0  0
   -6.3024    1.9358   -3.2081 H   0  0  0  0  0  0  0  0  0  0  0  0
   -7.5929    1.1437    0.4040 H   0  0  0  0  0  0  0  0  0  0  0  0
   -3.7934   -0.7750    3.1628 H   0  0  0  0  0  0  0  0  0  0  0  0
   -5.4343   -0.8807    3.8599 H   0  0  0  0  0  0  0  0  0  0  0  0
   -4.8087   -2.2321    2.8692 H   0  0  0  0  0  0  0  0  0  0  0  0
  1  2  1  0
  2  3  2  0
  3  4  1  0
  4  5  1  0
  5  6  1  0
  6  7  2  0
  7  8  1  0
  8  9  1  0
  8 10  2  0
 10 11  1  0
  3 12  1  0
 12 13  1  0
 13 14  1  0
 14 15  1  0
 15 16  2  0
 15 17  1  0
 17 18  1  0
 18 19  1  0
 19 20  2  0
 20 21  1  0
 21 22  1  0
 22 23  1  0
 20 24  1  0
 24 25  2  0
 25 26  1  0
 26 27  1  0
 13 28  2  0
 28  2  1  0
 11  5  2  0
 26 19  1  0
 23 21  1  0
  1 29  1  0
  1 30  1  0
  1 31  1  0
  4 32  1  0
  4 33  1  0
  6 34  1  0
  7 35  1  0
 10 36  1  0
 11 37  1  0
 14 38  1  0
 17 39  1  0
 18 40  1  0
 18 41  1  0
 21 42  1  0
 22 43  1  0
 22 44  1  0
 23 45  1  0
 23 46  1  0
 24 47  1  0
 27 48  1  0
 27 49  1  0
 27 50  1  0
M  END
$$$$
OCNT-2317204
     RDKit          3D

 47 50  0  0  0  0  0  0  0  0999 V2000
    6.7431   -0.3631   -2.2010 C   0  0  0  0  0  0  0  0  0  0  0  0
    5.4077   -0.4683   -1.6526 N   0  0  0  0  0  0  0  0  0  0  0  0
    4.3351   -0.7338   -2.4592 C   0  0  0  0  0  0  0  0  0  0  0  0
    3.1137   -0.8398   -2.0561 N   0  0  0  0  0  0  0  0  0  0  0  0
    2.8774   -0.6737   -0.7110 C   0  0  0  0  0  0  0  0  0  0  0  0
    3.8430   -0.4108    0.1850 C   0  0  0  0  0  0  0  0  0  0  0  0
    3.5844   -0.2491    1.6491 C   0  0  0  0  0  0  0  0  0  0  0  0
    2.2230   -0.8114    2.0450 C   0  0  0  0  0  0  0  0  0  0  0  0
    1.1811   -0.4204    1.0989 N   0  0  0  0  0  0  0  0  0  0  0  0
   -0.1103   -0.3313    1.6064 C   0  0  0  0  0  0  0  0  0  0  0  0
   -0.3846   -0.5319    2.7859 O   0  0  0  0  0  0  0  0  0  0  0  0
   -1.0678   -0.0041    0.6822 N   0  0  0  0  0  0  0  0  0  0  0  0
   -2.4631    0.1475    1.0747 C   0  0  0  0  0  0  0  0  0  0  0  0
   -2.6643    1.4952    1.7896 C   0  0  0  0  0  0  0  0  0  0  0  0
   -4.1442    1.8097    1.9553 C   0  0  0  0  0  0  0  0  0  0  0  0
   -4.8053    1.9612    0.5891 C   0  0  0  0  0  0  0  0  0  0  0  0
   -4.4833    0.8216   -0.3431 C   0  0  0  0  0  0  0  0  0  0  0  0
   -5.2918    0.6202   -1.4704 C   0  0  0  0  0  0  0  0  0  0  0  0
   -6.3327    1.4358   -1.6934 F   0  0  0  0  0  0  0  0  0  0  0  0
   -5.0492   -0.4086   -2.3712 C   0  0  0  0  0  0  0  0  0  0  0  0
   -3.9764   -1.2595   -2.1465 C   0  0  0  0  0  0  0  0  0  0  0  0
   -3.6647   -2.5496   -3.2411 Cl  0  0  0  0  0  0  0  0  0  0  0  0
   -3.1467   -1.0754   -1.0395 C   0  0  0  0  0  0  0  0  0  0  0  0
   -3.3717   -0.0183   -0.1354 C   0  0  0  0  0  0  0  0  0  0  0  0
    1.4217   -0.7926   -0.3008 C   0  0  0  0  0  0  0  0  0  0  0  0
    5.2361   -0.2863   -0.2974 C   0  0  0  0  0  0  0  0  0  0  0  0
    6.1511   -0.0368    0.4830 O   0  0  0  0  0  0  0  0  0  0  0  0
    6.7473   -0.5376   -3.2803 H   0  0  0  0  0  0  0  0  0  0  0  0
    7.1355    0.6372   -1.9923 H   0  0  0  0  0  0  0  0  0  0  0  0
    7.3892   -1.0981   -1.7106 H   0  0  0  0  0  0  0  0  0  0  0  0
    4.5744   -0.8597   -3.5271 H   0  0  0  0  0  0  0  0  0  0  0  0
    3.6249    0.8201    1.8920 H   0  0  0  0  0  0  0  0  0  0  0  0
    4.3557   -0.7507    2.2445 H   0  0  0  0  0  0  0  0  0  0  0  0
    1.9769   -0.4674    3.0560 H   0  0  0  0  0  0  0  0  0  0  0  0
    2.2464   -1.9086    2.0738 H   0  0  0  0  0  0  0  0  0  0  0  0
   -0.7602    0.6286   -0.0399 H   0  0  0  0  0  0  0  0  0  0  0  0
   -2.7139   -0.6584    1.7778 H   0  0  0  0  0  0  0  0  0  0  0  0
   -2.1830    2.3037    1.2224 H   0  0  0  0  0  0  0  0  0  0  0  0
   -2.1788    1.4773    2.7724 H   0  0  0  0  0  0  0  0  0  0  0  0
   -4.6309    1.0074    2.5240 H   0  0  0  0  0  0  0  0  0  0  0  0
   -4.2714    2.7344    2.5293 H   0  0  0  0  0  0  0  0  0  0  0  0
   -5.8899    2.0340    0.7331 H   0  0  0  0  0  0  0  0  0  0  0  0
   -4.4689    2.8939    0.1197 H   0  0  0  0  0  0  0  0  0  0  0  0
   -5.7011   -0.5349   -3.2287 H   0  0  0  0  0  0  0  0  0  0  0  0
   -2.3168   -1.7612   -0.8748 H   0  0  0  0  0  0  0  0  0  0  0  0
    0.8208   -0.1586   -0.9598 H   0  0  0  0  0  0  0  0  0  0  0  0
    1.0828   -1.8277   -0.4312 H   0  0  0  0  0  0  0  0  0  0  0  0
  1  2  1  0
  2  3  1  0
  3  4  2  0
  4  5  1  0
  5  6  2  0
  6  7  1  0
  7  8  1  0
  8  9  1  0
  9 10  1  0
 10 11  2  0
 10 12  1  0
 12 13  1  0
 13 14  1  0
 14 15  1  0
 15 16  1  0
 16 17  1  0
 17 18  1  0
 18 19  1  0
 18 20  2  0
 20 21  1  0
 21 22  1  0
 21 23  2  0
 23 24  1  0
  9 25  1  0
  6 26  1  0
 26 27  2  0
 26  2  1  0
 25  5  1  0
 24 13  1  0
 24 17  2  0
  1 28  1  0
  1 29  1  0
  1 30  1  0
  3 31  1  0
  7 32  1  0
  7 33  1  0
  8 34  1  0
  8 35  1  0
 12 36  1  0
 13 37  1  0
 14 38  1  0
 14 39  1  0
 15 40  1  0
 15 41  1  0
 16 42  1  0
 16 43  1  0
 20 44  1  0
 23 45  1  0
 25 46  1  0
 25 47  1  0
M  END
$$$$
OCNT-2317216
     RDKit          3D

 44 46  0  0  0  0  0  0  0  0999 V2000
   -1.0939   -0.0195   -1.5840 O   0  0  0  0  0  0  0  0  0  0  0  0
   -1.4146    0.3763   -0.4646 C   0  0  0  0  0  0  0  0  0  0  0  0
   -2.6562   -0.1392    0.2295 C   0  0  0  0  0  0  0  0  0  0  0  0
   -3.2847   -1.2743   -0.5678 C   0  0  0  0  0  0  0  0  0  0  0  0
   -4.5192   -1.7333    0.0294 N   0  0  0  0  0  0  0  0  0  0  0  0
   -5.7813   -1.6452   -0.4748 C   0  0  0  0  0  0  0  0  0  0  0  0
   -6.5613   -2.2185    0.4999 C   0  0  0  0  0  0  0  0  0  0  0  0
   -5.7710   -2.6214    1.5386 N   0  0  0  0  0  0  0  0  0  0  0  0
   -4.5142   -2.3214    1.2380 N   0  0  0  0  0  0  0  0  0  0  0  0
   -0.6790    1.3186    0.2268 N   0  0  0  0  0  0  0  0  0  0  0  0
   -1.1238    2.0180    1.4269 C   0  0  0  0  0  0  0  0  0  0  0  0
   -0.0303    3.0327    1.7217 C   0  0  0  0  0  0  0  0  0  0  0  0
    0.5491    3.3154    0.3408 C   0  0  0  0  0  0  0  0  0  0  0  0
    0.5181    1.9416   -0.3444 C   0  0  0  0  0  0  0  0  0  0  0  0
    1.8042    1.1491   -0.0408 C   0  0  0  0  0  0  0  0  0  0  0  0
    1.9034   -0.1786   -0.7969 C   0  0  0  0  0  0  0  0  0  0  0  0
    3.2537   -0.8249   -0.5941 C   0  0  0  0  0  0  0  0  0  0  0  0
    3.4919   -1.6359    0.5237 C   0  0  0  0  0  0  0  0  0  0  0  0
    4.7451   -2.2176    0.7210 C   0  0  0  0  0  0  0  0  0  0  0  0
    5.7717   -1.9911   -0.1939 C   0  0  0  0  0  0  0  0  0  0  0  0
    5.5465   -1.1822   -1.3063 C   0  0  0  0  0  0  0  0  0  0  0  0
    4.2938   -0.5996   -1.5054 C   0  0  0  0  0  0  0  0  0  0  0  0
   -3.3709    0.6853    0.3327 H   0  0  0  0  0  0  0  0  0  0  0  0
   -2.3847   -0.4918    1.2307 H   0  0  0  0  0  0  0  0  0  0  0  0
   -2.6131   -2.1388   -0.6284 H   0  0  0  0  0  0  0  0  0  0  0  0
   -3.5121   -0.9588   -1.5929 H   0  0  0  0  0  0  0  0  0  0  0  0
   -6.0072   -1.2082   -1.4358 H   0  0  0  0  0  0  0  0  0  0  0  0
   -7.6319   -2.3622    0.5136 H   0  0  0  0  0  0  0  0  0  0  0  0
   -2.0735    2.5158    1.2029 H   0  0  0  0  0  0  0  0  0  0  0  0
   -1.2734    1.3135    2.2497 H   0  0  0  0  0  0  0  0  0  0  0  0
    0.7346    2.5902    2.3701 H   0  0  0  0  0  0  0  0  0  0  0  0
   -0.4139    3.9303    2.2148 H   0  0  0  0  0  0  0  0  0  0  0  0
    1.5450    3.7657    0.3827 H   0  0  0  0  0  0  0  0  0  0  0  0
   -0.1128    4.0087   -0.1936 H   0  0  0  0  0  0  0  0  0  0  0  0
    0.4032    2.0589   -1.4282 H   0  0  0  0  0  0  0  0  0  0  0  0
    1.8881    0.9556    1.0364 H   0  0  0  0  0  0  0  0  0  0  0  0
    2.6665    1.7734   -0.3112 H   0  0  0  0  0  0  0  0  0  0  0  0
    1.7330   -0.0210   -1.8690 H   0  0  0  0  0  0  0  0  0  0  0  0
    1.1297   -0.8763   -0.4570 H   0  0  0  0  0  0  0  0  0  0  0  0
    2.6998   -1.8202    1.2458 H   0  0  0  0  0  0  0  0  0  0  0  0
    4.9197   -2.8484    1.5885 H   0  0  0  0  0  0  0  0  0  0  0  0
    6.7468   -2.4454   -0.0404 H   0  0  0  0  0  0  0  0  0  0  0  0
    6.3465   -1.0052   -2.0202 H   0  0  0  0  0  0  0  0  0  0  0  0
    4.1326    0.0300   -2.3773 H   0  0  0  0  0  0  0  0  0  0  0  0
  1  2  2  0
  2  3  1  0
  3  4  1  0
  4  5  1  0
  5  6  1  0
  6  7  2  0
  7  8  1  0
  8  9  2  0
  2 10  1  0
 10 11  1  0
 11 12  1  0
 12 13  1  0
 13 14  1  0
 14 15  1  0
 15 16  1  0
 16 17  1  0
 17 18  2  0
 18 19  1  0
 19 20  2  0
 20 21  1  0
 21 22  2  0
  9  5  1  0
 14 10  1  0
 22 17  1  0
  3 23  1  0
  3 24  1  0
  4 25  1  0
  4 26  1  0
  6 27  1  0
  7 28  1  0
 11 29  1  0
 11 30  1  0
 12 31  1  0
 12 32  1  0
 13 33  1  0
 13 34  1  0
 14 35  1  0
 15 36  1  0
 15 37  1  0
 16 38  1  0
 16 39  1  0
 18 40  1  0
 19 41  1  0
 20 42  1  0
 21 43  1  0
 22 44  1  0
M  END
$$$$
OCNT-2317221
     RDKit          3D

 44 48  0  0  0  0  0  0  0  0999 V2000
   -5.5621    3.1094    2.0739 C   0  0  0  0  0  0  0  0  0  0  0  0
   -4.2954    2.5369    2.3827 O   0  0  0  0  0  0  0  0  0  0  0  0
   -3.9442    1.5111    1.5267 C   0  0  0  0  0  0  0  0  0  0  0  0
   -2.7210    0.9160    1.7618 C   0  0  0  0  0  0  0  0  0  0  0  0
   -2.3119   -0.1344    0.9325 C   0  0  0  0  0  0  0  0  0  0  0  0
   -0.9741   -0.7872    1.2016 C   0  0  0  0  0  0  0  0  0  0  0  0
   -0.0126   -0.3407    0.2138 N   0  0  0  0  0  0  0  0  0  0  0  0
    1.2913   -0.8020    0.4092 C   0  0  0  0  0  0  0  0  0  0  0  0
    1.5247   -2.0144    0.9776 N   0  0  0  0  0  0  0  0  0  0  0  0
    2.8016   -2.4307    1.1275 C   0  0  0  0  0  0  0  0  0  0  0  0
    3.9348   -1.7881    0.7893 N   0  0  0  0  0  0  0  0  0  0  0  0
    3.6591   -0.5946    0.2357 C   0  0  0  0  0  0  0  0  0  0  0  0
    2.4076   -0.0371    0.0180 C   0  0  0  0  0  0  0  0  0  0  0  0
    2.5113    1.2238   -0.5481 N   0  0  0  0  0  0  0  0  0  0  0  0
    3.8079    1.4212   -0.6829 C   0  0  0  0  0  0  0  0  0  0  0  0
    4.5244    0.3475   -0.2401 N   0  0  0  0  0  0  0  0  0  0  0  0
    5.9959    0.2578   -0.2122 C   0  0  0  0  0  0  0  0  0  0  0  0
    6.7438   -0.8211   -0.9590 C   0  0  0  0  0  0  0  0  0  0  0  0
    6.8545    0.6056   -1.4060 C   0  0  0  0  0  0  0  0  0  0  0  0
   -3.1600   -0.5328   -0.1327 C   0  0  0  0  0  0  0  0  0  0  0  0
   -2.8430   -1.5599   -1.0536 C   0  0  0  0  0  0  0  0  0  0  0  0
   -3.7218   -1.9117   -2.0772 C   0  0  0  0  0  0  0  0  0  0  0  0
   -4.9308   -1.2437   -2.2004 C   0  0  0  0  0  0  0  0  0  0  0  0
   -5.2502   -0.2242   -1.3017 C   0  0  0  0  0  0  0  0  0  0  0  0
   -4.3926    0.1475   -0.2749 C   0  0  0  0  0  0  0  0  0  0  0  0
   -4.7794    1.1436    0.5373 N   0  0  0  0  0  0  0  0  0  0  0  0
   -5.5626    3.5578    1.0742 H   0  0  0  0  0  0  0  0  0  0  0  0
   -5.7505    3.9094    2.7964 H   0  0  0  0  0  0  0  0  0  0  0  0
   -6.3667    2.3729    2.1765 H   0  0  0  0  0  0  0  0  0  0  0  0
   -2.1025    1.2676    2.5809 H   0  0  0  0  0  0  0  0  0  0  0  0
   -0.6329   -0.5239    2.2119 H   0  0  0  0  0  0  0  0  0  0  0  0
   -1.0972   -1.8775    1.1892 H   0  0  0  0  0  0  0  0  0  0  0  0
   -0.0082    0.6611    0.0308 H   0  0  0  0  0  0  0  0  0  0  0  0
    2.9278   -3.4101    1.5806 H   0  0  0  0  0  0  0  0  0  0  0  0
    4.2751    2.3083   -1.0889 H   0  0  0  0  0  0  0  0  0  0  0  0
    6.3904    0.5218    0.7658 H   0  0  0  0  0  0  0  0  0  0  0  0
    7.5978   -1.2740   -0.4679 H   0  0  0  0  0  0  0  0  0  0  0  0
    6.1775   -1.5091   -1.5775 H   0  0  0  0  0  0  0  0  0  0  0  0
    7.7905    1.1221   -1.2246 H   0  0  0  0  0  0  0  0  0  0  0  0
    6.3769    0.8732   -2.3420 H   0  0  0  0  0  0  0  0  0  0  0  0
   -1.8944   -2.0897   -0.9898 H   0  0  0  0  0  0  0  0  0  0  0  0
   -3.4563   -2.7010   -2.7757 H   0  0  0  0  0  0  0  0  0  0  0  0
   -5.6249   -1.5060   -2.9941 H   0  0  0  0  0  0  0  0  0  0  0  0
   -6.1977    0.2993   -1.4077 H   0  0  0  0  0  0  0  0  0  0  0  0
  1  2  1  0
  2  3  1  0
  3  4  1  0
  4  5  2  0
  5  6  1  0
  6  7  1  0
  7  8  1  0
  8  9  1  0
  9 10  2  0
 10 11  1  0
 11 12  2  0
 12 13  1  0
 13 14  1  0
 14 15  2  0
 15 16  1  0
 16 17  1  0
 17 18  1  0
 18 19  1  0
  5 20  1  0
 20 21  2  0
 21 22  1  0
 22 23  2  0
 23 24  1  0
 24 25  2  0
 25 26  1  0
 26  3  2  0
 13  8  2  0
 19 17  1  0
 25 20  1  0
 16 12  1  0
  1 27  1  0
  1 28  1  0
  1 29  1  0
  4 30  1  0
  6 31  1  0
  6 32  1  0
  7 33  1  0
 10 34  1  0
 15 35  1  0
 17 36  1  0
 18 37  1  0
 18 38  1  0
 19 39  1  0
 19 40  1  0
 21 41  1  0
 22 42  1  0
 23 43  1  0
 24 44  1  0
M  END
$$$$
OCNT-2317227
     RDKit          3D

 56 58  0  0  0  0  0  0  0  0999 V2000
   -1.7707   -2.3048    2.1786 C   0  0  0  0  0  0  0  0  0  0  0  0
   -1.8349   -0.8324    1.8625 C   0  0  0  0  0  0  0  0  0  0  0  0
   -1.6653    0.0514    2.9450 C   0  0  0  0  0  0  0  0  0  0  0  0
   -1.7136    1.4320    2.7665 C   0  0  0  0  0  0  0  0  0  0  0  0
   -1.9385    1.9565    1.5015 C   0  0  0  0  0  0  0  0  0  0  0  0
   -2.1078    1.1077    0.3955 C   0  0  0  0  0  0  0  0  0  0  0  0
   -2.3499    1.7618   -0.9452 C   0  0  0  0  0  0  0  0  0  0  0  0
   -2.0254   -0.3096    0.5536 C   0  0  0  0  0  0  0  0  0  0  0  0
   -2.1611   -1.1822   -0.6955 C   0  0  0  0  0  0  0  0  0  0  0  0
   -3.6092   -1.6520   -0.9357 C   0  0  0  0  0  0  0  0  0  0  0  0
   -3.5406   -3.1719   -0.9282 C   0  0  0  0  0  0  0  0  0  0  0  0
   -2.1129   -3.4748   -1.3445 C   0  0  0  0  0  0  0  0  0  0  0  0
   -1.3354   -2.3864   -0.7927 N   0  0  0  0  0  0  0  0  0  0  0  0
    0.0262   -2.3811   -1.0343 C   0  0  0  0  0  0  0  0  0  0  0  0
    0.5919   -3.2686   -1.6734 O   0  0  0  0  0  0  0  0  0  0  0  0
    0.6951   -1.3114   -0.4827 N   0  0  0  0  0  0  0  0  0  0  0  0
    2.1393   -1.2708   -0.5543 C   0  0  0  0  0  0  0  0  0  0  0  0
    2.6547   -0.3771    0.5327 C   0  0  0  0  0  0  0  0  0  0  0  0
    3.2385   -0.8139    1.6370 N   0  0  0  0  0  0  0  0  0  0  0  0
    3.5327    0.2980    2.3782 C   0  0  0  0  0  0  0  0  0  0  0  0
    3.1182    1.4341    1.7285 C   0  0  0  0  0  0  0  0  0  0  0  0
    2.5750    0.9991    0.5434 N   0  0  0  0  0  0  0  0  0  0  0  0
    1.9929    1.8645   -0.4681 C   0  0  0  0  0  0  0  0  0  0  0  0
    3.0370    2.6346   -1.2937 C   0  0  0  0  0  0  0  0  0  0  0  0
    3.9131    1.6989   -2.1315 C   0  0  0  0  0  0  0  0  0  0  0  0
    2.3377    3.6387   -2.2063 C   0  0  0  0  0  0  0  0  0  0  0  0
   -0.8620   -2.7582    1.7725 H   0  0  0  0  0  0  0  0  0  0  0  0
   -1.7516   -2.4768    3.2595 H   0  0  0  0  0  0  0  0  0  0  0  0
   -2.6573   -2.8206    1.8069 H   0  0  0  0  0  0  0  0  0  0  0  0
   -1.4933   -0.3373    3.9508 H   0  0  0  0  0  0  0  0  0  0  0  0
   -1.5840    2.0958    3.6176 H   0  0  0  0  0  0  0  0  0  0  0  0
   -1.9880    3.0383    1.3781 H   0  0  0  0  0  0  0  0  0  0  0  0
   -1.4581    1.6759   -1.5747 H   0  0  0  0  0  0  0  0  0  0  0  0
   -3.2078    1.3062   -1.4512 H   0  0  0  0  0  0  0  0  0  0  0  0
   -2.5824    2.8288   -0.8364 H   0  0  0  0  0  0  0  0  0  0  0  0
   -1.8493   -0.5941   -1.5665 H   0  0  0  0  0  0  0  0  0  0  0  0
   -4.3281   -1.2740   -0.1969 H   0  0  0  0  0  0  0  0  0  0  0  0
   -3.9452   -1.3050   -1.9205 H   0  0  0  0  0  0  0  0  0  0  0  0
   -3.7303   -3.5468    0.0773 H   0  0  0  0  0  0  0  0  0  0  0  0
   -4.2733   -3.6312   -1.5862 H   0  0  0  0  0  0  0  0  0  0  0  0
   -1.7470   -4.4424   -0.9721 H   0  0  0  0  0  0  0  0  0  0  0  0
   -2.0109   -3.4591   -2.4398 H   0  0  0  0  0  0  0  0  0  0  0  0
    0.3155   -1.0341    0.4286 H   0  0  0  0  0  0  0  0  0  0  0  0
    2.5427   -2.2871   -0.4052 H   0  0  0  0  0  0  0  0  0  0  0  0
    2.4357   -0.9308   -1.5576 H   0  0  0  0  0  0  0  0  0  0  0  0
    4.0232    0.2134    3.3412 H   0  0  0  0  0  0  0  0  0  0  0  0
    3.1684    2.4780    2.0012 H   0  0  0  0  0  0  0  0  0  0  0  0
    1.3439    1.2664   -1.1190 H   0  0  0  0  0  0  0  0  0  0  0  0
    1.3432    2.5648    0.0693 H   0  0  0  0  0  0  0  0  0  0  0  0
    3.6931    3.1903   -0.6151 H   0  0  0  0  0  0  0  0  0  0  0  0
    4.4592    0.9913   -1.5053 H   0  0  0  0  0  0  0  0  0  0  0  0
    3.3161    1.1348   -2.8490 H   0  0  0  0  0  0  0  0  0  0  0  0
    4.6570    2.2696   -2.6923 H   0  0  0  0  0  0  0  0  0  0  0  0
    1.6705    3.1412   -2.9102 H   0  0  0  0  0  0  0  0  0  0  0  0
    3.0689    4.2111   -2.7815 H   0  0  0  0  0  0  0  0  0  0  0  0
    1.7440    4.3516   -1.6262 H   0  0  0  0  0  0  0  0  0  0  0  0
  1  2  1  0
  2  3  1  0
  3  4  2  0
  4  5  1  0
  5  6  2  0
  6  7  1  0
  6  8  1  0
  8  9  1  0
  9 10  1  0
 10 11  1  0
 11 12  1  0
 12 13  1  0
 13 14  1  0
 14 15  2  0
 14 16  1  0
 16 17  1  0
 17 18  1  0
 18 19  2  0
 19 20  1  0
 20 21  2  0
 21 22  1  0
 22 23  1  0
 23 24  1  0
 24 25  1  0
 24 26  1  0
  8  2  2  0
 13  9  1  0
 22 18  1  0
  1 27  1  0
  1 28  1  0
  1 29  1  0
  3 30  1  0
  4 31  1  0
  5 32  1  0
  7 33  1  0
  7 34  1  0
  7 35  1  0
  9 36  1  0
 10 37  1  0
 10 38  1  0
 11 39  1  0
 11 40  1  0
 12 41  1  0
 12 42  1  0
 16 43  1  0
 17 44  1  0
 17 45  1  0
 20 46  1  0
 21 47  1  0
 23 48  1  0
 23 49  1  0
 24 50  1  0
 25 51  1  0
 25 52  1  0
 25 53  1  0
 26 54  1  0
 26 55  1  0
 26 56  1  0
M  END
$$$$
OCNT-2317229
     RDKit          3D

 53 54  0  0  0  0  0  0  0  0999 V2000
   -3.6755    1.9213   -0.3717 C   0  0  0  0  0  0  0  0  0  0  0  0
   -4.8428    1.4710   -1.2509 C   0  0  0  0  0  0  0  0  0  0  0  0
   -5.0929    2.5131   -2.3436 C   0  0  0  0  0  0  0  0  0  0  0  0
   -4.5872    0.0895   -1.8918 C   0  0  0  0  0  0  0  0  0  0  0  0
   -4.5324   -1.0658   -0.9103 C   0  0  0  0  0  0  0  0  0  0  0  0
   -5.6916   -1.3575   -0.1673 C   0  0  0  0  0  0  0  0  0  0  0  0
   -5.7196   -2.3999    0.7598 C   0  0  0  0  0  0  0  0  0  0  0  0
   -4.5864   -3.1796    0.9603 C   0  0  0  0  0  0  0  0  0  0  0  0
   -3.4343   -2.9205    0.2242 C   0  0  0  0  0  0  0  0  0  0  0  0
   -3.3897   -1.8794   -0.7262 C   0  0  0  0  0  0  0  0  0  0  0  0
   -2.0795   -1.6722   -1.4529 C   0  0  0  0  0  0  0  0  0  0  0  0
   -1.2800   -0.6694   -0.7834 N   0  0  0  0  0  0  0  0  0  0  0  0
    0.0894   -0.8143   -0.6934 C   0  0  0  0  0  0  0  0  0  0  0  0
    0.6973   -1.7457   -1.2036 O   0  0  0  0  0  0  0  0  0  0  0  0
    0.6328    0.2232    0.0360 N   0  0  0  0  0  0  0  0  0  0  0  0
    1.9535    0.3303    0.5108 C   0  0  0  0  0  0  0  0  0  0  0  0
    2.8560   -0.7360    0.5164 C   0  0  0  0  0  0  0  0  0  0  0  0
    4.1465   -0.5714    1.0314 C   0  0  0  0  0  0  0  0  0  0  0  0
    4.5488    0.6732    1.5237 C   0  0  0  0  0  0  0  0  0  0  0  0
    5.9000    0.8586    2.1050 C   0  0  0  0  0  0  0  0  0  0  0  0
    5.9708    1.3844    3.2131 O   0  0  0  0  0  0  0  0  0  0  0  0
    7.0130    0.4174    1.3886 N   0  0  0  0  0  0  0  0  0  0  0  0
    7.0261    0.1693   -0.0487 C   0  0  0  0  0  0  0  0  0  0  0  0
    8.2977    0.3912    2.0629 C   0  0  0  0  0  0  0  0  0  0  0  0
    3.6440    1.7348    1.5556 C   0  0  0  0  0  0  0  0  0  0  0  0
    2.3503    1.5618    1.0500 C   0  0  0  0  0  0  0  0  0  0  0  0
   -2.7460    1.9889   -0.9459 H   0  0  0  0  0  0  0  0  0  0  0  0
   -3.8771    2.9082    0.0571 H   0  0  0  0  0  0  0  0  0  0  0  0
   -3.5163    1.2323    0.4615 H   0  0  0  0  0  0  0  0  0  0  0  0
   -5.7422    1.4303   -0.6262 H   0  0  0  0  0  0  0  0  0  0  0  0
   -4.2339    2.6010   -3.0132 H   0  0  0  0  0  0  0  0  0  0  0  0
   -5.2860    3.4967   -1.9065 H   0  0  0  0  0  0  0  0  0  0  0  0
   -5.9665    2.2422   -2.9456 H   0  0  0  0  0  0  0  0  0  0  0  0
   -5.3892   -0.1354   -2.6083 H   0  0  0  0  0  0  0  0  0  0  0  0
   -3.6767    0.1514   -2.4930 H   0  0  0  0  0  0  0  0  0  0  0  0
   -6.5945   -0.7661   -0.3089 H   0  0  0  0  0  0  0  0  0  0  0  0
   -6.6237   -2.6006    1.3289 H   0  0  0  0  0  0  0  0  0  0  0  0
   -4.6002   -3.9904    1.6828 H   0  0  0  0  0  0  0  0  0  0  0  0
   -2.5536   -3.5384    0.3995 H   0  0  0  0  0  0  0  0  0  0  0  0
   -1.5343   -2.6206   -1.5145 H   0  0  0  0  0  0  0  0  0  0  0  0
   -2.2380   -1.3549   -2.4881 H   0  0  0  0  0  0  0  0  0  0  0  0
   -1.7135   -0.2290    0.0084 H   0  0  0  0  0  0  0  0  0  0  0  0
    0.0502    1.0435    0.1074 H   0  0  0  0  0  0  0  0  0  0  0  0
    2.5744   -1.7187    0.1499 H   0  0  0  0  0  0  0  0  0  0  0  0
    4.8232   -1.4224    1.0567 H   0  0  0  0  0  0  0  0  0  0  0  0
    7.8701    0.7036   -0.4948 H   0  0  0  0  0  0  0  0  0  0  0  0
    6.1202    0.5227   -0.5395 H   0  0  0  0  0  0  0  0  0  0  0  0
    7.1535   -0.9071   -0.2159 H   0  0  0  0  0  0  0  0  0  0  0  0
    8.8878    1.2463    1.7273 H   0  0  0  0  0  0  0  0  0  0  0  0
    8.8092   -0.5398    1.8049 H   0  0  0  0  0  0  0  0  0  0  0  0
    8.1877    0.4373    3.1533 H   0  0  0  0  0  0  0  0  0  0  0  0
    3.9385    2.6895    1.9852 H   0  0  0  0  0  0  0  0  0  0  0  0
    1.6628    2.4018    1.0835 H   0  0  0  0  0  0  0  0  0  0  0  0
  1  2  1  0
  2  3  1  0
  2  4  1  0
  4  5  1  0
  5  6  2  0
  6  7  1  0
  7  8  2  0
  8  9  1  0
  9 10  2  0
 10 11  1  0
 11 12  1  0
 12 13  1  0
 13 14  2  0
 13 15  1  0
 15 16  1  0
 16 17  1  0
 17 18  2  0
 18 19  1  0
 19 20  1  0
 20 21  2  0
 20 22  1  0
 22 23  1  0
 22 24  1  0
 19 25  2  0
 25 26  1  0
 10  5  1  0
 26 16  2  0
  1 27  1  0
  1 28  1  0
  1 29  1  0
  2 30  1  0
  3 31  1  0
  3 32  1  0
  3 33  1  0
  4 34  1  0
  4 35  1  0
  6 36  1  0
  7 37  1  0
  8 38  1  0
  9 39  1  0
 11 40  1  0
 11 41  1  0
 12 42  1  0
 15 43  1  0
 17 44  1  0
 18 45  1  0
 23 46  1  0
 23 47  1  0
 23 48  1  0
 24 49  1  0
 24 50  1  0
 24 51  1  0
 25 52  1  0
 26 53  1  0
M  END
$$$$
OCNT-2317255
     RDKit          3D

 47 49  0  0  0  0  0  0  0  0999 V2000
    7.2019    1.9308    1.0687 C   0  0  0  0  0  0  0  0  0  0  0  0
    6.2222    1.1185    1.7025 O   0  0  0  0  0  0  0  0  0  0  0  0
    5.1974    0.6619    0.9203 C   0  0  0  0  0  0  0  0  0  0  0  0
    4.2809   -0.1596    1.5797 C   0  0  0  0  0  0  0  0  0  0  0  0
    3.1846   -0.6942    0.8997 C   0  0  0  0  0  0  0  0  0  0  0  0
    2.9882   -0.4143   -0.4583 C   0  0  0  0  0  0  0  0  0  0  0  0
    1.7903   -0.9785   -1.1869 C   0  0  0  0  0  0  0  0  0  0  0  0
    0.5583   -0.2750   -0.8388 N   0  0  0  0  0  0  0  0  0  0  0  0
    0.3875    1.0639   -1.3888 C   0  0  0  0  0  0  0  0  0  0  0  0
   -0.3080   -0.8784    0.0555 C   0  0  0  0  0  0  0  0  0  0  0  0
   -0.1961   -2.0450    0.4222 O   0  0  0  0  0  0  0  0  0  0  0  0
   -1.3154   -0.0668    0.5136 N   0  0  0  0  0  0  0  0  0  0  0  0
   -2.3165   -0.5781    1.4235 C   0  0  0  0  0  0  0  0  0  0  0  0
   -3.4389   -1.2709    0.6966 C   0  0  0  0  0  0  0  0  0  0  0  0
   -3.5836   -2.6529    0.9450 C   0  0  0  0  0  0  0  0  0  0  0  0
   -4.5218   -3.4160    0.2625 C   0  0  0  0  0  0  0  0  0  0  0  0
   -5.2997   -2.7821   -0.6773 C   0  0  0  0  0  0  0  0  0  0  0  0
   -5.2027   -1.4666   -0.9532 N   0  0  0  0  0  0  0  0  0  0  0  0
   -4.2941   -0.7095   -0.2647 C   0  0  0  0  0  0  0  0  0  0  0  0
   -4.3036    0.6737   -0.6345 N   0  0  0  0  0  0  0  0  0  0  0  0
   -3.8306    1.7955    0.0099 C   0  0  0  0  0  0  0  0  0  0  0  0
   -4.1095    2.8631   -0.8121 C   0  0  0  0  0  0  0  0  0  0  0  0
   -4.7650    2.4549   -1.9334 N   0  0  0  0  0  0  0  0  0  0  0  0
   -4.8982    1.1543   -1.7883 C   0  0  0  0  0  0  0  0  0  0  0  0
    3.9077    0.4131   -1.1163 C   0  0  0  0  0  0  0  0  0  0  0  0
    5.0061    0.9469   -0.4317 C   0  0  0  0  0  0  0  0  0  0  0  0
    7.7109    1.3844    0.2678 H   0  0  0  0  0  0  0  0  0  0  0  0
    6.7613    2.8611    0.6955 H   0  0  0  0  0  0  0  0  0  0  0  0
    7.9526    2.1962    1.8194 H   0  0  0  0  0  0  0  0  0  0  0  0
    4.4223   -0.3873    2.6334 H   0  0  0  0  0  0  0  0  0  0  0  0
    2.4828   -1.3327    1.4338 H   0  0  0  0  0  0  0  0  0  0  0  0
    1.9277   -0.9130   -2.2731 H   0  0  0  0  0  0  0  0  0  0  0  0
    1.7124   -2.0481   -0.9590 H   0  0  0  0  0  0  0  0  0  0  0  0
    0.9322    1.7749   -0.7613 H   0  0  0  0  0  0  0  0  0  0  0  0
    0.7797    1.0957   -2.4096 H   0  0  0  0  0  0  0  0  0  0  0  0
   -0.6673    1.3486   -1.4235 H   0  0  0  0  0  0  0  0  0  0  0  0
   -1.0371    0.8925    0.6474 H   0  0  0  0  0  0  0  0  0  0  0  0
   -1.8228   -1.2581    2.1294 H   0  0  0  0  0  0  0  0  0  0  0  0
   -2.7005    0.2335    2.0454 H   0  0  0  0  0  0  0  0  0  0  0  0
   -2.9273   -3.1543    1.6559 H   0  0  0  0  0  0  0  0  0  0  0  0
   -4.6213   -4.4796    0.4460 H   0  0  0  0  0  0  0  0  0  0  0  0
   -6.0409   -3.3265   -1.2550 H   0  0  0  0  0  0  0  0  0  0  0  0
   -3.3896    1.7886    0.9885 H   0  0  0  0  0  0  0  0  0  0  0  0
   -3.8905    3.9089   -0.6383 H   0  0  0  0  0  0  0  0  0  0  0  0
   -5.3938    0.4957   -2.4905 H   0  0  0  0  0  0  0  0  0  0  0  0
    3.7765    0.6499   -2.1699 H   0  0  0  0  0  0  0  0  0  0  0  0
    5.6911    1.5811   -0.9842 H   0  0  0  0  0  0  0  0  0  0  0  0
  1  2  1  0
  2  3  1  0
  3  4  1  0
  4  5  2  0
  5  6  1  0
  6  7  1  0
  7  8  1  0
  8  9  1  0
  8 10  1  0
 10 11  2  0
 10 12  1  0
 12 13  1  0
 13 14  1  0
 14 15  1  0
 15 16  2  0
 16 17  1  0
 17 18  2  0
 18 19  1  0
 19 20  1  0
 20 21  1  0
 21 22  2  0
 22 23  1  0
 23 24  2  0
  6 25  2  0
 25 26  1  0
 26  3  2  0
 19 14  2  0
 24 20  1  0
  1 27  1  0
  1 28  1  0
  1 29  1  0
  4 30  1  0
  5 31  1  0
  7 32  1  0
  7 33  1  0
  9 34  1  0
  9 35  1  0
  9 36  1  0
 12 37  1  0
 13 38  1  0
 13 39  1  0
 15 40  1  0
 16 41  1  0
 17 42  1  0
 21 43  1  0
 22 44  1  0
 24 45  1  0
 25 46  1  0
 26 47  1  0
M  END
$$$$
OCNT-2317262
     RDKit          3D

 59 61  0  0  0  0  0  0  0  0999 V2000
   -5.9842    0.9578   -1.6154 C   0  0  0  0  0  0  0  0  0  0  0  0
   -5.8458    0.1892   -0.2936 C   0  0  0  0  0  0  0  0  0  0  0  0
   -7.2338    0.1395    0.3781 C   0  0  0  0  0  0  0  0  0  0  0  0
   -7.1932   -0.5832    1.7186 C   0  0  0  0  0  0  0  0  0  0  0  0
   -6.1240    0.0271    2.6117 C   0  0  0  0  0  0  0  0  0  0  0  0
   -4.7742    0.0684    1.8982 C   0  0  0  0  0  0  0  0  0  0  0  0
   -4.8602    0.7988    0.6222 N   0  0  0  0  0  0  0  0  0  0  0  0
   -3.5157    1.0113    0.0526 C   0  0  0  0  0  0  0  0  0  0  0  0
   -2.7774   -0.2275   -0.4958 C   0  0  0  0  0  0  0  0  0  0  0  0
   -1.4736    0.1092   -1.0435 N   0  0  0  0  0  0  0  0  0  0  0  0
   -0.3773    0.2998   -0.2264 C   0  0  0  0  0  0  0  0  0  0  0  0
   -0.4221    0.1283    0.9868 O   0  0  0  0  0  0  0  0  0  0  0  0
    0.8848    0.7161   -0.9798 C   0  0  0  0  0  0  0  0  0  0  0  0
    1.3851   -0.4222   -1.8781 C   0  0  0  0  0  0  0  0  0  0  0  0
    1.9880   -1.5866   -1.0815 C   0  0  0  0  0  0  0  0  0  0  0  0
    2.6082   -1.1574    0.2498 C   0  0  0  0  0  0  0  0  0  0  0  0
    3.0673    0.2263    0.1705 N   0  0  0  0  0  0  0  0  0  0  0  0
    4.3932    0.6394    0.0371 C   0  0  0  0  0  0  0  0  0  0  0  0
    4.6775    1.7668   -0.3596 O   0  0  0  0  0  0  0  0  0  0  0  0
    5.3206   -0.3104    0.4012 N   0  0  0  0  0  0  0  0  0  0  0  0
    6.7164   -0.2613    0.2044 C   0  0  0  0  0  0  0  0  0  0  0  0
    7.4985   -1.1924    0.9001 C   0  0  0  0  0  0  0  0  0  0  0  0
    8.8870   -1.2148    0.7439 C   0  0  0  0  0  0  0  0  0  0  0  0
    9.5053   -0.3106   -0.1156 C   0  0  0  0  0  0  0  0  0  0  0  0
    8.7346    0.6109   -0.8205 C   0  0  0  0  0  0  0  0  0  0  0  0
    7.3450    0.6330   -0.6643 C   0  0  0  0  0  0  0  0  0  0  0  0
    1.9972    1.2115   -0.0360 C   0  0  0  0  0  0  0  0  0  0  0  0
   -6.2086    2.0159   -1.4397 H   0  0  0  0  0  0  0  0  0  0  0  0
   -5.0741    0.8962   -2.2199 H   0  0  0  0  0  0  0  0  0  0  0  0
   -6.7961    0.5407   -2.2218 H   0  0  0  0  0  0  0  0  0  0  0  0
   -5.5475   -0.8411   -0.5289 H   0  0  0  0  0  0  0  0  0  0  0  0
   -7.6126    1.1591    0.5303 H   0  0  0  0  0  0  0  0  0  0  0  0
   -7.9500   -0.3690   -0.2789 H   0  0  0  0  0  0  0  0  0  0  0  0
   -8.1715   -0.5232    2.2080 H   0  0  0  0  0  0  0  0  0  0  0  0
   -6.9773   -1.6463    1.5571 H   0  0  0  0  0  0  0  0  0  0  0  0
   -6.4205    1.0435    2.9003 H   0  0  0  0  0  0  0  0  0  0  0  0
   -6.0370   -0.5552    3.5361 H   0  0  0  0  0  0  0  0  0  0  0  0
   -4.4182   -0.9572    1.7405 H   0  0  0  0  0  0  0  0  0  0  0  0
   -4.0584    0.5628    2.5663 H   0  0  0  0  0  0  0  0  0  0  0  0
   -3.5808    1.7649   -0.7425 H   0  0  0  0  0  0  0  0  0  0  0  0
   -2.8878    1.4957    0.8127 H   0  0  0  0  0  0  0  0  0  0  0  0
   -3.3408   -0.6931   -1.3098 H   0  0  0  0  0  0  0  0  0  0  0  0
   -2.6349   -0.9746    0.2918 H   0  0  0  0  0  0  0  0  0  0  0  0
   -1.4264    0.4106   -2.0085 H   0  0  0  0  0  0  0  0  0  0  0  0
    0.5851    1.5648   -1.6102 H   0  0  0  0  0  0  0  0  0  0  0  0
    2.1601   -0.0185   -2.5436 H   0  0  0  0  0  0  0  0  0  0  0  0
    0.5937   -0.8034   -2.5335 H   0  0  0  0  0  0  0  0  0  0  0  0
    1.2240   -2.3489   -0.8871 H   0  0  0  0  0  0  0  0  0  0  0  0
    2.7506   -2.0704   -1.7045 H   0  0  0  0  0  0  0  0  0  0  0  0
    1.8686   -1.2121    1.0563 H   0  0  0  0  0  0  0  0  0  0  0  0
    3.4032   -1.8594    0.5088 H   0  0  0  0  0  0  0  0  0  0  0  0
    5.0035   -0.9643    1.0981 H   0  0  0  0  0  0  0  0  0  0  0  0
    7.0402   -1.9092    1.5760 H   0  0  0  0  0  0  0  0  0  0  0  0
    9.4844   -1.9369    1.2938 H   0  0  0  0  0  0  0  0  0  0  0  0
   10.5850   -0.3239   -0.2382 H   0  0  0  0  0  0  0  0  0  0  0  0
    9.2109    1.3172   -1.4958 H   0  0  0  0  0  0  0  0  0  0  0  0
    6.7766    1.3575   -1.2398 H   0  0  0  0  0  0  0  0  0  0  0  0
    1.6137    1.4765    0.9556 H   0  0  0  0  0  0  0  0  0  0  0  0
    2.4159    2.1344   -0.4522 H   0  0  0  0  0  0  0  0  0  0  0  0
  1  2  1  0
  2  3  1  0
  3  4  1  0
  4  5  1  0
  5  6  1  0
  6  7  1  0
  7  8  1  0
  8  9  1  0
  9 10  1  0
 10 11  1  0
 11 12  2  0
 11 13  1  0
 13 14  1  0
 14 15  1  0
 15 16  1  0
 16 17  1  0
 17 18  1  0
 18 19  2  0
 18 20  1  0
 20 21  1  0
 21 22  2  0
 22 23  1  0
 23 24  2  0
 24 25  1  0
 25 26  2  0
 17 27  1  0
  7  2  1  0
 27 13  1  0
 26 21  1  0
  1 28  1  0
  1 29  1  0
  1 30  1  0
  2 31  1  0
  3 32  1  0
  3 33  1  0
  4 34  1  0
  4 35  1  0
  5 36  1  0
  5 37  1  0
  6 38  1  0
  6 39  1  0
  8 40  1  0
  8 41  1  0
  9 42  1  0
  9 43  1  0
 10 44  1  0
 13 45  1  0
 14 46  1  0
 14 47  1  0
 15 48  1  0
 15 49  1  0
 16 50  1  0
 16 51  1  0
 20 52  1  0
 22 53  1  0
 23 54  1  0
 24 55  1  0
 25 56  1  0
 26 57  1  0
 27 58  1  0
 27 59  1  0
M  END
$$$$
OCNT-2317271
     RDKit          3D

 45 47  0  0  0  0  0  0  0  0999 V2000
    6.8168   -0.7413    0.3981 C   0  0  0  0  0  0  0  0  0  0  0  0
    5.7029   -0.0364   -0.1343 O   0  0  0  0  0  0  0  0  0  0  0  0
    4.4466   -0.4321    0.2639 C   0  0  0  0  0  0  0  0  0  0  0  0
    4.2078   -1.4654    1.1749 C   0  0  0  0  0  0  0  0  0  0  0  0
    2.9043   -1.8099    1.5170 C   0  0  0  0  0  0  0  0  0  0  0  0
    1.8328   -1.1161    0.9595 C   0  0  0  0  0  0  0  0  0  0  0  0
    2.0304   -0.0526    0.0496 C   0  0  0  0  0  0  0  0  0  0  0  0
    0.9656    0.6879   -0.5387 C   0  0  0  0  0  0  0  0  0  0  0  0
   -0.3694    0.4303   -0.1515 N   0  0  0  0  0  0  0  0  0  0  0  0
   -0.6847    1.0420    1.1612 C   0  0  0  0  0  0  0  0  0  0  0  0
   -1.8795    2.0023    1.0661 C   0  0  0  0  0  0  0  0  0  0  0  0
   -3.0503    1.3794    0.5234 O   0  0  0  0  0  0  0  0  0  0  0  0
   -2.7969    0.5771   -0.6544 C   0  0  0  0  0  0  0  0  0  0  0  0
   -3.1014   -0.9184   -0.3597 C   0  0  0  0  0  0  0  0  0  0  0  0
   -4.5086   -1.3334   -0.1627 N   0  0  0  0  0  0  0  0  0  0  0  0
   -5.3180   -1.1664   -1.3655 C   0  0  0  0  0  0  0  0  0  0  0  0
   -5.1375   -0.6780    0.9807 C   0  0  0  0  0  0  0  0  0  0  0  0
   -1.3569    0.7472   -1.2021 C   0  0  0  0  0  0  0  0  0  0  0  0
    1.1822    1.6648   -1.4489 N   0  0  0  0  0  0  0  0  0  0  0  0
    2.4544    1.9503   -1.7794 C   0  0  0  0  0  0  0  0  0  0  0  0
    3.5515    1.3066   -1.2442 C   0  0  0  0  0  0  0  0  0  0  0  0
    3.3587    0.2779   -0.3108 C   0  0  0  0  0  0  0  0  0  0  0  0
    6.8754   -0.6237    1.4850 H   0  0  0  0  0  0  0  0  0  0  0  0
    6.7893   -1.7980    0.1125 H   0  0  0  0  0  0  0  0  0  0  0  0
    7.7237   -0.3053   -0.0319 H   0  0  0  0  0  0  0  0  0  0  0  0
    5.0145   -2.0288    1.6311 H   0  0  0  0  0  0  0  0  0  0  0  0
    2.7189   -2.6234    2.2137 H   0  0  0  0  0  0  0  0  0  0  0  0
    0.8226   -1.4207    1.2264 H   0  0  0  0  0  0  0  0  0  0  0  0
   -0.9462    0.2261    1.8453 H   0  0  0  0  0  0  0  0  0  0  0  0
    0.1681    1.5769    1.5982 H   0  0  0  0  0  0  0  0  0  0  0  0
   -2.1387    2.3689    2.0647 H   0  0  0  0  0  0  0  0  0  0  0  0
   -1.6352    2.8795    0.4557 H   0  0  0  0  0  0  0  0  0  0  0  0
   -3.4822    0.9381   -1.4285 H   0  0  0  0  0  0  0  0  0  0  0  0
   -2.6956   -1.5318   -1.1747 H   0  0  0  0  0  0  0  0  0  0  0  0
   -2.5506   -1.2242    0.5390 H   0  0  0  0  0  0  0  0  0  0  0  0
   -6.3048   -1.6219   -1.2250 H   0  0  0  0  0  0  0  0  0  0  0  0
   -5.4683   -0.1152   -1.6331 H   0  0  0  0  0  0  0  0  0  0  0  0
   -4.8575   -1.6781   -2.2177 H   0  0  0  0  0  0  0  0  0  0  0  0
   -6.0946   -1.1612    1.2085 H   0  0  0  0  0  0  0  0  0  0  0  0
   -5.3376    0.3840    0.8049 H   0  0  0  0  0  0  0  0  0  0  0  0
   -4.5186   -0.7769    1.8793 H   0  0  0  0  0  0  0  0  0  0  0  0
   -1.2059    0.0920   -2.0690 H   0  0  0  0  0  0  0  0  0  0  0  0
   -1.2509    1.7849   -1.5459 H   0  0  0  0  0  0  0  0  0  0  0  0
    2.5763    2.7431   -2.5116 H   0  0  0  0  0  0  0  0  0  0  0  0
    4.5472    1.5999   -1.5618 H   0  0  0  0  0  0  0  0  0  0  0  0
  1  2  1  0
  2  3  1  0
  3  4  2  0
  4  5  1  0
  5  6  2  0
  6  7  1  0
  7  8  2  0
  8  9  1  0
  9 10  1  0
 10 11  1  0
 11 12  1  0
 12 13  1  0
 13 14  1  0
 14 15  1  0
 15 16  1  0
 15 17  1  0
 13 18  1  0
  8 19  1  0
 19 20  2  0
 20 21  1  0
 21 22  2  0
 22  3  1  0
 22  7  1  0
 18  9  1  0
  1 23  1  0
  1 24  1  0
  1 25  1  0
  4 26  1  0
  5 27  1  0
  6 28  1  0
 10 29  1  0
 10 30  1  0
 11 31  1  0
 11 32  1  0
 13 33  1  0
 14 34  1  0
 14 35  1  0
 16 36  1  0
 16 37  1  0
 16 38  1  0
 17 39  1  0
 17 40  1  0
 17 41  1  0
 18 42  1  0
 18 43  1  0
 20 44  1  0
 21 45  1  0
M  END
$$$$
OCNT-2317273
     RDKit          3D

 50 52  0  0  0  0  0  0  0  0999 V2000
   -5.6883    2.1665    0.6784 C   0  0  0  0  0  0  0  0  0  0  0  0
   -5.4422    0.7806    0.0837 C   0  0  0  0  0  0  0  0  0  0  0  0
   -5.6529   -0.3187    1.1241 C   0  0  0  0  0  0  0  0  0  0  0  0
   -4.1209    0.6888   -0.5288 N   0  0  0  0  0  0  0  0  0  0  0  0
   -3.8541    0.4521   -1.8467 C   0  0  0  0  0  0  0  0  0  0  0  0
   -2.4855    0.4467   -1.9625 C   0  0  0  0  0  0  0  0  0  0  0  0
   -2.0033    0.6894   -0.6530 C   0  0  0  0  0  0  0  0  0  0  0  0
   -0.5692    0.7943   -0.2058 C   0  0  0  0  0  0  0  0  0  0  0  0
    0.1782   -0.4577   -0.4465 N   0  0  0  0  0  0  0  0  0  0  0  0
   -0.3664   -1.5595    0.3787 C   0  0  0  0  0  0  0  0  0  0  0  0
    0.0588   -2.9671   -0.0593 C   0  0  0  0  0  0  0  0  0  0  0  0
    1.5487   -3.2390    0.0730 C   0  0  0  0  0  0  0  0  0  0  0  0
    2.3119   -2.6196   -0.9815 N   0  0  0  0  0  0  0  0  0  0  0  0
    2.3378   -1.2780   -1.2579 C   0  0  0  0  0  0  0  0  0  0  0  0
    2.8562   -0.9084   -2.3123 O   0  0  0  0  0  0  0  0  0  0  0  0
    1.6615   -0.3232   -0.2381 C   0  0  0  0  0  0  0  0  0  0  0  0
    2.2880    1.0906   -0.3990 C   0  0  0  0  0  0  0  0  0  0  0  0
    3.7154    1.1684    0.1101 C   0  0  0  0  0  0  0  0  0  0  0  0
    3.9731    1.2735    1.4851 C   0  0  0  0  0  0  0  0  0  0  0  0
    5.2851    1.3363    1.9571 C   0  0  0  0  0  0  0  0  0  0  0  0
    6.3516    1.2936    1.0615 C   0  0  0  0  0  0  0  0  0  0  0  0
    6.1069    1.1891   -0.3062 C   0  0  0  0  0  0  0  0  0  0  0  0
    4.7956    1.1279   -0.7802 C   0  0  0  0  0  0  0  0  0  0  0  0
   -3.0107    0.8406    0.2209 N   0  0  0  0  0  0  0  0  0  0  0  0
   -5.5420    2.9470   -0.0765 H   0  0  0  0  0  0  0  0  0  0  0  0
   -5.0058    2.3765    1.5094 H   0  0  0  0  0  0  0  0  0  0  0  0
   -6.7131    2.2493    1.0554 H   0  0  0  0  0  0  0  0  0  0  0  0
   -6.1672    0.6253   -0.7255 H   0  0  0  0  0  0  0  0  0  0  0  0
   -6.6768   -0.2933    1.5117 H   0  0  0  0  0  0  0  0  0  0  0  0
   -5.4817   -1.3084    0.6864 H   0  0  0  0  0  0  0  0  0  0  0  0
   -4.9686   -0.2083    1.9726 H   0  0  0  0  0  0  0  0  0  0  0  0
   -4.6389    0.3078   -2.5754 H   0  0  0  0  0  0  0  0  0  0  0  0
   -1.9014    0.2838   -2.8575 H   0  0  0  0  0  0  0  0  0  0  0  0
   -0.5108    1.0897    0.8494 H   0  0  0  0  0  0  0  0  0  0  0  0
   -0.1523    1.6093   -0.8088 H   0  0  0  0  0  0  0  0  0  0  0  0
   -0.1190   -1.4048    1.4375 H   0  0  0  0  0  0  0  0  0  0  0  0
   -1.4610   -1.5698    0.3278 H   0  0  0  0  0  0  0  0  0  0  0  0
   -0.2721   -3.1492   -1.0898 H   0  0  0  0  0  0  0  0  0  0  0  0
   -0.4766   -3.6856    0.5741 H   0  0  0  0  0  0  0  0  0  0  0  0
    1.9346   -2.9017    1.0405 H   0  0  0  0  0  0  0  0  0  0  0  0
    1.7357   -4.3156   -0.0011 H   0  0  0  0  0  0  0  0  0  0  0  0
    2.6937   -3.1924   -1.7242 H   0  0  0  0  0  0  0  0  0  0  0  0
    1.9157   -0.6543    0.7768 H   0  0  0  0  0  0  0  0  0  0  0  0
    2.2409    1.4305   -1.4414 H   0  0  0  0  0  0  0  0  0  0  0  0
    1.7314    1.8313    0.1879 H   0  0  0  0  0  0  0  0  0  0  0  0
    3.1525    1.3122    2.1979 H   0  0  0  0  0  0  0  0  0  0  0  0
    5.4756    1.4203    3.0237 H   0  0  0  0  0  0  0  0  0  0  0  0
    7.3734    1.3420    1.4281 H   0  0  0  0  0  0  0  0  0  0  0  0
    6.9365    1.1525   -1.0074 H   0  0  0  0  0  0  0  0  0  0  0  0
    4.6220    1.0385   -1.8515 H   0  0  0  0  0  0  0  0  0  0  0  0
  1  2  1  0
  2  3  1  0
  2  4  1  0
  4  5  1  0
  5  6  2  0
  6  7  1  0
  7  8  1  0
  8  9  1  0
  9 10  1  0
 10 11  1  0
 11 12  1  0
 12 13  1  0
 13 14  1  0
 14 15  2  0
 14 16  1  0
 16 17  1  0
 17 18  1  0
 18 19  2  0
 19 20  1  0
 20 21  2  0
 21 22  1  0
 22 23  2  0
  7 24  2  0
 24  4  1  0
 16  9  1  0
 23 18  1  0
  1 25  1  0
  1 26  1  0
  1 27  1  0
  2 28  1  0
  3 29  1  0
  3 30  1  0
  3 31  1  0
  5 32  1  0
  6 33  1  0
  8 34  1  0
  8 35  1  0
 10 36  1  0
 10 37  1  0
 11 38  1  0
 11 39  1  0
 12 40  1  0
 12 41  1  0
 13 42  1  0
 16 43  1  0
 17 44  1  0
 17 45  1  0
 19 46  1  0
 20 47  1  0
 21 48  1  0
 22 49  1  0
 23 50  1  0
M  END
$$$$
OCNT-2317274
     RDKit          3D

  0  0  0  0  0  0  0  0  0  0999 V3000
M  V30 BEGIN CTAB
M  V30 COUNTS 51 53 0 0 0
M  V30 BEGIN ATOM
M  V30 1 C 5.908595 3.073800 -0.025679 0
M  V30 2 C 5.985217 1.568410 -0.091540 0
M  V30 3 O 7.065527 1.001772 -0.208253 0
M  V30 4 N 4.739242 0.977748 0.021634 0
M  V30 5 C 4.435853 -0.401205 0.008569 0
M  V30 6 C 5.393453 -1.406047 -0.133310 0
M  V30 7 C 5.011603 -2.749161 -0.133984 0
M  V30 8 C 3.669186 -3.094352 0.005664 0
M  V30 9 C 2.697399 -2.103956 0.145267 0
M  V30 10 O 1.418906 -2.575000 0.272402 0
M  V30 11 C 0.373939 -1.603103 0.370982 0
M  V30 12 C -0.961961 -2.346499 0.480147 0
M  V30 13 N -2.132664 -1.483228 0.699917 0
M  V30 14 C -2.440957 -0.698298 -0.500294 0
M  V30 15 C -3.973029 -0.458547 -0.579271 0 CFG=1
M  V30 16 C -4.964298 -0.487394 0.584058 0
M  V30 17 C -5.803992 0.756556 0.339790 0
M  V30 18 C -4.773761 1.813530 -0.037922 0
M  V30 19 C -3.702515 1.048361 -0.817636 0 CFG=1
M  V30 20 C -2.236347 0.840568 -0.265254 0
M  V30 21 C -1.953467 1.344142 1.153861 0
M  V30 22 C -1.213922 1.452655 -1.235014 0
M  V30 23 C 3.084656 -0.760431 0.147508 0
M  V30 24 H 5.028370 3.443795 -0.559341 0
M  V30 25 H 6.796512 3.503929 -0.498030 0
M  V30 26 H 5.865189 3.388977 1.020108 0
M  V30 27 H 3.951582 1.602642 0.135985 0
M  V30 28 H 6.449262 -1.180077 -0.244653 0
M  V30 29 H 5.764978 -3.525065 -0.243290 0
M  V30 30 H 3.379196 -4.142086 0.004881 0
M  V30 31 H 0.375349 -0.978504 -0.527561 0
M  V30 32 H 0.522032 -0.987256 1.265875 0
M  V30 33 H -0.892420 -3.036396 1.331013 0
M  V30 34 H -1.110546 -2.990920 -0.395936 0
M  V30 35 H -2.899743 -2.094745 0.984479 0
M  V30 36 H -2.043101 -1.086281 -1.446648 0
M  V30 37 H -4.422227 -0.946286 -1.456359 0
M  V30 38 H -4.469255 -0.415006 1.557489 0
M  V30 39 H -5.571605 -1.397453 0.578544 0
M  V30 40 H -6.487409 0.586840 -0.501209 0
M  V30 41 H -6.398509 1.043721 1.211468 0
M  V30 42 H -4.371827 2.288188 0.861275 0
M  V30 43 H -5.228471 2.600961 -0.647738 0
M  V30 44 H -3.739233 1.299513 -1.887311 0
M  V30 45 H -0.950599 1.049517 1.481178 0
M  V30 46 H -2.666230 0.956511 1.886929 0
M  V30 47 H -2.000091 2.438145 1.194602 0
M  V30 48 H -1.308073 2.544114 -1.257913 0
M  V30 49 H -0.189734 1.213420 -0.932645 0
M  V30 50 H -1.353648 1.086454 -2.258076 0
M  V30 51 H 2.343587 0.023023 0.259414 0
M  V30 END ATOM
M  V30 BEGIN BOND
M  V30 1 1 1 2
M  V30 2 2 2 3
M  V30 3 1 2 4
M  V30 4 1 4 5
M  V30 5 2 5 6
M  V30 6 1 6 7
M  V30 7 2 7 8
M  V30 8 1 8 9
M  V30 9 1 9 10
M  V30 10 1 10 11
M  V30 11 1 11 12
M  V30 12 1 12 13
M  V30 13 1 13 14
M  V30 14 1 14 15
M  V30 15 1 15 16
M  V30 16 1 16 17
M  V30 17 1 17 18
M  V30 18 1 18 19
M  V30 19 1 19 20
M  V30 20 1 20 21
M  V30 21 1 20 22
M  V30 22 2 9 23
M  V30 23 1 23 5
M  V30 24 1 20 14
M  V30 25 1 19 15
M  V30 26 1 1 24
M  V30 27 1 1 25
M  V30 28 1 1 26
M  V30 29 1 4 27
M  V30 30 1 6 28
M  V30 31 1 7 29
M  V30 32 1 8 30
M  V30 33 1 11 31
M  V30 34 1 11 32
M  V30 35 1 12 33
M  V30 36 1 12 34
M  V30 37 1 13 35
M  V30 38 1 14 36
M  V30 39 1 15 37 CFG=3
M  V30 40 1 16 38
M  V30 41 1 16 39
M  V30 42 1 17 40
M  V30 43 1 17 41
M  V30 44 1 18 42
M  V30 45 1 18 43
M  V30 46 1 19 44 CFG=3
M  V30 47 1 21 45
M  V30 48 1 21 46
M  V30 49 1 21 47
M  V30 50 1 22 48
M  V30 51 1 22 49
M  V30 52 1 22 50
M  V30 53 1 23 51
M  V30 END BOND
M  V30 BEGIN COLLECTION
M  V30 MDLV30/STERAC1 ATOMS=(2 15 19)
M  V30 END COLLECTION
M  V30 END CTAB
M  END
>  <_CXSMILES_Data>  (1193) 
|&1:14,18|

$$$$
OCNT-2317275
     RDKit          3D

 39 42  0  0  0  0  0  0  0  0999 V2000
   -4.3935    2.6827    0.9100 C   0  0  0  0  0  0  0  0  0  0  0  0
   -5.1706    1.5334    1.0243 C   0  0  0  0  0  0  0  0  0  0  0  0
   -4.5552    0.2815    1.0789 C   0  0  0  0  0  0  0  0  0  0  0  0
   -3.1631    0.1651    1.0206 C   0  0  0  0  0  0  0  0  0  0  0  0
   -2.7020   -1.1204    1.0791 O   0  0  0  0  0  0  0  0  0  0  0  0
   -1.2901   -1.3432    1.0256 C   0  0  0  0  0  0  0  0  0  0  0  0
   -0.7698   -1.3770   -0.4240 C   0  0  2  0  0  0  0  0  0  0  0  0
   -1.3837   -2.5260   -1.2451 C   0  0  0  0  0  0  0  0  0  0  0  0
   -0.3733   -3.6538   -1.1009 C   0  0  0  0  0  0  0  0  0  0  0  0
    0.9612   -2.9168   -1.1329 C   0  0  0  0  0  0  0  0  0  0  0  0
    0.6741   -1.6613   -0.4547 N   0  0  0  0  0  0  0  0  0  0  0  0
    1.5678   -0.6387   -0.3546 C   0  0  0  0  0  0  0  0  0  0  0  0
    1.2466    0.5933   -0.0023 N   0  0  0  0  0  0  0  0  0  0  0  0
    2.3244    1.4512    0.0437 N   0  0  0  0  0  0  0  0  0  0  0  0
    3.4476    0.8410   -0.2675 C   0  0  0  0  0  0  0  0  0  0  0  0
    4.8212    1.5944   -0.2879 C   0  0  0  0  0  0  0  0  0  0  0  0
    5.9830    1.0055   -0.6022 N   0  0  0  0  0  0  0  0  0  0  0  0
    6.9424    2.0005   -0.5031 O   0  0  0  0  0  0  0  0  0  0  0  0
    6.3491    3.1627   -0.1343 C   0  0  0  0  0  0  0  0  0  0  0  0
    5.0028    2.9623    0.0159 C   0  0  0  0  0  0  0  0  0  0  0  0
    3.2659   -0.8180   -0.6391 S   0  0  0  0  0  0  0  0  0  0  0  0
   -2.3900    1.3209    0.9072 C   0  0  0  0  0  0  0  0  0  0  0  0
   -3.0053    2.5760    0.8515 C   0  0  0  0  0  0  0  0  0  0  0  0
   -4.8671    3.6599    0.8672 H   0  0  0  0  0  0  0  0  0  0  0  0
   -6.2534    1.6086    1.0716 H   0  0  0  0  0  0  0  0  0  0  0  0
   -5.1664   -0.6132    1.1689 H   0  0  0  0  0  0  0  0  0  0  0  0
   -1.1179   -2.3206    1.4937 H   0  0  0  0  0  0  0  0  0  0  0  0
   -0.7432   -0.6325    1.6564 H   0  0  0  0  0  0  0  0  0  0  0  0
   -1.0113   -0.4384   -0.9376 H   0  0  0  0  0  0  0  0  0  0  0  0
   -2.3871   -2.8165   -0.9214 H   0  0  0  0  0  0  0  0  0  0  0  0
   -1.4453   -2.2293   -2.2999 H   0  0  0  0  0  0  0  0  0  0  0  0
   -0.4566   -4.4017   -1.8943 H   0  0  0  0  0  0  0  0  0  0  0  0
   -0.5060   -4.1588   -0.1368 H   0  0  0  0  0  0  0  0  0  0  0  0
    1.7374   -3.4981   -0.6247 H   0  0  0  0  0  0  0  0  0  0  0  0
    1.2649   -2.7357   -2.1711 H   0  0  0  0  0  0  0  0  0  0  0  0
    7.0080    4.0115   -0.0260 H   0  0  0  0  0  0  0  0  0  0  0  0
    4.2551    3.6869    0.3017 H   0  0  0  0  0  0  0  0  0  0  0  0
   -1.3061    1.2914    0.8563 H   0  0  0  0  0  0  0  0  0  0  0  0
   -2.3945    3.4710    0.7622 H   0  0  0  0  0  0  0  0  0  0  0  0
  1  2  2  0
  2  3  1  0
  3  4  2  0
  4  5  1  0
  5  6  1  0
  6  7  1  0
  7  8  1  0
  8  9  1  0
  9 10  1  0
 10 11  1  0
 11 12  1  0
 12 13  2  0
 13 14  1  0
 14 15  2  0
 15 16  1  0
 16 17  2  0
 17 18  1  0
 18 19  1  0
 19 20  2  0
 15 21  1  0
  4 22  1  0
 22 23  2  0
 23  1  1  0
 11  7  1  0
 21 12  1  0
 20 16  1  0
  1 24  1  0
  2 25  1  0
  3 26  1  0
  6 27  1  0
  6 28  1  0
  7 29  1  6
  8 30  1  0
  8 31  1  0
  9 32  1  0
  9 33  1  0
 10 34  1  0
 10 35  1  0
 19 36  1  0
 20 37  1  0
 22 38  1  0
 23 39  1  0
M  END
$$$$
OCNT-2317285
     RDKit          3D

 44 46  0  0  0  0  0  0  0  0999 V2000
    1.6041   -1.7937   -1.9083 O   0  0  0  0  0  0  0  0  0  0  0  0
    1.4742   -0.9995   -0.9780 C   0  0  0  0  0  0  0  0  0  0  0  0
    2.6641   -0.3357   -0.3102 C   0  0  0  0  0  0  0  0  0  0  0  0
    3.9772   -0.7131   -0.9937 C   0  0  0  0  0  0  0  0  0  0  0  0
    5.1549   -0.0437   -0.3322 C   0  0  0  0  0  0  0  0  0  0  0  0
    5.5905    1.2152   -0.7528 C   0  0  0  0  0  0  0  0  0  0  0  0
    6.6636    1.7999   -0.0976 C   0  0  0  0  0  0  0  0  0  0  0  0
    7.3176    1.2269    0.9350 N   0  0  0  0  0  0  0  0  0  0  0  0
    6.8807    0.0108    1.3257 C   0  0  0  0  0  0  0  0  0  0  0  0
    5.8175   -0.6549    0.7349 C   0  0  0  0  0  0  0  0  0  0  0  0
    0.2364   -0.6623   -0.4757 N   0  0  0  0  0  0  0  0  0  0  0  0
   -0.0503    0.2556    0.6152 C   0  0  0  0  0  0  0  0  0  0  0  0
   -1.5242    0.0281    0.9200 C   0  0  0  0  0  0  0  0  0  0  0  0
   -2.1023   -0.3508   -0.4491 C   0  0  0  0  0  0  0  0  0  0  0  0
   -3.4354   -1.0962   -0.3877 C   0  0  0  0  0  0  0  0  0  0  0  0
   -4.5616   -0.2333    0.1264 C   0  0  0  0  0  0  0  0  0  0  0  0
   -5.1526    0.7306   -0.7020 C   0  0  0  0  0  0  0  0  0  0  0  0
   -6.1849    1.5385   -0.2231 C   0  0  0  0  0  0  0  0  0  0  0  0
   -6.6355    1.3919    1.0873 C   0  0  0  0  0  0  0  0  0  0  0  0
   -6.0545    0.4372    1.9197 C   0  0  0  0  0  0  0  0  0  0  0  0
   -5.0220   -0.3718    1.4426 C   0  0  0  0  0  0  0  0  0  0  0  0
   -0.9840   -1.2060   -1.0469 C   0  0  0  0  0  0  0  0  0  0  0  0
    2.6904   -0.6477    0.7404 H   0  0  0  0  0  0  0  0  0  0  0  0
    2.5251    0.7512   -0.3448 H   0  0  0  0  0  0  0  0  0  0  0  0
    3.9488   -0.4361   -2.0556 H   0  0  0  0  0  0  0  0  0  0  0  0
    4.1195   -1.8015   -0.9757 H   0  0  0  0  0  0  0  0  0  0  0  0
    5.1096    1.7342   -1.5753 H   0  0  0  0  0  0  0  0  0  0  0  0
    7.0356    2.7759   -0.3958 H   0  0  0  0  0  0  0  0  0  0  0  0
    7.4248   -0.4312    2.1555 H   0  0  0  0  0  0  0  0  0  0  0  0
    5.5180   -1.6310    1.1018 H   0  0  0  0  0  0  0  0  0  0  0  0
    0.5910    0.0596    1.4785 H   0  0  0  0  0  0  0  0  0  0  0  0
    0.1310    1.2740    0.2550 H   0  0  0  0  0  0  0  0  0  0  0  0
   -1.6339   -0.8033    1.6274 H   0  0  0  0  0  0  0  0  0  0  0  0
   -1.9952    0.9138    1.3563 H   0  0  0  0  0  0  0  0  0  0  0  0
   -2.2036    0.5644   -1.0491 H   0  0  0  0  0  0  0  0  0  0  0  0
   -3.3428   -1.9953    0.2353 H   0  0  0  0  0  0  0  0  0  0  0  0
   -3.7043   -1.4574   -1.3891 H   0  0  0  0  0  0  0  0  0  0  0  0
   -4.8126    0.8566   -1.7275 H   0  0  0  0  0  0  0  0  0  0  0  0
   -6.6385    2.2820   -0.8734 H   0  0  0  0  0  0  0  0  0  0  0  0
   -7.4402    2.0205    1.4592 H   0  0  0  0  0  0  0  0  0  0  0  0
   -6.4066    0.3218    2.9415 H   0  0  0  0  0  0  0  0  0  0  0  0
   -4.5794   -1.1111    2.1062 H   0  0  0  0  0  0  0  0  0  0  0  0
   -0.9566   -1.1563   -2.1402 H   0  0  0  0  0  0  0  0  0  0  0  0
   -1.0535   -2.2569   -0.7431 H   0  0  0  0  0  0  0  0  0  0  0  0
  1  2  2  0
  2  3  1  0
  3  4  1  0
  4  5  1  0
  5  6  2  0
  6  7  1  0
  7  8  2  0
  8  9  1  0
  9 10  2  0
  2 11  1  0
 11 12  1  0
 12 13  1  0
 13 14  1  0
 14 15  1  0
 15 16  1  0
 16 17  2  0
 17 18  1  0
 18 19  2  0
 19 20  1  0
 20 21  2  0
 14 22  1  0
 10  5  1  0
 22 11  1  0
 21 16  1  0
  3 23  1  0
  3 24  1  0
  4 25  1  0
  4 26  1  0
  6 27  1  0
  7 28  1  0
  9 29  1  0
 10 30  1  0
 12 31  1  0
 12 32  1  0
 13 33  1  0
 13 34  1  0
 14 35  1  0
 15 36  1  0
 15 37  1  0
 17 38  1  0
 18 39  1  0
 19 40  1  0
 20 41  1  0
 21 42  1  0
 22 43  1  0
 22 44  1  0
M  END
$$$$
OCNT-2317287
     RDKit          3D

 55 58  0  0  0  0  0  0  0  0999 V2000
    1.7220    2.9067   -3.3428 C   0  0  0  0  0  0  0  0  0  0  0  0
    1.5925    2.8173   -1.9315 O   0  0  0  0  0  0  0  0  0  0  0  0
    1.3228    1.5171   -1.3503 C   0  0  0  0  0  0  0  0  0  0  0  0
    2.6513    0.8257   -1.1228 C   0  0  0  0  0  0  0  0  0  0  0  0
    3.1541    0.2816   -0.0342 N   0  0  0  0  0  0  0  0  0  0  0  0
    4.3648   -0.2296   -0.4692 C   0  0  0  0  0  0  0  0  0  0  0  0
    5.2827   -0.9387    0.4279 C   0  0  0  0  0  0  0  0  0  0  0  0
    4.9216   -1.1807    1.7529 C   0  0  0  0  0  0  0  0  0  0  0  0
    5.8094   -1.8647    2.5808 C   0  0  0  0  0  0  0  0  0  0  0  0
    7.0317   -2.2828    2.0693 C   0  0  0  0  0  0  0  0  0  0  0  0
    7.3171   -2.0009    0.7440 C   0  0  0  0  0  0  0  0  0  0  0  0
    6.4756   -1.3453   -0.0839 N   0  0  0  0  0  0  0  0  0  0  0  0
    4.5895   -0.0241   -1.7781 N   0  0  0  0  0  0  0  0  0  0  0  0
    3.4643    0.6661   -2.2081 O   0  0  0  0  0  0  0  0  0  0  0  0
    0.3929    0.6466   -2.2176 C   0  0  0  0  0  0  0  0  0  0  0  0
   -0.3454   -0.3957   -1.3805 C   0  0  0  0  0  0  0  0  0  0  0  0
   -1.1589    0.1954   -0.3072 N   0  0  0  0  0  0  0  0  0  0  0  0
   -2.5889   -0.2132   -0.3343 C   0  0  0  0  0  0  0  0  0  0  0  0
   -2.6283   -1.6630    0.1294 C   0  0  0  0  0  0  0  0  0  0  0  0
   -3.1571   -2.2462    1.2190 C   0  0  0  0  0  0  0  0  0  0  0  0
   -3.8809   -1.5827    2.3466 C   0  0  0  0  0  0  0  0  0  0  0  0
   -5.3468   -1.2761    2.0354 C   0  0  0  0  0  0  0  0  0  0  0  0
   -5.6568   -0.8086    0.6117 C   0  0  0  0  0  0  0  0  0  0  0  0
   -5.0603    0.5330    0.1995 C   0  0  0  0  0  0  0  0  0  0  0  0
   -3.5551    0.7748    0.3745 C   0  0  0  0  0  0  0  0  0  0  0  0
   -0.8538    1.5970   -0.0291 C   0  0  0  0  0  0  0  0  0  0  0  0
    0.6576    1.8235    0.0148 C   0  0  0  0  0  0  0  0  0  0  0  0
    2.3773    2.1373   -3.7562 H   0  0  0  0  0  0  0  0  0  0  0  0
    0.7398    2.8551   -3.8192 H   0  0  0  0  0  0  0  0  0  0  0  0
    2.1546    3.8840   -3.5790 H   0  0  0  0  0  0  0  0  0  0  0  0
    3.9625   -0.8476    2.1392 H   0  0  0  0  0  0  0  0  0  0  0  0
    5.5474   -2.0683    3.6159 H   0  0  0  0  0  0  0  0  0  0  0  0
    7.7461   -2.8147    2.6876 H   0  0  0  0  0  0  0  0  0  0  0  0
    8.2622   -2.3002    0.2978 H   0  0  0  0  0  0  0  0  0  0  0  0
   -0.3535    1.2682   -2.7299 H   0  0  0  0  0  0  0  0  0  0  0  0
    0.9529    0.1417   -3.0154 H   0  0  0  0  0  0  0  0  0  0  0  0
   -0.9472   -1.0032   -2.0676 H   0  0  0  0  0  0  0  0  0  0  0  0
    0.3784   -1.0816   -0.9230 H   0  0  0  0  0  0  0  0  0  0  0  0
   -2.9186   -0.2072   -1.3835 H   0  0  0  0  0  0  0  0  0  0  0  0
   -2.1456   -2.3503   -0.5667 H   0  0  0  0  0  0  0  0  0  0  0  0
   -3.0579   -3.3280    1.3078 H   0  0  0  0  0  0  0  0  0  0  0  0
   -3.8446   -2.2493    3.2189 H   0  0  0  0  0  0  0  0  0  0  0  0
   -3.3456   -0.6897    2.6802 H   0  0  0  0  0  0  0  0  0  0  0  0
   -5.9321   -2.1879    2.2162 H   0  0  0  0  0  0  0  0  0  0  0  0
   -5.7154   -0.5354    2.7558 H   0  0  0  0  0  0  0  0  0  0  0  0
   -5.3815   -1.5801   -0.1165 H   0  0  0  0  0  0  0  0  0  0  0  0
   -6.7485   -0.7222    0.5235 H   0  0  0  0  0  0  0  0  0  0  0  0
   -5.3137    0.7002   -0.8558 H   0  0  0  0  0  0  0  0  0  0  0  0
   -5.5849    1.3215    0.7555 H   0  0  0  0  0  0  0  0  0  0  0  0
   -3.3956    1.7750   -0.0511 H   0  0  0  0  0  0  0  0  0  0  0  0
   -3.3102    0.8863    1.4340 H   0  0  0  0  0  0  0  0  0  0  0  0
   -1.2476    1.8809    0.9532 H   0  0  0  0  0  0  0  0  0  0  0  0
   -1.3049    2.2623   -0.7759 H   0  0  0  0  0  0  0  0  0  0  0  0
    1.0561    1.1928    0.8201 H   0  0  0  0  0  0  0  0  0  0  0  0
    0.8524    2.8606    0.3179 H   0  0  0  0  0  0  0  0  0  0  0  0
  1  2  1  0
  2  3  1  0
  3  4  1  0
  4  5  2  0
  5  6  1  0
  6  7  1  0
  7  8  2  0
  8  9  1  0
  9 10  2  0
 10 11  1  0
 11 12  2  0
  6 13  2  0
 13 14  1  0
  3 15  1  0
 15 16  1  0
 16 17  1  0
 17 18  1  0
 18 19  1  0
 19 20  2  3
 20 21  1  0
 21 22  1  0
 22 23  1  0
 23 24  1  0
 24 25  1  0
 17 26  1  0
 26 27  1  0
 27  3  1  0
 14  4  1  0
 25 18  1  0
 12  7  1  0
  1 28  1  0
  1 29  1  0
  1 30  1  0
  8 31  1  0
  9 32  1  0
 10 33  1  0
 11 34  1  0
 15 35  1  0
 15 36  1  0
 16 37  1  0
 16 38  1  0
 18 39  1  0
 19 40  1  0
 20 41  1  0
 21 42  1  0
 21 43  1  0
 22 44  1  0
 22 45  1  0
 23 46  1  0
 23 47  1  0
 24 48  1  0
 24 49  1  0
 25 50  1  0
 25 51  1  0
 26 52  1  0
 26 53  1  0
 27 54  1  0
 27 55  1  0
M  END
$$$$
OCNT-2317297
     RDKit          3D

 52 54  0  0  0  0  0  0  0  0999 V2000
    0.1212    2.5502   -1.6414 O   0  0  0  0  0  0  0  0  0  0  0  0
    0.2179    1.5296   -0.9668 C   0  0  0  0  0  0  0  0  0  0  0  0
   -0.5196    1.3332    0.1710 N   0  0  0  0  0  0  0  0  0  0  0  0
   -1.5090    2.3096    0.5972 C   0  0  0  0  0  0  0  0  0  0  0  0
   -2.7776    2.3058   -0.2650 C   0  0  0  0  0  0  0  0  0  0  0  0
   -3.5218    0.9883   -0.2111 C   0  0  0  0  0  0  0  0  0  0  0  0
   -3.3830    0.0725   -1.2662 C   0  0  0  0  0  0  0  0  0  0  0  0
   -4.0341   -1.1608   -1.2279 C   0  0  0  0  0  0  0  0  0  0  0  0
   -4.8215   -1.4990   -0.1300 C   0  0  0  0  0  0  0  0  0  0  0  0
   -4.9671   -0.6011    0.9271 C   0  0  0  0  0  0  0  0  0  0  0  0
   -4.3375    0.6463    0.8778 C   0  0  0  0  0  0  0  0  0  0  0  0
   -4.4380    1.5404    1.9100 O   0  0  0  0  0  0  0  0  0  0  0  0
   -5.7896    1.8749    2.1980 C   0  0  0  0  0  0  0  0  0  0  0  0
   -6.2894    0.9687    3.0750 F   0  0  0  0  0  0  0  0  0  0  0  0
   -5.7777    3.0701    2.8410 F   0  0  0  0  0  0  0  0  0  0  0  0
    1.0746    0.4869   -1.2940 N   0  0  0  0  0  0  0  0  0  0  0  0
    1.7654    0.5664   -2.5828 C   0  0  0  0  0  0  0  0  0  0  0  0
    3.1440    1.2128   -2.4494 C   0  0  0  0  0  0  0  0  0  0  0  0
    4.1321    0.2977   -1.9702 O   0  0  0  0  0  0  0  0  0  0  0  0
    3.9296   -0.1310   -0.6208 C   0  0  0  0  0  0  0  0  0  0  0  0
    2.8421   -1.2096   -0.5429 C   0  0  0  0  0  0  0  0  0  0  0  0
    3.0625   -2.2185    0.6049 C   0  0  0  0  0  0  0  0  0  0  0  0
    3.3674   -1.7171    2.0403 C   0  0  0  0  0  0  0  0  0  0  0  0
    4.8127   -2.2149    1.8898 C   0  0  0  0  0  0  0  0  0  0  0  0
    4.3836   -3.0252    0.6557 C   0  0  0  0  0  0  0  0  0  0  0  0
    1.4432   -0.5821   -0.3637 C   0  0  0  0  0  0  0  0  0  0  0  0
   -0.7524    0.3723    0.3713 H   0  0  0  0  0  0  0  0  0  0  0  0
   -1.0483    3.3033    0.5612 H   0  0  0  0  0  0  0  0  0  0  0  0
   -1.7419    2.0851    1.6439 H   0  0  0  0  0  0  0  0  0  0  0  0
   -3.4476    3.1092    0.0663 H   0  0  0  0  0  0  0  0  0  0  0  0
   -2.5312    2.5431   -1.3075 H   0  0  0  0  0  0  0  0  0  0  0  0
   -2.7586    0.3168   -2.1246 H   0  0  0  0  0  0  0  0  0  0  0  0
   -3.9170   -1.8626   -2.0510 H   0  0  0  0  0  0  0  0  0  0  0  0
   -5.3152   -2.4670   -0.0931 H   0  0  0  0  0  0  0  0  0  0  0  0
   -5.5572   -0.8972    1.7908 H   0  0  0  0  0  0  0  0  0  0  0  0
   -6.4309    1.9551    1.3124 H   0  0  0  0  0  0  0  0  0  0  0  0
    1.1615    1.1666   -3.2723 H   0  0  0  0  0  0  0  0  0  0  0  0
    1.8265   -0.4409   -3.0077 H   0  0  0  0  0  0  0  0  0  0  0  0
    3.1258    2.1052   -1.8120 H   0  0  0  0  0  0  0  0  0  0  0  0
    3.4807    1.5269   -3.4436 H   0  0  0  0  0  0  0  0  0  0  0  0
    3.7264    0.7267    0.0330 H   0  0  0  0  0  0  0  0  0  0  0  0
    4.8976   -0.5339   -0.3151 H   0  0  0  0  0  0  0  0  0  0  0  0
    2.8444   -1.7787   -1.4821 H   0  0  0  0  0  0  0  0  0  0  0  0
    2.2071   -2.9127    0.6040 H   0  0  0  0  0  0  0  0  0  0  0  0
    2.8027   -2.2491    2.8145 H   0  0  0  0  0  0  0  0  0  0  0  0
    3.2672   -0.6423    2.2139 H   0  0  0  0  0  0  0  0  0  0  0  0
    5.5354   -1.4207    1.6752 H   0  0  0  0  0  0  0  0  0  0  0  0
    5.1898   -2.8078    2.7279 H   0  0  0  0  0  0  0  0  0  0  0  0
    4.2325   -4.0906    0.8680 H   0  0  0  0  0  0  0  0  0  0  0  0
    5.0405   -2.9365   -0.2143 H   0  0  0  0  0  0  0  0  0  0  0  0
    0.6794   -1.3628   -0.4750 H   0  0  0  0  0  0  0  0  0  0  0  0
    1.3520   -0.2016    0.6606 H   0  0  0  0  0  0  0  0  0  0  0  0
  1  2  2  0
  2  3  1  0
  3  4  1  0
  4  5  1  0
  5  6  1  0
  6  7  2  0
  7  8  1  0
  8  9  2  0
  9 10  1  0
 10 11  2  0
 11 12  1  0
 12 13  1  0
 13 14  1  0
 13 15  1  0
  2 16  1  0
 16 17  1  0
 17 18  1  0
 18 19  1  0
 19 20  1  0
 20 21  1  0
 21 22  1  0
 22 23  1  0
 23 24  1  0
 24 25  1  0
 21 26  1  0
 11  6  1  0
 26 16  1  0
 25 22  1  0
  3 27  1  0
  4 28  1  0
  4 29  1  0
  5 30  1  0
  5 31  1  0
  7 32  1  0
  8 33  1  0
  9 34  1  0
 10 35  1  0
 13 36  1  0
 17 37  1  0
 17 38  1  0
 18 39  1  0
 18 40  1  0
 20 41  1  0
 20 42  1  0
 21 43  1  0
 22 44  1  0
 23 45  1  0
 23 46  1  0
 24 47  1  0
 24 48  1  0
 25 49  1  0
 25 50  1  0
 26 51  1  0
 26 52  1  0
M  END
$$$$
OCNT-2317299
     RDKit          3D

 46 48  0  0  0  0  0  0  0  0999 V2000
    1.8342    0.2319   -1.1656 O   0  0  0  0  0  0  0  0  0  0  0  0
    1.0843   -0.7412   -1.1779 C   0  0  0  0  0  0  0  0  0  0  0  0
    1.5480   -2.0302   -1.1834 N   0  0  0  0  0  0  0  0  0  0  0  0
    2.9664   -2.3397   -1.0811 C   0  0  0  0  0  0  0  0  0  0  0  0
    3.3495   -2.8159    0.3279 C   0  0  0  0  0  0  0  0  0  0  0  0
    3.0027   -1.8823    1.3553 O   0  0  0  0  0  0  0  0  0  0  0  0
    3.7471   -0.7210    1.3370 C   0  0  0  0  0  0  0  0  0  0  0  0
    4.9948   -0.7650    0.8048 N   0  0  0  0  0  0  0  0  0  0  0  0
    5.6904    0.3984    0.8084 C   0  0  0  0  0  0  0  0  0  0  0  0
    5.2092    1.5873    1.3398 C   0  0  0  0  0  0  0  0  0  0  0  0
    6.1662    3.0134    1.3075 Cl  0  0  0  0  0  0  0  0  0  0  0  0
    3.9404    1.6004    1.9072 C   0  0  0  0  0  0  0  0  0  0  0  0
    3.1926    0.4251    1.9110 C   0  0  0  0  0  0  0  0  0  0  0  0
    1.6182    0.4367    2.6175 Cl  0  0  0  0  0  0  0  0  0  0  0  0
   -0.2909   -0.6226   -1.1839 N   0  0  0  0  0  0  0  0  0  0  0  0
   -1.2294   -1.7091   -0.8822 C   0  0  0  0  0  0  0  0  0  0  0  0
   -2.5497   -1.1961   -0.2731 C   0  0  0  0  0  0  0  0  0  0  0  0
   -3.2252   -0.2140   -1.1310 N   0  0  0  0  0  0  0  0  0  0  0  0
   -4.3801    0.4369   -0.5162 C   0  0  0  0  0  0  0  0  0  0  0  0
   -4.0562    1.3760    0.6106 C   0  0  0  0  0  0  0  0  0  0  0  0
   -3.8449    2.8553    0.3869 C   0  0  0  0  0  0  0  0  0  0  0  0
   -5.1010    2.3723    1.0552 C   0  0  0  0  0  0  0  0  0  0  0  0
   -2.3032    0.6905   -1.8347 C   0  0  0  0  0  0  0  0  0  0  0  0
   -0.8715    0.7178   -1.2722 C   0  0  0  0  0  0  0  0  0  0  0  0
    0.9348   -2.7368   -1.5557 H   0  0  0  0  0  0  0  0  0  0  0  0
    3.1728   -3.1354   -1.8038 H   0  0  0  0  0  0  0  0  0  0  0  0
    3.5529   -1.4659   -1.3777 H   0  0  0  0  0  0  0  0  0  0  0  0
    2.7836   -3.7281    0.5487 H   0  0  0  0  0  0  0  0  0  0  0  0
    4.4088   -3.0982    0.3833 H   0  0  0  0  0  0  0  0  0  0  0  0
    6.6784    0.3435    0.3564 H   0  0  0  0  0  0  0  0  0  0  0  0
    3.5350    2.5128    2.3333 H   0  0  0  0  0  0  0  0  0  0  0  0
   -1.4246   -2.2365   -1.8235 H   0  0  0  0  0  0  0  0  0  0  0  0
   -0.7634   -2.4173   -0.1883 H   0  0  0  0  0  0  0  0  0  0  0  0
   -3.2168   -2.0505   -0.1055 H   0  0  0  0  0  0  0  0  0  0  0  0
   -2.3147   -0.7678    0.7089 H   0  0  0  0  0  0  0  0  0  0  0  0
   -4.9445    0.9620   -1.2982 H   0  0  0  0  0  0  0  0  0  0  0  0
   -5.0646   -0.3327   -0.1386 H   0  0  0  0  0  0  0  0  0  0  0  0
   -3.5013    0.8976    1.4098 H   0  0  0  0  0  0  0  0  0  0  0  0
   -3.9406    3.2570   -0.6138 H   0  0  0  0  0  0  0  0  0  0  0  0
   -3.1058    3.3577    0.9994 H   0  0  0  0  0  0  0  0  0  0  0  0
   -5.2115    2.5485    2.1200 H   0  0  0  0  0  0  0  0  0  0  0  0
   -6.0295    2.4435    0.4968 H   0  0  0  0  0  0  0  0  0  0  0  0
   -2.2489    0.3311   -2.8709 H   0  0  0  0  0  0  0  0  0  0  0  0
   -2.6898    1.7121   -1.9017 H   0  0  0  0  0  0  0  0  0  0  0  0
   -0.2388    1.3512   -1.9047 H   0  0  0  0  0  0  0  0  0  0  0  0
   -0.8631    1.1469   -0.2627 H   0  0  0  0  0  0  0  0  0  0  0  0
  1  2  2  0
  2  3  1  0
  3  4  1  0
  4  5  1  0
  5  6  1  0
  6  7  1  0
  7  8  1  0
  8  9  2  0
  9 10  1  0
 10 11  1  0
 10 12  2  0
 12 13  1  0
 13 14  1  0
  2 15  1  0
 15 16  1  0
 16 17  1  0
 17 18  1  0
 18 19  1  0
 19 20  1  0
 20 21  1  0
 21 22  1  0
 18 23  1  0
 23 24  1  0
 13  7  2  0
 24 15  1  0
 22 20  1  0
  3 25  1  0
  4 26  1  0
  4 27  1  0
  5 28  1  0
  5 29  1  0
  9 30  1  0
 12 31  1  0
 16 32  1  0
 16 33  1  0
 17 34  1  0
 17 35  1  0
 19 36  1  0
 19 37  1  0
 20 38  1  0
 21 39  1  0
 21 40  1  0
 22 41  1  0
 22 42  1  0
 23 43  1  0
 23 44  1  0
 24 45  1  0
 24 46  1  0
M  END
$$$$
OCNT-2317300
     RDKit          3D

 47 51  0  0  0  0  0  0  0  0999 V2000
    8.3399   -0.4710    0.4467 C   0  0  0  0  0  0  0  0  0  0  0  0
    6.9474   -0.3711   -0.0351 C   0  0  0  0  0  0  0  0  0  0  0  0
    5.9025   -0.3487    0.7994 N   0  0  0  0  0  0  0  0  0  0  0  0
    4.8515   -0.2484   -0.0518 N   0  0  0  0  0  0  0  0  0  0  0  0
    3.4948   -0.1822    0.2573 C   0  0  0  0  0  0  0  0  0  0  0  0
    2.5790   -0.0787   -0.7248 C   0  0  0  0  0  0  0  0  0  0  0  0
    1.2418   -0.0274   -0.4067 N   0  0  0  0  0  0  0  0  0  0  0  0
    0.1685    0.2916   -1.2087 C   0  0  0  0  0  0  0  0  0  0  0  0
    0.2673    0.7734   -2.3360 O   0  0  0  0  0  0  0  0  0  0  0  0
   -1.0681    0.1129   -0.6154 N   0  0  0  0  0  0  0  0  0  0  0  0
   -2.2685    0.7201   -1.2032 C   0  0  0  0  0  0  0  0  0  0  0  0
   -3.3857    0.6037   -0.1424 C   0  0  0  0  0  0  0  0  0  0  0  0
   -4.7602    0.3271   -0.7763 C   0  0  0  0  0  0  0  0  0  0  0  0
   -5.7403    1.1761    0.0232 C   0  0  0  0  0  0  0  0  0  0  0  0
   -4.9379    2.4286    0.3273 C   0  0  0  0  0  0  0  0  0  0  0  0
   -3.5567    1.8945    0.6912 C   0  0  0  0  0  0  0  0  0  0  0  0
   -2.8329   -0.5197    0.7070 C   0  0  0  0  0  0  0  0  0  0  0  0
   -3.4886   -1.2594    1.6841 C   0  0  0  0  0  0  0  0  0  0  0  0
   -2.7817   -2.2584    2.3531 C   0  0  0  0  0  0  0  0  0  0  0  0
   -1.4417   -2.5145    2.0350 C   0  0  0  0  0  0  0  0  0  0  0  0
   -0.7851   -1.7654    1.0534 C   0  0  0  0  0  0  0  0  0  0  0  0
   -1.4834   -0.7535    0.4123 C   0  0  0  0  0  0  0  0  0  0  0  0
    3.0609   -0.0661   -2.1050 C   0  0  0  0  0  0  0  0  0  0  0  0
    4.3733   -0.1299   -2.4057 C   0  0  0  0  0  0  0  0  0  0  0  0
    5.3296   -0.2214   -1.3612 C   0  0  0  0  0  0  0  0  0  0  0  0
    6.6406   -0.2978   -1.3657 N   0  0  0  0  0  0  0  0  0  0  0  0
    8.4846   -1.3950    1.0150 H   0  0  0  0  0  0  0  0  0  0  0  0
    8.5847    0.3772    1.0934 H   0  0  0  0  0  0  0  0  0  0  0  0
    9.0440   -0.4737   -0.3912 H   0  0  0  0  0  0  0  0  0  0  0  0
    3.2618   -0.2142    1.3124 H   0  0  0  0  0  0  0  0  0  0  0  0
    1.0110   -0.0126    0.5774 H   0  0  0  0  0  0  0  0  0  0  0  0
   -2.5004    0.1436   -2.1089 H   0  0  0  0  0  0  0  0  0  0  0  0
   -2.0643    1.7524   -1.5091 H   0  0  0  0  0  0  0  0  0  0  0  0
   -5.0458   -0.7298   -0.7721 H   0  0  0  0  0  0  0  0  0  0  0  0
   -4.7784    0.6688   -1.8192 H   0  0  0  0  0  0  0  0  0  0  0  0
   -6.0238    0.6678    0.9516 H   0  0  0  0  0  0  0  0  0  0  0  0
   -6.6525    1.3943   -0.5396 H   0  0  0  0  0  0  0  0  0  0  0  0
   -4.8721    3.0625   -0.5649 H   0  0  0  0  0  0  0  0  0  0  0  0
   -5.3789    3.0207    1.1344 H   0  0  0  0  0  0  0  0  0  0  0  0
   -2.7831    2.6443    0.4942 H   0  0  0  0  0  0  0  0  0  0  0  0
   -3.5318    1.6858    1.7683 H   0  0  0  0  0  0  0  0  0  0  0  0
   -4.5294   -1.0726    1.9286 H   0  0  0  0  0  0  0  0  0  0  0  0
   -3.2775   -2.8525    3.1176 H   0  0  0  0  0  0  0  0  0  0  0  0
   -0.9128   -3.3159    2.5464 H   0  0  0  0  0  0  0  0  0  0  0  0
    0.2322   -2.0306    0.7919 H   0  0  0  0  0  0  0  0  0  0  0  0
    2.3459   -0.0144   -2.9198 H   0  0  0  0  0  0  0  0  0  0  0  0
    4.7203   -0.1207   -3.4327 H   0  0  0  0  0  0  0  0  0  0  0  0
  1  2  1  0
  2  3  2  0
  3  4  1  0
  4  5  1  0
  5  6  2  0
  6  7  1  0
  7  8  1  0
  8  9  2  0
  8 10  1  0
 10 11  1  0
 11 12  1  0
 12 13  1  0
 13 14  1  0
 14 15  1  0
 15 16  1  0
 12 17  1  0
 17 18  2  0
 18 19  1  0
 19 20  2  0
 20 21  1  0
 21 22  2  0
  6 23  1  0
 23 24  2  0
 24 25  1  0
 25 26  2  0
 26  2  1  0
 25  4  1  0
 22 10  1  0
 16 12  1  0
 22 17  1  0
  1 27  1  0
  1 28  1  0
  1 29  1  0
  5 30  1  0
  7 31  1  0
 11 32  1  0
 11 33  1  0
 13 34  1  0
 13 35  1  0
 14 36  1  0
 14 37  1  0
 15 38  1  0
 15 39  1  0
 16 40  1  0
 16 41  1  0
 18 42  1  0
 19 43  1  0
 20 44  1  0
 21 45  1  0
 23 46  1  0
 24 47  1  0
M  END
$$$$
OCNT-2317304
     RDKit          3D

 47 51  0  0  0  0  0  0  0  0999 V2000
    5.6983    2.6242   -1.3875 C   0  0  0  0  0  0  0  0  0  0  0  0
    5.8839    1.5746   -0.3025 C   0  0  0  0  0  0  0  0  0  0  0  0
    4.9366    0.4253   -0.4714 C   0  0  0  0  0  0  0  0  0  0  0  0
    3.6736    0.2702    0.0635 C   0  0  0  0  0  0  0  0  0  0  0  0
    3.0458   -0.9664   -0.3182 C   0  0  0  0  0  0  0  0  0  0  0  0
    1.7864   -1.5399   -0.0251 C   0  0  0  0  0  0  0  0  0  0  0  0
    0.8278   -0.8711    0.7541 N   0  0  0  0  0  0  0  0  0  0  0  0
    0.1832    0.2292    0.0246 C   0  0  0  0  0  0  0  0  0  0  0  0
   -1.0214   -0.2572   -0.7782 C   0  0  0  0  0  0  0  0  0  0  0  0
   -1.9864   -1.1122    0.0641 C   0  0  0  0  0  0  0  0  0  0  0  0
   -3.4132   -0.6273   -0.0135 C   0  0  0  0  0  0  0  0  0  0  0  0
   -4.4696   -1.3390   -0.5613 C   0  0  0  0  0  0  0  0  0  0  0  0
   -5.6071   -0.5846   -0.4519 N   0  0  0  0  0  0  0  0  0  0  0  0
   -5.3192    0.6019    0.1575 C   0  0  0  0  0  0  0  0  0  0  0  0
   -6.2306    1.5589    0.4133 N   0  0  0  0  0  0  0  0  0  0  0  0
   -5.6985    2.6404    1.0252 C   0  0  0  0  0  0  0  0  0  0  0  0
   -4.3630    2.7987    1.3703 C   0  0  0  0  0  0  0  0  0  0  0  0
   -3.4609    1.7731    1.0770 C   0  0  0  0  0  0  0  0  0  0  0  0
   -3.9579    0.6188    0.4447 C   0  0  0  0  0  0  0  0  0  0  0  0
   -1.5088   -1.2747    1.5139 C   0  0  0  0  0  0  0  0  0  0  0  0
   -0.0567   -1.7488    1.5404 C   0  0  0  0  0  0  0  0  0  0  0  0
    1.5193   -2.7709   -0.5287 N   0  0  0  0  0  0  0  0  0  0  0  0
    2.4406   -3.3820   -1.2901 C   0  0  0  0  0  0  0  0  0  0  0  0
    3.6443   -2.9250   -1.6410 N   0  0  0  0  0  0  0  0  0  0  0  0
    3.8939   -1.7122   -1.1193 C   0  0  0  0  0  0  0  0  0  0  0  0
    5.3769   -0.9295   -1.4213 S   0  0  0  0  0  0  0  0  0  0  0  0
    5.8995    2.2095   -2.3817 H   0  0  0  0  0  0  0  0  0  0  0  0
    6.3861    3.4608   -1.2253 H   0  0  0  0  0  0  0  0  0  0  0  0
    4.6760    3.0179   -1.3898 H   0  0  0  0  0  0  0  0  0  0  0  0
    5.7199    2.0372    0.6786 H   0  0  0  0  0  0  0  0  0  0  0  0
    6.9232    1.2219   -0.3097 H   0  0  0  0  0  0  0  0  0  0  0  0
    3.2024    1.0071    0.7045 H   0  0  0  0  0  0  0  0  0  0  0  0
   -0.1390    0.9823    0.7540 H   0  0  0  0  0  0  0  0  0  0  0  0
    0.8788    0.7536   -0.6416 H   0  0  0  0  0  0  0  0  0  0  0  0
   -0.6685   -0.8625   -1.6242 H   0  0  0  0  0  0  0  0  0  0  0  0
   -1.5243    0.6086   -1.2263 H   0  0  0  0  0  0  0  0  0  0  0  0
   -1.9733   -2.1184   -0.3824 H   0  0  0  0  0  0  0  0  0  0  0  0
   -4.5020   -2.3177   -1.0222 H   0  0  0  0  0  0  0  0  0  0  0  0
   -6.5334   -0.8412   -0.7579 H   0  0  0  0  0  0  0  0  0  0  0  0
   -6.4154    3.4282    1.2473 H   0  0  0  0  0  0  0  0  0  0  0  0
   -4.0282    3.7063    1.8622 H   0  0  0  0  0  0  0  0  0  0  0  0
   -2.4128    1.8710    1.3366 H   0  0  0  0  0  0  0  0  0  0  0  0
   -2.1416   -1.9989    2.0434 H   0  0  0  0  0  0  0  0  0  0  0  0
   -1.5983   -0.3318    2.0688 H   0  0  0  0  0  0  0  0  0  0  0  0
   -0.0359   -2.7961    1.2149 H   0  0  0  0  0  0  0  0  0  0  0  0
    0.2987   -1.7467    2.5783 H   0  0  0  0  0  0  0  0  0  0  0  0
    2.1708   -4.3654   -1.6660 H   0  0  0  0  0  0  0  0  0  0  0  0
  1  2  1  0
  2  3  1  0
  3  4  2  0
  4  5  1  0
  5  6  2  0
  6  7  1  0
  7  8  1  0
  8  9  1  0
  9 10  1  0
 10 11  1  0
 11 12  2  0
 12 13  1  0
 13 14  1  0
 14 15  1  0
 15 16  2  0
 16 17  1  0
 17 18  2  0
 18 19  1  0
 10 20  1  0
 20 21  1  0
  6 22  1  0
 22 23  2  0
 23 24  1  0
 24 25  2  0
 25 26  1  0
 26  3  1  0
 25  5  1  0
 21  7  1  0
 19 11  1  0
 19 14  2  0
  1 27  1  0
  1 28  1  0
  1 29  1  0
  2 30  1  0
  2 31  1  0
  4 32  1  0
  8 33  1  0
  8 34  1  0
  9 35  1  0
  9 36  1  0
 10 37  1  0
 12 38  1  0
 13 39  1  0
 16 40  1  0
 17 41  1  0
 18 42  1  0
 20 43  1  0
 20 44  1  0
 21 45  1  0
 21 46  1  0
 23 47  1  0
M  END
$$$$
OCNT-2317309
     RDKit          3D

 51 54  0  0  0  0  0  0  0  0999 V2000
   -7.1848   -0.4604   -1.5523 C   0  0  0  0  0  0  0  0  0  0  0  0
   -5.9848   -1.0340   -0.8657 C   0  0  0  0  0  0  0  0  0  0  0  0
   -6.0633   -2.3019   -0.4310 N   0  0  0  0  0  0  0  0  0  0  0  0
   -4.9839   -2.7636    0.2168 C   0  0  0  0  0  0  0  0  0  0  0  0
   -3.8493   -2.0157    0.4306 C   0  0  0  0  0  0  0  0  0  0  0  0
   -3.8434   -0.7201   -0.0566 C   0  0  0  0  0  0  0  0  0  0  0  0
   -2.7223    0.1029    0.1433 N   0  0  0  0  0  0  0  0  0  0  0  0
   -2.9045    1.4985   -0.2818 C   0  0  0  0  0  0  0  0  0  0  0  0
   -1.7509    2.3868    0.2574 C   0  0  0  0  0  0  0  0  0  0  0  0
   -0.3945    1.7738    0.3398 N   0  0  0  0  0  0  0  0  0  0  0  0
   -0.1011    1.3950    1.7513 C   0  0  0  0  0  0  0  0  0  0  0  0
    1.3853    1.0627    1.9708 C   0  0  0  0  0  0  0  0  0  0  0  0
    1.7474    0.4255    2.9562 O   0  0  0  0  0  0  0  0  0  0  0  0
    2.2113    1.6465    1.0286 N   0  0  0  0  0  0  0  0  0  0  0  0
    3.5919    1.6376    1.0613 C   0  0  0  0  0  0  0  0  0  0  0  0
    4.4035    2.6448    0.5806 C   0  0  0  0  0  0  0  0  0  0  0  0
    5.7115    2.2524    0.8919 C   0  0  0  0  0  0  0  0  0  0  0  0
    5.7567    1.0533    1.4687 N   0  0  0  0  0  0  0  0  0  0  0  0
    4.4549    0.6454    1.4938 N   0  0  0  0  0  0  0  0  0  0  0  0
    4.2144   -0.7765    1.7179 C   0  0  0  0  0  0  0  0  0  0  0  0
    4.2855   -1.5465    0.4255 C   0  0  0  0  0  0  0  0  0  0  0  0
    5.4062   -1.8462   -0.3300 C   0  0  0  0  0  0  0  0  0  0  0  0
    5.0905   -2.6029   -1.4955 C   0  0  0  0  0  0  0  0  0  0  0  0
    3.7406   -2.8673   -1.5880 C   0  0  0  0  0  0  0  0  0  0  0  0
    2.8618   -2.1994   -0.2809 S   0  0  0  0  0  0  0  0  0  0  0  0
   -0.3604    0.5838   -0.5489 C   0  0  0  0  0  0  0  0  0  0  0  0
   -1.4396   -0.4978   -0.2771 C   0  0  0  0  0  0  0  0  0  0  0  0
   -4.9220   -0.2250   -0.6924 N   0  0  0  0  0  0  0  0  0  0  0  0
   -7.8469    0.0003   -0.8126 H   0  0  0  0  0  0  0  0  0  0  0  0
   -7.7374   -1.2433   -2.0819 H   0  0  0  0  0  0  0  0  0  0  0  0
   -6.8850    0.2993   -2.2808 H   0  0  0  0  0  0  0  0  0  0  0  0
   -5.0587   -3.7845    0.5795 H   0  0  0  0  0  0  0  0  0  0  0  0
   -3.0166   -2.4271    0.9829 H   0  0  0  0  0  0  0  0  0  0  0  0
   -2.9275    1.5559   -1.3785 H   0  0  0  0  0  0  0  0  0  0  0  0
   -3.8459    1.9141    0.0996 H   0  0  0  0  0  0  0  0  0  0  0  0
   -2.0498    2.7969    1.2318 H   0  0  0  0  0  0  0  0  0  0  0  0
   -1.6742    3.2610   -0.4031 H   0  0  0  0  0  0  0  0  0  0  0  0
   -0.7108    0.5546    2.0971 H   0  0  0  0  0  0  0  0  0  0  0  0
   -0.2943    2.2503    2.4110 H   0  0  0  0  0  0  0  0  0  0  0  0
    1.7475    2.3582    0.4665 H   0  0  0  0  0  0  0  0  0  0  0  0
    4.0892    3.5718    0.1239 H   0  0  0  0  0  0  0  0  0  0  0  0
    6.6358    2.7893    0.7231 H   0  0  0  0  0  0  0  0  0  0  0  0
    4.9929   -1.1296    2.4079 H   0  0  0  0  0  0  0  0  0  0  0  0
    3.2641   -0.9325    2.2201 H   0  0  0  0  0  0  0  0  0  0  0  0
    6.4073   -1.5229   -0.0578 H   0  0  0  0  0  0  0  0  0  0  0  0
    5.8182   -2.9378   -2.2258 H   0  0  0  0  0  0  0  0  0  0  0  0
    3.2272   -3.4207   -2.3634 H   0  0  0  0  0  0  0  0  0  0  0  0
   -0.4805    0.9427   -1.5810 H   0  0  0  0  0  0  0  0  0  0  0  0
    0.6282    0.1127   -0.5347 H   0  0  0  0  0  0  0  0  0  0  0  0
   -1.5597   -1.0967   -1.1906 H   0  0  0  0  0  0  0  0  0  0  0  0
   -1.0798   -1.1636    0.5177 H   0  0  0  0  0  0  0  0  0  0  0  0
  1  2  1  0
  2  3  2  0
  3  4  1  0
  4  5  2  0
  5  6  1  0
  6  7  1  0
  7  8  1  0
  8  9  1  0
  9 10  1  0
 10 11  1  0
 11 12  1  0
 12 13  2  0
 12 14  1  0
 14 15  1  0
 15 16  2  0
 16 17  1  0
 17 18  2  0
 18 19  1  0
 19 20  1  0
 20 21  1  0
 21 22  2  0
 22 23  1  0
 23 24  2  0
 24 25  1  0
 10 26  1  0
 26 27  1  0
  6 28  2  0
 28  2  1  0
 27  7  1  0
 19 15  1  0
 25 21  1  0
  1 29  1  0
  1 30  1  0
  1 31  1  0
  4 32  1  0
  5 33  1  0
  8 34  1  0
  8 35  1  0
  9 36  1  0
  9 37  1  0
 11 38  1  0
 11 39  1  0
 14 40  1  0
 16 41  1  0
 17 42  1  0
 20 43  1  0
 20 44  1  0
 22 45  1  0
 23 46  1  0
 24 47  1  0
 26 48  1  0
 26 49  1  0
 27 50  1  0
 27 51  1  0
M  END
$$$$
OCNT-2317310
     RDKit          3D

 45 47  0  0  0  0  0  0  0  0999 V2000
    3.0860   -1.5643   -0.6389 O   0  0  0  0  0  0  0  0  0  0  0  0
    2.6074   -0.6158   -0.0291 C   0  0  0  0  0  0  0  0  0  0  0  0
    1.1446   -0.5737    0.3862 C   0  0  0  0  0  0  0  0  0  0  0  0
    0.3923   -1.8269   -0.0738 C   0  0  0  0  0  0  0  0  0  0  0  0
   -1.0329   -1.9173    0.2798 N   0  0  0  0  0  0  0  0  0  0  0  0
   -1.2810   -1.9905    1.7288 C   0  0  0  0  0  0  0  0  0  0  0  0
   -2.7804   -2.1751    2.0150 C   0  0  0  0  0  0  0  0  0  0  0  0
   -3.5520   -1.1046    1.4534 O   0  0  0  0  0  0  0  0  0  0  0  0
   -3.3641   -1.0496    0.0248 C   0  0  0  0  0  0  0  0  0  0  0  0
   -4.2017    0.0767   -0.5515 C   0  0  0  0  0  0  0  0  0  0  0  0
   -4.4413    1.2600    0.1679 C   0  0  0  0  0  0  0  0  0  0  0  0
   -5.1940    2.2983   -0.3885 C   0  0  0  0  0  0  0  0  0  0  0  0
   -5.7126    2.1685   -1.6746 C   0  0  0  0  0  0  0  0  0  0  0  0
   -5.4745    1.0029   -2.3920 C   0  0  0  0  0  0  0  0  0  0  0  0
   -5.9695    0.8787   -3.6306 F   0  0  0  0  0  0  0  0  0  0  0  0
   -4.7270   -0.0371   -1.8476 C   0  0  0  0  0  0  0  0  0  0  0  0
   -1.8627   -0.8510   -0.3152 C   0  0  0  0  0  0  0  0  0  0  0  0
    3.2775    0.5294    0.3747 N   0  0  0  0  0  0  0  0  0  0  0  0
    4.6371    0.8473    0.1743 C   0  0  0  0  0  0  0  0  0  0  0  0
    5.5458    0.0187   -0.4857 C   0  0  0  0  0  0  0  0  0  0  0  0
    6.8797    0.4109   -0.6415 C   0  0  0  0  0  0  0  0  0  0  0  0
    7.3160    1.6342   -0.1390 C   0  0  0  0  0  0  0  0  0  0  0  0
    6.4185    2.4683    0.5209 C   0  0  0  0  0  0  0  0  0  0  0  0
    5.0861    2.0765    0.6765 C   0  0  0  0  0  0  0  0  0  0  0  0
    1.1121   -0.4829    1.4773 H   0  0  0  0  0  0  0  0  0  0  0  0
    0.6998    0.3254   -0.0540 H   0  0  0  0  0  0  0  0  0  0  0  0
    0.8982   -2.7179    0.3214 H   0  0  0  0  0  0  0  0  0  0  0  0
    0.4784   -1.9168   -1.1649 H   0  0  0  0  0  0  0  0  0  0  0  0
   -0.9450   -1.0701    2.2209 H   0  0  0  0  0  0  0  0  0  0  0  0
   -0.7318   -2.8324    2.1648 H   0  0  0  0  0  0  0  0  0  0  0  0
   -2.9521   -2.1717    3.0961 H   0  0  0  0  0  0  0  0  0  0  0  0
   -3.1471   -3.1319    1.6239 H   0  0  0  0  0  0  0  0  0  0  0  0
   -3.7243   -2.0004   -0.3918 H   0  0  0  0  0  0  0  0  0  0  0  0
   -4.0465    1.3729    1.1765 H   0  0  0  0  0  0  0  0  0  0  0  0
   -5.3770    3.2036    0.1844 H   0  0  0  0  0  0  0  0  0  0  0  0
   -6.3002    2.9642   -2.1205 H   0  0  0  0  0  0  0  0  0  0  0  0
   -4.5633   -0.9306   -2.4435 H   0  0  0  0  0  0  0  0  0  0  0  0
   -1.7345   -0.8473   -1.4046 H   0  0  0  0  0  0  0  0  0  0  0  0
   -1.5399    0.1281    0.0612 H   0  0  0  0  0  0  0  0  0  0  0  0
    2.7332    1.2243    0.8699 H   0  0  0  0  0  0  0  0  0  0  0  0
    5.2516   -0.9430   -0.8938 H   0  0  0  0  0  0  0  0  0  0  0  0
    7.5758   -0.2454   -1.1581 H   0  0  0  0  0  0  0  0  0  0  0  0
    8.3531    1.9347   -0.2626 H   0  0  0  0  0  0  0  0  0  0  0  0
    6.7544    3.4241    0.9146 H   0  0  0  0  0  0  0  0  0  0  0  0
    4.4077    2.7482    1.1957 H   0  0  0  0  0  0  0  0  0  0  0  0
  1  2  2  0
  2  3  1  0
  3  4  1  0
  4  5  1  0
  5  6  1  0
  6  7  1  0
  7  8  1  0
  8  9  1  0
  9 10  1  0
 10 11  2  0
 11 12  1  0
 12 13  2  0
 13 14  1  0
 14 15  1  0
 14 16  2  0
  9 17  1  0
  2 18  1  0
 18 19  1  0
 19 20  2  0
 20 21  1  0
 21 22  2  0
 22 23  1  0
 23 24  2  0
 17  5  1  0
 24 19  1  0
 16 10  1  0
  3 25  1  0
  3 26  1  0
  4 27  1  0
  4 28  1  0
  6 29  1  0
  6 30  1  0
  7 31  1  0
  7 32  1  0
  9 33  1  0
 11 34  1  0
 12 35  1  0
 13 36  1  0
 16 37  1  0
 17 38  1  0
 17 39  1  0
 18 40  1  0
 20 41  1  0
 21 42  1  0
 22 43  1  0
 23 44  1  0
 24 45  1  0
M  END
$$$$
OCNT-2317311
     RDKit          3D

 48 50  0  0  0  0  0  0  0  0999 V2000
   -4.5993    1.4636    2.0051 C   0  0  0  0  0  0  0  0  0  0  0  0
   -5.0671    0.6654    0.8180 C   0  0  0  0  0  0  0  0  0  0  0  0
   -6.4508    0.5586    0.5927 C   0  0  0  0  0  0  0  0  0  0  0  0
   -6.9363   -0.1657   -0.4885 C   0  0  0  0  0  0  0  0  0  0  0  0
   -8.2586   -0.2545   -0.6837 F   0  0  0  0  0  0  0  0  0  0  0  0
   -6.0715   -0.7968   -1.3662 C   0  0  0  0  0  0  0  0  0  0  0  0
   -4.6961   -0.7011   -1.1579 C   0  0  0  0  0  0  0  0  0  0  0  0
   -4.1685    0.0269   -0.0700 C   0  0  0  0  0  0  0  0  0  0  0  0
   -2.6559    0.1014    0.1168 C   0  0  0  0  0  0  0  0  0  0  0  0
   -1.9565    0.7746   -1.0757 C   0  0  0  0  0  0  0  0  0  0  0  0
   -0.4464    0.8387   -0.8466 C   0  0  0  0  0  0  0  0  0  0  0  0
    0.0728   -0.5181   -0.6026 N   0  0  0  0  0  0  0  0  0  0  0  0
    1.4871   -0.5459   -0.5575 C   0  0  0  0  0  0  0  0  0  0  0  0
    2.1534   -1.7661   -0.6430 C   0  0  0  0  0  0  0  0  0  0  0  0
    3.5472   -1.8085   -0.6115 C   0  0  0  0  0  0  0  0  0  0  0  0
    4.2438   -0.6189   -0.4918 C   0  0  0  0  0  0  0  0  0  0  0  0
    5.7377   -0.6228   -0.4961 C   0  0  0  0  0  0  0  0  0  0  0  0
    6.2967   -1.5824   -1.0338 O   0  0  0  0  0  0  0  0  0  0  0  0
    6.4640    0.4205    0.0906 N   0  0  0  0  0  0  0  0  0  0  0  0
    7.8942    0.5020   -0.1522 C   0  0  0  0  0  0  0  0  0  0  0  0
    5.8915    1.4749    0.9154 C   0  0  0  0  0  0  0  0  0  0  0  0
    3.5969    0.5619   -0.4395 N   0  0  0  0  0  0  0  0  0  0  0  0
    2.2151    0.5908   -0.4692 N   0  0  0  0  0  0  0  0  0  0  0  0
   -0.5272   -1.1818    0.5667 C   0  0  0  0  0  0  0  0  0  0  0  0
   -2.0413   -1.2835    0.3797 C   0  0  0  0  0  0  0  0  0  0  0  0
   -4.0253    0.8290    2.6878 H   0  0  0  0  0  0  0  0  0  0  0  0
   -3.9851    2.3082    1.6771 H   0  0  0  0  0  0  0  0  0  0  0  0
   -5.4415    1.8739    2.5729 H   0  0  0  0  0  0  0  0  0  0  0  0
   -7.1657    1.0380    1.2557 H   0  0  0  0  0  0  0  0  0  0  0  0
   -6.4691   -1.3579   -2.2054 H   0  0  0  0  0  0  0  0  0  0  0  0
   -4.0330   -1.2045   -1.8591 H   0  0  0  0  0  0  0  0  0  0  0  0
   -2.4314    0.7154    0.9965 H   0  0  0  0  0  0  0  0  0  0  0  0
   -2.1515    0.2224   -2.0036 H   0  0  0  0  0  0  0  0  0  0  0  0
   -2.3484    1.7886   -1.2216 H   0  0  0  0  0  0  0  0  0  0  0  0
   -0.2309    1.5010    0.0027 H   0  0  0  0  0  0  0  0  0  0  0  0
    0.0138    1.2718   -1.7440 H   0  0  0  0  0  0  0  0  0  0  0  0
    1.5946   -2.6882   -0.7658 H   0  0  0  0  0  0  0  0  0  0  0  0
    4.0730   -2.7544   -0.6930 H   0  0  0  0  0  0  0  0  0  0  0  0
    8.1239    1.4867   -0.5706 H   0  0  0  0  0  0  0  0  0  0  0  0
    8.2418   -0.2635   -0.8504 H   0  0  0  0  0  0  0  0  0  0  0  0
    8.4193    0.3783    0.7995 H   0  0  0  0  0  0  0  0  0  0  0  0
    5.0294    1.1096    1.4780 H   0  0  0  0  0  0  0  0  0  0  0  0
    6.6382    1.8200    1.6376 H   0  0  0  0  0  0  0  0  0  0  0  0
    5.6022    2.3090    0.2704 H   0  0  0  0  0  0  0  0  0  0  0  0
   -0.2998   -0.6204    1.4828 H   0  0  0  0  0  0  0  0  0  0  0  0
   -0.1394   -2.1986    0.6987 H   0  0  0  0  0  0  0  0  0  0  0  0
   -2.4907   -1.7333    1.2735 H   0  0  0  0  0  0  0  0  0  0  0  0
   -2.2494   -1.9641   -0.4557 H   0  0  0  0  0  0  0  0  0  0  0  0
  1  2  1  0
  2  3  1  0
  3  4  2  0
  4  5  1  0
  4  6  1  0
  6  7  2  0
  7  8  1  0
  8  9  1  0
  9 10  1  0
 10 11  1  0
 11 12  1  0
 12 13  1  0
 13 14  2  0
 14 15  1  0
 15 16  2  0
 16 17  1  0
 17 18  2  0
 17 19  1  0
 19 20  1  0
 19 21  1  0
 16 22  1  0
 22 23  2  0
 12 24  1  0
 24 25  1  0
  8  2  2  0
 25  9  1  0
 23 13  1  0
  1 26  1  0
  1 27  1  0
  1 28  1  0
  3 29  1  0
  6 30  1  0
  7 31  1  0
  9 32  1  0
 10 33  1  0
 10 34  1  0
 11 35  1  0
 11 36  1  0
 14 37  1  0
 15 38  1  0
 20 39  1  0
 20 40  1  0
 20 41  1  0
 21 42  1  0
 21 43  1  0
 21 44  1  0
 24 45  1  0
 24 46  1  0
 25 47  1  0
 25 48  1  0
M  END
$$$$
OCNT-2317322
     RDKit          3D

 49 51  0  0  0  0  0  0  0  0999 V2000
   -3.5834    2.7306    0.9509 O   0  0  0  0  0  0  0  0  0  0  0  0
   -3.1698    1.5829    1.0845 C   0  0  0  0  0  0  0  0  0  0  0  0
   -1.8644    1.2967    1.8424 C   0  0  0  0  0  0  0  0  0  0  0  0
   -0.9313    0.5507    0.9724 N   0  0  0  0  0  0  0  0  0  0  0  0
   -0.3783    1.4233   -0.0840 C   0  0  0  0  0  0  0  0  0  0  0  0
    1.0781    1.0036   -0.2649 C   0  0  0  0  0  0  0  0  0  0  0  0
    1.2520   -0.2154    0.6301 C   0  0  0  0  0  0  0  0  0  0  0  0
    2.6591   -0.4336    1.2139 C   0  0  0  0  0  0  0  0  0  0  0  0
    3.7771   -0.6656    0.2977 N   0  0  0  0  0  0  0  0  0  0  0  0
    3.6324   -1.8471   -0.5579 C   0  0  0  0  0  0  0  0  0  0  0  0
    4.5869   -1.8574   -1.7570 C   0  0  0  0  0  0  0  0  0  0  0  0
    5.9105   -1.1874   -1.4267 C   0  0  0  0  0  0  0  0  0  0  0  0
    5.7040    0.2379   -0.9049 C   0  0  0  0  0  0  0  0  0  0  0  0
    4.2841    0.5070   -0.3998 C   0  0  0  0  0  0  0  0  0  0  0  0
    0.2164    0.0394    1.7282 C   0  0  0  0  0  0  0  0  0  0  0  0
   -3.7432    0.4056    0.6294 N   0  0  0  0  0  0  0  0  0  0  0  0
   -4.9688    0.2010   -0.0339 C   0  0  0  0  0  0  0  0  0  0  0  0
   -5.1848   -1.0944   -0.5321 C   0  0  0  0  0  0  0  0  0  0  0  0
   -6.3638   -1.4110   -1.2091 C   0  0  0  0  0  0  0  0  0  0  0  0
   -6.5495   -2.6603   -1.6693 F   0  0  0  0  0  0  0  0  0  0  0  0
   -7.3509   -0.4564   -1.4049 C   0  0  0  0  0  0  0  0  0  0  0  0
   -7.1574    0.8297   -0.9020 C   0  0  0  0  0  0  0  0  0  0  0  0
   -5.9811    1.1525   -0.2145 C   0  0  0  0  0  0  0  0  0  0  0  0
   -5.8939    2.3930    0.2824 F   0  0  0  0  0  0  0  0  0  0  0  0
   -1.4313    2.2399    2.1948 H   0  0  0  0  0  0  0  0  0  0  0  0
   -2.1305    0.7048    2.7251 H   0  0  0  0  0  0  0  0  0  0  0  0
   -0.9428    1.2871   -1.0125 H   0  0  0  0  0  0  0  0  0  0  0  0
   -0.4095    2.4907    0.1750 H   0  0  0  0  0  0  0  0  0  0  0  0
    1.7320    1.8250    0.0641 H   0  0  0  0  0  0  0  0  0  0  0  0
    1.3036    0.7746   -1.3135 H   0  0  0  0  0  0  0  0  0  0  0  0
    0.9386   -1.1090    0.0713 H   0  0  0  0  0  0  0  0  0  0  0  0
    2.9142    0.4094    1.8743 H   0  0  0  0  0  0  0  0  0  0  0  0
    2.6068   -1.2992    1.8906 H   0  0  0  0  0  0  0  0  0  0  0  0
    2.6212   -1.9474   -0.9581 H   0  0  0  0  0  0  0  0  0  0  0  0
    3.8182   -2.7356    0.0597 H   0  0  0  0  0  0  0  0  0  0  0  0
    4.1227   -1.3330   -2.6051 H   0  0  0  0  0  0  0  0  0  0  0  0
    4.7547   -2.8908   -2.0775 H   0  0  0  0  0  0  0  0  0  0  0  0
    6.4277   -1.7785   -0.6572 H   0  0  0  0  0  0  0  0  0  0  0  0
    6.5638   -1.1785   -2.3029 H   0  0  0  0  0  0  0  0  0  0  0  0
    6.4252    0.4150   -0.0978 H   0  0  0  0  0  0  0  0  0  0  0  0
    5.9356    0.9675   -1.6965 H   0  0  0  0  0  0  0  0  0  0  0  0
    4.3205    1.3741    0.2666 H   0  0  0  0  0  0  0  0  0  0  0  0
    3.6421    0.7798   -1.2463 H   0  0  0  0  0  0  0  0  0  0  0  0
   -0.0438   -0.8962    2.2495 H   0  0  0  0  0  0  0  0  0  0  0  0
    0.5832    0.7702    2.4747 H   0  0  0  0  0  0  0  0  0  0  0  0
   -3.1048   -0.3858    0.6750 H   0  0  0  0  0  0  0  0  0  0  0  0
   -4.4458   -1.8798   -0.4073 H   0  0  0  0  0  0  0  0  0  0  0  0
   -8.2608   -0.7218   -1.9343 H   0  0  0  0  0  0  0  0  0  0  0  0
   -7.9206    1.5921   -1.0242 H   0  0  0  0  0  0  0  0  0  0  0  0
  1  2  2  0
  2  3  1  0
  3  4  1  0
  4  5  1  0
  5  6  1  0
  6  7  1  0
  7  8  1  0
  8  9  1  0
  9 10  1  0
 10 11  1  0
 11 12  1  0
 12 13  1  0
 13 14  1  0
  7 15  1  0
  2 16  1  0
 16 17  1  0
 17 18  1  0
 18 19  2  0
 19 20  1  0
 19 21  1  0
 21 22  2  0
 22 23  1  0
 23 24  1  0
 15  4  1  0
 23 17  2  0
 14  9  1  0
  3 25  1  0
  3 26  1  0
  5 27  1  0
  5 28  1  0
  6 29  1  0
  6 30  1  0
  7 31  1  0
  8 32  1  0
  8 33  1  0
 10 34  1  0
 10 35  1  0
 11 36  1  0
 11 37  1  0
 12 38  1  0
 12 39  1  0
 13 40  1  0
 13 41  1  0
 14 42  1  0
 14 43  1  0
 15 44  1  0
 15 45  1  0
 16 46  1  0
 18 47  1  0
 21 48  1  0
 22 49  1  0
M  END
$$$$
OCNT-2317326
     RDKit          3D

 48 50  0  0  0  0  0  0  0  0999 V2000
   -1.3154    2.4316    1.2506 O   0  0  0  0  0  0  0  0  0  0  0  0
   -1.4574    1.3032    0.7594 C   0  0  0  0  0  0  0  0  0  0  0  0
   -0.3189    0.2725    0.9675 C   0  0  0  0  0  0  0  0  0  0  0  0
   -0.6069   -0.6470    2.1738 C   0  0  0  0  0  0  0  0  0  0  0  0
   -0.7871   -2.1261    1.8464 C   0  0  0  0  0  0  0  0  0  0  0  0
    0.1720   -2.6491    0.7780 C   0  0  0  0  0  0  0  0  0  0  0  0
    0.9556   -1.5592    0.0470 C   0  0  0  0  0  0  0  0  0  0  0  0
    0.0713   -0.4397   -0.2723 N   0  0  0  0  0  0  0  0  0  0  0  0
    0.5958    0.4386   -1.3367 C   0  0  0  0  0  0  0  0  0  0  0  0
    1.7641    1.4086   -1.0516 C   0  0  0  0  0  0  0  0  0  0  0  0
    3.1037    0.7708   -0.7739 C   0  0  0  0  0  0  0  0  0  0  0  0
    3.7520    0.0030   -1.7561 C   0  0  0  0  0  0  0  0  0  0  0  0
    4.9938   -0.5823   -1.4953 C   0  0  0  0  0  0  0  0  0  0  0  0
    5.5942   -0.3964   -0.2554 C   0  0  0  0  0  0  0  0  0  0  0  0
    6.7838   -0.9623   -0.0098 F   0  0  0  0  0  0  0  0  0  0  0  0
    4.9682    0.3692    0.7192 C   0  0  0  0  0  0  0  0  0  0  0  0
    5.5490    0.5479    1.9136 F   0  0  0  0  0  0  0  0  0  0  0  0
    3.7311    0.9566    0.4679 C   0  0  0  0  0  0  0  0  0  0  0  0
   -2.6230    0.9737    0.0897 N   0  0  0  0  0  0  0  0  0  0  0  0
   -3.6642    1.9957   -0.0598 C   0  0  0  0  0  0  0  0  0  0  0  0
   -4.4563    1.8019   -1.3561 C   0  0  0  0  0  0  0  0  0  0  0  0
   -5.0856    0.5171   -1.4605 O   0  0  0  0  0  0  0  0  0  0  0  0
   -4.4041   -0.5228   -0.7461 C   0  0  0  0  0  0  0  0  0  0  0  0
   -2.8968   -0.2850   -0.6070 C   0  0  0  0  0  0  0  0  0  0  0  0
    0.5401    0.8791    1.2864 H   0  0  0  0  0  0  0  0  0  0  0  0
    0.2500   -0.5754    2.8583 H   0  0  0  0  0  0  0  0  0  0  0  0
   -1.4768   -0.2963    2.7421 H   0  0  0  0  0  0  0  0  0  0  0  0
   -0.6720   -2.7183    2.7628 H   0  0  0  0  0  0  0  0  0  0  0  0
   -1.8182   -2.3072    1.5248 H   0  0  0  0  0  0  0  0  0  0  0  0
   -0.4042   -3.2358    0.0508 H   0  0  0  0  0  0  0  0  0  0  0  0
    0.8830   -3.3483    1.2348 H   0  0  0  0  0  0  0  0  0  0  0  0
    1.8002   -1.2415    0.6683 H   0  0  0  0  0  0  0  0  0  0  0  0
    1.3731   -2.0047   -0.8640 H   0  0  0  0  0  0  0  0  0  0  0  0
   -0.2410    1.0556   -1.6891 H   0  0  0  0  0  0  0  0  0  0  0  0
    0.8461   -0.1848   -2.2052 H   0  0  0  0  0  0  0  0  0  0  0  0
    1.4951    2.0989   -0.2437 H   0  0  0  0  0  0  0  0  0  0  0  0
    1.8919    2.0520   -1.9333 H   0  0  0  0  0  0  0  0  0  0  0  0
    3.2940   -0.1427   -2.7327 H   0  0  0  0  0  0  0  0  0  0  0  0
    5.4963   -1.1781   -2.2509 H   0  0  0  0  0  0  0  0  0  0  0  0
    3.2658    1.5515    1.2491 H   0  0  0  0  0  0  0  0  0  0  0  0
   -4.3283    1.8888    0.8058 H   0  0  0  0  0  0  0  0  0  0  0  0
   -3.2292    2.9998   -0.0348 H   0  0  0  0  0  0  0  0  0  0  0  0
   -3.7967    1.9172   -2.2242 H   0  0  0  0  0  0  0  0  0  0  0  0
   -5.2409    2.5606   -1.4383 H   0  0  0  0  0  0  0  0  0  0  0  0
   -4.5921   -1.4628   -1.2744 H   0  0  0  0  0  0  0  0  0  0  0  0
   -4.8689   -0.6039    0.2434 H   0  0  0  0  0  0  0  0  0  0  0  0
   -2.4418   -1.1214   -0.0860 H   0  0  0  0  0  0  0  0  0  0  0  0
   -2.4444   -0.2028   -1.6016 H   0  0  0  0  0  0  0  0  0  0  0  0
  1  2  2  0
  2  3  1  0
  3  4  1  0
  4  5  1  0
  5  6  1  0
  6  7  1  0
  7  8  1  0
  8  9  1  0
  9 10  1  0
 10 11  1  0
 11 12  1  0
 12 13  2  0
 13 14  1  0
 14 15  1  0
 14 16  2  0
 16 17  1  0
 16 18  1  0
  2 19  1  0
 19 20  1  0
 20 21  1  0
 21 22  1  0
 22 23  1  0
 23 24  1  0
  8  3  1  0
 18 11  2  0
 24 19  1  0
  3 25  1  0
  4 26  1  0
  4 27  1  0
  5 28  1  0
  5 29  1  0
  6 30  1  0
  6 31  1  0
  7 32  1  0
  7 33  1  0
  9 34  1  0
  9 35  1  0
 10 36  1  0
 10 37  1  0
 12 38  1  0
 13 39  1  0
 18 40  1  0
 20 41  1  0
 20 42  1  0
 21 43  1  0
 21 44  1  0
 23 45  1  0
 23 46  1  0
 24 47  1  0
 24 48  1  0
M  END
$$$$
OCNT-2317327
     RDKit          3D

 52 54  0  0  0  0  0  0  0  0999 V2000
    6.0918   -0.7869   -2.6423 C   0  0  0  0  0  0  0  0  0  0  0  0
    5.3239   -1.1021   -1.3744 C   0  0  0  0  0  0  0  0  0  0  0  0
    4.3962   -0.0445   -1.1369 O   0  0  0  0  0  0  0  0  0  0  0  0
    3.6589   -0.2208    0.0873 C   0  0  0  0  0  0  0  0  0  0  0  0
    2.1809   -0.1041   -0.2728 C   0  0  0  0  0  0  0  0  0  0  0  0
    1.1772   -1.0252    0.8793 S   0  0  0  0  0  0  0  0  0  0  0  0
    1.2724   -0.3918    2.1773 O   0  0  0  0  0  0  0  0  0  0  0  0
    1.4366   -2.4397    0.7178 O   0  0  0  0  0  0  0  0  0  0  0  0
   -0.3935   -0.7320    0.2906 N   0  0  0  0  0  0  0  0  0  0  0  0
   -0.7654   -1.3850   -0.9821 C   0  0  0  0  0  0  0  0  0  0  0  0
   -1.6152   -0.4437   -1.8265 C   0  0  0  0  0  0  0  0  0  0  0  0
   -2.5447    0.4866   -1.0484 C   0  0  0  0  0  0  0  0  0  0  0  0
   -3.4522   -0.2447   -0.1610 N   0  0  0  0  0  0  0  0  0  0  0  0
   -4.7179    0.2880    0.1073 C   0  0  0  0  0  0  0  0  0  0  0  0
   -5.7707   -0.5645    0.4979 C   0  0  0  0  0  0  0  0  0  0  0  0
   -7.0540   -0.0763    0.7674 C   0  0  0  0  0  0  0  0  0  0  0  0
   -7.3035    1.2818    0.6466 C   0  0  0  0  0  0  0  0  0  0  0  0
   -8.5308    1.7536    0.9039 F   0  0  0  0  0  0  0  0  0  0  0  0
   -6.2873    2.1420    0.2602 C   0  0  0  0  0  0  0  0  0  0  0  0
   -6.5248    3.4565    0.1459 F   0  0  0  0  0  0  0  0  0  0  0  0
   -5.0083    1.6554   -0.0099 C   0  0  0  0  0  0  0  0  0  0  0  0
   -2.8876   -1.1180    0.8948 C   0  0  0  0  0  0  0  0  0  0  0  0
   -1.4559   -0.7724    1.3575 C   0  0  0  0  0  0  0  0  0  0  0  0
    4.0769    0.8299    1.0921 C   0  0  0  0  0  0  0  0  0  0  0  0
    4.2623    2.2739    0.6909 C   0  0  0  0  0  0  0  0  0  0  0  0
    5.4543    1.4517    1.0974 C   0  0  0  0  0  0  0  0  0  0  0  0
    6.6281    0.1623   -2.5413 H   0  0  0  0  0  0  0  0  0  0  0  0
    6.8125   -1.5775   -2.8687 H   0  0  0  0  0  0  0  0  0  0  0  0
    5.4081   -0.6779   -3.4906 H   0  0  0  0  0  0  0  0  0  0  0  0
    4.7790   -2.0452   -1.4934 H   0  0  0  0  0  0  0  0  0  0  0  0
    6.0171   -1.1899   -0.5309 H   0  0  0  0  0  0  0  0  0  0  0  0
    3.8745   -1.2083    0.5143 H   0  0  0  0  0  0  0  0  0  0  0  0
    2.0021   -0.5205   -1.2684 H   0  0  0  0  0  0  0  0  0  0  0  0
    1.8358    0.9347   -0.2629 H   0  0  0  0  0  0  0  0  0  0  0  0
   -1.2794   -2.3334   -0.7969 H   0  0  0  0  0  0  0  0  0  0  0  0
    0.1210   -1.6516   -1.5669 H   0  0  0  0  0  0  0  0  0  0  0  0
   -2.1947   -1.0411   -2.5413 H   0  0  0  0  0  0  0  0  0  0  0  0
   -0.9462    0.1865   -2.4269 H   0  0  0  0  0  0  0  0  0  0  0  0
   -1.9751    1.2358   -0.4845 H   0  0  0  0  0  0  0  0  0  0  0  0
   -3.1158    1.0391   -1.8064 H   0  0  0  0  0  0  0  0  0  0  0  0
   -5.5998   -1.6368    0.5706 H   0  0  0  0  0  0  0  0  0  0  0  0
   -7.8532   -0.7489    1.0611 H   0  0  0  0  0  0  0  0  0  0  0  0
   -4.2469    2.3759   -0.2884 H   0  0  0  0  0  0  0  0  0  0  0  0
   -2.9340   -2.1548    0.5422 H   0  0  0  0  0  0  0  0  0  0  0  0
   -3.5100   -1.0883    1.7996 H   0  0  0  0  0  0  0  0  0  0  0  0
   -1.1765   -1.5126    2.1174 H   0  0  0  0  0  0  0  0  0  0  0  0
   -1.4679    0.2137    1.8378 H   0  0  0  0  0  0  0  0  0  0  0  0
    3.6392    0.6398    2.0679 H   0  0  0  0  0  0  0  0  0  0  0  0
    3.9145    3.0386    1.3760 H   0  0  0  0  0  0  0  0  0  0  0  0
    4.1722    2.5415   -0.3562 H   0  0  0  0  0  0  0  0  0  0  0  0
    6.1653    1.1893    0.3234 H   0  0  0  0  0  0  0  0  0  0  0  0
    5.9105    1.6619    2.0584 H   0  0  0  0  0  0  0  0  0  0  0  0
  1  2  1  0
  2  3  1  0
  3  4  1  0
  4  5  1  0
  5  6  1  0
  6  7  2  0
  6  8  2  0
  6  9  1  0
  9 10  1  0
 10 11  1  0
 11 12  1  0
 12 13  1  0
 13 14  1  0
 14 15  1  0
 15 16  2  0
 16 17  1  0
 17 18  1  0
 17 19  2  0
 19 20  1  0
 19 21  1  0
 13 22  1  0
 22 23  1  0
  4 24  1  0
 24 25  1  0
 25 26  1  0
 23  9  1  0
 26 24  1  0
 21 14  2  0
  1 27  1  0
  1 28  1  0
  1 29  1  0
  2 30  1  0
  2 31  1  0
  4 32  1  0
  5 33  1  0
  5 34  1  0
 10 35  1  0
 10 36  1  0
 11 37  1  0
 11 38  1  0
 12 39  1  0
 12 40  1  0
 15 41  1  0
 16 42  1  0
 21 43  1  0
 22 44  1  0
 22 45  1  0
 23 46  1  0
 23 47  1  0
 24 48  1  0
 25 49  1  0
 25 50  1  0
 26 51  1  0
 26 52  1  0
M  END
$$$$
OCNT-2317332
     RDKit          3D

 56 58  0  0  0  0  0  0  0  0999 V2000
    3.7874   -3.6395    1.5452 C   0  0  0  0  0  0  0  0  0  0  0  0
    4.3013   -2.2247    1.3272 C   0  0  0  0  0  0  0  0  0  0  0  0
    3.3543   -1.4094    0.5670 N   0  0  0  0  0  0  0  0  0  0  0  0
    3.3862   -1.5406   -0.8895 C   0  0  0  0  0  0  0  0  0  0  0  0
    3.8164   -0.2815   -1.6054 C   0  0  0  0  0  0  0  0  0  0  0  0
    3.1871    0.0928   -2.8050 C   0  0  0  0  0  0  0  0  0  0  0  0
    3.5886    1.2396   -3.4964 C   0  0  0  0  0  0  0  0  0  0  0  0
    4.6319    2.0195   -3.0027 C   0  0  0  0  0  0  0  0  0  0  0  0
    5.2668    1.6449   -1.8255 C   0  0  0  0  0  0  0  0  0  0  0  0
    6.2740    2.3913   -1.3546 F   0  0  0  0  0  0  0  0  0  0  0  0
    4.8751    0.5058   -1.1289 C   0  0  0  0  0  0  0  0  0  0  0  0
    2.3567   -0.7308    1.2770 C   0  0  0  0  0  0  0  0  0  0  0  0
    2.3108   -0.7924    2.5091 O   0  0  0  0  0  0  0  0  0  0  0  0
    1.3578    0.1233    0.4592 C   0  0  0  0  0  0  0  0  0  0  0  0
    0.1212    0.4409    1.2097 N   0  0  0  0  0  0  0  0  0  0  0  0
   -0.6322   -0.7872    1.5476 C   0  0  0  0  0  0  0  0  0  0  0  0
   -2.1568   -0.5615    1.6415 C   0  0  0  0  0  0  0  0  0  0  0  0
   -2.7325   -0.1462    0.3473 N   0  0  0  0  0  0  0  0  0  0  0  0
   -4.1419    0.2683    0.4602 C   0  0  0  0  0  0  0  0  0  0  0  0
   -4.3838    1.6456    1.1022 C   0  0  0  0  0  0  0  0  0  0  0  0
   -5.8752    1.9596    1.1215 C   0  0  0  0  0  0  0  0  0  0  0  0
   -6.4231    1.8992   -0.1943 O   0  0  0  0  0  0  0  0  0  0  0  0
   -6.3094    0.5968   -0.7656 C   0  0  0  0  0  0  0  0  0  0  0  0
   -4.8471    0.1940   -0.9055 C   0  0  0  0  0  0  0  0  0  0  0  0
   -1.8386    0.7714   -0.3825 C   0  0  0  0  0  0  0  0  0  0  0  0
   -0.7211    1.4056    0.4782 C   0  0  0  0  0  0  0  0  0  0  0  0
    4.5143   -4.2238    2.1174 H   0  0  0  0  0  0  0  0  0  0  0  0
    2.8413   -3.6356    2.0962 H   0  0  0  0  0  0  0  0  0  0  0  0
    3.6148   -4.1485    0.5914 H   0  0  0  0  0  0  0  0  0  0  0  0
    4.4901   -1.7564    2.2998 H   0  0  0  0  0  0  0  0  0  0  0  0
    5.2586   -2.2411    0.7941 H   0  0  0  0  0  0  0  0  0  0  0  0
    4.0780   -2.3442   -1.1701 H   0  0  0  0  0  0  0  0  0  0  0  0
    2.3915   -1.8585   -1.2206 H   0  0  0  0  0  0  0  0  0  0  0  0
    2.3741   -0.5068   -3.2120 H   0  0  0  0  0  0  0  0  0  0  0  0
    3.0897    1.5223   -4.4204 H   0  0  0  0  0  0  0  0  0  0  0  0
    4.9564    2.9123   -3.5276 H   0  0  0  0  0  0  0  0  0  0  0  0
    5.3997    0.2507   -0.2128 H   0  0  0  0  0  0  0  0  0  0  0  0
    1.8866    1.0547    0.2240 H   0  0  0  0  0  0  0  0  0  0  0  0
    1.0876   -0.3735   -0.4755 H   0  0  0  0  0  0  0  0  0  0  0  0
   -0.4553   -1.5762    0.8036 H   0  0  0  0  0  0  0  0  0  0  0  0
   -0.2777   -1.1691    2.5114 H   0  0  0  0  0  0  0  0  0  0  0  0
   -2.6295   -1.4994    1.9565 H   0  0  0  0  0  0  0  0  0  0  0  0
   -2.3531    0.1785    2.4268 H   0  0  0  0  0  0  0  0  0  0  0  0
   -4.6450   -0.4780    1.0928 H   0  0  0  0  0  0  0  0  0  0  0  0
   -3.9928    1.6831    2.1240 H   0  0  0  0  0  0  0  0  0  0  0  0
   -3.8761    2.4273    0.5256 H   0  0  0  0  0  0  0  0  0  0  0  0
   -6.0359    2.9732    1.5026 H   0  0  0  0  0  0  0  0  0  0  0  0
   -6.4206    1.2707    1.7774 H   0  0  0  0  0  0  0  0  0  0  0  0
   -6.7830    0.6234   -1.7522 H   0  0  0  0  0  0  0  0  0  0  0  0
   -6.8661   -0.1217   -0.1524 H   0  0  0  0  0  0  0  0  0  0  0  0
   -4.3685    0.8751   -1.6189 H   0  0  0  0  0  0  0  0  0  0  0  0
   -4.7804   -0.8184   -1.3205 H   0  0  0  0  0  0  0  0  0  0  0  0
   -1.3645    0.1889   -1.1829 H   0  0  0  0  0  0  0  0  0  0  0  0
   -2.3831    1.5727   -0.8925 H   0  0  0  0  0  0  0  0  0  0  0  0
   -1.1921    2.0608    1.2230 H   0  0  0  0  0  0  0  0  0  0  0  0
   -0.1125    2.0726   -0.1453 H   0  0  0  0  0  0  0  0  0  0  0  0
  1  2  1  0
  2  3  1  0
  3  4  1  0
  4  5  1  0
  5  6  2  0
  6  7  1  0
  7  8  2  0
  8  9  1  0
  9 10  1  0
  9 11  2  0
  3 12  1  0
 12 13  2  0
 12 14  1  0
 14 15  1  0
 15 16  1  0
 16 17  1  0
 17 18  1  0
 18 19  1  0
 19 20  1  0
 20 21  1  0
 21 22  1  0
 22 23  1  0
 23 24  1  0
 18 25  1  0
 25 26  1  0
 11  5  1  0
 26 15  1  0
 24 19  1  0
  1 27  1  0
  1 28  1  0
  1 29  1  0
  2 30  1  0
  2 31  1  0
  4 32  1  0
  4 33  1  0
  6 34  1  0
  7 35  1  0
  8 36  1  0
 11 37  1  0
 14 38  1  0
 14 39  1  0
 16 40  1  0
 16 41  1  0
 17 42  1  0
 17 43  1  0
 19 44  1  0
 20 45  1  0
 20 46  1  0
 21 47  1  0
 21 48  1  0
 23 49  1  0
 23 50  1  0
 24 51  1  0
 24 52  1  0
 25 53  1  0
 25 54  1  0
 26 55  1  0
 26 56  1  0
M  END
$$$$
OCNT-2317336
     RDKit          3D

 57 59  0  0  0  0  0  0  0  0999 V2000
    8.3816   -2.4041   -1.1811 C   0  0  0  0  0  0  0  0  0  0  0  0
    7.3715   -1.4875   -1.5879 O   0  0  0  0  0  0  0  0  0  0  0  0
    6.8152   -0.7119   -0.6017 C   0  0  0  0  0  0  0  0  0  0  0  0
    7.1377   -0.7498    0.7535 C   0  0  0  0  0  0  0  0  0  0  0  0
    6.4758    0.0936    1.6503 C   0  0  0  0  0  0  0  0  0  0  0  0
    5.4984    0.9822    1.1964 C   0  0  0  0  0  0  0  0  0  0  0  0
    5.1711    1.0499   -0.1644 C   0  0  0  0  0  0  0  0  0  0  0  0
    4.1046    2.0008   -0.6393 C   0  0  0  0  0  0  0  0  0  0  0  0
    2.8222    1.3414   -0.7512 N   0  0  0  0  0  0  0  0  0  0  0  0
    1.9588    1.2970    0.3105 C   0  0  0  0  0  0  0  0  0  0  0  0
    2.1286    1.8784    1.3732 O   0  0  0  0  0  0  0  0  0  0  0  0
    0.8635    0.5213    0.0194 N   0  0  0  0  0  0  0  0  0  0  0  0
   -0.2500    0.4089    0.9565 C   0  0  0  0  0  0  0  0  0  0  0  0
   -1.0440   -0.8700    0.6692 C   0  0  0  0  0  0  0  0  0  0  0  0
   -2.4824   -0.7351    1.1597 C   0  0  0  0  0  0  0  0  0  0  0  0
   -3.2136    0.3228    0.4440 N   0  0  0  0  0  0  0  0  0  0  0  0
   -4.4048    0.7791    1.1885 C   0  0  0  0  0  0  0  0  0  0  0  0
   -5.4979   -0.2871    1.4052 C   0  0  0  0  0  0  0  0  0  0  0  0
   -6.3068   -0.5909    0.1650 C   0  0  0  0  0  0  0  0  0  0  0  0
   -5.8166   -1.4659   -0.8130 C   0  0  0  0  0  0  0  0  0  0  0  0
   -6.5649   -1.7410   -1.9590 C   0  0  0  0  0  0  0  0  0  0  0  0
   -7.8104   -1.1430   -2.1399 C   0  0  0  0  0  0  0  0  0  0  0  0
   -8.3071   -0.2672   -1.1767 C   0  0  0  0  0  0  0  0  0  0  0  0
   -7.5590    0.0096   -0.0308 C   0  0  0  0  0  0  0  0  0  0  0  0
   -2.3609    1.4527    0.0386 C   0  0  0  0  0  0  0  0  0  0  0  0
   -1.1449    1.6580    0.9378 C   0  0  0  0  0  0  0  0  0  0  0  0
    5.8298    0.1853   -1.0432 C   0  0  0  0  0  0  0  0  0  0  0  0
    5.4990    0.2037   -2.3757 O   0  0  0  0  0  0  0  0  0  0  0  0
    8.7257   -2.9378   -2.0724 H   0  0  0  0  0  0  0  0  0  0  0  0
    9.2426   -1.8791   -0.7539 H   0  0  0  0  0  0  0  0  0  0  0  0
    7.9821   -3.1465   -0.4822 H   0  0  0  0  0  0  0  0  0  0  0  0
    7.8893   -1.4240    1.1487 H   0  0  0  0  0  0  0  0  0  0  0  0
    6.7163    0.0558    2.7104 H   0  0  0  0  0  0  0  0  0  0  0  0
    4.9794    1.6184    1.9128 H   0  0  0  0  0  0  0  0  0  0  0  0
    4.0268    2.8622    0.0344 H   0  0  0  0  0  0  0  0  0  0  0  0
    4.3589    2.3967   -1.6286 H   0  0  0  0  0  0  0  0  0  0  0  0
    2.8166    0.5313   -1.3528 H   0  0  0  0  0  0  0  0  0  0  0  0
    0.6404    0.4728   -0.9643 H   0  0  0  0  0  0  0  0  0  0  0  0
    0.1879    0.3333    1.9606 H   0  0  0  0  0  0  0  0  0  0  0  0
   -0.5559   -1.7221    1.1580 H   0  0  0  0  0  0  0  0  0  0  0  0
   -1.0468   -1.0989   -0.4053 H   0  0  0  0  0  0  0  0  0  0  0  0
   -2.4661   -0.5435    2.2408 H   0  0  0  0  0  0  0  0  0  0  0  0
   -2.9907   -1.6934    1.0079 H   0  0  0  0  0  0  0  0  0  0  0  0
   -4.8675    1.6209    0.6560 H   0  0  0  0  0  0  0  0  0  0  0  0
   -4.0919    1.1645    2.1681 H   0  0  0  0  0  0  0  0  0  0  0  0
   -5.0853   -1.2172    1.8131 H   0  0  0  0  0  0  0  0  0  0  0  0
   -6.1801    0.0810    2.1833 H   0  0  0  0  0  0  0  0  0  0  0  0
   -4.8414   -1.9311   -0.6912 H   0  0  0  0  0  0  0  0  0  0  0  0
   -6.1720   -2.4190   -2.7115 H   0  0  0  0  0  0  0  0  0  0  0  0
   -8.3920   -1.3572   -3.0326 H   0  0  0  0  0  0  0  0  0  0  0  0
   -9.2769    0.2027   -1.3184 H   0  0  0  0  0  0  0  0  0  0  0  0
   -7.9610    0.6980    0.7089 H   0  0  0  0  0  0  0  0  0  0  0  0
   -2.9306    2.3877   -0.0276 H   0  0  0  0  0  0  0  0  0  0  0  0
   -2.0132    1.2566   -0.9840 H   0  0  0  0  0  0  0  0  0  0  0  0
   -1.4931    1.8669    1.9580 H   0  0  0  0  0  0  0  0  0  0  0  0
   -0.5888    2.5453    0.6138 H   0  0  0  0  0  0  0  0  0  0  0  0
    6.0928   -0.4556   -2.7871 H   0  0  0  0  0  0  0  0  0  0  0  0
  1  2  1  0
  2  3  1  0
  3  4  1  0
  4  5  2  0
  5  6  1  0
  6  7  2  0
  7  8  1  0
  8  9  1  0
  9 10  1  0
 10 11  2  0
 10 12  1  0
 12 13  1  0
 13 14  1  0
 14 15  1  0
 15 16  1  0
 16 17  1  0
 17 18  1  0
 18 19  1  0
 19 20  2  0
 20 21  1  0
 21 22  2  0
 22 23  1  0
 23 24  2  0
 16 25  1  0
 25 26  1  0
  7 27  1  0
 27 28  1  0
 27  3  2  0
 26 13  1  0
 24 19  1  0
  1 29  1  0
  1 30  1  0
  1 31  1  0
  4 32  1  0
  5 33  1  0
  6 34  1  0
  8 35  1  0
  8 36  1  0
  9 37  1  0
 12 38  1  0
 13 39  1  0
 14 40  1  0
 14 41  1  0
 15 42  1  0
 15 43  1  0
 17 44  1  0
 17 45  1  0
 18 46  1  0
 18 47  1  0
 20 48  1  0
 21 49  1  0
 22 50  1  0
 23 51  1  0
 24 52  1  0
 25 53  1  0
 25 54  1  0
 26 55  1  0
 26 56  1  0
 28 57  1  0
M  END
$$$$
OCNT-2317343
     RDKit          3D

 58 60  0  0  0  0  0  0  0  0999 V2000
    2.9410   -0.7925    2.3349 O   0  0  0  0  0  0  0  0  0  0  0  0
    3.0203   -0.7379    1.1134 C   0  0  0  0  0  0  0  0  0  0  0  0
    4.2951   -0.4073    0.3662 C   0  0  0  0  0  0  0  0  0  0  0  0
    5.4419   -0.0872    1.3207 C   0  0  0  0  0  0  0  0  0  0  0  0
    6.7113    0.2277    0.5678 C   0  0  0  0  0  0  0  0  0  0  0  0
    6.9634    1.5306    0.1162 C   0  0  0  0  0  0  0  0  0  0  0  0
    8.1267    1.8164   -0.5995 C   0  0  0  0  0  0  0  0  0  0  0  0
    9.0379    0.8023   -0.8664 C   0  0  0  0  0  0  0  0  0  0  0  0
   10.1614    1.1261   -1.5680 O   0  0  0  0  0  0  0  0  0  0  0  0
    8.8052   -0.4978   -0.4304 C   0  0  0  0  0  0  0  0  0  0  0  0
    7.6399   -0.7842    0.2848 C   0  0  0  0  0  0  0  0  0  0  0  0
    1.9521   -0.9702    0.2690 N   0  0  0  0  0  0  0  0  0  0  0  0
    0.6802   -1.4283    0.7918 C   0  0  0  0  0  0  0  0  0  0  0  0
   -0.4746   -1.1510   -0.1765 C   0  0  0  0  0  0  0  0  0  0  0  0
   -0.7070    0.3564   -0.3651 C   0  0  0  0  0  0  0  0  0  0  0  0
   -1.9520    0.6299   -1.2136 C   0  0  0  0  0  0  0  0  0  0  0  0
   -3.1689   -0.0266   -0.7150 N   0  0  0  0  0  0  0  0  0  0  0  0
   -3.7012    0.6432    0.4896 C   0  0  0  0  0  0  0  0  0  0  0  0
   -5.0873    0.1692    1.0214 C   0  0  0  0  0  0  0  0  0  0  0  0
   -5.3568    0.8673    2.2491 O   0  0  0  0  0  0  0  0  0  0  0  0
   -6.3022    0.3545    0.1315 C   0  0  0  0  0  0  0  0  0  0  0  0
   -7.5460   -0.1256    0.5839 C   0  0  0  0  0  0  0  0  0  0  0  0
   -8.7000    0.0064   -0.1915 C   0  0  0  0  0  0  0  0  0  0  0  0
   -8.6325    0.6226   -1.4369 C   0  0  0  0  0  0  0  0  0  0  0  0
   -7.4132    1.1075   -1.9024 C   0  0  0  0  0  0  0  0  0  0  0  0
   -6.2585    0.9760   -1.1243 C   0  0  0  0  0  0  0  0  0  0  0  0
   -2.9550   -1.4697   -0.5667 C   0  0  0  0  0  0  0  0  0  0  0  0
   -1.7612   -1.8254    0.3214 C   0  0  0  0  0  0  0  0  0  0  0  0
    4.0974    0.4474   -0.2923 H   0  0  0  0  0  0  0  0  0  0  0  0
    4.5546   -1.2661   -0.2649 H   0  0  0  0  0  0  0  0  0  0  0  0
    5.1792    0.7628    1.9638 H   0  0  0  0  0  0  0  0  0  0  0  0
    5.6192   -0.9291    2.0025 H   0  0  0  0  0  0  0  0  0  0  0  0
    6.2569    2.3316    0.3214 H   0  0  0  0  0  0  0  0  0  0  0  0
    8.3220    2.8272   -0.9457 H   0  0  0  0  0  0  0  0  0  0  0  0
   10.7117    0.3306   -1.6530 H   0  0  0  0  0  0  0  0  0  0  0  0
    9.5118   -1.2955   -0.6350 H   0  0  0  0  0  0  0  0  0  0  0  0
    7.4612   -1.8024    0.6238 H   0  0  0  0  0  0  0  0  0  0  0  0
    2.1593   -1.1534   -0.7049 H   0  0  0  0  0  0  0  0  0  0  0  0
    0.7831   -2.5060    0.9643 H   0  0  0  0  0  0  0  0  0  0  0  0
    0.4953   -0.9572    1.7644 H   0  0  0  0  0  0  0  0  0  0  0  0
   -0.2219   -1.5801   -1.1563 H   0  0  0  0  0  0  0  0  0  0  0  0
    0.1616    0.8104   -0.8570 H   0  0  0  0  0  0  0  0  0  0  0  0
   -0.8039    0.8483    0.6105 H   0  0  0  0  0  0  0  0  0  0  0  0
   -1.7666    0.2804   -2.2378 H   0  0  0  0  0  0  0  0  0  0  0  0
   -2.1103    1.7118   -1.3021 H   0  0  0  0  0  0  0  0  0  0  0  0
   -3.7817    1.7215    0.2922 H   0  0  0  0  0  0  0  0  0  0  0  0
   -2.9834    0.5670    1.3165 H   0  0  0  0  0  0  0  0  0  0  0  0
   -5.0251   -0.8936    1.2827 H   0  0  0  0  0  0  0  0  0  0  0  0
   -4.6622    0.6172    2.8797 H   0  0  0  0  0  0  0  0  0  0  0  0
   -7.6178   -0.5982    1.5616 H   0  0  0  0  0  0  0  0  0  0  0  0
   -9.6495   -0.3670    0.1816 H   0  0  0  0  0  0  0  0  0  0  0  0
   -9.5282    0.7292   -2.0421 H   0  0  0  0  0  0  0  0  0  0  0  0
   -7.3564    1.5916   -2.8736 H   0  0  0  0  0  0  0  0  0  0  0  0
   -5.3268    1.3666   -1.5245 H   0  0  0  0  0  0  0  0  0  0  0  0
   -2.7889   -1.8954   -1.5655 H   0  0  0  0  0  0  0  0  0  0  0  0
   -3.8564   -1.9700   -0.1986 H   0  0  0  0  0  0  0  0  0  0  0  0
   -1.9660   -1.5344    1.3591 H   0  0  0  0  0  0  0  0  0  0  0  0
   -1.6282   -2.9142    0.3233 H   0  0  0  0  0  0  0  0  0  0  0  0
  1  2  2  0
  2  3  1  0
  3  4  1  0
  4  5  1  0
  5  6  1  0
  6  7  2  0
  7  8  1  0
  8  9  1  0
  8 10  2  0
 10 11  1  0
  2 12  1  0
 12 13  1  0
 13 14  1  0
 14 15  1  0
 15 16  1  0
 16 17  1  0
 17 18  1  0
 18 19  1  0
 19 20  1  0
 19 21  1  0
 21 22  2  0
 22 23  1  0
 23 24  2  0
 24 25  1  0
 25 26  2  0
 17 27  1  0
 27 28  1  0
 11  5  2  0
 28 14  1  0
 26 21  1  0
  3 29  1  0
  3 30  1  0
  4 31  1  0
  4 32  1  0
  6 33  1  0
  7 34  1  0
  9 35  1  0
 10 36  1  0
 11 37  1  0
 12 38  1  0
 13 39  1  0
 13 40  1  0
 14 41  1  0
 15 42  1  0
 15 43  1  0
 16 44  1  0
 16 45  1  0
 18 46  1  0
 18 47  1  0
 19 48  1  0
 20 49  1  0
 22 50  1  0
 23 51  1  0
 24 52  1  0
 25 53  1  0
 26 54  1  0
 27 55  1  0
 27 56  1  0
 28 57  1  0
 28 58  1  0
M  END
$$$$
OCNT-2317345
     RDKit          3D

 38 40  0  0  0  0  0  0  0  0999 V2000
    7.5442   -0.3819   -0.0847 C   0  0  0  0  0  0  0  0  0  0  0  0
    6.3469    0.1670    0.5029 N   0  0  0  0  0  0  0  0  0  0  0  0
    6.2661    1.0765    1.5133 C   0  0  0  0  0  0  0  0  0  0  0  0
    4.9214    1.2765    1.7207 C   0  0  0  0  0  0  0  0  0  0  0  0
    4.2650    0.4358    0.7865 C   0  0  0  0  0  0  0  0  0  0  0  0
    2.8947    0.3531    0.6677 N   0  0  0  0  0  0  0  0  0  0  0  0
    2.2158   -0.5607   -0.1036 C   0  0  0  0  0  0  0  0  0  0  0  0
    2.6689   -1.5121   -0.7245 O   0  0  0  0  0  0  0  0  0  0  0  0
    0.8556   -0.2866   -0.0848 N   0  0  0  0  0  0  0  0  0  0  0  0
   -0.0190   -1.1021   -0.8968 C   0  0  0  0  0  0  0  0  0  0  0  0
   -1.4591   -0.7480   -0.6404 C   0  0  0  0  0  0  0  0  0  0  0  0
   -2.1224   -1.2426    0.4878 C   0  0  0  0  0  0  0  0  0  0  0  0
   -3.4561   -0.8994    0.7448 C   0  0  0  0  0  0  0  0  0  0  0  0
   -4.1561   -0.0438   -0.1217 C   0  0  0  0  0  0  0  0  0  0  0  0
   -5.5132    0.3006    0.1495 N   0  0  0  0  0  0  0  0  0  0  0  0
   -6.2782   -0.1217    1.2210 C   0  0  0  0  0  0  0  0  0  0  0  0
   -7.5132    0.4624    1.0736 C   0  0  0  0  0  0  0  0  0  0  0  0
   -7.5499    1.2325   -0.0481 N   0  0  0  0  0  0  0  0  0  0  0  0
   -6.3519    1.1180   -0.5809 C   0  0  0  0  0  0  0  0  0  0  0  0
   -3.4807    0.4533   -1.2423 C   0  0  0  0  0  0  0  0  0  0  0  0
   -4.0653    1.2813   -2.1174 F   0  0  0  0  0  0  0  0  0  0  0  0
   -2.1511    0.1103   -1.4993 C   0  0  0  0  0  0  0  0  0  0  0  0
    5.1509   -0.2206    0.0385 N   0  0  0  0  0  0  0  0  0  0  0  0
    7.5276   -1.4666    0.0476 H   0  0  0  0  0  0  0  0  0  0  0  0
    8.4203    0.0411    0.4130 H   0  0  0  0  0  0  0  0  0  0  0  0
    7.5573   -0.1236   -1.1465 H   0  0  0  0  0  0  0  0  0  0  0  0
    7.1435    1.4922    1.9881 H   0  0  0  0  0  0  0  0  0  0  0  0
    4.4763    1.9358    2.4511 H   0  0  0  0  0  0  0  0  0  0  0  0
    2.3552    0.8939    1.3210 H   0  0  0  0  0  0  0  0  0  0  0  0
    0.6331    0.6967   -0.0590 H   0  0  0  0  0  0  0  0  0  0  0  0
    0.2412   -0.9461   -1.9506 H   0  0  0  0  0  0  0  0  0  0  0  0
    0.1586   -2.1614   -0.6752 H   0  0  0  0  0  0  0  0  0  0  0  0
   -1.5994   -1.9035    1.1787 H   0  0  0  0  0  0  0  0  0  0  0  0
   -3.9101   -1.3234    1.6355 H   0  0  0  0  0  0  0  0  0  0  0  0
   -5.9130   -0.7838    1.9897 H   0  0  0  0  0  0  0  0  0  0  0  0
   -8.3757    0.3647    1.7205 H   0  0  0  0  0  0  0  0  0  0  0  0
   -6.0592    1.6135   -1.4947 H   0  0  0  0  0  0  0  0  0  0  0  0
   -1.6690    0.5230   -2.3824 H   0  0  0  0  0  0  0  0  0  0  0  0
  1  2  1  0
  2  3  1  0
  3  4  2  0
  4  5  1  0
  5  6  1  0
  6  7  1  0
  7  8  2  0
  7  9  1  0
  9 10  1  0
 10 11  1  0
 11 12  1  0
 12 13  2  0
 13 14  1  0
 14 15  1  0
 15 16  1  0
 16 17  2  0
 17 18  1  0
 18 19  2  0
 14 20  2  0
 20 21  1  0
 20 22  1  0
  5 23  2  0
 23  2  1  0
 22 11  2  0
 19 15  1  0
  1 24  1  0
  1 25  1  0
  1 26  1  0
  3 27  1  0
  4 28  1  0
  6 29  1  0
  9 30  1  0
 10 31  1  0
 10 32  1  0
 12 33  1  0
 13 34  1  0
 16 35  1  0
 17 36  1  0
 19 37  1  0
 22 38  1  0
M  END
$$$$
OCNT-2317346
     RDKit          3D

 51 54  0  0  0  0  0  0  0  0999 V2000
    5.6224    0.0458   -2.3223 C   0  0  0  0  0  0  0  0  0  0  0  0
    5.1355    0.9296   -1.2151 C   0  0  0  0  0  0  0  0  0  0  0  0
    4.0272    0.5628   -0.4360 C   0  0  0  0  0  0  0  0  0  0  0  0
    3.5851    1.3739    0.6249 C   0  0  0  0  0  0  0  0  0  0  0  0
    2.4248    0.9758    1.4164 C   0  0  0  0  0  0  0  0  0  0  0  0
    1.9457    1.6791    2.4567 N   0  0  0  0  0  0  0  0  0  0  0  0
    0.8506    0.9354    2.8866 O   0  0  0  0  0  0  0  0  0  0  0  0
    0.7719   -0.1506    2.0653 C   0  0  0  0  0  0  0  0  0  0  0  0
   -0.3622   -1.1089    2.3296 C   0  0  0  0  0  0  0  0  0  0  0  0
    0.2606   -2.4225    2.8325 C   0  0  0  0  0  0  0  0  0  0  0  0
   -1.2367   -1.3056    1.1365 N   0  0  0  0  0  0  0  0  0  0  0  0
   -2.3368   -2.2437    1.3471 C   0  0  0  0  0  0  0  0  0  0  0  0
   -3.0003   -2.6089    0.0109 C   0  0  0  0  0  0  0  0  0  0  0  0
   -3.1106   -1.4370   -0.9869 C   0  0  0  0  0  0  0  0  0  0  0  0
   -4.3790   -1.5891   -1.8311 C   0  0  0  0  0  0  0  0  0  0  0  0
   -3.0409   -0.0974   -0.2288 C   0  0  0  0  0  0  0  0  0  0  0  0
   -3.1907    1.0769   -1.0773 N   0  0  0  0  0  0  0  0  0  0  0  0
   -2.4180    1.4266   -2.1504 C   0  0  0  0  0  0  0  0  0  0  0  0
   -2.9529    2.6093   -2.6045 C   0  0  0  0  0  0  0  0  0  0  0  0
   -4.0253    2.9837   -1.8385 N   0  0  0  0  0  0  0  0  0  0  0  0
   -4.1451    2.0444   -0.9283 C   0  0  0  0  0  0  0  0  0  0  0  0
   -1.7376   -0.0115    0.6090 C   0  0  0  0  0  0  0  0  0  0  0  0
    1.7155   -0.1759    1.1502 N   0  0  0  0  0  0  0  0  0  0  0  0
    4.2796    2.5616    0.9041 C   0  0  0  0  0  0  0  0  0  0  0  0
    5.3925    2.9265    0.1432 C   0  0  0  0  0  0  0  0  0  0  0  0
    5.8119    2.1098   -0.9020 C   0  0  0  0  0  0  0  0  0  0  0  0
    6.8878    2.4726   -1.6142 F   0  0  0  0  0  0  0  0  0  0  0  0
    5.9914    0.6424   -3.1631 H   0  0  0  0  0  0  0  0  0  0  0  0
    4.8148   -0.5867   -2.7047 H   0  0  0  0  0  0  0  0  0  0  0  0
    6.4296   -0.5988   -1.9602 H   0  0  0  0  0  0  0  0  0  0  0  0
    3.5013   -0.3655   -0.6585 H   0  0  0  0  0  0  0  0  0  0  0  0
   -0.9733   -0.6993    3.1457 H   0  0  0  0  0  0  0  0  0  0  0  0
   -0.4884   -3.0879    3.2722 H   0  0  0  0  0  0  0  0  0  0  0  0
    1.0057   -2.2296    3.6142 H   0  0  0  0  0  0  0  0  0  0  0  0
    0.7682   -2.9601    2.0227 H   0  0  0  0  0  0  0  0  0  0  0  0
   -3.0779   -1.8208    2.0378 H   0  0  0  0  0  0  0  0  0  0  0  0
   -1.9991   -3.1856    1.7888 H   0  0  0  0  0  0  0  0  0  0  0  0
   -3.9914   -3.0262    0.2311 H   0  0  0  0  0  0  0  0  0  0  0  0
   -2.4308   -3.4149   -0.4709 H   0  0  0  0  0  0  0  0  0  0  0  0
   -2.2531   -1.4976   -1.6721 H   0  0  0  0  0  0  0  0  0  0  0  0
   -4.4180   -0.8462   -2.6336 H   0  0  0  0  0  0  0  0  0  0  0  0
   -4.4132   -2.5780   -2.3008 H   0  0  0  0  0  0  0  0  0  0  0  0
   -5.2792   -1.4733   -1.2180 H   0  0  0  0  0  0  0  0  0  0  0  0
   -3.8894   -0.0705    0.4710 H   0  0  0  0  0  0  0  0  0  0  0  0
   -1.5819    0.8330   -2.4941 H   0  0  0  0  0  0  0  0  0  0  0  0
   -2.6225    3.2104   -3.4420 H   0  0  0  0  0  0  0  0  0  0  0  0
   -4.8970    2.0196   -0.1499 H   0  0  0  0  0  0  0  0  0  0  0  0
   -1.9320    0.6913    1.4313 H   0  0  0  0  0  0  0  0  0  0  0  0
   -0.9363    0.4291    0.0034 H   0  0  0  0  0  0  0  0  0  0  0  0
    3.9623    3.2112    1.7175 H   0  0  0  0  0  0  0  0  0  0  0  0
    5.9352    3.8413    0.3601 H   0  0  0  0  0  0  0  0  0  0  0  0
  1  2  1  0
  2  3  1  0
  3  4  2  0
  4  5  1  0
  5  6  2  0
  6  7  1  0
  7  8  1  0
  8  9  1  0
  9 10  1  0
  9 11  1  0
 11 12  1  0
 12 13  1  0
 13 14  1  0
 14 15  1  0
 14 16  1  0
 16 17  1  0
 17 18  1  0
 18 19  2  0
 19 20  1  0
 20 21  2  0
 16 22  1  0
  8 23  2  0
  4 24  1  0
 24 25  2  0
 25 26  1  0
 26 27  1  0
 26  2  2  0
 23  5  1  0
 22 11  1  0
 21 17  1  0
  1 28  1  0
  1 29  1  0
  1 30  1  0
  3 31  1  0
  9 32  1  0
 10 33  1  0
 10 34  1  0
 10 35  1  0
 12 36  1  0
 12 37  1  0
 13 38  1  0
 13 39  1  0
 14 40  1  0
 15 41  1  0
 15 42  1  0
 15 43  1  0
 16 44  1  0
 18 45  1  0
 19 46  1  0
 21 47  1  0
 22 48  1  0
 22 49  1  0
 24 50  1  0
 25 51  1  0
M  END
$$$$
OCNT-2317347
     RDKit          3D

 49 51  0  0  0  0  0  0  0  0999 V2000
    5.5527   -1.5830   -1.0546 C   0  0  0  0  0  0  0  0  0  0  0  0
    5.9938   -0.5597    0.3259 S   0  0  0  0  0  0  0  0  0  0  0  0
    6.4235    0.7322   -0.1710 O   0  0  0  0  0  0  0  0  0  0  0  0
    6.8558   -1.3503    1.1862 O   0  0  0  0  0  0  0  0  0  0  0  0
    4.4647   -0.3044    1.1920 C   0  0  0  0  0  0  0  0  0  0  0  0
    4.3537   -0.6817    2.5311 C   0  0  0  0  0  0  0  0  0  0  0  0
    3.1500   -0.4717    3.1981 C   0  0  0  0  0  0  0  0  0  0  0  0
    2.0692    0.1049    2.5246 C   0  0  0  0  0  0  0  0  0  0  0  0
    2.1770    0.4779    1.1773 C   0  0  0  0  0  0  0  0  0  0  0  0
    1.0366    1.0400    0.5724 N   0  0  0  0  0  0  0  0  0  0  0  0
    0.8631    1.3762   -0.7530 C   0  0  0  0  0  0  0  0  0  0  0  0
    1.6753    1.2246   -1.6555 O   0  0  0  0  0  0  0  0  0  0  0  0
   -0.3891    1.9161   -0.9593 N   0  0  0  0  0  0  0  0  0  0  0  0
   -0.8696    2.2574   -2.2856 C   0  0  0  0  0  0  0  0  0  0  0  0
   -1.9065    1.2714   -2.8532 C   0  0  0  0  0  0  0  0  0  0  0  0
   -1.4035   -0.1662   -2.9756 C   0  0  0  0  0  0  0  0  0  0  0  0
   -1.7305   -0.8245   -1.6326 C   0  0  0  0  0  0  0  0  0  0  0  0
   -2.7120    0.0692   -0.9996 N   0  0  0  0  0  0  0  0  0  0  0  0
   -3.4722   -0.3297    0.0811 C   0  0  0  0  0  0  0  0  0  0  0  0
   -3.0774   -1.4051    0.8988 C   0  0  0  0  0  0  0  0  0  0  0  0
   -3.8253   -1.8036    2.0128 C   0  0  0  0  0  0  0  0  0  0  0  0
   -4.9863   -1.1210    2.3340 C   0  0  0  0  0  0  0  0  0  0  0  0
   -5.7044   -1.4961    3.4000 F   0  0  0  0  0  0  0  0  0  0  0  0
   -5.4068   -0.0497    1.5642 C   0  0  0  0  0  0  0  0  0  0  0  0
   -4.6512    0.3408    0.4518 C   0  0  0  0  0  0  0  0  0  0  0  0
   -3.1250    1.1155   -1.9375 C   0  0  0  0  0  0  0  0  0  0  0  0
    3.3892    0.2825    0.5151 C   0  0  0  0  0  0  0  0  0  0  0  0
    6.4685   -1.8284   -1.5973 H   0  0  0  0  0  0  0  0  0  0  0  0
    4.8736   -1.0385   -1.7123 H   0  0  0  0  0  0  0  0  0  0  0  0
    5.0871   -2.4983   -0.6842 H   0  0  0  0  0  0  0  0  0  0  0  0
    5.1944   -1.1252    3.0605 H   0  0  0  0  0  0  0  0  0  0  0  0
    3.0518   -0.7540    4.2438 H   0  0  0  0  0  0  0  0  0  0  0  0
    1.1400    0.2549    3.0693 H   0  0  0  0  0  0  0  0  0  0  0  0
    0.2408    1.2052    1.1706 H   0  0  0  0  0  0  0  0  0  0  0  0
   -1.1099    1.6252   -0.3086 H   0  0  0  0  0  0  0  0  0  0  0  0
   -1.3281    3.2487   -2.1964 H   0  0  0  0  0  0  0  0  0  0  0  0
   -0.0262    2.3486   -2.9785 H   0  0  0  0  0  0  0  0  0  0  0  0
   -2.2179    1.6511   -3.8335 H   0  0  0  0  0  0  0  0  0  0  0  0
   -0.3416   -0.2398   -3.2289 H   0  0  0  0  0  0  0  0  0  0  0  0
   -1.9628   -0.6789   -3.7686 H   0  0  0  0  0  0  0  0  0  0  0  0
   -0.8328   -0.9135   -1.0129 H   0  0  0  0  0  0  0  0  0  0  0  0
   -2.1396   -1.8274   -1.8024 H   0  0  0  0  0  0  0  0  0  0  0  0
   -2.1654   -1.9563    0.6857 H   0  0  0  0  0  0  0  0  0  0  0  0
   -3.5035   -2.6387    2.6262 H   0  0  0  0  0  0  0  0  0  0  0  0
   -6.3171    0.4788    1.8278 H   0  0  0  0  0  0  0  0  0  0  0  0
   -5.0165    1.1851   -0.1256 H   0  0  0  0  0  0  0  0  0  0  0  0
   -3.9950    0.7783   -2.5142 H   0  0  0  0  0  0  0  0  0  0  0  0
   -3.3700    2.0587   -1.4373 H   0  0  0  0  0  0  0  0  0  0  0  0
    3.5251    0.6024   -0.5131 H   0  0  0  0  0  0  0  0  0  0  0  0
  1  2  1  0
  2  3  2  0
  2  4  2  0
  2  5  1  0
  5  6  2  0
  6  7  1  0
  7  8  2  0
  8  9  1  0
  9 10  1  0
 10 11  1  0
 11 12  2  0
 11 13  1  0
 13 14  1  0
 14 15  1  0
 15 16  1  0
 16 17  1  0
 17 18  1  0
 18 19  1  0
 19 20  1  0
 20 21  2  0
 21 22  1  0
 22 23  1  0
 22 24  2  0
 24 25  1  0
 18 26  1  0
  9 27  2  0
 27  5  1  0
 26 15  1  0
 25 19  2  0
  1 28  1  0
  1 29  1  0
  1 30  1  0
  6 31  1  0
  7 32  1  0
  8 33  1  0
 10 34  1  0
 13 35  1  0
 14 36  1  0
 14 37  1  0
 15 38  1  0
 16 39  1  0
 16 40  1  0
 17 41  1  0
 17 42  1  0
 20 43  1  0
 21 44  1  0
 24 45  1  0
 25 46  1  0
 26 47  1  0
 26 48  1  0
 27 49  1  0
M  END
$$$$
OCNT-2317349
     RDKit          3D

 48 51  0  0  0  0  0  0  0  0999 V2000
   -4.0759    2.3304    0.6404 C   0  0  0  0  0  0  0  0  0  0  0  0
   -4.0303    0.9048    0.1855 C   0  0  0  0  0  0  0  0  0  0  0  0
   -3.0482    0.3825   -0.6421 C   0  0  0  0  0  0  0  0  0  0  0  0
   -1.9342    1.0908   -1.2562 C   0  0  0  0  0  0  0  0  0  0  0  0
   -2.1214    2.0895   -1.9531 O   0  0  0  0  0  0  0  0  0  0  0  0
   -0.6387    0.6376   -1.0000 N   0  0  0  0  0  0  0  0  0  0  0  0
    0.4765    1.3008   -1.6706 C   0  0  0  0  0  0  0  0  0  0  0  0
    1.7513    0.4355   -1.7124 C   0  0  0  0  0  0  0  0  0  0  0  0
    2.1750   -0.1396   -0.4201 N   0  0  0  0  0  0  0  0  0  0  0  0
    3.4697    0.3735    0.0620 C   0  0  0  0  0  0  0  0  0  0  0  0
    4.6883   -0.1128   -0.7644 C   0  0  0  0  0  0  0  0  0  0  0  0
    5.9882    0.5363   -0.3002 C   0  0  0  0  0  0  0  0  0  0  0  0
    6.5015   -0.4373    0.7304 C   0  0  0  0  0  0  0  0  0  0  0  0
    6.0867   -1.7640    0.1375 C   0  0  0  0  0  0  0  0  0  0  0  0
    4.8698   -1.5334   -0.5814 O   0  0  0  0  0  0  0  0  0  0  0  0
    1.1338   -0.0359    0.6156 C   0  0  0  0  0  0  0  0  0  0  0  0
   -0.2789   -0.3051    0.0653 C   0  0  0  0  0  0  0  0  0  0  0  0
   -3.3310   -1.2535   -1.0297 S   0  0  0  0  0  0  0  0  0  0  0  0
   -4.7348   -1.3315   -0.0450 C   0  0  0  0  0  0  0  0  0  0  0  0
   -5.5533   -2.4590    0.1677 C   0  0  0  0  0  0  0  0  0  0  0  0
   -6.6735   -2.3390    0.9914 C   0  0  0  0  0  0  0  0  0  0  0  0
   -6.9786   -1.1257    1.5888 C   0  0  0  0  0  0  0  0  0  0  0  0
   -6.1633   -0.0100    1.3740 C   0  0  0  0  0  0  0  0  0  0  0  0
   -5.0117   -0.0977    0.5491 C   0  0  0  0  0  0  0  0  0  0  0  0
   -4.6999    2.9203   -0.0385 H   0  0  0  0  0  0  0  0  0  0  0  0
   -4.4904    2.4099    1.6501 H   0  0  0  0  0  0  0  0  0  0  0  0
   -3.0764    2.7761    0.6677 H   0  0  0  0  0  0  0  0  0  0  0  0
    0.6735    2.2333   -1.1272 H   0  0  0  0  0  0  0  0  0  0  0  0
    0.1814    1.5722   -2.6906 H   0  0  0  0  0  0  0  0  0  0  0  0
    2.5471    1.0236   -2.1833 H   0  0  0  0  0  0  0  0  0  0  0  0
    1.5622   -0.4118   -2.3837 H   0  0  0  0  0  0  0  0  0  0  0  0
    3.6123    0.0258    1.0936 H   0  0  0  0  0  0  0  0  0  0  0  0
    3.4452    1.4703    0.0889 H   0  0  0  0  0  0  0  0  0  0  0  0
    4.5367    0.0802   -1.8310 H   0  0  0  0  0  0  0  0  0  0  0  0
    5.8662    1.5536    0.0820 H   0  0  0  0  0  0  0  0  0  0  0  0
    6.6945    0.5773   -1.1388 H   0  0  0  0  0  0  0  0  0  0  0  0
    5.9908   -0.2751    1.6865 H   0  0  0  0  0  0  0  0  0  0  0  0
    7.5785   -0.3661    0.9030 H   0  0  0  0  0  0  0  0  0  0  0  0
    5.9264   -2.5332    0.8980 H   0  0  0  0  0  0  0  0  0  0  0  0
    6.8329   -2.1291   -0.5762 H   0  0  0  0  0  0  0  0  0  0  0  0
    1.3444   -0.7592    1.4119 H   0  0  0  0  0  0  0  0  0  0  0  0
    1.1472    0.9649    1.0682 H   0  0  0  0  0  0  0  0  0  0  0  0
   -1.0035   -0.2401    0.8831 H   0  0  0  0  0  0  0  0  0  0  0  0
   -0.3254   -1.3146   -0.3589 H   0  0  0  0  0  0  0  0  0  0  0  0
   -5.3199   -3.4082   -0.3066 H   0  0  0  0  0  0  0  0  0  0  0  0
   -7.3122   -3.2029    1.1596 H   0  0  0  0  0  0  0  0  0  0  0  0
   -7.8560   -1.0379    2.2249 H   0  0  0  0  0  0  0  0  0  0  0  0
   -6.4227    0.9333    1.8481 H   0  0  0  0  0  0  0  0  0  0  0  0
  1  2  1  0
  2  3  2  0
  3  4  1  0
  4  5  2  0
  4  6  1  0
  6  7  1  0
  7  8  1  0
  8  9  1  0
  9 10  1  0
 10 11  1  0
 11 12  1  0
 12 13  1  0
 13 14  1  0
 14 15  1  0
  9 16  1  0
 16 17  1  0
  3 18  1  0
 18 19  1  0
 19 20  2  0
 20 21  1  0
 21 22  2  0
 22 23  1  0
 23 24  2  0
 24  2  1  0
 17  6  1  0
 24 19  1  0
 15 11  1  0
  1 25  1  0
  1 26  1  0
  1 27  1  0
  7 28  1  0
  7 29  1  0
  8 30  1  0
  8 31  1  0
 10 32  1  0
 10 33  1  0
 11 34  1  0
 12 35  1  0
 12 36  1  0
 13 37  1  0
 13 38  1  0
 14 39  1  0
 14 40  1  0
 16 41  1  0
 16 42  1  0
 17 43  1  0
 17 44  1  0
 20 45  1  0
 21 46  1  0
 22 47  1  0
 23 48  1  0
M  END
$$$$
OCNT-2317353
     RDKit          3D

 43 45  0  0  0  0  0  0  0  0999 V2000
    2.3660   -1.9110    1.2206 C   0  0  0  0  0  0  0  0  0  0  0  0
    1.2049   -1.0245    1.6507 C   0  0  0  0  0  0  0  0  0  0  0  0
    1.5585    0.4651    1.6309 C   0  0  0  0  0  0  0  0  0  0  0  0
    1.8560    1.0107    0.3188 N   0  0  0  0  0  0  0  0  0  0  0  0
    3.1043    1.5078   -0.0300 C   0  0  0  0  0  0  0  0  0  0  0  0
    4.2696    1.7940    0.6974 C   0  0  0  0  0  0  0  0  0  0  0  0
    5.3769    2.2663   -0.0178 C   0  0  0  0  0  0  0  0  0  0  0  0
    5.3250    2.4389   -1.4004 C   0  0  0  0  0  0  0  0  0  0  0  0
    4.1563    2.1445   -2.1105 C   0  0  0  0  0  0  0  0  0  0  0  0
    3.0360    1.6758   -1.4077 C   0  0  0  0  0  0  0  0  0  0  0  0
    1.8035    1.3252   -1.8815 N   0  0  0  0  0  0  0  0  0  0  0  0
    1.0840    1.0000   -0.8286 C   0  0  0  0  0  0  0  0  0  0  0  0
   -0.2297    0.6475   -1.0175 N   0  0  0  0  0  0  0  0  0  0  0  0
   -1.2477    0.7215   -0.0956 C   0  0  0  0  0  0  0  0  0  0  0  0
   -1.1524    1.1886    1.0364 O   0  0  0  0  0  0  0  0  0  0  0  0
   -2.6090    0.2624   -0.6596 C   0  0  1  0  0  0  0  0  0  0  0  0
   -2.5731   -0.9436   -1.5898 C   0  0  0  0  0  0  0  0  0  0  0  0
   -3.9240   -1.6353   -1.4012 C   0  0  0  0  0  0  0  0  0  0  0  0
   -4.6095   -0.8858   -0.2631 C   0  0  1  0  0  0  0  0  0  0  0  0
   -5.4013   -1.7770    0.6895 C   0  0  0  0  0  0  0  0  0  0  0  0
   -5.4928   -1.6668    1.9023 O   0  0  0  0  0  0  0  0  0  0  0  0
   -6.1305   -2.7157    0.0486 O   0  0  0  0  0  0  0  0  0  0  0  0
   -3.4750   -0.2428    0.4163 N   0  0  0  0  0  0  0  0  0  0  0  0
    2.0890   -2.9657    1.3161 H   0  0  0  0  0  0  0  0  0  0  0  0
    3.2474   -1.7350    1.8454 H   0  0  0  0  0  0  0  0  0  0  0  0
    2.6410   -1.7310    0.1768 H   0  0  0  0  0  0  0  0  0  0  0  0
    0.9194   -1.2983    2.6734 H   0  0  0  0  0  0  0  0  0  0  0  0
    0.3409   -1.2405    1.0158 H   0  0  0  0  0  0  0  0  0  0  0  0
    0.7851    1.0821    2.0885 H   0  0  0  0  0  0  0  0  0  0  0  0
    2.4355    0.6104    2.2708 H   0  0  0  0  0  0  0  0  0  0  0  0
    4.3272    1.6653    1.7727 H   0  0  0  0  0  0  0  0  0  0  0  0
    6.2952    2.5016    0.5166 H   0  0  0  0  0  0  0  0  0  0  0  0
    6.1985    2.8055   -1.9337 H   0  0  0  0  0  0  0  0  0  0  0  0
    4.1067    2.2750   -3.1857 H   0  0  0  0  0  0  0  0  0  0  0  0
   -0.4702    0.6128   -1.9995 H   0  0  0  0  0  0  0  0  0  0  0  0
   -3.0772    1.1238   -1.1526 H   0  0  0  0  0  0  0  0  0  0  0  0
   -2.4261   -0.6444   -2.6332 H   0  0  0  0  0  0  0  0  0  0  0  0
   -1.7641   -1.6370   -1.3278 H   0  0  0  0  0  0  0  0  0  0  0  0
   -3.7691   -2.6974   -1.1781 H   0  0  0  0  0  0  0  0  0  0  0  0
   -4.5214   -1.5738   -2.3178 H   0  0  0  0  0  0  0  0  0  0  0  0
   -5.2922   -0.1225   -0.6561 H   0  0  0  0  0  0  0  0  0  0  0  0
   -6.5924   -3.1786    0.7796 H   0  0  0  0  0  0  0  0  0  0  0  0
   -3.7694    0.5018    1.0484 H   0  0  0  0  0  0  0  0  0  0  0  0
  1  2  1  0
  2  3  1  0
  3  4  1  0
  4  5  1  0
  5  6  2  0
  6  7  1  0
  7  8  2  0
  8  9  1  0
  9 10  2  0
 10 11  1  0
 11 12  2  0
 12 13  1  0
 13 14  1  0
 14 15  2  0
 14 16  1  0
 16 17  1  0
 17 18  1  0
 18 19  1  0
 19 20  1  0
 20 21  2  0
 20 22  1  0
 19 23  1  0
 12  4  1  0
 23 16  1  0
 10  5  1  0
  1 24  1  0
  1 25  1  0
  1 26  1  0
  2 27  1  0
  2 28  1  0
  3 29  1  0
  3 30  1  0
  6 31  1  0
  7 32  1  0
  8 33  1  0
  9 34  1  0
 13 35  1  0
 16 36  1  6
 17 37  1  0
 17 38  1  0
 18 39  1  0
 18 40  1  0
 19 41  1  6
 22 42  1  0
 23 43  1  0
M  END
$$$$
OCNT-2317361
     RDKit          3D

 51 55  0  0  0  0  0  0  0  0999 V2000
   -0.0227    0.3357   -2.0067 C   0  0  0  0  0  0  0  0  0  0  0  0
   -0.0852   -0.3250   -0.6585 C   0  0  0  0  0  0  0  0  0  0  0  0
    1.0704   -0.8162   -0.0372 C   0  0  0  0  0  0  0  0  0  0  0  0
    2.3391   -0.5719   -0.5750 N   0  0  0  0  0  0  0  0  0  0  0  0
    2.7502    0.8400   -0.6187 C   0  0  0  0  0  0  0  0  0  0  0  0
    4.1956    0.8553   -0.1156 C   0  0  0  0  0  0  0  0  0  0  0  0
    4.6890   -0.5547   -0.4197 C   0  0  0  0  0  0  0  0  0  0  0  0
    5.9309   -1.0255    0.2798 C   0  0  0  0  0  0  0  0  0  0  0  0
    6.2766   -0.6720    1.7049 C   0  0  0  0  0  0  0  0  0  0  0  0
    7.0789   -0.0918    0.5706 C   0  0  0  0  0  0  0  0  0  0  0  0
    3.4491   -1.3825   -0.0555 C   0  0  0  0  0  0  0  0  0  0  0  0
    0.9939   -1.5484    1.0852 N   0  0  0  0  0  0  0  0  0  0  0  0
   -0.2205   -1.7418    1.6006 C   0  0  0  0  0  0  0  0  0  0  0  0
   -1.3676   -1.2522    1.1288 N   0  0  0  0  0  0  0  0  0  0  0  0
   -1.3033   -0.5186    0.0057 C   0  0  0  0  0  0  0  0  0  0  0  0
   -2.4946    0.0228   -0.4882 N   0  0  0  0  0  0  0  0  0  0  0  0
   -2.5519    1.4894   -0.5780 C   0  0  0  0  0  0  0  0  0  0  0  0
   -3.9498    1.8700   -0.0880 C   0  0  0  0  0  0  0  0  0  0  0  0
   -4.7664    0.5973   -0.2970 C   0  0  0  0  0  0  0  0  0  0  0  0
   -6.0762    0.6349    0.4352 C   0  0  0  0  0  0  0  0  0  0  0  0
   -6.7280   -0.6143    0.9726 C   0  0  0  0  0  0  0  0  0  0  0  0
   -6.2025    0.4276    1.9244 C   0  0  0  0  0  0  0  0  0  0  0  0
   -3.7468   -0.4751    0.1004 C   0  0  0  0  0  0  0  0  0  0  0  0
    0.7949   -0.0671   -2.6140 H   0  0  0  0  0  0  0  0  0  0  0  0
    0.1130    1.4158   -1.8987 H   0  0  0  0  0  0  0  0  0  0  0  0
   -0.9307    0.1460   -2.5883 H   0  0  0  0  0  0  0  0  0  0  0  0
    2.7158    1.1938   -1.6555 H   0  0  0  0  0  0  0  0  0  0  0  0
    2.1291    1.5016   -0.0025 H   0  0  0  0  0  0  0  0  0  0  0  0
    4.1977    1.0650    0.9588 H   0  0  0  0  0  0  0  0  0  0  0  0
    4.7899    1.6320   -0.6069 H   0  0  0  0  0  0  0  0  0  0  0  0
    4.8628   -0.6335   -1.5025 H   0  0  0  0  0  0  0  0  0  0  0  0
    6.1937   -2.0285   -0.0489 H   0  0  0  0  0  0  0  0  0  0  0  0
    5.6340   -0.0074    2.2692 H   0  0  0  0  0  0  0  0  0  0  0  0
    6.7439   -1.4381    2.3156 H   0  0  0  0  0  0  0  0  0  0  0  0
    6.9746    0.9668    0.3673 H   0  0  0  0  0  0  0  0  0  0  0  0
    8.0849   -0.4670    0.4153 H   0  0  0  0  0  0  0  0  0  0  0  0
    3.4081   -1.5157    1.0339 H   0  0  0  0  0  0  0  0  0  0  0  0
    3.4746   -2.3699   -0.5290 H   0  0  0  0  0  0  0  0  0  0  0  0
   -0.2803   -2.3474    2.4973 H   0  0  0  0  0  0  0  0  0  0  0  0
   -2.4327    1.7948   -1.6233 H   0  0  0  0  0  0  0  0  0  0  0  0
   -1.7900    1.9970    0.0254 H   0  0  0  0  0  0  0  0  0  0  0  0
   -4.3580    2.7292   -0.6307 H   0  0  0  0  0  0  0  0  0  0  0  0
   -3.9111    2.1392    0.9754 H   0  0  0  0  0  0  0  0  0  0  0  0
   -4.9829    0.4910   -1.3692 H   0  0  0  0  0  0  0  0  0  0  0  0
   -6.7378    1.3751   -0.0097 H   0  0  0  0  0  0  0  0  0  0  0  0
   -6.2029   -1.5609    0.9169 H   0  0  0  0  0  0  0  0  0  0  0  0
   -7.8040   -0.7083    0.8685 H   0  0  0  0  0  0  0  0  0  0  0  0
   -5.3250    0.1873    2.5127 H   0  0  0  0  0  0  0  0  0  0  0  0
   -6.9250    1.0360    2.4583 H   0  0  0  0  0  0  0  0  0  0  0  0
   -4.0121   -1.4541   -0.3117 H   0  0  0  0  0  0  0  0  0  0  0  0
   -3.6826   -0.5558    1.1915 H   0  0  0  0  0  0  0  0  0  0  0  0
  1  2  1  0
  2  3  2  0
  3  4  1  0
  4  5  1  0
  5  6  1  0
  6  7  1  0
  7  8  1  0
  8  9  1  0
  9 10  1  0
  7 11  1  0
  3 12  1  0
 12 13  2  0
 13 14  1  0
 14 15  2  0
 15 16  1  0
 16 17  1  0
 17 18  1  0
 18 19  1  0
 19 20  1  0
 20 21  1  0
 21 22  1  0
 19 23  1  0
 15  2  1  0
 23 16  1  0
 11  4  1  0
 22 20  1  0
 10  8  1  0
  1 24  1  0
  1 25  1  0
  1 26  1  0
  5 27  1  0
  5 28  1  0
  6 29  1  0
  6 30  1  0
  7 31  1  0
  8 32  1  0
  9 33  1  0
  9 34  1  0
 10 35  1  0
 10 36  1  0
 11 37  1  0
 11 38  1  0
 13 39  1  0
 17 40  1  0
 17 41  1  0
 18 42  1  0
 18 43  1  0
 19 44  1  0
 20 45  1  0
 21 46  1  0
 21 47  1  0
 22 48  1  0
 22 49  1  0
 23 50  1  0
 23 51  1  0
M  END
$$$$
OCNT-2317363
     RDKit          3D

 41 43  0  0  0  0  0  0  0  0999 V2000
   -5.6059    3.2698    0.1067 C   0  0  0  0  0  0  0  0  0  0  0  0
   -4.7712    2.0872    0.3857 C   0  0  0  0  0  0  0  0  0  0  0  0
   -4.9472    1.3264    1.4732 N   0  0  0  0  0  0  0  0  0  0  0  0
   -3.9659    0.3437    1.3369 O   0  0  0  0  0  0  0  0  0  0  0  0
   -3.2993    0.6213    0.1771 C   0  0  0  0  0  0  0  0  0  0  0  0
   -2.1863   -0.2876   -0.2092 C   0  0  0  0  0  0  0  0  0  0  0  0
   -2.7081   -1.6771   -0.6074 C   0  0  0  0  0  0  0  0  0  0  0  0
   -1.6773   -2.7788   -0.3553 C   0  0  0  0  0  0  0  0  0  0  0  0
   -0.2491   -2.2475   -0.4630 C   0  0  0  0  0  0  0  0  0  0  0  0
    0.0437   -1.2151    0.5444 N   0  0  0  0  0  0  0  0  0  0  0  0
    1.1962   -0.3749    0.1695 C   0  0  0  0  0  0  0  0  0  0  0  0
    2.5076   -1.1645    0.0088 C   0  0  0  0  0  0  0  0  0  0  0  0
    3.6802   -0.2499   -0.2626 C   0  0  0  0  0  0  0  0  0  0  0  0
    3.9946    0.1342   -1.5766 C   0  0  0  0  0  0  0  0  0  0  0  0
    5.0684    0.9929   -1.8256 C   0  0  0  0  0  0  0  0  0  0  0  0
    5.8264    1.4717   -0.7627 C   0  0  0  0  0  0  0  0  0  0  0  0
    6.8544    2.2958   -1.0076 F   0  0  0  0  0  0  0  0  0  0  0  0
    5.5202    1.1019    0.5405 C   0  0  0  0  0  0  0  0  0  0  0  0
    6.2499    1.5678    1.5636 F   0  0  0  0  0  0  0  0  0  0  0  0
    4.4521    0.2469    0.7984 C   0  0  0  0  0  0  0  0  0  0  0  0
   -1.1331   -0.3956    0.9039 C   0  0  0  0  0  0  0  0  0  0  0  0
   -3.7578    1.6842   -0.4454 N   0  0  0  0  0  0  0  0  0  0  0  0
   -6.6588    2.9853    0.0157 H   0  0  0  0  0  0  0  0  0  0  0  0
   -5.3025    3.7503   -0.8286 H   0  0  0  0  0  0  0  0  0  0  0  0
   -5.5131    4.0054    0.9116 H   0  0  0  0  0  0  0  0  0  0  0  0
   -1.6984    0.1566   -1.0886 H   0  0  0  0  0  0  0  0  0  0  0  0
   -3.6322   -1.9370   -0.0756 H   0  0  0  0  0  0  0  0  0  0  0  0
   -2.9732   -1.6594   -1.6727 H   0  0  0  0  0  0  0  0  0  0  0  0
   -1.8319   -3.5966   -1.0684 H   0  0  0  0  0  0  0  0  0  0  0  0
   -1.8338   -3.2050    0.6442 H   0  0  0  0  0  0  0  0  0  0  0  0
    0.4453   -3.0848   -0.3304 H   0  0  0  0  0  0  0  0  0  0  0  0
   -0.1018   -1.8572   -1.4789 H   0  0  0  0  0  0  0  0  0  0  0  0
    1.3566    0.3731    0.9576 H   0  0  0  0  0  0  0  0  0  0  0  0
    0.9773    0.1832   -0.7507 H   0  0  0  0  0  0  0  0  0  0  0  0
    2.7075   -1.7513    0.9147 H   0  0  0  0  0  0  0  0  0  0  0  0
    2.4329   -1.8879   -0.8123 H   0  0  0  0  0  0  0  0  0  0  0  0
    3.4052   -0.2352   -2.4139 H   0  0  0  0  0  0  0  0  0  0  0  0
    5.3176    1.2910   -2.8393 H   0  0  0  0  0  0  0  0  0  0  0  0
    4.2321   -0.0242    1.8274 H   0  0  0  0  0  0  0  0  0  0  0  0
   -1.5894   -0.8634    1.7874 H   0  0  0  0  0  0  0  0  0  0  0  0
   -0.8317    0.6044    1.2435 H   0  0  0  0  0  0  0  0  0  0  0  0
  1  2  1  0
  2  3  2  0
  3  4  1  0
  4  5  1  0
  5  6  1  0
  6  7  1  0
  7  8  1  0
  8  9  1  0
  9 10  1  0
 10 11  1  0
 11 12  1  0
 12 13  1  0
 13 14  1  0
 14 15  2  0
 15 16  1  0
 16 17  1  0
 16 18  2  0
 18 19  1  0
 18 20  1  0
 10 21  1  0
  5 22  2  0
 22  2  1  0
 21  6  1  0
 20 13  2  0
  1 23  1  0
  1 24  1  0
  1 25  1  0
  6 26  1  0
  7 27  1  0
  7 28  1  0
  8 29  1  0
  8 30  1  0
  9 31  1  0
  9 32  1  0
 11 33  1  0
 11 34  1  0
 12 35  1  0
 12 36  1  0
 14 37  1  0
 15 38  1  0
 20 39  1  0
 21 40  1  0
 21 41  1  0
M  END
$$$$
OCNT-2317371
     RDKit          3D

 50 52  0  0  0  0  0  0  0  0999 V2000
   -8.0015    0.8944    0.6713 C   0  0  0  0  0  0  0  0  0  0  0  0
   -7.2890   -0.3297    0.2109 C   0  0  0  0  0  0  0  0  0  0  0  0
   -5.9232   -0.4700   -0.0039 C   0  0  0  0  0  0  0  0  0  0  0  0
   -4.8801    0.5288    0.1664 C   0  0  0  0  0  0  0  0  0  0  0  0
   -5.1058    1.6771    0.5421 O   0  0  0  0  0  0  0  0  0  0  0  0
   -3.5929    0.1064   -0.1114 N   0  0  0  0  0  0  0  0  0  0  0  0
   -2.4442    0.9391    0.1847 C   0  0  0  0  0  0  0  0  0  0  0  0
   -1.1746    0.4541   -0.5301 C   0  0  0  0  0  0  0  0  0  0  0  0
   -0.7559   -0.9467   -0.0412 C   0  0  0  0  0  0  0  0  0  0  0  0
    0.7631   -1.1074   -0.0103 C   0  0  0  0  0  0  0  0  0  0  0  0
    1.3573   -0.1636    0.9340 N   0  0  0  0  0  0  0  0  0  0  0  0
    2.8323   -0.2121    0.9734 C   0  0  0  0  0  0  0  0  0  0  0  0
    3.6221    0.1647   -0.3138 C   0  0  0  0  0  0  0  0  0  0  0  0
    3.4272    1.5372   -0.6675 O   0  0  0  0  0  0  0  0  0  0  0  0
    5.1094   -0.0927   -0.1499 C   0  0  0  0  0  0  0  0  0  0  0  0
    5.8870    0.6969    0.7133 C   0  0  0  0  0  0  0  0  0  0  0  0
    7.2521    0.4518    0.8645 C   0  0  0  0  0  0  0  0  0  0  0  0
    7.8563   -0.5843    0.1558 C   0  0  0  0  0  0  0  0  0  0  0  0
    7.0970   -1.3754   -0.7045 C   0  0  0  0  0  0  0  0  0  0  0  0
    5.7307   -1.1325   -0.8572 C   0  0  0  0  0  0  0  0  0  0  0  0
    0.8091    1.1950    0.8789 C   0  0  0  0  0  0  0  0  0  0  0  0
   -0.0284    1.4690   -0.3698 C   0  0  0  0  0  0  0  0  0  0  0  0
   -5.5923   -2.0752   -0.5311 S   0  0  0  0  0  0  0  0  0  0  0  0
   -7.2589   -2.4437   -0.4336 C   0  0  0  0  0  0  0  0  0  0  0  0
   -8.0440   -1.4689   -0.0380 N   0  0  0  0  0  0  0  0  0  0  0  0
   -9.0793    0.7139    0.7449 H   0  0  0  0  0  0  0  0  0  0  0  0
   -7.8463    1.7186   -0.0330 H   0  0  0  0  0  0  0  0  0  0  0  0
   -7.6429    1.1989    1.6602 H   0  0  0  0  0  0  0  0  0  0  0  0
   -3.4583   -0.8891   -0.2333 H   0  0  0  0  0  0  0  0  0  0  0  0
   -2.6816    1.9645   -0.1220 H   0  0  0  0  0  0  0  0  0  0  0  0
   -2.3122    0.9467    1.2726 H   0  0  0  0  0  0  0  0  0  0  0  0
   -1.4012    0.3888   -1.6031 H   0  0  0  0  0  0  0  0  0  0  0  0
   -1.1543   -1.1450    0.9621 H   0  0  0  0  0  0  0  0  0  0  0  0
   -1.1923   -1.7072   -0.6996 H   0  0  0  0  0  0  0  0  0  0  0  0
    1.0037   -2.1312    0.2985 H   0  0  0  0  0  0  0  0  0  0  0  0
    1.1515   -0.9756   -1.0262 H   0  0  0  0  0  0  0  0  0  0  0  0
    3.1186   -1.2297    1.2726 H   0  0  0  0  0  0  0  0  0  0  0  0
    3.1605    0.4319    1.8007 H   0  0  0  0  0  0  0  0  0  0  0  0
    3.2576   -0.4271   -1.1600 H   0  0  0  0  0  0  0  0  0  0  0  0
    4.1878    1.8010   -1.2126 H   0  0  0  0  0  0  0  0  0  0  0  0
    5.4281    1.5107    1.2728 H   0  0  0  0  0  0  0  0  0  0  0  0
    7.8434    1.0686    1.5370 H   0  0  0  0  0  0  0  0  0  0  0  0
    8.9196   -0.7757    0.2750 H   0  0  0  0  0  0  0  0  0  0  0  0
    7.5697   -2.1843   -1.2561 H   0  0  0  0  0  0  0  0  0  0  0  0
    5.1562   -1.7637   -1.5321 H   0  0  0  0  0  0  0  0  0  0  0  0
    0.1699    1.3235    1.7614 H   0  0  0  0  0  0  0  0  0  0  0  0
    1.5835    1.9640    0.9760 H   0  0  0  0  0  0  0  0  0  0  0  0
   -0.4149    2.4945   -0.3429 H   0  0  0  0  0  0  0  0  0  0  0  0
    0.6211    1.4153   -1.2534 H   0  0  0  0  0  0  0  0  0  0  0  0
   -7.6406   -3.4248   -0.6843 H   0  0  0  0  0  0  0  0  0  0  0  0
  1  2  1  0
  2  3  2  0
  3  4  1  0
  4  5  2  0
  4  6  1  0
  6  7  1  0
  7  8  1  0
  8  9  1  0
  9 10  1  0
 10 11  1  0
 11 12  1  0
 12 13  1  0
 13 14  1  0
 13 15  1  0
 15 16  2  0
 16 17  1  0
 17 18  2  0
 18 19  1  0
 19 20  2  0
 11 21  1  0
 21 22  1  0
  3 23  1  0
 23 24  1  0
 24 25  2  0
 25  2  1  0
 22  8  1  0
 20 15  1  0
  1 26  1  0
  1 27  1  0
  1 28  1  0
  6 29  1  0
  7 30  1  0
  7 31  1  0
  8 32  1  0
  9 33  1  0
  9 34  1  0
 10 35  1  0
 10 36  1  0
 12 37  1  0
 12 38  1  0
 13 39  1  0
 14 40  1  0
 16 41  1  0
 17 42  1  0
 18 43  1  0
 19 44  1  0
 20 45  1  0
 21 46  1  0
 21 47  1  0
 22 48  1  0
 22 49  1  0
 24 50  1  0
M  END
$$$$
OCNT-2317383
     RDKit          3D

 39 41  0  0  0  0  0  0  0  0999 V2000
   -3.2391   -1.9800   -0.8532 C   0  0  0  0  0  0  0  0  0  0  0  0
   -2.4420   -1.0473    0.0620 C   0  0  0  0  0  0  0  0  0  0  0  0
   -2.8502   -1.3341    1.4137 O   0  0  0  0  0  0  0  0  0  0  0  0
   -0.9085   -1.3118   -0.0125 C   0  0  0  0  0  0  0  0  0  0  0  0
   -0.3252   -1.3275   -1.3719 N   0  0  0  0  0  0  0  0  0  0  0  0
    1.1351   -1.4723   -1.3443 C   0  0  0  0  0  0  0  0  0  0  0  0
    1.8480   -0.2046   -0.9431 C   0  0  0  0  0  0  0  0  0  0  0  0
    1.8449    0.8579   -1.8515 C   0  0  0  0  0  0  0  0  0  0  0  0
    2.4300    2.0549   -1.6419 N   0  0  0  0  0  0  0  0  0  0  0  0
    3.0455    2.2146   -0.4513 C   0  0  0  0  0  0  0  0  0  0  0  0
    3.1196    1.2395    0.5454 C   0  0  0  0  0  0  0  0  0  0  0  0
    3.7748    1.4911    1.7659 C   0  0  0  0  0  0  0  0  0  0  0  0
    3.8277    0.5162    2.7596 C   0  0  0  0  0  0  0  0  0  0  0  0
    3.2329   -0.7195    2.5419 C   0  0  0  0  0  0  0  0  0  0  0  0
    2.5855   -0.9818    1.3294 C   0  0  0  0  0  0  0  0  0  0  0  0
    2.5065   -0.0114    0.3010 C   0  0  0  0  0  0  0  0  0  0  0  0
   -2.8016    0.3888   -0.1996 C   0  0  0  0  0  0  0  0  0  0  0  0
   -2.2202    1.4202   -0.9104 C   0  0  0  0  0  0  0  0  0  0  0  0
   -3.0683    2.5441   -0.7642 C   0  0  0  0  0  0  0  0  0  0  0  0
   -4.1220    2.1309    0.0170 C   0  0  0  0  0  0  0  0  0  0  0  0
   -3.9760    0.8260    0.3608 O   0  0  0  0  0  0  0  0  0  0  0  0
   -3.0579   -1.7694   -1.9132 H   0  0  0  0  0  0  0  0  0  0  0  0
   -2.9875   -3.0276   -0.6549 H   0  0  0  0  0  0  0  0  0  0  0  0
   -4.3162   -1.8815   -0.6714 H   0  0  0  0  0  0  0  0  0  0  0  0
   -3.6631   -0.8136    1.5574 H   0  0  0  0  0  0  0  0  0  0  0  0
   -0.4103   -0.5574    0.6102 H   0  0  0  0  0  0  0  0  0  0  0  0
   -0.7014   -2.2785    0.4679 H   0  0  0  0  0  0  0  0  0  0  0  0
   -0.7158   -2.1233   -1.8777 H   0  0  0  0  0  0  0  0  0  0  0  0
    1.4315   -2.3389   -0.7457 H   0  0  0  0  0  0  0  0  0  0  0  0
    1.4647   -1.7205   -2.3624 H   0  0  0  0  0  0  0  0  0  0  0  0
    1.3442    0.7641   -2.8131 H   0  0  0  0  0  0  0  0  0  0  0  0
    3.4975    3.1934   -0.3107 H   0  0  0  0  0  0  0  0  0  0  0  0
    4.2407    2.4568    1.9500 H   0  0  0  0  0  0  0  0  0  0  0  0
    4.3221    0.7249    3.7050 H   0  0  0  0  0  0  0  0  0  0  0  0
    3.2616   -1.4811    3.3177 H   0  0  0  0  0  0  0  0  0  0  0  0
    2.1249   -1.9588    1.2142 H   0  0  0  0  0  0  0  0  0  0  0  0
   -1.2932    1.3668   -1.4665 H   0  0  0  0  0  0  0  0  0  0  0  0
   -2.9284    3.5321   -1.1803 H   0  0  0  0  0  0  0  0  0  0  0  0
   -5.0110    2.6187    0.3950 H   0  0  0  0  0  0  0  0  0  0  0  0
  1  2  1  0
  2  3  1  0
  2  4  1  0
  4  5  1  0
  5  6  1  0
  6  7  1  0
  7  8  1  0
  8  9  2  0
  9 10  1  0
 10 11  2  0
 11 12  1  0
 12 13  2  0
 13 14  1  0
 14 15  2  0
 15 16  1  0
  2 17  1  0
 17 18  2  0
 18 19  1  0
 19 20  2  0
 20 21  1  0
 16  7  2  0
 21 17  1  0
 16 11  1  0
  1 22  1  0
  1 23  1  0
  1 24  1  0
  3 25  1  0
  4 26  1  0
  4 27  1  0
  5 28  1  0
  6 29  1  0
  6 30  1  0
  8 31  1  0
 10 32  1  0
 12 33  1  0
 13 34  1  0
 14 35  1  0
 15 36  1  0
 18 37  1  0
 19 38  1  0
 20 39  1  0
M  END
$$$$
OCNT-2317404
     RDKit          3D

 41 44  0  0  0  0  0  0  0  0999 V2000
    6.8222    1.6106    1.2087 C   0  0  0  0  0  0  0  0  0  0  0  0
    6.5818    0.3095    0.7865 C   0  0  0  0  0  0  0  0  0  0  0  0
    5.3175   -0.0316    0.3139 C   0  0  0  0  0  0  0  0  0  0  0  0
    4.3202    0.9427    0.2847 C   0  0  0  0  0  0  0  0  0  0  0  0
    2.9429    0.6230   -0.2555 C   0  0  0  0  0  0  0  0  0  0  0  0
    2.4922   -0.6362    0.2500 O   0  0  0  0  0  0  0  0  0  0  0  0
    1.2688   -1.0762   -0.1744 C   0  0  0  0  0  0  0  0  0  0  0  0
    0.3932   -0.3883   -1.0172 C   0  0  0  0  0  0  0  0  0  0  0  0
   -0.8422   -0.9550   -1.3815 C   0  0  0  0  0  0  0  0  0  0  0  0
   -1.8045   -0.1933   -2.2656 C   0  0  0  0  0  0  0  0  0  0  0  0
   -2.6516    0.6728   -1.4603 N   0  0  0  0  0  0  0  0  0  0  0  0
   -3.8343    0.1211   -0.9658 C   0  0  0  0  0  0  0  0  0  0  0  0
   -4.4398    0.5982    0.2168 C   0  0  0  0  0  0  0  0  0  0  0  0
   -4.0908    1.6331    1.1537 C   0  0  0  0  0  0  0  0  0  0  0  0
   -4.9951    1.7429    2.1875 C   0  0  0  0  0  0  0  0  0  0  0  0
   -6.2681    0.6117    2.0418 S   0  0  0  0  0  0  0  0  0  0  0  0
   -5.6182   -0.0246    0.5990 C   0  0  0  0  0  0  0  0  0  0  0  0
   -6.2412   -1.0248   -0.0444 N   0  0  0  0  0  0  0  0  0  0  0  0
   -5.5937   -1.3859   -1.1536 C   0  0  0  0  0  0  0  0  0  0  0  0
   -4.4480   -0.8806   -1.6374 N   0  0  0  0  0  0  0  0  0  0  0  0
   -1.1918   -2.2149   -0.8774 C   0  0  0  0  0  0  0  0  0  0  0  0
   -0.3213   -2.9023   -0.0349 C   0  0  0  0  0  0  0  0  0  0  0  0
    0.9032   -2.3330    0.3129 C   0  0  0  0  0  0  0  0  0  0  0  0
    4.5475    2.2226    0.6807 N   0  0  0  0  0  0  0  0  0  0  0  0
    5.7838    2.5227    1.1370 C   0  0  0  0  0  0  0  0  0  0  0  0
    7.7950    1.9073    1.5837 H   0  0  0  0  0  0  0  0  0  0  0  0
    7.3710   -0.4358    0.8250 H   0  0  0  0  0  0  0  0  0  0  0  0
    5.1125   -1.0442   -0.0203 H   0  0  0  0  0  0  0  0  0  0  0  0
    3.0100    0.5935   -1.3499 H   0  0  0  0  0  0  0  0  0  0  0  0
    2.2514    1.4154    0.0561 H   0  0  0  0  0  0  0  0  0  0  0  0
    0.6412    0.5948   -1.4054 H   0  0  0  0  0  0  0  0  0  0  0  0
   -1.2248    0.4397   -2.9491 H   0  0  0  0  0  0  0  0  0  0  0  0
   -2.3630   -0.8754   -2.9184 H   0  0  0  0  0  0  0  0  0  0  0  0
   -2.1420    1.1831   -0.7493 H   0  0  0  0  0  0  0  0  0  0  0  0
   -3.2170    2.2666    1.0685 H   0  0  0  0  0  0  0  0  0  0  0  0
   -4.9717    2.4324    3.0206 H   0  0  0  0  0  0  0  0  0  0  0  0
   -6.0450   -2.1845   -1.7342 H   0  0  0  0  0  0  0  0  0  0  0  0
   -2.1517   -2.6595   -1.1344 H   0  0  0  0  0  0  0  0  0  0  0  0
   -0.5980   -3.8779    0.3558 H   0  0  0  0  0  0  0  0  0  0  0  0
    1.5773   -2.8721    0.9742 H   0  0  0  0  0  0  0  0  0  0  0  0
    5.9222    3.5526    1.4534 H   0  0  0  0  0  0  0  0  0  0  0  0
  1  2  2  0
  2  3  1  0
  3  4  2  0
  4  5  1  0
  5  6  1  0
  6  7  1  0
  7  8  2  0
  8  9  1  0
  9 10  1  0
 10 11  1  0
 11 12  1  0
 12 13  2  0
 13 14  1  0
 14 15  2  0
 15 16  1  0
 16 17  1  0
 17 18  2  0
 18 19  1  0
 19 20  2  0
  9 21  2  0
 21 22  1  0
 22 23  2  0
  4 24  1  0
 24 25  2  0
 25  1  1  0
 23  7  1  0
 20 12  1  0
 17 13  1  0
  1 26  1  0
  2 27  1  0
  3 28  1  0
  5 29  1  0
  5 30  1  0
  8 31  1  0
 10 32  1  0
 10 33  1  0
 11 34  1  0
 14 35  1  0
 15 36  1  0
 19 37  1  0
 21 38  1  0
 22 39  1  0
 23 40  1  0
 25 41  1  0
M  END
$$$$
OCNT-2317414
     RDKit          3D

 43 45  0  0  0  0  0  0  0  0999 V2000
   -1.1527   -1.3628    0.8467 O   0  0  0  0  0  0  0  0  0  0  0  0
   -0.5078   -0.3955    0.4331 C   0  0  0  0  0  0  0  0  0  0  0  0
    0.9392   -0.5300   -0.0098 C   0  0  0  0  0  0  0  0  0  0  0  0
    1.4259   -1.9794    0.0520 C   0  0  0  0  0  0  0  0  0  0  0  0
    1.0105   -2.6675   -1.1317 O   0  0  0  0  0  0  0  0  0  0  0  0
    2.9398   -2.0502    0.1362 C   0  0  0  0  0  0  0  0  0  0  0  0
    3.5605   -2.4416    1.3323 C   0  0  0  0  0  0  0  0  0  0  0  0
    4.9537   -2.4940    1.4239 C   0  0  0  0  0  0  0  0  0  0  0  0
    5.7349   -2.1534    0.3218 C   0  0  0  0  0  0  0  0  0  0  0  0
    7.4503   -2.2167    0.4376 Cl  0  0  0  0  0  0  0  0  0  0  0  0
    5.1359   -1.7612   -0.8725 C   0  0  0  0  0  0  0  0  0  0  0  0
    3.7433   -1.7090   -0.9646 C   0  0  0  0  0  0  0  0  0  0  0  0
   -1.0736    0.8816    0.3806 N   0  0  0  0  0  0  0  0  0  0  0  0
   -0.4867    1.9883   -0.3823 C   0  0  0  0  0  0  0  0  0  0  0  0
   -0.8214    3.3490    0.2164 C   0  0  0  0  0  0  0  0  0  0  0  0
   -2.3218    3.5253    0.3942 C   0  0  0  0  0  0  0  0  0  0  0  0
   -2.8952    2.3786    1.2219 C   0  0  0  0  0  0  0  0  0  0  0  0
   -2.5123    0.9905    0.6877 C   0  0  0  0  0  0  0  0  0  0  0  0
   -3.3150    0.5813   -0.5223 C   0  0  0  0  0  0  0  0  0  0  0  0
   -3.9899    1.3455   -1.3600 N   0  0  0  0  0  0  0  0  0  0  0  0
   -4.5368    0.4930   -2.2840 C   0  0  0  0  0  0  0  0  0  0  0  0
   -4.1912   -0.8079   -2.0127 C   0  0  0  0  0  0  0  0  0  0  0  0
   -3.4154   -0.7418   -0.8912 N   0  0  0  0  0  0  0  0  0  0  0  0
    1.5366    0.0996    0.6606 H   0  0  0  0  0  0  0  0  0  0  0  0
    1.0259   -0.1599   -1.0379 H   0  0  0  0  0  0  0  0  0  0  0  0
    0.9917   -2.5156    0.9032 H   0  0  0  0  0  0  0  0  0  0  0  0
    1.4512   -3.5353   -1.1189 H   0  0  0  0  0  0  0  0  0  0  0  0
    2.9643   -2.7094    2.2031 H   0  0  0  0  0  0  0  0  0  0  0  0
    5.4220   -2.8001    2.3558 H   0  0  0  0  0  0  0  0  0  0  0  0
    5.7441   -1.4958   -1.7332 H   0  0  0  0  0  0  0  0  0  0  0  0
    3.2831   -1.4031   -1.9031 H   0  0  0  0  0  0  0  0  0  0  0  0
    0.6009    1.8953   -0.4260 H   0  0  0  0  0  0  0  0  0  0  0  0
   -0.8577    1.9148   -1.4115 H   0  0  0  0  0  0  0  0  0  0  0  0
   -0.4267    4.1449   -0.4253 H   0  0  0  0  0  0  0  0  0  0  0  0
   -0.3287    3.4474    1.1920 H   0  0  0  0  0  0  0  0  0  0  0  0
   -2.8084    3.5737   -0.5860 H   0  0  0  0  0  0  0  0  0  0  0  0
   -2.5257    4.4786    0.8951 H   0  0  0  0  0  0  0  0  0  0  0  0
   -3.9845    2.4819    1.2948 H   0  0  0  0  0  0  0  0  0  0  0  0
   -2.5030    2.4736    2.2435 H   0  0  0  0  0  0  0  0  0  0  0  0
   -2.7500    0.2750    1.4869 H   0  0  0  0  0  0  0  0  0  0  0  0
   -5.1478    0.8623   -3.0973 H   0  0  0  0  0  0  0  0  0  0  0  0
   -4.4147   -1.7428   -2.5057 H   0  0  0  0  0  0  0  0  0  0  0  0
   -2.9474   -1.5068   -0.4158 H   0  0  0  0  0  0  0  0  0  0  0  0
  1  2  2  0
  2  3  1  0
  3  4  1  0
  4  5  1  0
  4  6  1  0
  6  7  1  0
  7  8  2  0
  8  9  1  0
  9 10  1  0
  9 11  2  0
 11 12  1  0
  2 13  1  0
 13 14  1  0
 14 15  1  0
 15 16  1  0
 16 17  1  0
 17 18  1  0
 18 19  1  0
 19 20  2  0
 20 21  1  0
 21 22  2  0
 22 23  1  0
 12  6  2  0
 18 13  1  0
 23 19  1  0
  3 24  1  0
  3 25  1  0
  4 26  1  0
  5 27  1  0
  7 28  1  0
  8 29  1  0
 11 30  1  0
 12 31  1  0
 14 32  1  0
 14 33  1  0
 15 34  1  0
 15 35  1  0
 16 36  1  0
 16 37  1  0
 17 38  1  0
 17 39  1  0
 18 40  1  0
 21 41  1  0
 22 42  1  0
 23 43  1  0
M  END
$$$$
OCNT-2317417
     RDKit          3D

 52 55  0  0  0  0  0  0  0  0999 V2000
   -9.3972    0.0879    0.6073 C   0  0  0  0  0  0  0  0  0  0  0  0
   -8.0594    0.2802    0.1522 O   0  0  0  0  0  0  0  0  0  0  0  0
   -7.8420   -0.5895   -0.9808 N   0  0  0  0  0  0  0  0  0  0  0  0
   -7.5228    0.1075   -2.2366 C   0  0  0  0  0  0  0  0  0  0  0  0
   -6.7531   -1.8292   -0.4944 S   0  0  0  0  0  0  0  0  0  0  0  0
   -6.4967   -2.6754   -1.6438 O   0  0  0  0  0  0  0  0  0  0  0  0
   -7.2135   -2.4022    0.7548 O   0  0  0  0  0  0  0  0  0  0  0  0
   -5.2414   -0.9453   -0.1466 C   0  0  0  0  0  0  0  0  0  0  0  0
   -4.2136   -0.9233   -1.0964 C   0  0  0  0  0  0  0  0  0  0  0  0
   -3.0186   -0.2583   -0.8073 C   0  0  0  0  0  0  0  0  0  0  0  0
   -2.8467    0.3659    0.4375 C   0  0  0  0  0  0  0  0  0  0  0  0
   -1.5917    1.0929    0.7837 C   0  0  0  0  0  0  0  0  0  0  0  0
   -1.6872    2.0983    1.4755 O   0  0  0  0  0  0  0  0  0  0  0  0
   -0.4444    0.5128    0.2973 N   0  0  0  0  0  0  0  0  0  0  0  0
    0.8389    0.9745    0.4393 C   0  0  0  0  0  0  0  0  0  0  0  0
    1.8536    0.2806   -0.0198 N   0  0  0  0  0  0  0  0  0  0  0  0
    3.0446    0.9466    0.2444 C   0  0  0  0  0  0  0  0  0  0  0  0
    4.3293    0.3786   -0.1599 C   0  0  0  0  0  0  0  0  0  0  0  0
    4.3578   -0.6268   -1.1393 C   0  0  0  0  0  0  0  0  0  0  0  0
    5.5652   -1.2001   -1.5489 C   0  0  0  0  0  0  0  0  0  0  0  0
    6.7602   -0.7622   -0.9865 C   0  0  0  0  0  0  0  0  0  0  0  0
    7.9681   -1.3374   -1.3892 N   0  0  0  0  0  0  0  0  0  0  0  0
    9.2018   -0.8757   -1.0148 C   0  0  0  0  0  0  0  0  0  0  0  0
   10.2268   -1.4612   -1.3561 O   0  0  0  0  0  0  0  0  0  0  0  0
    9.2313    0.4404   -0.2727 C   0  0  0  0  0  0  0  0  0  0  0  0
    8.0534    0.5871    0.6765 C   0  0  0  0  0  0  0  0  0  0  0  0
    6.7597    0.2281   -0.0005 C   0  0  0  0  0  0  0  0  0  0  0  0
    5.5424    0.7886    0.4156 C   0  0  0  0  0  0  0  0  0  0  0  0
    2.8869    2.1628    0.8817 C   0  0  0  0  0  0  0  0  0  0  0  0
    1.2236    2.4594    1.1723 S   0  0  0  0  0  0  0  0  0  0  0  0
   -3.8820    0.3361    1.3827 C   0  0  0  0  0  0  0  0  0  0  0  0
   -5.0750   -0.3313    1.0984 C   0  0  0  0  0  0  0  0  0  0  0  0
   -9.5614    0.7385    1.4703 H   0  0  0  0  0  0  0  0  0  0  0  0
  -10.1069    0.3627   -0.1792 H   0  0  0  0  0  0  0  0  0  0  0  0
   -9.5581   -0.9495    0.9151 H   0  0  0  0  0  0  0  0  0  0  0  0
   -8.3626    0.7561   -2.5048 H   0  0  0  0  0  0  0  0  0  0  0  0
   -6.6326    0.7317   -2.1266 H   0  0  0  0  0  0  0  0  0  0  0  0
   -7.3829   -0.6039   -3.0545 H   0  0  0  0  0  0  0  0  0  0  0  0
   -4.3361   -1.4153   -2.0596 H   0  0  0  0  0  0  0  0  0  0  0  0
   -2.2445   -0.2170   -1.5697 H   0  0  0  0  0  0  0  0  0  0  0  0
   -0.4816   -0.3896   -0.1537 H   0  0  0  0  0  0  0  0  0  0  0  0
    3.4305   -0.9734   -1.5924 H   0  0  0  0  0  0  0  0  0  0  0  0
    5.5540   -1.9765   -2.3084 H   0  0  0  0  0  0  0  0  0  0  0  0
    7.9683   -2.1473   -1.9962 H   0  0  0  0  0  0  0  0  0  0  0  0
    9.2236    1.2399   -1.0234 H   0  0  0  0  0  0  0  0  0  0  0  0
   10.1685    0.5121    0.2895 H   0  0  0  0  0  0  0  0  0  0  0  0
    8.0192    1.6172    1.0494 H   0  0  0  0  0  0  0  0  0  0  0  0
    8.1829   -0.0767    1.5404 H   0  0  0  0  0  0  0  0  0  0  0  0
    5.5552    1.5301    1.2106 H   0  0  0  0  0  0  0  0  0  0  0  0
    3.6301    2.8864    1.1813 H   0  0  0  0  0  0  0  0  0  0  0  0
   -3.7568    0.8286    2.3461 H   0  0  0  0  0  0  0  0  0  0  0  0
   -5.8669   -0.3644    1.8443 H   0  0  0  0  0  0  0  0  0  0  0  0
  1  2  1  0
  2  3  1  0
  3  4  1  0
  3  5  1  0
  5  6  2  0
  5  7  2  0
  5  8  1  0
  8  9  1  0
  9 10  2  0
 10 11  1  0
 11 12  1  0
 12 13  2  0
 12 14  1  0
 14 15  1  0
 15 16  2  0
 16 17  1  0
 17 18  1  0
 18 19  1  0
 19 20  2  0
 20 21  1  0
 21 22  1  0
 22 23  1  0
 23 24  2  0
 23 25  1  0
 25 26  1  0
 26 27  1  0
 27 28  1  0
 17 29  2  0
 29 30  1  0
 11 31  2  0
 31 32  1  0
 32  8  2  0
 30 15  1  0
 28 18  2  0
 27 21  2  0
  1 33  1  0
  1 34  1  0
  1 35  1  0
  4 36  1  0
  4 37  1  0
  4 38  1  0
  9 39  1  0
 10 40  1  0
 14 41  1  0
 19 42  1  0
 20 43  1  0
 22 44  1  0
 25 45  1  0
 25 46  1  0
 26 47  1  0
 26 48  1  0
 28 49  1  0
 29 50  1  0
 31 51  1  0
 32 52  1  0
M  END
$$$$
OCNT-2317425
     RDKit          3D

 53 55  0  0  0  0  0  0  0  0999 V2000
   -7.2322   -0.6469    0.7318 C   0  0  0  0  0  0  0  0  0  0  0  0
   -5.8909   -0.6332    0.1335 N   0  0  0  0  0  0  0  0  0  0  0  0
   -4.8872   -0.3782    1.1826 C   0  0  0  0  0  0  0  0  0  0  0  0
   -3.5191   -0.9978    0.8957 C   0  0  0  0  0  0  0  0  0  0  0  0
   -3.0297   -0.9008   -0.5403 C   0  0  0  0  0  0  0  0  0  0  0  0
   -3.3260    0.4471   -1.1006 N   0  0  0  0  0  0  0  0  0  0  0  0
   -2.0576    1.1690   -1.9876 S   0  0  0  0  0  0  0  0  0  0  0  0
   -2.4846    2.4902   -2.3980 O   0  0  0  0  0  0  0  0  0  0  0  0
   -1.5946    0.1966   -2.9554 O   0  0  0  0  0  0  0  0  0  0  0  0
   -0.8038    1.3933   -0.7531 C   0  0  0  0  0  0  0  0  0  0  0  0
   -1.0475    2.2698    0.3037 C   0  0  0  0  0  0  0  0  0  0  0  0
   -0.0763    2.4267    1.2859 C   0  0  0  0  0  0  0  0  0  0  0  0
    1.1321    1.7238    1.1971 C   0  0  0  0  0  0  0  0  0  0  0  0
    1.4095    0.8777    0.1139 C   0  0  0  0  0  0  0  0  0  0  0  0
    2.5686    0.1022    0.0146 N   0  0  0  0  0  0  0  0  0  0  0  0
    3.7658    0.4983    0.7413 C   0  0  0  0  0  0  0  0  0  0  0  0
    4.9034   -0.4184    0.3532 C   0  0  0  0  0  0  0  0  0  0  0  0
    4.9320   -1.7403    0.8183 C   0  0  0  0  0  0  0  0  0  0  0  0
    5.9734   -2.5846    0.4525 C   0  0  0  0  0  0  0  0  0  0  0  0
    5.9937   -3.8429    0.9098 F   0  0  0  0  0  0  0  0  0  0  0  0
    6.9956   -2.1451   -0.3803 C   0  0  0  0  0  0  0  0  0  0  0  0
    6.9811   -0.8334   -0.8746 C   0  0  0  0  0  0  0  0  0  0  0  0
    8.0943   -0.3397   -1.7651 C   0  0  0  0  0  0  0  0  0  0  0  0
    9.1087    0.2250   -1.0552 F   0  0  0  0  0  0  0  0  0  0  0  0
    7.6836    0.6091   -2.6518 F   0  0  0  0  0  0  0  0  0  0  0  0
    8.6609   -1.3270   -2.5120 F   0  0  0  0  0  0  0  0  0  0  0  0
    5.9309    0.0242   -0.4969 C   0  0  0  0  0  0  0  0  0  0  0  0
    0.4068    0.6985   -0.8479 C   0  0  0  0  0  0  0  0  0  0  0  0
   -4.6245    0.4204   -1.8473 C   0  0  0  0  0  0  0  0  0  0  0  0
   -5.8412    0.4344   -0.8997 C   0  0  0  0  0  0  0  0  0  0  0  0
   -7.9928   -0.8512   -0.0301 H   0  0  0  0  0  0  0  0  0  0  0  0
   -7.3147   -1.4515    1.4713 H   0  0  0  0  0  0  0  0  0  0  0  0
   -7.4772    0.3025    1.2219 H   0  0  0  0  0  0  0  0  0  0  0  0
   -5.2176   -0.8115    2.1369 H   0  0  0  0  0  0  0  0  0  0  0  0
   -4.7817    0.6973    1.3798 H   0  0  0  0  0  0  0  0  0  0  0  0
   -2.7871   -0.5158    1.5567 H   0  0  0  0  0  0  0  0  0  0  0  0
   -3.5330   -2.0579    1.1793 H   0  0  0  0  0  0  0  0  0  0  0  0
   -3.4909   -1.6872   -1.1499 H   0  0  0  0  0  0  0  0  0  0  0  0
   -1.9565   -1.1164   -0.5500 H   0  0  0  0  0  0  0  0  0  0  0  0
   -1.9873    2.8131    0.3675 H   0  0  0  0  0  0  0  0  0  0  0  0
   -0.2564    3.0897    2.1285 H   0  0  0  0  0  0  0  0  0  0  0  0
    1.8505    1.8566    2.0008 H   0  0  0  0  0  0  0  0  0  0  0  0
    2.7685   -0.1603   -0.9486 H   0  0  0  0  0  0  0  0  0  0  0  0
    3.6151    0.4219    1.8250 H   0  0  0  0  0  0  0  0  0  0  0  0
    4.0315    1.5380    0.5127 H   0  0  0  0  0  0  0  0  0  0  0  0
    4.1418   -2.1200    1.4610 H   0  0  0  0  0  0  0  0  0  0  0  0
    7.7951   -2.8342   -0.6424 H   0  0  0  0  0  0  0  0  0  0  0  0
    5.9158    1.0475   -0.8746 H   0  0  0  0  0  0  0  0  0  0  0  0
    0.5683    0.0106   -1.6752 H   0  0  0  0  0  0  0  0  0  0  0  0
   -4.6665   -0.4553   -2.5063 H   0  0  0  0  0  0  0  0  0  0  0  0
   -4.7105    1.3033   -2.4906 H   0  0  0  0  0  0  0  0  0  0  0  0
   -5.9149    1.4229   -0.4256 H   0  0  0  0  0  0  0  0  0  0  0  0
   -6.7245    0.3401   -1.5458 H   0  0  0  0  0  0  0  0  0  0  0  0
  1  2  1  0
  2  3  1  0
  3  4  1  0
  4  5  1  0
  5  6  1  0
  6  7  1  0
  7  8  2  0
  7  9  2  0
  7 10  1  0
 10 11  2  0
 11 12  1  0
 12 13  2  0
 13 14  1  0
 14 15  1  0
 15 16  1  0
 16 17  1  0
 17 18  2  0
 18 19  1  0
 19 20  1  0
 19 21  2  0
 21 22  1  0
 22 23  1  0
 23 24  1  0
 23 25  1  0
 23 26  1  0
 22 27  2  0
 14 28  2  0
  6 29  1  0
 29 30  1  0
 30  2  1  0
 28 10  1  0
 27 17  1  0
  1 31  1  0
  1 32  1  0
  1 33  1  0
  3 34  1  0
  3 35  1  0
  4 36  1  0
  4 37  1  0
  5 38  1  0
  5 39  1  0
 11 40  1  0
 12 41  1  0
 13 42  1  0
 15 43  1  0
 16 44  1  0
 16 45  1  0
 18 46  1  0
 21 47  1  0
 27 48  1  0
 28 49  1  0
 29 50  1  0
 29 51  1  0
 30 52  1  0
 30 53  1  0
M  END
$$$$
OCNT-2317432
     RDKit          3D

 40 42  0  0  0  0  0  0  0  0999 V2000
    5.6545    1.9442    0.5537 C   0  0  0  0  0  0  0  0  0  0  0  0
    4.8629    0.6740    0.3916 C   0  0  0  0  0  0  0  0  0  0  0  0
    5.5963   -0.4152   -0.3433 C   0  0  0  0  0  0  0  0  0  0  0  0
    3.3410    0.8065    0.2600 C   0  0  0  0  0  0  0  0  0  0  0  0
    2.5273   -0.0864   -0.6098 C   0  0  0  0  0  0  0  0  0  0  0  0
    1.1390   -0.0167   -0.2130 N   0  0  0  0  0  0  0  0  0  0  0  0
    0.1808   -0.5392   -1.0458 C   0  0  0  0  0  0  0  0  0  0  0  0
    0.4004   -0.9794   -2.1648 O   0  0  0  0  0  0  0  0  0  0  0  0
   -1.0535   -0.5040   -0.4529 N   0  0  0  0  0  0  0  0  0  0  0  0
   -2.2145   -0.8968   -1.2185 C   0  0  0  0  0  0  0  0  0  0  0  0
   -3.4353   -0.9605   -0.3358 C   0  0  0  0  0  0  0  0  0  0  0  0
   -3.7278   -2.1638    0.3369 C   0  0  0  0  0  0  0  0  0  0  0  0
   -4.8273   -2.2813    1.1751 C   0  0  0  0  0  0  0  0  0  0  0  0
   -5.6708   -1.1903    1.3783 C   0  0  0  0  0  0  0  0  0  0  0  0
   -5.4115    0.0460    0.7417 C   0  0  0  0  0  0  0  0  0  0  0  0
   -4.2974    0.1432   -0.1014 C   0  0  0  0  0  0  0  0  0  0  0  0
   -4.1665    1.7434   -0.7516 S   0  0  0  0  0  0  0  0  0  0  0  0
   -5.5646    2.2805    0.0554 C   0  0  0  0  0  0  0  0  0  0  0  0
   -6.1312    1.2866    0.8151 C   0  0  0  0  0  0  0  0  0  0  0  0
    3.9519    0.2765    1.5047 C   0  0  0  0  0  0  0  0  0  0  0  0
    3.8855    1.0137    2.6646 F   0  0  0  0  0  0  0  0  0  0  0  0
    3.7875   -1.0438    1.8548 F   0  0  0  0  0  0  0  0  0  0  0  0
    6.5702    1.7535    1.1230 H   0  0  0  0  0  0  0  0  0  0  0  0
    5.9349    2.3440   -0.4264 H   0  0  0  0  0  0  0  0  0  0  0  0
    5.0880    2.7193    1.0812 H   0  0  0  0  0  0  0  0  0  0  0  0
    5.0771   -1.3777   -0.3045 H   0  0  0  0  0  0  0  0  0  0  0  0
    6.5898   -0.5662    0.0924 H   0  0  0  0  0  0  0  0  0  0  0  0
    5.7234   -0.1407   -1.3956 H   0  0  0  0  0  0  0  0  0  0  0  0
    2.9303    1.8097    0.2913 H   0  0  0  0  0  0  0  0  0  0  0  0
    2.6163    0.2316   -1.6546 H   0  0  0  0  0  0  0  0  0  0  0  0
    2.8308   -1.1369   -0.5515 H   0  0  0  0  0  0  0  0  0  0  0  0
    0.9454   -0.1874    0.7641 H   0  0  0  0  0  0  0  0  0  0  0  0
   -1.1872    0.2754    0.1746 H   0  0  0  0  0  0  0  0  0  0  0  0
   -2.3486   -0.1812   -2.0370 H   0  0  0  0  0  0  0  0  0  0  0  0
   -2.0251   -1.8712   -1.6854 H   0  0  0  0  0  0  0  0  0  0  0  0
   -3.0771   -3.0270    0.1989 H   0  0  0  0  0  0  0  0  0  0  0  0
   -5.0314   -3.2244    1.6761 H   0  0  0  0  0  0  0  0  0  0  0  0
   -6.5301   -1.2914    2.0367 H   0  0  0  0  0  0  0  0  0  0  0  0
   -5.9065    3.2996   -0.0622 H   0  0  0  0  0  0  0  0  0  0  0  0
   -7.0266    1.4338    1.4064 H   0  0  0  0  0  0  0  0  0  0  0  0
  1  2  1  0
  2  3  1  0
  2  4  1  0
  4  5  1  0
  5  6  1  0
  6  7  1  0
  7  8  2  0
  7  9  1  0
  9 10  1  0
 10 11  1  0
 11 12  1  0
 12 13  2  0
 13 14  1  0
 14 15  2  0
 15 16  1  0
 16 17  1  0
 17 18  1  0
 18 19  2  0
  4 20  1  0
 20 21  1  0
 20 22  1  0
 20  2  1  0
 16 11  2  0
 19 15  1  0
  1 23  1  0
  1 24  1  0
  1 25  1  0
  3 26  1  0
  3 27  1  0
  3 28  1  0
  4 29  1  0
  5 30  1  0
  5 31  1  0
  6 32  1  0
  9 33  1  0
 10 34  1  0
 10 35  1  0
 12 36  1  0
 13 37  1  0
 14 38  1  0
 18 39  1  0
 19 40  1  0
M  END
$$$$
OCNT-2317433
     RDKit          3D

 47 49  0  0  0  0  0  0  0  0999 V2000
    6.3130    0.9532   -0.0238 C   0  0  0  0  0  0  0  0  0  0  0  0
    5.1647    0.4958    0.8791 C   0  0  0  0  0  0  0  0  0  0  0  0
    5.4301   -0.9073    1.4304 C   0  0  0  0  0  0  0  0  0  0  0  0
    3.8282    0.5701    0.1629 C   0  0  0  0  0  0  0  0  0  0  0  0
    3.5597   -0.1961   -0.9801 C   0  0  0  0  0  0  0  0  0  0  0  0
    2.3213   -0.1132   -1.6220 C   0  0  0  0  0  0  0  0  0  0  0  0
    1.3239    0.7399   -1.1368 C   0  0  0  0  0  0  0  0  0  0  0  0
   -0.0191    0.8151   -1.8201 C   0  0  0  0  0  0  0  0  0  0  0  0
   -0.9269   -0.3711   -1.4838 C   0  0  0  0  0  0  0  0  0  0  0  0
   -2.2571   -0.3349   -2.2481 C   0  0  0  0  0  0  0  0  0  0  0  0
   -3.3245   -0.7221   -1.2265 C   0  0  0  0  0  0  0  0  0  0  0  0
   -2.5607   -1.2492   -0.1025 N   0  0  0  0  0  0  0  0  0  0  0  0
   -3.2839   -1.3998    1.1612 C   0  0  0  0  0  0  0  0  0  0  0  0
   -3.8901   -0.1626    1.7290 C   0  0  0  0  0  0  0  0  0  0  0  0
   -3.2758    0.8258    2.3518 N   0  0  0  0  0  0  0  0  0  0  0  0
   -4.2500    1.7245    2.7087 N   0  0  0  0  0  0  0  0  0  0  0  0
   -5.4469    1.3021    2.3296 N   0  0  0  0  0  0  0  0  0  0  0  0
   -5.2275    0.1265    1.7224 N   0  0  0  0  0  0  0  0  0  0  0  0
   -6.3221   -0.6360    1.1913 C   0  0  0  0  0  0  0  0  0  0  0  0
   -1.3513   -0.4296   -0.0175 C   0  0  0  0  0  0  0  0  0  0  0  0
    1.5866    1.5057    0.0042 C   0  0  0  0  0  0  0  0  0  0  0  0
    2.8250    1.4216    0.6462 C   0  0  0  0  0  0  0  0  0  0  0  0
    6.4496    0.2870   -0.8826 H   0  0  0  0  0  0  0  0  0  0  0  0
    7.2557    0.9740    0.5337 H   0  0  0  0  0  0  0  0  0  0  0  0
    6.1295    1.9620   -0.4099 H   0  0  0  0  0  0  0  0  0  0  0  0
    5.1389    1.1795    1.7381 H   0  0  0  0  0  0  0  0  0  0  0  0
    6.3558   -0.9219    2.0159 H   0  0  0  0  0  0  0  0  0  0  0  0
    4.6139   -1.2314    2.0858 H   0  0  0  0  0  0  0  0  0  0  0  0
    5.5310   -1.6496    0.6311 H   0  0  0  0  0  0  0  0  0  0  0  0
    4.3135   -0.8685   -1.3828 H   0  0  0  0  0  0  0  0  0  0  0  0
    2.1403   -0.7220   -2.5049 H   0  0  0  0  0  0  0  0  0  0  0  0
   -0.5145    1.7596   -1.5596 H   0  0  0  0  0  0  0  0  0  0  0  0
    0.1453    0.8584   -2.9048 H   0  0  0  0  0  0  0  0  0  0  0  0
   -0.4141   -1.3096   -1.7404 H   0  0  0  0  0  0  0  0  0  0  0  0
   -2.4712    0.6553   -2.6657 H   0  0  0  0  0  0  0  0  0  0  0  0
   -2.2296   -1.0488   -3.0793 H   0  0  0  0  0  0  0  0  0  0  0  0
   -4.0154   -1.4673   -1.6332 H   0  0  0  0  0  0  0  0  0  0  0  0
   -3.8993    0.1730   -0.9623 H   0  0  0  0  0  0  0  0  0  0  0  0
   -2.5989   -1.8193    1.9095 H   0  0  0  0  0  0  0  0  0  0  0  0
   -4.0528   -2.1697    1.0253 H   0  0  0  0  0  0  0  0  0  0  0  0
   -6.0956   -0.9098    0.1585 H   0  0  0  0  0  0  0  0  0  0  0  0
   -6.4502   -1.5301    1.8061 H   0  0  0  0  0  0  0  0  0  0  0  0
   -7.2348   -0.0348    1.2161 H   0  0  0  0  0  0  0  0  0  0  0  0
   -1.5544    0.5763    0.3674 H   0  0  0  0  0  0  0  0  0  0  0  0
   -0.5841   -0.9024    0.6042 H   0  0  0  0  0  0  0  0  0  0  0  0
    0.8275    2.1727    0.4075 H   0  0  0  0  0  0  0  0  0  0  0  0
    2.9974    2.0290    1.5321 H   0  0  0  0  0  0  0  0  0  0  0  0
  1  2  1  0
  2  3  1  0
  2  4  1  0
  4  5  1  0
  5  6  2  0
  6  7  1  0
  7  8  1  0
  8  9  1  0
  9 10  1  0
 10 11  1  0
 11 12  1  0
 12 13  1  0
 13 14  1  0
 14 15  2  0
 15 16  1  0
 16 17  2  0
 17 18  1  0
 18 19  1  0
 12 20  1  0
  7 21  2  0
 21 22  1  0
 22  4  2  0
 20  9  1  0
 18 14  1  0
  1 23  1  0
  1 24  1  0
  1 25  1  0
  2 26  1  0
  3 27  1  0
  3 28  1  0
  3 29  1  0
  5 30  1  0
  6 31  1  0
  8 32  1  0
  8 33  1  0
  9 34  1  0
 10 35  1  0
 10 36  1  0
 11 37  1  0
 11 38  1  0
 13 39  1  0
 13 40  1  0
 19 41  1  0
 19 42  1  0
 19 43  1  0
 20 44  1  0
 20 45  1  0
 21 46  1  0
 22 47  1  0
M  END
$$$$
OCNT-2317446
     RDKit          3D

 54 57  0  0  0  0  0  0  0  0999 V2000
    6.2334   -0.2370   -1.2137 C   0  0  0  0  0  0  0  0  0  0  0  0
    4.9141    0.4857   -0.9308 C   0  0  0  0  0  0  0  0  0  0  0  0
    5.1651    1.9326   -0.4866 C   0  0  0  0  0  0  0  0  0  0  0  0
    4.0555   -0.2573    0.0804 C   0  0  0  0  0  0  0  0  0  0  0  0
    4.5503   -0.5968    1.3597 C   0  0  0  0  0  0  0  0  0  0  0  0
    3.7564   -1.2745    2.2899 C   0  0  0  0  0  0  0  0  0  0  0  0
    2.4551   -1.5904    1.9401 C   0  0  0  0  0  0  0  0  0  0  0  0
    1.4375   -2.3300    2.7515 C   0  0  0  0  0  0  0  0  0  0  0  0
    0.1414   -1.9617    2.0152 C   0  0  0  0  0  0  0  0  0  0  0  0
    0.5301   -1.7493    0.5378 C   0  0  0  0  0  0  0  0  0  0  0  0
   -0.3183   -0.7960   -0.1419 N   0  0  0  0  0  0  0  0  0  0  0  0
   -1.5956   -1.1329   -0.4893 C   0  0  0  0  0  0  0  0  0  0  0  0
   -2.0886   -2.2203   -0.1924 O   0  0  0  0  0  0  0  0  0  0  0  0
   -2.2915   -0.1675   -1.1910 N   0  0  0  0  0  0  0  0  0  0  0  0
   -1.7360    1.0700   -1.7499 C   0  0  0  0  0  0  0  0  0  0  0  0
   -2.6184    2.2687   -1.4023 C   0  0  0  0  0  0  0  0  0  0  0  0
   -4.0830    2.0135   -1.7830 C   0  0  0  0  0  0  0  0  0  0  0  0
   -4.6143    0.6885   -1.1932 C   0  0  0  0  0  0  0  0  0  0  0  0
   -4.8208    0.7964    0.3000 C   0  0  0  0  0  0  0  0  0  0  0  0
   -5.2452    1.8741    0.9421 N   0  0  0  0  0  0  0  0  0  0  0  0
   -5.3295    1.5188    2.2616 C   0  0  0  0  0  0  0  0  0  0  0  0
   -4.9600    0.2038    2.4356 C   0  0  0  0  0  0  0  0  0  0  0  0
   -4.6322   -0.2479    1.1855 N   0  0  0  0  0  0  0  0  0  0  0  0
   -3.6678   -0.4509   -1.6024 C   0  0  0  0  0  0  0  0  0  0  0  0
    1.9455   -1.2588    0.6805 C   0  0  0  0  0  0  0  0  0  0  0  0
    2.7348   -0.6045   -0.2558 C   0  0  0  0  0  0  0  0  0  0  0  0
    6.7730    0.2630   -2.0261 H   0  0  0  0  0  0  0  0  0  0  0  0
    6.0547   -1.2779   -1.5143 H   0  0  0  0  0  0  0  0  0  0  0  0
    6.8957   -0.2505   -0.3404 H   0  0  0  0  0  0  0  0  0  0  0  0
    4.3665    0.5291   -1.8823 H   0  0  0  0  0  0  0  0  0  0  0  0
    5.7264    1.9811    0.4563 H   0  0  0  0  0  0  0  0  0  0  0  0
    4.2149    2.4640   -0.3403 H   0  0  0  0  0  0  0  0  0  0  0  0
    5.7398    2.4769   -1.2457 H   0  0  0  0  0  0  0  0  0  0  0  0
    5.5704   -0.3343    1.6379 H   0  0  0  0  0  0  0  0  0  0  0  0
    4.1566   -1.5416    3.2637 H   0  0  0  0  0  0  0  0  0  0  0  0
    1.4129   -1.9991    3.7942 H   0  0  0  0  0  0  0  0  0  0  0  0
    1.6272   -3.4074    2.7048 H   0  0  0  0  0  0  0  0  0  0  0  0
   -0.2621   -1.0310    2.4396 H   0  0  0  0  0  0  0  0  0  0  0  0
   -0.6328   -2.7263    2.1382 H   0  0  0  0  0  0  0  0  0  0  0  0
    0.5204   -2.7022   -0.0044 H   0  0  0  0  0  0  0  0  0  0  0  0
   -0.1907    0.1630    0.1409 H   0  0  0  0  0  0  0  0  0  0  0  0
   -1.7005    0.9367   -2.8387 H   0  0  0  0  0  0  0  0  0  0  0  0
   -0.7113    1.2532   -1.4235 H   0  0  0  0  0  0  0  0  0  0  0  0
   -2.2521    3.1621   -1.9229 H   0  0  0  0  0  0  0  0  0  0  0  0
   -2.5500    2.4729   -0.3256 H   0  0  0  0  0  0  0  0  0  0  0  0
   -4.7011    2.8644   -1.4711 H   0  0  0  0  0  0  0  0  0  0  0  0
   -4.1540    1.9632   -2.8789 H   0  0  0  0  0  0  0  0  0  0  0  0
   -5.6013    0.4901   -1.6332 H   0  0  0  0  0  0  0  0  0  0  0  0
   -5.6583    2.2258    3.0140 H   0  0  0  0  0  0  0  0  0  0  0  0
   -4.9120   -0.4350    3.3101 H   0  0  0  0  0  0  0  0  0  0  0  0
   -4.2998   -1.1812    0.9567 H   0  0  0  0  0  0  0  0  0  0  0  0
   -3.6596   -0.5563   -2.6961 H   0  0  0  0  0  0  0  0  0  0  0  0
   -4.0195   -1.4124   -1.2102 H   0  0  0  0  0  0  0  0  0  0  0  0
    2.3284   -0.3667   -1.2355 H   0  0  0  0  0  0  0  0  0  0  0  0
  1  2  1  0
  2  3  1  0
  2  4  1  0
  4  5  1  0
  5  6  2  0
  6  7  1  0
  7  8  1  0
  8  9  1  0
  9 10  1  0
 10 11  1  0
 11 12  1  0
 12 13  2  0
 12 14  1  0
 14 15  1  0
 15 16  1  0
 16 17  1  0
 17 18  1  0
 18 19  1  0
 19 20  2  0
 20 21  1  0
 21 22  2  0
 22 23  1  0
 18 24  1  0
 10 25  1  0
 25 26  1  0
 26  4  2  0
 25  7  2  0
 24 14  1  0
 23 19  1  0
  1 27  1  0
  1 28  1  0
  1 29  1  0
  2 30  1  0
  3 31  1  0
  3 32  1  0
  3 33  1  0
  5 34  1  0
  6 35  1  0
  8 36  1  0
  8 37  1  0
  9 38  1  0
  9 39  1  0
 10 40  1  0
 11 41  1  0
 15 42  1  0
 15 43  1  0
 16 44  1  0
 16 45  1  0
 17 46  1  0
 17 47  1  0
 18 48  1  0
 21 49  1  0
 22 50  1  0
 23 51  1  0
 24 52  1  0
 24 53  1  0
 26 54  1  0
M  END
$$$$
OCNT-2317449
     RDKit          3D

 43 45  0  0  0  0  0  0  0  0999 V2000
   -0.6564   -1.1096   -2.6621 C   0  0  0  0  0  0  0  0  0  0  0  0
   -1.2676   -0.8775   -1.2678 C   0  0  0  0  0  0  0  0  0  0  0  0
   -1.1911   -2.1488   -0.6321 O   0  0  0  0  0  0  0  0  0  0  0  0
   -2.7625   -0.4690   -1.4580 C   0  0  0  0  0  0  0  0  0  0  0  0
   -3.4621    0.0117   -0.2476 N   0  0  0  0  0  0  0  0  0  0  0  0
   -3.8548    1.3421   -0.1873 C   0  0  0  0  0  0  0  0  0  0  0  0
   -4.5287    1.8250    0.8633 C   0  0  0  0  0  0  0  0  0  0  0  0
   -4.8729    0.9585    1.9593 C   0  0  0  0  0  0  0  0  0  0  0  0
   -4.5090   -0.3293    1.9428 C   0  0  0  0  0  0  0  0  0  0  0  0
   -3.7447   -0.8732    0.7890 C   0  0  0  0  0  0  0  0  0  0  0  0
   -3.3794   -2.0468    0.8069 O   0  0  0  0  0  0  0  0  0  0  0  0
   -0.4678    0.3237   -0.6532 C   0  0  0  0  0  0  0  0  0  0  0  0
   -0.8422    1.4842   -0.8655 O   0  0  0  0  0  0  0  0  0  0  0  0
    0.7366    0.0853    0.0054 N   0  0  0  0  0  0  0  0  0  0  0  0
    1.1726   -1.2395    0.4681 C   0  0  0  0  0  0  0  0  0  0  0  0
    2.4113   -1.2467    1.3735 C   0  0  0  0  0  0  0  0  0  0  0  0
    3.4637   -0.3072    0.8563 C   0  0  0  0  0  0  0  0  0  0  0  0
    4.8270   -0.6101    0.9115 C   0  0  0  0  0  0  0  0  0  0  0  0
    5.7622    0.3152    0.4463 C   0  0  0  0  0  0  0  0  0  0  0  0
    5.3338    1.5426   -0.0588 C   0  0  0  0  0  0  0  0  0  0  0  0
    6.4931    2.6831   -0.6228 Cl  0  0  0  0  0  0  0  0  0  0  0  0
    3.9762    1.8583   -0.1033 C   0  0  0  0  0  0  0  0  0  0  0  0
    3.0319    0.9305    0.3505 C   0  0  0  0  0  0  0  0  0  0  0  0
    1.5555    1.2437    0.3652 C   0  0  0  0  0  0  0  0  0  0  0  0
   -0.6693   -0.1986   -3.2706 H   0  0  0  0  0  0  0  0  0  0  0  0
   -1.1984   -1.8953   -3.2012 H   0  0  0  0  0  0  0  0  0  0  0  0
    0.3842   -1.4451   -2.5864 H   0  0  0  0  0  0  0  0  0  0  0  0
   -1.9025   -2.2026    0.0422 H   0  0  0  0  0  0  0  0  0  0  0  0
   -2.8505    0.2959   -2.2403 H   0  0  0  0  0  0  0  0  0  0  0  0
   -3.3258   -1.3460   -1.8048 H   0  0  0  0  0  0  0  0  0  0  0  0
   -3.5823    1.9857   -1.0196 H   0  0  0  0  0  0  0  0  0  0  0  0
   -4.8229    2.8684    0.9084 H   0  0  0  0  0  0  0  0  0  0  0  0
   -5.4283    1.3737    2.7934 H   0  0  0  0  0  0  0  0  0  0  0  0
   -4.7421   -1.0170    2.7446 H   0  0  0  0  0  0  0  0  0  0  0  0
    0.3524   -1.7039    1.0232 H   0  0  0  0  0  0  0  0  0  0  0  0
    1.3747   -1.8398   -0.4261 H   0  0  0  0  0  0  0  0  0  0  0  0
    2.7963   -2.2698    1.4512 H   0  0  0  0  0  0  0  0  0  0  0  0
    2.1348   -0.9232    2.3849 H   0  0  0  0  0  0  0  0  0  0  0  0
    5.1675   -1.5613    1.3134 H   0  0  0  0  0  0  0  0  0  0  0  0
    6.8216    0.0764    0.4845 H   0  0  0  0  0  0  0  0  0  0  0  0
    3.6558    2.8226   -0.4896 H   0  0  0  0  0  0  0  0  0  0  0  0
    1.2609    1.5582    1.3737 H   0  0  0  0  0  0  0  0  0  0  0  0
    1.3492    2.0757   -0.3170 H   0  0  0  0  0  0  0  0  0  0  0  0
  1  2  1  0
  2  3  1  0
  2  4  1  0
  4  5  1  0
  5  6  1  0
  6  7  2  0
  7  8  1  0
  8  9  2  0
  9 10  1  0
 10 11  2  0
  2 12  1  0
 12 13  2  0
 12 14  1  0
 14 15  1  0
 15 16  1  0
 16 17  1  0
 17 18  1  0
 18 19  2  0
 19 20  1  0
 20 21  1  0
 20 22  2  0
 22 23  1  0
 23 24  1  0
 10  5  1  0
 24 14  1  0
 23 17  2  0
  1 25  1  0
  1 26  1  0
  1 27  1  0
  3 28  1  0
  4 29  1  0
  4 30  1  0
  6 31  1  0
  7 32  1  0
  8 33  1  0
  9 34  1  0
 15 35  1  0
 15 36  1  0
 16 37  1  0
 16 38  1  0
 18 39  1  0
 19 40  1  0
 22 41  1  0
 24 42  1  0
 24 43  1  0
M  END
$$$$
OCNT-2317457
     RDKit          3D

 49 52  0  0  0  0  0  0  0  0999 V2000
    6.1461    0.5547   -1.0959 C   0  0  0  0  0  0  0  0  0  0  0  0
    5.1831    0.4899    0.0091 N   0  0  0  0  0  0  0  0  0  0  0  0
    5.8135    0.0774    1.2697 C   0  0  0  0  0  0  0  0  0  0  0  0
    4.0435   -0.2020   -0.2801 C   0  0  0  0  0  0  0  0  0  0  0  0
    3.7410   -1.4278    0.0828 N   0  0  0  0  0  0  0  0  0  0  0  0
    2.5147   -1.6887   -0.4606 C   0  0  0  0  0  0  0  0  0  0  0  0
    2.0194   -0.5905   -1.1327 C   0  0  0  0  0  0  0  0  0  0  0  0
    0.7512   -0.4166   -1.8803 C   0  0  0  0  0  0  0  0  0  0  0  0
   -0.2806    0.2763   -1.1206 N   0  0  0  0  0  0  0  0  0  0  0  0
   -0.9020   -0.5237   -0.0665 C   0  0  0  0  0  0  0  0  0  0  0  0
   -0.3151   -0.2253    1.3410 C   0  0  0  0  0  0  0  0  0  0  0  0
   -1.1912   -0.8220    2.4624 C   0  0  0  0  0  0  0  0  0  0  0  0
   -2.6081   -0.2169    2.4776 C   0  0  0  0  0  0  0  0  0  0  0  0
   -3.1566   -0.0959    1.0966 C   0  0  0  0  0  0  0  0  0  0  0  0
   -2.3642   -0.2104   -0.0285 C   0  0  0  0  0  0  0  0  0  0  0  0
   -3.1547   -0.0202   -1.1276 N   0  0  0  0  0  0  0  0  0  0  0  0
   -4.4550    0.2123   -0.7387 C   0  0  0  0  0  0  0  0  0  0  0  0
   -5.5967    0.4593   -1.5105 C   0  0  0  0  0  0  0  0  0  0  0  0
   -6.8030    0.6689   -0.8352 C   0  0  0  0  0  0  0  0  0  0  0  0
   -6.8627    0.6344    0.5562 C   0  0  0  0  0  0  0  0  0  0  0  0
   -5.7121    0.3880    1.3144 C   0  0  0  0  0  0  0  0  0  0  0  0
   -4.4843    0.1710    0.6585 C   0  0  0  0  0  0  0  0  0  0  0  0
    3.0109    0.3603   -1.0021 N   0  0  0  0  0  0  0  0  0  0  0  0
    2.9726    1.7131   -1.5039 C   0  0  0  0  0  0  0  0  0  0  0  0
    6.9794    1.2150   -0.8311 H   0  0  0  0  0  0  0  0  0  0  0  0
    6.5526   -0.4372   -1.3263 H   0  0  0  0  0  0  0  0  0  0  0  0
    5.6907    0.9625   -2.0046 H   0  0  0  0  0  0  0  0  0  0  0  0
    6.6292    0.7638    1.5229 H   0  0  0  0  0  0  0  0  0  0  0  0
    5.0944    0.1141    2.0964 H   0  0  0  0  0  0  0  0  0  0  0  0
    6.2267   -0.9360    1.2025 H   0  0  0  0  0  0  0  0  0  0  0  0
    2.0413   -2.6536   -0.3323 H   0  0  0  0  0  0  0  0  0  0  0  0
    0.9475    0.1626   -2.7906 H   0  0  0  0  0  0  0  0  0  0  0  0
    0.3792   -1.3859   -2.2348 H   0  0  0  0  0  0  0  0  0  0  0  0
    0.0795    1.1379   -0.7207 H   0  0  0  0  0  0  0  0  0  0  0  0
   -0.8117   -1.5989   -0.2722 H   0  0  0  0  0  0  0  0  0  0  0  0
   -0.2354    0.8584    1.5033 H   0  0  0  0  0  0  0  0  0  0  0  0
    0.6964   -0.6328    1.4275 H   0  0  0  0  0  0  0  0  0  0  0  0
   -1.2586   -1.9083    2.3201 H   0  0  0  0  0  0  0  0  0  0  0  0
   -0.7155   -0.6565    3.4357 H   0  0  0  0  0  0  0  0  0  0  0  0
   -2.5692    0.7825    2.9281 H   0  0  0  0  0  0  0  0  0  0  0  0
   -3.2642   -0.8340    3.1013 H   0  0  0  0  0  0  0  0  0  0  0  0
   -2.8161   -0.0240   -2.0796 H   0  0  0  0  0  0  0  0  0  0  0  0
   -5.5526    0.4886   -2.5939 H   0  0  0  0  0  0  0  0  0  0  0  0
   -7.7078    0.8626   -1.4065 H   0  0  0  0  0  0  0  0  0  0  0  0
   -7.8110    0.8010    1.0606 H   0  0  0  0  0  0  0  0  0  0  0  0
   -5.7674    0.3643    2.3982 H   0  0  0  0  0  0  0  0  0  0  0  0
    1.9520    2.0964   -1.4532 H   0  0  0  0  0  0  0  0  0  0  0  0
    3.3189    1.7008   -2.5402 H   0  0  0  0  0  0  0  0  0  0  0  0
    3.6121    2.3573   -0.8959 H   0  0  0  0  0  0  0  0  0  0  0  0
  1  2  1  0
  2  3  1  0
  2  4  1  0
  4  5  2  0
  5  6  1  0
  6  7  2  0
  7  8  1  0
  8  9  1  0
  9 10  1  0
 10 11  1  0
 11 12  1  0
 12 13  1  0
 13 14  1  0
 14 15  2  0
 15 16  1  0
 16 17  1  0
 17 18  2  0
 18 19  1  0
 19 20  2  0
 20 21  1  0
 21 22  2  0
  7 23  1  0
 23 24  1  0
 23  4  1  0
 15 10  1  0
 22 17  1  0
 22 14  1  0
  1 25  1  0
  1 26  1  0
  1 27  1  0
  3 28  1  0
  3 29  1  0
  3 30  1  0
  6 31  1  0
  8 32  1  0
  8 33  1  0
  9 34  1  0
 10 35  1  0
 11 36  1  0
 11 37  1  0
 12 38  1  0
 12 39  1  0
 13 40  1  0
 13 41  1  0
 16 42  1  0
 18 43  1  0
 19 44  1  0
 20 45  1  0
 21 46  1  0
 24 47  1  0
 24 48  1  0
 24 49  1  0
M  END
$$$$
OCNT-2317458
     RDKit          3D

 39 42  0  0  0  0  0  0  0  0999 V2000
    6.2486   -0.9096    1.2449 C   0  0  0  0  0  0  0  0  0  0  0  0
    5.6316   -0.6517   -0.0096 O   0  0  0  0  0  0  0  0  0  0  0  0
    4.2874   -0.3943    0.0023 C   0  0  0  0  0  0  0  0  0  0  0  0
    3.7316   -0.1470   -1.2644 C   0  0  0  0  0  0  0  0  0  0  0  0
    2.3691    0.1323   -1.4193 C   0  0  0  0  0  0  0  0  0  0  0  0
    1.5723    0.1604   -0.2900 C   0  0  0  0  0  0  0  0  0  0  0  0
    2.1181   -0.0839    0.9699 C   0  0  0  0  0  0  0  0  0  0  0  0
    3.4708   -0.3622    1.1346 C   0  0  0  0  0  0  0  0  0  0  0  0
    1.0789   -0.0007    2.0406 C   0  0  0  0  0  0  0  0  0  0  0  0
   -0.1881    0.3232    1.2388 C   0  0  0  0  0  0  0  0  0  0  0  0
    0.1930    0.4114   -0.1834 N   0  0  0  0  0  0  0  0  0  0  0  0
   -0.6570    0.6902   -1.2408 C   0  0  0  0  0  0  0  0  0  0  0  0
   -0.3545    0.7744   -2.4264 O   0  0  0  0  0  0  0  0  0  0  0  0
   -2.0780    0.9082   -0.8996 C   0  0  0  0  0  0  0  0  0  0  0  0
   -2.4795    2.2250   -0.6381 C   0  0  0  0  0  0  0  0  0  0  0  0
   -3.8012    2.4855   -0.2930 C   0  0  0  0  0  0  0  0  0  0  0  0
   -4.7165    1.4351   -0.2150 C   0  0  0  0  0  0  0  0  0  0  0  0
   -4.3232    0.1113   -0.4929 C   0  0  0  0  0  0  0  0  0  0  0  0
   -5.2198   -0.9584   -0.4298 C   0  0  0  0  0  0  0  0  0  0  0  0
   -4.9018   -2.2471   -0.6891 N   0  0  0  0  0  0  0  0  0  0  0  0
   -3.6265   -2.4920   -1.0459 C   0  0  0  0  0  0  0  0  0  0  0  0
   -2.6519   -1.5119   -1.1386 C   0  0  0  0  0  0  0  0  0  0  0  0
   -2.9896   -0.1735   -0.8515 C   0  0  0  0  0  0  0  0  0  0  0  0
    6.1704   -0.0425    1.9091 H   0  0  0  0  0  0  0  0  0  0  0  0
    7.3117   -1.0943    1.0629 H   0  0  0  0  0  0  0  0  0  0  0  0
    5.8304   -1.8065    1.7137 H   0  0  0  0  0  0  0  0  0  0  0  0
    4.3720   -0.1725   -2.1434 H   0  0  0  0  0  0  0  0  0  0  0  0
    1.9702    0.3194   -2.4101 H   0  0  0  0  0  0  0  0  0  0  0  0
    3.8549   -0.5459    2.1306 H   0  0  0  0  0  0  0  0  0  0  0  0
    1.3078    0.7965    2.7546 H   0  0  0  0  0  0  0  0  0  0  0  0
    0.9770   -0.9522    2.5714 H   0  0  0  0  0  0  0  0  0  0  0  0
   -0.6256    1.2765    1.5555 H   0  0  0  0  0  0  0  0  0  0  0  0
   -0.9448   -0.4591    1.3632 H   0  0  0  0  0  0  0  0  0  0  0  0
   -1.7627    3.0400   -0.7092 H   0  0  0  0  0  0  0  0  0  0  0  0
   -4.1218    3.5046   -0.0902 H   0  0  0  0  0  0  0  0  0  0  0  0
   -5.7480    1.6555    0.0548 H   0  0  0  0  0  0  0  0  0  0  0  0
   -6.2615   -0.8033   -0.1590 H   0  0  0  0  0  0  0  0  0  0  0  0
   -3.3963   -3.5309   -1.2656 H   0  0  0  0  0  0  0  0  0  0  0  0
   -1.6474   -1.7933   -1.4419 H   0  0  0  0  0  0  0  0  0  0  0  0
  1  2  1  0
  2  3  1  0
  3  4  1  0
  4  5  2  0
  5  6  1  0
  6  7  2  0
  7  8  1  0
  7  9  1  0
  9 10  1  0
 10 11  1  0
 11 12  1  0
 12 13  2  0
 12 14  1  0
 14 15  2  0
 15 16  1  0
 16 17  2  0
 17 18  1  0
 18 19  2  0
 19 20  1  0
 20 21  2  0
 21 22  1  0
 22 23  2  0
  8  3  2  0
 23 14  1  0
 11  6  1  0
 23 18  1  0
  1 24  1  0
  1 25  1  0
  1 26  1  0
  4 27  1  0
  5 28  1  0
  8 29  1  0
  9 30  1  0
  9 31  1  0
 10 32  1  0
 10 33  1  0
 15 34  1  0
 16 35  1  0
 17 36  1  0
 19 37  1  0
 21 38  1  0
 22 39  1  0
M  END
$$$$
OCNT-2317464
     RDKit          3D

 57 59  0  0  0  0  0  0  0  0999 V2000
    8.3297    0.9924   -1.6465 C   0  0  0  0  0  0  0  0  0  0  0  0
    7.6449    1.4560   -0.3693 C   0  0  0  0  0  0  0  0  0  0  0  0
    6.3012    0.8007   -0.1845 C   0  0  0  0  0  0  0  0  0  0  0  0
    5.1565    1.3499   -0.7663 C   0  0  0  0  0  0  0  0  0  0  0  0
    3.9139    0.7296   -0.6059 C   0  0  0  0  0  0  0  0  0  0  0  0
    3.7697   -0.4578    0.1408 C   0  0  0  0  0  0  0  0  0  0  0  0
    2.3770   -1.1156    0.2663 C   0  0  0  0  0  0  0  0  0  0  0  0
    2.0615   -1.7812   -1.0918 C   0  0  0  0  0  0  0  0  0  0  0  0
    2.3289   -2.2010    1.3669 C   0  0  0  0  0  0  0  0  0  0  0  0
    1.4024   -0.0619    0.6060 N   0  0  0  0  0  0  0  0  0  0  0  0
   -0.0202   -0.3729    0.4280 C   0  0  0  0  0  0  0  0  0  0  0  0
   -0.8713    0.5709    1.3036 C   0  0  0  0  0  0  0  0  0  0  0  0
   -0.3626    1.1916    2.2425 O   0  0  0  0  0  0  0  0  0  0  0  0
   -2.2327    0.6457    1.0319 N   0  0  0  0  0  0  0  0  0  0  0  0
   -3.0827    1.4527    1.9163 C   0  0  0  0  0  0  0  0  0  0  0  0
   -4.4822    0.8518    2.0921 C   0  0  0  0  0  0  0  0  0  0  0  0
   -5.1571    0.6005    0.8161 N   0  0  0  0  0  0  0  0  0  0  0  0
   -6.5439    0.5716    0.7980 C   0  0  0  0  0  0  0  0  0  0  0  0
   -7.2352    0.6891    1.8035 O   0  0  0  0  0  0  0  0  0  0  0  0
   -7.1986    0.3942   -0.5291 C   0  0  0  0  0  0  0  0  0  0  0  0
   -7.4503   -0.9982   -1.0647 C   0  0  0  0  0  0  0  0  0  0  0  0
   -8.6058   -0.1541   -0.6209 C   0  0  0  0  0  0  0  0  0  0  0  0
   -4.3073    0.4571   -0.3675 C   0  0  0  0  0  0  0  0  0  0  0  0
   -2.9130   -0.0960   -0.0358 C   0  0  0  0  0  0  0  0  0  0  0  0
    4.9324   -1.0007    0.7114 C   0  0  0  0  0  0  0  0  0  0  0  0
    6.1788   -0.3817    0.5508 C   0  0  0  0  0  0  0  0  0  0  0  0
    7.7261    1.2266   -2.5300 H   0  0  0  0  0  0  0  0  0  0  0  0
    8.5009   -0.0895   -1.6334 H   0  0  0  0  0  0  0  0  0  0  0  0
    9.2992    1.4878   -1.7576 H   0  0  0  0  0  0  0  0  0  0  0  0
    8.2861    1.2361    0.4935 H   0  0  0  0  0  0  0  0  0  0  0  0
    7.5229    2.5465   -0.3858 H   0  0  0  0  0  0  0  0  0  0  0  0
    5.2193    2.2660   -1.3486 H   0  0  0  0  0  0  0  0  0  0  0  0
    3.0406    1.1874   -1.0680 H   0  0  0  0  0  0  0  0  0  0  0  0
    1.9840   -1.0442   -1.9004 H   0  0  0  0  0  0  0  0  0  0  0  0
    2.8501   -2.4894   -1.3749 H   0  0  0  0  0  0  0  0  0  0  0  0
    1.1206   -2.3430   -1.0651 H   0  0  0  0  0  0  0  0  0  0  0  0
    3.0049   -3.0339    1.1408 H   0  0  0  0  0  0  0  0  0  0  0  0
    1.3327   -2.6436    1.4701 H   0  0  0  0  0  0  0  0  0  0  0  0
    2.6110   -1.7948    2.3454 H   0  0  0  0  0  0  0  0  0  0  0  0
    1.5576    0.2660    1.5644 H   0  0  0  0  0  0  0  0  0  0  0  0
   -0.2651   -0.2266   -0.6257 H   0  0  0  0  0  0  0  0  0  0  0  0
   -0.2743   -1.3917    0.7335 H   0  0  0  0  0  0  0  0  0  0  0  0
   -3.1571    2.4449    1.4551 H   0  0  0  0  0  0  0  0  0  0  0  0
   -2.6118    1.5783    2.8965 H   0  0  0  0  0  0  0  0  0  0  0  0
   -5.0961    1.5105    2.7161 H   0  0  0  0  0  0  0  0  0  0  0  0
   -4.4108   -0.1169    2.6015 H   0  0  0  0  0  0  0  0  0  0  0  0
   -6.9569    1.1730   -1.2470 H   0  0  0  0  0  0  0  0  0  0  0  0
   -7.3229   -1.1643   -2.1281 H   0  0  0  0  0  0  0  0  0  0  0  0
   -7.1808   -1.8466   -0.4453 H   0  0  0  0  0  0  0  0  0  0  0  0
   -9.1131   -0.4256    0.2994 H   0  0  0  0  0  0  0  0  0  0  0  0
   -9.2609    0.2597   -1.3787 H   0  0  0  0  0  0  0  0  0  0  0  0
   -4.2145    1.4582   -0.8053 H   0  0  0  0  0  0  0  0  0  0  0  0
   -4.7870   -0.1853   -1.1102 H   0  0  0  0  0  0  0  0  0  0  0  0
   -2.3034   -0.0915   -0.9430 H   0  0  0  0  0  0  0  0  0  0  0  0
   -2.9956   -1.1340    0.3092 H   0  0  0  0  0  0  0  0  0  0  0  0
    4.9039   -1.9176    1.2925 H   0  0  0  0  0  0  0  0  0  0  0  0
    7.0562   -0.8349    1.0072 H   0  0  0  0  0  0  0  0  0  0  0  0
  1  2  1  0
  2  3  1  0
  3  4  1  0
  4  5  2  0
  5  6  1  0
  6  7  1  0
  7  8  1  0
  7  9  1  0
  7 10  1  0
 10 11  1  0
 11 12  1  0
 12 13  2  0
 12 14  1  0
 14 15  1  0
 15 16  1  0
 16 17  1  0
 17 18  1  0
 18 19  2  0
 18 20  1  0
 20 21  1  0
 21 22  1  0
 17 23  1  0
 23 24  1  0
  6 25  2  0
 25 26  1  0
 26  3  2  0
 24 14  1  0
 22 20  1  0
  1 27  1  0
  1 28  1  0
  1 29  1  0
  2 30  1  0
  2 31  1  0
  4 32  1  0
  5 33  1  0
  8 34  1  0
  8 35  1  0
  8 36  1  0
  9 37  1  0
  9 38  1  0
  9 39  1  0
 10 40  1  0
 11 41  1  0
 11 42  1  0
 15 43  1  0
 15 44  1  0
 16 45  1  0
 16 46  1  0
 20 47  1  0
 21 48  1  0
 21 49  1  0
 22 50  1  0
 22 51  1  0
 23 52  1  0
 23 53  1  0
 24 54  1  0
 24 55  1  0
 25 56  1  0
 26 57  1  0
M  END
$$$$
OCNT-2317466
     RDKit          3D

 40 43  0  0  0  0  0  0  0  0999 V2000
   -4.2430   -3.3980   -0.8604 C   0  0  0  0  0  0  0  0  0  0  0  0
   -4.2623   -1.9903   -1.3267 C   0  0  0  0  0  0  0  0  0  0  0  0
   -4.9605   -1.6475   -2.4212 N   0  0  0  0  0  0  0  0  0  0  0  0
   -4.7478   -0.3190   -2.5279 N   0  0  0  0  0  0  0  0  0  0  0  0
   -3.9417    0.1925   -1.5551 C   0  0  0  0  0  0  0  0  0  0  0  0
   -3.5745    1.4784   -1.4148 N   0  0  0  0  0  0  0  0  0  0  0  0
   -2.7661    1.6639   -0.3344 C   0  0  0  0  0  0  0  0  0  0  0  0
   -2.2893    0.6862    0.5507 C   0  0  0  0  0  0  0  0  0  0  0  0
   -1.5008    0.9477    1.6766 N   0  0  0  0  0  0  0  0  0  0  0  0
   -0.5739    2.0769    1.6987 C   0  0  0  0  0  0  0  0  0  0  0  0
    0.6271    1.8257    0.8258 C   0  0  0  0  0  0  0  0  0  0  0  0
    0.8116    2.5170   -0.3791 C   0  0  0  0  0  0  0  0  0  0  0  0
    1.9324    2.2641   -1.1736 C   0  0  0  0  0  0  0  0  0  0  0  0
    2.8782    1.3146   -0.7789 C   0  0  0  0  0  0  0  0  0  0  0  0
    2.6991    0.6058    0.4095 C   0  0  0  0  0  0  0  0  0  0  0  0
    3.5819   -0.3318    0.8847 O   0  0  0  0  0  0  0  0  0  0  0  0
    4.3446   -1.0386   -0.1115 C   0  0  0  0  0  0  0  0  0  0  0  0
    5.4578   -1.8892    0.4405 C   0  0  0  0  0  0  0  0  0  0  0  0
    5.7785   -0.6158   -0.2837 C   0  0  0  0  0  0  0  0  0  0  0  0
    1.5832    0.8763    1.2051 C   0  0  0  0  0  0  0  0  0  0  0  0
    1.4101    0.2032    2.3549 F   0  0  0  0  0  0  0  0  0  0  0  0
   -2.7593   -0.6206    0.3501 C   0  0  0  0  0  0  0  0  0  0  0  0
   -3.5980   -0.8767   -0.7473 C   0  0  0  0  0  0  0  0  0  0  0  0
   -4.5249   -3.4552    0.1958 H   0  0  0  0  0  0  0  0  0  0  0  0
   -3.2399   -3.8213   -0.9737 H   0  0  0  0  0  0  0  0  0  0  0  0
   -4.9412   -4.0208   -1.4292 H   0  0  0  0  0  0  0  0  0  0  0  0
   -5.1814    0.1925   -3.2852 H   0  0  0  0  0  0  0  0  0  0  0  0
   -2.5054    2.7085   -0.1911 H   0  0  0  0  0  0  0  0  0  0  0  0
   -1.0513    0.1053    2.0336 H   0  0  0  0  0  0  0  0  0  0  0  0
   -0.2286    2.2167    2.7310 H   0  0  0  0  0  0  0  0  0  0  0  0
   -1.0713    3.0177    1.4376 H   0  0  0  0  0  0  0  0  0  0  0  0
    0.0856    3.2568   -0.7097 H   0  0  0  0  0  0  0  0  0  0  0  0
    2.0706    2.8105   -2.1042 H   0  0  0  0  0  0  0  0  0  0  0  0
    3.7491    1.1511   -1.4059 H   0  0  0  0  0  0  0  0  0  0  0  0
    3.8172   -1.4555   -0.9656 H   0  0  0  0  0  0  0  0  0  0  0  0
    5.5938   -1.9129    1.5155 H   0  0  0  0  0  0  0  0  0  0  0  0
    5.6712   -2.8276   -0.0570 H   0  0  0  0  0  0  0  0  0  0  0  0
    6.2117   -0.6885   -1.2737 H   0  0  0  0  0  0  0  0  0  0  0  0
    6.1362    0.2234    0.3015 H   0  0  0  0  0  0  0  0  0  0  0  0
   -2.4787   -1.4257    1.0204 H   0  0  0  0  0  0  0  0  0  0  0  0
  1  2  1  0
  2  3  2  0
  3  4  1  0
  4  5  1  0
  5  6  1  0
  6  7  2  0
  7  8  1  0
  8  9  1  0
  9 10  1  0
 10 11  1  0
 11 12  2  0
 12 13  1  0
 13 14  2  0
 14 15  1  0
 15 16  1  0
 16 17  1  0
 17 18  1  0
 18 19  1  0
 15 20  2  0
 20 21  1  0
  8 22  2  0
 22 23  1  0
 23  2  1  0
 23  5  2  0
 20 11  1  0
 19 17  1  0
  1 24  1  0
  1 25  1  0
  1 26  1  0
  4 27  1  0
  7 28  1  0
  9 29  1  0
 10 30  1  0
 10 31  1  0
 12 32  1  0
 13 33  1  0
 14 34  1  0
 17 35  1  0
 18 36  1  0
 18 37  1  0
 19 38  1  0
 19 39  1  0
 22 40  1  0
M  END
$$$$
OCNT-2317467
     RDKit          3D

 41 43  0  0  0  0  0  0  0  0999 V2000
    5.2092    0.9611    1.0591 C   0  0  0  0  0  0  0  0  0  0  0  0
    4.2239    0.1854    0.2361 C   0  0  0  0  0  0  0  0  0  0  0  0
    2.8589    0.2166    0.5577 C   0  0  0  0  0  0  0  0  0  0  0  0
    1.9331   -0.5028   -0.1986 C   0  0  0  0  0  0  0  0  0  0  0  0
    0.5810   -0.4227    0.1723 N   0  0  0  0  0  0  0  0  0  0  0  0
   -0.4935   -1.1126   -0.3619 C   0  0  0  0  0  0  0  0  0  0  0  0
   -0.4098   -1.9725   -1.2360 O   0  0  0  0  0  0  0  0  0  0  0  0
   -1.8643   -0.7106    0.2892 C   0  0  0  0  0  0  0  0  0  0  0  0
   -1.5618    0.1302    1.4947 N   0  0  0  0  0  0  0  0  0  0  0  0
   -2.5887   -0.0663    2.5305 C   0  0  0  0  0  0  0  0  0  0  0  0
   -4.0230    0.0285    2.0071 C   0  0  0  0  0  0  0  0  0  0  0  0
   -4.1429    1.1380    1.1150 O   0  0  0  0  0  0  0  0  0  0  0  0
   -3.8877    0.8274   -0.1996 C   0  0  0  0  0  0  0  0  0  0  0  0
   -4.7390    1.4858   -1.0973 C   0  0  0  0  0  0  0  0  0  0  0  0
   -4.6275    1.2718   -2.4660 C   0  0  0  0  0  0  0  0  0  0  0  0
   -3.6593    0.3985   -2.9411 C   0  0  0  0  0  0  0  0  0  0  0  0
   -2.7895   -0.2397   -2.0503 C   0  0  0  0  0  0  0  0  0  0  0  0
   -2.8537   -0.0196   -0.6587 C   0  0  0  0  0  0  0  0  0  0  0  0
    2.4255   -1.2327   -1.2710 C   0  0  0  0  0  0  0  0  0  0  0  0
    3.7372   -1.2835   -1.6170 N   0  0  0  0  0  0  0  0  0  0  0  0
    4.6186   -0.5797   -0.8668 C   0  0  0  0  0  0  0  0  0  0  0  0
    6.0565   -0.6725   -1.2885 C   0  0  0  0  0  0  0  0  0  0  0  0
    5.9649    0.2912    1.4814 H   0  0  0  0  0  0  0  0  0  0  0  0
    5.6998    1.7240    0.4461 H   0  0  0  0  0  0  0  0  0  0  0  0
    4.7203    1.4728    1.8949 H   0  0  0  0  0  0  0  0  0  0  0  0
    2.5241    0.8062    1.4075 H   0  0  0  0  0  0  0  0  0  0  0  0
    0.3325    0.1303    0.9900 H   0  0  0  0  0  0  0  0  0  0  0  0
   -2.2977   -1.6689    0.6085 H   0  0  0  0  0  0  0  0  0  0  0  0
   -1.6384    1.1055    1.1841 H   0  0  0  0  0  0  0  0  0  0  0  0
   -2.4374   -1.0251    3.0386 H   0  0  0  0  0  0  0  0  0  0  0  0
   -2.4331    0.7148    3.2839 H   0  0  0  0  0  0  0  0  0  0  0  0
   -4.7002    0.2115    2.8489 H   0  0  0  0  0  0  0  0  0  0  0  0
   -4.3607   -0.9047    1.5374 H   0  0  0  0  0  0  0  0  0  0  0  0
   -5.5049    2.1587   -0.7194 H   0  0  0  0  0  0  0  0  0  0  0  0
   -5.2982    1.7760   -3.1558 H   0  0  0  0  0  0  0  0  0  0  0  0
   -3.5711    0.2109   -4.0088 H   0  0  0  0  0  0  0  0  0  0  0  0
   -2.0558   -0.9146   -2.4863 H   0  0  0  0  0  0  0  0  0  0  0  0
    1.7837   -1.8166   -1.9216 H   0  0  0  0  0  0  0  0  0  0  0  0
    6.4530    0.3208   -1.5204 H   0  0  0  0  0  0  0  0  0  0  0  0
    6.6571   -1.1295   -0.4959 H   0  0  0  0  0  0  0  0  0  0  0  0
    6.1590   -1.2915   -2.1862 H   0  0  0  0  0  0  0  0  0  0  0  0
  1  2  1  0
  2  3  1  0
  3  4  2  0
  4  5  1  0
  5  6  1  0
  6  7  2  0
  6  8  1  0
  8  9  1  0
  9 10  1  0
 10 11  1  0
 11 12  1  0
 12 13  1  0
 13 14  2  0
 14 15  1  0
 15 16  2  0
 16 17  1  0
 17 18  2  0
  4 19  1  0
 19 20  2  0
 20 21  1  0
 21 22  1  0
 21  2  2  0
 18  8  1  0
 18 13  1  0
  1 23  1  0
  1 24  1  0
  1 25  1  0
  3 26  1  0
  5 27  1  0
  8 28  1  0
  9 29  1  0
 10 30  1  0
 10 31  1  0
 11 32  1  0
 11 33  1  0
 14 34  1  0
 15 35  1  0
 16 36  1  0
 17 37  1  0
 19 38  1  0
 22 39  1  0
 22 40  1  0
 22 41  1  0
M  END
$$$$
OCNT-2317470
     RDKit          3D

 48 50  0  0  0  0  0  0  0  0999 V2000
    2.0008    0.9560   -1.5888 O   0  0  0  0  0  0  0  0  0  0  0  0
    1.8159   -0.0557   -0.9103 C   0  0  0  0  0  0  0  0  0  0  0  0
    2.9244   -1.1123   -0.7295 C   0  0  0  0  0  0  0  0  0  0  0  0
    4.1858   -0.8004   -1.3012 O   0  0  0  0  0  0  0  0  0  0  0  0
    5.0327    0.0189   -0.6075 C   0  0  0  0  0  0  0  0  0  0  0  0
    4.6923    0.7913    0.5063 C   0  0  0  0  0  0  0  0  0  0  0  0
    5.6577    1.5977    1.1192 C   0  0  0  0  0  0  0  0  0  0  0  0
    6.9548    1.6323    0.6171 C   0  0  0  0  0  0  0  0  0  0  0  0
    7.8707    2.4065    1.2130 F   0  0  0  0  0  0  0  0  0  0  0  0
    7.3110    0.8791   -0.4898 C   0  0  0  0  0  0  0  0  0  0  0  0
    6.3462    0.0813   -1.0945 C   0  0  0  0  0  0  0  0  0  0  0  0
    6.7016   -0.6510   -2.1616 F   0  0  0  0  0  0  0  0  0  0  0  0
    0.6037   -0.2901   -0.2488 N   0  0  0  0  0  0  0  0  0  0  0  0
    0.3189   -1.5344    0.4623 C   0  0  0  0  0  0  0  0  0  0  0  0
   -1.1326   -1.8171    0.8421 C   0  0  0  0  0  0  0  0  0  0  0  0
   -2.0830   -1.8541   -0.3589 C   0  0  0  0  0  0  0  0  0  0  0  0
   -2.6139   -0.5617   -0.8103 N   0  0  0  0  0  0  0  0  0  0  0  0
   -3.5194    0.0982    0.1432 C   0  0  0  0  0  0  0  0  0  0  0  0
   -4.7019   -0.7708    0.5963 C   0  0  0  0  0  0  0  0  0  0  0  0
   -5.6854    0.2181    1.2116 C   0  0  0  0  0  0  0  0  0  0  0  0
   -5.4251    1.5517    0.5178 C   0  0  0  0  0  0  0  0  0  0  0  0
   -4.2631    1.3089   -0.4409 C   0  0  0  0  0  0  0  0  0  0  0  0
   -1.5576    0.3192   -1.3448 C   0  0  0  0  0  0  0  0  0  0  0  0
   -0.4465    0.7269   -0.3604 C   0  0  0  0  0  0  0  0  0  0  0  0
    3.0387   -1.3769    0.3279 H   0  0  0  0  0  0  0  0  0  0  0  0
    2.5834   -2.0133   -1.2517 H   0  0  0  0  0  0  0  0  0  0  0  0
    3.6862    0.8090    0.9107 H   0  0  0  0  0  0  0  0  0  0  0  0
    5.4021    2.2073    1.9809 H   0  0  0  0  0  0  0  0  0  0  0  0
    8.3208    0.9109   -0.8799 H   0  0  0  0  0  0  0  0  0  0  0  0
    0.9236   -1.5183    1.3769 H   0  0  0  0  0  0  0  0  0  0  0  0
    0.6878   -2.3682   -0.1451 H   0  0  0  0  0  0  0  0  0  0  0  0
   -1.1579   -2.8039    1.3229 H   0  0  0  0  0  0  0  0  0  0  0  0
   -1.4752   -1.1134    1.6076 H   0  0  0  0  0  0  0  0  0  0  0  0
   -2.9194   -2.5212   -0.1202 H   0  0  0  0  0  0  0  0  0  0  0  0
   -1.5860   -2.3489   -1.2042 H   0  0  0  0  0  0  0  0  0  0  0  0
   -2.9738    0.4289    1.0359 H   0  0  0  0  0  0  0  0  0  0  0  0
   -5.1707   -1.2694   -0.2618 H   0  0  0  0  0  0  0  0  0  0  0  0
   -4.4131   -1.5396    1.3199 H   0  0  0  0  0  0  0  0  0  0  0  0
   -5.5008    0.3180    2.2875 H   0  0  0  0  0  0  0  0  0  0  0  0
   -6.7205   -0.1148    1.0854 H   0  0  0  0  0  0  0  0  0  0  0  0
   -6.3098    1.9125   -0.0166 H   0  0  0  0  0  0  0  0  0  0  0  0
   -5.1577    2.3120    1.2605 H   0  0  0  0  0  0  0  0  0  0  0  0
   -4.6548    1.0794   -1.4402 H   0  0  0  0  0  0  0  0  0  0  0  0
   -3.6309    2.1987   -0.5224 H   0  0  0  0  0  0  0  0  0  0  0  0
   -1.1071   -0.1704   -2.2187 H   0  0  0  0  0  0  0  0  0  0  0  0
   -2.0159    1.2282   -1.7497 H   0  0  0  0  0  0  0  0  0  0  0  0
   -0.0109    1.6670   -0.7173 H   0  0  0  0  0  0  0  0  0  0  0  0
   -0.8263    0.9477    0.6423 H   0  0  0  0  0  0  0  0  0  0  0  0
  1  2  2  0
  2  3  1  0
  3  4  1  0
  4  5  1  0
  5  6  1  0
  6  7  2  0
  7  8  1  0
  8  9  1  0
  8 10  2  0
 10 11  1  0
 11 12  1  0
  2 13  1  0
 13 14  1  0
 14 15  1  0
 15 16  1  0
 16 17  1  0
 17 18  1  0
 18 19  1  0
 19 20  1  0
 20 21  1  0
 21 22  1  0
 17 23  1  0
 23 24  1  0
 11  5  2  0
 24 13  1  0
 22 18  1  0
  3 25  1  0
  3 26  1  0
  6 27  1  0
  7 28  1  0
 10 29  1  0
 14 30  1  0
 14 31  1  0
 15 32  1  0
 15 33  1  0
 16 34  1  0
 16 35  1  0
 18 36  1  0
 19 37  1  0
 19 38  1  0
 20 39  1  0
 20 40  1  0
 21 41  1  0
 21 42  1  0
 22 43  1  0
 22 44  1  0
 23 45  1  0
 23 46  1  0
 24 47  1  0
 24 48  1  0
M  END
$$$$
OCNT-2317471
     RDKit          3D

  0  0  0  0  0  0  0  0  0  0999 V3000
M  V30 BEGIN CTAB
M  V30 COUNTS 43 45 0 0 0
M  V30 BEGIN ATOM
M  V30 1 C 4.989758 -1.168640 1.616385 0
M  V30 2 C 3.734896 -0.311611 1.690750 0
M  V30 3 C 3.291656 0.202533 0.313973 0
M  V30 4 C 4.301748 1.159694 -0.326760 0
M  V30 5 C 2.750476 -0.880945 -0.653771 0
M  V30 6 N 1.584281 -0.030170 -0.831347 0
M  V30 7 C 0.417796 -0.360201 -1.460664 0
M  V30 8 O 0.310035 -1.343375 -2.186679 0
M  V30 9 N -0.610656 0.510397 -1.218345 0
M  V30 10 C -1.942362 0.288924 -1.720758 0
M  V30 11 C -2.842769 -0.418471 -0.733145 0 CFG=2
M  V30 12 C -4.070290 -1.051890 -1.336276 0
M  V30 13 N -5.197793 -0.400078 -0.647547 0
M  V30 14 C -4.751678 -0.005586 0.699804 0
M  V30 15 C -3.279769 0.227287 0.561434 0 CFG=2
M  V30 16 C -2.819715 1.567997 1.019821 0
M  V30 17 F -3.209607 1.799458 2.294126 0
M  V30 18 F -3.341701 2.544085 0.241520 0
M  V30 19 F -1.470275 1.697457 0.980570 0
M  V30 20 C -2.337216 -0.962125 0.596674 0
M  V30 21 C 1.856386 0.792115 0.333683 0
M  V30 22 H 5.853665 -0.587127 1.281379 0
M  V30 23 H 4.859674 -2.008963 0.927525 0
M  V30 24 H 5.226889 -1.573893 2.605312 0
M  V30 25 H 2.936041 -0.912142 2.143846 0
M  V30 26 H 3.912471 0.533427 2.366809 0
M  V30 27 H 4.533914 1.990557 0.348039 0
M  V30 28 H 3.916401 1.588139 -1.259097 0
M  V30 29 H 5.236699 0.646071 -0.571673 0
M  V30 30 H 2.498590 -1.847343 -0.205205 0
M  V30 31 H 3.323850 -1.033759 -1.572022 0
M  V30 32 H -0.472340 1.212605 -0.505799 0
M  V30 33 H -1.878309 -0.291418 -2.647924 0
M  V30 34 H -2.363517 1.268333 -1.971717 0
M  V30 35 H -4.087784 -2.131150 -1.148773 0
M  V30 36 H -4.151612 -0.894486 -2.416604 0
M  V30 37 H -5.430986 0.448190 -1.164934 0
M  V30 38 H -4.956873 -0.811535 1.413072 0
M  V30 39 H -5.303107 0.881926 1.027434 0
M  V30 40 H -1.306465 -0.801719 0.890262 0
M  V30 41 H -2.718705 -1.920233 0.936935 0
M  V30 42 H 1.775550 1.865900 0.142971 0
M  V30 43 H 1.232753 0.521767 1.192194 0
M  V30 END ATOM
M  V30 BEGIN BOND
M  V30 1 1 1 2
M  V30 2 1 2 3
M  V30 3 1 3 4
M  V30 4 1 3 5
M  V30 5 1 5 6
M  V30 6 1 6 7
M  V30 7 2 7 8
M  V30 8 1 7 9
M  V30 9 1 9 10
M  V30 10 1 11 10 CFG=3
M  V30 11 1 11 12
M  V30 12 1 12 13
M  V30 13 1 13 14
M  V30 14 1 14 15
M  V30 15 1 15 16 CFG=3
M  V30 16 1 16 17
M  V30 17 1 16 18
M  V30 18 1 16 19
M  V30 19 1 15 20
M  V30 20 1 6 21
M  V30 21 1 21 3
M  V30 22 1 15 11
M  V30 23 1 20 11
M  V30 24 1 1 22
M  V30 25 1 1 23
M  V30 26 1 1 24
M  V30 27 1 2 25
M  V30 28 1 2 26
M  V30 29 1 4 27
M  V30 30 1 4 28
M  V30 31 1 4 29
M  V30 32 1 5 30
M  V30 33 1 5 31
M  V30 34 1 9 32
M  V30 35 1 10 33
M  V30 36 1 10 34
M  V30 37 1 12 35
M  V30 38 1 12 36
M  V30 39 1 13 37
M  V30 40 1 14 38
M  V30 41 1 14 39
M  V30 42 1 20 40
M  V30 43 1 20 41
M  V30 44 1 21 42
M  V30 45 1 21 43
M  V30 END BOND
M  V30 BEGIN COLLECTION
M  V30 MDLV30/STERAC1 ATOMS=(2 11 15)
M  V30 END COLLECTION
M  V30 END CTAB
M  END
>  <_CXSMILES_Data>  (1233) 
|&1:10,14|

$$$$
OCNT-2317479
     RDKit          3D

 46 48  0  0  0  0  0  0  0  0999 V2000
   -2.8120   -3.0097   -1.3310 C   0  0  0  0  0  0  0  0  0  0  0  0
   -3.7097   -2.2240   -0.7214 C   0  0  0  0  0  0  0  0  0  0  0  0
   -3.9484   -0.7814   -1.0522 C   0  0  0  0  0  0  0  0  0  0  0  0
   -3.6840   -0.0384    0.1369 O   0  0  0  0  0  0  0  0  0  0  0  0
   -3.5755    1.3227    0.0039 C   0  0  0  0  0  0  0  0  0  0  0  0
   -4.1011    2.0549   -1.0652 C   0  0  0  0  0  0  0  0  0  0  0  0
   -3.9304    3.4399   -1.1216 C   0  0  0  0  0  0  0  0  0  0  0  0
   -3.2379    4.1015   -0.1117 C   0  0  0  0  0  0  0  0  0  0  0  0
   -2.7235    3.3813    0.9651 C   0  0  0  0  0  0  0  0  0  0  0  0
   -2.8956    1.9899    1.0416 C   0  0  0  0  0  0  0  0  0  0  0  0
   -2.3364    1.2359    2.2252 C   0  0  0  0  0  0  0  0  0  0  0  0
   -1.3169    0.2986    1.8125 N   0  0  0  0  0  0  0  0  0  0  0  0
    0.0142    0.6396    1.7924 C   0  0  0  0  0  0  0  0  0  0  0  0
    0.4382    1.6813    2.2840 O   0  0  0  0  0  0  0  0  0  0  0  0
    0.8909   -0.3179    1.1236 C   0  0  0  0  0  0  0  0  0  0  0  0
    2.2781   -0.2376    1.0167 C   0  0  0  0  0  0  0  0  0  0  0  0
    3.2052    0.7225    1.6789 C   0  0  0  0  0  0  0  0  0  0  0  0
    2.6821   -1.3002    0.2071 N   0  0  0  0  0  0  0  0  0  0  0  0
    3.9274   -1.6093   -0.4008 C   0  0  0  0  0  0  0  0  0  0  0  0
    4.2337   -2.8429   -0.6804 N   0  0  0  0  0  0  0  0  0  0  0  0
    5.4562   -3.0637   -1.2538 N   0  0  0  0  0  0  0  0  0  0  0  0
    6.3846   -2.1019   -1.5551 C   0  0  0  0  0  0  0  0  0  0  0  0
    7.4840   -2.3461   -2.0369 O   0  0  0  0  0  0  0  0  0  0  0  0
    5.9753   -0.7110   -1.2803 C   0  0  0  0  0  0  0  0  0  0  0  0
    4.7870   -0.4472   -0.7283 C   0  0  0  0  0  0  0  0  0  0  0  0
    1.6427   -2.1549   -0.0109 N   0  0  0  0  0  0  0  0  0  0  0  0
    0.5789   -1.5346    0.4885 C   0  0  0  0  0  0  0  0  0  0  0  0
   -2.6941   -4.0496   -1.0391 H   0  0  0  0  0  0  0  0  0  0  0  0
   -2.1727   -2.6429   -2.1288 H   0  0  0  0  0  0  0  0  0  0  0  0
   -4.3250   -2.6418    0.0724 H   0  0  0  0  0  0  0  0  0  0  0  0
   -4.9963   -0.6554   -1.3468 H   0  0  0  0  0  0  0  0  0  0  0  0
   -3.2893   -0.4607   -1.8682 H   0  0  0  0  0  0  0  0  0  0  0  0
   -4.6570    1.5788   -1.8662 H   0  0  0  0  0  0  0  0  0  0  0  0
   -4.3392    4.0036   -1.9567 H   0  0  0  0  0  0  0  0  0  0  0  0
   -3.0995    5.1787   -0.1603 H   0  0  0  0  0  0  0  0  0  0  0  0
   -2.1795    3.9103    1.7457 H   0  0  0  0  0  0  0  0  0  0  0  0
   -1.9297    1.9219    2.9765 H   0  0  0  0  0  0  0  0  0  0  0  0
   -3.1385    0.6658    2.7075 H   0  0  0  0  0  0  0  0  0  0  0  0
   -1.6524   -0.4678    1.2478 H   0  0  0  0  0  0  0  0  0  0  0  0
    4.2060    0.3016    1.8121 H   0  0  0  0  0  0  0  0  0  0  0  0
    2.8506    0.9731    2.6840 H   0  0  0  0  0  0  0  0  0  0  0  0
    3.2764    1.6504    1.1038 H   0  0  0  0  0  0  0  0  0  0  0  0
    5.6974   -4.0310   -1.4443 H   0  0  0  0  0  0  0  0  0  0  0  0
    6.6691    0.0645   -1.5779 H   0  0  0  0  0  0  0  0  0  0  0  0
    4.4503    0.5691   -0.5949 H   0  0  0  0  0  0  0  0  0  0  0  0
   -0.3837   -2.0158    0.3756 H   0  0  0  0  0  0  0  0  0  0  0  0
  1  2  2  0
  2  3  1  0
  3  4  1  0
  4  5  1  0
  5  6  2  0
  6  7  1  0
  7  8  2  0
  8  9  1  0
  9 10  2  0
 10 11  1  0
 11 12  1  0
 12 13  1  0
 13 14  2  0
 13 15  1  0
 15 16  2  0
 16 17  1  0
 16 18  1  0
 18 19  1  0
 19 20  2  0
 20 21  1  0
 21 22  1  0
 22 23  2  0
 22 24  1  0
 24 25  2  0
 18 26  1  0
 26 27  2  0
 10  5  1  0
 27 15  1  0
 25 19  1  0
  1 28  1  0
  1 29  1  0
  2 30  1  0
  3 31  1  0
  3 32  1  0
  6 33  1  0
  7 34  1  0
  8 35  1  0
  9 36  1  0
 11 37  1  0
 11 38  1  0
 12 39  1  0
 17 40  1  0
 17 41  1  0
 17 42  1  0
 21 43  1  0
 24 44  1  0
 25 45  1  0
 27 46  1  0
M  END
$$$$
OCNT-2317486
     RDKit          3D

 42 44  0  0  0  0  0  0  0  0999 V2000
    4.5387    1.6964    2.3398 C   0  0  0  0  0  0  0  0  0  0  0  0
    3.5232    1.0448    1.5855 O   0  0  0  0  0  0  0  0  0  0  0  0
    3.8921    0.7255    0.3233 C   0  0  0  0  0  0  0  0  0  0  0  0
    5.1019    1.0318   -0.1499 N   0  0  0  0  0  0  0  0  0  0  0  0
    5.0624    0.5512   -1.4095 N   0  0  0  0  0  0  0  0  0  0  0  0
    6.2199    0.6898   -2.2591 C   0  0  0  0  0  0  0  0  0  0  0  0
    3.8734   -0.0330   -1.7383 C   0  0  0  0  0  0  0  0  0  0  0  0
    3.0786    0.0591   -0.6215 C   0  0  0  0  0  0  0  0  0  0  0  0
    1.7825   -0.3794   -0.4304 N   0  0  0  0  0  0  0  0  0  0  0  0
    1.0246   -1.0782   -1.3412 C   0  0  0  0  0  0  0  0  0  0  0  0
    1.3982   -1.4503   -2.4504 O   0  0  0  0  0  0  0  0  0  0  0  0
   -0.2493   -1.3470   -0.8868 N   0  0  0  0  0  0  0  0  0  0  0  0
   -1.3713   -1.7628   -1.7223 C   0  0  0  0  0  0  0  0  0  0  0  0
   -2.2732   -1.3997   -0.5272 C   0  0  0  0  0  0  0  0  0  0  0  0
   -3.5480   -0.6520   -0.8936 C   0  0  0  0  0  0  0  0  0  0  0  0
   -4.2665   -0.1914    0.3551 C   0  0  0  0  0  0  0  0  0  0  0  0
   -4.0383    1.1201    0.8117 C   0  0  0  0  0  0  0  0  0  0  0  0
   -4.6541    1.5979    1.9698 C   0  0  0  0  0  0  0  0  0  0  0  0
   -5.5089    0.7734    2.6939 C   0  0  0  0  0  0  0  0  0  0  0  0
   -5.7494   -0.5287    2.2587 C   0  0  0  0  0  0  0  0  0  0  0  0
   -5.1338   -1.0112    1.0978 C   0  0  0  0  0  0  0  0  0  0  0  0
   -5.5360   -2.7979    0.5899 Br  0  0  0  0  0  0  0  0  0  0  0  0
   -1.0901   -0.5737    0.0179 C   0  0  0  0  0  0  0  0  0  0  0  0
    4.8123    2.6587    1.8929 H   0  0  0  0  0  0  0  0  0  0  0  0
    4.1343    1.8983    3.3366 H   0  0  0  0  0  0  0  0  0  0  0  0
    5.4182    1.0545    2.4636 H   0  0  0  0  0  0  0  0  0  0  0  0
    7.0580    0.1717   -1.7863 H   0  0  0  0  0  0  0  0  0  0  0  0
    6.0106    0.2468   -3.2359 H   0  0  0  0  0  0  0  0  0  0  0  0
    6.4393    1.7544   -2.3713 H   0  0  0  0  0  0  0  0  0  0  0  0
    3.6987   -0.4594   -2.7165 H   0  0  0  0  0  0  0  0  0  0  0  0
    1.4030   -0.2372    0.4940 H   0  0  0  0  0  0  0  0  0  0  0  0
   -1.4835   -1.1467   -2.6201 H   0  0  0  0  0  0  0  0  0  0  0  0
   -1.3535   -2.8228   -1.9870 H   0  0  0  0  0  0  0  0  0  0  0  0
   -2.4735   -2.2841    0.0954 H   0  0  0  0  0  0  0  0  0  0  0  0
   -4.2063   -1.2816   -1.5025 H   0  0  0  0  0  0  0  0  0  0  0  0
   -3.3191    0.2160   -1.5260 H   0  0  0  0  0  0  0  0  0  0  0  0
   -3.3767    1.7867    0.2611 H   0  0  0  0  0  0  0  0  0  0  0  0
   -4.4672    2.6154    2.3047 H   0  0  0  0  0  0  0  0  0  0  0  0
   -5.9907    1.1437    3.5953 H   0  0  0  0  0  0  0  0  0  0  0  0
   -6.4219   -1.1622    2.8322 H   0  0  0  0  0  0  0  0  0  0  0  0
   -1.0919    0.4946   -0.2192 H   0  0  0  0  0  0  0  0  0  0  0  0
   -0.8667   -0.7315    1.0758 H   0  0  0  0  0  0  0  0  0  0  0  0
  1  2  1  0
  2  3  1  0
  3  4  2  0
  4  5  1  0
  5  6  1  0
  5  7  1  0
  7  8  2  0
  8  9  1  0
  9 10  1  0
 10 11  2  0
 10 12  1  0
 12 13  1  0
 13 14  1  0
 14 15  1  0
 15 16  1  0
 16 17  2  0
 17 18  1  0
 18 19  2  0
 19 20  1  0
 20 21  2  0
 21 22  1  0
 14 23  1  0
  8  3  1  0
 23 12  1  0
 21 16  1  0
  1 24  1  0
  1 25  1  0
  1 26  1  0
  6 27  1  0
  6 28  1  0
  6 29  1  0
  7 30  1  0
  9 31  1  0
 13 32  1  0
 13 33  1  0
 14 34  1  0
 15 35  1  0
 15 36  1  0
 17 37  1  0
 18 38  1  0
 19 39  1  0
 20 40  1  0
 23 41  1  0
 23 42  1  0
M  END
$$$$
OCNT-2317489
     RDKit          3D

 48 51  0  0  0  0  0  0  0  0999 V2000
   -1.5578   -0.4671    2.2199 O   0  0  0  0  0  0  0  0  0  0  0  0
   -1.6395   -0.9149    1.0853 C   0  0  0  0  0  0  0  0  0  0  0  0
   -0.7688   -1.8239    0.5430 N   0  0  0  0  0  0  0  0  0  0  0  0
    0.3997   -2.2595    1.2767 C   0  0  0  0  0  0  0  0  0  0  0  0
    1.6175   -1.4656    0.8999 C   0  0  0  0  0  0  0  0  0  0  0  0
    1.8077   -0.1590    1.3575 C   0  0  0  0  0  0  0  0  0  0  0  0
    2.9429    0.5485    0.9726 C   0  0  0  0  0  0  0  0  0  0  0  0
    3.8548   -0.0740    0.1366 C   0  0  0  0  0  0  0  0  0  0  0  0
    4.9632    0.6685   -0.2164 O   0  0  0  0  0  0  0  0  0  0  0  0
    5.8555   -0.0329   -1.0811 C   0  0  0  0  0  0  0  0  0  0  0  0
    7.0195    0.8699   -1.3690 C   0  0  0  0  0  0  0  0  0  0  0  0
    6.9294    1.9161   -2.4506 C   0  0  0  0  0  0  0  0  0  0  0  0
    7.8152    0.7147   -2.6399 C   0  0  0  0  0  0  0  0  0  0  0  0
    3.7060   -1.3327   -0.3292 N   0  0  0  0  0  0  0  0  0  0  0  0
    2.5945   -1.9958    0.0632 C   0  0  0  0  0  0  0  0  0  0  0  0
   -2.6179   -0.5744    0.1841 N   0  0  0  0  0  0  0  0  0  0  0  0
   -3.6942    0.3182    0.5790 C   0  0  0  0  0  0  0  0  0  0  0  0
   -4.7636   -0.3922    1.4373 C   0  0  0  0  0  0  0  0  0  0  0  0
   -6.0564   -0.1695    0.6307 C   0  0  0  0  0  0  0  0  0  0  0  0
   -6.4406    1.3188    0.6972 C   0  0  0  0  0  0  0  0  0  0  0  0
   -5.3858    1.9893   -0.1964 C   0  0  0  0  0  0  0  0  0  0  0  0
   -4.5085    0.8052   -0.6407 C   0  0  0  0  0  0  0  0  0  0  0  0
   -5.5551   -0.2998   -0.8059 C   0  0  0  0  0  0  0  0  0  0  0  0
   -0.6802   -1.7773   -0.4609 H   0  0  0  0  0  0  0  0  0  0  0  0
    0.2267   -2.1952    2.3571 H   0  0  0  0  0  0  0  0  0  0  0  0
    0.5462   -3.3183    1.0360 H   0  0  0  0  0  0  0  0  0  0  0  0
    1.0740    0.3102    2.0107 H   0  0  0  0  0  0  0  0  0  0  0  0
    3.1116    1.5628    1.3155 H   0  0  0  0  0  0  0  0  0  0  0  0
    5.3462   -0.3057   -2.0143 H   0  0  0  0  0  0  0  0  0  0  0  0
    6.2341   -0.9371   -0.5887 H   0  0  0  0  0  0  0  0  0  0  0  0
    7.5591    1.1258   -0.4639 H   0  0  0  0  0  0  0  0  0  0  0  0
    7.4010    2.8745   -2.2654 H   0  0  0  0  0  0  0  0  0  0  0  0
    6.0185    1.9769   -3.0355 H   0  0  0  0  0  0  0  0  0  0  0  0
    8.8880    0.8620   -2.5866 H   0  0  0  0  0  0  0  0  0  0  0  0
    7.5061   -0.0335   -3.3609 H   0  0  0  0  0  0  0  0  0  0  0  0
    2.5115   -3.0045   -0.3334 H   0  0  0  0  0  0  0  0  0  0  0  0
   -2.8462   -1.3032   -0.4756 H   0  0  0  0  0  0  0  0  0  0  0  0
   -3.2508    1.1583    1.1269 H   0  0  0  0  0  0  0  0  0  0  0  0
   -4.8287    0.0397    2.4415 H   0  0  0  0  0  0  0  0  0  0  0  0
   -4.5576   -1.4642    1.5399 H   0  0  0  0  0  0  0  0  0  0  0  0
   -6.8677   -0.8439    0.9113 H   0  0  0  0  0  0  0  0  0  0  0  0
   -6.4244    1.7116    1.7187 H   0  0  0  0  0  0  0  0  0  0  0  0
   -7.4421    1.4823    0.2835 H   0  0  0  0  0  0  0  0  0  0  0  0
   -4.8199    2.7579    0.3392 H   0  0  0  0  0  0  0  0  0  0  0  0
   -5.8688    2.4610   -1.0597 H   0  0  0  0  0  0  0  0  0  0  0  0
   -3.9094    1.0152   -1.5298 H   0  0  0  0  0  0  0  0  0  0  0  0
   -5.1255   -1.2821   -1.0264 H   0  0  0  0  0  0  0  0  0  0  0  0
   -6.3196   -0.0607   -1.5528 H   0  0  0  0  0  0  0  0  0  0  0  0
  1  2  2  0
  2  3  1  0
  3  4  1  0
  4  5  1  0
  5  6  2  0
  6  7  1  0
  7  8  2  0
  8  9  1  0
  9 10  1  0
 10 11  1  0
 11 12  1  0
 12 13  1  0
  8 14  1  0
 14 15  2  0
  2 16  1  0
 16 17  1  0
 17 18  1  0
 18 19  1  0
 19 20  1  0
 20 21  1  0
 21 22  1  0
 22 23  1  0
 15  5  1  0
 22 17  1  0
 13 11  1  0
 23 19  1  0
  3 24  1  0
  4 25  1  0
  4 26  1  0
  6 27  1  0
  7 28  1  0
 10 29  1  0
 10 30  1  0
 11 31  1  0
 12 32  1  0
 12 33  1  0
 13 34  1  0
 13 35  1  0
 15 36  1  0
 16 37  1  0
 17 38  1  0
 18 39  1  0
 18 40  1  0
 19 41  1  0
 20 42  1  0
 20 43  1  0
 21 44  1  0
 21 45  1  0
 22 46  1  0
 23 47  1  0
 23 48  1  0
M  END
$$$$
OCNT-2317493
     RDKit          3D

 48 51  0  0  0  0  0  0  0  0999 V2000
   -5.9781   -1.1410   -0.4273 C   0  0  0  0  0  0  0  0  0  0  0  0
   -4.5835   -1.0059    0.2098 C   0  0  0  0  0  0  0  0  0  0  0  0
   -4.7549   -0.5475    1.6699 C   0  0  0  0  0  0  0  0  0  0  0  0
   -3.8845   -2.3771    0.2065 C   0  0  0  0  0  0  0  0  0  0  0  0
   -3.7621   -0.0168   -0.5710 C   0  0  0  0  0  0  0  0  0  0  0  0
   -3.1357    1.1723   -0.2789 C   0  0  0  0  0  0  0  0  0  0  0  0
   -2.5242    1.5646   -1.4939 C   0  0  0  0  0  0  0  0  0  0  0  0
   -1.7063    2.7730   -1.7703 C   0  0  0  0  0  0  0  0  0  0  0  0
   -0.4970    2.7536   -0.9719 N   0  0  0  0  0  0  0  0  0  0  0  0
    0.6653    2.0851   -1.2192 C   0  0  0  0  0  0  0  0  0  0  0  0
    1.4612    2.3851   -0.1329 C   0  0  0  0  0  0  0  0  0  0  0  0
    2.8537    1.9479    0.1856 C   0  0  0  0  0  0  0  0  0  0  0  0
    2.8442    0.8342    1.1535 N   0  0  0  0  0  0  0  0  0  0  0  0
    2.4704   -0.4523    0.4976 C   0  0  0  0  0  0  0  0  0  0  0  0
    3.7573   -1.1598    0.2156 C   0  0  0  0  0  0  0  0  0  0  0  0
    3.9952   -2.2813   -0.5589 C   0  0  0  0  0  0  0  0  0  0  0  0
    5.3045   -2.7616   -0.6355 C   0  0  0  0  0  0  0  0  0  0  0  0
    6.3427   -2.1252    0.0648 C   0  0  0  0  0  0  0  0  0  0  0  0
    6.0857   -1.0000    0.8514 C   0  0  0  0  0  0  0  0  0  0  0  0
    4.7861   -0.5291    0.9096 C   0  0  0  0  0  0  0  0  0  0  0  0
    4.2219    0.6186    1.6825 C   0  0  0  0  0  0  0  0  0  0  0  0
    0.7772    3.2464    0.6916 N   0  0  0  0  0  0  0  0  0  0  0  0
   -0.4185    3.4704    0.1635 N   0  0  0  0  0  0  0  0  0  0  0  0
   -2.7739    0.6781   -2.4662 N   0  0  0  0  0  0  0  0  0  0  0  0
   -3.5456   -0.3101   -1.8858 O   0  0  0  0  0  0  0  0  0  0  0  0
   -5.9167   -1.5067   -1.4590 H   0  0  0  0  0  0  0  0  0  0  0  0
   -6.6041   -1.8435    0.1346 H   0  0  0  0  0  0  0  0  0  0  0  0
   -6.4980   -0.1759   -0.4532 H   0  0  0  0  0  0  0  0  0  0  0  0
   -3.7870   -0.4481    2.1755 H   0  0  0  0  0  0  0  0  0  0  0  0
   -5.3535   -1.2653    2.2425 H   0  0  0  0  0  0  0  0  0  0  0  0
   -5.2599    0.4241    1.7287 H   0  0  0  0  0  0  0  0  0  0  0  0
   -4.4539   -3.1137    0.7849 H   0  0  0  0  0  0  0  0  0  0  0  0
   -2.8806   -2.3122    0.6428 H   0  0  0  0  0  0  0  0  0  0  0  0
   -3.7736   -2.7710   -0.8106 H   0  0  0  0  0  0  0  0  0  0  0  0
   -3.1048    1.6831    0.6734 H   0  0  0  0  0  0  0  0  0  0  0  0
   -2.2633    3.6850   -1.5288 H   0  0  0  0  0  0  0  0  0  0  0  0
   -1.4015    2.8313   -2.8212 H   0  0  0  0  0  0  0  0  0  0  0  0
    0.8127    1.4636   -2.0901 H   0  0  0  0  0  0  0  0  0  0  0  0
    3.3983    1.6933   -0.7326 H   0  0  0  0  0  0  0  0  0  0  0  0
    3.3604    2.8171    0.6255 H   0  0  0  0  0  0  0  0  0  0  0  0
    1.8834   -1.0476    1.2066 H   0  0  0  0  0  0  0  0  0  0  0  0
    1.8808   -0.3288   -0.4152 H   0  0  0  0  0  0  0  0  0  0  0  0
    3.1909   -2.7784   -1.0912 H   0  0  0  0  0  0  0  0  0  0  0  0
    5.5229   -3.6404   -1.2377 H   0  0  0  0  0  0  0  0  0  0  0  0
    7.3546   -2.5178   -0.0020 H   0  0  0  0  0  0  0  0  0  0  0  0
    6.8853   -0.5148    1.4015 H   0  0  0  0  0  0  0  0  0  0  0  0
    4.1497    0.3370    2.7395 H   0  0  0  0  0  0  0  0  0  0  0  0
    4.8573    1.5080    1.6082 H   0  0  0  0  0  0  0  0  0  0  0  0
  1  2  1  0
  2  3  1  0
  2  4  1  0
  2  5  1  0
  5  6  2  0
  6  7  1  0
  7  8  1  0
  8  9  1  0
  9 10  1  0
 10 11  2  0
 11 12  1  0
 12 13  1  0
 13 14  1  0
 14 15  1  0
 15 16  2  0
 16 17  1  0
 17 18  2  0
 18 19  1  0
 19 20  2  0
 20 21  1  0
 11 22  1  0
 22 23  2  0
  7 24  2  0
 24 25  1  0
 25  5  1  0
 23  9  1  0
 21 13  1  0
 20 15  1  0
  1 26  1  0
  1 27  1  0
  1 28  1  0
  3 29  1  0
  3 30  1  0
  3 31  1  0
  4 32  1  0
  4 33  1  0
  4 34  1  0
  6 35  1  0
  8 36  1  0
  8 37  1  0
 10 38  1  0
 12 39  1  0
 12 40  1  0
 14 41  1  0
 14 42  1  0
 16 43  1  0
 17 44  1  0
 18 45  1  0
 19 46  1  0
 21 47  1  0
 21 48  1  0
M  END
$$$$
OCNT-2317505
     RDKit          3D

 38 40  0  0  0  0  0  0  0  0999 V2000
   -2.3641   -2.6245    0.5736 C   0  0  0  0  0  0  0  0  0  0  0  0
   -2.4056   -1.2104    0.0643 C   0  0  0  0  0  0  0  0  0  0  0  0
   -1.3169   -0.4875   -0.2942 C   0  0  0  0  0  0  0  0  0  0  0  0
    0.0522   -1.0716   -0.2156 C   0  0  0  0  0  0  0  0  0  0  0  0
    0.4322   -1.8253   -1.1091 O   0  0  0  0  0  0  0  0  0  0  0  0
    0.8315   -0.7077    0.8743 N   0  0  0  0  0  0  0  0  0  0  0  0
    0.4114    0.2345    1.9054 C   0  0  0  0  0  0  0  0  0  0  0  0
    2.2387   -1.0962    0.8639 C   0  0  0  0  0  0  0  0  0  0  0  0
    3.1287   -0.0019    0.3180 C   0  0  0  0  0  0  0  0  0  0  0  0
    3.2421    0.1935   -1.0685 C   0  0  0  0  0  0  0  0  0  0  0  0
    4.0446    1.2160   -1.5775 C   0  0  0  0  0  0  0  0  0  0  0  0
    4.7342    2.0505   -0.7040 C   0  0  0  0  0  0  0  0  0  0  0  0
    5.4964    3.0290   -1.2143 F   0  0  0  0  0  0  0  0  0  0  0  0
    4.6305    1.8733    0.6734 C   0  0  0  0  0  0  0  0  0  0  0  0
    5.4758    2.9077    1.7595 Cl  0  0  0  0  0  0  0  0  0  0  0  0
    3.8298    0.8505    1.1865 C   0  0  0  0  0  0  0  0  0  0  0  0
   -1.4760    0.8767   -0.7955 C   0  0  0  0  0  0  0  0  0  0  0  0
   -2.6844    1.4594   -0.8896 C   0  0  0  0  0  0  0  0  0  0  0  0
   -3.8320    0.7242   -0.4995 C   0  0  0  0  0  0  0  0  0  0  0  0
   -5.1856    0.9623   -0.4456 C   0  0  0  0  0  0  0  0  0  0  0  0
   -5.8564   -0.1378    0.0206 N   0  0  0  0  0  0  0  0  0  0  0  0
   -4.9254   -1.0406    0.2423 C   0  0  0  0  0  0  0  0  0  0  0  0
   -3.6603   -0.5793   -0.0476 N   0  0  0  0  0  0  0  0  0  0  0  0
   -2.8085   -2.6831    1.5731 H   0  0  0  0  0  0  0  0  0  0  0  0
   -2.9226   -3.2873   -0.0961 H   0  0  0  0  0  0  0  0  0  0  0  0
   -1.3500   -3.0258    0.6533 H   0  0  0  0  0  0  0  0  0  0  0  0
    0.9028   -0.0157    2.8502 H   0  0  0  0  0  0  0  0  0  0  0  0
    0.6952    1.2453    1.5987 H   0  0  0  0  0  0  0  0  0  0  0  0
   -0.6681    0.1997    2.0668 H   0  0  0  0  0  0  0  0  0  0  0  0
    2.5326   -1.3613    1.8868 H   0  0  0  0  0  0  0  0  0  0  0  0
    2.3832   -2.0045    0.2665 H   0  0  0  0  0  0  0  0  0  0  0  0
    2.7019   -0.4550   -1.7584 H   0  0  0  0  0  0  0  0  0  0  0  0
    4.1348    1.3667   -2.6490 H   0  0  0  0  0  0  0  0  0  0  0  0
    3.7508    0.7189    2.2632 H   0  0  0  0  0  0  0  0  0  0  0  0
   -0.5804    1.4097   -1.1035 H   0  0  0  0  0  0  0  0  0  0  0  0
   -2.7925    2.4712   -1.2681 H   0  0  0  0  0  0  0  0  0  0  0  0
   -5.7143    1.8663   -0.7186 H   0  0  0  0  0  0  0  0  0  0  0  0
   -5.1068   -2.0400    0.6129 H   0  0  0  0  0  0  0  0  0  0  0  0
  1  2  1  0
  2  3  2  0
  3  4  1  0
  4  5  2  0
  4  6  1  0
  6  7  1  0
  6  8  1  0
  8  9  1  0
  9 10  1  0
 10 11  2  0
 11 12  1  0
 12 13  1  0
 12 14  2  0
 14 15  1  0
 14 16  1  0
  3 17  1  0
 17 18  2  0
 18 19  1  0
 19 20  2  0
 20 21  1  0
 21 22  2  0
 22 23  1  0
 23  2  1  0
 16  9  2  0
 23 19  1  0
  1 24  1  0
  1 25  1  0
  1 26  1  0
  7 27  1  0
  7 28  1  0
  7 29  1  0
  8 30  1  0
  8 31  1  0
 10 32  1  0
 11 33  1  0
 16 34  1  0
 17 35  1  0
 18 36  1  0
 20 37  1  0
 22 38  1  0
M  END
$$$$
OCNT-2317506
     RDKit          3D

 49 51  0  0  0  0  0  0  0  0999 V2000
   -4.5119    2.6665   -0.5051 C   0  0  0  0  0  0  0  0  0  0  0  0
   -3.5871    1.7015    0.1715 C   0  0  0  0  0  0  0  0  0  0  0  0
   -3.1042    1.9608    1.4391 C   0  0  0  0  0  0  0  0  0  0  0  0
   -2.2289    1.0452    2.0122 C   0  0  0  0  0  0  0  0  0  0  0  0
   -1.8417   -0.1264    1.3277 C   0  0  0  0  0  0  0  0  0  0  0  0
   -0.7966   -0.9766    2.0034 C   0  0  0  0  0  0  0  0  0  0  0  0
    0.3466   -1.3455    1.1671 N   0  0  0  0  0  0  0  0  0  0  0  0
    1.3157   -0.2659    0.9303 C   0  0  0  0  0  0  0  0  0  0  0  0
    0.9011    0.7960   -0.0768 C   0  0  0  0  0  0  0  0  0  0  0  0
    2.2345    1.4491   -0.4520 C   0  0  0  0  0  0  0  0  0  0  0  0
    2.5615    2.6374    0.4565 C   0  0  0  0  0  0  0  0  0  0  0  0
    2.2619    1.8861   -1.9143 C   0  0  0  0  0  0  0  0  0  0  0  0
    3.2614    0.4568   -0.2473 O   0  0  0  0  0  0  0  0  0  0  0  0
    2.6668   -0.7296    0.3223 C   0  0  0  0  0  0  0  0  0  0  0  0
    2.5231   -1.7536   -0.8145 C   0  0  0  0  0  0  0  0  0  0  0  0
    3.6164   -1.2786    1.3866 C   0  0  0  0  0  0  0  0  0  0  0  0
   -2.4248   -0.3437    0.0688 C   0  0  0  0  0  0  0  0  0  0  0  0
   -2.2078   -1.5293   -0.7240 N   0  0  0  0  0  0  0  0  0  0  0  0
   -1.8690   -2.8082   -0.3258 C   0  0  0  0  0  0  0  0  0  0  0  0
   -1.7645   -3.5738   -1.4577 C   0  0  0  0  0  0  0  0  0  0  0  0
   -1.3388   -5.2046   -1.5802 Cl  0  0  0  0  0  0  0  0  0  0  0  0
   -2.1251   -2.7219   -2.5041 C   0  0  0  0  0  0  0  0  0  0  0  0
   -2.4402   -1.4997   -2.0763 N   0  0  0  0  0  0  0  0  0  0  0  0
   -3.2588    0.5812   -0.5029 N   0  0  0  0  0  0  0  0  0  0  0  0
   -4.7890    2.3079   -1.5017 H   0  0  0  0  0  0  0  0  0  0  0  0
   -4.0262    3.6409   -0.6170 H   0  0  0  0  0  0  0  0  0  0  0  0
   -5.4283    2.7864    0.0810 H   0  0  0  0  0  0  0  0  0  0  0  0
   -3.3838    2.8650    1.9697 H   0  0  0  0  0  0  0  0  0  0  0  0
   -1.8236    1.2689    2.9975 H   0  0  0  0  0  0  0  0  0  0  0  0
   -1.2907   -1.8830    2.3709 H   0  0  0  0  0  0  0  0  0  0  0  0
   -0.4220   -0.4896    2.9134 H   0  0  0  0  0  0  0  0  0  0  0  0
    0.8356   -2.1136    1.6291 H   0  0  0  0  0  0  0  0  0  0  0  0
    1.5305    0.2314    1.8865 H   0  0  0  0  0  0  0  0  0  0  0  0
    0.1889    1.5236    0.3220 H   0  0  0  0  0  0  0  0  0  0  0  0
    0.4367    0.3301   -0.9546 H   0  0  0  0  0  0  0  0  0  0  0  0
    3.5469    3.0516    0.2134 H   0  0  0  0  0  0  0  0  0  0  0  0
    2.6093    2.3346    1.5081 H   0  0  0  0  0  0  0  0  0  0  0  0
    1.8172    3.4344    0.3589 H   0  0  0  0  0  0  0  0  0  0  0  0
    3.2388    2.3074   -2.1775 H   0  0  0  0  0  0  0  0  0  0  0  0
    2.1077    1.0311   -2.5820 H   0  0  0  0  0  0  0  0  0  0  0  0
    1.4910    2.6344   -2.1244 H   0  0  0  0  0  0  0  0  0  0  0  0
    1.8675   -1.3884   -1.6117 H   0  0  0  0  0  0  0  0  0  0  0  0
    3.4953   -1.9408   -1.2855 H   0  0  0  0  0  0  0  0  0  0  0  0
    2.1298   -2.7101   -0.4558 H   0  0  0  0  0  0  0  0  0  0  0  0
    3.2201   -2.1829    1.8585 H   0  0  0  0  0  0  0  0  0  0  0  0
    3.8011   -0.5310    2.1664 H   0  0  0  0  0  0  0  0  0  0  0  0
    4.5947   -1.5136    0.9518 H   0  0  0  0  0  0  0  0  0  0  0  0
   -1.7459   -3.0792    0.7066 H   0  0  0  0  0  0  0  0  0  0  0  0
   -2.1913   -2.9385   -3.5620 H   0  0  0  0  0  0  0  0  0  0  0  0
  1  2  1  0
  2  3  2  0
  3  4  1  0
  4  5  2  0
  5  6  1  0
  6  7  1  0
  7  8  1  0
  8  9  1  0
  9 10  1  0
 10 11  1  0
 10 12  1  0
 10 13  1  0
 13 14  1  0
 14 15  1  0
 14 16  1  0
  5 17  1  0
 17 18  1  0
 18 19  1  0
 19 20  2  0
 20 21  1  0
 20 22  1  0
 22 23  2  0
 17 24  2  0
 24  2  1  0
 14  8  1  0
 23 18  1  0
  1 25  1  0
  1 26  1  0
  1 27  1  0
  3 28  1  0
  4 29  1  0
  6 30  1  0
  6 31  1  0
  7 32  1  0
  8 33  1  0
  9 34  1  0
  9 35  1  0
 11 36  1  0
 11 37  1  0
 11 38  1  0
 12 39  1  0
 12 40  1  0
 12 41  1  0
 15 42  1  0
 15 43  1  0
 15 44  1  0
 16 45  1  0
 16 46  1  0
 16 47  1  0
 19 48  1  0
 22 49  1  0
M  END
$$$$
OCNT-2317510
     RDKit          3D

 48 50  0  0  0  0  0  0  0  0999 V2000
    7.5575   -1.0744   -0.6417 C   0  0  0  0  0  0  0  0  0  0  0  0
    6.8443   -0.0585    0.2365 C   0  0  0  0  0  0  0  0  0  0  0  0
    5.3487   -0.1688    0.1181 C   0  0  0  0  0  0  0  0  0  0  0  0
    4.6525    0.5381   -0.8675 C   0  0  0  0  0  0  0  0  0  0  0  0
    3.2617    0.4153   -0.9850 C   0  0  0  0  0  0  0  0  0  0  0  0
    2.5444   -0.4193   -0.1249 C   0  0  0  0  0  0  0  0  0  0  0  0
    1.1472   -0.5895   -0.1768 N   0  0  0  0  0  0  0  0  0  0  0  0
    0.2638   -0.0850   -1.1058 C   0  0  0  0  0  0  0  0  0  0  0  0
    0.5594    0.5614   -2.1059 O   0  0  0  0  0  0  0  0  0  0  0  0
   -1.0471   -0.3900   -0.8221 N   0  0  0  0  0  0  0  0  0  0  0  0
   -1.7126   -0.7522    0.4173 C   0  0  0  0  0  0  0  0  0  0  0  0
   -2.9912   -0.1000   -0.1495 C   0  0  0  0  0  0  0  0  0  0  0  0
   -4.1522   -1.0771   -0.3284 C   0  0  0  0  0  0  0  0  0  0  0  0
   -4.5849   -1.5172    0.9602 O   0  0  0  0  0  0  0  0  0  0  0  0
   -5.7049   -2.3884    0.8693 C   0  0  0  0  0  0  0  0  0  0  0  0
   -3.3626    1.1614    0.6810 C   0  0  0  0  0  0  0  0  0  0  0  0
   -2.3184    2.3001    0.7581 C   0  0  0  0  0  0  0  0  0  0  0  0
   -3.5013    3.2840    0.6208 C   0  0  0  0  0  0  0  0  0  0  0  0
   -4.2765    2.1485   -0.0818 C   0  0  0  0  0  0  0  0  0  0  0  0
   -2.2290    0.1697   -1.4606 C   0  0  0  0  0  0  0  0  0  0  0  0
    3.2391   -1.1266    0.8606 C   0  0  0  0  0  0  0  0  0  0  0  0
    4.6224   -1.0017    0.9694 C   0  0  0  0  0  0  0  0  0  0  0  0
    5.2576   -1.7068    1.9168 F   0  0  0  0  0  0  0  0  0  0  0  0
    7.2827   -2.0988   -0.3685 H   0  0  0  0  0  0  0  0  0  0  0  0
    7.3076   -0.9300   -1.6980 H   0  0  0  0  0  0  0  0  0  0  0  0
    8.6420   -0.9728   -0.5332 H   0  0  0  0  0  0  0  0  0  0  0  0
    7.1611    0.9549   -0.0388 H   0  0  0  0  0  0  0  0  0  0  0  0
    7.1466   -0.1950    1.2817 H   0  0  0  0  0  0  0  0  0  0  0  0
    5.1836    1.1923   -1.5558 H   0  0  0  0  0  0  0  0  0  0  0  0
    2.7674    0.9919   -1.7616 H   0  0  0  0  0  0  0  0  0  0  0  0
    0.7422   -1.2220    0.4963 H   0  0  0  0  0  0  0  0  0  0  0  0
   -1.2782   -0.2829    1.3051 H   0  0  0  0  0  0  0  0  0  0  0  0
   -1.7479   -1.8363    0.5641 H   0  0  0  0  0  0  0  0  0  0  0  0
   -3.8441   -1.9512   -0.9152 H   0  0  0  0  0  0  0  0  0  0  0  0
   -4.9841   -0.5885   -0.8495 H   0  0  0  0  0  0  0  0  0  0  0  0
   -5.9874   -2.6925    1.8807 H   0  0  0  0  0  0  0  0  0  0  0  0
   -6.5537   -1.8736    0.4089 H   0  0  0  0  0  0  0  0  0  0  0  0
   -5.4481   -3.2827    0.2933 H   0  0  0  0  0  0  0  0  0  0  0  0
   -3.7586    0.9125    1.6761 H   0  0  0  0  0  0  0  0  0  0  0  0
   -1.5989    2.3853   -0.0607 H   0  0  0  0  0  0  0  0  0  0  0  0
   -1.7694    2.3664    1.7020 H   0  0  0  0  0  0  0  0  0  0  0  0
   -3.9368    3.5876    1.5797 H   0  0  0  0  0  0  0  0  0  0  0  0
   -3.3118    4.1743    0.0158 H   0  0  0  0  0  0  0  0  0  0  0  0
   -5.3409    2.0881    0.1617 H   0  0  0  0  0  0  0  0  0  0  0  0
   -4.1681    2.1590   -1.1716 H   0  0  0  0  0  0  0  0  0  0  0  0
   -2.1104    1.2049   -1.7871 H   0  0  0  0  0  0  0  0  0  0  0  0
   -2.5410   -0.4272   -2.3245 H   0  0  0  0  0  0  0  0  0  0  0  0
    2.7278   -1.7866    1.5535 H   0  0  0  0  0  0  0  0  0  0  0  0
  1  2  1  0
  2  3  1  0
  3  4  1  0
  4  5  2  0
  5  6  1  0
  6  7  1  0
  7  8  1  0
  8  9  2  0
  8 10  1  0
 10 11  1  0
 11 12  1  0
 12 13  1  0
 13 14  1  0
 14 15  1  0
 12 16  1  0
 16 17  1  0
 17 18  1  0
 18 19  1  0
 12 20  1  0
  6 21  2  0
 21 22  1  0
 22 23  1  0
 22  3  2  0
 20 10  1  0
 19 16  1  0
  1 24  1  0
  1 25  1  0
  1 26  1  0
  2 27  1  0
  2 28  1  0
  4 29  1  0
  5 30  1  0
  7 31  1  0
 11 32  1  0
 11 33  1  0
 13 34  1  0
 13 35  1  0
 15 36  1  0
 15 37  1  0
 15 38  1  0
 16 39  1  0
 17 40  1  0
 17 41  1  0
 18 42  1  0
 18 43  1  0
 19 44  1  0
 19 45  1  0
 20 46  1  0
 20 47  1  0
 21 48  1  0
M  END
$$$$
OCNT-2317519
     RDKit          3D

 38 41  0  0  0  0  0  0  0  0999 V2000
   -0.3425    2.7423   -1.0323 C   0  0  0  0  0  0  0  0  0  0  0  0
   -1.3304    2.1805   -2.0424 C   0  0  0  0  0  0  0  0  0  0  0  0
   -2.0499    0.9808   -1.4883 C   0  0  0  0  0  0  0  0  0  0  0  0
   -1.4113   -0.2027   -1.5760 N   0  0  0  0  0  0  0  0  0  0  0  0
   -1.9713   -1.3129   -1.0504 C   0  0  0  0  0  0  0  0  0  0  0  0
   -1.2873   -2.5313   -1.1185 N   0  0  0  0  0  0  0  0  0  0  0  0
    0.1669   -2.4184   -1.2872 C   0  0  0  0  0  0  0  0  0  0  0  0
    0.9422   -1.8407   -0.1477 C   0  0  0  0  0  0  0  0  0  0  0  0
    1.8017   -0.8466   -0.1171 N   0  0  0  0  0  0  0  0  0  0  0  0
    2.1460   -0.7877    1.2161 C   0  0  0  0  0  0  0  0  0  0  0  0
    3.0740    0.2102    1.7325 C   0  0  0  0  0  0  0  0  0  0  0  0
    3.4360    0.2320    3.0821 C   0  0  0  0  0  0  0  0  0  0  0  0
    4.3209    1.2058    3.5128 C   0  0  0  0  0  0  0  0  0  0  0  0
    4.8589    2.1417    2.7031 N   0  0  0  0  0  0  0  0  0  0  0  0
    4.4953    2.1050    1.4042 C   0  0  0  0  0  0  0  0  0  0  0  0
    3.6187    1.1723    0.8777 C   0  0  0  0  0  0  0  0  0  0  0  0
    1.5539   -1.7278    1.9722 N   0  0  0  0  0  0  0  0  0  0  0  0
    0.7542   -2.4249    1.0704 O   0  0  0  0  0  0  0  0  0  0  0  0
   -3.2382   -1.1986   -0.4471 C   0  0  0  0  0  0  0  0  0  0  0  0
   -4.1228   -2.1458    0.1759 C   0  0  0  0  0  0  0  0  0  0  0  0
   -5.2818   -1.5634    0.6411 C   0  0  0  0  0  0  0  0  0  0  0  0
   -5.3166    0.1179    0.3335 S   0  0  0  0  0  0  0  0  0  0  0  0
   -3.7894    0.0720   -0.4241 C   0  0  0  0  0  0  0  0  0  0  0  0
   -3.2409    1.1924   -0.9171 N   0  0  0  0  0  0  0  0  0  0  0  0
    0.4167    1.9997   -0.7636 H   0  0  0  0  0  0  0  0  0  0  0  0
   -0.8498    3.0506   -0.1118 H   0  0  0  0  0  0  0  0  0  0  0  0
    0.1696    3.6157   -1.4480 H   0  0  0  0  0  0  0  0  0  0  0  0
   -2.0587    2.9519   -2.3175 H   0  0  0  0  0  0  0  0  0  0  0  0
   -0.8027    1.8947   -2.9595 H   0  0  0  0  0  0  0  0  0  0  0  0
   -1.5621   -3.1550   -0.3681 H   0  0  0  0  0  0  0  0  0  0  0  0
    0.5470   -3.4341   -1.4539 H   0  0  0  0  0  0  0  0  0  0  0  0
    0.4030   -1.8711   -2.2088 H   0  0  0  0  0  0  0  0  0  0  0  0
    3.0419   -0.4895    3.7905 H   0  0  0  0  0  0  0  0  0  0  0  0
    4.6298    1.2604    4.5530 H   0  0  0  0  0  0  0  0  0  0  0  0
    4.9416    2.8707    0.7760 H   0  0  0  0  0  0  0  0  0  0  0  0
    3.3669    1.2004   -0.1779 H   0  0  0  0  0  0  0  0  0  0  0  0
   -3.9182   -3.2048    0.2704 H   0  0  0  0  0  0  0  0  0  0  0  0
   -6.1112   -2.0417    1.1445 H   0  0  0  0  0  0  0  0  0  0  0  0
  1  2  1  0
  2  3  1  0
  3  4  2  0
  4  5  1  0
  5  6  1  0
  6  7  1  0
  7  8  1  0
  8  9  2  0
  9 10  1  0
 10 11  1  0
 11 12  2  0
 12 13  1  0
 13 14  2  0
 14 15  1  0
 15 16  2  0
 10 17  2  0
 17 18  1  0
  5 19  2  0
 19 20  1  0
 20 21  2  0
 21 22  1  0
 22 23  1  0
 23 24  2  0
 24  3  1  0
 18  8  1  0
 23 19  1  0
 16 11  1  0
  1 25  1  0
  1 26  1  0
  1 27  1  0
  2 28  1  0
  2 29  1  0
  6 30  1  0
  7 31  1  0
  7 32  1  0
 12 33  1  0
 13 34  1  0
 15 35  1  0
 16 36  1  0
 20 37  1  0
 21 38  1  0
M  END
$$$$
OCNT-2317520
     RDKit          3D

 48 51  0  0  0  0  0  0  0  0999 V2000
   -0.7489   -0.8476   -2.4440 O   0  0  0  0  0  0  0  0  0  0  0  0
   -1.0893   -0.3810   -1.3609 C   0  0  0  0  0  0  0  0  0  0  0  0
   -0.1818    0.1382   -0.4687 N   0  0  0  0  0  0  0  0  0  0  0  0
    1.2490    0.1478   -0.7785 C   0  0  0  0  0  0  0  0  0  0  0  0
    1.8450   -1.2623   -0.6428 C   0  0  0  0  0  0  0  0  0  0  0  0
    3.3604   -1.1969   -0.4968 C   0  0  0  0  0  0  0  0  0  0  0  0
    3.7422   -0.4326    0.7036 N   0  0  0  0  0  0  0  0  0  0  0  0
    5.0605    0.0673    0.6508 C   0  0  0  0  0  0  0  0  0  0  0  0
    6.1254   -0.7909    0.3819 C   0  0  0  0  0  0  0  0  0  0  0  0
    7.4279   -0.3001    0.3322 C   0  0  0  0  0  0  0  0  0  0  0  0
    7.6255    1.0430    0.5594 C   0  0  0  0  0  0  0  0  0  0  0  0
    6.6063    1.8735    0.8283 N   0  0  0  0  0  0  0  0  0  0  0  0
    5.3242    1.3740    0.8786 N   0  0  0  0  0  0  0  0  0  0  0  0
    2.7414    0.5113    1.2266 C   0  0  0  0  0  0  0  0  0  0  0  0
    1.9828    1.1831    0.0880 C   0  0  0  0  0  0  0  0  0  0  0  0
   -2.4118   -0.3319   -0.9321 N   0  0  0  0  0  0  0  0  0  0  0  0
   -3.4171   -0.8313   -1.8678 C   0  0  0  0  0  0  0  0  0  0  0  0
   -4.6437   -1.3724   -1.1387 C   0  0  0  0  0  0  0  0  0  0  0  0
   -5.1650   -0.3861   -0.1311 C   0  0  0  0  0  0  0  0  0  0  0  0
   -6.4894   -0.4581    0.3123 C   0  0  0  0  0  0  0  0  0  0  0  0
   -7.3090   -1.3941   -0.1860 F   0  0  0  0  0  0  0  0  0  0  0  0
   -6.9828    0.4273    1.2667 C   0  0  0  0  0  0  0  0  0  0  0  0
   -6.1411    1.4005    1.8000 C   0  0  0  0  0  0  0  0  0  0  0  0
   -4.8172    1.4695    1.3735 C   0  0  0  0  0  0  0  0  0  0  0  0
   -4.0165    2.4075    1.8988 F   0  0  0  0  0  0  0  0  0  0  0  0
   -4.3083    0.5828    0.4176 C   0  0  0  0  0  0  0  0  0  0  0  0
   -2.8684    0.7104   -0.0074 C   0  0  0  0  0  0  0  0  0  0  0  0
   -0.4134   -0.0476    0.4955 H   0  0  0  0  0  0  0  0  0  0  0  0
    1.3409    0.4676   -1.8251 H   0  0  0  0  0  0  0  0  0  0  0  0
    1.5822   -1.8678   -1.5182 H   0  0  0  0  0  0  0  0  0  0  0  0
    1.4145   -1.7774    0.2264 H   0  0  0  0  0  0  0  0  0  0  0  0
    3.7489   -2.2191   -0.4202 H   0  0  0  0  0  0  0  0  0  0  0  0
    3.7820   -0.7432   -1.4043 H   0  0  0  0  0  0  0  0  0  0  0  0
    5.9542   -1.8512    0.2327 H   0  0  0  0  0  0  0  0  0  0  0  0
    8.2640   -0.9585    0.1282 H   0  0  0  0  0  0  0  0  0  0  0  0
    8.6095    1.4951    0.5379 H   0  0  0  0  0  0  0  0  0  0  0  0
    2.0351   -0.0532    1.8495 H   0  0  0  0  0  0  0  0  0  0  0  0
    3.1699    1.2619    1.9015 H   0  0  0  0  0  0  0  0  0  0  0  0
    1.2867    1.9298    0.4879 H   0  0  0  0  0  0  0  0  0  0  0  0
    2.6982    1.7278   -0.5419 H   0  0  0  0  0  0  0  0  0  0  0  0
   -2.9981   -1.6266   -2.4946 H   0  0  0  0  0  0  0  0  0  0  0  0
   -3.6885   -0.0011   -2.5327 H   0  0  0  0  0  0  0  0  0  0  0  0
   -4.3812   -2.2957   -0.6077 H   0  0  0  0  0  0  0  0  0  0  0  0
   -5.4179   -1.6138   -1.8759 H   0  0  0  0  0  0  0  0  0  0  0  0
   -8.0170    0.3500    1.5875 H   0  0  0  0  0  0  0  0  0  0  0  0
   -6.5043    2.1019    2.5446 H   0  0  0  0  0  0  0  0  0  0  0  0
   -2.7253    1.6744   -0.5115 H   0  0  0  0  0  0  0  0  0  0  0  0
   -2.2407    0.6958    0.8891 H   0  0  0  0  0  0  0  0  0  0  0  0
  1  2  2  0
  2  3  1  0
  3  4  1  0
  4  5  1  0
  5  6  1  0
  6  7  1  0
  7  8  1  0
  8  9  2  0
  9 10  1  0
 10 11  2  0
 11 12  1  0
 12 13  2  0
  7 14  1  0
 14 15  1  0
  2 16  1  0
 16 17  1  0
 17 18  1  0
 18 19  1  0
 19 20  2  0
 20 21  1  0
 20 22  1  0
 22 23  2  0
 23 24  1  0
 24 25  1  0
 24 26  2  0
 26 27  1  0
 15  4  1  0
 27 16  1  0
 13  8  1  0
 26 19  1  0
  3 28  1  0
  4 29  1  0
  5 30  1  0
  5 31  1  0
  6 32  1  0
  6 33  1  0
  9 34  1  0
 10 35  1  0
 11 36  1  0
 14 37  1  0
 14 38  1  0
 15 39  1  0
 15 40  1  0
 17 41  1  0
 17 42  1  0
 18 43  1  0
 18 44  1  0
 22 45  1  0
 23 46  1  0
 27 47  1  0
 27 48  1  0
M  END
$$$$
OCNT-2317521
     RDKit          3D

 45 47  0  0  0  0  0  0  0  0999 V2000
   -1.9941   -0.2085    2.5786 O   0  0  0  0  0  0  0  0  0  0  0  0
   -1.4210    0.5894    1.8406 C   0  0  0  0  0  0  0  0  0  0  0  0
    0.0378    0.9352    2.0243 C   0  0  0  0  0  0  0  0  0  0  0  0
    0.8190    0.4891    0.8962 N   0  0  0  0  0  0  0  0  0  0  0  0
    1.6021   -0.6178    0.7934 C   0  0  0  0  0  0  0  0  0  0  0  0
    2.1218   -0.5440   -0.4846 C   0  0  0  0  0  0  0  0  0  0  0  0
    3.0420   -1.4670   -1.2114 C   0  0  0  0  0  0  0  0  0  0  0  0
    2.6285   -2.8291   -1.1020 O   0  0  0  0  0  0  0  0  0  0  0  0
    4.4140   -1.2509   -0.5974 C   0  0  0  0  0  0  0  0  0  0  0  0
    4.9487   -2.1427    0.3511 C   0  0  0  0  0  0  0  0  0  0  0  0
    6.2096   -1.9202    0.9083 C   0  0  0  0  0  0  0  0  0  0  0  0
    6.9427   -0.8056    0.5225 C   0  0  0  0  0  0  0  0  0  0  0  0
    8.1513   -0.5922    1.0593 F   0  0  0  0  0  0  0  0  0  0  0  0
    6.4405    0.0921   -0.4108 C   0  0  0  0  0  0  0  0  0  0  0  0
    5.1805   -0.1288   -0.9702 C   0  0  0  0  0  0  0  0  0  0  0  0
    1.6147    0.5744   -1.1033 N   0  0  0  0  0  0  0  0  0  0  0  0
    0.8256    1.2042   -0.2449 N   0  0  0  0  0  0  0  0  0  0  0  0
   -2.0535    1.2675    0.8152 N   0  0  0  0  0  0  0  0  0  0  0  0
   -3.4225    0.9570    0.4264 C   0  0  0  0  0  0  0  0  0  0  0  0
   -4.0468    2.1528   -0.3008 C   0  0  0  0  0  0  0  0  0  0  0  0
   -5.4628    1.8454   -0.7802 C   0  0  0  0  0  0  0  0  0  0  0  0
   -5.5021    0.5906   -1.6470 C   0  0  0  0  0  0  0  0  0  0  0  0
   -4.8822   -0.6059   -0.9317 C   0  0  0  0  0  0  0  0  0  0  0  0
   -3.4660   -0.3031   -0.4492 C   0  0  0  0  0  0  0  0  0  0  0  0
    0.4225    0.4491    2.9265 H   0  0  0  0  0  0  0  0  0  0  0  0
    0.1622    2.0176    2.1319 H   0  0  0  0  0  0  0  0  0  0  0  0
    1.7307   -1.3341    1.5921 H   0  0  0  0  0  0  0  0  0  0  0  0
    3.0788   -1.2254   -2.2799 H   0  0  0  0  0  0  0  0  0  0  0  0
    1.7211   -2.8567   -1.4498 H   0  0  0  0  0  0  0  0  0  0  0  0
    4.3825   -3.0209    0.6565 H   0  0  0  0  0  0  0  0  0  0  0  0
    6.6223   -2.6100    1.6373 H   0  0  0  0  0  0  0  0  0  0  0  0
    7.0300    0.9575   -0.6956 H   0  0  0  0  0  0  0  0  0  0  0  0
    4.7917    0.5842   -1.6957 H   0  0  0  0  0  0  0  0  0  0  0  0
   -1.4532    1.6793    0.1024 H   0  0  0  0  0  0  0  0  0  0  0  0
   -3.9944    0.7646    1.3436 H   0  0  0  0  0  0  0  0  0  0  0  0
   -3.4254    2.4333   -1.1615 H   0  0  0  0  0  0  0  0  0  0  0  0
   -4.0661    3.0253    0.3637 H   0  0  0  0  0  0  0  0  0  0  0  0
   -5.8529    2.6978   -1.3477 H   0  0  0  0  0  0  0  0  0  0  0  0
   -6.1205    1.7110    0.0874 H   0  0  0  0  0  0  0  0  0  0  0  0
   -6.5389    0.3618   -1.9181 H   0  0  0  0  0  0  0  0  0  0  0  0
   -4.9605    0.7766   -2.5827 H   0  0  0  0  0  0  0  0  0  0  0  0
   -4.8648   -1.4696   -1.6058 H   0  0  0  0  0  0  0  0  0  0  0  0
   -5.5076   -0.8825   -0.0740 H   0  0  0  0  0  0  0  0  0  0  0  0
   -3.0800   -1.1660    0.1066 H   0  0  0  0  0  0  0  0  0  0  0  0
   -2.8054   -0.1748   -1.3169 H   0  0  0  0  0  0  0  0  0  0  0  0
  1  2  2  0
  2  3  1  0
  3  4  1  0
  4  5  1  0
  5  6  2  0
  6  7  1  0
  7  8  1  0
  7  9  1  0
  9 10  1  0
 10 11  2  0
 11 12  1  0
 12 13  1  0
 12 14  2  0
 14 15  1  0
  6 16  1  0
 16 17  2  0
  2 18  1  0
 18 19  1  0
 19 20  1  0
 20 21  1  0
 21 22  1  0
 22 23  1  0
 23 24  1  0
 17  4  1  0
 24 19  1  0
 15  9  2  0
  3 25  1  0
  3 26  1  0
  5 27  1  0
  7 28  1  0
  8 29  1  0
 10 30  1  0
 11 31  1  0
 14 32  1  0
 15 33  1  0
 18 34  1  0
 19 35  1  0
 20 36  1  0
 20 37  1  0
 21 38  1  0
 21 39  1  0
 22 40  1  0
 22 41  1  0
 23 42  1  0
 23 43  1  0
 24 44  1  0
 24 45  1  0
M  END
$$$$
OCNT-2317535
     RDKit          3D

  0  0  0  0  0  0  0  0  0  0999 V3000
M  V30 BEGIN CTAB
M  V30 COUNTS 50 52 0 0 0
M  V30 BEGIN ATOM
M  V30 1 C 4.543529 2.905408 1.581976 0
M  V30 2 O 5.319837 1.823715 1.081143 0
M  V30 3 C 4.647070 0.835433 0.413666 0
M  V30 4 C 3.270759 0.793623 0.185781 0
M  V30 5 C 2.699826 -0.278923 -0.515480 0
M  V30 6 C 1.209793 -0.332063 -0.739616 0
M  V30 7 C 0.480182 -0.950099 0.455369 0
M  V30 8 N -0.957237 -1.002548 0.251382 0
M  V30 9 C -1.750869 0.115766 0.420075 0
M  V30 10 O -1.277996 1.192110 0.776458 0
M  V30 11 C -3.244762 -0.092113 0.140755 0 CFG=2
M  V30 12 C -3.432264 -0.536299 -1.322904 0
M  V30 13 N -4.544362 0.255562 -1.851373 0
M  V30 14 C -4.400544 1.559879 -1.218495 0
M  V30 15 C -4.050957 1.231602 0.232900 0 CFG=1
M  V30 16 C -5.289883 1.088191 1.129790 0
M  V30 17 C -6.013252 -0.238781 0.942739 0
M  V30 18 O -5.173242 -1.388902 1.009071 0
M  V30 19 C -3.783113 -1.117502 1.150414 0
M  V30 20 C 3.526873 -1.310897 -0.976515 0
M  V30 21 C 4.905260 -1.278077 -0.753841 0
M  V30 22 O 5.590226 -2.349307 -1.259426 0
M  V30 23 C 7.000177 -2.354160 -1.071480 0
M  V30 24 C 5.458532 -0.202589 -0.059001 0
M  V30 25 H 5.224249 3.601775 2.081115 0
M  V30 26 H 3.817727 2.559415 2.325318 0
M  V30 27 H 4.050633 3.447710 0.768332 0
M  V30 28 H 2.615715 1.582835 0.543800 0
M  V30 29 H 0.990445 -0.906716 -1.648878 0
M  V30 30 H 0.837688 0.680739 -0.939644 0
M  V30 31 H 0.817130 -1.978778 0.625416 0
M  V30 32 H 0.681065 -0.379227 1.369674 0
M  V30 33 H -1.347924 -1.856010 -0.127350 0
M  V30 34 H -3.654410 -1.604639 -1.413382 0
M  V30 35 H -2.537576 -0.335272 -1.925830 0
M  V30 36 H -4.490040 0.332728 -2.866092 0
M  V30 37 H -5.313657 2.154615 -1.314684 0
M  V30 38 H -3.580923 2.115750 -1.690550 0
M  V30 39 H -3.463693 2.065409 0.633924 0
M  V30 40 H -5.984211 1.921492 0.972604 0
M  V30 41 H -4.959121 1.156371 2.174664 0
M  V30 42 H -6.536674 -0.264151 -0.018516 0
M  V30 43 H -6.782807 -0.350055 1.714301 0
M  V30 44 H -3.591652 -0.794034 2.181997 0
M  V30 45 H -3.271675 -2.080456 1.041971 0
M  V30 46 H 3.102342 -2.153841 -1.517694 0
M  V30 47 H 7.256314 -2.384982 -0.007290 0
M  V30 48 H 7.467958 -1.497260 -1.567492 0
M  V30 49 H 7.395610 -3.263147 -1.534984 0
M  V30 50 H 6.523904 -0.139299 0.135884 0
M  V30 END ATOM
M  V30 BEGIN BOND
M  V30 1 1 1 2
M  V30 2 1 2 3
M  V30 3 1 3 4
M  V30 4 2 4 5
M  V30 5 1 5 6
M  V30 6 1 6 7
M  V30 7 1 7 8
M  V30 8 1 8 9
M  V30 9 2 9 10
M  V30 10 1 11 9 CFG=1
M  V30 11 1 11 12
M  V30 12 1 12 13
M  V30 13 1 13 14
M  V30 14 1 14 15
M  V30 15 1 15 16
M  V30 16 1 16 17
M  V30 17 1 17 18
M  V30 18 1 18 19
M  V30 19 1 5 20
M  V30 20 2 20 21
M  V30 21 1 21 22
M  V30 22 1 22 23
M  V30 23 1 21 24
M  V30 24 2 24 3
M  V30 25 1 15 11
M  V30 26 1 19 11
M  V30 27 1 1 25
M  V30 28 1 1 26
M  V30 29 1 1 27
M  V30 30 1 4 28
M  V30 31 1 6 29
M  V30 32 1 6 30
M  V30 33 1 7 31
M  V30 34 1 7 32
M  V30 35 1 8 33
M  V30 36 1 12 34
M  V30 37 1 12 35
M  V30 38 1 13 36
M  V30 39 1 14 37
M  V30 40 1 14 38
M  V30 41 1 15 39 CFG=1
M  V30 42 1 16 40
M  V30 43 1 16 41
M  V30 44 1 17 42
M  V30 45 1 17 43
M  V30 46 1 19 44
M  V30 47 1 19 45
M  V30 48 1 20 46
M  V30 49 1 23 47
M  V30 50 1 23 48
M  V30 51 1 23 49
M  V30 52 1 24 50
M  V30 END BOND
M  V30 BEGIN COLLECTION
M  V30 MDLV30/STERAC1 ATOMS=(2 11 15)
M  V30 END COLLECTION
M  V30 END CTAB
M  END
>  <_CXSMILES_Data>  (1244) 
|&1:10,14|

$$$$
OCNT-2317536
     RDKit          3D

 48 51  0  0  0  0  0  0  0  0999 V2000
   -2.8523    1.5967    2.0063 C   0  0  0  0  0  0  0  0  0  0  0  0
   -2.2892    1.7269    0.5866 C   0  0  0  0  0  0  0  0  0  0  0  0
   -0.9724    2.5081    0.6201 C   0  0  0  0  0  0  0  0  0  0  0  0
   -2.2044    0.3668   -0.1914 C   0  0  0  0  0  0  0  0  0  0  0  0
   -3.6294   -0.0033   -0.6478 C   0  0  0  0  0  0  0  0  0  0  0  0
   -3.6317   -1.3348   -1.3669 C   0  0  0  0  0  0  0  0  0  0  0  0
   -3.0714   -2.3859   -0.4557 C   0  0  0  0  0  0  0  0  0  0  0  0
   -3.5236   -3.7098   -0.5852 C   0  0  0  0  0  0  0  0  0  0  0  0
   -2.9910   -4.7213    0.2089 C   0  0  0  0  0  0  0  0  0  0  0  0
   -1.9954   -4.4198    1.1295 C   0  0  0  0  0  0  0  0  0  0  0  0
   -1.5297   -3.1080    1.2532 C   0  0  0  0  0  0  0  0  0  0  0  0
   -2.0570   -2.0712    0.4659 C   0  0  0  0  0  0  0  0  0  0  0  0
   -1.5477   -0.7294    0.5604 N   0  0  0  0  0  0  0  0  0  0  0  0
   -0.2568   -0.5499    1.0829 C   0  0  0  0  0  0  0  0  0  0  0  0
   -0.0176   -0.6405    2.2865 O   0  0  0  0  0  0  0  0  0  0  0  0
    0.8113   -0.2851    0.0979 C   0  0  0  0  0  0  0  0  0  0  0  0
    0.8169   -0.7177   -1.2185 C   0  0  0  0  0  0  0  0  0  0  0  0
    2.2460   -0.2101   -2.0130 S   0  0  0  0  0  0  0  0  0  0  0  0
    2.7835    0.5223   -0.5593 C   0  0  0  0  0  0  0  0  0  0  0  0
    4.1400    1.2703   -0.4241 C   0  0  0  0  0  0  0  0  0  0  0  0
    5.0970    1.4680   -1.3925 C   0  0  0  0  0  0  0  0  0  0  0  0
    6.0949    2.1744   -0.7837 N   0  0  0  0  0  0  0  0  0  0  0  0
    7.3287    2.6257   -1.3806 C   0  0  0  0  0  0  0  0  0  0  0  0
    5.8477    2.4507    0.5108 N   0  0  0  0  0  0  0  0  0  0  0  0
    4.6512    1.8935    0.7278 C   0  0  0  0  0  0  0  0  0  0  0  0
    1.9624    0.4164    0.4613 N   0  0  0  0  0  0  0  0  0  0  0  0
   -2.9754    2.5872    2.4589 H   0  0  0  0  0  0  0  0  0  0  0  0
   -3.8343    1.1151    2.0116 H   0  0  0  0  0  0  0  0  0  0  0  0
   -2.1880    1.0205    2.6571 H   0  0  0  0  0  0  0  0  0  0  0  0
   -2.9842    2.3682    0.0261 H   0  0  0  0  0  0  0  0  0  0  0  0
   -0.4996    2.5320   -0.3668 H   0  0  0  0  0  0  0  0  0  0  0  0
   -0.2635    2.0990    1.3441 H   0  0  0  0  0  0  0  0  0  0  0  0
   -1.1605    3.5463    0.9168 H   0  0  0  0  0  0  0  0  0  0  0  0
   -1.6114    0.5393   -1.0980 H   0  0  0  0  0  0  0  0  0  0  0  0
   -4.0239    0.7710   -1.3170 H   0  0  0  0  0  0  0  0  0  0  0  0
   -4.3104   -0.0617    0.2101 H   0  0  0  0  0  0  0  0  0  0  0  0
   -4.6599   -1.5819   -1.6565 H   0  0  0  0  0  0  0  0  0  0  0  0
   -3.0276   -1.2875   -2.2808 H   0  0  0  0  0  0  0  0  0  0  0  0
   -4.2976   -3.9583   -1.3085 H   0  0  0  0  0  0  0  0  0  0  0  0
   -3.3523   -5.7412    0.1104 H   0  0  0  0  0  0  0  0  0  0  0  0
   -1.5777   -5.2021    1.7583 H   0  0  0  0  0  0  0  0  0  0  0  0
   -0.7600   -2.9213    1.9986 H   0  0  0  0  0  0  0  0  0  0  0  0
    0.0716   -1.3020   -1.7384 H   0  0  0  0  0  0  0  0  0  0  0  0
    5.1558    1.1752   -2.4308 H   0  0  0  0  0  0  0  0  0  0  0  0
    7.3459    2.3441   -2.4360 H   0  0  0  0  0  0  0  0  0  0  0  0
    8.1598    2.1499   -0.8534 H   0  0  0  0  0  0  0  0  0  0  0  0
    7.3819    3.7131   -1.2835 H   0  0  0  0  0  0  0  0  0  0  0  0
    4.2012    1.9623    1.7105 H   0  0  0  0  0  0  0  0  0  0  0  0
  1  2  1  0
  2  3  1  0
  2  4  1  0
  4  5  1  0
  5  6  1  0
  6  7  1  0
  7  8  2  0
  8  9  1  0
  9 10  2  0
 10 11  1  0
 11 12  2  0
 12 13  1  0
 13 14  1  0
 14 15  2  0
 14 16  1  0
 16 17  2  0
 17 18  1  0
 18 19  1  0
 19 20  1  0
 20 21  2  0
 21 22  1  0
 22 23  1  0
 22 24  1  0
 24 25  2  0
 19 26  2  0
 13  4  1  0
 26 16  1  0
 12  7  1  0
 25 20  1  0
  1 27  1  0
  1 28  1  0
  1 29  1  0
  2 30  1  0
  3 31  1  0
  3 32  1  0
  3 33  1  0
  4 34  1  0
  5 35  1  0
  5 36  1  0
  6 37  1  0
  6 38  1  0
  8 39  1  0
  9 40  1  0
 10 41  1  0
 11 42  1  0
 17 43  1  0
 21 44  1  0
 23 45  1  0
 23 46  1  0
 23 47  1  0
 25 48  1  0
M  END
$$$$
OCNT-2317551
     RDKit          3D

 51 54  0  0  0  0  0  0  0  0999 V2000
    0.3446   -1.9850    1.9121 C   0  0  0  0  0  0  0  0  0  0  0  0
    0.6820   -0.9026    0.8810 C   0  0  0  0  0  0  0  0  0  0  0  0
   -0.4994    0.0912    0.6872 C   0  0  0  0  0  0  0  0  0  0  0  0
   -1.6198   -0.5696   -0.0354 N   0  0  0  0  0  0  0  0  0  0  0  0
   -2.7622    0.2655   -0.1219 C   0  0  0  0  0  0  0  0  0  0  0  0
   -2.7629    1.4303   -0.9092 C   0  0  0  0  0  0  0  0  0  0  0  0
   -3.8879    2.2502   -0.9802 C   0  0  0  0  0  0  0  0  0  0  0  0
   -5.0335    1.9209   -0.2618 C   0  0  0  0  0  0  0  0  0  0  0  0
   -5.0641    0.7661    0.5364 C   0  0  0  0  0  0  0  0  0  0  0  0
   -6.1954    0.4040    1.2734 C   0  0  0  0  0  0  0  0  0  0  0  0
   -6.2880   -0.6934    2.0590 N   0  0  0  0  0  0  0  0  0  0  0  0
   -5.1948   -1.4784    2.1150 C   0  0  0  0  0  0  0  0  0  0  0  0
   -4.0206   -1.2167    1.4278 C   0  0  0  0  0  0  0  0  0  0  0  0
   -3.9311   -0.0724    0.6146 C   0  0  0  0  0  0  0  0  0  0  0  0
   -1.2055   -1.1283   -1.3491 C   0  0  0  0  0  0  0  0  0  0  0  0
   -0.0521   -2.1296   -1.1409 C   0  0  0  0  0  0  0  0  0  0  0  0
    1.0673   -1.4930   -0.4268 N   0  0  0  0  0  0  0  0  0  0  0  0
    2.1083   -0.9898   -1.2131 C   0  0  0  0  0  0  0  0  0  0  0  0
    2.1315   -1.1594   -2.4362 O   0  0  0  0  0  0  0  0  0  0  0  0
    3.2390   -0.2002   -0.5061 C   0  0  1  0  0  0  0  0  0  0  0  0
    4.5275   -0.2278   -1.3445 C   0  0  0  0  0  0  0  0  0  0  0  0
    5.6263    0.6078   -0.6944 C   0  0  0  0  0  0  0  0  0  0  0  0
    5.1248    2.0186   -0.4058 C   0  0  0  0  0  0  0  0  0  0  0  0
    3.8119    1.9895    0.3732 C   0  0  0  0  0  0  0  0  0  0  0  0
    2.7842    1.1998   -0.3091 N   0  0  0  0  0  0  0  0  0  0  0  0
    0.1625   -1.5339    2.8934 H   0  0  0  0  0  0  0  0  0  0  0  0
    1.1765   -2.6903    2.0132 H   0  0  0  0  0  0  0  0  0  0  0  0
   -0.5474   -2.5591    1.6443 H   0  0  0  0  0  0  0  0  0  0  0  0
    1.5152   -0.3392    1.3034 H   0  0  0  0  0  0  0  0  0  0  0  0
   -0.8390    0.4496    1.6672 H   0  0  0  0  0  0  0  0  0  0  0  0
   -0.1444    0.9582    0.1156 H   0  0  0  0  0  0  0  0  0  0  0  0
   -1.8778    1.7124   -1.4730 H   0  0  0  0  0  0  0  0  0  0  0  0
   -3.8685    3.1463   -1.5950 H   0  0  0  0  0  0  0  0  0  0  0  0
   -5.9038    2.5703   -0.3264 H   0  0  0  0  0  0  0  0  0  0  0  0
   -7.0964    1.0119    1.2514 H   0  0  0  0  0  0  0  0  0  0  0  0
   -5.2855   -2.3566    2.7474 H   0  0  0  0  0  0  0  0  0  0  0  0
   -3.1814   -1.8981    1.5208 H   0  0  0  0  0  0  0  0  0  0  0  0
   -0.8724   -0.3313   -2.0256 H   0  0  0  0  0  0  0  0  0  0  0  0
   -2.0485   -1.6497   -1.8181 H   0  0  0  0  0  0  0  0  0  0  0  0
   -0.3915   -2.9831   -0.5445 H   0  0  0  0  0  0  0  0  0  0  0  0
    0.2731   -2.5296   -2.1068 H   0  0  0  0  0  0  0  0  0  0  0  0
    3.4425   -0.6809    0.4588 H   0  0  0  0  0  0  0  0  0  0  0  0
    4.8731   -1.2617   -1.4642 H   0  0  0  0  0  0  0  0  0  0  0  0
    4.3379    0.1555   -2.3560 H   0  0  0  0  0  0  0  0  0  0  0  0
    6.5048    0.6477   -1.3477 H   0  0  0  0  0  0  0  0  0  0  0  0
    5.9421    0.1321    0.2422 H   0  0  0  0  0  0  0  0  0  0  0  0
    4.9793    2.5548   -1.3521 H   0  0  0  0  0  0  0  0  0  0  0  0
    5.8814    2.5717    0.1619 H   0  0  0  0  0  0  0  0  0  0  0  0
    3.9758    1.5902    1.3814 H   0  0  0  0  0  0  0  0  0  0  0  0
    3.4423    3.0131    0.4993 H   0  0  0  0  0  0  0  0  0  0  0  0
    2.6200    1.6022   -1.2357 H   0  0  0  0  0  0  0  0  0  0  0  0
  1  2  1  0
  2  3  1  0
  3  4  1  0
  4  5  1  0
  5  6  2  0
  6  7  1  0
  7  8  2  0
  8  9  1  0
  9 10  2  0
 10 11  1  0
 11 12  2  0
 12 13  1  0
 13 14  2  0
  4 15  1  0
 15 16  1  0
 16 17  1  0
 17 18  1  0
 18 19  2  0
 18 20  1  0
 20 21  1  0
 21 22  1  0
 22 23  1  0
 23 24  1  0
 24 25  1  0
 17  2  1  0
 25 20  1  0
 14  5  1  0
 14  9  1  0
  1 26  1  0
  1 27  1  0
  1 28  1  0
  2 29  1  0
  3 30  1  0
  3 31  1  0
  6 32  1  0
  7 33  1  0
  8 34  1  0
 10 35  1  0
 12 36  1  0
 13 37  1  0
 15 38  1  0
 15 39  1  0
 16 40  1  0
 16 41  1  0
 20 42  1  1
 21 43  1  0
 21 44  1  0
 22 45  1  0
 22 46  1  0
 23 47  1  0
 23 48  1  0
 24 49  1  0
 24 50  1  0
 25 51  1  0
M  END
$$$$
OCNT-2317552
     RDKit          3D

 54 56  0  0  0  0  0  0  0  0999 V2000
    2.0298    0.7364   -2.5341 O   0  0  0  0  0  0  0  0  0  0  0  0
    1.9647    0.5011   -1.3320 C   0  0  0  0  0  0  0  0  0  0  0  0
    0.7764    0.3263   -0.6684 N   0  0  0  0  0  0  0  0  0  0  0  0
   -0.4791    0.4901   -1.3804 C   0  0  0  0  0  0  0  0  0  0  0  0
   -1.6677   -0.2092   -0.6921 C   0  0  0  0  0  0  0  0  0  0  0  0
   -1.9352    0.3094    0.7402 C   0  0  0  0  0  0  0  0  0  0  0  0
   -2.2062    1.7935    0.8208 C   0  0  0  0  0  0  0  0  0  0  0  0
   -3.3616    2.3359    0.2410 C   0  0  0  0  0  0  0  0  0  0  0  0
   -3.6103    3.7075    0.3059 C   0  0  0  0  0  0  0  0  0  0  0  0
   -2.7102    4.5499    0.9548 C   0  0  0  0  0  0  0  0  0  0  0  0
   -1.5637    4.0208    1.5438 C   0  0  0  0  0  0  0  0  0  0  0  0
   -1.3134    2.6489    1.4807 C   0  0  0  0  0  0  0  0  0  0  0  0
   -1.4442   -1.7398   -0.6976 C   0  0  0  0  0  0  0  0  0  0  0  0
   -2.6769   -2.5355   -0.3360 C   0  0  0  0  0  0  0  0  0  0  0  0
   -3.7552   -2.6194   -1.2277 C   0  0  0  0  0  0  0  0  0  0  0  0
   -4.8976   -3.3470   -0.8912 C   0  0  0  0  0  0  0  0  0  0  0  0
   -4.9729   -3.9989    0.3379 C   0  0  0  0  0  0  0  0  0  0  0  0
   -3.9053   -3.9258    1.2304 C   0  0  0  0  0  0  0  0  0  0  0  0
   -2.7616   -3.1989    0.8955 C   0  0  0  0  0  0  0  0  0  0  0  0
    3.0888    0.3852   -0.5336 N   0  0  0  0  0  0  0  0  0  0  0  0
    3.1017   -0.1430    0.8336 C   0  0  0  0  0  0  0  0  0  0  0  0
    4.3670   -0.9451    1.1106 C   0  0  0  0  0  0  0  0  0  0  0  0
    5.6403   -0.1176    0.9150 C   0  0  0  0  0  0  0  0  0  0  0  0
    6.7090   -1.0163    0.5815 O   0  0  0  0  0  0  0  0  0  0  0  0
    5.4719    1.0041   -0.1211 C   0  0  0  0  0  0  0  0  0  0  0  0
    5.1526    2.1563    0.5359 F   0  0  0  0  0  0  0  0  0  0  0  0
    6.6657    1.2411   -0.7269 F   0  0  0  0  0  0  0  0  0  0  0  0
    4.3892    0.6973   -1.1461 C   0  0  0  0  0  0  0  0  0  0  0  0
    0.7928    0.7287    0.2554 H   0  0  0  0  0  0  0  0  0  0  0  0
   -0.3648    0.0958   -2.3977 H   0  0  0  0  0  0  0  0  0  0  0  0
   -0.6570    1.5664   -1.4839 H   0  0  0  0  0  0  0  0  0  0  0  0
   -2.5509    0.0107   -1.3072 H   0  0  0  0  0  0  0  0  0  0  0  0
   -2.8093   -0.1977    1.1679 H   0  0  0  0  0  0  0  0  0  0  0  0
   -1.0964    0.0469    1.3975 H   0  0  0  0  0  0  0  0  0  0  0  0
   -4.0786    1.6911   -0.2628 H   0  0  0  0  0  0  0  0  0  0  0  0
   -4.5081    4.1183   -0.1486 H   0  0  0  0  0  0  0  0  0  0  0  0
   -2.9045    5.6180    1.0048 H   0  0  0  0  0  0  0  0  0  0  0  0
   -0.8649    4.6782    2.0547 H   0  0  0  0  0  0  0  0  0  0  0  0
   -0.4174    2.2570    1.9544 H   0  0  0  0  0  0  0  0  0  0  0  0
   -0.6217   -2.0034   -0.0200 H   0  0  0  0  0  0  0  0  0  0  0  0
   -1.1222   -2.0674   -1.6953 H   0  0  0  0  0  0  0  0  0  0  0  0
   -3.7096   -2.1207   -2.1933 H   0  0  0  0  0  0  0  0  0  0  0  0
   -5.7280   -3.4071   -1.5897 H   0  0  0  0  0  0  0  0  0  0  0  0
   -5.8623   -4.5662    0.5990 H   0  0  0  0  0  0  0  0  0  0  0  0
   -3.9627   -4.4367    2.1880 H   0  0  0  0  0  0  0  0  0  0  0  0
   -1.9380   -3.1534    1.6040 H   0  0  0  0  0  0  0  0  0  0  0  0
    3.0304    0.7132    1.5142 H   0  0  0  0  0  0  0  0  0  0  0  0
    2.2273   -0.7794    1.0030 H   0  0  0  0  0  0  0  0  0  0  0  0
    4.3452   -1.3445    2.1316 H   0  0  0  0  0  0  0  0  0  0  0  0
    4.3907   -1.8214    0.4488 H   0  0  0  0  0  0  0  0  0  0  0  0
    5.9120    0.3415    1.8730 H   0  0  0  0  0  0  0  0  0  0  0  0
    7.4520   -0.4673    0.2617 H   0  0  0  0  0  0  0  0  0  0  0  0
    4.6801   -0.1608   -1.7640 H   0  0  0  0  0  0  0  0  0  0  0  0
    4.2701    1.5528   -1.8210 H   0  0  0  0  0  0  0  0  0  0  0  0
  1  2  2  0
  2  3  1  0
  3  4  1  0
  4  5  1  0
  5  6  1  0
  6  7  1  0
  7  8  2  0
  8  9  1  0
  9 10  2  0
 10 11  1  0
 11 12  2  0
  5 13  1  0
 13 14  1  0
 14 15  2  0
 15 16  1  0
 16 17  2  0
 17 18  1  0
 18 19  2  0
  2 20  1  0
 20 21  1  0
 21 22  1  0
 22 23  1  0
 23 24  1  0
 23 25  1  0
 25 26  1  0
 25 27  1  0
 25 28  1  0
 12  7  1  0
 19 14  1  0
 28 20  1  0
  3 29  1  0
  4 30  1  0
  4 31  1  0
  5 32  1  0
  6 33  1  0
  6 34  1  0
  8 35  1  0
  9 36  1  0
 10 37  1  0
 11 38  1  0
 12 39  1  0
 13 40  1  0
 13 41  1  0
 15 42  1  0
 16 43  1  0
 17 44  1  0
 18 45  1  0
 19 46  1  0
 21 47  1  0
 21 48  1  0
 22 49  1  0
 22 50  1  0
 23 51  1  0
 24 52  1  0
 28 53  1  0
 28 54  1  0
M  END
$$$$
OCNT-2317570
     RDKit          3D

 49 51  0  0  0  0  0  0  0  0999 V2000
   -4.6786    2.4942   -1.3223 C   0  0  0  0  0  0  0  0  0  0  0  0
   -3.8765    1.5493   -0.6271 O   0  0  0  0  0  0  0  0  0  0  0  0
   -4.3496    0.2661   -0.5263 C   0  0  0  0  0  0  0  0  0  0  0  0
   -5.4748   -0.2110   -1.2094 C   0  0  0  0  0  0  0  0  0  0  0  0
   -5.8715   -1.5428   -1.0803 C   0  0  0  0  0  0  0  0  0  0  0  0
   -5.1424   -2.4104   -0.2762 C   0  0  0  0  0  0  0  0  0  0  0  0
   -4.0185   -1.9471    0.4073 C   0  0  0  0  0  0  0  0  0  0  0  0
   -3.6118   -0.6034    0.3079 C   0  0  0  0  0  0  0  0  0  0  0  0
   -2.3674   -0.0998    1.0462 C   0  0  0  0  0  0  0  0  0  0  0  0
   -2.2119   -0.7179    2.4457 C   0  0  0  0  0  0  0  0  0  0  0  0
   -1.1270   -0.3548    0.1711 C   0  0  0  0  0  0  0  0  0  0  0  0
    0.1126    0.3965    0.6341 C   0  0  0  0  0  0  0  0  0  0  0  0
    0.0589    1.2772    1.4927 O   0  0  0  0  0  0  0  0  0  0  0  0
    1.3171    0.0496    0.0274 N   0  0  0  0  0  0  0  0  0  0  0  0
    1.4500   -0.8779   -1.0981 C   0  0  0  0  0  0  0  0  0  0  0  0
    2.5710   -0.4502   -2.0387 C   0  0  0  0  0  0  0  0  0  0  0  0
    3.9263   -0.3540   -1.3349 C   0  0  0  0  0  0  0  0  0  0  0  0
    3.8057   -0.1073    0.1779 C   0  0  0  0  0  0  0  0  0  0  0  0
    5.0519    0.5202    0.7267 C   0  0  0  0  0  0  0  0  0  0  0  0
    5.9971   -0.1046    1.3999 N   0  0  0  0  0  0  0  0  0  0  0  0
    6.9402    0.8441    1.6940 C   0  0  0  0  0  0  0  0  0  0  0  0
    6.5726    2.0657    1.1872 C   0  0  0  0  0  0  0  0  0  0  0  0
    5.3722    1.8490    0.5707 N   0  0  0  0  0  0  0  0  0  0  0  0
    2.5406    0.6865    0.5234 C   0  0  0  0  0  0  0  0  0  0  0  0
   -4.1965    3.4723   -1.2313 H   0  0  0  0  0  0  0  0  0  0  0  0
   -5.6765    2.5730   -0.8781 H   0  0  0  0  0  0  0  0  0  0  0  0
   -4.7363    2.2509   -2.3881 H   0  0  0  0  0  0  0  0  0  0  0  0
   -6.0622    0.4281   -1.8598 H   0  0  0  0  0  0  0  0  0  0  0  0
   -6.7466   -1.9030   -1.6147 H   0  0  0  0  0  0  0  0  0  0  0  0
   -5.4456   -3.4499   -0.1812 H   0  0  0  0  0  0  0  0  0  0  0  0
   -3.4635   -2.6545    1.0177 H   0  0  0  0  0  0  0  0  0  0  0  0
   -2.4801    0.9786    1.2160 H   0  0  0  0  0  0  0  0  0  0  0  0
   -3.1417   -0.6287    3.0186 H   0  0  0  0  0  0  0  0  0  0  0  0
   -1.4278   -0.2093    3.0156 H   0  0  0  0  0  0  0  0  0  0  0  0
   -1.9400   -1.7777    2.4016 H   0  0  0  0  0  0  0  0  0  0  0  0
   -1.3316   -0.0226   -0.8546 H   0  0  0  0  0  0  0  0  0  0  0  0
   -0.9089   -1.4293    0.1459 H   0  0  0  0  0  0  0  0  0  0  0  0
    0.5154   -0.9390   -1.6609 H   0  0  0  0  0  0  0  0  0  0  0  0
    1.6524   -1.8711   -0.6810 H   0  0  0  0  0  0  0  0  0  0  0  0
    2.6423   -1.1425   -2.8850 H   0  0  0  0  0  0  0  0  0  0  0  0
    2.3232    0.5337   -2.4582 H   0  0  0  0  0  0  0  0  0  0  0  0
    4.5161    0.4305   -1.8265 H   0  0  0  0  0  0  0  0  0  0  0  0
    4.4856   -1.2856   -1.4933 H   0  0  0  0  0  0  0  0  0  0  0  0
    3.7062   -1.0918    0.6588 H   0  0  0  0  0  0  0  0  0  0  0  0
    7.8326    0.5957    2.2538 H   0  0  0  0  0  0  0  0  0  0  0  0
    7.0442    3.0374    1.2114 H   0  0  0  0  0  0  0  0  0  0  0  0
    4.8181    2.5422    0.0868 H   0  0  0  0  0  0  0  0  0  0  0  0
    2.5716    1.6896    0.0787 H   0  0  0  0  0  0  0  0  0  0  0  0
    2.4632    0.8224    1.6094 H   0  0  0  0  0  0  0  0  0  0  0  0
  1  2  1  0
  2  3  1  0
  3  4  2  0
  4  5  1  0
  5  6  2  0
  6  7  1  0
  7  8  2  0
  8  9  1  0
  9 10  1  0
  9 11  1  0
 11 12  1  0
 12 13  2  0
 12 14  1  0
 14 15  1  0
 15 16  1  0
 16 17  1  0
 17 18  1  0
 18 19  1  0
 19 20  2  0
 20 21  1  0
 21 22  2  0
 22 23  1  0
 18 24  1  0
  8  3  1  0
 24 14  1  0
 23 19  1  0
  1 25  1  0
  1 26  1  0
  1 27  1  0
  4 28  1  0
  5 29  1  0
  6 30  1  0
  7 31  1  0
  9 32  1  0
 10 33  1  0
 10 34  1  0
 10 35  1  0
 11 36  1  0
 11 37  1  0
 15 38  1  0
 15 39  1  0
 16 40  1  0
 16 41  1  0
 17 42  1  0
 17 43  1  0
 18 44  1  0
 21 45  1  0
 22 46  1  0
 23 47  1  0
 24 48  1  0
 24 49  1  0
M  END
$$$$
OCNT-2317579
     RDKit          3D

 45 47  0  0  0  0  0  0  0  0999 V2000
    1.3509   -2.1062    1.4348 C   0  0  0  0  0  0  0  0  0  0  0  0
    1.6233   -1.4860    0.0689 C   0  0  0  0  0  0  0  0  0  0  0  0
    1.1279   -0.0397   -0.1145 C   0  0  0  0  0  0  0  0  0  0  0  0
    1.7568    1.0143    0.8251 C   0  0  0  0  0  0  0  0  0  0  0  0
    3.2562    1.3230    0.6890 C   0  0  0  0  0  0  0  0  0  0  0  0
    4.2065    0.4041    1.4665 C   0  0  0  0  0  0  0  0  0  0  0  0
    5.5201    0.3961    0.6795 C   0  0  0  0  0  0  0  0  0  0  0  0
    5.3310    1.3823   -0.4665 C   0  0  0  0  0  0  0  0  0  0  0  0
    3.8322    1.3538   -0.7246 C   0  0  0  0  0  0  0  0  0  0  0  0
   -0.3692    0.0143   -0.0551 C   0  0  0  0  0  0  0  0  0  0  0  0
   -1.2372   -0.0356   -1.0389 N   0  0  0  0  0  0  0  0  0  0  0  0
   -2.4510    0.0339   -0.3777 C   0  0  0  0  0  0  0  0  0  0  0  0
   -3.7158    0.0309   -1.1116 C   0  0  0  0  0  0  0  0  0  0  0  0
   -3.6911    0.4201   -2.4609 C   0  0  0  0  0  0  0  0  0  0  0  0
   -4.8719    0.4410   -3.1791 C   0  0  0  0  0  0  0  0  0  0  0  0
   -6.0633    0.1014   -2.6551 N   0  0  0  0  0  0  0  0  0  0  0  0
   -6.0687   -0.2824   -1.3552 C   0  0  0  0  0  0  0  0  0  0  0  0
   -4.9427   -0.3402   -0.5364 C   0  0  0  0  0  0  0  0  0  0  0  0
   -4.9522   -0.7619    0.7639 O   0  0  0  0  0  0  0  0  0  0  0  0
   -6.2124   -1.0103    1.3728 C   0  0  0  0  0  0  0  0  0  0  0  0
   -2.3263    0.1548    0.9541 N   0  0  0  0  0  0  0  0  0  0  0  0
   -0.9536    0.1295    1.1702 O   0  0  0  0  0  0  0  0  0  0  0  0
    0.2782   -2.2222    1.6150 H   0  0  0  0  0  0  0  0  0  0  0  0
    1.7995   -3.1039    1.4840 H   0  0  0  0  0  0  0  0  0  0  0  0
    1.7738   -1.5116    2.2484 H   0  0  0  0  0  0  0  0  0  0  0  0
    1.1510   -2.1246   -0.6897 H   0  0  0  0  0  0  0  0  0  0  0  0
    2.6981   -1.5339   -0.1351 H   0  0  0  0  0  0  0  0  0  0  0  0
    1.3781    0.2504   -1.1437 H   0  0  0  0  0  0  0  0  0  0  0  0
    1.5365    0.7756    1.8735 H   0  0  0  0  0  0  0  0  0  0  0  0
    1.2324    1.9631    0.6355 H   0  0  0  0  0  0  0  0  0  0  0  0
    3.3957    2.3284    1.1160 H   0  0  0  0  0  0  0  0  0  0  0  0
    4.3619    0.7859    2.4820 H   0  0  0  0  0  0  0  0  0  0  0  0
    3.8324   -0.6162    1.5674 H   0  0  0  0  0  0  0  0  0  0  0  0
    5.7028   -0.6094    0.2823 H   0  0  0  0  0  0  0  0  0  0  0  0
    6.3766    0.6630    1.3063 H   0  0  0  0  0  0  0  0  0  0  0  0
    5.9128    1.1072   -1.3509 H   0  0  0  0  0  0  0  0  0  0  0  0
    5.6421    2.3862   -0.1535 H   0  0  0  0  0  0  0  0  0  0  0  0
    3.5831    0.4524   -1.2934 H   0  0  0  0  0  0  0  0  0  0  0  0
    3.4957    2.2267   -1.2918 H   0  0  0  0  0  0  0  0  0  0  0  0
   -2.7635    0.7094   -2.9462 H   0  0  0  0  0  0  0  0  0  0  0  0
   -4.8887    0.7406   -4.2231 H   0  0  0  0  0  0  0  0  0  0  0  0
   -7.0564   -0.5577   -1.0008 H   0  0  0  0  0  0  0  0  0  0  0  0
   -6.7126   -1.8640    0.9042 H   0  0  0  0  0  0  0  0  0  0  0  0
   -6.8469   -0.1181    1.3502 H   0  0  0  0  0  0  0  0  0  0  0  0
   -6.0326   -1.2648    2.4217 H   0  0  0  0  0  0  0  0  0  0  0  0
  1  2  1  0
  2  3  1  0
  3  4  1  0
  4  5  1  0
  5  6  1  0
  6  7  1  0
  7  8  1  0
  8  9  1  0
  3 10  1  0
 10 11  2  0
 11 12  1  0
 12 13  1  0
 13 14  2  0
 14 15  1  0
 15 16  2  0
 16 17  1  0
 17 18  2  0
 18 19  1  0
 19 20  1  0
 12 21  2  0
 21 22  1  0
  9  5  1  0
 22 10  1  0
 18 13  1  0
  1 23  1  0
  1 24  1  0
  1 25  1  0
  2 26  1  0
  2 27  1  0
  3 28  1  0
  4 29  1  0
  4 30  1  0
  5 31  1  0
  6 32  1  0
  6 33  1  0
  7 34  1  0
  7 35  1  0
  8 36  1  0
  8 37  1  0
  9 38  1  0
  9 39  1  0
 14 40  1  0
 15 41  1  0
 17 42  1  0
 20 43  1  0
 20 44  1  0
 20 45  1  0
M  END
$$$$
OCNT-2317589
     RDKit          3D

 50 53  0  0  0  0  0  0  0  0999 V2000
    0.0912   -1.3540    0.1825 O   0  0  0  0  0  0  0  0  0  0  0  0
    0.1433   -0.8744   -0.9449 C   0  0  0  0  0  0  0  0  0  0  0  0
   -0.9725   -0.4980   -1.6476 N   0  0  0  0  0  0  0  0  0  0  0  0
   -2.3076   -0.7134   -1.1102 C   0  0  0  0  0  0  0  0  0  0  0  0
   -2.8888    0.5393   -0.4193 C   0  0  0  0  0  0  0  0  0  0  0  0
   -2.1339    0.9620    0.8447 C   0  0  0  0  0  0  0  0  0  0  0  0
   -2.4531    0.0037    1.9801 C   0  0  0  0  0  0  0  0  0  0  0  0
   -3.8417    0.0160    2.3234 O   0  0  0  0  0  0  0  0  0  0  0  0
   -4.7137    0.0450    1.2689 C   0  0  0  0  0  0  0  0  0  0  0  0
   -6.0554   -0.1620    1.5927 C   0  0  0  0  0  0  0  0  0  0  0  0
   -7.0334   -0.1248    0.5997 C   0  0  0  0  0  0  0  0  0  0  0  0
   -6.6714    0.1284   -0.7209 C   0  0  0  0  0  0  0  0  0  0  0  0
   -5.3319    0.3443   -1.0478 C   0  0  0  0  0  0  0  0  0  0  0  0
   -4.3389    0.3043   -0.0553 C   0  0  0  0  0  0  0  0  0  0  0  0
    1.3350   -0.6492   -1.6191 N   0  0  0  0  0  0  0  0  0  0  0  0
    1.5272    0.5266   -2.4761 C   0  0  0  0  0  0  0  0  0  0  0  0
    2.0460    1.6975   -1.6266 C   0  0  0  0  0  0  0  0  0  0  0  0
    3.2612    1.3501   -0.9409 O   0  0  0  0  0  0  0  0  0  0  0  0
    3.0773    0.1945   -0.0898 C   0  0  0  0  0  0  0  0  0  0  0  0
    4.3782   -0.0813    0.6248 C   0  0  0  0  0  0  0  0  0  0  0  0
    4.4529    0.0267    2.0234 C   0  0  0  0  0  0  0  0  0  0  0  0
    5.6517   -0.2282    2.6960 C   0  0  0  0  0  0  0  0  0  0  0  0
    6.7928   -0.5916    1.9819 C   0  0  0  0  0  0  0  0  0  0  0  0
    6.7350   -0.6975    0.5944 C   0  0  0  0  0  0  0  0  0  0  0  0
    5.5378   -0.4412   -0.0706 C   0  0  0  0  0  0  0  0  0  0  0  0
    5.5173   -0.5563   -1.4063 F   0  0  0  0  0  0  0  0  0  0  0  0
    2.5710   -1.0124   -0.9157 C   0  0  0  0  0  0  0  0  0  0  0  0
   -0.8740   -0.6373   -2.6432 H   0  0  0  0  0  0  0  0  0  0  0  0
   -2.9303   -0.9823   -1.9722 H   0  0  0  0  0  0  0  0  0  0  0  0
   -2.3063   -1.5854   -0.4469 H   0  0  0  0  0  0  0  0  0  0  0  0
   -2.8361    1.3809   -1.1239 H   0  0  0  0  0  0  0  0  0  0  0  0
   -2.4669    1.9688    1.1329 H   0  0  0  0  0  0  0  0  0  0  0  0
   -1.0557    1.0264    0.6746 H   0  0  0  0  0  0  0  0  0  0  0  0
   -1.9013    0.3089    2.8757 H   0  0  0  0  0  0  0  0  0  0  0  0
   -2.1538   -1.0263    1.7591 H   0  0  0  0  0  0  0  0  0  0  0  0
   -6.3372   -0.3516    2.6250 H   0  0  0  0  0  0  0  0  0  0  0  0
   -8.0755   -0.2891    0.8590 H   0  0  0  0  0  0  0  0  0  0  0  0
   -7.4332    0.1617   -1.4953 H   0  0  0  0  0  0  0  0  0  0  0  0
   -5.0680    0.5500   -2.0826 H   0  0  0  0  0  0  0  0  0  0  0  0
    0.6067    0.8168   -2.9882 H   0  0  0  0  0  0  0  0  0  0  0  0
    2.2704    0.2528   -3.2338 H   0  0  0  0  0  0  0  0  0  0  0  0
    1.3005    2.0111   -0.8863 H   0  0  0  0  0  0  0  0  0  0  0  0
    2.2633    2.5561   -2.2691 H   0  0  0  0  0  0  0  0  0  0  0  0
    2.3136    0.4638    0.6524 H   0  0  0  0  0  0  0  0  0  0  0  0
    3.5759    0.3131    2.6015 H   0  0  0  0  0  0  0  0  0  0  0  0
    5.6940   -0.1407    3.7791 H   0  0  0  0  0  0  0  0  0  0  0  0
    7.7246   -0.7888    2.5056 H   0  0  0  0  0  0  0  0  0  0  0  0
    7.6143   -0.9770    0.0229 H   0  0  0  0  0  0  0  0  0  0  0  0
    2.4101   -1.8875   -0.2756 H   0  0  0  0  0  0  0  0  0  0  0  0
    3.2893   -1.2983   -1.6919 H   0  0  0  0  0  0  0  0  0  0  0  0
  1  2  2  0
  2  3  1  0
  3  4  1  0
  4  5  1  0
  5  6  1  0
  6  7  1  0
  7  8  1  0
  8  9  1  0
  9 10  2  0
 10 11  1  0
 11 12  2  0
 12 13  1  0
 13 14  2  0
  2 15  1  0
 15 16  1  0
 16 17  1  0
 17 18  1  0
 18 19  1  0
 19 20  1  0
 20 21  2  0
 21 22  1  0
 22 23  2  0
 23 24  1  0
 24 25  2  0
 25 26  1  0
 19 27  1  0
 14  5  1  0
 27 15  1  0
 14  9  1  0
 25 20  1  0
  3 28  1  0
  4 29  1  0
  4 30  1  0
  5 31  1  0
  6 32  1  0
  6 33  1  0
  7 34  1  0
  7 35  1  0
 10 36  1  0
 11 37  1  0
 12 38  1  0
 13 39  1  0
 16 40  1  0
 16 41  1  0
 17 42  1  0
 17 43  1  0
 19 44  1  0
 21 45  1  0
 22 46  1  0
 23 47  1  0
 24 48  1  0
 27 49  1  0
 27 50  1  0
M  END
$$$$
OCNT-2317592
     RDKit          3D

 38 39  0  0  0  0  0  0  0  0999 V2000
   -3.7974    0.2685   -2.8896 O   0  0  0  0  0  0  0  0  0  0  0  0
   -3.2320    0.4231   -1.8064 C   0  0  0  0  0  0  0  0  0  0  0  0
   -1.8506   -0.1476   -1.5711 C   0  0  0  0  0  0  0  0  0  0  0  0
   -1.0306    0.4365   -0.4417 C   0  0  0  0  0  0  0  0  0  0  0  0
   -1.4186    1.4242    0.1865 O   0  0  0  0  0  0  0  0  0  0  0  0
    0.1702   -0.2029   -0.1401 N   0  0  0  0  0  0  0  0  0  0  0  0
    0.7058   -1.3424   -0.8876 C   0  0  0  0  0  0  0  0  0  0  0  0
    2.2155   -1.4737   -0.7349 C   0  0  0  0  0  0  0  0  0  0  0  0
    2.6345   -1.6054    0.7404 C   0  0  0  0  0  0  0  0  0  0  0  0
    4.0452   -1.1019    0.9224 C   0  0  0  0  0  0  0  0  0  0  0  0
    4.4069    0.1547    0.7620 N   0  0  0  0  0  0  0  0  0  0  0  0
    5.7599    0.2847    1.0029 C   0  0  0  0  0  0  0  0  0  0  0  0
    6.4164   -0.8754    1.3496 C   0  0  0  0  0  0  0  0  0  0  0  0
    5.3077   -2.1802    1.3785 S   0  0  0  0  0  0  0  0  0  0  0  0
    1.6722   -0.8766    1.6945 C   0  0  0  0  0  0  0  0  0  0  0  0
    0.9519    0.2737    1.0023 C   0  0  0  0  0  0  0  0  0  0  0  0
   -3.8521    1.0404   -0.7478 N   0  0  0  0  0  0  0  0  0  0  0  0
   -5.1383    1.7131   -0.9391 C   0  0  0  0  0  0  0  0  0  0  0  0
   -5.8315    2.1632    0.3431 C   0  0  0  0  0  0  0  0  0  0  0  0
   -6.9806    2.8207    0.0626 F   0  0  0  0  0  0  0  0  0  0  0  0
   -6.1433    1.1150    1.1383 F   0  0  0  0  0  0  0  0  0  0  0  0
   -5.0445    3.0021    1.0552 F   0  0  0  0  0  0  0  0  0  0  0  0
   -1.2877    0.0102   -2.4989 H   0  0  0  0  0  0  0  0  0  0  0  0
   -1.9801   -1.2221   -1.3986 H   0  0  0  0  0  0  0  0  0  0  0  0
    0.2029   -2.2417   -0.5139 H   0  0  0  0  0  0  0  0  0  0  0  0
    0.4574   -1.2423   -1.9478 H   0  0  0  0  0  0  0  0  0  0  0  0
    2.6867   -0.5959   -1.1976 H   0  0  0  0  0  0  0  0  0  0  0  0
    2.5747   -2.3452   -1.2970 H   0  0  0  0  0  0  0  0  0  0  0  0
    2.5999   -2.6706    1.0083 H   0  0  0  0  0  0  0  0  0  0  0  0
    6.2230    1.2600    0.9124 H   0  0  0  0  0  0  0  0  0  0  0  0
    7.4620   -1.0138    1.5845 H   0  0  0  0  0  0  0  0  0  0  0  0
    0.9174   -1.5937    2.0443 H   0  0  0  0  0  0  0  0  0  0  0  0
    2.1918   -0.5120    2.5892 H   0  0  0  0  0  0  0  0  0  0  0  0
    0.2978    0.7805    1.7202 H   0  0  0  0  0  0  0  0  0  0  0  0
    1.6634    1.0178    0.6282 H   0  0  0  0  0  0  0  0  0  0  0  0
   -3.2245    1.4344   -0.0407 H   0  0  0  0  0  0  0  0  0  0  0  0
   -4.9510    2.5824   -1.5796 H   0  0  0  0  0  0  0  0  0  0  0  0
   -5.8004    1.0382   -1.4931 H   0  0  0  0  0  0  0  0  0  0  0  0
  1  2  2  0
  2  3  1  0
  3  4  1  0
  4  5  2  0
  4  6  1  0
  6  7  1  0
  7  8  1  0
  8  9  1  0
  9 10  1  0
 10 11  2  0
 11 12  1  0
 12 13  2  0
 13 14  1  0
  9 15  1  0
 15 16  1  0
  2 17  1  0
 17 18  1  0
 18 19  1  0
 19 20  1  0
 19 21  1  0
 19 22  1  0
 16  6  1  0
 14 10  1  0
  3 23  1  0
  3 24  1  0
  7 25  1  0
  7 26  1  0
  8 27  1  0
  8 28  1  0
  9 29  1  0
 12 30  1  0
 13 31  1  0
 15 32  1  0
 15 33  1  0
 16 34  1  0
 16 35  1  0
 17 36  1  0
 18 37  1  0
 18 38  1  0
M  END
$$$$
OCNT-2317599
     RDKit          3D

 40 42  0  0  0  0  0  0  0  0999 V2000
   -4.8823    1.5200    1.7493 C   0  0  0  0  0  0  0  0  0  0  0  0
   -3.9582    0.7396    0.9615 N   0  0  0  0  0  0  0  0  0  0  0  0
   -2.6747    1.1352    0.8649 N   0  0  0  0  0  0  0  0  0  0  0  0
   -2.1094    0.1993    0.0813 C   0  0  0  0  0  0  0  0  0  0  0  0
   -0.6489    0.2854   -0.2633 C   0  0  0  0  0  0  0  0  0  0  0  0
    0.1278    0.2644    0.9871 N   0  0  0  0  0  0  0  0  0  0  0  0
    1.5028    0.7561    0.7929 C   0  0  0  0  0  0  0  0  0  0  0  0
    2.3894   -0.1157   -0.1331 C   0  0  1  0  0  0  0  0  0  0  0  0
    2.0352    0.0874   -1.5067 O   0  0  0  0  0  0  0  0  0  0  0  0
    3.8642    0.2010    0.0365 C   0  0  0  0  0  0  0  0  0  0  0  0
    4.7170   -0.7218    0.6619 C   0  0  0  0  0  0  0  0  0  0  0  0
    6.0747   -0.4348    0.8264 C   0  0  0  0  0  0  0  0  0  0  0  0
    6.5878    0.7769    0.3688 C   0  0  0  0  0  0  0  0  0  0  0  0
    8.2598    1.1283    0.5717 Cl  0  0  0  0  0  0  0  0  0  0  0  0
    5.7552    1.7060   -0.2507 C   0  0  0  0  0  0  0  0  0  0  0  0
    4.3981    1.4196   -0.4155 C   0  0  0  0  0  0  0  0  0  0  0  0
   -3.0499   -0.7857   -0.3296 C   0  0  0  0  0  0  0  0  0  0  0  0
   -3.0182   -1.9467   -1.1256 C   0  0  0  0  0  0  0  0  0  0  0  0
   -4.1961   -2.6819   -1.3052 C   0  0  0  0  0  0  0  0  0  0  0  0
   -5.3875   -2.2755   -0.7069 C   0  0  0  0  0  0  0  0  0  0  0  0
   -5.4407   -1.1264    0.0885 C   0  0  0  0  0  0  0  0  0  0  0  0
   -4.2519   -0.4022    0.2592 C   0  0  0  0  0  0  0  0  0  0  0  0
   -5.6067    1.9789    1.0722 H   0  0  0  0  0  0  0  0  0  0  0  0
   -5.3829    0.8564    2.4589 H   0  0  0  0  0  0  0  0  0  0  0  0
   -4.3361    2.2946    2.2940 H   0  0  0  0  0  0  0  0  0  0  0  0
   -0.3657   -0.5610   -0.8968 H   0  0  0  0  0  0  0  0  0  0  0  0
   -0.4847    1.2150   -0.8222 H   0  0  0  0  0  0  0  0  0  0  0  0
   -0.3610    0.9008    1.6248 H   0  0  0  0  0  0  0  0  0  0  0  0
    1.9608    0.7908    1.7889 H   0  0  0  0  0  0  0  0  0  0  0  0
    1.4677    1.7892    0.4241 H   0  0  0  0  0  0  0  0  0  0  0  0
    2.2164   -1.1765    0.0861 H   0  0  0  0  0  0  0  0  0  0  0  0
    2.7717   -0.2600   -2.0392 H   0  0  0  0  0  0  0  0  0  0  0  0
    4.3293   -1.6703    1.0301 H   0  0  0  0  0  0  0  0  0  0  0  0
    6.7236   -1.1583    1.3133 H   0  0  0  0  0  0  0  0  0  0  0  0
    6.1538    2.6526   -0.6062 H   0  0  0  0  0  0  0  0  0  0  0  0
    3.7546    2.1520   -0.9015 H   0  0  0  0  0  0  0  0  0  0  0  0
   -2.0948   -2.2735   -1.5942 H   0  0  0  0  0  0  0  0  0  0  0  0
   -4.1788   -3.5805   -1.9175 H   0  0  0  0  0  0  0  0  0  0  0  0
   -6.2910   -2.8625   -0.8593 H   0  0  0  0  0  0  0  0  0  0  0  0
   -6.3704   -0.8161    0.5535 H   0  0  0  0  0  0  0  0  0  0  0  0
  1  2  1  0
  2  3  1  0
  3  4  2  0
  4  5  1  0
  5  6  1  0
  6  7  1  0
  7  8  1  0
  8  9  1  0
  8 10  1  0
 10 11  1  0
 11 12  2  0
 12 13  1  0
 13 14  1  0
 13 15  2  0
 15 16  1  0
  4 17  1  0
 17 18  2  0
 18 19  1  0
 19 20  2  0
 20 21  1  0
 21 22  2  0
 22  2  1  0
 16 10  2  0
 22 17  1  0
  1 23  1  0
  1 24  1  0
  1 25  1  0
  5 26  1  0
  5 27  1  0
  6 28  1  0
  7 29  1  0
  7 30  1  0
  8 31  1  1
  9 32  1  0
 11 33  1  0
 12 34  1  0
 15 35  1  0
 16 36  1  0
 18 37  1  0
 19 38  1  0
 20 39  1  0
 21 40  1  0
M  END
$$$$
OCNT-2317600
     RDKit          3D

 57 59  0  0  0  0  0  0  0  0999 V2000
    8.0272   -1.4414    1.3696 C   0  0  0  0  0  0  0  0  0  0  0  0
    7.5332   -0.6706    0.2556 N   0  0  0  0  0  0  0  0  0  0  0  0
    6.5029   -1.1497   -0.5376 C   0  0  0  0  0  0  0  0  0  0  0  0
    6.0210   -2.2700   -0.3945 O   0  0  0  0  0  0  0  0  0  0  0  0
    6.0475   -0.1506   -1.6125 C   0  0  0  0  0  0  0  0  0  0  0  0
    4.8644   -0.5185   -2.3139 O   0  0  0  0  0  0  0  0  0  0  0  0
    3.7523   -0.0334   -1.6858 C   0  0  0  0  0  0  0  0  0  0  0  0
    3.2846    1.2414   -1.9914 C   0  0  0  0  0  0  0  0  0  0  0  0
    2.1301    1.7265   -1.3686 C   0  0  0  0  0  0  0  0  0  0  0  0
    1.4377    0.9365   -0.4467 C   0  0  0  0  0  0  0  0  0  0  0  0
    0.2592    1.3423    0.2139 N   0  0  0  0  0  0  0  0  0  0  0  0
   -0.3194    2.5894    0.2200 C   0  0  0  0  0  0  0  0  0  0  0  0
    0.2094    3.5922   -0.2534 O   0  0  0  0  0  0  0  0  0  0  0  0
   -1.5845    2.6510    0.8131 N   0  0  0  0  0  0  0  0  0  0  0  0
   -2.2164    3.9631    0.8905 C   0  0  0  0  0  0  0  0  0  0  0  0
   -2.4500    1.5094    1.1930 C   0  0  0  0  0  0  0  0  0  0  0  0
   -1.9863    0.8274    2.4930 C   0  0  0  0  0  0  0  0  0  0  0  0
   -2.1338   -0.6888    2.4377 C   0  0  0  0  0  0  0  0  0  0  0  0
   -3.4734   -1.1049    1.8326 C   0  0  0  0  0  0  0  0  0  0  0  0
   -3.6575   -0.5419    0.4889 N   0  0  0  0  0  0  0  0  0  0  0  0
   -4.4425   -1.2405   -0.4261 C   0  0  0  0  0  0  0  0  0  0  0  0
   -5.5414   -2.0108   -0.0050 C   0  0  0  0  0  0  0  0  0  0  0  0
   -6.3470   -2.7142   -0.9083 C   0  0  0  0  0  0  0  0  0  0  0  0
   -6.0742   -2.6630   -2.2691 C   0  0  0  0  0  0  0  0  0  0  0  0
   -5.0006   -1.9065   -2.7207 C   0  0  0  0  0  0  0  0  0  0  0  0
   -4.2010   -1.2046   -1.8093 C   0  0  0  0  0  0  0  0  0  0  0  0
   -2.7449    0.5182    0.0386 C   0  0  0  0  0  0  0  0  0  0  0  0
    1.9049   -0.3581   -0.1756 C   0  0  0  0  0  0  0  0  0  0  0  0
    3.0547   -0.8460   -0.8001 C   0  0  0  0  0  0  0  0  0  0  0  0
    8.0504   -2.5063    1.1206 H   0  0  0  0  0  0  0  0  0  0  0  0
    7.3645   -1.2795    2.2249 H   0  0  0  0  0  0  0  0  0  0  0  0
    9.0346   -1.0941    1.6116 H   0  0  0  0  0  0  0  0  0  0  0  0
    7.7506    0.3163    0.2268 H   0  0  0  0  0  0  0  0  0  0  0  0
    5.9657    0.8513   -1.1680 H   0  0  0  0  0  0  0  0  0  0  0  0
    6.8520   -0.1038   -2.3563 H   0  0  0  0  0  0  0  0  0  0  0  0
    3.8060    1.8586   -2.7172 H   0  0  0  0  0  0  0  0  0  0  0  0
    1.7907    2.7229   -1.6336 H   0  0  0  0  0  0  0  0  0  0  0  0
   -0.1093    0.6770    0.8695 H   0  0  0  0  0  0  0  0  0  0  0  0
   -1.5085    4.7804    0.7281 H   0  0  0  0  0  0  0  0  0  0  0  0
   -2.6566    4.0868    1.8852 H   0  0  0  0  0  0  0  0  0  0  0  0
   -3.0021    4.0171    0.1302 H   0  0  0  0  0  0  0  0  0  0  0  0
   -3.4296    1.9488    1.4374 H   0  0  0  0  0  0  0  0  0  0  0  0
   -2.5966    1.2131    3.3204 H   0  0  0  0  0  0  0  0  0  0  0  0
   -0.9552    1.0877    2.7566 H   0  0  0  0  0  0  0  0  0  0  0  0
   -2.0373   -1.1038    3.4474 H   0  0  0  0  0  0  0  0  0  0  0  0
   -1.3156   -1.1141    1.8434 H   0  0  0  0  0  0  0  0  0  0  0  0
   -3.4939   -2.2013    1.8061 H   0  0  0  0  0  0  0  0  0  0  0  0
   -4.2907   -0.7669    2.4807 H   0  0  0  0  0  0  0  0  0  0  0  0
   -5.8075   -2.0590    1.0472 H   0  0  0  0  0  0  0  0  0  0  0  0
   -7.1893   -3.2945   -0.5429 H   0  0  0  0  0  0  0  0  0  0  0  0
   -6.6955   -3.2074   -2.9736 H   0  0  0  0  0  0  0  0  0  0  0  0
   -4.7745   -1.8607   -3.7828 H   0  0  0  0  0  0  0  0  0  0  0  0
   -3.3627   -0.6450   -2.2144 H   0  0  0  0  0  0  0  0  0  0  0  0
   -1.8346    0.0572   -0.3558 H   0  0  0  0  0  0  0  0  0  0  0  0
   -3.1946    1.0996   -0.7764 H   0  0  0  0  0  0  0  0  0  0  0  0
    1.3793   -1.0096    0.5170 H   0  0  0  0  0  0  0  0  0  0  0  0
    3.4039   -1.8547   -0.5930 H   0  0  0  0  0  0  0  0  0  0  0  0
  1  2  1  0
  2  3  1  0
  3  4  2  0
  3  5  1  0
  5  6  1  0
  6  7  1  0
  7  8  1  0
  8  9  2  0
  9 10  1  0
 10 11  1  0
 11 12  1  0
 12 13  2  0
 12 14  1  0
 14 15  1  0
 14 16  1  0
 16 17  1  0
 17 18  1  0
 18 19  1  0
 19 20  1  0
 20 21  1  0
 21 22  2  0
 22 23  1  0
 23 24  2  0
 24 25  1  0
 25 26  2  0
 20 27  1  0
 10 28  2  0
 28 29  1  0
 29  7  2  0
 27 16  1  0
 26 21  1  0
  1 30  1  0
  1 31  1  0
  1 32  1  0
  2 33  1  0
  5 34  1  0
  5 35  1  0
  8 36  1  0
  9 37  1  0
 11 38  1  0
 15 39  1  0
 15 40  1  0
 15 41  1  0
 16 42  1  0
 17 43  1  0
 17 44  1  0
 18 45  1  0
 18 46  1  0
 19 47  1  0
 19 48  1  0
 22 49  1  0
 23 50  1  0
 24 51  1  0
 25 52  1  0
 26 53  1  0
 27 54  1  0
 27 55  1  0
 28 56  1  0
 29 57  1  0
M  END
$$$$
OCNT-2317602
     RDKit          3D

 52 55  0  0  0  0  0  0  0  0999 V2000
   -7.5278   -1.6741   -1.3108 C   0  0  0  0  0  0  0  0  0  0  0  0
   -6.1342   -1.6906   -0.8751 N   0  0  0  0  0  0  0  0  0  0  0  0
   -5.9713   -0.9126    0.3685 C   0  0  0  0  0  0  0  0  0  0  0  0
   -4.5257   -0.4457    0.6188 C   0  0  0  0  0  0  0  0  0  0  0  0
   -4.0245    0.3868   -0.4792 N   0  0  0  0  0  0  0  0  0  0  0  0
   -3.0393    1.3595   -0.3576 C   0  0  0  0  0  0  0  0  0  0  0  0
   -2.7789    2.1234   -1.2880 O   0  0  0  0  0  0  0  0  0  0  0  0
   -2.3341    1.4506    0.9924 C   0  0  0  0  0  0  0  0  0  0  0  0
   -1.0044    2.1685    0.9518 C   0  0  0  0  0  0  0  0  0  0  0  0
   -0.9398    3.5579    1.1146 C   0  0  0  0  0  0  0  0  0  0  0  0
    0.2890    4.2125    1.0680 C   0  0  0  0  0  0  0  0  0  0  0  0
    1.4610    3.4850    0.8523 C   0  0  0  0  0  0  0  0  0  0  0  0
    1.4161    2.0983    0.6749 C   0  0  0  0  0  0  0  0  0  0  0  0
    2.6368    1.4418    0.4535 N   0  0  0  0  0  0  0  0  0  0  0  0
    2.8763    0.0931    0.2877 C   0  0  0  0  0  0  0  0  0  0  0  0
    2.0491   -0.8114    0.3162 O   0  0  0  0  0  0  0  0  0  0  0  0
    4.3106   -0.1786    0.0664 C   0  0  0  0  0  0  0  0  0  0  0  0
    5.2331    0.8124    0.0761 N   0  0  0  0  0  0  0  0  0  0  0  0
    6.3934    0.1734   -0.1651 N   0  0  0  0  0  0  0  0  0  0  0  0
    6.2502   -1.1713   -0.3202 C   0  0  0  0  0  0  0  0  0  0  0  0
    7.3788   -2.1804   -0.6179 C   0  0  0  0  0  0  0  0  0  0  0  0
    7.5057   -3.4151    0.2332 C   0  0  0  0  0  0  0  0  0  0  0  0
    8.5099   -2.3080    0.3674 C   0  0  0  0  0  0  0  0  0  0  0  0
    4.9135   -1.4400   -0.1832 C   0  0  0  0  0  0  0  0  0  0  0  0
    0.1810    1.4475    0.7231 C   0  0  0  0  0  0  0  0  0  0  0  0
   -4.6703    0.1911   -1.7782 C   0  0  0  0  0  0  0  0  0  0  0  0
   -5.2218   -1.2370   -1.9449 C   0  0  0  0  0  0  0  0  0  0  0  0
   -8.1896   -2.0285   -0.5117 H   0  0  0  0  0  0  0  0  0  0  0  0
   -7.6742   -2.3465   -2.1640 H   0  0  0  0  0  0  0  0  0  0  0  0
   -7.8508   -0.6685   -1.6033 H   0  0  0  0  0  0  0  0  0  0  0  0
   -6.3049   -1.5234    1.2148 H   0  0  0  0  0  0  0  0  0  0  0  0
   -6.6086   -0.0187    0.3443 H   0  0  0  0  0  0  0  0  0  0  0  0
   -3.8548   -1.3076    0.7092 H   0  0  0  0  0  0  0  0  0  0  0  0
   -4.4831    0.1165    1.5568 H   0  0  0  0  0  0  0  0  0  0  0  0
   -3.0048    1.9672    1.6897 H   0  0  0  0  0  0  0  0  0  0  0  0
   -2.1654    0.4443    1.3938 H   0  0  0  0  0  0  0  0  0  0  0  0
   -1.8475    4.1371    1.2657 H   0  0  0  0  0  0  0  0  0  0  0  0
    0.3332    5.2925    1.1874 H   0  0  0  0  0  0  0  0  0  0  0  0
    2.4066    4.0204    0.8136 H   0  0  0  0  0  0  0  0  0  0  0  0
    3.4818    2.0055    0.4062 H   0  0  0  0  0  0  0  0  0  0  0  0
    7.2501    0.7169   -0.2025 H   0  0  0  0  0  0  0  0  0  0  0  0
    7.6268   -2.2817   -1.6705 H   0  0  0  0  0  0  0  0  0  0  0  0
    7.8181   -4.3326   -0.2525 H   0  0  0  0  0  0  0  0  0  0  0  0
    6.8032   -3.5664    1.0461 H   0  0  0  0  0  0  0  0  0  0  0  0
    8.4858   -1.7203    1.2777 H   0  0  0  0  0  0  0  0  0  0  0  0
    9.5067   -2.4833   -0.0182 H   0  0  0  0  0  0  0  0  0  0  0  0
    4.4180   -2.3986   -0.2457 H   0  0  0  0  0  0  0  0  0  0  0  0
    0.1108    0.3747    0.5718 H   0  0  0  0  0  0  0  0  0  0  0  0
   -3.9575    0.4061   -2.5803 H   0  0  0  0  0  0  0  0  0  0  0  0
   -5.4814    0.9251   -1.8534 H   0  0  0  0  0  0  0  0  0  0  0  0
   -5.6815   -1.3403   -2.9351 H   0  0  0  0  0  0  0  0  0  0  0  0
   -4.3692   -1.9270   -1.9431 H   0  0  0  0  0  0  0  0  0  0  0  0
  1  2  1  0
  2  3  1  0
  3  4  1  0
  4  5  1  0
  5  6  1  0
  6  7  2  0
  6  8  1  0
  8  9  1  0
  9 10  2  0
 10 11  1  0
 11 12  2  0
 12 13  1  0
 13 14  1  0
 14 15  1  0
 15 16  2  0
 15 17  1  0
 17 18  2  0
 18 19  1  0
 19 20  1  0
 20 21  1  0
 21 22  1  0
 22 23  1  0
 20 24  2  0
 13 25  2  0
  5 26  1  0
 26 27  1  0
 27  2  1  0
 25  9  1  0
 24 17  1  0
 23 21  1  0
  1 28  1  0
  1 29  1  0
  1 30  1  0
  3 31  1  0
  3 32  1  0
  4 33  1  0
  4 34  1  0
  8 35  1  0
  8 36  1  0
 10 37  1  0
 11 38  1  0
 12 39  1  0
 14 40  1  0
 19 41  1  0
 21 42  1  0
 22 43  1  0
 22 44  1  0
 23 45  1  0
 23 46  1  0
 24 47  1  0
 25 48  1  0
 26 49  1  0
 26 50  1  0
 27 51  1  0
 27 52  1  0
M  END
$$$$
OCNT-2317611
     RDKit          3D

 63 66  0  0  0  0  0  0  0  0999 V2000
    8.9403   -0.8667   -3.0599 C   0  0  0  0  0  0  0  0  0  0  0  0
    9.3438   -1.0400   -1.5997 C   0  0  0  0  0  0  0  0  0  0  0  0
    8.2032   -1.5565   -0.7282 C   0  0  0  0  0  0  0  0  0  0  0  0
    7.1183   -0.5244   -0.4491 C   0  0  0  0  0  0  0  0  0  0  0  0
    7.2122    0.6418   -0.8155 O   0  0  0  0  0  0  0  0  0  0  0  0
    6.0703   -1.0853    0.2709 N   0  0  0  0  0  0  0  0  0  0  0  0
    4.9102   -0.4406    0.7484 C   0  0  0  0  0  0  0  0  0  0  0  0
    4.0063   -1.2161    1.4802 C   0  0  0  0  0  0  0  0  0  0  0  0
    2.8466   -0.6491    2.0174 C   0  0  0  0  0  0  0  0  0  0  0  0
    2.5606    0.7072    1.8219 C   0  0  0  0  0  0  0  0  0  0  0  0
    1.3570    1.3516    2.4628 C   0  0  0  0  0  0  0  0  0  0  0  0
    0.1579    0.5694    2.2933 N   0  0  0  0  0  0  0  0  0  0  0  0
   -0.9449    0.7928    3.0851 C   0  0  0  0  0  0  0  0  0  0  0  0
   -0.9300    1.5000    4.0854 O   0  0  0  0  0  0  0  0  0  0  0  0
   -2.1831    0.0010    2.6480 C   0  0  0  0  0  0  0  0  0  0  0  0
   -2.2809   -0.0382    1.1634 N   0  0  0  0  0  0  0  0  0  0  0  0
   -2.8072    1.2388    0.6269 C   0  0  0  0  0  0  0  0  0  0  0  0
   -4.3160    1.1649    0.8041 C   0  0  0  0  0  0  0  0  0  0  0  0
   -5.1671    1.7566   -0.3111 C   0  0  0  0  0  0  0  0  0  0  0  0
   -6.2848    0.8100   -0.3567 N   0  0  0  0  0  0  0  0  0  0  0  0
   -7.2109    1.0018   -1.4667 C   0  0  0  0  0  0  0  0  0  0  0  0
   -6.6921    0.5259   -2.8224 C   0  0  0  0  0  0  0  0  0  0  0  0
   -6.2036   -0.9158   -2.7337 C   0  0  0  0  0  0  0  0  0  0  0  0
   -5.1577   -1.0458   -1.6341 C   0  0  0  0  0  0  0  0  0  0  0  0
   -5.6899   -0.5360   -0.2821 C   0  0  0  0  0  0  0  0  0  0  0  0
   -4.6386   -0.3326    0.8205 C   0  0  0  0  0  0  0  0  0  0  0  0
   -3.2869   -1.0333    0.7294 C   0  0  0  0  0  0  0  0  0  0  0  0
    3.4661    1.4790    1.0854 C   0  0  0  0  0  0  0  0  0  0  0  0
    4.6270    0.9107    0.5475 C   0  0  0  0  0  0  0  0  0  0  0  0
    8.5825   -1.8115   -3.4856 H   0  0  0  0  0  0  0  0  0  0  0  0
    9.8021   -0.5325   -3.6491 H   0  0  0  0  0  0  0  0  0  0  0  0
    8.1463   -0.1149   -3.1724 H   0  0  0  0  0  0  0  0  0  0  0  0
    9.7201   -0.0851   -1.2163 H   0  0  0  0  0  0  0  0  0  0  0  0
   10.1774   -1.7533   -1.5545 H   0  0  0  0  0  0  0  0  0  0  0  0
    8.6209   -1.8468    0.2416 H   0  0  0  0  0  0  0  0  0  0  0  0
    7.7461   -2.4420   -1.1859 H   0  0  0  0  0  0  0  0  0  0  0  0
    6.1610   -2.0623    0.5186 H   0  0  0  0  0  0  0  0  0  0  0  0
    4.1892   -2.2702    1.6550 H   0  0  0  0  0  0  0  0  0  0  0  0
    2.1739   -1.2731    2.6033 H   0  0  0  0  0  0  0  0  0  0  0  0
    1.1567    2.3314    2.0157 H   0  0  0  0  0  0  0  0  0  0  0  0
    1.5555    1.5083    3.5301 H   0  0  0  0  0  0  0  0  0  0  0  0
   -0.0766    0.2422    1.3561 H   0  0  0  0  0  0  0  0  0  0  0  0
   -3.0676    0.4406    3.1207 H   0  0  0  0  0  0  0  0  0  0  0  0
   -2.0464   -1.0147    3.0440 H   0  0  0  0  0  0  0  0  0  0  0  0
   -2.5365    1.3052   -0.4383 H   0  0  0  0  0  0  0  0  0  0  0  0
   -2.3783    2.1233    1.1095 H   0  0  0  0  0  0  0  0  0  0  0  0
   -4.6039    1.6041    1.7708 H   0  0  0  0  0  0  0  0  0  0  0  0
   -5.5074    2.7687   -0.0592 H   0  0  0  0  0  0  0  0  0  0  0  0
   -4.6176    1.8047   -1.2594 H   0  0  0  0  0  0  0  0  0  0  0  0
   -8.1304    0.4457   -1.2345 H   0  0  0  0  0  0  0  0  0  0  0  0
   -7.5188    2.0540   -1.5257 H   0  0  0  0  0  0  0  0  0  0  0  0
   -7.4892    0.5997   -3.5703 H   0  0  0  0  0  0  0  0  0  0  0  0
   -5.8823    1.1790   -3.1628 H   0  0  0  0  0  0  0  0  0  0  0  0
   -5.7775   -1.2227   -3.6923 H   0  0  0  0  0  0  0  0  0  0  0  0
   -7.0428   -1.5848   -2.5219 H   0  0  0  0  0  0  0  0  0  0  0  0
   -4.2654   -0.4837   -1.9411 H   0  0  0  0  0  0  0  0  0  0  0  0
   -4.8608   -2.0980   -1.5412 H   0  0  0  0  0  0  0  0  0  0  0  0
   -6.4525   -1.2433    0.0750 H   0  0  0  0  0  0  0  0  0  0  0  0
   -5.0961   -0.5606    1.7962 H   0  0  0  0  0  0  0  0  0  0  0  0
   -3.2651   -1.9555    1.3189 H   0  0  0  0  0  0  0  0  0  0  0  0
   -3.0249   -1.3234   -0.2923 H   0  0  0  0  0  0  0  0  0  0  0  0
    3.2849    2.5405    0.9210 H   0  0  0  0  0  0  0  0  0  0  0  0
    5.2974    1.5599   -0.0054 H   0  0  0  0  0  0  0  0  0  0  0  0
  1  2  1  0
  2  3  1  0
  3  4  1  0
  4  5  2  0
  4  6  1  0
  6  7  1  0
  7  8  1  0
  8  9  2  0
  9 10  1  0
 10 11  1  0
 11 12  1  0
 12 13  1  0
 13 14  2  0
 13 15  1  0
 15 16  1  0
 16 17  1  0
 17 18  1  0
 18 19  1  0
 19 20  1  0
 20 21  1  0
 21 22  1  0
 22 23  1  0
 23 24  1  0
 24 25  1  0
 25 26  1  0
 26 27  1  0
 10 28  2  0
 28 29  1  0
 29  7  2  0
 27 16  1  0
 26 18  1  0
 25 20  1  0
  1 30  1  0
  1 31  1  0
  1 32  1  0
  2 33  1  0
  2 34  1  0
  3 35  1  0
  3 36  1  0
  6 37  1  0
  8 38  1  0
  9 39  1  0
 11 40  1  0
 11 41  1  0
 12 42  1  0
 15 43  1  0
 15 44  1  0
 17 45  1  0
 17 46  1  0
 18 47  1  0
 19 48  1  0
 19 49  1  0
 21 50  1  0
 21 51  1  0
 22 52  1  0
 22 53  1  0
 23 54  1  0
 23 55  1  0
 24 56  1  0
 24 57  1  0
 25 58  1  0
 26 59  1  0
 27 60  1  0
 27 61  1  0
 28 62  1  0
 29 63  1  0
M  END
$$$$
OCNT-2317626
     RDKit          3D

 54 57  0  0  0  0  0  0  0  0999 V2000
   -0.4122   -1.6611   -2.0790 O   0  0  0  0  0  0  0  0  0  0  0  0
   -0.1936   -2.0992   -0.9557 C   0  0  0  0  0  0  0  0  0  0  0  0
   -1.2420   -2.2167    0.1443 C   0  0  0  0  0  0  0  0  0  0  0  0
   -2.3798   -1.1512    0.1146 C   0  0  0  0  0  0  0  0  0  0  0  0
   -1.8580    0.2464    0.0739 N   0  0  0  0  0  0  0  0  0  0  0  0
   -0.7963    0.5585    1.0582 C   0  0  0  0  0  0  0  0  0  0  0  0
   -0.2298    1.9758    0.8562 C   0  0  0  0  0  0  0  0  0  0  0  0
   -1.2582    2.9675    0.9523 O   0  0  0  0  0  0  0  0  0  0  0  0
   -2.2555    2.7123   -0.0441 C   0  0  0  0  0  0  0  0  0  0  0  0
   -2.8788    1.3185    0.1447 C   0  0  0  0  0  0  0  0  0  0  0  0
   -3.3042   -1.4530   -1.1137 C   0  0  0  0  0  0  0  0  0  0  0  0
   -4.6116   -2.0056   -0.5548 C   0  0  0  0  0  0  0  0  0  0  0  0
   -4.7351   -1.3708    0.8139 C   0  0  0  0  0  0  0  0  0  0  0  0
   -3.3091   -1.4216    1.3415 C   0  0  0  0  0  0  0  0  0  0  0  0
    1.0346   -2.6090   -0.5776 N   0  0  0  0  0  0  0  0  0  0  0  0
    2.2094   -2.4179   -1.3984 C   0  0  0  0  0  0  0  0  0  0  0  0
    3.0178   -1.2539   -0.8831 C   0  0  0  0  0  0  0  0  0  0  0  0
    4.1060   -1.4598   -0.0214 C   0  0  0  0  0  0  0  0  0  0  0  0
    4.8276   -0.3736    0.4802 C   0  0  0  0  0  0  0  0  0  0  0  0
    4.4655    0.9245    0.1285 C   0  0  0  0  0  0  0  0  0  0  0  0
    5.2281    1.9396    0.6472 O   0  0  0  0  0  0  0  0  0  0  0  0
    4.9844    3.1748   -0.0366 C   0  0  0  0  0  0  0  0  0  0  0  0
    3.4929    3.4032   -0.2177 C   0  0  0  0  0  0  0  0  0  0  0  0
    2.9262    2.3921   -1.0581 O   0  0  0  0  0  0  0  0  0  0  0  0
    3.3640    1.1420   -0.7034 C   0  0  0  0  0  0  0  0  0  0  0  0
    2.6517    0.0595   -1.2172 C   0  0  0  0  0  0  0  0  0  0  0  0
   -1.6717   -3.2236    0.0489 H   0  0  0  0  0  0  0  0  0  0  0  0
   -0.7437   -2.1947    1.1221 H   0  0  0  0  0  0  0  0  0  0  0  0
    0.0481   -0.1297    0.9704 H   0  0  0  0  0  0  0  0  0  0  0  0
   -1.1941    0.4765    2.0767 H   0  0  0  0  0  0  0  0  0  0  0  0
    0.2683    2.0671   -0.1157 H   0  0  0  0  0  0  0  0  0  0  0  0
    0.5121    2.1915    1.6317 H   0  0  0  0  0  0  0  0  0  0  0  0
   -3.0291    3.4798    0.0610 H   0  0  0  0  0  0  0  0  0  0  0  0
   -1.8133    2.8205   -1.0420 H   0  0  0  0  0  0  0  0  0  0  0  0
   -3.6468    1.1994   -0.6237 H   0  0  0  0  0  0  0  0  0  0  0  0
   -3.3742    1.3025    1.1226 H   0  0  0  0  0  0  0  0  0  0  0  0
   -3.5114   -0.5600   -1.7117 H   0  0  0  0  0  0  0  0  0  0  0  0
   -2.8721   -2.1748   -1.8149 H   0  0  0  0  0  0  0  0  0  0  0  0
   -5.4656   -1.7764   -1.1988 H   0  0  0  0  0  0  0  0  0  0  0  0
   -4.5437   -3.0960   -0.4593 H   0  0  0  0  0  0  0  0  0  0  0  0
   -5.4308   -1.9151    1.4593 H   0  0  0  0  0  0  0  0  0  0  0  0
   -5.0912   -0.3391    0.7304 H   0  0  0  0  0  0  0  0  0  0  0  0
   -3.1639   -0.7239    2.1718 H   0  0  0  0  0  0  0  0  0  0  0  0
   -3.1237   -2.4219    1.7550 H   0  0  0  0  0  0  0  0  0  0  0  0
    1.1900   -2.8262    0.3963 H   0  0  0  0  0  0  0  0  0  0  0  0
    2.7954   -3.3420   -1.3482 H   0  0  0  0  0  0  0  0  0  0  0  0
    1.9384   -2.2595   -2.4480 H   0  0  0  0  0  0  0  0  0  0  0  0
    4.4023   -2.4673    0.2622 H   0  0  0  0  0  0  0  0  0  0  0  0
    5.6767   -0.5393    1.1375 H   0  0  0  0  0  0  0  0  0  0  0  0
    5.4199    3.9783    0.5656 H   0  0  0  0  0  0  0  0  0  0  0  0
    5.5070    3.1485   -1.0009 H   0  0  0  0  0  0  0  0  0  0  0  0
    2.9652    3.3931    0.7441 H   0  0  0  0  0  0  0  0  0  0  0  0
    3.3129    4.3712   -0.6956 H   0  0  0  0  0  0  0  0  0  0  0  0
    1.7949    0.2400   -1.8653 H   0  0  0  0  0  0  0  0  0  0  0  0
  1  2  2  0
  2  3  1  0
  3  4  1  0
  4  5  1  0
  5  6  1  0
  6  7  1  0
  7  8  1  0
  8  9  1  0
  9 10  1  0
  4 11  1  0
 11 12  1  0
 12 13  1  0
 13 14  1  0
  2 15  1  0
 15 16  1  0
 16 17  1  0
 17 18  1  0
 18 19  2  0
 19 20  1  0
 20 21  1  0
 21 22  1  0
 22 23  1  0
 23 24  1  0
 24 25  1  0
 25 26  1  0
 14  4  1  0
 26 17  2  0
 10  5  1  0
 25 20  2  0
  3 27  1  0
  3 28  1  0
  6 29  1  0
  6 30  1  0
  7 31  1  0
  7 32  1  0
  9 33  1  0
  9 34  1  0
 10 35  1  0
 10 36  1  0
 11 37  1  0
 11 38  1  0
 12 39  1  0
 12 40  1  0
 13 41  1  0
 13 42  1  0
 14 43  1  0
 14 44  1  0
 15 45  1  0
 16 46  1  0
 16 47  1  0
 18 48  1  0
 19 49  1  0
 22 50  1  0
 22 51  1  0
 23 52  1  0
 23 53  1  0
 26 54  1  0
M  END
$$$$
OCNT-2317634
     RDKit          3D

 56 59  0  0  0  0  0  0  0  0999 V2000
   -0.8320   -1.4647   -2.5712 C   0  0  0  0  0  0  0  0  0  0  0  0
   -1.3219   -1.4519   -1.2357 O   0  0  0  0  0  0  0  0  0  0  0  0
   -2.5995   -1.8998   -1.0257 C   0  0  0  0  0  0  0  0  0  0  0  0
   -3.4680   -2.3289   -2.0346 C   0  0  0  0  0  0  0  0  0  0  0  0
   -4.7535   -2.7765   -1.7204 C   0  0  0  0  0  0  0  0  0  0  0  0
   -5.1814   -2.8008   -0.3971 C   0  0  0  0  0  0  0  0  0  0  0  0
   -4.3254   -2.3742    0.6159 C   0  0  0  0  0  0  0  0  0  0  0  0
   -3.0317   -1.9155    0.3147 C   0  0  0  0  0  0  0  0  0  0  0  0
   -2.1316   -1.4512    1.4416 C   0  0  0  0  0  0  0  0  0  0  0  0
   -1.9319    0.0816    1.4805 C   0  0  0  0  0  0  0  0  0  0  0  0
   -3.1882    0.8314    1.9486 C   0  0  0  0  0  0  0  0  0  0  0  0
   -3.0660    0.8124    3.4674 C   0  0  0  0  0  0  0  0  0  0  0  0
   -1.5727    0.9900    3.6939 C   0  0  0  0  0  0  0  0  0  0  0  0
   -0.9361    0.4664    2.4947 N   0  0  0  0  0  0  0  0  0  0  0  0
    0.4418    0.4326    2.4065 C   0  0  0  0  0  0  0  0  0  0  0  0
    1.1443    0.7554    3.3659 O   0  0  0  0  0  0  0  0  0  0  0  0
    1.0586    0.0767    1.0538 C   0  0  0  0  0  0  0  0  0  0  0  0
    2.4737   -0.5041    1.2080 C   0  0  0  0  0  0  0  0  0  0  0  0
    3.3020   -0.2642   -0.0499 C   0  0  0  0  0  0  0  0  0  0  0  0
    3.4622    1.1742   -0.2658 N   0  0  0  0  0  0  0  0  0  0  0  0
    4.2988    1.5503   -1.3109 C   0  0  0  0  0  0  0  0  0  0  0  0
    4.7104    2.8763   -1.5054 C   0  0  0  0  0  0  0  0  0  0  0  0
    5.5295    3.2957   -2.5077 N   0  0  0  0  0  0  0  0  0  0  0  0
    5.9608    2.3193   -3.3266 C   0  0  0  0  0  0  0  0  0  0  0  0
    5.5899    1.0009   -3.1509 C   0  0  0  0  0  0  0  0  0  0  0  0
    4.7665    0.5980   -2.1546 N   0  0  0  0  0  0  0  0  0  0  0  0
    2.3733    2.0598    0.1507 C   0  0  0  0  0  0  0  0  0  0  0  0
    1.0386    1.3148    0.1406 C   0  0  0  0  0  0  0  0  0  0  0  0
    0.2019   -1.1066   -2.5503 H   0  0  0  0  0  0  0  0  0  0  0  0
   -1.4073   -0.7835   -3.2071 H   0  0  0  0  0  0  0  0  0  0  0  0
   -0.8236   -2.4800   -2.9804 H   0  0  0  0  0  0  0  0  0  0  0  0
   -3.1760   -2.3302   -3.0793 H   0  0  0  0  0  0  0  0  0  0  0  0
   -5.4204   -3.1098   -2.5118 H   0  0  0  0  0  0  0  0  0  0  0  0
   -6.1803   -3.1535   -0.1534 H   0  0  0  0  0  0  0  0  0  0  0  0
   -4.6737   -2.4010    1.6465 H   0  0  0  0  0  0  0  0  0  0  0  0
   -1.1689   -1.9677    1.3438 H   0  0  0  0  0  0  0  0  0  0  0  0
   -2.5273   -1.8057    2.4024 H   0  0  0  0  0  0  0  0  0  0  0  0
   -1.6190    0.4563    0.5022 H   0  0  0  0  0  0  0  0  0  0  0  0
   -4.1289    0.4030    1.5950 H   0  0  0  0  0  0  0  0  0  0  0  0
   -3.1444    1.8708    1.5986 H   0  0  0  0  0  0  0  0  0  0  0  0
   -3.6577    1.5940    3.9519 H   0  0  0  0  0  0  0  0  0  0  0  0
   -3.3977   -0.1548    3.8618 H   0  0  0  0  0  0  0  0  0  0  0  0
   -1.2164    0.4600    4.5828 H   0  0  0  0  0  0  0  0  0  0  0  0
   -1.3062    2.0492    3.7836 H   0  0  0  0  0  0  0  0  0  0  0  0
    0.4487   -0.6991    0.5862 H   0  0  0  0  0  0  0  0  0  0  0  0
    2.9995   -0.0674    2.0656 H   0  0  0  0  0  0  0  0  0  0  0  0
    2.4036   -1.5798    1.4091 H   0  0  0  0  0  0  0  0  0  0  0  0
    4.2817   -0.7393    0.0853 H   0  0  0  0  0  0  0  0  0  0  0  0
    2.8117   -0.7359   -0.9113 H   0  0  0  0  0  0  0  0  0  0  0  0
    4.4038    3.6627   -0.8246 H   0  0  0  0  0  0  0  0  0  0  0  0
    6.6199    2.6231   -4.1312 H   0  0  0  0  0  0  0  0  0  0  0  0
    5.9470    0.2194   -3.8119 H   0  0  0  0  0  0  0  0  0  0  0  0
    2.5875    2.4406    1.1563 H   0  0  0  0  0  0  0  0  0  0  0  0
    2.2688    2.9304   -0.5072 H   0  0  0  0  0  0  0  0  0  0  0  0
    0.8251    0.9904   -0.8867 H   0  0  0  0  0  0  0  0  0  0  0  0
    0.2382    2.0103    0.4190 H   0  0  0  0  0  0  0  0  0  0  0  0
  1  2  1  0
  2  3  1  0
  3  4  2  0
  4  5  1  0
  5  6  2  0
  6  7  1  0
  7  8  2  0
  8  9  1  0
  9 10  1  0
 10 11  1  0
 11 12  1  0
 12 13  1  0
 13 14  1  0
 14 15  1  0
 15 16  2  0
 15 17  1  0
 17 18  1  0
 18 19  1  0
 19 20  1  0
 20 21  1  0
 21 22  2  0
 22 23  1  0
 23 24  2  0
 24 25  1  0
 25 26  2  0
 20 27  1  0
 27 28  1  0
  8  3  1  0
 14 10  1  0
 28 17  1  0
 26 21  1  0
  1 29  1  0
  1 30  1  0
  1 31  1  0
  4 32  1  0
  5 33  1  0
  6 34  1  0
  7 35  1  0
  9 36  1  0
  9 37  1  0
 10 38  1  0
 11 39  1  0
 11 40  1  0
 12 41  1  0
 12 42  1  0
 13 43  1  0
 13 44  1  0
 17 45  1  0
 18 46  1  0
 18 47  1  0
 19 48  1  0
 19 49  1  0
 22 50  1  0
 24 51  1  0
 25 52  1  0
 27 53  1  0
 27 54  1  0
 28 55  1  0
 28 56  1  0
M  END
$$$$
OCNT-2317648
     RDKit          3D

  0  0  0  0  0  0  0  0  0  0999 V3000
M  V30 BEGIN CTAB
M  V30 COUNTS 53 56 0 0 0
M  V30 BEGIN ATOM
M  V30 1 O -0.993663 -1.558493 -0.187227 0
M  V30 2 C -0.730651 -0.670576 0.608883 0
M  V30 3 N -1.570885 -0.214845 1.589874 0
M  V30 4 C -2.873903 -0.835537 1.845459 0
M  V30 5 C -3.828069 -0.892353 0.635848 0
M  V30 6 C -4.121650 0.466710 0.036887 0
M  V30 7 C -5.022741 1.343312 0.655904 0
M  V30 8 C -5.276842 2.600656 0.105012 0
M  V30 9 C -4.634991 2.991841 -1.067496 0
M  V30 10 C -3.738162 2.127145 -1.691511 0
M  V30 11 C -3.482604 0.870470 -1.142237 0
M  V30 12 C -2.657069 -2.167402 2.511538 0
M  V30 13 N -1.914999 -2.425331 3.576956 0
M  V30 14 C -2.056234 -3.777938 3.753459 0
M  V30 15 C -2.895435 -4.288938 2.797589 0
M  V30 16 O -3.298176 -3.264496 1.998071 0
M  V30 17 N 0.452931 0.025922 0.631246 0
M  V30 18 C 1.465977 -0.192145 -0.391523 0 CFG=1
M  V30 19 C 1.060315 0.469144 -1.721360 0
M  V30 20 C 2.252842 0.843147 -2.605494 0
M  V30 21 C 3.448030 -0.072567 -2.369319 0
M  V30 22 C 3.947555 -0.008974 -0.912930 0 CFG=1
M  V30 23 C 5.069690 0.994710 -0.773447 0
M  V30 24 C 6.491576 0.594748 -1.075703 0
M  V30 25 C 6.071280 0.855186 0.344896 0
M  V30 26 C 2.823176 0.322426 0.086845 0
M  V30 27 H -1.071243 0.034557 2.431289 0
M  V30 28 H -3.334888 -0.189137 2.604458 0
M  V30 29 H -3.451693 -1.563380 -0.145142 0
M  V30 30 H -4.785869 -1.333326 0.945162 0
M  V30 31 H -5.536603 1.052530 1.567707 0
M  V30 32 H -5.977588 3.274729 0.589210 0
M  V30 33 H -4.835951 3.969766 -1.496963 0
M  V30 34 H -3.238979 2.427659 -2.608063 0
M  V30 35 H -2.779517 0.204314 -1.639164 0
M  V30 36 H -1.549769 -4.304216 4.551856 0
M  V30 37 H -3.276478 -5.270010 2.555651 0
M  V30 38 H 0.359115 0.968951 0.978764 0
M  V30 39 H 1.540787 -1.276666 -0.549901 0
M  V30 40 H 0.402597 -0.218895 -2.268182 0
M  V30 41 H 0.463148 1.373638 -1.543320 0
M  V30 42 H 1.951354 0.807796 -3.658867 0
M  V30 43 H 2.546800 1.880908 -2.400915 0
M  V30 44 H 4.253439 0.176239 -3.071390 0
M  V30 45 H 3.145059 -1.103351 -2.597827 0
M  V30 46 H 4.337724 -1.005846 -0.665803 0
M  V30 47 H 4.767874 2.000238 -1.049978 0
M  V30 48 H 7.132141 1.324361 -1.558608 0
M  V30 49 H 6.695248 -0.430312 -1.365383 0
M  V30 50 H 6.428910 1.761085 0.822539 0
M  V30 51 H 5.993629 0.003909 1.013148 0
M  V30 52 H 2.760823 1.407459 0.254391 0
M  V30 53 H 3.072630 -0.108821 1.065106 0
M  V30 END ATOM
M  V30 BEGIN BOND
M  V30 1 2 1 2
M  V30 2 1 2 3
M  V30 3 1 3 4
M  V30 4 1 4 5
M  V30 5 1 5 6
M  V30 6 2 6 7
M  V30 7 1 7 8
M  V30 8 2 8 9
M  V30 9 1 9 10
M  V30 10 2 10 11
M  V30 11 1 4 12
M  V30 12 2 12 13
M  V30 13 1 13 14
M  V30 14 2 14 15
M  V30 15 1 15 16
M  V30 16 1 2 17
M  V30 17 1 17 18
M  V30 18 1 18 19
M  V30 19 1 19 20
M  V30 20 1 20 21
M  V30 21 1 21 22
M  V30 22 1 22 23
M  V30 23 1 23 24
M  V30 24 1 24 25
M  V30 25 1 22 26
M  V30 26 1 11 6
M  V30 27 1 16 12
M  V30 28 1 26 18
M  V30 29 1 25 23
M  V30 30 1 3 27
M  V30 31 1 4 28
M  V30 32 1 5 29
M  V30 33 1 5 30
M  V30 34 1 7 31
M  V30 35 1 8 32
M  V30 36 1 9 33
M  V30 37 1 10 34
M  V30 38 1 11 35
M  V30 39 1 14 36
M  V30 40 1 15 37
M  V30 41 1 17 38
M  V30 42 1 18 39 CFG=3
M  V30 43 1 19 40
M  V30 44 1 19 41
M  V30 45 1 20 42
M  V30 46 1 20 43
M  V30 47 1 21 44
M  V30 48 1 21 45
M  V30 49 1 22 46 CFG=1
M  V30 50 1 23 47
M  V30 51 1 24 48
M  V30 52 1 24 49
M  V30 53 1 25 50
M  V30 54 1 25 51
M  V30 55 1 26 52
M  V30 56 1 26 53
M  V30 END BOND
M  V30 BEGIN COLLECTION
M  V30 MDLV30/STERAC1 ATOMS=(2 18 22)
M  V30 END COLLECTION
M  V30 END CTAB
M  END
>  <_CXSMILES_Data>  (1258) 
|&1:17,21|

$$$$
OCNT-2317650
     RDKit          3D

 60 63  0  0  0  0  0  0  0  0999 V2000
   -0.4513   -2.4961    2.2333 O   0  0  0  0  0  0  0  0  0  0  0  0
   -0.4580   -1.5061    1.5145 C   0  0  0  0  0  0  0  0  0  0  0  0
    0.5668   -0.5957    1.4418 N   0  0  0  0  0  0  0  0  0  0  0  0
    1.6929   -0.6935    2.3505 C   0  0  0  0  0  0  0  0  0  0  0  0
    2.9359    0.0740    1.8800 C   0  0  0  0  0  0  0  0  0  0  0  0
    2.7322    1.5989    1.8995 C   0  0  0  0  0  0  0  0  0  0  0  0
    3.5820    2.3116    0.8477 C   0  0  0  0  0  0  0  0  0  0  0  0
    4.8955    1.5783    0.5909 C   0  0  0  0  0  0  0  0  0  0  0  0
    4.7232    0.1880    0.1435 N   0  0  0  0  0  0  0  0  0  0  0  0
    4.9836    0.0112   -1.2961 C   0  0  0  0  0  0  0  0  0  0  0  0
    6.4415    0.1676   -1.6402 C   0  0  0  0  0  0  0  0  0  0  0  0
    7.5412   -0.3727   -0.9999 C   0  0  0  0  0  0  0  0  0  0  0  0
    8.7687   -0.0156   -1.6265 C   0  0  0  0  0  0  0  0  0  0  0  0
    8.5678    0.7822   -2.7295 C   0  0  0  0  0  0  0  0  0  0  0  0
    6.9089    1.0955   -3.0043 S   0  0  0  0  0  0  0  0  0  0  0  0
    3.4194   -0.3971    0.5008 C   0  0  0  0  0  0  0  0  0  0  0  0
   -1.4682   -1.2019    0.6423 N   0  0  0  0  0  0  0  0  0  0  0  0
   -2.6993   -1.9729    0.6448 C   0  0  0  0  0  0  0  0  0  0  0  0
   -3.5590   -1.6285   -0.5768 C   0  0  0  0  0  0  0  0  0  0  0  0
   -4.8844   -2.3740   -0.5920 C   0  0  0  0  0  0  0  0  0  0  0  0
   -5.8194   -1.4123    0.1028 C   0  0  0  0  0  0  0  0  0  0  0  0
   -5.2849   -0.0592   -0.3530 C   0  0  0  0  0  0  0  0  0  0  0  0
   -5.9258    0.4418   -1.6498 C   0  0  0  0  0  0  0  0  0  0  0  0
   -7.2125    1.1347   -1.2083 C   0  0  0  0  0  0  0  0  0  0  0  0
   -7.0235    1.4822    0.2695 C   0  0  0  0  0  0  0  0  0  0  0  0
   -5.5932    1.0829    0.6087 C   0  0  0  0  0  0  0  0  0  0  0  0
   -3.8737   -0.2172   -0.5314 O   0  0  0  0  0  0  0  0  0  0  0  0
    0.3004    0.3220    1.1220 H   0  0  0  0  0  0  0  0  0  0  0  0
    1.9451   -1.7523    2.4805 H   0  0  0  0  0  0  0  0  0  0  0  0
    1.3589   -0.3209    3.3254 H   0  0  0  0  0  0  0  0  0  0  0  0
    3.7302   -0.1556    2.6053 H   0  0  0  0  0  0  0  0  0  0  0  0
    1.6841    1.8786    1.7468 H   0  0  0  0  0  0  0  0  0  0  0  0
    2.9983    1.9708    2.8971 H   0  0  0  0  0  0  0  0  0  0  0  0
    3.0173    2.3863   -0.0900 H   0  0  0  0  0  0  0  0  0  0  0  0
    3.7810    3.3387    1.1730 H   0  0  0  0  0  0  0  0  0  0  0  0
    5.5044    2.1682   -0.1044 H   0  0  0  0  0  0  0  0  0  0  0  0
    5.4673    1.5521    1.5274 H   0  0  0  0  0  0  0  0  0  0  0  0
    4.3550    0.6942   -1.8826 H   0  0  0  0  0  0  0  0  0  0  0  0
    4.7060   -1.0087   -1.5966 H   0  0  0  0  0  0  0  0  0  0  0  0
    7.4590   -0.9922   -0.1150 H   0  0  0  0  0  0  0  0  0  0  0  0
    9.7484   -0.3291   -1.2858 H   0  0  0  0  0  0  0  0  0  0  0  0
    9.3151    1.1960   -3.3913 H   0  0  0  0  0  0  0  0  0  0  0  0
    3.5172   -1.4896    0.5003 H   0  0  0  0  0  0  0  0  0  0  0  0
    2.6652   -0.1394   -0.2550 H   0  0  0  0  0  0  0  0  0  0  0  0
   -1.5744   -0.2346    0.3683 H   0  0  0  0  0  0  0  0  0  0  0  0
   -2.4526   -3.0401    0.6613 H   0  0  0  0  0  0  0  0  0  0  0  0
   -3.2200   -1.7245    1.5771 H   0  0  0  0  0  0  0  0  0  0  0  0
   -2.9903   -1.8198   -1.4935 H   0  0  0  0  0  0  0  0  0  0  0  0
   -5.2124   -2.5198   -1.6284 H   0  0  0  0  0  0  0  0  0  0  0  0
   -4.8428   -3.3585   -0.1169 H   0  0  0  0  0  0  0  0  0  0  0  0
   -5.7107   -1.5270    1.1881 H   0  0  0  0  0  0  0  0  0  0  0  0
   -6.8698   -1.5866   -0.1485 H   0  0  0  0  0  0  0  0  0  0  0  0
   -6.1190   -0.3541   -2.3762 H   0  0  0  0  0  0  0  0  0  0  0  0
   -5.2637    1.1627   -2.1458 H   0  0  0  0  0  0  0  0  0  0  0  0
   -7.4026    2.0280   -1.8117 H   0  0  0  0  0  0  0  0  0  0  0  0
   -8.0737    0.4676   -1.3302 H   0  0  0  0  0  0  0  0  0  0  0  0
   -7.2029    2.5438    0.4660 H   0  0  0  0  0  0  0  0  0  0  0  0
   -7.7334    0.9102    0.8784 H   0  0  0  0  0  0  0  0  0  0  0  0
   -5.4791    0.8027    1.6606 H   0  0  0  0  0  0  0  0  0  0  0  0
   -4.9115    1.9247    0.4318 H   0  0  0  0  0  0  0  0  0  0  0  0
  1  2  2  0
  2  3  1  0
  3  4  1  0
  4  5  1  0
  5  6  1  0
  6  7  1  0
  7  8  1  0
  8  9  1  0
  9 10  1  0
 10 11  1  0
 11 12  2  0
 12 13  1  0
 13 14  2  0
 14 15  1  0
  9 16  1  0
  2 17  1  0
 17 18  1  0
 18 19  1  0
 19 20  1  0
 20 21  1  0
 21 22  1  0
 22 23  1  0
 23 24  1  0
 24 25  1  0
 25 26  1  0
 22 27  1  0
 16  5  1  0
 27 19  1  0
 15 11  1  0
 26 22  1  0
  3 28  1  0
  4 29  1  0
  4 30  1  0
  5 31  1  0
  6 32  1  0
  6 33  1  0
  7 34  1  0
  7 35  1  0
  8 36  1  0
  8 37  1  0
 10 38  1  0
 10 39  1  0
 12 40  1  0
 13 41  1  0
 14 42  1  0
 16 43  1  0
 16 44  1  0
 17 45  1  0
 18 46  1  0
 18 47  1  0
 19 48  1  0
 20 49  1  0
 20 50  1  0
 21 51  1  0
 21 52  1  0
 23 53  1  0
 23 54  1  0
 24 55  1  0
 24 56  1  0
 25 57  1  0
 25 58  1  0
 26 59  1  0
 26 60  1  0
M  END
$$$$
OCNT-2317654
     RDKit          3D

 54 56  0  0  0  0  0  0  0  0999 V2000
   -8.6743   -0.2579   -0.3765 C   0  0  0  0  0  0  0  0  0  0  0  0
   -7.5756   -1.1575   -1.4406 S   0  0  0  0  0  0  0  0  0  0  0  0
   -7.6951   -2.5690   -1.1287 O   0  0  0  0  0  0  0  0  0  0  0  0
   -7.7705   -0.6734   -2.7942 O   0  0  0  0  0  0  0  0  0  0  0  0
   -5.9655   -0.6314   -0.9034 C   0  0  0  0  0  0  0  0  0  0  0  0
   -5.3976   -1.2174    0.2306 C   0  0  0  0  0  0  0  0  0  0  0  0
   -4.1302   -0.8109    0.6507 C   0  0  0  0  0  0  0  0  0  0  0  0
   -3.4150    0.1645   -0.0671 C   0  0  0  0  0  0  0  0  0  0  0  0
   -2.0362    0.6116    0.3875 C   0  0  0  0  0  0  0  0  0  0  0  0
   -2.1813    1.2059    1.6839 O   0  0  0  0  0  0  0  0  0  0  0  0
   -1.0097   -0.5570    0.4209 C   0  0  0  0  0  0  0  0  0  0  0  0
    0.4121   -0.1379    0.4406 N   0  0  0  0  0  0  0  0  0  0  0  0
    0.7349    0.6625    1.6353 C   0  0  0  0  0  0  0  0  0  0  0  0
    2.2236    0.6365    2.0154 C   0  0  0  0  0  0  0  0  0  0  0  0
    3.1131    0.4773    0.7753 C   0  0  0  0  0  0  0  0  0  0  0  0
    4.6129    0.5755    1.1305 C   0  0  0  0  0  0  0  0  0  0  0  0
    4.9902   -0.4838    2.0137 O   0  0  0  0  0  0  0  0  0  0  0  0
    5.5104    0.5954   -0.0952 C   0  0  0  0  0  0  0  0  0  0  0  0
    6.2718   -0.5195   -0.4767 C   0  0  0  0  0  0  0  0  0  0  0  0
    7.0828   -0.4787   -1.6126 C   0  0  0  0  0  0  0  0  0  0  0  0
    7.1426    0.6780   -2.3849 C   0  0  0  0  0  0  0  0  0  0  0  0
    6.3939    1.7949   -2.0215 C   0  0  0  0  0  0  0  0  0  0  0  0
    5.5854    1.7556   -0.8835 C   0  0  0  0  0  0  0  0  0  0  0  0
    2.7441   -0.8381    0.0544 C   0  0  0  0  0  0  0  0  0  0  0  0
    1.3034   -1.2931    0.3172 C   0  0  0  0  0  0  0  0  0  0  0  0
   -3.9998    0.7333   -1.2113 C   0  0  0  0  0  0  0  0  0  0  0  0
   -5.2701    0.3344   -1.6335 C   0  0  0  0  0  0  0  0  0  0  0  0
   -9.6995   -0.5123   -0.6545 H   0  0  0  0  0  0  0  0  0  0  0  0
   -8.5081    0.8125   -0.5106 H   0  0  0  0  0  0  0  0  0  0  0  0
   -8.4885   -0.5526    0.6588 H   0  0  0  0  0  0  0  0  0  0  0  0
   -5.9246   -1.9939    0.7836 H   0  0  0  0  0  0  0  0  0  0  0  0
   -3.6941   -1.2652    1.5419 H   0  0  0  0  0  0  0  0  0  0  0  0
   -1.6655    1.3936   -0.2879 H   0  0  0  0  0  0  0  0  0  0  0  0
   -2.9761    1.7652    1.6436 H   0  0  0  0  0  0  0  0  0  0  0  0
   -1.1639   -1.1596   -0.4841 H   0  0  0  0  0  0  0  0  0  0  0  0
   -1.2106   -1.2054    1.2848 H   0  0  0  0  0  0  0  0  0  0  0  0
    0.1697    0.3246    2.5142 H   0  0  0  0  0  0  0  0  0  0  0  0
    0.4472    1.7031    1.4385 H   0  0  0  0  0  0  0  0  0  0  0  0
    2.4747    1.5583    2.5550 H   0  0  0  0  0  0  0  0  0  0  0  0
    2.3993   -0.1965    2.7100 H   0  0  0  0  0  0  0  0  0  0  0  0
    2.8708    1.3071    0.0952 H   0  0  0  0  0  0  0  0  0  0  0  0
    4.7972    1.5101    1.6792 H   0  0  0  0  0  0  0  0  0  0  0  0
    4.6558   -0.2505    2.8953 H   0  0  0  0  0  0  0  0  0  0  0  0
    6.2356   -1.4338    0.1120 H   0  0  0  0  0  0  0  0  0  0  0  0
    7.6659   -1.3528   -1.8931 H   0  0  0  0  0  0  0  0  0  0  0  0
    7.7725    0.7089   -3.2700 H   0  0  0  0  0  0  0  0  0  0  0  0
    6.4381    2.6968   -2.6269 H   0  0  0  0  0  0  0  0  0  0  0  0
    5.0094    2.6385   -0.6150 H   0  0  0  0  0  0  0  0  0  0  0  0
    2.8866   -0.6910   -1.0234 H   0  0  0  0  0  0  0  0  0  0  0  0
    3.4132   -1.6549    0.3450 H   0  0  0  0  0  0  0  0  0  0  0  0
    0.9982   -1.9356   -0.5187 H   0  0  0  0  0  0  0  0  0  0  0  0
    1.2615   -1.9131    1.2222 H   0  0  0  0  0  0  0  0  0  0  0  0
   -3.4644    1.4863   -1.7891 H   0  0  0  0  0  0  0  0  0  0  0  0
   -5.7003    0.7740   -2.5327 H   0  0  0  0  0  0  0  0  0  0  0  0
  1  2  1  0
  2  3  2  0
  2  4  2  0
  2  5  1  0
  5  6  1  0
  6  7  2  0
  7  8  1  0
  8  9  1  0
  9 10  1  0
  9 11  1  0
 11 12  1  0
 12 13  1  0
 13 14  1  0
 14 15  1  0
 15 16  1  0
 16 17  1  0
 16 18  1  0
 18 19  2  0
 19 20  1  0
 20 21  2  0
 21 22  1  0
 22 23  2  0
 15 24  1  0
 24 25  1  0
  8 26  2  0
 26 27  1  0
 27  5  2  0
 25 12  1  0
 23 18  1  0
  1 28  1  0
  1 29  1  0
  1 30  1  0
  6 31  1  0
  7 32  1  0
  9 33  1  0
 10 34  1  0
 11 35  1  0
 11 36  1  0
 13 37  1  0
 13 38  1  0
 14 39  1  0
 14 40  1  0
 15 41  1  0
 16 42  1  0
 17 43  1  0
 19 44  1  0
 20 45  1  0
 21 46  1  0
 22 47  1  0
 23 48  1  0
 24 49  1  0
 24 50  1  0
 25 51  1  0
 25 52  1  0
 26 53  1  0
 27 54  1  0
M  END
$$$$
OCNT-2317662
     RDKit          3D

 59 61  0  0  0  0  0  0  0  0999 V2000
    9.4533   -0.1181    0.0163 C   0  0  0  0  0  0  0  0  0  0  0  0
    8.1797   -0.4420    0.5551 O   0  0  0  0  0  0  0  0  0  0  0  0
    7.2618   -0.9516   -0.4215 C   0  0  0  0  0  0  0  0  0  0  0  0
    6.6468    0.1616   -1.2849 C   0  0  0  0  0  0  0  0  0  0  0  0
    5.9555    1.1561   -0.4590 N   0  0  0  0  0  0  0  0  0  0  0  0
    4.6803    0.8851    0.0527 C   0  0  0  0  0  0  0  0  0  0  0  0
    3.7301    0.0961   -0.5998 C   0  0  0  0  0  0  0  0  0  0  0  0
    2.4413   -0.0817   -0.0743 C   0  0  0  0  0  0  0  0  0  0  0  0
    2.0477    0.5628    1.1041 C   0  0  0  0  0  0  0  0  0  0  0  0
    0.6892    0.3735    1.7415 C   0  0  0  0  0  0  0  0  0  0  0  0
   -0.3528   -0.0583    0.8339 N   0  0  0  0  0  0  0  0  0  0  0  0
   -1.0665    0.8493    0.0984 C   0  0  0  0  0  0  0  0  0  0  0  0
   -0.9004    2.0606    0.2160 O   0  0  0  0  0  0  0  0  0  0  0  0
   -2.0093    0.3049   -0.7656 N   0  0  0  0  0  0  0  0  0  0  0  0
   -2.8271    1.2407   -1.5201 C   0  0  0  0  0  0  0  0  0  0  0  0
   -3.9468    1.8914   -0.7111 C   0  0  0  0  0  0  0  0  0  0  0  0
   -4.5447    1.0956    0.4534 C   0  0  0  0  0  0  0  0  0  0  0  0
   -4.8710   -0.3962    0.2195 C   0  0  0  0  0  0  0  0  0  0  0  0
   -5.6700   -0.6461   -1.0697 C   0  0  0  0  0  0  0  0  0  0  0  0
   -6.3813   -1.9766   -0.8455 C   0  0  0  0  0  0  0  0  0  0  0  0
   -6.5931   -2.0874    0.6618 C   0  0  0  0  0  0  0  0  0  0  0  0
   -5.8944   -0.8764    1.2794 C   0  0  0  0  0  0  0  0  0  0  0  0
   -3.5910   -1.2726    0.3451 C   0  0  0  0  0  0  0  0  0  0  0  0
   -2.5139   -1.0646   -0.7176 C   0  0  0  0  0  0  0  0  0  0  0  0
    2.9850    1.3841    1.7419 C   0  0  0  0  0  0  0  0  0  0  0  0
    4.2697    1.5544    1.2125 C   0  0  0  0  0  0  0  0  0  0  0  0
   10.1059    0.1804    0.8413 H   0  0  0  0  0  0  0  0  0  0  0  0
    9.3835    0.7188   -0.6822 H   0  0  0  0  0  0  0  0  0  0  0  0
    9.8981   -0.9870   -0.4785 H   0  0  0  0  0  0  0  0  0  0  0  0
    7.7607   -1.6974   -1.0503 H   0  0  0  0  0  0  0  0  0  0  0  0
    6.4720   -1.4702    0.1311 H   0  0  0  0  0  0  0  0  0  0  0  0
    6.0021   -0.2611   -2.0603 H   0  0  0  0  0  0  0  0  0  0  0  0
    7.4452    0.6911   -1.8153 H   0  0  0  0  0  0  0  0  0  0  0  0
    6.5765    1.4739    0.2871 H   0  0  0  0  0  0  0  0  0  0  0  0
    3.9571   -0.3891   -1.5424 H   0  0  0  0  0  0  0  0  0  0  0  0
    1.7502   -0.7144   -0.6227 H   0  0  0  0  0  0  0  0  0  0  0  0
    0.3688    1.3034    2.2265 H   0  0  0  0  0  0  0  0  0  0  0  0
    0.7740   -0.4016    2.5115 H   0  0  0  0  0  0  0  0  0  0  0  0
   -0.2307   -0.9706    0.4358 H   0  0  0  0  0  0  0  0  0  0  0  0
   -3.2385    0.7227   -2.3939 H   0  0  0  0  0  0  0  0  0  0  0  0
   -2.1797    2.0285   -1.9266 H   0  0  0  0  0  0  0  0  0  0  0  0
   -4.7467    2.1813   -1.4041 H   0  0  0  0  0  0  0  0  0  0  0  0
   -3.5717    2.8371   -0.2971 H   0  0  0  0  0  0  0  0  0  0  0  0
   -5.4582    1.6289    0.7498 H   0  0  0  0  0  0  0  0  0  0  0  0
   -3.8768    1.1816    1.3209 H   0  0  0  0  0  0  0  0  0  0  0  0
   -6.4231    0.1412   -1.2073 H   0  0  0  0  0  0  0  0  0  0  0  0
   -5.0611   -0.6717   -1.9756 H   0  0  0  0  0  0  0  0  0  0  0  0
   -7.3264   -2.0246   -1.3956 H   0  0  0  0  0  0  0  0  0  0  0  0
   -5.7565   -2.8060   -1.1967 H   0  0  0  0  0  0  0  0  0  0  0  0
   -6.1605   -3.0219    1.0371 H   0  0  0  0  0  0  0  0  0  0  0  0
   -7.6575   -2.0959    0.9194 H   0  0  0  0  0  0  0  0  0  0  0  0
   -5.4317   -1.1215    2.2412 H   0  0  0  0  0  0  0  0  0  0  0  0
   -6.6495   -0.1034    1.4725 H   0  0  0  0  0  0  0  0  0  0  0  0
   -3.8585   -2.3363    0.3308 H   0  0  0  0  0  0  0  0  0  0  0  0
   -3.1447   -1.0977    1.3338 H   0  0  0  0  0  0  0  0  0  0  0  0
   -1.6911   -1.7571   -0.5200 H   0  0  0  0  0  0  0  0  0  0  0  0
   -2.8850   -1.3395   -1.7111 H   0  0  0  0  0  0  0  0  0  0  0  0
    2.7194    1.9147    2.6541 H   0  0  0  0  0  0  0  0  0  0  0  0
    4.9563    2.2242    1.7245 H   0  0  0  0  0  0  0  0  0  0  0  0
  1  2  1  0
  2  3  1  0
  3  4  1  0
  4  5  1  0
  5  6  1  0
  6  7  1  0
  7  8  2  0
  8  9  1  0
  9 10  1  0
 10 11  1  0
 11 12  1  0
 12 13  2  0
 12 14  1  0
 14 15  1  0
 15 16  1  0
 16 17  1  0
 17 18  1  0
 18 19  1  0
 19 20  1  0
 20 21  1  0
 21 22  1  0
 18 23  1  0
 23 24  1  0
  9 25  2  0
 25 26  1  0
 26  6  2  0
 24 14  1  0
 22 18  1  0
  1 27  1  0
  1 28  1  0
  1 29  1  0
  3 30  1  0
  3 31  1  0
  4 32  1  0
  4 33  1  0
  5 34  1  0
  7 35  1  0
  8 36  1  0
 10 37  1  0
 10 38  1  0
 11 39  1  0
 15 40  1  0
 15 41  1  0
 16 42  1  0
 16 43  1  0
 17 44  1  0
 17 45  1  0
 19 46  1  0
 19 47  1  0
 20 48  1  0
 20 49  1  0
 21 50  1  0
 21 51  1  0
 22 52  1  0
 22 53  1  0
 23 54  1  0
 23 55  1  0
 24 56  1  0
 24 57  1  0
 25 58  1  0
 26 59  1  0
M  END
$$$$
OCNT-2317667
     RDKit          3D

 47 50  0  0  0  0  0  0  0  0999 V2000
   -6.0595    0.8618    1.5321 C   0  0  0  0  0  0  0  0  0  0  0  0
   -5.5634    0.6138    0.2000 N   0  0  0  0  0  0  0  0  0  0  0  0
   -6.4206    0.2103   -0.7626 N   0  0  0  0  0  0  0  0  0  0  0  0
   -5.6558    0.0927   -1.8522 C   0  0  0  0  0  0  0  0  0  0  0  0
   -4.3135    0.4197   -1.5953 C   0  0  0  0  0  0  0  0  0  0  0  0
   -4.2855    0.7442   -0.2566 C   0  0  0  0  0  0  0  0  0  0  0  0
   -3.0851    1.1699    0.5116 C   0  0  0  0  0  0  0  0  0  0  0  0
   -1.8112    0.7533   -0.2693 C   0  0  0  0  0  0  0  0  0  0  0  0
   -0.5736    1.4080    0.3384 C   0  0  0  0  0  0  0  0  0  0  0  0
   -0.6651    2.4708    0.9551 O   0  0  0  0  0  0  0  0  0  0  0  0
    0.6525    0.7918    0.1282 N   0  0  0  0  0  0  0  0  0  0  0  0
    1.8605    1.4151    0.6784 C   0  0  0  0  0  0  0  0  0  0  0  0
    2.8134    0.3992    1.3358 C   0  0  0  0  0  0  0  0  0  0  0  0
    3.1642   -0.7102    0.4232 N   0  0  0  0  0  0  0  0  0  0  0  0
    4.3890   -1.3524    0.5361 C   0  0  0  0  0  0  0  0  0  0  0  0
    4.9985   -2.0543   -0.5169 C   0  0  0  0  0  0  0  0  0  0  0  0
    6.1981   -2.6961   -0.4678 N   0  0  0  0  0  0  0  0  0  0  0  0
    6.8490   -2.6487    0.7121 C   0  0  0  0  0  0  0  0  0  0  0  0
    6.3470   -2.0020    1.8214 C   0  0  0  0  0  0  0  0  0  0  0  0
    7.0307   -1.9944    2.9731 F   0  0  0  0  0  0  0  0  0  0  0  0
    5.1154   -1.3578    1.7346 C   0  0  0  0  0  0  0  0  0  0  0  0
    2.2983   -0.9033   -0.7521 C   0  0  0  0  0  0  0  0  0  0  0  0
    0.8318   -0.5536   -0.4314 C   0  0  0  0  0  0  0  0  0  0  0  0
   -1.9337    1.1398   -1.7671 C   0  0  0  0  0  0  0  0  0  0  0  0
   -3.1093    0.4211   -2.4614 C   0  0  0  0  0  0  0  0  0  0  0  0
   -6.0403   -0.0814    2.0822 H   0  0  0  0  0  0  0  0  0  0  0  0
   -7.0805    1.2476    1.4664 H   0  0  0  0  0  0  0  0  0  0  0  0
   -5.4248    1.6040    2.0227 H   0  0  0  0  0  0  0  0  0  0  0  0
   -6.1089   -0.2263   -2.7800 H   0  0  0  0  0  0  0  0  0  0  0  0
   -3.1269    2.2567    0.6547 H   0  0  0  0  0  0  0  0  0  0  0  0
   -3.0718    0.7112    1.5073 H   0  0  0  0  0  0  0  0  0  0  0  0
   -1.7195   -0.3366   -0.1822 H   0  0  0  0  0  0  0  0  0  0  0  0
    2.3657    1.9033   -0.1646 H   0  0  0  0  0  0  0  0  0  0  0  0
    1.6075    2.1950    1.4035 H   0  0  0  0  0  0  0  0  0  0  0  0
    2.3376   -0.0206    2.2297 H   0  0  0  0  0  0  0  0  0  0  0  0
    3.7078    0.9505    1.6486 H   0  0  0  0  0  0  0  0  0  0  0  0
    4.5330   -2.1140   -1.4966 H   0  0  0  0  0  0  0  0  0  0  0  0
    7.8088   -3.1522    0.7478 H   0  0  0  0  0  0  0  0  0  0  0  0
    4.7370   -0.8800    2.6303 H   0  0  0  0  0  0  0  0  0  0  0  0
    2.6604   -0.2741   -1.5731 H   0  0  0  0  0  0  0  0  0  0  0  0
    2.3156   -1.9468   -1.0856 H   0  0  0  0  0  0  0  0  0  0  0  0
    0.4421   -1.2572    0.3155 H   0  0  0  0  0  0  0  0  0  0  0  0
    0.2275   -0.6616   -1.3352 H   0  0  0  0  0  0  0  0  0  0  0  0
   -1.0093    0.9287   -2.3149 H   0  0  0  0  0  0  0  0  0  0  0  0
   -2.0840    2.2258   -1.8406 H   0  0  0  0  0  0  0  0  0  0  0  0
   -3.3244    0.9060   -3.4193 H   0  0  0  0  0  0  0  0  0  0  0  0
   -2.8247   -0.6168   -2.6728 H   0  0  0  0  0  0  0  0  0  0  0  0
  1  2  1  0
  2  3  1  0
  3  4  2  0
  4  5  1  0
  5  6  2  0
  6  7  1  0
  7  8  1  0
  8  9  1  0
  9 10  2  0
  9 11  1  0
 11 12  1  0
 12 13  1  0
 13 14  1  0
 14 15  1  0
 15 16  2  0
 16 17  1  0
 17 18  2  0
 18 19  1  0
 19 20  1  0
 19 21  2  0
 14 22  1  0
 22 23  1  0
  8 24  1  0
 24 25  1  0
  6  2  1  0
 23 11  1  0
 25  5  1  0
 21 15  1  0
  1 26  1  0
  1 27  1  0
  1 28  1  0
  4 29  1  0
  7 30  1  0
  7 31  1  0
  8 32  1  0
 12 33  1  0
 12 34  1  0
 13 35  1  0
 13 36  1  0
 16 37  1  0
 18 38  1  0
 21 39  1  0
 22 40  1  0
 22 41  1  0
 23 42  1  0
 23 43  1  0
 24 44  1  0
 24 45  1  0
 25 46  1  0
 25 47  1  0
M  END
$$$$
OCNT-2317673
     RDKit          3D

 41 44  0  0  0  0  0  0  0  0999 V2000
    4.4650    1.1415   -2.4718 C   0  0  0  0  0  0  0  0  0  0  0  0
    3.7210    2.0566   -1.7286 C   0  0  0  0  0  0  0  0  0  0  0  0
    2.7598    1.6087   -0.8166 C   0  0  0  0  0  0  0  0  0  0  0  0
    2.5392    0.2415   -0.6463 C   0  0  0  0  0  0  0  0  0  0  0  0
    1.6396   -0.3297    0.2094 O   0  0  0  0  0  0  0  0  0  0  0  0
    0.7817    0.5513    0.9454 C   0  0  0  0  0  0  0  0  0  0  0  0
   -0.2027   -0.2530    1.8248 C   0  0  2  0  0  0  0  0  0  0  0  0
    0.5666   -1.2031    2.7755 C   0  0  0  0  0  0  0  0  0  0  0  0
   -0.2158   -2.5068    2.7434 C   0  0  0  0  0  0  0  0  0  0  0  0
   -0.7529   -2.5497    1.3196 C   0  0  0  0  0  0  0  0  0  0  0  0
   -1.0936   -1.1575    1.0761 N   0  0  0  0  0  0  0  0  0  0  0  0
   -1.8553   -0.8144   -0.0246 C   0  0  0  0  0  0  0  0  0  0  0  0
   -2.0790   -1.8180   -0.9171 N   0  0  0  0  0  0  0  0  0  0  0  0
   -2.8051   -1.5615   -2.0149 C   0  0  0  0  0  0  0  0  0  0  0  0
   -3.3573   -0.3331   -2.2797 C   0  0  0  0  0  0  0  0  0  0  0  0
   -3.1709    0.6900   -1.3770 C   0  0  0  0  0  0  0  0  0  0  0  0
   -3.7506    1.8742   -1.6638 N   0  0  0  0  0  0  0  0  0  0  0  0
   -3.5858    2.8661   -0.7671 C   0  0  0  0  0  0  0  0  0  0  0  0
   -2.8591    2.6911    0.3862 C   0  0  0  0  0  0  0  0  0  0  0  0
   -2.2637    1.5184    0.6847 N   0  0  0  0  0  0  0  0  0  0  0  0
   -2.4078    0.4816   -0.2018 C   0  0  0  0  0  0  0  0  0  0  0  0
    3.2897   -0.6695   -1.3942 C   0  0  0  0  0  0  0  0  0  0  0  0
    4.2493   -0.2240   -2.3048 C   0  0  0  0  0  0  0  0  0  0  0  0
    5.2105    1.4924   -3.1803 H   0  0  0  0  0  0  0  0  0  0  0  0
    3.8883    3.1227   -1.8586 H   0  0  0  0  0  0  0  0  0  0  0  0
    2.2029    2.3521   -0.2570 H   0  0  0  0  0  0  0  0  0  0  0  0
    1.3935    1.1782    1.6065 H   0  0  0  0  0  0  0  0  0  0  0  0
    0.2418    1.1967    0.2475 H   0  0  0  0  0  0  0  0  0  0  0  0
   -0.8044    0.4307    2.4342 H   0  0  0  0  0  0  0  0  0  0  0  0
    1.5928   -1.3856    2.4374 H   0  0  0  0  0  0  0  0  0  0  0  0
    0.6310   -0.7921    3.7884 H   0  0  0  0  0  0  0  0  0  0  0  0
   -1.0450   -2.4599    3.4598 H   0  0  0  0  0  0  0  0  0  0  0  0
    0.3998   -3.3770    2.9874 H   0  0  0  0  0  0  0  0  0  0  0  0
   -1.6185   -3.2188    1.2614 H   0  0  0  0  0  0  0  0  0  0  0  0
    0.0196   -2.8905    0.6200 H   0  0  0  0  0  0  0  0  0  0  0  0
   -2.9349   -2.3979   -2.6950 H   0  0  0  0  0  0  0  0  0  0  0  0
   -3.9398   -0.1723   -3.1796 H   0  0  0  0  0  0  0  0  0  0  0  0
   -4.0612    3.8102   -1.0055 H   0  0  0  0  0  0  0  0  0  0  0  0
   -2.7327    3.4895    1.1077 H   0  0  0  0  0  0  0  0  0  0  0  0
    3.1201   -1.7359   -1.2676 H   0  0  0  0  0  0  0  0  0  0  0  0
    4.8241   -0.9431   -2.8817 H   0  0  0  0  0  0  0  0  0  0  0  0
  1  2  2  0
  2  3  1  0
  3  4  2  0
  4  5  1  0
  5  6  1  0
  6  7  1  0
  7  8  1  0
  8  9  1  0
  9 10  1  0
 10 11  1  0
 11 12  1  0
 12 13  1  0
 13 14  2  0
 14 15  1  0
 15 16  2  0
 16 17  1  0
 17 18  2  0
 18 19  1  0
 19 20  2  0
 20 21  1  0
  4 22  1  0
 22 23  2  0
 23  1  1  0
 11  7  1  0
 21 12  2  0
 21 16  1  0
  1 24  1  0
  2 25  1  0
  3 26  1  0
  6 27  1  0
  6 28  1  0
  7 29  1  1
  8 30  1  0
  8 31  1  0
  9 32  1  0
  9 33  1  0
 10 34  1  0
 10 35  1  0
 14 36  1  0
 15 37  1  0
 18 38  1  0
 19 39  1  0
 22 40  1  0
 23 41  1  0
M  END
$$$$
OCNT-2317689
     RDKit          3D

 46 49  0  0  0  0  0  0  0  0999 V2000
    2.3040    1.8253   -2.3190 O   0  0  0  0  0  0  0  0  0  0  0  0
    2.0227    1.0314   -1.4202 C   0  0  0  0  0  0  0  0  0  0  0  0
    3.0052    0.7145   -0.3088 C   0  0  0  0  0  0  0  0  0  0  0  0
    4.2429    1.6041   -0.3799 C   0  0  0  0  0  0  0  0  0  0  0  0
    5.1671    1.3674    0.7638 C   0  0  0  0  0  0  0  0  0  0  0  0
    5.6899    2.2768    1.6589 C   0  0  0  0  0  0  0  0  0  0  0  0
    6.4837    1.5427    2.4958 N   0  0  0  0  0  0  0  0  0  0  0  0
    6.4090    0.2394    2.0959 C   0  0  0  0  0  0  0  0  0  0  0  0
    5.6234    0.1010    1.0535 N   0  0  0  0  0  0  0  0  0  0  0  0
    0.7905    0.3821   -1.3733 N   0  0  0  0  0  0  0  0  0  0  0  0
    0.4025   -0.5834   -0.3446 C   0  0  0  0  0  0  0  0  0  0  0  0
   -0.5804   -1.6303   -0.8587 C   0  0  0  0  0  0  0  0  0  0  0  0
   -1.8002   -1.0298   -1.5806 C   0  0  0  0  0  0  0  0  0  0  0  0
   -3.1044   -1.3268   -0.8785 C   0  0  0  0  0  0  0  0  0  0  0  0
   -4.0910   -2.1594   -1.3769 C   0  0  0  0  0  0  0  0  0  0  0  0
   -5.1210   -2.2069   -0.4801 N   0  0  0  0  0  0  0  0  0  0  0  0
   -4.8364   -1.4210    0.6095 C   0  0  0  0  0  0  0  0  0  0  0  0
   -5.5960   -1.1769    1.7605 C   0  0  0  0  0  0  0  0  0  0  0  0
   -5.0524   -0.3208    2.7143 C   0  0  0  0  0  0  0  0  0  0  0  0
   -5.7490   -0.0624    3.8299 F   0  0  0  0  0  0  0  0  0  0  0  0
   -3.8110    0.2724    2.5406 C   0  0  0  0  0  0  0  0  0  0  0  0
   -3.0649    0.0160    1.3843 C   0  0  0  0  0  0  0  0  0  0  0  0
   -3.5787   -0.8496    0.3921 C   0  0  0  0  0  0  0  0  0  0  0  0
   -1.6277    0.4570   -1.9122 C   0  0  0  0  0  0  0  0  0  0  0  0
   -0.2065    0.7376   -2.3805 C   0  0  0  0  0  0  0  0  0  0  0  0
    2.5058    0.8551    0.6565 H   0  0  0  0  0  0  0  0  0  0  0  0
    3.3048   -0.3350   -0.4020 H   0  0  0  0  0  0  0  0  0  0  0  0
    4.7855    1.4212   -1.3156 H   0  0  0  0  0  0  0  0  0  0  0  0
    3.9419    2.6592   -0.3936 H   0  0  0  0  0  0  0  0  0  0  0  0
    5.5730    3.3467    1.7633 H   0  0  0  0  0  0  0  0  0  0  0  0
    7.0266    1.8947    3.2725 H   0  0  0  0  0  0  0  0  0  0  0  0
    6.9443   -0.5549    2.5972 H   0  0  0  0  0  0  0  0  0  0  0  0
   -0.0330   -0.0115    0.4807 H   0  0  0  0  0  0  0  0  0  0  0  0
    1.2838   -1.0949    0.0522 H   0  0  0  0  0  0  0  0  0  0  0  0
   -0.0432   -2.2671   -1.5758 H   0  0  0  0  0  0  0  0  0  0  0  0
   -0.8775   -2.2909   -0.0357 H   0  0  0  0  0  0  0  0  0  0  0  0
   -1.8540   -1.5505   -2.5497 H   0  0  0  0  0  0  0  0  0  0  0  0
   -4.1424   -2.7243   -2.2990 H   0  0  0  0  0  0  0  0  0  0  0  0
   -5.9698   -2.7438   -0.5956 H   0  0  0  0  0  0  0  0  0  0  0  0
   -6.5692   -1.6269    1.9165 H   0  0  0  0  0  0  0  0  0  0  0  0
   -3.4238    0.9365    3.3068 H   0  0  0  0  0  0  0  0  0  0  0  0
   -2.0998    0.4939    1.2608 H   0  0  0  0  0  0  0  0  0  0  0  0
   -1.8472    1.0867   -1.0426 H   0  0  0  0  0  0  0  0  0  0  0  0
   -2.3421    0.7499   -2.6916 H   0  0  0  0  0  0  0  0  0  0  0  0
    0.0234    0.1575   -3.2825 H   0  0  0  0  0  0  0  0  0  0  0  0
   -0.1084    1.7979   -2.6399 H   0  0  0  0  0  0  0  0  0  0  0  0
  1  2  2  0
  2  3  1  0
  3  4  1  0
  4  5  1  0
  5  6  2  0
  6  7  1  0
  7  8  1  0
  8  9  2  0
  2 10  1  0
 10 11  1  0
 11 12  1  0
 12 13  1  0
 13 14  1  0
 14 15  2  0
 15 16  1  0
 16 17  1  0
 17 18  2  0
 18 19  1  0
 19 20  1  0
 19 21  2  0
 21 22  1  0
 22 23  2  0
 13 24  1  0
 24 25  1  0
  9  5  1  0
 25 10  1  0
 23 14  1  0
 23 17  1  0
  3 26  1  0
  3 27  1  0
  4 28  1  0
  4 29  1  0
  6 30  1  0
  7 31  1  0
  8 32  1  0
 11 33  1  0
 11 34  1  0
 12 35  1  0
 12 36  1  0
 13 37  1  0
 15 38  1  0
 16 39  1  0
 18 40  1  0
 21 41  1  0
 22 42  1  0
 24 43  1  0
 24 44  1  0
 25 45  1  0
 25 46  1  0
M  END
$$$$
OCNT-2317693
     RDKit          3D

 56 59  0  0  0  0  0  0  0  0999 V2000
   -6.4445   -2.1871    1.5590 C   0  0  0  0  0  0  0  0  0  0  0  0
   -6.4392   -0.8048    1.0181 C   0  0  0  0  0  0  0  0  0  0  0  0
   -7.1663    0.1474    1.6115 N   0  0  0  0  0  0  0  0  0  0  0  0
   -6.9378    1.2403    0.8720 N   0  0  0  0  0  0  0  0  0  0  0  0
   -6.0904    1.0283   -0.1784 C   0  0  0  0  0  0  0  0  0  0  0  0
   -5.7210    2.1191   -1.1109 C   0  0  0  0  0  0  0  0  0  0  0  0
   -5.7278   -0.3047   -0.1115 C   0  0  0  0  0  0  0  0  0  0  0  0
   -4.8076   -1.0644   -1.0151 C   0  0  0  0  0  0  0  0  0  0  0  0
   -3.3859   -1.1715   -0.4615 C   0  0  0  0  0  0  0  0  0  0  0  0
   -2.5297    0.0505   -0.7552 C   0  0  0  0  0  0  0  0  0  0  0  0
   -2.8389    0.8669   -1.6232 O   0  0  0  0  0  0  0  0  0  0  0  0
   -1.3555    0.1825   -0.0183 N   0  0  0  0  0  0  0  0  0  0  0  0
   -0.6439   -0.9537    0.5990 C   0  0  0  0  0  0  0  0  0  0  0  0
    0.5225   -1.3891   -0.3095 C   0  0  0  0  0  0  0  0  0  0  0  0
    1.3963   -0.2433   -0.6041 N   0  0  0  0  0  0  0  0  0  0  0  0
    2.5488   -0.0921    0.1743 C   0  0  0  0  0  0  0  0  0  0  0  0
    2.8254   -0.9025    1.0600 O   0  0  0  0  0  0  0  0  0  0  0  0
    3.4219    1.1226   -0.1346 C   0  0  0  0  0  0  0  0  0  0  0  0
    4.8214    1.0013    0.3819 C   0  0  0  0  0  0  0  0  0  0  0  0
    5.3381    1.6058    1.5124 C   0  0  0  0  0  0  0  0  0  0  0  0
    6.6532    1.2451    1.6298 N   0  0  0  0  0  0  0  0  0  0  0  0
    7.0201    0.4307    0.5846 C   0  0  0  0  0  0  0  0  0  0  0  0
    8.2549   -0.1613    0.2928 C   0  0  0  0  0  0  0  0  0  0  0  0
    8.3363   -0.9604   -0.8511 C   0  0  0  0  0  0  0  0  0  0  0  0
    7.2253   -1.1598   -1.6668 C   0  0  0  0  0  0  0  0  0  0  0  0
    5.9980   -0.5606   -1.3597 C   0  0  0  0  0  0  0  0  0  0  0  0
    5.8895    0.2534   -0.2131 C   0  0  0  0  0  0  0  0  0  0  0  0
    0.6849    0.8933   -1.2191 C   0  0  0  0  0  0  0  0  0  0  0  0
   -0.4831    1.3289   -0.3124 C   0  0  0  0  0  0  0  0  0  0  0  0
   -7.0818   -2.2713    2.4454 H   0  0  0  0  0  0  0  0  0  0  0  0
   -5.4319   -2.4907    1.8421 H   0  0  0  0  0  0  0  0  0  0  0  0
   -6.8188   -2.8888    0.8068 H   0  0  0  0  0  0  0  0  0  0  0  0
   -7.3973    2.1039    1.1396 H   0  0  0  0  0  0  0  0  0  0  0  0
   -5.5134    1.7293   -2.1119 H   0  0  0  0  0  0  0  0  0  0  0  0
   -6.5311    2.8501   -1.2037 H   0  0  0  0  0  0  0  0  0  0  0  0
   -4.8303    2.6425   -0.7497 H   0  0  0  0  0  0  0  0  0  0  0  0
   -4.8138   -0.6263   -2.0197 H   0  0  0  0  0  0  0  0  0  0  0  0
   -5.2096   -2.0794   -1.1307 H   0  0  0  0  0  0  0  0  0  0  0  0
   -3.4172   -1.3470    0.6193 H   0  0  0  0  0  0  0  0  0  0  0  0
   -2.8906   -2.0240   -0.9418 H   0  0  0  0  0  0  0  0  0  0  0  0
   -1.3056   -1.8024    0.7784 H   0  0  0  0  0  0  0  0  0  0  0  0
   -0.2653   -0.6091    1.5683 H   0  0  0  0  0  0  0  0  0  0  0  0
    1.0833   -2.2060    0.1552 H   0  0  0  0  0  0  0  0  0  0  0  0
    0.1370   -1.7546   -1.2689 H   0  0  0  0  0  0  0  0  0  0  0  0
    2.9408    2.0043    0.3050 H   0  0  0  0  0  0  0  0  0  0  0  0
    3.4717    1.2639   -1.2205 H   0  0  0  0  0  0  0  0  0  0  0  0
    4.8779    2.2502    2.2494 H   0  0  0  0  0  0  0  0  0  0  0  0
    7.2719    1.5316    2.3752 H   0  0  0  0  0  0  0  0  0  0  0  0
    9.1206   -0.0122    0.9294 H   0  0  0  0  0  0  0  0  0  0  0  0
    9.2805   -1.4368   -1.1042 H   0  0  0  0  0  0  0  0  0  0  0  0
    7.3084   -1.7899   -2.5486 H   0  0  0  0  0  0  0  0  0  0  0  0
    5.1374   -0.7302   -1.9993 H   0  0  0  0  0  0  0  0  0  0  0  0
    0.3067    0.5503   -2.1892 H   0  0  0  0  0  0  0  0  0  0  0  0
    1.3480    1.7414   -1.3970 H   0  0  0  0  0  0  0  0  0  0  0  0
   -1.0435    2.1445   -0.7799 H   0  0  0  0  0  0  0  0  0  0  0  0
   -0.0994    1.6961    0.6470 H   0  0  0  0  0  0  0  0  0  0  0  0
  1  2  1  0
  2  3  2  0
  3  4  1  0
  4  5  1  0
  5  6  1  0
  5  7  2  0
  7  8  1  0
  8  9  1  0
  9 10  1  0
 10 11  2  0
 10 12  1  0
 12 13  1  0
 13 14  1  0
 14 15  1  0
 15 16  1  0
 16 17  2  0
 16 18  1  0
 18 19  1  0
 19 20  2  0
 20 21  1  0
 21 22  1  0
 22 23  2  0
 23 24  1  0
 24 25  2  0
 25 26  1  0
 26 27  2  0
 15 28  1  0
 28 29  1  0
  7  2  1  0
 29 12  1  0
 27 19  1  0
 27 22  1  0
  1 30  1  0
  1 31  1  0
  1 32  1  0
  4 33  1  0
  6 34  1  0
  6 35  1  0
  6 36  1  0
  8 37  1  0
  8 38  1  0
  9 39  1  0
  9 40  1  0
 13 41  1  0
 13 42  1  0
 14 43  1  0
 14 44  1  0
 18 45  1  0
 18 46  1  0
 20 47  1  0
 21 48  1  0
 23 49  1  0
 24 50  1  0
 25 51  1  0
 26 52  1  0
 28 53  1  0
 28 54  1  0
 29 55  1  0
 29 56  1  0
M  END
$$$$
OCNT-2317695
     RDKit          3D

 40 42  0  0  0  0  0  0  0  0999 V2000
    3.9699    2.1064    2.1845 C   0  0  0  0  0  0  0  0  0  0  0  0
    4.7615    1.2096    1.3006 C   0  0  0  0  0  0  0  0  0  0  0  0
    6.0830    1.1972    1.2958 N   0  0  0  0  0  0  0  0  0  0  0  0
    6.4457    0.1446    0.5133 C   0  0  0  0  0  0  0  0  0  0  0  0
    5.3374   -0.4899    0.0163 C   0  0  0  0  0  0  0  0  0  0  0  0
    4.2400    0.2168    0.4686 N   0  0  0  0  0  0  0  0  0  0  0  0
    2.8862   -0.0408    0.1100 C   0  0  0  0  0  0  0  0  0  0  0  0
    1.9408    0.9927    0.0752 C   0  0  0  0  0  0  0  0  0  0  0  0
    0.6164    0.7308   -0.2965 C   0  0  0  0  0  0  0  0  0  0  0  0
    0.2140   -0.5624   -0.6536 C   0  0  0  0  0  0  0  0  0  0  0  0
   -1.2224   -0.8429   -1.0261 C   0  0  0  0  0  0  0  0  0  0  0  0
   -1.9883   -1.2105    0.1617 N   0  0  0  0  0  0  0  0  0  0  0  0
   -3.4178   -1.3966   -0.1415 C   0  0  0  0  0  0  0  0  0  0  0  0
   -4.0615   -2.1369    1.0315 C   0  0  0  0  0  0  0  0  0  0  0  0
   -4.0765   -0.0573   -0.3508 C   0  0  0  0  0  0  0  0  0  0  0  0
   -5.1254    0.2714   -1.1849 C   0  0  0  0  0  0  0  0  0  0  0  0
   -5.3354    1.6091   -0.9943 N   0  0  0  0  0  0  0  0  0  0  0  0
   -4.4235    2.0445   -0.0760 C   0  0  0  0  0  0  0  0  0  0  0  0
   -3.6455    1.0685    0.3299 N   0  0  0  0  0  0  0  0  0  0  0  0
    1.1573   -1.5939   -0.6154 C   0  0  0  0  0  0  0  0  0  0  0  0
    2.4769   -1.3313   -0.2475 C   0  0  0  0  0  0  0  0  0  0  0  0
    3.3174   -2.3751   -0.1968 F   0  0  0  0  0  0  0  0  0  0  0  0
    4.5820    2.4226    3.0364 H   0  0  0  0  0  0  0  0  0  0  0  0
    3.6669    3.0104    1.6488 H   0  0  0  0  0  0  0  0  0  0  0  0
    3.0882    1.6052    2.5936 H   0  0  0  0  0  0  0  0  0  0  0  0
    7.4853   -0.1049    0.3455 H   0  0  0  0  0  0  0  0  0  0  0  0
    5.2530   -1.3350   -0.6506 H   0  0  0  0  0  0  0  0  0  0  0  0
    2.2040    2.0243    0.2828 H   0  0  0  0  0  0  0  0  0  0  0  0
   -0.1059    1.5464   -0.3104 H   0  0  0  0  0  0  0  0  0  0  0  0
   -1.2472   -1.6573   -1.7610 H   0  0  0  0  0  0  0  0  0  0  0  0
   -1.6334    0.0422   -1.5270 H   0  0  0  0  0  0  0  0  0  0  0  0
   -1.9440   -0.4249    0.8187 H   0  0  0  0  0  0  0  0  0  0  0  0
   -3.5347   -2.0156   -1.0399 H   0  0  0  0  0  0  0  0  0  0  0  0
   -3.5875   -3.1125    1.1875 H   0  0  0  0  0  0  0  0  0  0  0  0
   -3.9825   -1.5676    1.9654 H   0  0  0  0  0  0  0  0  0  0  0  0
   -5.1272   -2.3107    0.8434 H   0  0  0  0  0  0  0  0  0  0  0  0
   -5.7225   -0.3143   -1.8694 H   0  0  0  0  0  0  0  0  0  0  0  0
   -6.0380    2.1786   -1.4458 H   0  0  0  0  0  0  0  0  0  0  0  0
   -4.3766    3.0736    0.2545 H   0  0  0  0  0  0  0  0  0  0  0  0
    0.8703   -2.6145   -0.8541 H   0  0  0  0  0  0  0  0  0  0  0  0
  1  2  1  0
  2  3  2  0
  3  4  1  0
  4  5  2  0
  5  6  1  0
  6  7  1  0
  7  8  1  0
  8  9  2  0
  9 10  1  0
 10 11  1  0
 11 12  1  0
 12 13  1  0
 13 14  1  0
 13 15  1  0
 15 16  2  0
 16 17  1  0
 17 18  1  0
 18 19  2  0
 10 20  2  0
 20 21  1  0
 21 22  1  0
  6  2  1  0
 21  7  2  0
 19 15  1  0
  1 23  1  0
  1 24  1  0
  1 25  1  0
  4 26  1  0
  5 27  1  0
  8 28  1  0
  9 29  1  0
 11 30  1  0
 11 31  1  0
 12 32  1  0
 13 33  1  0
 14 34  1  0
 14 35  1  0
 14 36  1  0
 16 37  1  0
 17 38  1  0
 18 39  1  0
 20 40  1  0
M  END
$$$$
OCNT-2317700
     RDKit          3D

 51 54  0  0  0  0  0  0  0  0999 V2000
    1.1854   -0.0676   -1.7454 O   0  0  0  0  0  0  0  0  0  0  0  0
    0.8009   -0.0745   -0.5852 C   0  0  0  0  0  0  0  0  0  0  0  0
   -0.5133    0.0100   -0.2023 N   0  0  0  0  0  0  0  0  0  0  0  0
   -1.5593    0.0164   -1.2104 C   0  0  0  0  0  0  0  0  0  0  0  0
   -2.9867    0.2743   -0.6447 C   0  0  0  0  0  0  0  0  0  0  0  0
   -3.4632   -0.9635    0.1269 C   0  0  0  0  0  0  0  0  0  0  0  0
   -4.2274   -1.9696   -0.4980 C   0  0  0  0  0  0  0  0  0  0  0  0
   -4.6561   -3.1044    0.2031 C   0  0  0  0  0  0  0  0  0  0  0  0
   -4.3185   -3.2685    1.5429 C   0  0  0  0  0  0  0  0  0  0  0  0
   -3.5446   -2.3015    2.1676 C   0  0  0  0  0  0  0  0  0  0  0  0
   -3.1924   -2.4706    3.4498 F   0  0  0  0  0  0  0  0  0  0  0  0
   -3.1183   -1.1714    1.4723 C   0  0  0  0  0  0  0  0  0  0  0  0
   -2.3229   -0.2972    2.1073 F   0  0  0  0  0  0  0  0  0  0  0  0
   -3.0640    1.5819    0.1804 C   0  0  0  0  0  0  0  0  0  0  0  0
   -3.0637    2.7144   -0.8406 C   0  0  0  0  0  0  0  0  0  0  0  0
   -3.6835    2.1341   -2.1049 C   0  0  0  0  0  0  0  0  0  0  0  0
   -3.9378    0.6569   -1.8107 C   0  0  0  0  0  0  0  0  0  0  0  0
    1.6221   -0.1645    0.5104 N   0  0  0  0  0  0  0  0  0  0  0  0
    3.0750   -0.1592    0.3566 C   0  0  0  0  0  0  0  0  0  0  0  0
    3.6000    1.2773    0.0875 C   0  0  0  0  0  0  0  0  0  0  0  0
    5.1194    1.3060   -0.1701 C   0  0  0  0  0  0  0  0  0  0  0  0
    5.7992    0.4320    0.8143 C   0  0  0  0  0  0  0  0  0  0  0  0
    5.2111   -0.5288    1.6036 C   0  0  0  0  0  0  0  0  0  0  0  0
    6.2756   -1.0845    2.3324 C   0  0  0  0  0  0  0  0  0  0  0  0
    7.4477   -0.5187    2.0232 N   0  0  0  0  0  0  0  0  0  0  0  0
    7.1319    0.4000    1.0903 N   0  0  0  0  0  0  0  0  0  0  0  0
    3.7520   -0.7988    1.5998 C   0  0  0  0  0  0  0  0  0  0  0  0
   -0.7145   -0.4671    0.6658 H   0  0  0  0  0  0  0  0  0  0  0  0
   -1.2829    0.7754   -1.9519 H   0  0  0  0  0  0  0  0  0  0  0  0
   -1.5196   -0.9503   -1.7293 H   0  0  0  0  0  0  0  0  0  0  0  0
   -4.5017   -1.8931   -1.5486 H   0  0  0  0  0  0  0  0  0  0  0  0
   -5.2504   -3.8619   -0.3039 H   0  0  0  0  0  0  0  0  0  0  0  0
   -4.6405   -4.1443    2.0970 H   0  0  0  0  0  0  0  0  0  0  0  0
   -4.0016    1.6176    0.7519 H   0  0  0  0  0  0  0  0  0  0  0  0
   -2.2467    1.7083    0.8968 H   0  0  0  0  0  0  0  0  0  0  0  0
   -2.0383    3.0441   -1.0447 H   0  0  0  0  0  0  0  0  0  0  0  0
   -3.6189    3.5839   -0.4747 H   0  0  0  0  0  0  0  0  0  0  0  0
   -2.9968    2.2507   -2.9507 H   0  0  0  0  0  0  0  0  0  0  0  0
   -4.6144    2.6461   -2.3704 H   0  0  0  0  0  0  0  0  0  0  0  0
   -3.7869    0.0439   -2.7064 H   0  0  0  0  0  0  0  0  0  0  0  0
   -4.9879    0.5434   -1.5090 H   0  0  0  0  0  0  0  0  0  0  0  0
    1.2498    0.2810    1.3374 H   0  0  0  0  0  0  0  0  0  0  0  0
    3.3153   -0.7736   -0.5224 H   0  0  0  0  0  0  0  0  0  0  0  0
    3.0846    1.7268   -0.7694 H   0  0  0  0  0  0  0  0  0  0  0  0
    3.3646    1.9098    0.9545 H   0  0  0  0  0  0  0  0  0  0  0  0
    5.4884    2.3352   -0.1056 H   0  0  0  0  0  0  0  0  0  0  0  0
    5.3258    0.9386   -1.1822 H   0  0  0  0  0  0  0  0  0  0  0  0
    6.2532   -1.8721    3.0746 H   0  0  0  0  0  0  0  0  0  0  0  0
    7.8782    0.9602    0.6913 H   0  0  0  0  0  0  0  0  0  0  0  0
    3.5581   -1.8778    1.6116 H   0  0  0  0  0  0  0  0  0  0  0  0
    3.3147   -0.3848    2.5174 H   0  0  0  0  0  0  0  0  0  0  0  0
  1  2  2  0
  2  3  1  0
  3  4  1  0
  4  5  1  0
  5  6  1  0
  6  7  2  0
  7  8  1  0
  8  9  2  0
  9 10  1  0
 10 11  1  0
 10 12  2  0
 12 13  1  0
  5 14  1  0
 14 15  1  0
 15 16  1  0
 16 17  1  0
  2 18  1  0
 18 19  1  0
 19 20  1  0
 20 21  1  0
 21 22  1  0
 22 23  2  0
 23 24  1  0
 24 25  2  0
 25 26  1  0
 23 27  1  0
 17  5  1  0
 27 19  1  0
 12  6  1  0
 26 22  1  0
  3 28  1  0
  4 29  1  0
  4 30  1  0
  7 31  1  0
  8 32  1  0
  9 33  1  0
 14 34  1  0
 14 35  1  0
 15 36  1  0
 15 37  1  0
 16 38  1  0
 16 39  1  0
 17 40  1  0
 17 41  1  0
 18 42  1  0
 19 43  1  0
 20 44  1  0
 20 45  1  0
 21 46  1  0
 21 47  1  0
 24 48  1  0
 26 49  1  0
 27 50  1  0
 27 51  1  0
M  END
$$$$
OCNT-2317709
     RDKit          3D

 52 54  0  0  0  0  0  0  0  0999 V2000
   -2.9520   -2.1819   -1.9818 C   0  0  0  0  0  0  0  0  0  0  0  0
   -2.5775   -1.4720   -0.6791 C   0  0  0  0  0  0  0  0  0  0  0  0
   -1.8275   -2.4384    0.2404 C   0  0  0  0  0  0  0  0  0  0  0  0
   -1.7471   -0.2139   -0.9940 C   0  0  0  0  0  0  0  0  0  0  0  0
   -1.5107    0.6445    0.1495 N   0  0  0  0  0  0  0  0  0  0  0  0
   -2.4352    1.4476    0.7865 C   0  0  0  0  0  0  0  0  0  0  0  0
   -3.7996    1.7139    0.3559 C   0  0  0  0  0  0  0  0  0  0  0  0
   -4.1009    2.2618   -0.8931 C   0  0  0  0  0  0  0  0  0  0  0  0
   -5.4297    2.4918   -1.2458 C   0  0  0  0  0  0  0  0  0  0  0  0
   -6.4189    2.1710   -0.3305 C   0  0  0  0  0  0  0  0  0  0  0  0
   -6.1687    1.6541    0.8905 N   0  0  0  0  0  0  0  0  0  0  0  0
   -4.8662    1.4535    1.2110 C   0  0  0  0  0  0  0  0  0  0  0  0
   -1.8973    1.8862    1.9076 N   0  0  0  0  0  0  0  0  0  0  0  0
   -0.6110    1.4185    1.9830 N   0  0  0  0  0  0  0  0  0  0  0  0
   -0.3593    0.7128    0.9028 C   0  0  0  0  0  0  0  0  0  0  0  0
    0.7863    0.0564    0.5624 N   0  0  0  0  0  0  0  0  0  0  0  0
    1.5374    0.5942   -0.5967 C   0  0  0  0  0  0  0  0  0  0  0  0
    2.9442    1.1081   -0.2089 C   0  0  0  0  0  0  0  0  0  0  0  0
    3.8194    0.1193    0.4664 N   0  0  0  0  0  0  0  0  0  0  0  0
    4.8328   -0.4953   -0.4166 C   0  0  0  0  0  0  0  0  0  0  0  0
    5.6058   -1.6411    0.2623 C   0  0  0  0  0  0  0  0  0  0  0  0
    5.8736    0.5457   -0.8649 C   0  0  0  0  0  0  0  0  0  0  0  0
    2.9985   -0.8690    1.2074 C   0  0  0  0  0  0  0  0  0  0  0  0
    1.6544   -0.2994    1.7103 C   0  0  0  0  0  0  0  0  0  0  0  0
   -3.5661   -3.0662   -1.7810 H   0  0  0  0  0  0  0  0  0  0  0  0
   -3.5286   -1.5177   -2.6343 H   0  0  0  0  0  0  0  0  0  0  0  0
   -2.0601   -2.5056   -2.5291 H   0  0  0  0  0  0  0  0  0  0  0  0
   -3.5089   -1.1842   -0.1772 H   0  0  0  0  0  0  0  0  0  0  0  0
   -0.8650   -2.7328   -0.1916 H   0  0  0  0  0  0  0  0  0  0  0  0
   -1.6390   -1.9883    1.2199 H   0  0  0  0  0  0  0  0  0  0  0  0
   -2.4142   -3.3481    0.4079 H   0  0  0  0  0  0  0  0  0  0  0  0
   -0.7851   -0.5022   -1.4280 H   0  0  0  0  0  0  0  0  0  0  0  0
   -2.2432    0.3953   -1.7563 H   0  0  0  0  0  0  0  0  0  0  0  0
   -3.3108    2.5346   -1.5871 H   0  0  0  0  0  0  0  0  0  0  0  0
   -5.6875    2.9214   -2.2075 H   0  0  0  0  0  0  0  0  0  0  0  0
   -7.4687    2.3331   -0.5584 H   0  0  0  0  0  0  0  0  0  0  0  0
   -4.6986    1.0559    2.2099 H   0  0  0  0  0  0  0  0  0  0  0  0
    1.6417   -0.2088   -1.3368 H   0  0  0  0  0  0  0  0  0  0  0  0
    0.9885    1.4085   -1.0874 H   0  0  0  0  0  0  0  0  0  0  0  0
    2.8211    1.9513    0.4837 H   0  0  0  0  0  0  0  0  0  0  0  0
    3.4088    1.5335   -1.1028 H   0  0  0  0  0  0  0  0  0  0  0  0
    4.3414   -0.9077   -1.3075 H   0  0  0  0  0  0  0  0  0  0  0  0
    6.0709   -1.3088    1.1973 H   0  0  0  0  0  0  0  0  0  0  0  0
    6.4022   -2.0127   -0.3926 H   0  0  0  0  0  0  0  0  0  0  0  0
    4.9600   -2.4965    0.4842 H   0  0  0  0  0  0  0  0  0  0  0  0
    6.6632    0.0719   -1.4594 H   0  0  0  0  0  0  0  0  0  0  0  0
    5.4421    1.3299   -1.4925 H   0  0  0  0  0  0  0  0  0  0  0  0
    6.3499    1.0258   -0.0023 H   0  0  0  0  0  0  0  0  0  0  0  0
    3.5680   -1.2277    2.0721 H   0  0  0  0  0  0  0  0  0  0  0  0
    2.7737   -1.7324    0.5667 H   0  0  0  0  0  0  0  0  0  0  0  0
    1.1494   -1.0608    2.3173 H   0  0  0  0  0  0  0  0  0  0  0  0
    1.8443    0.5707    2.3532 H   0  0  0  0  0  0  0  0  0  0  0  0
  1  2  1  0
  2  3  1  0
  2  4  1  0
  4  5  1  0
  5  6  1  0
  6  7  1  0
  7  8  1  0
  8  9  2  0
  9 10  1  0
 10 11  2  0
 11 12  1  0
  6 13  2  0
 13 14  1  0
 14 15  2  0
 15 16  1  0
 16 17  1  0
 17 18  1  0
 18 19  1  0
 19 20  1  0
 20 21  1  0
 20 22  1  0
 19 23  1  0
 23 24  1  0
 15  5  1  0
 24 16  1  0
 12  7  2  0
  1 25  1  0
  1 26  1  0
  1 27  1  0
  2 28  1  0
  3 29  1  0
  3 30  1  0
  3 31  1  0
  4 32  1  0
  4 33  1  0
  8 34  1  0
  9 35  1  0
 10 36  1  0
 12 37  1  0
 17 38  1  0
 17 39  1  0
 18 40  1  0
 18 41  1  0
 20 42  1  0
 21 43  1  0
 21 44  1  0
 21 45  1  0
 22 46  1  0
 22 47  1  0
 22 48  1  0
 23 49  1  0
 23 50  1  0
 24 51  1  0
 24 52  1  0
M  END
$$$$
OCNT-2317724
     RDKit          3D

 45 48  0  0  0  0  0  0  0  0999 V2000
   -0.2236    0.6254    2.7077 O   0  0  0  0  0  0  0  0  0  0  0  0
   -0.4871   -0.3275    1.9768 C   0  0  0  0  0  0  0  0  0  0  0  0
    0.3115   -1.4595    1.9498 N   0  0  0  0  0  0  0  0  0  0  0  0
    1.5415   -1.5222    2.7027 C   0  0  0  0  0  0  0  0  0  0  0  0
    2.7204   -1.1590    1.8481 C   0  0  0  0  0  0  0  0  0  0  0  0
    3.4902   -2.1299    1.2043 C   0  0  0  0  0  0  0  0  0  0  0  0
    4.5705   -1.7494    0.4056 C   0  0  0  0  0  0  0  0  0  0  0  0
    4.8524   -0.3931    0.2651 C   0  0  0  0  0  0  0  0  0  0  0  0
    5.9432    0.0422   -0.5383 N   0  0  0  0  0  0  0  0  0  0  0  0
    6.3114    1.3543   -0.7519 C   0  0  0  0  0  0  0  0  0  0  0  0
    7.4042    1.3123   -1.5825 C   0  0  0  0  0  0  0  0  0  0  0  0
    7.7276    0.0200   -1.8920 N   0  0  0  0  0  0  0  0  0  0  0  0
    6.8409   -0.7155   -1.2555 C   0  0  0  0  0  0  0  0  0  0  0  0
    4.1114    0.5670    0.8755 N   0  0  0  0  0  0  0  0  0  0  0  0
    3.0697    0.1697    1.6421 C   0  0  0  0  0  0  0  0  0  0  0  0
   -1.6456   -0.3562    1.0584 C   0  0  0  0  0  0  0  0  0  0  0  0
   -2.3650    0.7531    0.8055 N   0  0  0  0  0  0  0  0  0  0  0  0
   -3.3220    0.3658   -0.0529 N   0  0  0  0  0  0  0  0  0  0  0  0
   -4.2804    1.3463   -0.5363 C   0  0  0  0  0  0  0  0  0  0  0  0
   -4.1197    1.6428   -2.0364 C   0  0  0  0  0  0  0  0  0  0  0  0
   -5.5406    1.7386   -2.5741 C   0  0  0  0  0  0  0  0  0  0  0  0
   -6.3007    0.7206   -1.7420 C   0  0  0  0  0  0  0  0  0  0  0  0
   -5.7481    0.9279   -0.3376 C   0  0  0  0  0  0  0  0  0  0  0  0
   -3.2505   -0.9588   -0.3709 C   0  0  0  0  0  0  0  0  0  0  0  0
   -2.1817   -1.4591    0.3332 C   0  0  0  0  0  0  0  0  0  0  0  0
    0.1766   -2.1306    1.2096 H   0  0  0  0  0  0  0  0  0  0  0  0
    1.6424   -2.5503    3.0683 H   0  0  0  0  0  0  0  0  0  0  0  0
    1.4949   -0.8738    3.5850 H   0  0  0  0  0  0  0  0  0  0  0  0
    3.2598   -3.1862    1.3218 H   0  0  0  0  0  0  0  0  0  0  0  0
    5.1533   -2.5241   -0.0781 H   0  0  0  0  0  0  0  0  0  0  0  0
    5.7714    2.1761   -0.3023 H   0  0  0  0  0  0  0  0  0  0  0  0
    7.9732    2.1463   -1.9727 H   0  0  0  0  0  0  0  0  0  0  0  0
    6.8161   -1.7950   -1.2888 H   0  0  0  0  0  0  0  0  0  0  0  0
    2.5025    0.9799    2.0981 H   0  0  0  0  0  0  0  0  0  0  0  0
   -4.1040    2.2659    0.0376 H   0  0  0  0  0  0  0  0  0  0  0  0
   -3.5820    0.8408   -2.5564 H   0  0  0  0  0  0  0  0  0  0  0  0
   -3.5625    2.5697   -2.2082 H   0  0  0  0  0  0  0  0  0  0  0  0
   -5.9422    2.7445   -2.4039 H   0  0  0  0  0  0  0  0  0  0  0  0
   -5.5939    1.5255   -3.6455 H   0  0  0  0  0  0  0  0  0  0  0  0
   -6.0808   -0.2952   -2.0904 H   0  0  0  0  0  0  0  0  0  0  0  0
   -7.3831    0.8706   -1.7873 H   0  0  0  0  0  0  0  0  0  0  0  0
   -6.2931    1.7504    0.1429 H   0  0  0  0  0  0  0  0  0  0  0  0
   -5.8820    0.0404    0.2889 H   0  0  0  0  0  0  0  0  0  0  0  0
   -3.9502   -1.4254   -1.0498 H   0  0  0  0  0  0  0  0  0  0  0  0
   -1.8461   -2.4854    0.3293 H   0  0  0  0  0  0  0  0  0  0  0  0
  1  2  2  0
  2  3  1  0
  3  4  1  0
  4  5  1  0
  5  6  2  0
  6  7  1  0
  7  8  2  0
  8  9  1  0
  9 10  1  0
 10 11  2  0
 11 12  1  0
 12 13  2  0
  8 14  1  0
 14 15  2  0
  2 16  1  0
 16 17  2  0
 17 18  1  0
 18 19  1  0
 19 20  1  0
 20 21  1  0
 21 22  1  0
 22 23  1  0
 18 24  1  0
 24 25  2  0
 15  5  1  0
 25 16  1  0
 13  9  1  0
 23 19  1  0
  3 26  1  0
  4 27  1  0
  4 28  1  0
  6 29  1  0
  7 30  1  0
 10 31  1  0
 11 32  1  0
 13 33  1  0
 15 34  1  0
 19 35  1  0
 20 36  1  0
 20 37  1  0
 21 38  1  0
 21 39  1  0
 22 40  1  0
 22 41  1  0
 23 42  1  0
 23 43  1  0
 24 44  1  0
 25 45  1  0
M  END
$$$$
OCNT-2317729
     RDKit          3D

  0  0  0  0  0  0  0  0  0  0999 V3000
M  V30 BEGIN CTAB
M  V30 COUNTS 46 49 0 0 0
M  V30 BEGIN ATOM
M  V30 1 C -4.076338 -0.449610 2.323455 0
M  V30 2 C -5.059739 -0.336042 1.191052 0
M  V30 3 C -6.283965 -1.018375 1.283991 0
M  V30 4 C -7.224483 -0.948418 0.255352 0
M  V30 5 C -6.953468 -0.198284 -0.882869 0
M  V30 6 C -5.743283 0.485766 -0.990924 0
M  V30 7 C -4.789206 0.437413 0.041763 0
M  V30 8 C -3.490625 1.178376 -0.150426 0
M  V30 9 N -2.518266 0.332553 -0.803768 0
M  V30 10 C -1.359177 0.879990 -1.318094 0
M  V30 11 O -1.150480 2.089542 -1.343797 0
M  V30 12 C -0.374971 -0.130813 -1.863421 0
M  V30 13 C 0.801234 -0.239035 -0.977884 0
M  V30 14 N 0.740143 -0.804450 0.237475 0
M  V30 15 O 2.054207 -0.713698 0.698048 0
M  V30 16 C 2.782548 -0.128672 -0.302363 0
M  V30 17 C 4.308358 0.178348 -0.197093 0 CFG=2
M  V30 18 C 5.158590 -0.449276 -1.344538 0
M  V30 19 C 5.549564 -1.585640 -0.380575 0
M  V30 20 C 5.102858 -0.692560 0.794743 0 CFG=1
M  V30 21 C 6.113080 0.270360 1.400399 0
M  V30 22 N 5.456362 1.577191 1.421867 0
M  V30 23 C 4.616896 1.615081 0.209817 0
M  V30 24 N 2.055700 0.164204 -1.359927 0
M  V30 25 H -3.904616 0.528570 2.775786 0
M  V30 26 H -4.447259 -1.113399 3.108834 0
M  V30 27 H -3.127528 -0.864815 1.968146 0
M  V30 28 H -6.515601 -1.613590 2.164902 0
M  V30 29 H -8.167889 -1.482019 0.344449 0
M  V30 30 H -7.682474 -0.143598 -1.687879 0
M  V30 31 H -5.542419 1.062896 -1.892183 0
M  V30 32 H -3.072932 1.514696 0.802812 0
M  V30 33 H -3.646591 2.081024 -0.749267 0
M  V30 34 H -2.502582 -0.636634 -0.524979 0
M  V30 35 H -0.083163 0.193698 -2.867647 0
M  V30 36 H -0.851750 -1.110220 -1.975683 0
M  V30 37 H 6.012961 0.163841 -1.666568 0
M  V30 38 H 4.617170 -0.775084 -2.241355 0
M  V30 39 H 6.604889 -1.875321 -0.392455 0
M  V30 40 H 4.936014 -2.486486 -0.499523 0
M  V30 41 H 4.513123 -1.211086 1.560156 0
M  V30 42 H 7.025157 0.338040 0.793705 0
M  V30 43 H 6.411824 -0.037379 2.409094 0
M  V30 44 H 4.842208 1.616220 2.238906 0
M  V30 45 H 3.711120 2.195477 0.421844 0
M  V30 46 H 5.154800 2.141217 -0.585795 0
M  V30 END ATOM
M  V30 BEGIN BOND
M  V30 1 1 1 2
M  V30 2 2 2 3
M  V30 3 1 3 4
M  V30 4 2 4 5
M  V30 5 1 5 6
M  V30 6 2 6 7
M  V30 7 1 7 8
M  V30 8 1 8 9
M  V30 9 1 9 10
M  V30 10 2 10 11
M  V30 11 1 10 12
M  V30 12 1 12 13
M  V30 13 2 13 14
M  V30 14 1 14 15
M  V30 15 1 15 16
M  V30 16 1 17 16 CFG=3
M  V30 17 1 17 18
M  V30 18 1 18 19
M  V30 19 1 19 20
M  V30 20 1 20 21
M  V30 21 1 21 22
M  V30 22 1 22 23
M  V30 23 2 16 24
M  V30 24 1 7 2
M  V30 25 1 24 13
M  V30 26 1 20 17
M  V30 27 1 23 17
M  V30 28 1 1 25
M  V30 29 1 1 26
M  V30 30 1 1 27
M  V30 31 1 3 28
M  V30 32 1 4 29
M  V30 33 1 5 30
M  V30 34 1 6 31
M  V30 35 1 8 32
M  V30 36 1 8 33
M  V30 37 1 9 34
M  V30 38 1 12 35
M  V30 39 1 12 36
M  V30 40 1 18 37
M  V30 41 1 18 38
M  V30 42 1 19 39
M  V30 43 1 19 40
M  V30 44 1 20 41 CFG=1
M  V30 45 1 21 42
M  V30 46 1 21 43
M  V30 47 1 22 44
M  V30 48 1 23 45
M  V30 49 1 23 46
M  V30 END BOND
M  V30 BEGIN COLLECTION
M  V30 MDLV30/STERAC1 ATOMS=(2 17 20)
M  V30 END COLLECTION
M  V30 END CTAB
M  END
>  <_CXSMILES_Data>  (1270) 
|&1:16,19|

$$$$
OCNT-2317738
     RDKit          3D

 50 53  0  0  0  0  0  0  0  0999 V2000
   -1.6042   -4.8124    2.8250 Br  0  0  0  0  0  0  0  0  0  0  0  0
   -1.6962   -3.1794    1.8800 C   0  0  0  0  0  0  0  0  0  0  0  0
   -1.8109   -1.9816    2.5771 C   0  0  0  0  0  0  0  0  0  0  0  0
   -1.8717   -0.7700    1.8795 C   0  0  0  0  0  0  0  0  0  0  0  0
   -1.8186   -0.7344    0.4749 C   0  0  0  0  0  0  0  0  0  0  0  0
   -1.8692    0.5864   -0.3299 C   0  0  0  0  0  0  0  0  0  0  0  0
   -0.4965    0.8052   -1.0729 C   0  0  0  0  0  0  0  0  0  0  0  0
    0.6180    1.1961   -0.2028 N   0  0  0  0  0  0  0  0  0  0  0  0
    1.4759    0.0989    0.2769 C   0  0  0  0  0  0  0  0  0  0  0  0
    2.1609   -0.6805   -0.8300 C   0  0  0  0  0  0  0  0  0  0  0  0
    3.0101   -0.0809   -1.7688 C   0  0  0  0  0  0  0  0  0  0  0  0
    3.6063   -0.8533   -2.7614 C   0  0  0  0  0  0  0  0  0  0  0  0
    3.3368   -2.2107   -2.7862 C   0  0  0  0  0  0  0  0  0  0  0  0
    2.5304   -2.8321   -1.8996 N   0  0  0  0  0  0  0  0  0  0  0  0
    1.9698   -2.0559   -0.9437 C   0  0  0  0  0  0  0  0  0  0  0  0
    2.4961    0.6782    1.2362 C   0  0  0  0  0  0  0  0  0  0  0  0
    3.2985    1.7107    1.0314 N   0  0  0  0  0  0  0  0  0  0  0  0
    4.0286    1.8486    2.1824 C   0  0  0  0  0  0  0  0  0  0  0  0
    3.6712    0.8949    3.1034 C   0  0  0  0  0  0  0  0  0  0  0  0
    2.6948    0.1583    2.4935 N   0  0  0  0  0  0  0  0  0  0  0  0
   -2.2012    1.8318    0.5362 C   0  0  0  0  0  0  0  0  0  0  0  0
   -2.3460    3.1075   -0.2955 C   0  0  0  0  0  0  0  0  0  0  0  0
   -2.8009    2.8645   -1.6266 O   0  0  0  0  0  0  0  0  0  0  0  0
   -3.7157    1.7828   -1.6976 C   0  0  0  0  0  0  0  0  0  0  0  0
   -3.0096    0.4619   -1.3948 C   0  0  0  0  0  0  0  0  0  0  0  0
   -1.7037   -1.9665   -0.2028 C   0  0  0  0  0  0  0  0  0  0  0  0
   -1.6434   -3.1783    0.4914 C   0  0  0  0  0  0  0  0  0  0  0  0
   -1.8584   -1.9752    3.6631 H   0  0  0  0  0  0  0  0  0  0  0  0
   -1.9562    0.1410    2.4662 H   0  0  0  0  0  0  0  0  0  0  0  0
   -0.6163    1.6206   -1.7964 H   0  0  0  0  0  0  0  0  0  0  0  0
   -0.2449   -0.0618   -1.6942 H   0  0  0  0  0  0  0  0  0  0  0  0
    1.2300    1.8584   -0.6819 H   0  0  0  0  0  0  0  0  0  0  0  0
    0.8568   -0.5899    0.8604 H   0  0  0  0  0  0  0  0  0  0  0  0
    3.2217    0.9853   -1.7183 H   0  0  0  0  0  0  0  0  0  0  0  0
    4.2701   -0.4057   -3.4924 H   0  0  0  0  0  0  0  0  0  0  0  0
    3.7796   -2.8544   -3.5407 H   0  0  0  0  0  0  0  0  0  0  0  0
    1.3364   -2.5984   -0.2472 H   0  0  0  0  0  0  0  0  0  0  0  0
    4.7723    2.6280    2.2864 H   0  0  0  0  0  0  0  0  0  0  0  0
    4.0140    0.6848    4.1062 H   0  0  0  0  0  0  0  0  0  0  0  0
    2.1997   -0.6283    2.8907 H   0  0  0  0  0  0  0  0  0  0  0  0
   -1.4622    2.0076    1.3270 H   0  0  0  0  0  0  0  0  0  0  0  0
   -3.1550    1.6592    1.0553 H   0  0  0  0  0  0  0  0  0  0  0  0
   -3.0394    3.8014    0.1927 H   0  0  0  0  0  0  0  0  0  0  0  0
   -1.3828    3.6227   -0.3741 H   0  0  0  0  0  0  0  0  0  0  0  0
   -4.1399    1.7542   -2.7066 H   0  0  0  0  0  0  0  0  0  0  0  0
   -4.5479    1.9584   -1.0048 H   0  0  0  0  0  0  0  0  0  0  0  0
   -3.7824   -0.2531   -1.0831 H   0  0  0  0  0  0  0  0  0  0  0  0
   -2.5943    0.0621   -2.3295 H   0  0  0  0  0  0  0  0  0  0  0  0
   -1.6559   -1.9978   -1.2905 H   0  0  0  0  0  0  0  0  0  0  0  0
   -1.5545   -4.1091   -0.0634 H   0  0  0  0  0  0  0  0  0  0  0  0
  1  2  1  0
  2  3  1  0
  3  4  2  0
  4  5  1  0
  5  6  1  0
  6  7  1  0
  7  8  1  0
  8  9  1  0
  9 10  1  0
 10 11  1  0
 11 12  2  0
 12 13  1  0
 13 14  2  0
 14 15  1  0
  9 16  1  0
 16 17  2  0
 17 18  1  0
 18 19  2  0
 19 20  1  0
  6 21  1  0
 21 22  1  0
 22 23  1  0
 23 24  1  0
 24 25  1  0
  5 26  2  0
 26 27  1  0
 27  2  2  0
 25  6  1  0
 15 10  2  0
 20 16  1  0
  3 28  1  0
  4 29  1  0
  7 30  1  0
  7 31  1  0
  8 32  1  0
  9 33  1  0
 11 34  1  0
 12 35  1  0
 13 36  1  0
 15 37  1  0
 18 38  1  0
 19 39  1  0
 20 40  1  0
 21 41  1  0
 21 42  1  0
 22 43  1  0
 22 44  1  0
 24 45  1  0
 24 46  1  0
 25 47  1  0
 25 48  1  0
 26 49  1  0
 27 50  1  0
M  END
$$$$
OCNT-2317740
     RDKit          3D

 45 48  0  0  0  0  0  0  0  0999 V2000
   -9.4270    2.1746    1.6582 F   0  0  0  0  0  0  0  0  0  0  0  0
   -8.2810    1.6239    1.2377 C   0  0  0  0  0  0  0  0  0  0  0  0
   -7.0994    2.3482    1.3269 C   0  0  0  0  0  0  0  0  0  0  0  0
   -5.9046    1.7717    0.8878 C   0  0  0  0  0  0  0  0  0  0  0  0
   -5.8855    0.4697    0.3580 C   0  0  0  0  0  0  0  0  0  0  0  0
   -4.6198   -0.1047   -0.0918 C   0  0  0  0  0  0  0  0  0  0  0  0
   -3.4111    0.4266   -0.0767 N   0  0  0  0  0  0  0  0  0  0  0  0
   -2.6035   -0.5493   -0.6158 C   0  0  0  0  0  0  0  0  0  0  0  0
   -1.1399   -0.3411   -0.7830 C   0  0  0  0  0  0  0  0  0  0  0  0
   -0.4246   -0.1830    0.5656 C   0  0  0  0  0  0  0  0  0  0  0  0
    1.0261    0.0084    0.4403 N   0  0  0  0  0  0  0  0  0  0  0  0
    1.7317   -1.2321    0.1204 C   0  0  0  0  0  0  0  0  0  0  0  0
    3.2263   -1.0127    0.1335 C   0  0  0  0  0  0  0  0  0  0  0  0
    4.0169   -1.5139    1.1791 C   0  0  0  0  0  0  0  0  0  0  0  0
    5.3969   -1.2956    1.1922 C   0  0  0  0  0  0  0  0  0  0  0  0
    5.9959   -0.5692    0.1660 C   0  0  0  0  0  0  0  0  0  0  0  0
    7.3509   -0.3754    0.2575 O   0  0  0  0  0  0  0  0  0  0  0  0
    7.7882    0.6566   -0.6341 C   0  0  0  0  0  0  0  0  0  0  0  0
    7.1709    0.4731   -2.0105 C   0  0  0  0  0  0  0  0  0  0  0  0
    5.7474    0.6140   -1.9499 O   0  0  0  0  0  0  0  0  0  0  0  0
    5.2216   -0.0822   -0.8911 C   0  0  0  0  0  0  0  0  0  0  0  0
    3.8427   -0.2871   -0.8984 C   0  0  0  0  0  0  0  0  0  0  0  0
   -3.3690   -1.6456   -0.9373 C   0  0  0  0  0  0  0  0  0  0  0  0
   -4.6607   -1.3760   -0.6048 O   0  0  0  0  0  0  0  0  0  0  0  0
   -7.0952   -0.2410    0.2787 C   0  0  0  0  0  0  0  0  0  0  0  0
   -8.2907    0.3354    0.7180 C   0  0  0  0  0  0  0  0  0  0  0  0
   -7.1123    3.3537    1.7352 H   0  0  0  0  0  0  0  0  0  0  0  0
   -4.9801    2.3436    0.9586 H   0  0  0  0  0  0  0  0  0  0  0  0
   -0.9766    0.5535   -1.3964 H   0  0  0  0  0  0  0  0  0  0  0  0
   -0.7235   -1.1880   -1.3405 H   0  0  0  0  0  0  0  0  0  0  0  0
   -0.8287    0.7045    1.0693 H   0  0  0  0  0  0  0  0  0  0  0  0
   -0.6448   -1.0300    1.2281 H   0  0  0  0  0  0  0  0  0  0  0  0
    1.3886    0.3589    1.3277 H   0  0  0  0  0  0  0  0  0  0  0  0
    1.4507   -1.6023   -0.8722 H   0  0  0  0  0  0  0  0  0  0  0  0
    1.4728   -2.0183    0.8405 H   0  0  0  0  0  0  0  0  0  0  0  0
    3.5632   -2.0736    1.9939 H   0  0  0  0  0  0  0  0  0  0  0  0
    6.0020   -1.6804    2.0082 H   0  0  0  0  0  0  0  0  0  0  0  0
    7.5223    1.6286   -0.2004 H   0  0  0  0  0  0  0  0  0  0  0  0
    8.8793    0.5987   -0.6980 H   0  0  0  0  0  0  0  0  0  0  0  0
    7.4062   -0.5139   -2.4279 H   0  0  0  0  0  0  0  0  0  0  0  0
    7.5502    1.2340   -2.6997 H   0  0  0  0  0  0  0  0  0  0  0  0
    3.2447    0.1184   -1.7113 H   0  0  0  0  0  0  0  0  0  0  0  0
   -3.1750   -2.6148   -1.3723 H   0  0  0  0  0  0  0  0  0  0  0  0
   -7.1171   -1.2507   -0.1265 H   0  0  0  0  0  0  0  0  0  0  0  0
   -9.2256   -0.2125    0.6571 H   0  0  0  0  0  0  0  0  0  0  0  0
  1  2  1  0
  2  3  1  0
  3  4  2  0
  4  5  1  0
  5  6  1  0
  6  7  2  0
  7  8  1  0
  8  9  1  0
  9 10  1  0
 10 11  1  0
 11 12  1  0
 12 13  1  0
 13 14  1  0
 14 15  2  0
 15 16  1  0
 16 17  1  0
 17 18  1  0
 18 19  1  0
 19 20  1  0
 20 21  1  0
 21 22  1  0
  8 23  2  0
 23 24  1  0
  5 25  2  0
 25 26  1  0
 26  2  2  0
 24  6  1  0
 22 13  2  0
 21 16  2  0
  3 27  1  0
  4 28  1  0
  9 29  1  0
  9 30  1  0
 10 31  1  0
 10 32  1  0
 11 33  1  0
 12 34  1  0
 12 35  1  0
 14 36  1  0
 15 37  1  0
 18 38  1  0
 18 39  1  0
 19 40  1  0
 19 41  1  0
 22 42  1  0
 23 43  1  0
 25 44  1  0
 26 45  1  0
M  END
$$$$
OCNT-2317761
     RDKit          3D

 35 38  0  0  0  0  0  0  0  0999 V2000
    0.6165    0.4826    1.2547 O   0  0  0  0  0  0  0  0  0  0  0  0
    1.0713    0.2425    0.1432 C   0  0  0  0  0  0  0  0  0  0  0  0
    0.3894   -0.2681   -0.9473 N   0  0  0  0  0  0  0  0  0  0  0  0
   -0.9931   -0.5468   -1.0381 C   0  0  0  0  0  0  0  0  0  0  0  0
   -1.4475   -1.1243   -2.2293 C   0  0  0  0  0  0  0  0  0  0  0  0
   -2.7986   -1.4246   -2.4021 C   0  0  0  0  0  0  0  0  0  0  0  0
   -3.7107   -1.1478   -1.3842 C   0  0  0  0  0  0  0  0  0  0  0  0
   -3.2822   -0.5669   -0.1839 C   0  0  0  0  0  0  0  0  0  0  0  0
   -4.2442   -0.2845    0.8716 C   0  0  0  0  0  0  0  0  0  0  0  0
   -4.0902    0.6618    1.8636 C   0  0  0  0  0  0  0  0  0  0  0  0
   -5.2163    0.6064    2.6325 N   0  0  0  0  0  0  0  0  0  0  0  0
   -6.1071   -0.3050    2.2116 N   0  0  0  0  0  0  0  0  0  0  0  0
   -5.5148   -0.8472    1.1440 C   0  0  0  0  0  0  0  0  0  0  0  0
   -1.9163   -0.2721   -0.0241 C   0  0  0  0  0  0  0  0  0  0  0  0
    2.5196    0.4763   -0.0709 C   0  0  0  0  0  0  0  0  0  0  0  0
    3.0073    0.9879   -1.2718 C   0  0  0  0  0  0  0  0  0  0  0  0
    4.3113    1.2225   -1.5606 N   0  0  0  0  0  0  0  0  0  0  0  0
    5.1658    0.9459   -0.5444 C   0  0  0  0  0  0  0  0  0  0  0  0
    6.5658    1.0571   -0.4416 C   0  0  0  0  0  0  0  0  0  0  0  0
    7.0235    0.6775    0.7578 N   0  0  0  0  0  0  0  0  0  0  0  0
    5.9037    0.3313    1.4234 N   0  0  0  0  0  0  0  0  0  0  0  0
    4.7552    0.4616    0.6903 C   0  0  0  0  0  0  0  0  0  0  0  0
    3.4123    0.2133    0.9732 C   0  0  0  0  0  0  0  0  0  0  0  0
    0.9347   -0.5410   -1.7553 H   0  0  0  0  0  0  0  0  0  0  0  0
   -0.7600   -1.3501   -3.0403 H   0  0  0  0  0  0  0  0  0  0  0  0
   -3.1429   -1.8718   -3.3313 H   0  0  0  0  0  0  0  0  0  0  0  0
   -4.7600   -1.3810   -1.5485 H   0  0  0  0  0  0  0  0  0  0  0  0
   -3.2998    1.3631    2.0907 H   0  0  0  0  0  0  0  0  0  0  0  0
   -5.4436    1.1600    3.4519 H   0  0  0  0  0  0  0  0  0  0  0  0
   -6.0321   -1.6339    0.6106 H   0  0  0  0  0  0  0  0  0  0  0  0
   -1.5853    0.1670    0.9106 H   0  0  0  0  0  0  0  0  0  0  0  0
    2.3316    1.2587   -2.0801 H   0  0  0  0  0  0  0  0  0  0  0  0
    7.2633    1.3994   -1.1935 H   0  0  0  0  0  0  0  0  0  0  0  0
    5.9959    0.0096    2.3809 H   0  0  0  0  0  0  0  0  0  0  0  0
    3.0774   -0.1596    1.9355 H   0  0  0  0  0  0  0  0  0  0  0  0
  1  2  2  0
  2  3  1  0
  3  4  1  0
  4  5  2  0
  5  6  1  0
  6  7  2  0
  7  8  1  0
  8  9  1  0
  9 10  2  0
 10 11  1  0
 11 12  1  0
 12 13  2  0
  8 14  2  0
  2 15  1  0
 15 16  1  0
 16 17  2  0
 17 18  1  0
 18 19  1  0
 19 20  2  0
 20 21  1  0
 21 22  1  0
 22 23  1  0
 14  4  1  0
 23 15  2  0
 13  9  1  0
 22 18  2  0
  3 24  1  0
  5 25  1  0
  6 26  1  0
  7 27  1  0
 10 28  1  0
 11 29  1  0
 13 30  1  0
 14 31  1  0
 16 32  1  0
 19 33  1  0
 21 34  1  0
 23 35  1  0
M  END
$$$$
OCNT-2317763
     RDKit          3D

 45 47  0  0  0  0  0  0  0  0999 V2000
   -2.1260    2.8797   -0.5278 C   0  0  0  0  0  0  0  0  0  0  0  0
   -2.1866    2.0272    0.7382 C   0  0  2  0  0  0  0  0  0  0  0  0
   -1.1095    0.9489    0.8154 C   0  0  0  0  0  0  0  0  0  0  0  0
   -1.3390   -0.1194   -0.2566 C   0  0  1  0  0  0  0  0  0  0  0  0
   -0.3742   -1.2147   -0.0650 N   0  0  0  0  0  0  0  0  0  0  0  0
    0.3541   -1.5836   -1.2866 C   0  0  0  0  0  0  0  0  0  0  0  0
    1.4353   -0.5863   -1.7883 C   0  0  0  0  0  0  0  0  0  0  0  0
    2.0562   -1.1063   -2.9662 O   0  0  0  0  0  0  0  0  0  0  0  0
    2.5286   -0.3118   -0.7765 C   0  0  0  0  0  0  0  0  0  0  0  0
    3.3648   -1.3393   -0.3156 C   0  0  0  0  0  0  0  0  0  0  0  0
    4.3627   -1.0809    0.6275 C   0  0  0  0  0  0  0  0  0  0  0  0
    4.5565    0.2159    1.1223 C   0  0  0  0  0  0  0  0  0  0  0  0
    5.6203    0.4947    2.1549 C   0  0  0  0  0  0  0  0  0  0  0  0
    6.1517    1.7453    2.0494 F   0  0  0  0  0  0  0  0  0  0  0  0
    6.6762   -0.3635    2.0871 F   0  0  0  0  0  0  0  0  0  0  0  0
    5.1423    0.3997    3.4265 F   0  0  0  0  0  0  0  0  0  0  0  0
    3.7236    1.2455    0.6614 C   0  0  0  0  0  0  0  0  0  0  0  0
    2.7260    0.9854   -0.2822 C   0  0  0  0  0  0  0  0  0  0  0  0
   -2.7799   -0.5762   -0.1811 C   0  0  0  0  0  0  0  0  0  0  0  0
   -3.1896   -1.8171   -0.7004 C   0  0  0  0  0  0  0  0  0  0  0  0
   -4.5286   -2.2122   -0.6539 C   0  0  0  0  0  0  0  0  0  0  0  0
   -5.4830   -1.3695   -0.0943 C   0  0  0  0  0  0  0  0  0  0  0  0
   -5.0962   -0.1320    0.4147 C   0  0  0  0  0  0  0  0  0  0  0  0
   -3.7575    0.2677    0.3648 C   0  0  0  0  0  0  0  0  0  0  0  0
   -3.5076    1.5035    0.8973 O   0  0  0  0  0  0  0  0  0  0  0  0
   -2.4011    2.3096   -1.4207 H   0  0  0  0  0  0  0  0  0  0  0  0
   -1.1280    3.3040   -0.6728 H   0  0  0  0  0  0  0  0  0  0  0  0
   -2.8458    3.7030   -0.4587 H   0  0  0  0  0  0  0  0  0  0  0  0
   -2.0295    2.7034    1.5876 H   0  0  0  0  0  0  0  0  0  0  0  0
   -1.1542    0.4878    1.8126 H   0  0  0  0  0  0  0  0  0  0  0  0
   -0.1160    1.3991    0.7110 H   0  0  0  0  0  0  0  0  0  0  0  0
   -1.2012    0.3420   -1.2421 H   0  0  0  0  0  0  0  0  0  0  0  0
    0.2970   -0.9851    0.6686 H   0  0  0  0  0  0  0  0  0  0  0  0
    0.8273   -2.5567   -1.1034 H   0  0  0  0  0  0  0  0  0  0  0  0
   -0.3535   -1.7804   -2.1024 H   0  0  0  0  0  0  0  0  0  0  0  0
    0.9579    0.3572   -2.0773 H   0  0  0  0  0  0  0  0  0  0  0  0
    1.3677   -1.1799   -3.6479 H   0  0  0  0  0  0  0  0  0  0  0  0
    3.2494   -2.3506   -0.7020 H   0  0  0  0  0  0  0  0  0  0  0  0
    4.9963   -1.8991    0.9675 H   0  0  0  0  0  0  0  0  0  0  0  0
    3.8554    2.2615    1.0316 H   0  0  0  0  0  0  0  0  0  0  0  0
    2.1064    1.8085   -0.6319 H   0  0  0  0  0  0  0  0  0  0  0  0
   -2.4619   -2.4984   -1.1336 H   0  0  0  0  0  0  0  0  0  0  0  0
   -4.8222   -3.1807   -1.0502 H   0  0  0  0  0  0  0  0  0  0  0  0
   -6.5248   -1.6743   -0.0517 H   0  0  0  0  0  0  0  0  0  0  0  0
   -5.8398    0.5286    0.8529 H   0  0  0  0  0  0  0  0  0  0  0  0
  1  2  1  0
  2  3  1  0
  3  4  1  0
  4  5  1  0
  5  6  1  0
  6  7  1  0
  7  8  1  0
  7  9  1  0
  9 10  1  0
 10 11  2  0
 11 12  1  0
 12 13  1  0
 13 14  1  0
 13 15  1  0
 13 16  1  0
 12 17  2  0
 17 18  1  0
  4 19  1  0
 19 20  2  0
 20 21  1  0
 21 22  2  0
 22 23  1  0
 23 24  2  0
 24 25  1  0
 25  2  1  0
 18  9  2  0
 24 19  1  0
  1 26  1  0
  1 27  1  0
  1 28  1  0
  2 29  1  1
  3 30  1  0
  3 31  1  0
  4 32  1  6
  5 33  1  0
  6 34  1  0
  6 35  1  0
  7 36  1  0
  8 37  1  0
 10 38  1  0
 11 39  1  0
 17 40  1  0
 18 41  1  0
 20 42  1  0
 21 43  1  0
 22 44  1  0
 23 45  1  0
M  END
$$$$
OCNT-2317790
     RDKit          3D

 43 45  0  0  0  0  0  0  0  0999 V2000
    3.5784    1.2364    0.6910 O   0  0  0  0  0  0  0  0  0  0  0  0
    3.6913    0.3388   -0.1357 C   0  0  0  0  0  0  0  0  0  0  0  0
    2.6068   -0.3605   -0.6342 N   0  0  0  0  0  0  0  0  0  0  0  0
    1.2415    0.0077   -0.2590 C   0  0  0  0  0  0  0  0  0  0  0  0
    0.2281   -0.7304   -1.1302 C   0  0  0  0  0  0  0  0  0  0  0  0
   -1.2051   -0.3075   -0.7848 C   0  0  0  0  0  0  0  0  0  0  0  0
   -1.4185    0.0006    0.6358 N   0  0  0  0  0  0  0  0  0  0  0  0
   -2.8073   -0.2019    1.0813 C   0  0  0  0  0  0  0  0  0  0  0  0
   -3.8162    0.8160    0.5343 C   0  0  0  0  0  0  0  0  0  0  0  0
   -5.1538    0.7475    1.2516 C   0  0  0  0  0  0  0  0  0  0  0  0
   -6.0665    1.4612    0.2813 C   0  0  0  0  0  0  0  0  0  0  0  0
   -5.5859    1.1420   -1.0291 O   0  0  0  0  0  0  0  0  0  0  0  0
   -4.2513    0.6200   -0.9097 C   0  0  0  0  0  0  0  0  0  0  0  0
   -0.4771   -0.7278    1.4918 C   0  0  0  0  0  0  0  0  0  0  0  0
    0.9613   -0.2730    1.2265 C   0  0  0  0  0  0  0  0  0  0  0  0
    4.9658   -0.0582   -0.6971 C   0  0  0  0  0  0  0  0  0  0  0  0
    6.1473    0.6695   -0.7169 C   0  0  0  0  0  0  0  0  0  0  0  0
    7.1351   -0.1120   -1.3540 C   0  0  0  0  0  0  0  0  0  0  0  0
    8.7390    0.3641   -1.6261 Cl  0  0  0  0  0  0  0  0  0  0  0  0
    6.5567   -1.3102   -1.6932 C   0  0  0  0  0  0  0  0  0  0  0  0
    5.2516   -1.2771   -1.2773 N   0  0  0  0  0  0  0  0  0  0  0  0
    2.7298   -0.7806   -1.5438 H   0  0  0  0  0  0  0  0  0  0  0  0
    1.1433    1.0861   -0.4420 H   0  0  0  0  0  0  0  0  0  0  0  0
    0.3401   -1.8140   -0.9897 H   0  0  0  0  0  0  0  0  0  0  0  0
    0.4192   -0.5375   -2.1931 H   0  0  0  0  0  0  0  0  0  0  0  0
   -1.8737   -1.1061   -1.1291 H   0  0  0  0  0  0  0  0  0  0  0  0
   -1.4395    0.5909   -1.3655 H   0  0  0  0  0  0  0  0  0  0  0  0
   -3.1358   -1.2276    0.8664 H   0  0  0  0  0  0  0  0  0  0  0  0
   -2.8334   -0.0978    2.1746 H   0  0  0  0  0  0  0  0  0  0  0  0
   -3.4165    1.8328    0.6549 H   0  0  0  0  0  0  0  0  0  0  0  0
   -5.1435    1.2144    2.2406 H   0  0  0  0  0  0  0  0  0  0  0  0
   -5.4748   -0.2952    1.3668 H   0  0  0  0  0  0  0  0  0  0  0  0
   -6.0099    2.5479    0.4066 H   0  0  0  0  0  0  0  0  0  0  0  0
   -7.1107    1.1515    0.3781 H   0  0  0  0  0  0  0  0  0  0  0  0
   -3.6111    1.1512   -1.6185 H   0  0  0  0  0  0  0  0  0  0  0  0
   -4.2882   -0.4373   -1.1928 H   0  0  0  0  0  0  0  0  0  0  0  0
   -0.5707   -1.8107    1.3356 H   0  0  0  0  0  0  0  0  0  0  0  0
   -0.6884   -0.5450    2.5528 H   0  0  0  0  0  0  0  0  0  0  0  0
    1.1675    0.6391    1.8017 H   0  0  0  0  0  0  0  0  0  0  0  0
    1.6423   -1.0407    1.6155 H   0  0  0  0  0  0  0  0  0  0  0  0
    6.2666    1.6674   -0.3126 H   0  0  0  0  0  0  0  0  0  0  0  0
    6.9652   -2.1859   -2.1789 H   0  0  0  0  0  0  0  0  0  0  0  0
    4.6010   -2.0482   -1.3463 H   0  0  0  0  0  0  0  0  0  0  0  0
  1  2  2  0
  2  3  1  0
  3  4  1  0
  4  5  1  0
  5  6  1  0
  6  7  1  0
  7  8  1  0
  8  9  1  0
  9 10  1  0
 10 11  1  0
 11 12  1  0
 12 13  1  0
  7 14  1  0
 14 15  1  0
  2 16  1  0
 16 17  2  0
 17 18  1  0
 18 19  1  0
 18 20  2  0
 20 21  1  0
 15  4  1  0
 21 16  1  0
 13  9  1  0
  3 22  1  0
  4 23  1  0
  5 24  1  0
  5 25  1  0
  6 26  1  0
  6 27  1  0
  8 28  1  0
  8 29  1  0
  9 30  1  0
 10 31  1  0
 10 32  1  0
 11 33  1  0
 11 34  1  0
 13 35  1  0
 13 36  1  0
 14 37  1  0
 14 38  1  0
 15 39  1  0
 15 40  1  0
 17 41  1  0
 20 42  1  0
 21 43  1  0
M  END
$$$$
OCNT-2317809
     RDKit          3D

 46 49  0  0  0  0  0  0  0  0999 V2000
   -2.6355    2.4078    2.5168 O   0  0  0  0  0  0  0  0  0  0  0  0
   -3.4285    2.4407    1.3056 S   0  0  0  0  0  0  0  0  0  0  0  0
   -4.0860    3.6462    0.8455 O   0  0  0  0  0  0  0  0  0  0  0  0
   -4.6382    1.1329    1.3924 C   0  0  0  0  0  0  0  0  0  0  0  0
   -4.4591    0.3399    0.1033 C   0  0  0  0  0  0  0  0  0  0  0  0
   -2.9431    0.2906   -0.2103 C   0  0  0  0  0  0  0  0  0  0  0  0
   -2.6975   -0.1681   -1.6718 C   0  0  0  0  0  0  0  0  0  0  0  0
   -2.2702   -1.6295   -1.7322 C   0  0  0  0  0  0  0  0  0  0  0  0
   -0.9944   -1.8640   -0.9110 C   0  0  0  0  0  0  0  0  0  0  0  0
   -0.8923   -0.9869    0.2690 N   0  0  0  0  0  0  0  0  0  0  0  0
   -0.0129   -1.5488    1.3084 C   0  0  0  0  0  0  0  0  0  0  0  0
    1.3986   -1.6660    0.8634 C   0  0  0  0  0  0  0  0  0  0  0  0
    2.2333   -2.7166    0.5657 C   0  0  0  0  0  0  0  0  0  0  0  0
    3.4684   -2.2476    0.1984 N   0  0  0  0  0  0  0  0  0  0  0  0
    3.3512   -0.9340    0.2843 C   0  0  0  0  0  0  0  0  0  0  0  0
    4.3437    0.1023    0.0111 C   0  0  0  0  0  0  0  0  0  0  0  0
    5.6334   -0.2646   -0.4032 C   0  0  0  0  0  0  0  0  0  0  0  0
    6.6032    0.7051   -0.6716 C   0  0  0  0  0  0  0  0  0  0  0  0
    6.2949    2.0560   -0.5289 C   0  0  0  0  0  0  0  0  0  0  0  0
    5.0193    2.4382   -0.1187 C   0  0  0  0  0  0  0  0  0  0  0  0
    4.0498    1.4675    0.1495 C   0  0  0  0  0  0  0  0  0  0  0  0
    2.1124   -0.5109    0.6931 O   0  0  0  0  0  0  0  0  0  0  0  0
   -2.2121   -0.6467    0.7961 C   0  0  0  0  0  0  0  0  0  0  0  0
   -2.4734    1.7557   -0.0441 C   0  0  0  0  0  0  0  0  0  0  0  0
   -4.4199    0.5218    2.2724 H   0  0  0  0  0  0  0  0  0  0  0  0
   -5.6386    1.5621    1.4805 H   0  0  0  0  0  0  0  0  0  0  0  0
   -4.9907    0.8601   -0.7044 H   0  0  0  0  0  0  0  0  0  0  0  0
   -4.8996   -0.6591    0.1888 H   0  0  0  0  0  0  0  0  0  0  0  0
   -1.9031    0.4363   -2.1301 H   0  0  0  0  0  0  0  0  0  0  0  0
   -3.5898   -0.0184   -2.2907 H   0  0  0  0  0  0  0  0  0  0  0  0
   -2.0993   -1.9303   -2.7720 H   0  0  0  0  0  0  0  0  0  0  0  0
   -3.0817   -2.2607   -1.3486 H   0  0  0  0  0  0  0  0  0  0  0  0
   -0.9711   -2.9247   -0.6292 H   0  0  0  0  0  0  0  0  0  0  0  0
   -0.1255   -1.6805   -1.5544 H   0  0  0  0  0  0  0  0  0  0  0  0
   -0.3852   -2.5244    1.6460 H   0  0  0  0  0  0  0  0  0  0  0  0
   -0.0174   -0.8903    2.1868 H   0  0  0  0  0  0  0  0  0  0  0  0
    2.0132   -3.7744    0.5934 H   0  0  0  0  0  0  0  0  0  0  0  0
    5.8876   -1.3172   -0.5185 H   0  0  0  0  0  0  0  0  0  0  0  0
    7.5973    0.4033   -0.9912 H   0  0  0  0  0  0  0  0  0  0  0  0
    7.0486    2.8112   -0.7369 H   0  0  0  0  0  0  0  0  0  0  0  0
    4.7765    3.4918   -0.0062 H   0  0  0  0  0  0  0  0  0  0  0  0
    3.0601    1.7888    0.4684 H   0  0  0  0  0  0  0  0  0  0  0  0
   -2.1109   -0.1415    1.7631 H   0  0  0  0  0  0  0  0  0  0  0  0
   -2.7961   -1.5572    0.9879 H   0  0  0  0  0  0  0  0  0  0  0  0
   -1.4086    1.8503    0.1834 H   0  0  0  0  0  0  0  0  0  0  0  0
   -2.7112    2.3539   -0.9305 H   0  0  0  0  0  0  0  0  0  0  0  0
  1  2  2  0
  2  3  2  0
  2  4  1  0
  4  5  1  0
  5  6  1  0
  6  7  1  0
  7  8  1  0
  8  9  1  0
  9 10  1  0
 10 11  1  0
 11 12  1  0
 12 13  2  0
 13 14  1  0
 14 15  2  0
 15 16  1  0
 16 17  2  0
 17 18  1  0
 18 19  2  0
 19 20  1  0
 20 21  2  0
 15 22  1  0
 10 23  1  0
  6 24  1  0
 24  2  1  0
 23  6  1  0
 22 12  1  0
 21 16  1  0
  4 25  1  0
  4 26  1  0
  5 27  1  0
  5 28  1  0
  7 29  1  0
  7 30  1  0
  8 31  1  0
  8 32  1  0
  9 33  1  0
  9 34  1  0
 11 35  1  0
 11 36  1  0
 13 37  1  0
 17 38  1  0
 18 39  1  0
 19 40  1  0
 20 41  1  0
 21 42  1  0
 23 43  1  0
 23 44  1  0
 24 45  1  0
 24 46  1  0
M  END
$$$$
OCNT-2317811
     RDKit          3D

 42 44  0  0  0  0  0  0  0  0999 V2000
   -5.1172    0.5932    2.6897 C   0  0  0  0  0  0  0  0  0  0  0  0
   -5.0340    0.7272    1.2788 O   0  0  0  0  0  0  0  0  0  0  0  0
   -3.7868    0.6702    0.7058 C   0  0  0  0  0  0  0  0  0  0  0  0
   -2.5933    0.5271    1.4219 C   0  0  0  0  0  0  0  0  0  0  0  0
   -1.3591    0.4866    0.7564 C   0  0  0  0  0  0  0  0  0  0  0  0
   -1.3157    0.5622   -0.6426 C   0  0  0  0  0  0  0  0  0  0  0  0
   -2.5133    0.7147   -1.3599 C   0  0  0  0  0  0  0  0  0  0  0  0
   -3.7464    0.7657   -0.6987 C   0  0  0  0  0  0  0  0  0  0  0  0
   -4.9584    0.9134   -1.3283 O   0  0  0  0  0  0  0  0  0  0  0  0
   -4.9681    0.9147   -2.7479 C   0  0  0  0  0  0  0  0  0  0  0  0
    0.0061    0.5541   -1.3831 C   0  0  0  0  0  0  0  0  0  0  0  0
    1.1326    0.0212   -0.5958 N   0  0  0  0  0  0  0  0  0  0  0  0
    2.3878    0.2087   -1.3482 C   0  0  0  0  0  0  0  0  0  0  0  0
    3.4863   -0.6753   -0.8208 C   0  0  0  0  0  0  0  0  0  0  0  0
    3.6193   -1.9435   -1.2402 N   0  0  0  0  0  0  0  0  0  0  0  0
    4.6751   -2.4110   -0.5595 N   0  0  0  0  0  0  0  0  0  0  0  0
    5.2592   -1.4807    0.2459 C   0  0  0  0  0  0  0  0  0  0  0  0
    6.4412   -1.8143    1.0506 C   0  0  0  0  0  0  0  0  0  0  0  0
    6.8448   -3.0940    0.8437 F   0  0  0  0  0  0  0  0  0  0  0  0
    7.4944   -1.0149    0.7547 F   0  0  0  0  0  0  0  0  0  0  0  0
    6.2012   -1.6848    2.3777 F   0  0  0  0  0  0  0  0  0  0  0  0
    4.5133   -0.3324    0.0943 C   0  0  0  0  0  0  0  0  0  0  0  0
    1.1655    0.6663    0.7237 C   0  0  0  0  0  0  0  0  0  0  0  0
   -0.0834    0.2962    1.5360 C   0  0  0  0  0  0  0  0  0  0  0  0
   -6.1742    0.6432    2.9684 H   0  0  0  0  0  0  0  0  0  0  0  0
   -4.6018    1.4164    3.1955 H   0  0  0  0  0  0  0  0  0  0  0  0
   -4.7332   -0.3779    3.0191 H   0  0  0  0  0  0  0  0  0  0  0  0
   -2.5935    0.4431    2.5036 H   0  0  0  0  0  0  0  0  0  0  0  0
   -2.4548    0.7929   -2.4406 H   0  0  0  0  0  0  0  0  0  0  0  0
   -4.5639   -0.0207   -3.1489 H   0  0  0  0  0  0  0  0  0  0  0  0
   -6.0092    0.9935   -3.0751 H   0  0  0  0  0  0  0  0  0  0  0  0
   -4.4299    1.7817   -3.1445 H   0  0  0  0  0  0  0  0  0  0  0  0
   -0.1107   -0.0634   -2.2828 H   0  0  0  0  0  0  0  0  0  0  0  0
    0.2125    1.5848   -1.7024 H   0  0  0  0  0  0  0  0  0  0  0  0
    2.7061    1.2593   -1.3354 H   0  0  0  0  0  0  0  0  0  0  0  0
    2.2369   -0.0595   -2.4030 H   0  0  0  0  0  0  0  0  0  0  0  0
    4.9481   -3.3800   -0.7010 H   0  0  0  0  0  0  0  0  0  0  0  0
    4.6750    0.6190    0.5824 H   0  0  0  0  0  0  0  0  0  0  0  0
    2.0356    0.3427    1.3045 H   0  0  0  0  0  0  0  0  0  0  0  0
    1.2364    1.7576    0.6191 H   0  0  0  0  0  0  0  0  0  0  0  0
   -0.0231   -0.7557    1.8429 H   0  0  0  0  0  0  0  0  0  0  0  0
   -0.1071    0.9105    2.4440 H   0  0  0  0  0  0  0  0  0  0  0  0
  1  2  1  0
  2  3  1  0
  3  4  2  0
  4  5  1  0
  5  6  2  0
  6  7  1  0
  7  8  2  0
  8  9  1  0
  9 10  1  0
  6 11  1  0
 11 12  1  0
 12 13  1  0
 13 14  1  0
 14 15  2  0
 15 16  1  0
 16 17  1  0
 17 18  1  0
 18 19  1  0
 18 20  1  0
 18 21  1  0
 17 22  2  0
 12 23  1  0
 23 24  1  0
  8  3  1  0
 22 14  1  0
 24  5  1  0
  1 25  1  0
  1 26  1  0
  1 27  1  0
  4 28  1  0
  7 29  1  0
 10 30  1  0
 10 31  1  0
 10 32  1  0
 11 33  1  0
 11 34  1  0
 13 35  1  0
 13 36  1  0
 16 37  1  0
 22 38  1  0
 23 39  1  0
 23 40  1  0
 24 41  1  0
 24 42  1  0
M  END
$$$$
OCNT-2317813
     RDKit          3D

 41 43  0  0  0  0  0  0  0  0999 V2000
    3.0569    2.5723    0.2161 C   0  0  0  0  0  0  0  0  0  0  0  0
    3.1049    1.5765    1.3634 C   0  0  0  0  0  0  0  0  0  0  0  0
    2.7636    0.1887    0.8927 C   0  0  0  0  0  0  0  0  0  0  0  0
    1.4552   -0.1319    0.8459 N   0  0  0  0  0  0  0  0  0  0  0  0
    1.0736   -1.3513    0.4057 C   0  0  0  0  0  0  0  0  0  0  0  0
   -0.2803   -1.6766    0.3438 N   0  0  0  0  0  0  0  0  0  0  0  0
   -1.2037   -0.9102    1.1746 C   0  0  0  0  0  0  0  0  0  0  0  0
   -2.0506    0.1105    0.3657 C   0  0  0  0  0  0  0  0  0  0  0  0
   -2.9125    0.7843    1.3017 O   0  0  0  0  0  0  0  0  0  0  0  0
   -1.2069    1.1899   -0.3281 C   0  0  0  0  0  0  0  0  0  0  0  0
   -2.0602    2.2550   -1.0300 C   0  0  0  0  0  0  0  0  0  0  0  0
   -3.3504    1.7048   -1.6222 C   0  0  0  0  0  0  0  0  0  0  0  0
   -4.3921    1.9777   -0.7962 F   0  0  0  0  0  0  0  0  0  0  0  0
   -3.6177    2.3622   -2.7821 F   0  0  0  0  0  0  0  0  0  0  0  0
   -3.3010    0.2151   -1.8936 C   0  0  0  0  0  0  0  0  0  0  0  0
   -2.9762   -0.6098   -0.6433 C   0  0  0  0  0  0  0  0  0  0  0  0
    2.0746   -2.2513   -0.0095 C   0  0  0  0  0  0  0  0  0  0  0  0
    2.0404   -3.5868   -0.5430 C   0  0  0  0  0  0  0  0  0  0  0  0
    3.2971   -4.0846   -0.8109 C   0  0  0  0  0  0  0  0  0  0  0  0
    4.5225   -2.9550   -0.4307 S   0  0  0  0  0  0  0  0  0  0  0  0
    3.3803   -1.7997    0.0879 C   0  0  0  0  0  0  0  0  0  0  0  0
    3.7818   -0.5985    0.5290 N   0  0  0  0  0  0  0  0  0  0  0  0
    3.3083    3.5757    0.5739 H   0  0  0  0  0  0  0  0  0  0  0  0
    2.0588    2.6121   -0.2337 H   0  0  0  0  0  0  0  0  0  0  0  0
    3.7688    2.3034   -0.5718 H   0  0  0  0  0  0  0  0  0  0  0  0
    2.3998    1.8778    2.1466 H   0  0  0  0  0  0  0  0  0  0  0  0
    4.1043    1.5763    1.8135 H   0  0  0  0  0  0  0  0  0  0  0  0
   -0.4420   -2.6773    0.3505 H   0  0  0  0  0  0  0  0  0  0  0  0
   -1.8921   -1.6183    1.6561 H   0  0  0  0  0  0  0  0  0  0  0  0
   -0.7052   -0.4121    2.0169 H   0  0  0  0  0  0  0  0  0  0  0  0
   -2.3565    1.3135    1.9011 H   0  0  0  0  0  0  0  0  0  0  0  0
   -0.5484    0.7269   -1.0732 H   0  0  0  0  0  0  0  0  0  0  0  0
   -0.5631    1.7015    0.3975 H   0  0  0  0  0  0  0  0  0  0  0  0
   -1.4551    2.7260   -1.8137 H   0  0  0  0  0  0  0  0  0  0  0  0
   -2.3095    3.0477   -0.3141 H   0  0  0  0  0  0  0  0  0  0  0  0
   -4.2566   -0.1216   -2.3122 H   0  0  0  0  0  0  0  0  0  0  0  0
   -2.5474    0.0188   -2.6669 H   0  0  0  0  0  0  0  0  0  0  0  0
   -2.5353   -1.5532   -0.9858 H   0  0  0  0  0  0  0  0  0  0  0  0
   -3.9190   -0.8737   -0.1462 H   0  0  0  0  0  0  0  0  0  0  0  0
    1.1343   -4.1505   -0.7251 H   0  0  0  0  0  0  0  0  0  0  0  0
    3.5566   -5.0541   -1.2143 H   0  0  0  0  0  0  0  0  0  0  0  0
  1  2  1  0
  2  3  1  0
  3  4  2  0
  4  5  1  0
  5  6  1  0
  6  7  1  0
  7  8  1  0
  8  9  1  0
  8 10  1  0
 10 11  1  0
 11 12  1  0
 12 13  1  0
 12 14  1  0
 12 15  1  0
 15 16  1  0
  5 17  2  0
 17 18  1  0
 18 19  2  0
 19 20  1  0
 20 21  1  0
 21 22  2  0
 22  3  1  0
 16  8  1  0
 21 17  1  0
  1 23  1  0
  1 24  1  0
  1 25  1  0
  2 26  1  0
  2 27  1  0
  6 28  1  0
  7 29  1  0
  7 30  1  0
  9 31  1  0
 10 32  1  0
 10 33  1  0
 11 34  1  0
 11 35  1  0
 15 36  1  0
 15 37  1  0
 16 38  1  0
 16 39  1  0
 18 40  1  0
 19 41  1  0
M  END
$$$$
OCNT-2317818
     RDKit          3D

 48 50  0  0  0  0  0  0  0  0999 V2000
    6.7034   -0.9838   -1.8185 C   0  0  0  0  0  0  0  0  0  0  0  0
    5.3657   -1.6119   -2.1749 C   0  0  0  0  0  0  0  0  0  0  0  0
    4.8426   -2.3510   -1.0723 O   0  0  0  0  0  0  0  0  0  0  0  0
    4.0442   -1.7074   -0.1679 C   0  0  0  0  0  0  0  0  0  0  0  0
    3.7675   -0.3434   -0.1308 C   0  0  0  0  0  0  0  0  0  0  0  0
    2.9369    0.1799    0.8670 C   0  0  0  0  0  0  0  0  0  0  0  0
    2.3789   -0.6503    1.8469 C   0  0  0  0  0  0  0  0  0  0  0  0
    1.4866   -0.0740    2.9143 C   0  0  0  0  0  0  0  0  0  0  0  0
    0.1084   -0.0215    2.4764 N   0  0  0  0  0  0  0  0  0  0  0  0
   -0.4163    1.1223    1.9387 C   0  0  0  0  0  0  0  0  0  0  0  0
    0.2458    2.1488    1.8130 O   0  0  0  0  0  0  0  0  0  0  0  0
   -1.7443    1.0345    1.5477 N   0  0  0  0  0  0  0  0  0  0  0  0
   -2.5383   -0.1926    1.4807 C   0  0  0  0  0  0  0  0  0  0  0  0
   -3.1976   -0.3611    0.1128 C   0  0  0  0  0  0  0  0  0  0  0  0
   -3.9634    0.9054   -0.2880 C   0  0  0  0  0  0  0  0  0  0  0  0
   -4.6112    0.7656   -1.5848 N   0  0  0  0  0  0  0  0  0  0  0  0
   -4.0068    0.5823   -2.7981 C   0  0  0  0  0  0  0  0  0  0  0  0
   -5.0408    0.5167   -3.7035 C   0  0  0  0  0  0  0  0  0  0  0  0
   -6.2498    0.6540   -3.0743 N   0  0  0  0  0  0  0  0  0  0  0  0
   -5.9611    0.8026   -1.8009 C   0  0  0  0  0  0  0  0  0  0  0  0
   -3.0510    2.1361   -0.2275 C   0  0  0  0  0  0  0  0  0  0  0  0
   -2.4365    2.2617    1.1604 C   0  0  0  0  0  0  0  0  0  0  0  0
    2.6507   -2.0214    1.7992 C   0  0  0  0  0  0  0  0  0  0  0  0
    3.4805   -2.5413    0.8021 C   0  0  0  0  0  0  0  0  0  0  0  0
    6.5990   -0.2541   -1.0119 H   0  0  0  0  0  0  0  0  0  0  0  0
    7.1373   -0.4793   -2.6876 H   0  0  0  0  0  0  0  0  0  0  0  0
    7.4078   -1.7492   -1.4695 H   0  0  0  0  0  0  0  0  0  0  0  0
    5.5266   -2.3327   -2.9853 H   0  0  0  0  0  0  0  0  0  0  0  0
    4.6512   -0.8788   -2.5688 H   0  0  0  0  0  0  0  0  0  0  0  0
    4.1840    0.3510   -0.8552 H   0  0  0  0  0  0  0  0  0  0  0  0
    2.7230    1.2479    0.8752 H   0  0  0  0  0  0  0  0  0  0  0  0
    1.5215   -0.7056    3.8096 H   0  0  0  0  0  0  0  0  0  0  0  0
    1.8384    0.9185    3.2175 H   0  0  0  0  0  0  0  0  0  0  0  0
   -0.5349   -0.5829    3.0077 H   0  0  0  0  0  0  0  0  0  0  0  0
   -1.9349   -1.0810    1.6816 H   0  0  0  0  0  0  0  0  0  0  0  0
   -3.3006   -0.1271    2.2654 H   0  0  0  0  0  0  0  0  0  0  0  0
   -3.8777   -1.2217    0.1402 H   0  0  0  0  0  0  0  0  0  0  0  0
   -2.4250   -0.5910   -0.6343 H   0  0  0  0  0  0  0  0  0  0  0  0
   -4.7759    1.0477    0.4379 H   0  0  0  0  0  0  0  0  0  0  0  0
   -2.9347    0.5135   -2.9206 H   0  0  0  0  0  0  0  0  0  0  0  0
   -4.9789    0.3747   -4.7750 H   0  0  0  0  0  0  0  0  0  0  0  0
   -6.6860    0.9374   -1.0072 H   0  0  0  0  0  0  0  0  0  0  0  0
   -2.2498    2.0540   -0.9727 H   0  0  0  0  0  0  0  0  0  0  0  0
   -3.6160    3.0447   -0.4690 H   0  0  0  0  0  0  0  0  0  0  0  0
   -1.7682    3.1279    1.1872 H   0  0  0  0  0  0  0  0  0  0  0  0
   -3.2190    2.4379    1.9082 H   0  0  0  0  0  0  0  0  0  0  0  0
    2.2260   -2.6938    2.5387 H   0  0  0  0  0  0  0  0  0  0  0  0
    3.6928   -3.6081    0.7825 H   0  0  0  0  0  0  0  0  0  0  0  0
  1  2  1  0
  2  3  1  0
  3  4  1  0
  4  5  1  0
  5  6  2  0
  6  7  1  0
  7  8  1  0
  8  9  1  0
  9 10  1  0
 10 11  2  0
 10 12  1  0
 12 13  1  0
 13 14  1  0
 14 15  1  0
 15 16  1  0
 16 17  1  0
 17 18  2  0
 18 19  1  0
 19 20  2  0
 15 21  1  0
 21 22  1  0
  7 23  2  0
 23 24  1  0
 24  4  2  0
 22 12  1  0
 20 16  1  0
  1 25  1  0
  1 26  1  0
  1 27  1  0
  2 28  1  0
  2 29  1  0
  5 30  1  0
  6 31  1  0
  8 32  1  0
  8 33  1  0
  9 34  1  0
 13 35  1  0
 13 36  1  0
 14 37  1  0
 14 38  1  0
 15 39  1  0
 17 40  1  0
 18 41  1  0
 20 42  1  0
 21 43  1  0
 21 44  1  0
 22 45  1  0
 22 46  1  0
 23 47  1  0
 24 48  1  0
M  END
$$$$
OCNT-2317832
     RDKit          3D

 51 55  0  0  0  0  0  0  0  0999 V2000
    3.1541    2.7806   -0.8389 C   0  0  0  0  0  0  0  0  0  0  0  0
    3.7064    1.6899   -0.0082 C   0  0  0  0  0  0  0  0  0  0  0  0
    3.6628    0.3066   -0.0773 C   0  0  0  0  0  0  0  0  0  0  0  0
    2.9906   -0.4925   -1.0851 C   0  0  0  0  0  0  0  0  0  0  0  0
    3.6138   -1.3319   -1.7305 O   0  0  0  0  0  0  0  0  0  0  0  0
    1.6231   -0.2778   -1.2864 N   0  0  0  0  0  0  0  0  0  0  0  0
    0.7376    0.3454   -0.2953 C   0  0  0  0  0  0  0  0  0  0  0  0
   -0.5657   -0.4358   -0.1468 C   0  0  0  0  0  0  0  0  0  0  0  0
   -1.3383   -0.5574   -1.4790 C   0  0  0  0  0  0  0  0  0  0  0  0
   -2.4703    0.4795   -1.6157 C   0  0  0  0  0  0  0  0  0  0  0  0
   -3.5674    0.2739   -0.6258 C   0  0  0  0  0  0  0  0  0  0  0  0
   -3.8149    1.0207    0.4306 N   0  0  0  0  0  0  0  0  0  0  0  0
   -4.8972    0.4421    1.0480 C   0  0  0  0  0  0  0  0  0  0  0  0
   -5.5709    0.8188    2.2191 C   0  0  0  0  0  0  0  0  0  0  0  0
   -6.6532    0.0397    2.6512 C   0  0  0  0  0  0  0  0  0  0  0  0
   -7.0534   -1.0919    1.9335 C   0  0  0  0  0  0  0  0  0  0  0  0
   -6.3988   -1.4765    0.7572 C   0  0  0  0  0  0  0  0  0  0  0  0
   -5.3270   -0.6792    0.3472 C   0  0  0  0  0  0  0  0  0  0  0  0
   -4.4776   -0.7497   -0.7265 N   0  0  0  0  0  0  0  0  0  0  0  0
   -0.3953   -0.4455   -2.6928 C   0  0  0  0  0  0  0  0  0  0  0  0
    0.9891   -0.9976   -2.3842 C   0  0  0  0  0  0  0  0  0  0  0  0
    4.4760   -0.1649    0.9989 C   0  0  0  0  0  0  0  0  0  0  0  0
    4.8808   -1.4246    1.4787 C   0  0  0  0  0  0  0  0  0  0  0  0
    5.7020   -1.4858    2.6142 C   0  0  0  0  0  0  0  0  0  0  0  0
    6.1103   -0.3209    3.2687 C   0  0  0  0  0  0  0  0  0  0  0  0
    5.7166    0.9419    2.8110 C   0  0  0  0  0  0  0  0  0  0  0  0
    4.9088    0.9672    1.6770 C   0  0  0  0  0  0  0  0  0  0  0  0
    4.4428    2.0889    1.0676 O   0  0  0  0  0  0  0  0  0  0  0  0
    2.2246    3.1544   -0.3990 H   0  0  0  0  0  0  0  0  0  0  0  0
    2.9434    2.4412   -1.8588 H   0  0  0  0  0  0  0  0  0  0  0  0
    3.8612    3.6155   -0.9035 H   0  0  0  0  0  0  0  0  0  0  0  0
    0.5274    1.3647   -0.6369 H   0  0  0  0  0  0  0  0  0  0  0  0
    1.2275    0.4052    0.6802 H   0  0  0  0  0  0  0  0  0  0  0  0
   -0.3223   -1.4495    0.1998 H   0  0  0  0  0  0  0  0  0  0  0  0
   -1.1778    0.0151    0.6413 H   0  0  0  0  0  0  0  0  0  0  0  0
   -1.7880   -1.5595   -1.4977 H   0  0  0  0  0  0  0  0  0  0  0  0
   -2.9000    0.4299   -2.6249 H   0  0  0  0  0  0  0  0  0  0  0  0
   -2.0649    1.4929   -1.4956 H   0  0  0  0  0  0  0  0  0  0  0  0
   -5.2493    1.6924    2.7749 H   0  0  0  0  0  0  0  0  0  0  0  0
   -7.1810    0.3156    3.5604 H   0  0  0  0  0  0  0  0  0  0  0  0
   -7.8936   -1.6833    2.2949 H   0  0  0  0  0  0  0  0  0  0  0  0
   -6.7092   -2.3555    0.2030 H   0  0  0  0  0  0  0  0  0  0  0  0
   -4.4947   -1.4562   -1.4472 H   0  0  0  0  0  0  0  0  0  0  0  0
   -0.8323   -0.9787   -3.5447 H   0  0  0  0  0  0  0  0  0  0  0  0
   -0.2949    0.6042   -2.9980 H   0  0  0  0  0  0  0  0  0  0  0  0
    1.6297   -0.9261   -3.2705 H   0  0  0  0  0  0  0  0  0  0  0  0
    0.9297   -2.0559   -2.1058 H   0  0  0  0  0  0  0  0  0  0  0  0
    4.5728   -2.3348    0.9719 H   0  0  0  0  0  0  0  0  0  0  0  0
    6.0275   -2.4569    2.9850 H   0  0  0  0  0  0  0  0  0  0  0  0
    6.7500   -0.3942    4.1463 H   0  0  0  0  0  0  0  0  0  0  0  0
    6.0292    1.8558    3.2994 H   0  0  0  0  0  0  0  0  0  0  0  0
  1  2  1  0
  2  3  2  0
  3  4  1  0
  4  5  2  0
  4  6  1  0
  6  7  1  0
  7  8  1  0
  8  9  1  0
  9 10  1  0
 10 11  1  0
 11 12  2  0
 12 13  1  0
 13 14  2  0
 14 15  1  0
 15 16  2  0
 16 17  1  0
 17 18  2  0
 18 19  1  0
  9 20  1  0
 20 21  1  0
  3 22  1  0
 22 23  2  0
 23 24  1  0
 24 25  2  0
 25 26  1  0
 26 27  2  0
 27 28  1  0
 28  2  1  0
 21  6  1  0
 27 22  1  0
 19 11  1  0
 18 13  1  0
  1 29  1  0
  1 30  1  0
  1 31  1  0
  7 32  1  0
  7 33  1  0
  8 34  1  0
  8 35  1  0
  9 36  1  0
 10 37  1  0
 10 38  1  0
 14 39  1  0
 15 40  1  0
 16 41  1  0
 17 42  1  0
 19 43  1  0
 20 44  1  0
 20 45  1  0
 21 46  1  0
 21 47  1  0
 23 48  1  0
 24 49  1  0
 25 50  1  0
 26 51  1  0
M  END
$$$$
OCNT-2317840
     RDKit          3D

  0  0  0  0  0  0  0  0  0  0999 V3000
M  V30 BEGIN CTAB
M  V30 COUNTS 54 57 0 0 0
M  V30 BEGIN ATOM
M  V30 1 C -0.964344 3.031593 0.832448 0
M  V30 2 C -1.329583 2.343463 -0.484075 0 CFG=1
M  V30 3 C -0.111228 2.147286 -1.396172 0
M  V30 4 N 0.176230 0.712044 -1.313139 0
M  V30 5 C 0.995686 0.212305 -2.426566 0
M  V30 6 C 2.453388 0.711878 -2.414913 0
M  V30 7 C 3.312684 0.060466 -1.355063 0
M  V30 8 C 4.163217 -1.000967 -1.684562 0
M  V30 9 C 4.955198 -1.605660 -0.704639 0
M  V30 10 C 4.910198 -1.166634 0.627907 0
M  V30 11 C 5.696522 -1.767025 1.625691 0
M  V30 12 C 5.634486 -1.322021 2.947266 0
M  V30 13 C 4.787586 -0.271106 3.287712 0
M  V30 14 C 4.002011 0.337459 2.306859 0
M  V30 15 C 4.051892 -0.098854 0.973172 0
M  V30 16 C 3.264611 0.501544 -0.024294 0
M  V30 17 C -1.143543 0.076271 -1.273668 0
M  V30 18 C -1.877812 0.918186 -0.237399 0 CFG=2
M  V30 19 C -3.388124 0.798862 -0.413328 0
M  V30 20 O -4.029171 1.682822 -0.985639 0
M  V30 21 N -4.021118 -0.334070 0.089929 0
M  V30 22 C -3.341832 -1.554588 0.543478 0
M  V30 23 C -4.174166 -2.322386 1.576457 0
M  V30 24 O -5.500625 -2.571806 1.094652 0
M  V30 25 C -6.172268 -1.330680 0.834648 0
M  V30 26 C -5.438918 -0.523507 -0.238700 0
M  V30 27 H -0.591572 4.044369 0.647308 0
M  V30 28 H -1.840309 3.111186 1.483200 0
M  V30 29 H -0.183802 2.481259 1.371512 0
M  V30 30 H -2.052684 2.982945 -1.005834 0
M  V30 31 H -0.381006 2.437609 -2.421763 0
M  V30 32 H 0.744809 2.756207 -1.085544 0
M  V30 33 H 1.007726 -0.885912 -2.397723 0
M  V30 34 H 0.536414 0.493779 -3.383707 0
M  V30 35 H 2.893214 0.503429 -3.399606 0
M  V30 36 H 2.503751 1.802739 -2.308264 0
M  V30 37 H 4.217953 -1.366809 -2.707701 0
M  V30 38 H 5.609413 -2.426654 -0.990737 0
M  V30 39 H 6.362106 -2.590952 1.377956 0
M  V30 40 H 6.246456 -1.796954 3.709647 0
M  V30 41 H 4.736481 0.076932 4.315443 0
M  V30 42 H 3.346123 1.157169 2.589968 0
M  V30 43 H 2.595646 1.319462 0.238872 0
M  V30 44 H -1.061862 -0.971600 -0.973250 0
M  V30 45 H -1.647952 0.115241 -2.247564 0
M  V30 46 H -1.609781 0.611245 0.780613 0
M  V30 47 H -2.360566 -1.333255 0.966243 0
M  V30 48 H -3.198422 -2.174224 -0.349947 0
M  V30 49 H -4.234681 -1.770383 2.521681 0
M  V30 50 H -3.706412 -3.290485 1.784111 0
M  V30 51 H -7.187954 -1.563333 0.499683 0
M  V30 52 H -6.248545 -0.763988 1.770171 0
M  V30 53 H -5.464945 -1.063104 -1.193087 0
M  V30 54 H -5.940576 0.439206 -0.380894 0
M  V30 END ATOM
M  V30 BEGIN BOND
M  V30 1 1 1 2
M  V30 2 1 2 3
M  V30 3 1 3 4
M  V30 4 1 4 5
M  V30 5 1 5 6
M  V30 6 1 6 7
M  V30 7 1 7 8
M  V30 8 2 8 9
M  V30 9 1 9 10
M  V30 10 2 10 11
M  V30 11 1 11 12
M  V30 12 2 12 13
M  V30 13 1 13 14
M  V30 14 2 14 15
M  V30 15 1 15 16
M  V30 16 1 4 17
M  V30 17 1 17 18
M  V30 18 1 18 19
M  V30 19 2 19 20
M  V30 20 1 19 21
M  V30 21 1 21 22
M  V30 22 1 22 23
M  V30 23 1 23 24
M  V30 24 1 24 25
M  V30 25 1 25 26
M  V30 26 1 18 2
M  V30 27 1 26 21
M  V30 28 2 16 7
M  V30 29 1 15 10
M  V30 30 1 1 27
M  V30 31 1 1 28
M  V30 32 1 1 29
M  V30 33 1 2 30 CFG=3
M  V30 34 1 3 31
M  V30 35 1 3 32
M  V30 36 1 5 33
M  V30 37 1 5 34
M  V30 38 1 6 35
M  V30 39 1 6 36
M  V30 40 1 8 37
M  V30 41 1 9 38
M  V30 42 1 11 39
M  V30 43 1 12 40
M  V30 44 1 13 41
M  V30 45 1 14 42
M  V30 46 1 16 43
M  V30 47 1 17 44
M  V30 48 1 17 45
M  V30 49 1 18 46 CFG=1
M  V30 50 1 22 47
M  V30 51 1 22 48
M  V30 52 1 23 49
M  V30 53 1 23 50
M  V30 54 1 25 51
M  V30 55 1 25 52
M  V30 56 1 26 53
M  V30 57 1 26 54
M  V30 END BOND
M  V30 BEGIN COLLECTION
M  V30 MDLV30/STERAC1 ATOMS=(2 2 18)
M  V30 END COLLECTION
M  V30 END CTAB
M  END
>  <_CXSMILES_Data>  (1281) 
|&1:1,17|

$$$$
OCNT-2317842
     RDKit          3D

 49 51  0  0  0  0  0  0  0  0999 V2000
    6.7627   -0.5458    2.0460 C   0  0  0  0  0  0  0  0  0  0  0  0
    5.4534   -0.7995    1.3204 C   0  0  0  0  0  0  0  0  0  0  0  0
    4.8892    0.4648    0.9769 O   0  0  0  0  0  0  0  0  0  0  0  0
    3.6866    0.4518    0.3256 C   0  0  0  0  0  0  0  0  0  0  0  0
    2.9706   -0.6812   -0.0558 C   0  0  0  0  0  0  0  0  0  0  0  0
    1.7456   -0.5476   -0.7187 C   0  0  0  0  0  0  0  0  0  0  0  0
    1.2127    0.7185   -1.0075 C   0  0  0  0  0  0  0  0  0  0  0  0
   -0.1112    0.8725   -1.7273 C   0  0  0  0  0  0  0  0  0  0  0  0
   -0.0163    0.4728   -3.2091 C   0  0  0  0  0  0  0  0  0  0  0  0
   -1.1515   -0.5173   -3.4279 C   0  0  0  0  0  0  0  0  0  0  0  0
   -2.0975   -0.2494   -2.2741 C   0  0  0  0  0  0  0  0  0  0  0  0
   -1.1694    0.0053   -1.1727 N   0  0  0  0  0  0  0  0  0  0  0  0
   -1.8034    0.5815    0.0121 C   0  0  0  0  0  0  0  0  0  0  0  0
   -2.6638   -0.4157    0.6991 C   0  0  0  0  0  0  0  0  0  0  0  0
   -2.3475   -1.5887    1.3617 C   0  0  0  0  0  0  0  0  0  0  0  0
   -1.0316   -2.2273    1.5628 C   0  0  0  0  0  0  0  0  0  0  0  0
   -3.4908   -2.1558    1.8564 N   0  0  0  0  0  0  0  0  0  0  0  0
   -4.5119   -1.3788    1.5288 N   0  0  0  0  0  0  0  0  0  0  0  0
   -4.0251   -0.3376    0.8306 N   0  0  0  0  0  0  0  0  0  0  0  0
   -4.9411    0.6647    0.3325 C   0  0  0  0  0  0  0  0  0  0  0  0
   -5.1051    1.8243    1.2987 C   0  0  0  0  0  0  0  0  0  0  0  0
    1.9434    1.8508   -0.6261 C   0  0  0  0  0  0  0  0  0  0  0  0
    3.1674    1.7147    0.0346 C   0  0  0  0  0  0  0  0  0  0  0  0
    7.2389   -1.4880    2.3317 H   0  0  0  0  0  0  0  0  0  0  0  0
    6.5941    0.0530    2.9474 H   0  0  0  0  0  0  0  0  0  0  0  0
    7.4520    0.0208    1.4111 H   0  0  0  0  0  0  0  0  0  0  0  0
    5.6536   -1.3849    0.4156 H   0  0  0  0  0  0  0  0  0  0  0  0
    4.7778   -1.3507    1.9848 H   0  0  0  0  0  0  0  0  0  0  0  0
    3.3329   -1.6837    0.1443 H   0  0  0  0  0  0  0  0  0  0  0  0
    1.1977   -1.4432   -1.0073 H   0  0  0  0  0  0  0  0  0  0  0  0
   -0.4343    1.9227   -1.6850 H   0  0  0  0  0  0  0  0  0  0  0  0
   -0.1733    1.3573   -3.8388 H   0  0  0  0  0  0  0  0  0  0  0  0
    0.9429    0.0295   -3.4980 H   0  0  0  0  0  0  0  0  0  0  0  0
   -1.6320   -0.3869   -4.4021 H   0  0  0  0  0  0  0  0  0  0  0  0
   -0.7653   -1.5430   -3.3740 H   0  0  0  0  0  0  0  0  0  0  0  0
   -2.7462   -1.1110   -2.0889 H   0  0  0  0  0  0  0  0  0  0  0  0
   -2.7216    0.6263   -2.4923 H   0  0  0  0  0  0  0  0  0  0  0  0
   -1.0340    0.8863    0.7337 H   0  0  0  0  0  0  0  0  0  0  0  0
   -2.3547    1.4945   -0.2409 H   0  0  0  0  0  0  0  0  0  0  0  0
   -0.2911   -1.4955    1.9004 H   0  0  0  0  0  0  0  0  0  0  0  0
   -1.0916   -3.0182    2.3170 H   0  0  0  0  0  0  0  0  0  0  0  0
   -0.6781   -2.6743    0.6286 H   0  0  0  0  0  0  0  0  0  0  0  0
   -5.9066    0.1775    0.1548 H   0  0  0  0  0  0  0  0  0  0  0  0
   -4.5718    1.0137   -0.6366 H   0  0  0  0  0  0  0  0  0  0  0  0
   -5.4884    1.4806    2.2654 H   0  0  0  0  0  0  0  0  0  0  0  0
   -5.8076    2.5594    0.8942 H   0  0  0  0  0  0  0  0  0  0  0  0
   -4.1500    2.3284    1.4795 H   0  0  0  0  0  0  0  0  0  0  0  0
    1.5691    2.8494   -0.8374 H   0  0  0  0  0  0  0  0  0  0  0  0
    3.7222    2.6030    0.3276 H   0  0  0  0  0  0  0  0  0  0  0  0
  1  2  1  0
  2  3  1  0
  3  4  1  0
  4  5  1  0
  5  6  2  0
  6  7  1  0
  7  8  1  0
  8  9  1  0
  9 10  1  0
 10 11  1  0
 11 12  1  0
 12 13  1  0
 13 14  1  0
 14 15  2  0
 15 16  1  0
 15 17  1  0
 17 18  2  0
 18 19  1  0
 19 20  1  0
 20 21  1  0
  7 22  2  0
 22 23  1  0
 23  4  2  0
 12  8  1  0
 19 14  1  0
  1 24  1  0
  1 25  1  0
  1 26  1  0
  2 27  1  0
  2 28  1  0
  5 29  1  0
  6 30  1  0
  8 31  1  0
  9 32  1  0
  9 33  1  0
 10 34  1  0
 10 35  1  0
 11 36  1  0
 11 37  1  0
 13 38  1  0
 13 39  1  0
 16 40  1  0
 16 41  1  0
 16 42  1  0
 20 43  1  0
 20 44  1  0
 21 45  1  0
 21 46  1  0
 21 47  1  0
 22 48  1  0
 23 49  1  0
M  END
$$$$
OCNT-2317846
     RDKit          3D

 40 41  0  0  0  0  0  0  0  0999 V2000
    5.7687    0.8255   -1.3320 C   0  0  0  0  0  0  0  0  0  0  0  0
    5.6556   -0.6325   -0.9138 C   0  0  0  0  0  0  0  0  0  0  0  0
    4.2579   -1.0436   -0.8048 N   0  0  0  0  0  0  0  0  0  0  0  0
    3.6173   -0.7315    0.4073 C   0  0  0  0  0  0  0  0  0  0  0  0
    2.2892   -1.1265    0.5597 C   0  0  0  0  0  0  0  0  0  0  0  0
    1.5931   -0.8176    1.7353 C   0  0  0  0  0  0  0  0  0  0  0  0
    0.1531   -1.2137    1.8943 C   0  0  0  0  0  0  0  0  0  0  0  0
   -0.6893   -0.4350    1.0146 N   0  0  0  0  0  0  0  0  0  0  0  0
   -2.0401   -0.7132    0.9622 C   0  0  0  0  0  0  0  0  0  0  0  0
   -2.5434   -1.6331    1.5918 O   0  0  0  0  0  0  0  0  0  0  0  0
   -2.6794    0.1619    0.1116 N   0  0  0  0  0  0  0  0  0  0  0  0
   -4.0660    0.2591   -0.1508 C   0  0  0  0  0  0  0  0  0  0  0  0
   -5.0152   -0.4479    0.5871 C   0  0  0  0  0  0  0  0  0  0  0  0
   -6.3562   -0.2930    0.2770 C   0  0  0  0  0  0  0  0  0  0  0  0
   -6.8126    0.5117   -0.7013 N   0  0  0  0  0  0  0  0  0  0  0  0
   -5.8817    1.1919   -1.4015 C   0  0  0  0  0  0  0  0  0  0  0  0
   -4.5077    1.1128   -1.1768 C   0  0  0  0  0  0  0  0  0  0  0  0
   -3.5798    1.9250   -2.0300 C   0  0  0  0  0  0  0  0  0  0  0  0
    2.2612   -0.1073    2.7294 C   0  0  0  0  0  0  0  0  0  0  0  0
    3.5762    0.2546    2.5005 C   0  0  0  0  0  0  0  0  0  0  0  0
    4.2544   -0.0371    1.3692 N   0  0  0  0  0  0  0  0  0  0  0  0
    5.3531    1.5001   -0.5774 H   0  0  0  0  0  0  0  0  0  0  0  0
    6.8187    1.0948   -1.4830 H   0  0  0  0  0  0  0  0  0  0  0  0
    5.2327    1.0051   -2.2701 H   0  0  0  0  0  0  0  0  0  0  0  0
    6.2228   -0.8322    0.0033 H   0  0  0  0  0  0  0  0  0  0  0  0
    6.1205   -1.2435   -1.6969 H   0  0  0  0  0  0  0  0  0  0  0  0
    4.1508   -2.0407   -0.9698 H   0  0  0  0  0  0  0  0  0  0  0  0
    1.7897   -1.6597   -0.2444 H   0  0  0  0  0  0  0  0  0  0  0  0
   -0.1887   -1.0551    2.9241 H   0  0  0  0  0  0  0  0  0  0  0  0
    0.0243   -2.2795    1.6706 H   0  0  0  0  0  0  0  0  0  0  0  0
   -0.4487    0.5414    0.9311 H   0  0  0  0  0  0  0  0  0  0  0  0
   -2.0605    0.6846   -0.4881 H   0  0  0  0  0  0  0  0  0  0  0  0
   -4.7501   -1.1128    1.3996 H   0  0  0  0  0  0  0  0  0  0  0  0
   -7.1201   -0.8313    0.8309 H   0  0  0  0  0  0  0  0  0  0  0  0
   -6.2905    1.8297   -2.1815 H   0  0  0  0  0  0  0  0  0  0  0  0
   -2.9017    1.2692   -2.5855 H   0  0  0  0  0  0  0  0  0  0  0  0
   -2.9970    2.6140   -1.4101 H   0  0  0  0  0  0  0  0  0  0  0  0
   -4.1272    2.5277   -2.7628 H   0  0  0  0  0  0  0  0  0  0  0  0
    1.7761    0.1661    3.6604 H   0  0  0  0  0  0  0  0  0  0  0  0
    4.1406    0.8115    3.2431 H   0  0  0  0  0  0  0  0  0  0  0  0
  1  2  1  0
  2  3  1  0
  3  4  1  0
  4  5  2  0
  5  6  1  0
  6  7  1  0
  7  8  1  0
  8  9  1  0
  9 10  2  0
  9 11  1  0
 11 12  1  0
 12 13  2  0
 13 14  1  0
 14 15  2  0
 15 16  1  0
 16 17  2  0
 17 18  1  0
  6 19  2  0
 19 20  1  0
 20 21  2  0
 21  4  1  0
 17 12  1  0
  1 22  1  0
  1 23  1  0
  1 24  1  0
  2 25  1  0
  2 26  1  0
  3 27  1  0
  5 28  1  0
  7 29  1  0
  7 30  1  0
  8 31  1  0
 11 32  1  0
 13 33  1  0
 14 34  1  0
 16 35  1  0
 18 36  1  0
 18 37  1  0
 18 38  1  0
 19 39  1  0
 20 40  1  0
M  END
$$$$
OCNT-2317874
     RDKit          3D

 42 44  0  0  0  0  0  0  0  0999 V2000
    7.6022   -0.4862   -0.5953 C   0  0  0  0  0  0  0  0  0  0  0  0
    6.8628    0.3312    0.4522 C   0  0  0  0  0  0  0  0  0  0  0  0
    5.3859    0.3266    0.2089 C   0  0  0  0  0  0  0  0  0  0  0  0
    4.7740    1.1599   -0.6038 N   0  0  0  0  0  0  0  0  0  0  0  0
    3.4147    0.8970   -0.6133 C   0  0  0  0  0  0  0  0  0  0  0  0
    2.4463    1.5853   -1.3666 C   0  0  0  0  0  0  0  0  0  0  0  0
    1.1005    1.2083   -1.2756 C   0  0  0  0  0  0  0  0  0  0  0  0
    0.6971    0.1561   -0.4480 C   0  0  0  0  0  0  0  0  0  0  0  0
   -0.6807   -0.1370   -0.4294 N   0  0  0  0  0  0  0  0  0  0  0  0
   -1.3421   -1.1196    0.2857 C   0  0  0  0  0  0  0  0  0  0  0  0
   -0.8003   -1.9665    0.9924 O   0  0  0  0  0  0  0  0  0  0  0  0
   -2.8743   -1.1379    0.0276 C   0  0  1  0  0  0  0  0  0  0  0  0
   -3.5744   -2.1993    0.8969 C   0  0  0  0  0  0  0  0  0  0  0  0
   -4.9200   -1.5765    1.2375 C   0  0  2  0  0  0  0  0  0  0  0  0
   -5.8452   -1.7898    0.1715 O   0  0  0  0  0  0  0  0  0  0  0  0
   -4.5904   -0.0935    1.3759 C   0  0  0  0  0  0  0  0  0  0  0  0
   -3.5669    0.1252    0.3574 N   0  0  0  0  0  0  0  0  0  0  0  0
   -3.4672    1.2444   -0.4364 C   0  0  0  0  0  0  0  0  0  0  0  0
   -4.2670    2.4557   -0.0346 C   0  0  0  0  0  0  0  0  0  0  0  0
   -2.7395    1.2628   -1.4304 O   0  0  0  0  0  0  0  0  0  0  0  0
    1.6492   -0.5365    0.3078 C   0  0  0  0  0  0  0  0  0  0  0  0
    3.0001   -0.1499    0.2092 C   0  0  0  0  0  0  0  0  0  0  0  0
    4.3766   -0.8089    1.0083 S   0  0  0  0  0  0  0  0  0  0  0  0
    7.2884   -1.5354   -0.5754 H   0  0  0  0  0  0  0  0  0  0  0  0
    7.4164   -0.0996   -1.6032 H   0  0  0  0  0  0  0  0  0  0  0  0
    8.6807   -0.4512   -0.4116 H   0  0  0  0  0  0  0  0  0  0  0  0
    7.0959   -0.0528    1.4522 H   0  0  0  0  0  0  0  0  0  0  0  0
    7.2233    1.3663    0.4221 H   0  0  0  0  0  0  0  0  0  0  0  0
    2.7510    2.4026   -2.0122 H   0  0  0  0  0  0  0  0  0  0  0  0
    0.3710    1.7570   -1.8686 H   0  0  0  0  0  0  0  0  0  0  0  0
   -1.2709    0.4509   -1.0224 H   0  0  0  0  0  0  0  0  0  0  0  0
   -3.0378   -1.3504   -1.0365 H   0  0  0  0  0  0  0  0  0  0  0  0
   -3.0261   -2.3837    1.8279 H   0  0  0  0  0  0  0  0  0  0  0  0
   -3.6668   -3.1480    0.3584 H   0  0  0  0  0  0  0  0  0  0  0  0
   -5.3597   -1.9928    2.1478 H   0  0  0  0  0  0  0  0  0  0  0  0
   -5.5230   -1.3155   -0.6155 H   0  0  0  0  0  0  0  0  0  0  0  0
   -5.4638    0.5430    1.2159 H   0  0  0  0  0  0  0  0  0  0  0  0
   -4.1341    0.1256    2.3468 H   0  0  0  0  0  0  0  0  0  0  0  0
   -3.8553    3.3395   -0.5312 H   0  0  0  0  0  0  0  0  0  0  0  0
   -4.2067    2.6202    1.0445 H   0  0  0  0  0  0  0  0  0  0  0  0
   -5.3078    2.3298   -0.3429 H   0  0  0  0  0  0  0  0  0  0  0  0
    1.3839   -1.3565    0.9643 H   0  0  0  0  0  0  0  0  0  0  0  0
  1  2  1  0
  2  3  1  0
  3  4  2  0
  4  5  1  0
  5  6  2  0
  6  7  1  0
  7  8  2  0
  8  9  1  0
  9 10  1  0
 10 11  2  0
 10 12  1  0
 12 13  1  0
 13 14  1  0
 14 15  1  0
 14 16  1  0
 16 17  1  0
 17 18  1  0
 18 19  1  0
 18 20  2  0
  8 21  1  0
 21 22  2  0
 22 23  1  0
 23  3  1  0
 22  5  1  0
 17 12  1  0
  1 24  1  0
  1 25  1  0
  1 26  1  0
  2 27  1  0
  2 28  1  0
  6 29  1  0
  7 30  1  0
  9 31  1  0
 12 32  1  6
 13 33  1  0
 13 34  1  0
 14 35  1  1
 15 36  1  0
 16 37  1  0
 16 38  1  0
 19 39  1  0
 19 40  1  0
 19 41  1  0
 21 42  1  0
M  END
$$$$
OCNT-2317890
     RDKit          3D

 47 50  0  0  0  0  0  0  0  0999 V2000
   -4.5493   -0.0287    2.2523 O   0  0  0  0  0  0  0  0  0  0  0  0
   -4.2208    0.1283    0.8590 C   0  0  0  0  0  0  0  0  0  0  0  0
   -2.9823    0.9799    0.6232 C   0  0  0  0  0  0  0  0  0  0  0  0
   -1.8254    0.4876    1.5162 C   0  0  0  0  0  0  0  0  0  0  0  0
   -0.4766    0.9573    0.9822 C   0  0  0  0  0  0  0  0  0  0  0  0
   -0.1673    0.3589   -0.3250 N   0  0  0  0  0  0  0  0  0  0  0  0
    0.9202    1.0978   -0.9769 C   0  0  0  0  0  0  0  0  0  0  0  0
    1.5297    0.3400   -2.0976 C   0  0  0  0  0  0  0  0  0  0  0  0
    1.6759    0.6551   -3.4318 C   0  0  0  0  0  0  0  0  0  0  0  0
    2.3283   -0.3503   -4.0806 N   0  0  0  0  0  0  0  0  0  0  0  0
    2.6045   -1.2957   -3.1948 N   0  0  0  0  0  0  0  0  0  0  0  0
    2.1370   -0.8871   -1.9950 N   0  0  0  0  0  0  0  0  0  0  0  0
    2.2924   -1.7544   -0.8382 C   0  0  0  0  0  0  0  0  0  0  0  0
    3.3011   -1.2264    0.1544 C   0  0  0  0  0  0  0  0  0  0  0  0
    2.9454   -1.0671    1.5021 C   0  0  0  0  0  0  0  0  0  0  0  0
    3.8744   -0.5955    2.4309 C   0  0  0  0  0  0  0  0  0  0  0  0
    5.1714   -0.2874    2.0260 C   0  0  0  0  0  0  0  0  0  0  0  0
    5.5424   -0.4548    0.6936 C   0  0  0  0  0  0  0  0  0  0  0  0
    4.6153   -0.9264   -0.2369 C   0  0  0  0  0  0  0  0  0  0  0  0
   -1.3557    0.1840   -1.1755 C   0  0  0  0  0  0  0  0  0  0  0  0
   -2.5133    1.1258   -0.8368 C   0  0  0  0  0  0  0  0  0  0  0  0
   -4.5856   -1.0471   -0.0084 C   0  0  0  0  0  0  0  0  0  0  0  0
   -5.4311    0.1982   -0.0393 C   0  0  0  0  0  0  0  0  0  0  0  0
   -4.9367    0.7870    2.6137 H   0  0  0  0  0  0  0  0  0  0  0  0
   -3.2541    1.9904    0.9600 H   0  0  0  0  0  0  0  0  0  0  0  0
   -1.9671    0.8606    2.5382 H   0  0  0  0  0  0  0  0  0  0  0  0
   -1.8292   -0.6085    1.5873 H   0  0  0  0  0  0  0  0  0  0  0  0
   -0.4833    2.0542    0.9243 H   0  0  0  0  0  0  0  0  0  0  0  0
    0.3065    0.6790    1.6963 H   0  0  0  0  0  0  0  0  0  0  0  0
    1.7169    1.3123   -0.2526 H   0  0  0  0  0  0  0  0  0  0  0  0
    0.5595    2.0720   -1.3325 H   0  0  0  0  0  0  0  0  0  0  0  0
    1.3502    1.5435   -3.9530 H   0  0  0  0  0  0  0  0  0  0  0  0
    2.6141   -2.7420   -1.1902 H   0  0  0  0  0  0  0  0  0  0  0  0
    1.3022   -1.8823   -0.3901 H   0  0  0  0  0  0  0  0  0  0  0  0
    1.9384   -1.3076    1.8377 H   0  0  0  0  0  0  0  0  0  0  0  0
    3.5872   -0.4724    3.4720 H   0  0  0  0  0  0  0  0  0  0  0  0
    5.8955    0.0777    2.7497 H   0  0  0  0  0  0  0  0  0  0  0  0
    6.5560   -0.2213    0.3773 H   0  0  0  0  0  0  0  0  0  0  0  0
    4.9263   -1.0569   -1.2730 H   0  0  0  0  0  0  0  0  0  0  0  0
   -1.1200    0.2841   -2.2412 H   0  0  0  0  0  0  0  0  0  0  0  0
   -1.6922   -0.8524   -1.0527 H   0  0  0  0  0  0  0  0  0  0  0  0
   -2.1685    2.1577   -0.9917 H   0  0  0  0  0  0  0  0  0  0  0  0
   -3.3236    0.9802   -1.5559 H   0  0  0  0  0  0  0  0  0  0  0  0
   -3.9970   -1.2796   -0.8853 H   0  0  0  0  0  0  0  0  0  0  0  0
   -4.9905   -1.9256    0.4830 H   0  0  0  0  0  0  0  0  0  0  0  0
   -6.4138    0.1427    0.4170 H   0  0  0  0  0  0  0  0  0  0  0  0
   -5.4073    0.8150   -0.9278 H   0  0  0  0  0  0  0  0  0  0  0  0
  1  2  1  0
  2  3  1  0
  3  4  1  0
  4  5  1  0
  5  6  1  0
  6  7  1  0
  7  8  1  0
  8  9  2  0
  9 10  1  0
 10 11  2  0
 11 12  1  0
 12 13  1  0
 13 14  1  0
 14 15  2  0
 15 16  1  0
 16 17  2  0
 17 18  1  0
 18 19  2  0
  6 20  1  0
 20 21  1  0
  2 22  1  0
 22 23  1  0
 23  2  1  0
 21  3  1  0
 12  8  1  0
 19 14  1  0
  1 24  1  0
  3 25  1  0
  4 26  1  0
  4 27  1  0
  5 28  1  0
  5 29  1  0
  7 30  1  0
  7 31  1  0
  9 32  1  0
 13 33  1  0
 13 34  1  0
 15 35  1  0
 16 36  1  0
 17 37  1  0
 18 38  1  0
 19 39  1  0
 20 40  1  0
 20 41  1  0
 21 42  1  0
 21 43  1  0
 22 44  1  0
 22 45  1  0
 23 46  1  0
 23 47  1  0
M  END
$$$$
OCNT-2317895
     RDKit          3D

 56 58  0  0  0  0  0  0  0  0999 V2000
    3.5711    0.9402    2.3105 C   0  0  0  0  0  0  0  0  0  0  0  0
    2.7524    0.6249    1.1539 N   0  0  0  0  0  0  0  0  0  0  0  0
    3.2566    1.0391   -0.1526 C   0  0  0  0  0  0  0  0  0  0  0  0
    3.7982   -0.1461   -0.8942 C   0  0  0  0  0  0  0  0  0  0  0  0
    3.0569   -1.1194   -1.4022 N   0  0  0  0  0  0  0  0  0  0  0  0
    3.9311   -2.0045   -1.9735 C   0  0  0  0  0  0  0  0  0  0  0  0
    5.2221   -1.5589   -1.8426 C   0  0  0  0  0  0  0  0  0  0  0  0
    5.1295   -0.3714   -1.1622 N   0  0  0  0  0  0  0  0  0  0  0  0
    6.2388    0.5133   -0.8571 C   0  0  0  0  0  0  0  0  0  0  0  0
    6.1902    0.9527    0.4257 F   0  0  0  0  0  0  0  0  0  0  0  0
    7.4366   -0.1093   -1.0093 F   0  0  0  0  0  0  0  0  0  0  0  0
    1.4761    0.1246    1.3617 C   0  0  0  0  0  0  0  0  0  0  0  0
    0.9571    0.0612    2.4730 O   0  0  0  0  0  0  0  0  0  0  0  0
    0.8255   -0.2771    0.2233 N   0  0  0  0  0  0  0  0  0  0  0  0
   -0.5132   -0.8439    0.2715 C   0  0  0  0  0  0  0  0  0  0  0  0
   -1.6657    0.1590   -0.0946 C   0  0  0  0  0  0  0  0  0  0  0  0
   -3.0079   -0.4874    0.0363 N   0  0  0  0  0  0  0  0  0  0  0  0
   -3.3629   -0.9925    1.3801 C   0  0  0  0  0  0  0  0  0  0  0  0
   -3.4915   -2.5245    1.4495 C   0  0  0  0  0  0  0  0  0  0  0  0
   -4.4567   -3.0616    0.5373 O   0  0  0  0  0  0  0  0  0  0  0  0
   -4.6372   -2.2500   -0.6286 C   0  0  0  0  0  0  0  0  0  0  0  0
   -3.3761   -1.4573   -1.0104 C   0  0  0  0  0  0  0  0  0  0  0  0
   -1.6126    1.4249    0.8093 C   0  0  0  0  0  0  0  0  0  0  0  0
   -2.7230    2.4422    0.5158 C   0  0  0  0  0  0  0  0  0  0  0  0
   -3.2744    2.3789   -0.9070 C   0  0  0  0  0  0  0  0  0  0  0  0
   -2.2405    1.9387   -1.9337 C   0  0  0  0  0  0  0  0  0  0  0  0
   -1.4233    0.6977   -1.5427 C   0  0  0  0  0  0  0  0  0  0  0  0
    4.5645    0.5064    2.1726 H   0  0  0  0  0  0  0  0  0  0  0  0
    3.1477    0.5400    3.2356 H   0  0  0  0  0  0  0  0  0  0  0  0
    3.6517    2.0275    2.3995 H   0  0  0  0  0  0  0  0  0  0  0  0
    3.9985    1.8329   -0.0246 H   0  0  0  0  0  0  0  0  0  0  0  0
    2.4328    1.4728   -0.7321 H   0  0  0  0  0  0  0  0  0  0  0  0
    3.5851   -2.9122   -2.4520 H   0  0  0  0  0  0  0  0  0  0  0  0
    6.1691   -1.9725   -2.1636 H   0  0  0  0  0  0  0  0  0  0  0  0
    6.1924    1.3697   -1.5362 H   0  0  0  0  0  0  0  0  0  0  0  0
    1.4445   -0.6886   -0.4737 H   0  0  0  0  0  0  0  0  0  0  0  0
   -0.5070   -1.6779   -0.4395 H   0  0  0  0  0  0  0  0  0  0  0  0
   -0.6690   -1.2765    1.2648 H   0  0  0  0  0  0  0  0  0  0  0  0
   -2.6727   -0.6612    2.1607 H   0  0  0  0  0  0  0  0  0  0  0  0
   -4.3379   -0.5559    1.6309 H   0  0  0  0  0  0  0  0  0  0  0  0
   -2.5279   -3.0035    1.2413 H   0  0  0  0  0  0  0  0  0  0  0  0
   -3.7914   -2.8289    2.4575 H   0  0  0  0  0  0  0  0  0  0  0  0
   -4.9241   -2.9159   -1.4490 H   0  0  0  0  0  0  0  0  0  0  0  0
   -5.4825   -1.5748   -0.4496 H   0  0  0  0  0  0  0  0  0  0  0  0
   -3.5823   -0.9320   -1.9485 H   0  0  0  0  0  0  0  0  0  0  0  0
   -2.5621   -2.1701   -1.1828 H   0  0  0  0  0  0  0  0  0  0  0  0
   -0.6549    1.9392    0.6487 H   0  0  0  0  0  0  0  0  0  0  0  0
   -1.6250    1.1751    1.8759 H   0  0  0  0  0  0  0  0  0  0  0  0
   -2.3335    3.4486    0.7136 H   0  0  0  0  0  0  0  0  0  0  0  0
   -3.5516    2.2981    1.2201 H   0  0  0  0  0  0  0  0  0  0  0  0
   -3.6821    3.3581   -1.1853 H   0  0  0  0  0  0  0  0  0  0  0  0
   -4.1273    1.6904   -0.9383 H   0  0  0  0  0  0  0  0  0  0  0  0
   -2.7352    1.7616   -2.8961 H   0  0  0  0  0  0  0  0  0  0  0  0
   -1.5451    2.7710   -2.1042 H   0  0  0  0  0  0  0  0  0  0  0  0
   -1.5649   -0.0908   -2.2910 H   0  0  0  0  0  0  0  0  0  0  0  0
   -0.3666    0.9759   -1.6576 H   0  0  0  0  0  0  0  0  0  0  0  0
  1  2  1  0
  2  3  1  0
  3  4  1  0
  4  5  2  0
  5  6  1  0
  6  7  2  0
  7  8  1  0
  8  9  1  0
  9 10  1  0
  9 11  1  0
  2 12  1  0
 12 13  2  0
 12 14  1  0
 14 15  1  0
 15 16  1  0
 16 17  1  0
 17 18  1  0
 18 19  1  0
 19 20  1  0
 20 21  1  0
 21 22  1  0
 16 23  1  0
 23 24  1  0
 24 25  1  0
 25 26  1  0
 26 27  1  0
  8  4  1  0
 27 16  1  0
 22 17  1  0
  1 28  1  0
  1 29  1  0
  1 30  1  0
  3 31  1  0
  3 32  1  0
  6 33  1  0
  7 34  1  0
  9 35  1  0
 14 36  1  0
 15 37  1  0
 15 38  1  0
 18 39  1  0
 18 40  1  0
 19 41  1  0
 19 42  1  0
 21 43  1  0
 21 44  1  0
 22 45  1  0
 22 46  1  0
 23 47  1  0
 23 48  1  0
 24 49  1  0
 24 50  1  0
 25 51  1  0
 25 52  1  0
 26 53  1  0
 26 54  1  0
 27 55  1  0
 27 56  1  0
M  END
$$$$
OCNT-2317896
     RDKit          3D

 38 40  0  0  0  0  0  0  0  0999 V2000
   -4.9660    0.4971    0.9516 C   0  0  0  0  0  0  0  0  0  0  0  0
   -3.7474    0.1801    0.0811 C   0  0  0  0  0  0  0  0  0  0  0  0
   -4.1317    0.1547   -1.3989 C   0  0  0  0  0  0  0  0  0  0  0  0
   -2.6093    1.1462    0.3188 C   0  0  0  0  0  0  0  0  0  0  0  0
   -1.2386    0.9311    0.4898 C   0  0  0  0  0  0  0  0  0  0  0  0
   -0.5574   -0.3697    0.4712 C   0  0  0  0  0  0  0  0  0  0  0  0
   -1.1443   -1.4472    0.4512 O   0  0  0  0  0  0  0  0  0  0  0  0
    0.8189   -0.3020    0.4497 N   0  0  0  0  0  0  0  0  0  0  0  0
    1.6015   -1.5077    0.2833 C   0  0  0  0  0  0  0  0  0  0  0  0
    1.6968   -1.9727   -1.1812 C   0  0  0  0  0  0  0  0  0  0  0  0
    2.9015   -1.4114   -1.7656 O   0  0  0  0  0  0  0  0  0  0  0  0
    3.7203   -1.1754   -0.6847 C   0  0  0  0  0  0  0  0  0  0  0  0
    5.0741   -0.8768   -0.7524 C   0  0  0  0  0  0  0  0  0  0  0  0
    5.8608   -0.8042   -2.2867 Cl  0  0  0  0  0  0  0  0  0  0  0  0
    5.7506   -0.6486    0.4542 C   0  0  0  0  0  0  0  0  0  0  0  0
    7.4392   -0.2729    0.5091 Cl  0  0  0  0  0  0  0  0  0  0  0  0
    5.0648   -0.7153    1.6836 C   0  0  0  0  0  0  0  0  0  0  0  0
    3.6983   -1.0053    1.7258 C   0  0  0  0  0  0  0  0  0  0  0  0
    3.0422   -1.2359    0.5282 C   0  0  0  0  0  0  0  0  0  0  0  0
   -0.6606    2.2264    0.6949 C   0  0  0  0  0  0  0  0  0  0  0  0
   -1.6611    3.1648    0.6117 C   0  0  0  0  0  0  0  0  0  0  0  0
   -2.8318    2.5053    0.3682 N   0  0  0  0  0  0  0  0  0  0  0  0
   -5.4292    1.4509    0.6764 H   0  0  0  0  0  0  0  0  0  0  0  0
   -5.7276   -0.2821    0.8419 H   0  0  0  0  0  0  0  0  0  0  0  0
   -4.6900    0.5490    2.0103 H   0  0  0  0  0  0  0  0  0  0  0  0
   -3.4286   -0.8290    0.3594 H   0  0  0  0  0  0  0  0  0  0  0  0
   -4.4904    1.1329   -1.7396 H   0  0  0  0  0  0  0  0  0  0  0  0
   -3.2738   -0.1177   -2.0233 H   0  0  0  0  0  0  0  0  0  0  0  0
   -4.9259   -0.5773   -1.5815 H   0  0  0  0  0  0  0  0  0  0  0  0
    1.2483    0.5793    0.2117 H   0  0  0  0  0  0  0  0  0  0  0  0
    1.2008   -2.3049    0.9186 H   0  0  0  0  0  0  0  0  0  0  0  0
    1.7898   -3.0652   -1.2382 H   0  0  0  0  0  0  0  0  0  0  0  0
    0.8350   -1.6726   -1.7869 H   0  0  0  0  0  0  0  0  0  0  0  0
    5.5994   -0.5335    2.6145 H   0  0  0  0  0  0  0  0  0  0  0  0
    3.1675   -1.0414    2.6734 H   0  0  0  0  0  0  0  0  0  0  0  0
    0.3782    2.4588    0.8922 H   0  0  0  0  0  0  0  0  0  0  0  0
   -1.6392    4.2421    0.7061 H   0  0  0  0  0  0  0  0  0  0  0  0
   -3.7353    2.9500    0.2609 H   0  0  0  0  0  0  0  0  0  0  0  0
  1  2  1  0
  2  3  1  0
  2  4  1  0
  4  5  2  0
  5  6  1  0
  6  7  2  0
  6  8  1  0
  8  9  1  0
  9 10  1  0
 10 11  1  0
 11 12  1  0
 12 13  1  0
 13 14  1  0
 13 15  2  0
 15 16  1  0
 15 17  1  0
 17 18  2  0
 18 19  1  0
  5 20  1  0
 20 21  2  0
 21 22  1  0
 22  4  1  0
 19  9  1  0
 19 12  2  0
  1 23  1  0
  1 24  1  0
  1 25  1  0
  2 26  1  0
  3 27  1  0
  3 28  1  0
  3 29  1  0
  8 30  1  0
  9 31  1  0
 10 32  1  0
 10 33  1  0
 17 34  1  0
 18 35  1  0
 20 36  1  0
 21 37  1  0
 22 38  1  0
M  END
$$$$
OCNT-2317901
     RDKit          3D

 54 58  0  0  0  0  0  0  0  0999 V2000
    2.2440   -0.3874    2.2551 O   0  0  0  0  0  0  0  0  0  0  0  0
    1.6756    0.3592    1.4712 C   0  0  0  0  0  0  0  0  0  0  0  0
    2.1368    1.5945    1.1005 N   0  0  0  0  0  0  0  0  0  0  0  0
    3.4293    2.0708    1.5350 C   0  0  0  0  0  0  0  0  0  0  0  0
    4.4974    1.7532    0.5156 C   0  0  0  0  0  0  0  0  0  0  0  0
    4.8266    2.6872   -0.4821 C   0  0  0  0  0  0  0  0  0  0  0  0
    5.7939    2.4097   -1.4555 C   0  0  0  0  0  0  0  0  0  0  0  0
    6.4065    1.1613   -1.3855 C   0  0  0  0  0  0  0  0  0  0  0  0
    7.3666    0.7002   -2.2362 O   0  0  0  0  0  0  0  0  0  0  0  0
    7.6938   -0.5521   -1.8213 C   0  0  0  0  0  0  0  0  0  0  0  0
    6.9533   -0.9072   -0.7172 C   0  0  0  0  0  0  0  0  0  0  0  0
    6.1133    0.2004   -0.4254 C   0  0  0  0  0  0  0  0  0  0  0  0
    5.1367    0.4952    0.5421 C   0  0  0  0  0  0  0  0  0  0  0  0
    0.4988    0.0666    0.8411 N   0  0  0  0  0  0  0  0  0  0  0  0
   -0.2406   -1.1379    1.1766 C   0  0  0  0  0  0  0  0  0  0  0  0
    0.4291   -2.4143    0.6138 C   0  0  0  0  0  0  0  0  0  0  0  0
   -0.5162   -3.6302    0.6755 C   0  0  0  0  0  0  0  0  0  0  0  0
   -1.7885   -3.4284   -0.1682 C   0  0  0  0  0  0  0  0  0  0  0  0
   -2.3455   -2.0641    0.0180 C   0  0  0  0  0  0  0  0  0  0  0  0
   -3.5518   -1.5135   -0.3399 C   0  0  0  0  0  0  0  0  0  0  0  0
   -3.5049   -0.2016    0.0504 N   0  0  0  0  0  0  0  0  0  0  0  0
   -4.5342    0.8037   -0.1016 C   0  0  0  0  0  0  0  0  0  0  0  0
   -4.7893    1.2218   -1.5543 C   0  0  0  0  0  0  0  0  0  0  0  0
   -6.2729    1.5936   -1.6299 C   0  0  0  0  0  0  0  0  0  0  0  0
   -6.8236    1.4360   -0.2160 C   0  0  0  0  0  0  0  0  0  0  0  0
   -5.9120    0.4032    0.4274 C   0  0  0  0  0  0  0  0  0  0  0  0
   -2.3285    0.1422    0.6216 N   0  0  0  0  0  0  0  0  0  0  0  0
   -1.6311   -1.0018    0.6169 C   0  0  0  0  0  0  0  0  0  0  0  0
    1.8186    1.9083    0.1962 H   0  0  0  0  0  0  0  0  0  0  0  0
    3.6907    1.6472    2.5114 H   0  0  0  0  0  0  0  0  0  0  0  0
    3.3463    3.1560    1.6647 H   0  0  0  0  0  0  0  0  0  0  0  0
    4.3259    3.6538   -0.5088 H   0  0  0  0  0  0  0  0  0  0  0  0
    6.0566    3.1227   -2.2269 H   0  0  0  0  0  0  0  0  0  0  0  0
    8.4543   -1.0520   -2.4050 H   0  0  0  0  0  0  0  0  0  0  0  0
    7.0094   -1.8469   -0.1858 H   0  0  0  0  0  0  0  0  0  0  0  0
    4.8734   -0.2407    1.2983 H   0  0  0  0  0  0  0  0  0  0  0  0
   -0.1058    0.8631    0.6769 H   0  0  0  0  0  0  0  0  0  0  0  0
   -0.3074   -1.2117    2.2700 H   0  0  0  0  0  0  0  0  0  0  0  0
    1.3455   -2.6359    1.1731 H   0  0  0  0  0  0  0  0  0  0  0  0
    0.7323   -2.2514   -0.4304 H   0  0  0  0  0  0  0  0  0  0  0  0
   -0.7975   -3.8057    1.7223 H   0  0  0  0  0  0  0  0  0  0  0  0
    0.0099   -4.5283    0.3343 H   0  0  0  0  0  0  0  0  0  0  0  0
   -2.5335   -4.1862    0.0964 H   0  0  0  0  0  0  0  0  0  0  0  0
   -1.5475   -3.5702   -1.2295 H   0  0  0  0  0  0  0  0  0  0  0  0
   -4.4164   -1.9319   -0.8353 H   0  0  0  0  0  0  0  0  0  0  0  0
   -4.2007    1.6889    0.4579 H   0  0  0  0  0  0  0  0  0  0  0  0
   -4.5716    0.4177   -2.2670 H   0  0  0  0  0  0  0  0  0  0  0  0
   -4.1525    2.0712   -1.8266 H   0  0  0  0  0  0  0  0  0  0  0  0
   -6.7895    0.9125   -2.3180 H   0  0  0  0  0  0  0  0  0  0  0  0
   -6.4198    2.6129   -2.0055 H   0  0  0  0  0  0  0  0  0  0  0  0
   -7.8731    1.1271   -0.2120 H   0  0  0  0  0  0  0  0  0  0  0  0
   -6.7492    2.3899    0.3211 H   0  0  0  0  0  0  0  0  0  0  0  0
   -5.9604    0.4341    1.5206 H   0  0  0  0  0  0  0  0  0  0  0  0
   -6.2005   -0.6051    0.1058 H   0  0  0  0  0  0  0  0  0  0  0  0
  1  2  2  0
  2  3  1  0
  3  4  1  0
  4  5  1  0
  5  6  2  0
  6  7  1  0
  7  8  2  0
  8  9  1  0
  9 10  1  0
 10 11  2  0
 11 12  1  0
 12 13  2  0
  2 14  1  0
 14 15  1  0
 15 16  1  0
 16 17  1  0
 17 18  1  0
 18 19  1  0
 19 20  2  0
 20 21  1  0
 21 22  1  0
 22 23  1  0
 23 24  1  0
 24 25  1  0
 25 26  1  0
 21 27  1  0
 27 28  2  0
 13  5  1  0
 28 15  1  0
 12  8  1  0
 28 19  1  0
 26 22  1  0
  3 29  1  0
  4 30  1  0
  4 31  1  0
  6 32  1  0
  7 33  1  0
 10 34  1  0
 11 35  1  0
 13 36  1  0
 14 37  1  0
 15 38  1  0
 16 39  1  0
 16 40  1  0
 17 41  1  0
 17 42  1  0
 18 43  1  0
 18 44  1  0
 20 45  1  0
 22 46  1  0
 23 47  1  0
 23 48  1  0
 24 49  1  0
 24 50  1  0
 25 51  1  0
 25 52  1  0
 26 53  1  0
 26 54  1  0
M  END
$$$$
OCNT-2317904
     RDKit          3D

 39 42  0  0  0  0  0  0  0  0999 V2000
   -2.6860   -2.5943   -0.2429 O   0  0  0  0  0  0  0  0  0  0  0  0
   -2.3186   -1.4513    0.0033 C   0  0  0  0  0  0  0  0  0  0  0  0
   -1.0114   -1.1052    0.2270 N   0  0  0  0  0  0  0  0  0  0  0  0
    0.0787   -2.0673    0.0681 C   0  0  0  0  0  0  0  0  0  0  0  0
    0.5348   -2.1338   -1.3862 C   0  0  0  0  0  0  0  0  0  0  0  0
    1.4406   -0.9086   -1.5379 C   0  0  0  0  0  0  0  0  0  0  0  0
    1.9342   -0.6364   -0.1820 N   0  0  0  0  0  0  0  0  0  0  0  0
    3.0511    0.1273    0.0725 C   0  0  0  0  0  0  0  0  0  0  0  0
    3.5827    0.9998   -0.8949 C   0  0  0  0  0  0  0  0  0  0  0  0
    4.7108    1.7950   -0.6462 C   0  0  0  0  0  0  0  0  0  0  0  0
    5.3345    1.7382    0.5933 C   0  0  0  0  0  0  0  0  0  0  0  0
    6.7177    2.7132    0.8987 Cl  0  0  0  0  0  0  0  0  0  0  0  0
    4.8242    0.8940    1.5695 C   0  0  0  0  0  0  0  0  0  0  0  0
    5.4000    0.8186    2.7792 F   0  0  0  0  0  0  0  0  0  0  0  0
    3.6998    0.1048    1.3162 C   0  0  0  0  0  0  0  0  0  0  0  0
    1.3605   -1.5918    0.7736 C   0  0  0  0  0  0  0  0  0  0  0  0
   -3.3059   -0.3352    0.1163 C   0  0  0  0  0  0  0  0  0  0  0  0
   -3.0269    0.9097   -0.3172 C   0  0  0  0  0  0  0  0  0  0  0  0
   -3.9973    1.9028   -0.2179 N   0  0  0  0  0  0  0  0  0  0  0  0
   -3.9307    3.2051   -0.5745 N   0  0  0  0  0  0  0  0  0  0  0  0
   -5.1095    3.7324   -0.2712 N   0  0  0  0  0  0  0  0  0  0  0  0
   -5.9512    2.7969    0.2751 N   0  0  0  0  0  0  0  0  0  0  0  0
   -5.2701    1.6744    0.3057 C   0  0  0  0  0  0  0  0  0  0  0  0
   -5.5813    0.3592    0.7398 C   0  0  0  0  0  0  0  0  0  0  0  0
   -4.6452   -0.6052    0.6449 C   0  0  0  0  0  0  0  0  0  0  0  0
   -0.7469   -0.1465    0.4172 H   0  0  0  0  0  0  0  0  0  0  0  0
   -0.2536   -3.0418    0.4400 H   0  0  0  0  0  0  0  0  0  0  0  0
    1.1257   -3.0446   -1.5451 H   0  0  0  0  0  0  0  0  0  0  0  0
   -0.2837   -2.1302   -2.1124 H   0  0  0  0  0  0  0  0  0  0  0  0
    0.8668   -0.0491   -1.9027 H   0  0  0  0  0  0  0  0  0  0  0  0
    2.2484   -1.1288   -2.2446 H   0  0  0  0  0  0  0  0  0  0  0  0
    3.1160    1.0879   -1.8732 H   0  0  0  0  0  0  0  0  0  0  0  0
    5.0866    2.4537   -1.4246 H   0  0  0  0  0  0  0  0  0  0  0  0
    3.3547   -0.5324    2.1234 H   0  0  0  0  0  0  0  0  0  0  0  0
    2.0497   -2.4315    0.9227 H   0  0  0  0  0  0  0  0  0  0  0  0
    1.1308   -1.1261    1.7381 H   0  0  0  0  0  0  0  0  0  0  0  0
   -2.0913    1.2161   -0.7645 H   0  0  0  0  0  0  0  0  0  0  0  0
   -6.5725    0.1551    1.1303 H   0  0  0  0  0  0  0  0  0  0  0  0
   -4.8667   -1.6238    0.9577 H   0  0  0  0  0  0  0  0  0  0  0  0
  1  2  2  0
  2  3  1  0
  3  4  1  0
  4  5  1  0
  5  6  1  0
  6  7  1  0
  7  8  1  0
  8  9  1  0
  9 10  2  0
 10 11  1  0
 11 12  1  0
 11 13  2  0
 13 14  1  0
 13 15  1  0
  7 16  1  0
  2 17  1  0
 17 18  2  0
 18 19  1  0
 19 20  1  0
 20 21  2  0
 21 22  1  0
 22 23  2  0
 23 24  1  0
 24 25  2  0
 16  4  1  0
 25 17  1  0
 15  8  2  0
 23 19  1  0
  3 26  1  0
  4 27  1  0
  5 28  1  0
  5 29  1  0
  6 30  1  0
  6 31  1  0
  9 32  1  0
 10 33  1  0
 15 34  1  0
 16 35  1  0
 16 36  1  0
 18 37  1  0
 24 38  1  0
 25 39  1  0
M  END
$$$$
OCNT-2317909
     RDKit          3D

 37 39  0  0  0  0  0  0  0  0999 V2000
    4.3566    1.4272    1.8221 C   0  0  0  0  0  0  0  0  0  0  0  0
    3.6842    0.6295    0.7318 C   0  0  0  0  0  0  0  0  0  0  0  0
    4.4132    0.2378   -0.2700 N   0  0  0  0  0  0  0  0  0  0  0  0
    3.7782   -0.4859   -1.2360 C   0  0  0  0  0  0  0  0  0  0  0  0
    4.2662   -0.9985   -2.3452 N   0  0  0  0  0  0  0  0  0  0  0  0
    3.1929   -1.6130   -2.9113 C   0  0  0  0  0  0  0  0  0  0  0  0
    2.0466   -1.5306   -2.2371 N   0  0  0  0  0  0  0  0  0  0  0  0
    2.4163   -0.7967   -1.1504 N   0  0  0  0  0  0  0  0  0  0  0  0
    1.6226   -0.3832   -0.0526 C   0  0  0  0  0  0  0  0  0  0  0  0
    0.2775   -0.7444   -0.0663 N   0  0  0  0  0  0  0  0  0  0  0  0
   -0.6432   -0.8511    1.0797 C   0  0  1  0  0  0  0  0  0  0  0  0
   -1.4441    0.4451    1.2828 C   0  0  0  0  0  0  0  0  0  0  0  0
   -2.4297    0.7761    0.1826 C   0  0  0  0  0  0  0  0  0  0  0  0
   -1.9950    1.3549   -1.0169 C   0  0  0  0  0  0  0  0  0  0  0  0
   -2.9058    1.6499   -2.0328 C   0  0  0  0  0  0  0  0  0  0  0  0
   -4.2594    1.3688   -1.8604 C   0  0  0  0  0  0  0  0  0  0  0  0
   -4.7037    0.7925   -0.6724 C   0  0  0  0  0  0  0  0  0  0  0  0
   -3.7944    0.4977    0.3449 C   0  0  0  0  0  0  0  0  0  0  0  0
   -1.5937   -2.0460    0.9299 C   0  0  0  0  0  0  0  0  0  0  0  0
   -2.4528   -2.3855    1.7301 O   0  0  0  0  0  0  0  0  0  0  0  0
   -1.4015   -2.7561   -0.2058 O   0  0  0  0  0  0  0  0  0  0  0  0
    2.2268    0.3357    0.9106 C   0  0  0  0  0  0  0  0  0  0  0  0
    3.6236    1.9527    2.4397 H   0  0  0  0  0  0  0  0  0  0  0  0
    5.0303    2.1652    1.3757 H   0  0  0  0  0  0  0  0  0  0  0  0
    4.9385    0.7501    2.4539 H   0  0  0  0  0  0  0  0  0  0  0  0
    3.2484   -2.1396   -3.8555 H   0  0  0  0  0  0  0  0  0  0  0  0
    0.0503   -1.4118   -0.8198 H   0  0  0  0  0  0  0  0  0  0  0  0
   -0.0507   -1.0628    1.9791 H   0  0  0  0  0  0  0  0  0  0  0  0
   -0.7597    1.2959    1.3975 H   0  0  0  0  0  0  0  0  0  0  0  0
   -1.9897    0.3822    2.2339 H   0  0  0  0  0  0  0  0  0  0  0  0
   -0.9408    1.5748   -1.1716 H   0  0  0  0  0  0  0  0  0  0  0  0
   -2.5567    2.0964   -2.9602 H   0  0  0  0  0  0  0  0  0  0  0  0
   -4.9675    1.5985   -2.6522 H   0  0  0  0  0  0  0  0  0  0  0  0
   -5.7596    0.5729   -0.5366 H   0  0  0  0  0  0  0  0  0  0  0  0
   -4.1614    0.0459    1.2644 H   0  0  0  0  0  0  0  0  0  0  0  0
   -2.0840   -3.4587   -0.1761 H   0  0  0  0  0  0  0  0  0  0  0  0
    1.7213    0.7139    1.7869 H   0  0  0  0  0  0  0  0  0  0  0  0
  1  2  1  0
  2  3  2  0
  3  4  1  0
  4  5  2  0
  5  6  1  0
  6  7  2  0
  7  8  1  0
  8  9  1  0
  9 10  1  0
 10 11  1  0
 11 12  1  0
 12 13  1  0
 13 14  2  0
 14 15  1  0
 15 16  2  0
 16 17  1  0
 17 18  2  0
 11 19  1  0
 19 20  2  0
 19 21  1  0
  9 22  2  0
 22  2  1  0
  8  4  1  0
 18 13  1  0
  1 23  1  0
  1 24  1  0
  1 25  1  0
  6 26  1  0
 10 27  1  0
 11 28  1  1
 12 29  1  0
 12 30  1  0
 14 31  1  0
 15 32  1  0
 16 33  1  0
 17 34  1  0
 18 35  1  0
 21 36  1  0
 22 37  1  0
M  END
$$$$
OCNT-2317923
     RDKit          3D

 41 43  0  0  0  0  0  0  0  0999 V2000
    5.1550    1.6159    2.4590 C   0  0  0  0  0  0  0  0  0  0  0  0
    4.5999    0.6685    1.4638 C   0  0  0  0  0  0  0  0  0  0  0  0
    5.1516   -0.5354    1.3010 N   0  0  0  0  0  0  0  0  0  0  0  0
    4.4123   -1.1124    0.3321 N   0  0  0  0  0  0  0  0  0  0  0  0
    4.7524   -2.4515   -0.0950 C   0  0  0  0  0  0  0  0  0  0  0  0
    3.3867   -0.3200   -0.1330 C   0  0  0  0  0  0  0  0  0  0  0  0
    2.4553   -0.7150   -1.1678 C   0  0  0  0  0  0  0  0  0  0  0  0
    2.5514   -1.7667   -1.7937 O   0  0  0  0  0  0  0  0  0  0  0  0
    1.4325    0.1768   -1.4005 N   0  0  0  0  0  0  0  0  0  0  0  0
    0.3483   -0.1231   -2.3061 C   0  0  0  0  0  0  0  0  0  0  0  0
   -0.8611   -0.6074   -1.5487 C   0  0  0  0  0  0  0  0  0  0  0  0
   -0.9620   -1.9502   -1.1660 C   0  0  0  0  0  0  0  0  0  0  0  0
   -2.0698   -2.3971   -0.4496 C   0  0  0  0  0  0  0  0  0  0  0  0
   -3.0856   -1.5042   -0.1031 C   0  0  0  0  0  0  0  0  0  0  0  0
   -3.0109   -0.1486   -0.4610 C   0  0  0  0  0  0  0  0  0  0  0  0
   -4.0780    0.7911   -0.0901 C   0  0  0  0  0  0  0  0  0  0  0  0
   -5.4217    0.5445   -0.3987 C   0  0  0  0  0  0  0  0  0  0  0  0
   -6.4074    1.4612   -0.0359 C   0  0  0  0  0  0  0  0  0  0  0  0
   -6.0219    2.6108    0.6315 C   0  0  0  0  0  0  0  0  0  0  0  0
   -4.7433    2.8949    0.9531 N   0  0  0  0  0  0  0  0  0  0  0  0
   -3.8102    1.9812    0.5888 C   0  0  0  0  0  0  0  0  0  0  0  0
   -1.8845    0.2835   -1.1845 C   0  0  0  0  0  0  0  0  0  0  0  0
    3.5017    0.8532    0.5966 C   0  0  0  0  0  0  0  0  0  0  0  0
    6.1965    1.8556    2.2219 H   0  0  0  0  0  0  0  0  0  0  0  0
    5.1183    1.1831    3.4639 H   0  0  0  0  0  0  0  0  0  0  0  0
    4.5869    2.5515    2.4725 H   0  0  0  0  0  0  0  0  0  0  0  0
    3.8863   -3.0985    0.0630 H   0  0  0  0  0  0  0  0  0  0  0  0
    5.5937   -2.8197    0.4989 H   0  0  0  0  0  0  0  0  0  0  0  0
    5.0377   -2.4175   -1.1490 H   0  0  0  0  0  0  0  0  0  0  0  0
    1.2983    0.9415   -0.7584 H   0  0  0  0  0  0  0  0  0  0  0  0
    0.1137    0.8000   -2.8478 H   0  0  0  0  0  0  0  0  0  0  0  0
    0.6526   -0.8653   -3.0526 H   0  0  0  0  0  0  0  0  0  0  0  0
   -0.1714   -2.6536   -1.4241 H   0  0  0  0  0  0  0  0  0  0  0  0
   -2.1401   -3.4413   -0.1553 H   0  0  0  0  0  0  0  0  0  0  0  0
   -3.9354   -1.8749    0.4671 H   0  0  0  0  0  0  0  0  0  0  0  0
   -5.7069   -0.3579   -0.9347 H   0  0  0  0  0  0  0  0  0  0  0  0
   -7.4502    1.2824   -0.2726 H   0  0  0  0  0  0  0  0  0  0  0  0
   -6.7529    3.3553    0.9336 H   0  0  0  0  0  0  0  0  0  0  0  0
   -2.7958    2.2422    0.8807 H   0  0  0  0  0  0  0  0  0  0  0  0
   -1.8098    1.3282   -1.4837 H   0  0  0  0  0  0  0  0  0  0  0  0
    2.8877    1.7385    0.5204 H   0  0  0  0  0  0  0  0  0  0  0  0
  1  2  1  0
  2  3  2  0
  3  4  1  0
  4  5  1  0
  4  6  1  0
  6  7  1  0
  7  8  2  0
  7  9  1  0
  9 10  1  0
 10 11  1  0
 11 12  2  0
 12 13  1  0
 13 14  2  0
 14 15  1  0
 15 16  1  0
 16 17  1  0
 17 18  2  0
 18 19  1  0
 19 20  2  0
 20 21  1  0
 15 22  2  0
  6 23  2  0
 23  2  1  0
 22 11  1  0
 21 16  2  0
  1 24  1  0
  1 25  1  0
  1 26  1  0
  5 27  1  0
  5 28  1  0
  5 29  1  0
  9 30  1  0
 10 31  1  0
 10 32  1  0
 12 33  1  0
 13 34  1  0
 14 35  1  0
 17 36  1  0
 18 37  1  0
 19 38  1  0
 21 39  1  0
 22 40  1  0
 23 41  1  0
M  END
$$$$
OCNT-2317940
     RDKit          3D

 49 52  0  0  0  0  0  0  0  0999 V2000
    7.1144   -1.2194    1.6999 C   0  0  0  0  0  0  0  0  0  0  0  0
    5.8512   -0.8528    2.4576 C   0  0  0  0  0  0  0  0  0  0  0  0
    5.1097    0.2051    1.8023 N   0  0  0  0  0  0  0  0  0  0  0  0
    5.3789    1.5029    2.0949 N   0  0  0  0  0  0  0  0  0  0  0  0
    4.5228    2.1853    1.3223 C   0  0  0  0  0  0  0  0  0  0  0  0
    3.7224    1.3358    0.5509 C   0  0  0  0  0  0  0  0  0  0  0  0
    4.1149    0.0620    0.8740 C   0  0  0  0  0  0  0  0  0  0  0  0
    3.6292   -1.1003    0.3783 N   0  0  0  0  0  0  0  0  0  0  0  0
    2.6833   -0.9145   -0.4938 C   0  0  0  0  0  0  0  0  0  0  0  0
    2.1791    0.3168   -0.9146 N   0  0  0  0  0  0  0  0  0  0  0  0
    1.1018    0.3456   -1.8962 C   0  0  0  0  0  0  0  0  0  0  0  0
   -0.2732    0.0162   -1.2807 C   0  0  0  0  0  0  0  0  0  0  0  0
   -1.3308   -0.1561   -2.3766 C   0  0  0  0  0  0  0  0  0  0  0  0
   -2.6737   -0.6347   -1.8125 C   0  0  0  0  0  0  0  0  0  0  0  0
   -2.9174   -0.2014   -0.3534 C   0  0  0  0  0  0  0  0  0  0  0  0
   -4.3964   -0.2101   -0.0111 C   0  0  0  0  0  0  0  0  0  0  0  0
   -5.2818    0.7416   -0.5398 C   0  0  0  0  0  0  0  0  0  0  0  0
   -6.6399    0.7104   -0.2158 C   0  0  0  0  0  0  0  0  0  0  0  0
   -7.1319   -0.2735    0.6381 C   0  0  0  0  0  0  0  0  0  0  0  0
   -6.2669   -1.2281    1.1671 C   0  0  0  0  0  0  0  0  0  0  0  0
   -4.9087   -1.1980    0.8438 C   0  0  0  0  0  0  0  0  0  0  0  0
   -2.2429    1.1452   -0.0617 C   0  0  0  0  0  0  0  0  0  0  0  0
   -0.7238    1.0829   -0.2635 C   0  0  0  0  0  0  0  0  0  0  0  0
    2.6785    1.5279   -0.4145 C   0  0  0  0  0  0  0  0  0  0  0  0
    2.2849    2.6401   -0.7486 O   0  0  0  0  0  0  0  0  0  0  0  0
    6.8810   -1.5688    0.6885 H   0  0  0  0  0  0  0  0  0  0  0  0
    7.7843   -0.3579    1.6087 H   0  0  0  0  0  0  0  0  0  0  0  0
    7.6524   -2.0171    2.2212 H   0  0  0  0  0  0  0  0  0  0  0  0
    5.1911   -1.7217    2.5513 H   0  0  0  0  0  0  0  0  0  0  0  0
    6.0938   -0.5107    3.4698 H   0  0  0  0  0  0  0  0  0  0  0  0
    4.5234    3.2673    1.3579 H   0  0  0  0  0  0  0  0  0  0  0  0
    2.2035   -1.7838   -0.9729 H   0  0  0  0  0  0  0  0  0  0  0  0
    1.3407   -0.4033   -2.6619 H   0  0  0  0  0  0  0  0  0  0  0  0
    1.0715    1.3198   -2.3977 H   0  0  0  0  0  0  0  0  0  0  0  0
   -0.1876   -0.9418   -0.7491 H   0  0  0  0  0  0  0  0  0  0  0  0
   -1.4783    0.8018   -2.8925 H   0  0  0  0  0  0  0  0  0  0  0  0
   -0.9906   -0.8682   -3.1379 H   0  0  0  0  0  0  0  0  0  0  0  0
   -2.7174   -1.7309   -1.8599 H   0  0  0  0  0  0  0  0  0  0  0  0
   -3.4686   -0.2800   -2.4805 H   0  0  0  0  0  0  0  0  0  0  0  0
   -2.4243   -0.9413    0.2940 H   0  0  0  0  0  0  0  0  0  0  0  0
   -4.9236    1.5159   -1.2140 H   0  0  0  0  0  0  0  0  0  0  0  0
   -7.3136    1.4549   -0.6317 H   0  0  0  0  0  0  0  0  0  0  0  0
   -8.1886   -0.2969    0.8902 H   0  0  0  0  0  0  0  0  0  0  0  0
   -6.6490   -1.9976    1.8328 H   0  0  0  0  0  0  0  0  0  0  0  0
   -4.2523   -1.9545    1.2681 H   0  0  0  0  0  0  0  0  0  0  0  0
   -2.6490    1.9203   -0.7246 H   0  0  0  0  0  0  0  0  0  0  0  0
   -2.4582    1.4773    0.9616 H   0  0  0  0  0  0  0  0  0  0  0  0
   -0.2407    0.8744    0.6995 H   0  0  0  0  0  0  0  0  0  0  0  0
   -0.3837    2.0801   -0.5672 H   0  0  0  0  0  0  0  0  0  0  0  0
  1  2  1  0
  2  3  1  0
  3  4  1  0
  4  5  2  0
  5  6  1  0
  6  7  2  0
  7  8  1  0
  8  9  2  0
  9 10  1  0
 10 11  1  0
 11 12  1  0
 12 13  1  0
 13 14  1  0
 14 15  1  0
 15 16  1  0
 16 17  2  0
 17 18  1  0
 18 19  2  0
 19 20  1  0
 20 21  2  0
 15 22  1  0
 22 23  1  0
 10 24  1  0
 24 25  2  0
  7  3  1  0
 23 12  1  0
 24  6  1  0
 21 16  1  0
  1 26  1  0
  1 27  1  0
  1 28  1  0
  2 29  1  0
  2 30  1  0
  5 31  1  0
  9 32  1  0
 11 33  1  0
 11 34  1  0
 12 35  1  0
 13 36  1  0
 13 37  1  0
 14 38  1  0
 14 39  1  0
 15 40  1  0
 17 41  1  0
 18 42  1  0
 19 43  1  0
 20 44  1  0
 21 45  1  0
 22 46  1  0
 22 47  1  0
 23 48  1  0
 23 49  1  0
M  END
$$$$
OCNT-2317957
     RDKit          3D

 43 45  0  0  0  0  0  0  0  0999 V2000
   -3.2964   -1.7048    1.0548 C   0  0  0  0  0  0  0  0  0  0  0  0
   -3.6961   -0.4200    1.6067 N   0  0  0  0  0  0  0  0  0  0  0  0
   -4.3425    0.7557    0.6230 S   0  0  0  0  0  0  0  0  0  0  0  0
   -4.6513    1.8667    1.4911 O   0  0  0  0  0  0  0  0  0  0  0  0
   -5.3289    0.1506   -0.2364 O   0  0  0  0  0  0  0  0  0  0  0  0
   -3.0018    1.1691   -0.2783 N   0  0  0  0  0  0  0  0  0  0  0  0
   -1.9132    1.9444    0.3207 C   0  0  0  0  0  0  0  0  0  0  0  0
   -0.5914    1.2003    0.1854 C   0  0  0  0  0  0  0  0  0  0  0  0
   -0.2447    0.8312   -1.2682 C   0  0  0  0  0  0  0  0  0  0  0  0
    0.3018   -0.5960   -1.3238 C   0  0  0  0  0  0  0  0  0  0  0  0
   -0.3809   -1.4873   -1.8456 O   0  0  0  0  0  0  0  0  0  0  0  0
    1.5080   -0.9186   -0.7344 N   0  0  0  0  0  0  0  0  0  0  0  0
    1.8914   -2.3410   -0.6680 C   0  0  0  0  0  0  0  0  0  0  0  0
    3.1064   -2.4484    0.2487 C   0  0  0  0  0  0  0  0  0  0  0  0
    3.5363   -1.0189    0.3315 C   0  0  0  0  0  0  0  0  0  0  0  0
    4.7091   -0.5508    0.9126 C   0  0  0  0  0  0  0  0  0  0  0  0
    4.9359    0.8210    0.9146 C   0  0  0  0  0  0  0  0  0  0  0  0
    6.3751    1.4484    1.6166 Cl  0  0  0  0  0  0  0  0  0  0  0  0
    4.0039    1.6950    0.3456 C   0  0  0  0  0  0  0  0  0  0  0  0
    2.8210    1.2063   -0.2309 C   0  0  0  0  0  0  0  0  0  0  0  0
    2.5797   -0.1573   -0.2253 C   0  0  0  0  0  0  0  0  0  0  0  0
   -1.4638    0.9928   -2.1993 C   0  0  0  0  0  0  0  0  0  0  0  0
   -2.7538    0.4900   -1.5593 C   0  0  0  0  0  0  0  0  0  0  0  0
   -2.2647   -1.6623    0.6960 H   0  0  0  0  0  0  0  0  0  0  0  0
   -3.3447   -2.4579    1.8472 H   0  0  0  0  0  0  0  0  0  0  0  0
   -3.9573   -2.0318    0.2488 H   0  0  0  0  0  0  0  0  0  0  0  0
   -3.1536   -0.0430    2.3777 H   0  0  0  0  0  0  0  0  0  0  0  0
   -1.8600    2.9229   -0.1708 H   0  0  0  0  0  0  0  0  0  0  0  0
   -2.0982    2.1392    1.3823 H   0  0  0  0  0  0  0  0  0  0  0  0
   -0.6306    0.2998    0.8116 H   0  0  0  0  0  0  0  0  0  0  0  0
    0.1992    1.8276    0.6101 H   0  0  0  0  0  0  0  0  0  0  0  0
    0.5131    1.4978   -1.6830 H   0  0  0  0  0  0  0  0  0  0  0  0
    1.0545   -2.9501   -0.3079 H   0  0  0  0  0  0  0  0  0  0  0  0
    2.1343   -2.6680   -1.6871 H   0  0  0  0  0  0  0  0  0  0  0  0
    2.8207   -2.8131    1.2408 H   0  0  0  0  0  0  0  0  0  0  0  0
    3.8770   -3.0970   -0.1784 H   0  0  0  0  0  0  0  0  0  0  0  0
    5.4275   -1.2369    1.3501 H   0  0  0  0  0  0  0  0  0  0  0  0
    4.1972    2.7657    0.3406 H   0  0  0  0  0  0  0  0  0  0  0  0
    2.1572    1.9303   -0.6776 H   0  0  0  0  0  0  0  0  0  0  0  0
   -1.5804    2.0576   -2.4435 H   0  0  0  0  0  0  0  0  0  0  0  0
   -1.2999    0.4799   -3.1549 H   0  0  0  0  0  0  0  0  0  0  0  0
   -3.5841    0.7026   -2.2420 H   0  0  0  0  0  0  0  0  0  0  0  0
   -2.7107   -0.5916   -1.4142 H   0  0  0  0  0  0  0  0  0  0  0  0
  1  2  1  0
  2  3  1  0
  3  4  2  0
  3  5  2  0
  3  6  1  0
  6  7  1  0
  7  8  1  0
  8  9  1  0
  9 10  1  0
 10 11  2  0
 10 12  1  0
 12 13  1  0
 13 14  1  0
 14 15  1  0
 15 16  1  0
 16 17  2  0
 17 18  1  0
 17 19  1  0
 19 20  2  0
 20 21  1  0
  9 22  1  0
 22 23  1  0
 23  6  1  0
 21 12  1  0
 21 15  2  0
  1 24  1  0
  1 25  1  0
  1 26  1  0
  2 27  1  0
  7 28  1  0
  7 29  1  0
  8 30  1  0
  8 31  1  0
  9 32  1  0
 13 33  1  0
 13 34  1  0
 14 35  1  0
 14 36  1  0
 16 37  1  0
 19 38  1  0
 20 39  1  0
 22 40  1  0
 22 41  1  0
 23 42  1  0
 23 43  1  0
M  END
$$$$
OCNT-2317970
     RDKit          3D

 53 54  0  0  0  0  0  0  0  0999 V2000
    4.9104   -0.0249    2.5515 C   0  0  0  0  0  0  0  0  0  0  0  0
    4.6459   -1.2746    1.9274 O   0  0  0  0  0  0  0  0  0  0  0  0
    3.2775   -1.4390    1.5322 C   0  0  0  0  0  0  0  0  0  0  0  0
    2.8832   -0.5504    0.3412 C   0  0  0  0  0  0  0  0  0  0  0  0
    1.6253   -1.1153   -0.3474 C   0  0  0  0  0  0  0  0  0  0  0  0
    1.0709   -0.2012   -1.3514 N   0  0  0  0  0  0  0  0  0  0  0  0
    0.0643   -0.5319   -2.2501 C   0  0  0  0  0  0  0  0  0  0  0  0
   -0.1396    0.1706   -3.2469 O   0  0  0  0  0  0  0  0  0  0  0  0
   -0.8972   -1.7283   -1.9233 C   0  0  0  0  0  0  0  0  0  0  0  0
   -1.6698   -2.1099   -3.1985 C   0  0  0  0  0  0  0  0  0  0  0  0
   -0.2043   -2.9094   -1.5046 O   0  0  0  0  0  0  0  0  0  0  0  0
   -1.8677   -1.3408   -0.7862 C   0  0  0  0  0  0  0  0  0  0  0  0
   -2.6953   -0.0758   -1.0416 C   0  0  0  0  0  0  0  0  0  0  0  0
   -3.6378    0.1980    0.1064 C   0  0  0  0  0  0  0  0  0  0  0  0
   -4.9535   -0.2830    0.0764 C   0  0  0  0  0  0  0  0  0  0  0  0
   -5.8173   -0.0457    1.1467 C   0  0  0  0  0  0  0  0  0  0  0  0
   -5.3733    0.6698    2.2572 C   0  0  0  0  0  0  0  0  0  0  0  0
   -4.0650    1.1479    2.2992 C   0  0  0  0  0  0  0  0  0  0  0  0
   -3.1998    0.9119    1.2299 C   0  0  0  0  0  0  0  0  0  0  0  0
    1.8490    1.0158   -1.5716 C   0  0  0  0  0  0  0  0  0  0  0  0
    2.2243    1.7021   -0.2307 C   0  0  0  0  0  0  0  0  0  0  0  0
    3.4002    2.6584   -0.4479 C   0  0  0  0  0  0  0  0  0  0  0  0
    1.0233    2.4816    0.3173 C   0  0  0  0  0  0  0  0  0  0  0  0
    2.6082    0.7807    0.8141 O   0  0  0  0  0  0  0  0  0  0  0  0
    4.9353    0.7774    1.8100 H   0  0  0  0  0  0  0  0  0  0  0  0
    4.1752    0.1927    3.3319 H   0  0  0  0  0  0  0  0  0  0  0  0
    5.8995   -0.0814    3.0147 H   0  0  0  0  0  0  0  0  0  0  0  0
    2.6280   -1.2634    2.3980 H   0  0  0  0  0  0  0  0  0  0  0  0
    3.1803   -2.4930    1.2504 H   0  0  0  0  0  0  0  0  0  0  0  0
    3.7262   -0.4968   -0.3593 H   0  0  0  0  0  0  0  0  0  0  0  0
    0.8442   -1.2970    0.3959 H   0  0  0  0  0  0  0  0  0  0  0  0
    1.8840   -2.0597   -0.8350 H   0  0  0  0  0  0  0  0  0  0  0  0
   -0.9792   -2.4880   -3.9619 H   0  0  0  0  0  0  0  0  0  0  0  0
   -2.2155   -1.2673   -3.6337 H   0  0  0  0  0  0  0  0  0  0  0  0
   -2.3858   -2.9157   -2.9999 H   0  0  0  0  0  0  0  0  0  0  0  0
   -0.8226   -3.6582   -1.5630 H   0  0  0  0  0  0  0  0  0  0  0  0
   -1.3104   -1.2208    0.1506 H   0  0  0  0  0  0  0  0  0  0  0  0
   -2.5413   -2.1882   -0.5935 H   0  0  0  0  0  0  0  0  0  0  0  0
   -2.0441    0.7958   -1.1778 H   0  0  0  0  0  0  0  0  0  0  0  0
   -3.2789   -0.1690   -1.9642 H   0  0  0  0  0  0  0  0  0  0  0  0
   -5.3148   -0.8443   -0.7822 H   0  0  0  0  0  0  0  0  0  0  0  0
   -6.8375   -0.4189    1.1140 H   0  0  0  0  0  0  0  0  0  0  0  0
   -6.0467    0.8548    3.0898 H   0  0  0  0  0  0  0  0  0  0  0  0
   -3.7177    1.7050    3.1653 H   0  0  0  0  0  0  0  0  0  0  0  0
   -2.1811    1.2891    1.2785 H   0  0  0  0  0  0  0  0  0  0  0  0
    1.3170    1.7180   -2.2235 H   0  0  0  0  0  0  0  0  0  0  0  0
    2.7501    0.7049   -2.1161 H   0  0  0  0  0  0  0  0  0  0  0  0
    4.2899    2.1111   -0.7796 H   0  0  0  0  0  0  0  0  0  0  0  0
    3.1656    3.4240   -1.1946 H   0  0  0  0  0  0  0  0  0  0  0  0
    3.6771    3.1574    0.4878 H   0  0  0  0  0  0  0  0  0  0  0  0
    0.1864    1.8074    0.5297 H   0  0  0  0  0  0  0  0  0  0  0  0
    1.2736    2.9699    1.2662 H   0  0  0  0  0  0  0  0  0  0  0  0
    0.6813    3.2476   -0.3863 H   0  0  0  0  0  0  0  0  0  0  0  0
  1  2  1  0
  2  3  1  0
  3  4  1  0
  4  5  1  0
  5  6  1  0
  6  7  1  0
  7  8  2  0
  7  9  1  0
  9 10  1  0
  9 11  1  0
  9 12  1  0
 12 13  1  0
 13 14  1  0
 14 15  2  0
 15 16  1  0
 16 17  2  0
 17 18  1  0
 18 19  2  0
  6 20  1  0
 20 21  1  0
 21 22  1  0
 21 23  1  0
 21 24  1  0
 24  4  1  0
 19 14  1  0
  1 25  1  0
  1 26  1  0
  1 27  1  0
  3 28  1  0
  3 29  1  0
  4 30  1  0
  5 31  1  0
  5 32  1  0
 10 33  1  0
 10 34  1  0
 10 35  1  0
 11 36  1  0
 12 37  1  0
 12 38  1  0
 13 39  1  0
 13 40  1  0
 15 41  1  0
 16 42  1  0
 17 43  1  0
 18 44  1  0
 19 45  1  0
 20 46  1  0
 20 47  1  0
 22 48  1  0
 22 49  1  0
 22 50  1  0
 23 51  1  0
 23 52  1  0
 23 53  1  0
M  END
$$$$
OCNT-2317981
     RDKit          3D

 40 42  0  0  0  0  0  0  0  0999 V2000
    2.9564    1.7471   -3.7155 N   0  0  0  0  0  0  0  0  0  0  0  0
    3.1992    1.9508   -2.5989 C   0  0  0  0  0  0  0  0  0  0  0  0
    3.4914    2.1786   -1.2159 C   0  0  0  0  0  0  0  0  0  0  0  0
    3.0043    1.4206   -0.1582 C   0  0  0  0  0  0  0  0  0  0  0  0
    2.1970    0.2716   -0.1602 N   0  0  0  0  0  0  0  0  0  0  0  0
    1.8014   -0.4654   -1.3400 C   0  0  0  0  0  0  0  0  0  0  0  0
    1.2435   -1.7755   -0.8335 C   0  0  0  0  0  0  0  0  0  0  0  0
    0.6930   -1.4506    0.5490 C   0  0  0  0  0  0  0  0  0  0  0  0
   -0.7599   -1.1893    0.6806 N   0  0  0  0  0  0  0  0  0  0  0  0
   -1.5396   -2.4321    0.5799 C   0  0  0  0  0  0  0  0  0  0  0  0
   -3.0005   -2.1947    0.9662 C   0  0  0  0  0  0  0  0  0  0  0  0
   -3.6259   -1.0621    0.1521 C   0  0  0  0  0  0  0  0  0  0  0  0
   -2.7524    0.2024    0.1848 C   0  0  0  0  0  0  0  0  0  0  0  0
   -2.7349    0.6924    1.5472 O   0  0  0  0  0  0  0  0  0  0  0  0
   -3.3001    1.2587   -0.7924 C   0  0  0  0  0  0  0  0  0  0  0  0
   -2.5501    2.3846   -0.7895 F   0  0  0  0  0  0  0  0  0  0  0  0
   -4.5743    1.6079   -0.5087 F   0  0  0  0  0  0  0  0  0  0  0  0
   -3.2904    0.7844   -2.0641 F   0  0  0  0  0  0  0  0  0  0  0  0
   -1.3006   -0.1458   -0.2158 C   0  0  0  0  0  0  0  0  0  0  0  0
    1.5203   -0.2260    0.9802 C   0  0  0  0  0  0  0  0  0  0  0  0
    1.5026    0.2083    2.1240 O   0  0  0  0  0  0  0  0  0  0  0  0
    3.5896    2.0409    1.3302 S   0  0  0  0  0  0  0  0  0  0  0  0
    4.4525    3.3020    0.5811 C   0  0  0  0  0  0  0  0  0  0  0  0
    4.3204    3.2633   -0.7854 C   0  0  0  0  0  0  0  0  0  0  0  0
    2.6620   -0.6492   -1.9898 H   0  0  0  0  0  0  0  0  0  0  0  0
    1.0435    0.1112   -1.8797 H   0  0  0  0  0  0  0  0  0  0  0  0
    0.5180   -2.2170   -1.5226 H   0  0  0  0  0  0  0  0  0  0  0  0
    2.0596   -2.5026   -0.7280 H   0  0  0  0  0  0  0  0  0  0  0  0
    0.9702   -2.2571    1.2409 H   0  0  0  0  0  0  0  0  0  0  0  0
   -1.1332   -3.1901    1.2604 H   0  0  0  0  0  0  0  0  0  0  0  0
   -1.4898   -2.8456   -0.4349 H   0  0  0  0  0  0  0  0  0  0  0  0
   -3.5757   -3.1154    0.8148 H   0  0  0  0  0  0  0  0  0  0  0  0
   -3.0633   -1.9583    2.0359 H   0  0  0  0  0  0  0  0  0  0  0  0
   -4.6215   -0.8474    0.5587 H   0  0  0  0  0  0  0  0  0  0  0  0
   -3.7596   -1.4022   -0.8825 H   0  0  0  0  0  0  0  0  0  0  0  0
   -2.0052    0.2170    1.9970 H   0  0  0  0  0  0  0  0  0  0  0  0
   -0.6975    0.7638   -0.1143 H   0  0  0  0  0  0  0  0  0  0  0  0
   -1.2578   -0.4707   -1.2624 H   0  0  0  0  0  0  0  0  0  0  0  0
    5.0143    4.0093    1.1768 H   0  0  0  0  0  0  0  0  0  0  0  0
    4.7931    3.9818   -1.4458 H   0  0  0  0  0  0  0  0  0  0  0  0
  1  2  3  0
  2  3  1  0
  3  4  2  0
  4  5  1  0
  5  6  1  0
  6  7  1  0
  7  8  1  0
  8  9  1  0
  9 10  1  0
 10 11  1  0
 11 12  1  0
 12 13  1  0
 13 14  1  0
 13 15  1  0
 15 16  1  0
 15 17  1  0
 15 18  1  0
 13 19  1  0
  8 20  1  0
 20 21  2  0
  4 22  1  0
 22 23  1  0
 23 24  2  0
 24  3  1  0
 20  5  1  0
 19  9  1  0
  6 25  1  0
  6 26  1  0
  7 27  1  0
  7 28  1  0
  8 29  1  0
 10 30  1  0
 10 31  1  0
 11 32  1  0
 11 33  1  0
 12 34  1  0
 12 35  1  0
 14 36  1  0
 19 37  1  0
 19 38  1  0
 23 39  1  0
 24 40  1  0
M  END
$$$$
OCNT-2317996
     RDKit          3D

 46 48  0  0  0  0  0  0  0  0999 V2000
    4.5794   -1.4789   -2.4833 C   0  0  0  0  0  0  0  0  0  0  0  0
    3.9503   -0.8955   -1.2519 C   0  0  0  0  0  0  0  0  0  0  0  0
    4.6980   -0.7385   -0.0804 C   0  0  0  0  0  0  0  0  0  0  0  0
    4.1169   -0.1446    1.0439 C   0  0  0  0  0  0  0  0  0  0  0  0
    4.8730    0.0534    2.3077 C   0  0  0  0  0  0  0  0  0  0  0  0
    6.2338    0.1598    2.2157 N   0  0  0  0  0  0  0  0  0  0  0  0
    4.3080    0.1535    3.3892 O   0  0  0  0  0  0  0  0  0  0  0  0
    2.7789    0.2693    1.0009 C   0  0  0  0  0  0  0  0  0  0  0  0
    1.9997    0.1001   -0.1508 C   0  0  0  0  0  0  0  0  0  0  0  0
    0.6962    0.6059   -0.1539 N   0  0  0  0  0  0  0  0  0  0  0  0
   -0.2688    0.0986   -1.1188 C   0  0  0  0  0  0  0  0  0  0  0  0
   -1.6480    0.6012   -0.7514 C   0  0  0  0  0  0  0  0  0  0  0  0
   -2.0444    1.8615   -1.2197 C   0  0  0  0  0  0  0  0  0  0  0  0
   -3.3029    2.3472   -0.8959 C   0  0  0  0  0  0  0  0  0  0  0  0
   -3.7423    3.6933   -1.3870 C   0  0  0  0  0  0  0  0  0  0  0  0
   -4.1736    1.6491   -0.1373 N   0  0  0  0  0  0  0  0  0  0  0  0
   -3.7900    0.4361    0.3325 C   0  0  0  0  0  0  0  0  0  0  0  0
   -2.5301   -0.1227    0.0758 C   0  0  0  0  0  0  0  0  0  0  0  0
   -2.1629   -1.4834    0.6195 C   0  0  0  0  0  0  0  0  0  0  0  0
   -3.0768   -1.9755    1.7407 C   0  0  0  0  0  0  0  0  0  0  0  0
   -4.5361   -1.7472    1.3775 C   0  0  0  0  0  0  0  0  0  0  0  0
   -4.7997   -0.2551    1.2128 C   0  0  0  0  0  0  0  0  0  0  0  0
    2.6192   -0.4465   -1.2827 C   0  0  0  0  0  0  0  0  0  0  0  0
    5.3671   -2.1925   -2.2200 H   0  0  0  0  0  0  0  0  0  0  0  0
    3.8382   -2.0203   -3.0806 H   0  0  0  0  0  0  0  0  0  0  0  0
    5.0141   -0.6819   -3.0943 H   0  0  0  0  0  0  0  0  0  0  0  0
    5.7240   -1.0941   -0.0492 H   0  0  0  0  0  0  0  0  0  0  0  0
    6.7066    0.4349    3.0676 H   0  0  0  0  0  0  0  0  0  0  0  0
    6.6878    0.3875    1.3430 H   0  0  0  0  0  0  0  0  0  0  0  0
    2.3444    0.7361    1.8834 H   0  0  0  0  0  0  0  0  0  0  0  0
    0.3080    0.6694    0.7853 H   0  0  0  0  0  0  0  0  0  0  0  0
   -0.0208    0.4493   -2.1286 H   0  0  0  0  0  0  0  0  0  0  0  0
   -0.2613   -0.9969   -1.1566 H   0  0  0  0  0  0  0  0  0  0  0  0
   -1.3700    2.4593   -1.8269 H   0  0  0  0  0  0  0  0  0  0  0  0
   -3.0729    4.4714   -1.0072 H   0  0  0  0  0  0  0  0  0  0  0  0
   -4.7574    3.9206   -1.0459 H   0  0  0  0  0  0  0  0  0  0  0  0
   -3.7375    3.7168   -2.4812 H   0  0  0  0  0  0  0  0  0  0  0  0
   -2.2019   -2.2004   -0.2103 H   0  0  0  0  0  0  0  0  0  0  0  0
   -1.1370   -1.4722    1.0048 H   0  0  0  0  0  0  0  0  0  0  0  0
   -2.8931   -3.0399    1.9252 H   0  0  0  0  0  0  0  0  0  0  0  0
   -2.8425   -1.4438    2.6718 H   0  0  0  0  0  0  0  0  0  0  0  0
   -5.1892   -2.1541    2.1574 H   0  0  0  0  0  0  0  0  0  0  0  0
   -4.7737   -2.2775    0.4468 H   0  0  0  0  0  0  0  0  0  0  0  0
   -4.7754    0.2309    2.1962 H   0  0  0  0  0  0  0  0  0  0  0  0
   -5.8056   -0.1098    0.8019 H   0  0  0  0  0  0  0  0  0  0  0  0
    2.0700   -0.5336   -2.2165 H   0  0  0  0  0  0  0  0  0  0  0  0
  1  2  1  0
  2  3  2  0
  3  4  1  0
  4  5  1  0
  5  6  1  0
  5  7  2  0
  4  8  2  0
  8  9  1  0
  9 10  1  0
 10 11  1  0
 11 12  1  0
 12 13  2  0
 13 14  1  0
 14 15  1  0
 14 16  2  0
 16 17  1  0
 17 18  2  0
 18 19  1  0
 19 20  1  0
 20 21  1  0
 21 22  1  0
  9 23  2  0
 23  2  1  0
 18 12  1  0
 22 17  1  0
  1 24  1  0
  1 25  1  0
  1 26  1  0
  3 27  1  0
  6 28  1  0
  6 29  1  0
  8 30  1  0
 10 31  1  0
 11 32  1  0
 11 33  1  0
 13 34  1  0
 15 35  1  0
 15 36  1  0
 15 37  1  0
 19 38  1  0
 19 39  1  0
 20 40  1  0
 20 41  1  0
 21 42  1  0
 21 43  1  0
 22 44  1  0
 22 45  1  0
 23 46  1  0
M  END
$$$$
OCNT-2318002
     RDKit          3D

 47 50  0  0  0  0  0  0  0  0999 V2000
    5.3357    2.6673   -0.6891 C   0  0  0  0  0  0  0  0  0  0  0  0
    4.1919    2.3378   -1.4141 C   0  0  0  0  0  0  0  0  0  0  0  0
    3.7646    1.0109   -1.4806 C   0  0  0  0  0  0  0  0  0  0  0  0
    4.4828   -0.0008   -0.8269 C   0  0  0  0  0  0  0  0  0  0  0  0
    4.0126   -1.4367   -0.8872 C   0  0  0  0  0  0  0  0  0  0  0  0
    3.0251   -1.7924    0.1966 C   0  0  0  0  0  0  0  0  0  0  0  0
    3.5080   -2.3116    1.3402 N   0  0  0  0  0  0  0  0  0  0  0  0
    2.5946   -2.6035    2.2769 C   0  0  0  0  0  0  0  0  0  0  0  0
    1.2453   -2.3874    2.1166 C   0  0  0  0  0  0  0  0  0  0  0  0
    0.8263   -1.8374    0.9185 C   0  0  0  0  0  0  0  0  0  0  0  0
   -0.5278   -1.6055    0.6778 N   0  0  0  0  0  0  0  0  0  0  0  0
   -1.3203   -0.9729    1.7525 C   0  0  0  0  0  0  0  0  0  0  0  0
   -2.1597    0.2308    1.2590 C   0  0  0  0  0  0  0  0  0  0  0  0
   -2.9991   -0.1255    0.1039 N   0  0  0  0  0  0  0  0  0  0  0  0
   -4.1087    0.6274   -0.2543 C   0  0  0  0  0  0  0  0  0  0  0  0
   -4.3632    1.8982    0.2861 C   0  0  0  0  0  0  0  0  0  0  0  0
   -5.4908    2.6466   -0.0762 C   0  0  0  0  0  0  0  0  0  0  0  0
   -6.4040    2.1356   -0.9899 C   0  0  0  0  0  0  0  0  0  0  0  0
   -6.1882    0.8771   -1.5364 C   0  0  0  0  0  0  0  0  0  0  0  0
   -5.0571    0.1378   -1.1692 C   0  0  0  0  0  0  0  0  0  0  0  0
   -2.3986   -1.0589   -0.8735 C   0  0  0  0  0  0  0  0  0  0  0  0
   -0.8691   -1.1877   -0.6938 C   0  0  0  0  0  0  0  0  0  0  0  0
    1.7181   -1.5613   -0.0501 N   0  0  0  0  0  0  0  0  0  0  0  0
    5.6249    0.3439   -0.0902 C   0  0  0  0  0  0  0  0  0  0  0  0
    6.0504    1.6716   -0.0253 C   0  0  0  0  0  0  0  0  0  0  0  0
    5.6666    3.7009   -0.6360 H   0  0  0  0  0  0  0  0  0  0  0  0
    3.6289    3.1148   -1.9243 H   0  0  0  0  0  0  0  0  0  0  0  0
    2.8624    0.7685   -2.0386 H   0  0  0  0  0  0  0  0  0  0  0  0
    3.5590   -1.6326   -1.8673 H   0  0  0  0  0  0  0  0  0  0  0  0
    4.8772   -2.1100   -0.8259 H   0  0  0  0  0  0  0  0  0  0  0  0
    2.9871   -3.0357    3.1922 H   0  0  0  0  0  0  0  0  0  0  0  0
    0.5493   -2.6646    2.8958 H   0  0  0  0  0  0  0  0  0  0  0  0
   -0.6901   -0.6168    2.5767 H   0  0  0  0  0  0  0  0  0  0  0  0
   -1.9940   -1.7356    2.1618 H   0  0  0  0  0  0  0  0  0  0  0  0
   -1.4925    1.0571    0.9836 H   0  0  0  0  0  0  0  0  0  0  0  0
   -2.7797    0.5600    2.1015 H   0  0  0  0  0  0  0  0  0  0  0  0
   -3.6722    2.3501    0.9912 H   0  0  0  0  0  0  0  0  0  0  0  0
   -5.6481    3.6302    0.3582 H   0  0  0  0  0  0  0  0  0  0  0  0
   -7.2800    2.7128   -1.2713 H   0  0  0  0  0  0  0  0  0  0  0  0
   -6.8995    0.4603   -2.2441 H   0  0  0  0  0  0  0  0  0  0  0  0
   -4.9426   -0.8540   -1.5985 H   0  0  0  0  0  0  0  0  0  0  0  0
   -2.8659   -2.0431   -0.7478 H   0  0  0  0  0  0  0  0  0  0  0  0
   -2.5792   -0.7238   -1.9023 H   0  0  0  0  0  0  0  0  0  0  0  0
   -0.5029   -1.9270   -1.4171 H   0  0  0  0  0  0  0  0  0  0  0  0
   -0.3990   -0.2221   -0.9242 H   0  0  0  0  0  0  0  0  0  0  0  0
    6.1846   -0.4218    0.4432 H   0  0  0  0  0  0  0  0  0  0  0  0
    6.9371    1.9291    0.5477 H   0  0  0  0  0  0  0  0  0  0  0  0
  1  2  2  0
  2  3  1  0
  3  4  2  0
  4  5  1  0
  5  6  1  0
  6  7  2  0
  7  8  1  0
  8  9  2  0
  9 10  1  0
 10 11  1  0
 11 12  1  0
 12 13  1  0
 13 14  1  0
 14 15  1  0
 15 16  2  0
 16 17  1  0
 17 18  2  0
 18 19  1  0
 19 20  2  0
 14 21  1  0
 21 22  1  0
 10 23  2  0
  4 24  1  0
 24 25  2  0
 25  1  1  0
 23  6  1  0
 22 11  1  0
 20 15  1  0
  1 26  1  0
  2 27  1  0
  3 28  1  0
  5 29  1  0
  5 30  1  0
  8 31  1  0
  9 32  1  0
 12 33  1  0
 12 34  1  0
 13 35  1  0
 13 36  1  0
 16 37  1  0
 17 38  1  0
 18 39  1  0
 19 40  1  0
 20 41  1  0
 21 42  1  0
 21 43  1  0
 22 44  1  0
 22 45  1  0
 24 46  1  0
 25 47  1  0
M  END
$$$$
OCNT-2318019
     RDKit          3D

 47 49  0  0  0  0  0  0  0  0999 V2000
   -1.3187    2.6381   -0.3009 C   0  0  0  0  0  0  0  0  0  0  0  0
   -2.1064    1.7800    0.5732 N   0  0  0  0  0  0  0  0  0  0  0  0
   -2.9438    2.4827    1.5312 C   0  0  0  0  0  0  0  0  0  0  0  0
   -1.7433    0.4714    0.9005 C   0  0  0  0  0  0  0  0  0  0  0  0
   -2.1462   -0.0593    1.9441 O   0  0  0  0  0  0  0  0  0  0  0  0
   -0.8305   -0.3544   -0.0419 C   0  0  0  0  0  0  0  0  0  0  0  0
   -1.4794   -0.5863   -1.4220 C   0  0  0  0  0  0  0  0  0  0  0  0
   -2.6744   -1.5126   -1.3649 C   0  0  0  0  0  0  0  0  0  0  0  0
   -3.9735   -0.9935   -1.2830 C   0  0  0  0  0  0  0  0  0  0  0  0
   -5.0733   -1.8499   -1.2143 C   0  0  0  0  0  0  0  0  0  0  0  0
   -4.8853   -3.2314   -1.2231 C   0  0  0  0  0  0  0  0  0  0  0  0
   -3.5976   -3.7582   -1.3019 C   0  0  0  0  0  0  0  0  0  0  0  0
   -2.4960   -2.9039   -1.3716 C   0  0  0  0  0  0  0  0  0  0  0  0
    0.5219    0.2529   -0.1654 N   0  0  0  0  0  0  0  0  0  0  0  0
    1.2329    0.2361    1.1198 C   0  0  0  0  0  0  0  0  0  0  0  0
    2.6536    0.7232    0.9364 C   0  0  0  0  0  0  0  0  0  0  0  0
    2.9002    2.1122    0.8717 C   0  0  0  0  0  0  0  0  0  0  0  0
    4.1848    2.6216    0.6938 C   0  0  0  0  0  0  0  0  0  0  0  0
    5.2806    1.7691    0.5640 C   0  0  0  0  0  0  0  0  0  0  0  0
    5.0383    0.3926    0.6168 C   0  0  0  0  0  0  0  0  0  0  0  0
    3.7633   -0.1479    0.7965 C   0  0  0  0  0  0  0  0  0  0  0  0
    3.9174   -1.5663    0.7958 C   0  0  0  0  0  0  0  0  0  0  0  0
    5.2520   -1.8500    0.6241 C   0  0  0  0  0  0  0  0  0  0  0  0
    5.9197   -0.6606    0.5169 N   0  0  0  0  0  0  0  0  0  0  0  0
   -0.5180    3.0940    0.2914 H   0  0  0  0  0  0  0  0  0  0  0  0
   -1.9621    3.4245   -0.7097 H   0  0  0  0  0  0  0  0  0  0  0  0
   -0.8765    2.1017   -1.1380 H   0  0  0  0  0  0  0  0  0  0  0  0
   -2.3011    2.9629    2.2752 H   0  0  0  0  0  0  0  0  0  0  0  0
   -3.6284    1.7986    2.0409 H   0  0  0  0  0  0  0  0  0  0  0  0
   -3.5374    3.2395    1.0104 H   0  0  0  0  0  0  0  0  0  0  0  0
   -0.7038   -1.3403    0.4280 H   0  0  0  0  0  0  0  0  0  0  0  0
   -1.7852    0.3490   -1.9013 H   0  0  0  0  0  0  0  0  0  0  0  0
   -0.7443   -1.0346   -2.1048 H   0  0  0  0  0  0  0  0  0  0  0  0
   -4.1381    0.0821   -1.2666 H   0  0  0  0  0  0  0  0  0  0  0  0
   -6.0777   -1.4383   -1.1500 H   0  0  0  0  0  0  0  0  0  0  0  0
   -5.7426   -3.8965   -1.1665 H   0  0  0  0  0  0  0  0  0  0  0  0
   -3.4510   -4.8353   -1.3085 H   0  0  0  0  0  0  0  0  0  0  0  0
   -1.4979   -3.3320   -1.4289 H   0  0  0  0  0  0  0  0  0  0  0  0
    1.0707   -0.3025   -0.8219 H   0  0  0  0  0  0  0  0  0  0  0  0
    0.7352    0.8805    1.8538 H   0  0  0  0  0  0  0  0  0  0  0  0
    1.2493   -0.7774    1.5379 H   0  0  0  0  0  0  0  0  0  0  0  0
    2.0665    2.8060    0.9622 H   0  0  0  0  0  0  0  0  0  0  0  0
    4.3342    3.6986    0.6560 H   0  0  0  0  0  0  0  0  0  0  0  0
    6.2807    2.1664    0.4262 H   0  0  0  0  0  0  0  0  0  0  0  0
    3.1327   -2.3011    0.9174 H   0  0  0  0  0  0  0  0  0  0  0  0
    5.7820   -2.7912    0.5757 H   0  0  0  0  0  0  0  0  0  0  0  0
    6.9167   -0.5603    0.3871 H   0  0  0  0  0  0  0  0  0  0  0  0
  1  2  1  0
  2  3  1  0
  2  4  1  0
  4  5  2  0
  4  6  1  0
  6  7  1  0
  7  8  1  0
  8  9  2  0
  9 10  1  0
 10 11  2  0
 11 12  1  0
 12 13  2  0
  6 14  1  0
 14 15  1  0
 15 16  1  0
 16 17  1  0
 17 18  2  0
 18 19  1  0
 19 20  2  0
 20 21  1  0
 21 22  1  0
 22 23  2  0
 23 24  1  0
 13  8  1  0
 21 16  2  0
 24 20  1  0
  1 25  1  0
  1 26  1  0
  1 27  1  0
  3 28  1  0
  3 29  1  0
  3 30  1  0
  6 31  1  0
  7 32  1  0
  7 33  1  0
  9 34  1  0
 10 35  1  0
 11 36  1  0
 12 37  1  0
 13 38  1  0
 14 39  1  0
 15 40  1  0
 15 41  1  0
 17 42  1  0
 18 43  1  0
 19 44  1  0
 22 45  1  0
 23 46  1  0
 24 47  1  0
M  END
$$$$
OCNT-2318020
     RDKit          3D

 52 55  0  0  0  0  0  0  0  0999 V2000
   -2.0062   -1.7284    1.1964 C   0  0  0  0  0  0  0  0  0  0  0  0
   -1.1573   -1.5086   -0.0476 C   0  0  0  0  0  0  0  0  0  0  0  0
   -1.1906   -0.1271   -0.5372 N   0  0  0  0  0  0  0  0  0  0  0  0
   -2.1678    0.1934   -1.5815 C   0  0  0  0  0  0  0  0  0  0  0  0
   -3.5687    0.3681   -1.0431 C   0  0  0  0  0  0  0  0  0  0  0  0
   -3.8812    1.4839   -0.2306 C   0  0  0  0  0  0  0  0  0  0  0  0
   -5.1685    1.6639    0.2847 C   0  0  0  0  0  0  0  0  0  0  0  0
   -6.1203    0.7193   -0.0285 C   0  0  0  0  0  0  0  0  0  0  0  0
   -7.4166    0.7297    0.3819 O   0  0  0  0  0  0  0  0  0  0  0  0
   -7.9116   -0.4667   -0.2536 C   0  0  0  0  0  0  0  0  0  0  0  0
   -6.9061   -1.1757   -1.0079 O   0  0  0  0  0  0  0  0  0  0  0  0
   -5.8295   -0.3658   -0.8209 C   0  0  0  0  0  0  0  0  0  0  0  0
   -4.5699   -0.5701   -1.3443 C   0  0  0  0  0  0  0  0  0  0  0  0
   -0.3456    0.8913   -0.1175 C   0  0  0  0  0  0  0  0  0  0  0  0
   -0.3689    2.0190   -0.5979 O   0  0  0  0  0  0  0  0  0  0  0  0
    0.5371    0.5361    0.8725 N   0  0  0  0  0  0  0  0  0  0  0  0
    1.4640    1.5161    1.4114 C   0  0  0  0  0  0  0  0  0  0  0  0
    2.6497    1.7163    0.5317 C   0  0  0  0  0  0  0  0  0  0  0  0
    3.1336    2.8883    0.1662 N   0  0  0  0  0  0  0  0  0  0  0  0
    4.2258    2.6792   -0.6342 N   0  0  0  0  0  0  0  0  0  0  0  0
    4.4068    1.3822   -0.7424 C   0  0  0  0  0  0  0  0  0  0  0  0
    5.4533    0.7030   -1.5468 C   0  0  0  0  0  0  0  0  0  0  0  0
    6.4116   -0.1185   -0.6896 C   0  0  0  0  0  0  0  0  0  0  0  0
    5.8175   -1.4381   -0.1948 C   0  0  0  0  0  0  0  0  0  0  0  0
    4.6750   -1.2889    0.8104 C   0  0  0  0  0  0  0  0  0  0  0  0
    3.3962   -0.6921    0.2220 C   0  0  0  0  0  0  0  0  0  0  0  0
    3.4659    0.7364    0.0188 N   0  0  0  0  0  0  0  0  0  0  0  0
   -1.8743   -2.7510    1.5639 H   0  0  0  0  0  0  0  0  0  0  0  0
   -3.0695   -1.5878    0.9871 H   0  0  0  0  0  0  0  0  0  0  0  0
   -1.7364   -1.0397    2.0021 H   0  0  0  0  0  0  0  0  0  0  0  0
   -0.1193   -1.7798    0.1747 H   0  0  0  0  0  0  0  0  0  0  0  0
   -1.4857   -2.1793   -0.8495 H   0  0  0  0  0  0  0  0  0  0  0  0
   -1.8886    1.1098   -2.1149 H   0  0  0  0  0  0  0  0  0  0  0  0
   -2.1346   -0.6045   -2.3336 H   0  0  0  0  0  0  0  0  0  0  0  0
   -3.1099    2.2202   -0.0045 H   0  0  0  0  0  0  0  0  0  0  0  0
   -5.4097    2.5189    0.9058 H   0  0  0  0  0  0  0  0  0  0  0  0
   -8.3057   -1.1364    0.5195 H   0  0  0  0  0  0  0  0  0  0  0  0
   -8.7290   -0.1923   -0.9304 H   0  0  0  0  0  0  0  0  0  0  0  0
   -4.3716   -1.4359   -1.9665 H   0  0  0  0  0  0  0  0  0  0  0  0
    0.1213   -0.0605    1.5671 H   0  0  0  0  0  0  0  0  0  0  0  0
    1.7963    1.1470    2.3877 H   0  0  0  0  0  0  0  0  0  0  0  0
    0.9355    2.4623    1.5709 H   0  0  0  0  0  0  0  0  0  0  0  0
    4.9880    0.0766   -2.3168 H   0  0  0  0  0  0  0  0  0  0  0  0
    6.0316    1.4698   -2.0771 H   0  0  0  0  0  0  0  0  0  0  0  0
    6.7717    0.4713    0.1627 H   0  0  0  0  0  0  0  0  0  0  0  0
    7.2917   -0.3590   -1.2993 H   0  0  0  0  0  0  0  0  0  0  0  0
    5.4827   -2.0382   -1.0499 H   0  0  0  0  0  0  0  0  0  0  0  0
    6.6202   -2.0099    0.2876 H   0  0  0  0  0  0  0  0  0  0  0  0
    5.0112   -0.6997    1.6726 H   0  0  0  0  0  0  0  0  0  0  0  0
    4.4359   -2.2912    1.1879 H   0  0  0  0  0  0  0  0  0  0  0  0
    2.5825   -0.9052    0.9188 H   0  0  0  0  0  0  0  0  0  0  0  0
    3.1380   -1.1513   -0.7387 H   0  0  0  0  0  0  0  0  0  0  0  0
  1  2  1  0
  2  3  1  0
  3  4  1  0
  4  5  1  0
  5  6  1  0
  6  7  2  0
  7  8  1  0
  8  9  1  0
  9 10  1  0
 10 11  1  0
 11 12  1  0
 12 13  1  0
  3 14  1  0
 14 15  2  0
 14 16  1  0
 16 17  1  0
 17 18  1  0
 18 19  2  0
 19 20  1  0
 20 21  2  0
 21 22  1  0
 22 23  1  0
 23 24  1  0
 24 25  1  0
 25 26  1  0
 26 27  1  0
 13  5  2  0
 27 18  1  0
 12  8  2  0
 27 21  1  0
  1 28  1  0
  1 29  1  0
  1 30  1  0
  2 31  1  0
  2 32  1  0
  4 33  1  0
  4 34  1  0
  6 35  1  0
  7 36  1  0
 10 37  1  0
 10 38  1  0
 13 39  1  0
 16 40  1  0
 17 41  1  0
 17 42  1  0
 22 43  1  0
 22 44  1  0
 23 45  1  0
 23 46  1  0
 24 47  1  0
 24 48  1  0
 25 49  1  0
 25 50  1  0
 26 51  1  0
 26 52  1  0
M  END
$$$$
OCNT-2318022
     RDKit          3D

 56 58  0  0  0  0  0  0  0  0999 V2000
   -6.6288   -3.5751   -0.5127 C   0  0  0  0  0  0  0  0  0  0  0  0
   -5.6563   -2.5248   -0.3365 N   0  0  0  0  0  0  0  0  0  0  0  0
   -6.0164   -1.2946    0.1716 C   0  0  0  0  0  0  0  0  0  0  0  0
   -7.1694   -0.9917    0.4571 O   0  0  0  0  0  0  0  0  0  0  0  0
   -4.9222   -0.2994    0.3452 C   0  0  0  0  0  0  0  0  0  0  0  0
   -5.2417    1.0593    0.2528 C   0  0  0  0  0  0  0  0  0  0  0  0
   -4.2509    2.0309    0.4198 C   0  0  0  0  0  0  0  0  0  0  0  0
   -2.9263    1.6632    0.7036 C   0  0  0  0  0  0  0  0  0  0  0  0
   -1.8806    2.7485    0.8565 C   0  0  0  0  0  0  0  0  0  0  0  0
   -0.7516    2.3665    1.7045 N   0  0  0  0  0  0  0  0  0  0  0  0
   -0.9388    2.5291    3.1381 C   0  0  0  0  0  0  0  0  0  0  0  0
    0.5316    2.1381    1.2416 C   0  0  0  0  0  0  0  0  0  0  0  0
    1.5170    2.1187    1.9731 O   0  0  0  0  0  0  0  0  0  0  0  0
    0.6301    1.9187   -0.1091 N   0  0  0  0  0  0  0  0  0  0  0  0
    1.9239    1.6093   -0.7164 C   0  0  0  0  0  0  0  0  0  0  0  0
    1.8353    1.7671   -2.2343 C   0  0  0  0  0  0  0  0  0  0  0  0
    3.1727    1.4911   -2.9217 C   0  0  0  0  0  0  0  0  0  0  0  0
    4.1621    0.7052   -2.0586 C   0  0  0  0  0  0  0  0  0  0  0  0
    3.4474   -0.3220   -1.2957 N   0  0  0  0  0  0  0  0  0  0  0  0
    4.1765   -1.4172   -0.7979 C   0  0  0  0  0  0  0  0  0  0  0  0
    3.4958   -2.5588   -0.3306 C   0  0  0  0  0  0  0  0  0  0  0  0
    4.1756   -3.6772    0.1685 C   0  0  0  0  0  0  0  0  0  0  0  0
    5.5639   -3.6800    0.2080 C   0  0  0  0  0  0  0  0  0  0  0  0
    6.2512   -2.5685   -0.2561 C   0  0  0  0  0  0  0  0  0  0  0  0
    7.5910   -2.5634   -0.2221 F   0  0  0  0  0  0  0  0  0  0  0  0
    5.5772   -1.4540   -0.7551 C   0  0  0  0  0  0  0  0  0  0  0  0
    2.4288    0.1897   -0.3452 C   0  0  0  0  0  0  0  0  0  0  0  0
   -2.6147    0.2972    0.7926 C   0  0  0  0  0  0  0  0  0  0  0  0
   -3.6041   -0.6778    0.6228 C   0  0  0  0  0  0  0  0  0  0  0  0
   -7.6020   -3.1620   -0.7916 H   0  0  0  0  0  0  0  0  0  0  0  0
   -6.7200   -4.1221    0.4289 H   0  0  0  0  0  0  0  0  0  0  0  0
   -6.2742   -4.2489   -1.2960 H   0  0  0  0  0  0  0  0  0  0  0  0
   -4.7019   -2.7068   -0.6090 H   0  0  0  0  0  0  0  0  0  0  0  0
   -6.2669    1.3648    0.0497 H   0  0  0  0  0  0  0  0  0  0  0  0
   -4.5266    3.0803    0.3346 H   0  0  0  0  0  0  0  0  0  0  0  0
   -1.5379    3.0432   -0.1408 H   0  0  0  0  0  0  0  0  0  0  0  0
   -2.3329    3.6417    1.3065 H   0  0  0  0  0  0  0  0  0  0  0  0
   -0.1679    1.9967    3.7018 H   0  0  0  0  0  0  0  0  0  0  0  0
   -1.9167    2.1373    3.4307 H   0  0  0  0  0  0  0  0  0  0  0  0
   -0.8811    3.5945    3.3788 H   0  0  0  0  0  0  0  0  0  0  0  0
   -0.1681    1.4570   -0.5188 H   0  0  0  0  0  0  0  0  0  0  0  0
    2.6438    2.3444   -0.3312 H   0  0  0  0  0  0  0  0  0  0  0  0
    1.0808    1.0728   -2.6284 H   0  0  0  0  0  0  0  0  0  0  0  0
    1.4840    2.7717   -2.4999 H   0  0  0  0  0  0  0  0  0  0  0  0
    3.6423    2.4367   -3.2198 H   0  0  0  0  0  0  0  0  0  0  0  0
    2.9783    0.9424   -3.8524 H   0  0  0  0  0  0  0  0  0  0  0  0
    4.9046    0.2653   -2.7358 H   0  0  0  0  0  0  0  0  0  0  0  0
    4.6922    1.3824   -1.3759 H   0  0  0  0  0  0  0  0  0  0  0  0
    2.4103   -2.5987   -0.3744 H   0  0  0  0  0  0  0  0  0  0  0  0
    3.6169   -4.5415    0.5172 H   0  0  0  0  0  0  0  0  0  0  0  0
    6.1124   -4.5338    0.5907 H   0  0  0  0  0  0  0  0  0  0  0  0
    6.1829   -0.6169   -1.0827 H   0  0  0  0  0  0  0  0  0  0  0  0
    2.8314    0.2131    0.6760 H   0  0  0  0  0  0  0  0  0  0  0  0
    1.5712   -0.4944   -0.3442 H   0  0  0  0  0  0  0  0  0  0  0  0
   -1.6006   -0.0255    1.0217 H   0  0  0  0  0  0  0  0  0  0  0  0
   -3.3327   -1.7221    0.7472 H   0  0  0  0  0  0  0  0  0  0  0  0
  1  2  1  0
  2  3  1  0
  3  4  2  0
  3  5  1  0
  5  6  1  0
  6  7  2  0
  7  8  1  0
  8  9  1  0
  9 10  1  0
 10 11  1  0
 10 12  1  0
 12 13  2  0
 12 14  1  0
 14 15  1  0
 15 16  1  0
 16 17  1  0
 17 18  1  0
 18 19  1  0
 19 20  1  0
 20 21  2  0
 21 22  1  0
 22 23  2  0
 23 24  1  0
 24 25  1  0
 24 26  2  0
 19 27  1  0
  8 28  2  0
 28 29  1  0
 29  5  2  0
 27 15  1  0
 26 20  1  0
  1 30  1  0
  1 31  1  0
  1 32  1  0
  2 33  1  0
  6 34  1  0
  7 35  1  0
  9 36  1  0
  9 37  1  0
 11 38  1  0
 11 39  1  0
 11 40  1  0
 14 41  1  0
 15 42  1  0
 16 43  1  0
 16 44  1  0
 17 45  1  0
 17 46  1  0
 18 47  1  0
 18 48  1  0
 21 49  1  0
 22 50  1  0
 23 51  1  0
 26 52  1  0
 27 53  1  0
 27 54  1  0
 28 55  1  0
 29 56  1  0
M  END
$$$$
OCNT-2318024
     RDKit          3D

 50 53  0  0  0  0  0  0  0  0999 V2000
   -1.9415    1.8418    1.5290 C   0  0  0  0  0  0  0  0  0  0  0  0
   -2.8668    1.5696    0.3437 C   0  0  0  0  0  0  0  0  0  0  0  0
   -2.0939    0.9024   -0.8221 C   0  0  0  0  0  0  0  0  0  0  0  0
   -1.6507   -0.4755   -0.5513 N   0  0  0  0  0  0  0  0  0  0  0  0
   -0.3330   -0.8509   -0.3500 C   0  0  0  0  0  0  0  0  0  0  0  0
   -0.0136   -1.8935    0.2137 O   0  0  0  0  0  0  0  0  0  0  0  0
    0.5974    0.0316   -0.8407 N   0  0  0  0  0  0  0  0  0  0  0  0
    2.0167   -0.2693   -0.7263 C   0  0  0  0  0  0  0  0  0  0  0  0
    2.5702   -0.1523    0.7114 C   0  0  0  0  0  0  0  0  0  0  0  0
    2.3670    1.2379    1.3224 C   0  0  0  0  0  0  0  0  0  0  0  0
    3.3465    2.2254    0.7115 C   0  0  0  0  0  0  0  0  0  0  0  0
    4.7100    1.8680    0.9426 O   0  0  0  0  0  0  0  0  0  0  0  0
    5.0070    0.5382    0.8173 C   0  0  0  0  0  0  0  0  0  0  0  0
    6.3661    0.2202    0.8295 C   0  0  0  0  0  0  0  0  0  0  0  0
    6.7798   -1.1080    0.7313 C   0  0  0  0  0  0  0  0  0  0  0  0
    5.8324   -2.1237    0.6291 C   0  0  0  0  0  0  0  0  0  0  0  0
    4.4727   -1.8107    0.6254 C   0  0  0  0  0  0  0  0  0  0  0  0
    4.0473   -0.4758    0.7195 C   0  0  0  0  0  0  0  0  0  0  0  0
   -2.6594   -1.4292   -0.0891 C   0  0  0  0  0  0  0  0  0  0  0  0
   -4.0615   -1.0833   -0.5118 C   0  0  0  0  0  0  0  0  0  0  0  0
   -4.7778   -1.8968   -1.3989 C   0  0  0  0  0  0  0  0  0  0  0  0
   -6.0860   -1.5646   -1.7583 C   0  0  0  0  0  0  0  0  0  0  0  0
   -6.6904   -0.4233   -1.2301 C   0  0  0  0  0  0  0  0  0  0  0  0
   -5.9843    0.3955   -0.3502 C   0  0  0  0  0  0  0  0  0  0  0  0
   -4.6711    0.0758   -0.0161 C   0  0  0  0  0  0  0  0  0  0  0  0
   -4.0201    0.8837    0.8701 O   0  0  0  0  0  0  0  0  0  0  0  0
   -2.4789    2.3819    2.3161 H   0  0  0  0  0  0  0  0  0  0  0  0
   -1.5876    0.9077    1.9777 H   0  0  0  0  0  0  0  0  0  0  0  0
   -1.0756    2.4394    1.2293 H   0  0  0  0  0  0  0  0  0  0  0  0
   -3.2288    2.5405   -0.0191 H   0  0  0  0  0  0  0  0  0  0  0  0
   -1.2472    1.5454   -1.0794 H   0  0  0  0  0  0  0  0  0  0  0  0
   -2.7195    0.8627   -1.7224 H   0  0  0  0  0  0  0  0  0  0  0  0
    0.3220    0.4132   -1.7334 H   0  0  0  0  0  0  0  0  0  0  0  0
    2.1739   -1.2822   -1.1181 H   0  0  0  0  0  0  0  0  0  0  0  0
    2.5383    0.4143   -1.4057 H   0  0  0  0  0  0  0  0  0  0  0  0
    2.0525   -0.8686    1.3619 H   0  0  0  0  0  0  0  0  0  0  0  0
    1.3374    1.5869    1.1961 H   0  0  0  0  0  0  0  0  0  0  0  0
    2.5562    1.1791    2.4029 H   0  0  0  0  0  0  0  0  0  0  0  0
    3.1907    2.3487   -0.3661 H   0  0  0  0  0  0  0  0  0  0  0  0
    3.1943    3.2106    1.1658 H   0  0  0  0  0  0  0  0  0  0  0  0
    7.1047    1.0123    0.9182 H   0  0  0  0  0  0  0  0  0  0  0  0
    7.8394   -1.3489    0.7408 H   0  0  0  0  0  0  0  0  0  0  0  0
    6.1511   -3.1606    0.5587 H   0  0  0  0  0  0  0  0  0  0  0  0
    3.7417   -2.6147    0.5565 H   0  0  0  0  0  0  0  0  0  0  0  0
   -2.6102   -1.4755    1.0069 H   0  0  0  0  0  0  0  0  0  0  0  0
   -2.3851   -2.4282   -0.4510 H   0  0  0  0  0  0  0  0  0  0  0  0
   -4.3250   -2.7970   -1.8084 H   0  0  0  0  0  0  0  0  0  0  0  0
   -6.6389   -2.2034   -2.4427 H   0  0  0  0  0  0  0  0  0  0  0  0
   -7.7136   -0.1754   -1.4997 H   0  0  0  0  0  0  0  0  0  0  0  0
   -6.4546    1.2787    0.0717 H   0  0  0  0  0  0  0  0  0  0  0  0
  1  2  1  0
  2  3  1  0
  3  4  1  0
  4  5  1  0
  5  6  2  0
  5  7  1  0
  7  8  1  0
  8  9  1  0
  9 10  1  0
 10 11  1  0
 11 12  1  0
 12 13  1  0
 13 14  2  0
 14 15  1  0
 15 16  2  0
 16 17  1  0
 17 18  2  0
  4 19  1  0
 19 20  1  0
 20 21  2  0
 21 22  1  0
 22 23  2  0
 23 24  1  0
 24 25  2  0
 25 26  1  0
 26  2  1  0
 18  9  1  0
 25 20  1  0
 18 13  1  0
  1 27  1  0
  1 28  1  0
  1 29  1  0
  2 30  1  0
  3 31  1  0
  3 32  1  0
  7 33  1  0
  8 34  1  0
  8 35  1  0
  9 36  1  0
 10 37  1  0
 10 38  1  0
 11 39  1  0
 11 40  1  0
 14 41  1  0
 15 42  1  0
 16 43  1  0
 17 44  1  0
 19 45  1  0
 19 46  1  0
 21 47  1  0
 22 48  1  0
 23 49  1  0
 24 50  1  0
M  END
$$$$
OCNT-2318042
     RDKit          3D

 52 54  0  0  0  0  0  0  0  0999 V2000
   -4.2292   -1.0701   -1.7027 C   0  0  0  0  0  0  0  0  0  0  0  0
   -3.0175   -1.1212   -0.7270 C   0  0  0  0  0  0  0  0  0  0  0  0
   -2.8214   -2.6266   -0.4228 C   0  0  0  0  0  0  0  0  0  0  0  0
   -1.7887   -0.5201   -1.5206 C   0  0  0  0  0  0  0  0  0  0  0  0
   -0.4871   -0.4493   -0.8192 N   0  0  0  0  0  0  0  0  0  0  0  0
    0.2312    0.7858   -1.1811 C   0  0  0  0  0  0  0  0  0  0  0  0
    1.5321    0.9175   -0.3945 C   0  0  0  0  0  0  0  0  0  0  0  0
    2.4358   -0.2932   -0.6271 C   0  0  0  0  0  0  0  0  0  0  0  0
    3.5657   -0.2601    0.2524 O   0  0  0  0  0  0  0  0  0  0  0  0
    4.6360    0.4958   -0.1827 C   0  0  0  0  0  0  0  0  0  0  0  0
    4.5658    1.1472   -1.3691 N   0  0  0  0  0  0  0  0  0  0  0  0
    5.6507    1.8715   -1.7272 C   0  0  0  0  0  0  0  0  0  0  0  0
    6.8019    1.9764   -0.9590 C   0  0  0  0  0  0  0  0  0  0  0  0
    6.8490    1.2975    0.2545 C   0  0  0  0  0  0  0  0  0  0  0  0
    5.7495    0.5465    0.6478 C   0  0  0  0  0  0  0  0  0  0  0  0
    5.7829   -0.1122    1.8150 F   0  0  0  0  0  0  0  0  0  0  0  0
    1.6543   -1.5696   -0.3126 C   0  0  0  0  0  0  0  0  0  0  0  0
    0.3533   -1.6230   -1.1083 C   0  0  0  0  0  0  0  0  0  0  0  0
   -3.3833   -0.4114    0.5303 N   0  0  0  0  0  0  0  0  0  0  0  0
   -2.4193   -0.4998    1.6483 C   0  0  0  0  0  0  0  0  0  0  0  0
   -1.8774    0.8586    2.1293 C   0  0  0  0  0  0  0  0  0  0  0  0
   -2.9051    1.7762    2.5208 O   0  0  0  0  0  0  0  0  0  0  0  0
   -4.1056    1.6247    1.7561 C   0  0  0  0  0  0  0  0  0  0  0  0
   -3.8843    0.9662    0.3830 C   0  0  0  0  0  0  0  0  0  0  0  0
   -4.0605   -1.7165   -2.5726 H   0  0  0  0  0  0  0  0  0  0  0  0
   -5.1498   -1.4135   -1.2158 H   0  0  0  0  0  0  0  0  0  0  0  0
   -4.4061   -0.0608   -2.0905 H   0  0  0  0  0  0  0  0  0  0  0  0
   -2.0114   -2.8302    0.2810 H   0  0  0  0  0  0  0  0  0  0  0  0
   -3.7321   -3.0611    0.0079 H   0  0  0  0  0  0  0  0  0  0  0  0
   -2.5986   -3.1843   -1.3402 H   0  0  0  0  0  0  0  0  0  0  0  0
   -1.6702   -1.0618   -2.4702 H   0  0  0  0  0  0  0  0  0  0  0  0
   -2.0840    0.4931   -1.8262 H   0  0  0  0  0  0  0  0  0  0  0  0
   -0.3891    1.6596   -0.9471 H   0  0  0  0  0  0  0  0  0  0  0  0
    0.4401    0.8142   -2.2587 H   0  0  0  0  0  0  0  0  0  0  0  0
    2.0443    1.8418   -0.6845 H   0  0  0  0  0  0  0  0  0  0  0  0
    1.3190    1.0224    0.6778 H   0  0  0  0  0  0  0  0  0  0  0  0
    2.7475   -0.3536   -1.6789 H   0  0  0  0  0  0  0  0  0  0  0  0
    5.5689    2.3845   -2.6819 H   0  0  0  0  0  0  0  0  0  0  0  0
    7.6414    2.5734   -1.2987 H   0  0  0  0  0  0  0  0  0  0  0  0
    7.7250    1.3471    0.8920 H   0  0  0  0  0  0  0  0  0  0  0  0
    1.4440   -1.6284    0.7640 H   0  0  0  0  0  0  0  0  0  0  0  0
    2.2725   -2.4460   -0.5430 H   0  0  0  0  0  0  0  0  0  0  0  0
    0.5807   -1.6849   -2.1810 H   0  0  0  0  0  0  0  0  0  0  0  0
   -0.1610   -2.5490   -0.8404 H   0  0  0  0  0  0  0  0  0  0  0  0
   -1.5702   -1.1559    1.4457 H   0  0  0  0  0  0  0  0  0  0  0  0
   -2.9628   -0.9588    2.4839 H   0  0  0  0  0  0  0  0  0  0  0  0
   -1.2757    1.3406    1.3528 H   0  0  0  0  0  0  0  0  0  0  0  0
   -1.2242    0.7125    2.9958 H   0  0  0  0  0  0  0  0  0  0  0  0
   -4.8154    1.0403    2.3537 H   0  0  0  0  0  0  0  0  0  0  0  0
   -4.5383    2.6222    1.6268 H   0  0  0  0  0  0  0  0  0  0  0  0
   -4.8449    0.9675   -0.1415 H   0  0  0  0  0  0  0  0  0  0  0  0
   -3.1783    1.5782   -0.1894 H   0  0  0  0  0  0  0  0  0  0  0  0
  1  2  1  0
  2  3  1  0
  2  4  1  0
  4  5  1  0
  5  6  1  0
  6  7  1  0
  7  8  1  0
  8  9  1  0
  9 10  1  0
 10 11  1  0
 11 12  2  0
 12 13  1  0
 13 14  2  0
 14 15  1  0
 15 16  1  0
  8 17  1  0
 17 18  1  0
  2 19  1  0
 19 20  1  0
 20 21  1  0
 21 22  1  0
 22 23  1  0
 23 24  1  0
 18  5  1  0
 24 19  1  0
 15 10  2  0
  1 25  1  0
  1 26  1  0
  1 27  1  0
  3 28  1  0
  3 29  1  0
  3 30  1  0
  4 31  1  0
  4 32  1  0
  6 33  1  0
  6 34  1  0
  7 35  1  0
  7 36  1  0
  8 37  1  0
 12 38  1  0
 13 39  1  0
 14 40  1  0
 17 41  1  0
 17 42  1  0
 18 43  1  0
 18 44  1  0
 20 45  1  0
 20 46  1  0
 21 47  1  0
 21 48  1  0
 23 49  1  0
 23 50  1  0
 24 51  1  0
 24 52  1  0
M  END
$$$$
OCNT-2318057
     RDKit          3D

 48 50  0  0  0  0  0  0  0  0999 V2000
   -2.2114    1.0616   -3.0475 C   0  0  0  0  0  0  0  0  0  0  0  0
   -1.4974    0.6678   -1.7858 C   0  0  0  0  0  0  0  0  0  0  0  0
   -0.0937    0.6288   -1.7693 C   0  0  0  0  0  0  0  0  0  0  0  0
    0.5901    0.2830   -0.6064 C   0  0  0  0  0  0  0  0  0  0  0  0
    1.9996    0.2676   -0.6505 N   0  0  0  0  0  0  0  0  0  0  0  0
    2.8582   -0.0424    0.3904 C   0  0  0  0  0  0  0  0  0  0  0  0
    2.5284   -0.3626    1.5259 O   0  0  0  0  0  0  0  0  0  0  0  0
    4.3095    0.0404   -0.0398 C   0  0  0  0  0  0  0  0  0  0  0  0
    5.2597   -0.2033    1.1288 C   0  0  0  0  0  0  0  0  0  0  0  0
    6.6848   -0.1931    0.7102 C   0  0  0  0  0  0  0  0  0  0  0  0
    7.7073   -1.0499    1.0509 C   0  0  0  0  0  0  0  0  0  0  0  0
    8.7870   -0.5551    0.3850 N   0  0  0  0  0  0  0  0  0  0  0  0
    8.4641    0.5309   -0.3315 N   0  0  0  0  0  0  0  0  0  0  0  0
    7.1755    0.7703   -0.1329 N   0  0  0  0  0  0  0  0  0  0  0  0
   -0.1833   -0.0164    0.5039 C   0  0  0  0  0  0  0  0  0  0  0  0
   -1.5409   -0.0005    0.5146 N   0  0  0  0  0  0  0  0  0  0  0  0
   -2.1965    0.3277   -0.6167 C   0  0  0  0  0  0  0  0  0  0  0  0
   -3.6010    0.3157   -0.6322 N   0  0  0  0  0  0  0  0  0  0  0  0
   -4.1179   -0.9887   -1.0844 C   0  0  0  0  0  0  0  0  0  0  0  0
   -4.1437   -2.0227    0.0428 C   0  0  0  0  0  0  0  0  0  0  0  0
   -4.9085   -1.5051    1.2568 C   0  0  0  0  0  0  0  0  0  0  0  0
   -4.3676   -0.1538    1.7184 C   0  0  0  0  0  0  0  0  0  0  0  0
   -4.3074    0.8478    0.5567 C   0  0  0  0  0  0  0  0  0  0  0  0
   -3.7884    2.2178    0.9957 C   0  0  0  0  0  0  0  0  0  0  0  0
   -2.6127    0.1767   -3.5501 H   0  0  0  0  0  0  0  0  0  0  0  0
   -3.0264    1.7612   -2.8348 H   0  0  0  0  0  0  0  0  0  0  0  0
   -1.5342    1.5683   -3.7437 H   0  0  0  0  0  0  0  0  0  0  0  0
    0.4527    0.8805   -2.6740 H   0  0  0  0  0  0  0  0  0  0  0  0
    2.4228    0.5191   -1.5359 H   0  0  0  0  0  0  0  0  0  0  0  0
    4.4868    1.0331   -0.4717 H   0  0  0  0  0  0  0  0  0  0  0  0
    4.4770   -0.7061   -0.8262 H   0  0  0  0  0  0  0  0  0  0  0  0
    5.1112    0.5661    1.8966 H   0  0  0  0  0  0  0  0  0  0  0  0
    5.0280   -1.1660    1.6018 H   0  0  0  0  0  0  0  0  0  0  0  0
    7.7600   -1.9233    1.6829 H   0  0  0  0  0  0  0  0  0  0  0  0
    9.7447   -0.8861    0.3647 H   0  0  0  0  0  0  0  0  0  0  0  0
    0.2480   -0.2918    1.4598 H   0  0  0  0  0  0  0  0  0  0  0  0
   -5.1394   -0.8384   -1.4568 H   0  0  0  0  0  0  0  0  0  0  0  0
   -3.5454   -1.3829   -1.9331 H   0  0  0  0  0  0  0  0  0  0  0  0
   -3.1216   -2.2848    0.3401 H   0  0  0  0  0  0  0  0  0  0  0  0
   -4.6126   -2.9450   -0.3188 H   0  0  0  0  0  0  0  0  0  0  0  0
   -4.8452   -2.2306    2.0754 H   0  0  0  0  0  0  0  0  0  0  0  0
   -5.9705   -1.4037    1.0014 H   0  0  0  0  0  0  0  0  0  0  0  0
   -3.3818   -0.2942    2.1740 H   0  0  0  0  0  0  0  0  0  0  0  0
   -5.0161    0.2389    2.5111 H   0  0  0  0  0  0  0  0  0  0  0  0
   -5.3442    1.0178    0.2322 H   0  0  0  0  0  0  0  0  0  0  0  0
   -4.4563    2.6550    1.7459 H   0  0  0  0  0  0  0  0  0  0  0  0
   -3.7402    2.9080    0.1464 H   0  0  0  0  0  0  0  0  0  0  0  0
   -2.7909    2.1625    1.4422 H   0  0  0  0  0  0  0  0  0  0  0  0
  1  2  1  0
  2  3  1  0
  3  4  2  0
  4  5  1  0
  5  6  1  0
  6  7  2  0
  6  8  1  0
  8  9  1  0
  9 10  1  0
 10 11  2  0
 11 12  1  0
 12 13  1  0
 13 14  2  0
  4 15  1  0
 15 16  2  0
 16 17  1  0
 17 18  1  0
 18 19  1  0
 19 20  1  0
 20 21  1  0
 21 22  1  0
 22 23  1  0
 23 24  1  0
 17  2  2  0
 23 18  1  0
 14 10  1  0
  1 25  1  0
  1 26  1  0
  1 27  1  0
  3 28  1  0
  5 29  1  0
  8 30  1  0
  8 31  1  0
  9 32  1  0
  9 33  1  0
 11 34  1  0
 12 35  1  0
 15 36  1  0
 19 37  1  0
 19 38  1  0
 20 39  1  0
 20 40  1  0
 21 41  1  0
 21 42  1  0
 22 43  1  0
 22 44  1  0
 23 45  1  0
 24 46  1  0
 24 47  1  0
 24 48  1  0
M  END
$$$$
OCNT-2318067
     RDKit          3D

 51 53  0  0  0  0  0  0  0  0999 V2000
    6.5941    1.1841   -1.0019 C   0  0  0  0  0  0  0  0  0  0  0  0
    5.4516    0.6906   -0.1212 C   0  0  0  0  0  0  0  0  0  0  0  0
    4.8627    1.8461    0.6828 C   0  0  0  0  0  0  0  0  0  0  0  0
    4.3893    0.1265   -0.9605 N   0  0  0  0  0  0  0  0  0  0  0  0
    4.3893   -1.4980   -1.3613 S   0  0  0  0  0  0  0  0  0  0  0  0
    3.6216   -1.6010   -2.5846 O   0  0  0  0  0  0  0  0  0  0  0  0
    5.7572   -1.9695   -1.3114 O   0  0  0  0  0  0  0  0  0  0  0  0
    3.4764   -2.2775   -0.0195 C   0  0  0  0  0  0  0  0  0  0  0  0
    2.1458   -1.6085    0.2102 C   0  0  0  0  0  0  0  0  0  0  0  0
    1.0783   -1.8053   -0.6758 C   0  0  0  0  0  0  0  0  0  0  0  0
   -0.1547   -1.1895   -0.4513 C   0  0  0  0  0  0  0  0  0  0  0  0
   -0.3488   -0.3651    0.6648 C   0  0  0  0  0  0  0  0  0  0  0  0
   -1.6926    0.2912    0.9034 C   0  0  0  0  0  0  0  0  0  0  0  0
   -2.6611   -0.7018    1.3589 N   0  0  0  0  0  0  0  0  0  0  0  0
   -4.0556   -0.2877    1.5496 C   0  0  0  0  0  0  0  0  0  0  0  0
   -4.2163    1.1102    2.1968 C   0  0  0  0  0  0  0  0  0  0  0  0
   -4.5559    1.6981    0.7992 C   0  0  0  0  0  0  0  0  0  0  0  0
   -4.7156    0.2681    0.3137 C   0  0  0  0  0  0  0  0  0  0  0  0
   -6.1468   -0.1816    0.0373 C   0  0  0  0  0  0  0  0  0  0  0  0
   -5.8257    0.0187   -1.4624 C   0  0  0  0  0  0  0  0  0  0  0  0
   -4.3251   -0.0974   -1.0987 C   0  0  0  0  0  0  0  0  0  0  0  0
    0.7113   -0.1810    1.5607 C   0  0  0  0  0  0  0  0  0  0  0  0
    1.9454   -0.7968    1.3355 C   0  0  0  0  0  0  0  0  0  0  0  0
    7.3893    1.6281   -0.3939 H   0  0  0  0  0  0  0  0  0  0  0  0
    7.0340    0.3664   -1.5814 H   0  0  0  0  0  0  0  0  0  0  0  0
    6.2492    1.9411   -1.7153 H   0  0  0  0  0  0  0  0  0  0  0  0
    5.8193   -0.0639    0.5830 H   0  0  0  0  0  0  0  0  0  0  0  0
    5.6228    2.3001    1.3270 H   0  0  0  0  0  0  0  0  0  0  0  0
    4.4608    2.6269    0.0271 H   0  0  0  0  0  0  0  0  0  0  0  0
    4.0436    1.5003    1.3215 H   0  0  0  0  0  0  0  0  0  0  0  0
    3.9551    0.7180   -1.6695 H   0  0  0  0  0  0  0  0  0  0  0  0
    3.3393   -3.3309   -0.2848 H   0  0  0  0  0  0  0  0  0  0  0  0
    4.1102   -2.2343    0.8725 H   0  0  0  0  0  0  0  0  0  0  0  0
    1.1960   -2.4376   -1.5548 H   0  0  0  0  0  0  0  0  0  0  0  0
   -0.9725   -1.3596   -1.1493 H   0  0  0  0  0  0  0  0  0  0  0  0
   -1.5625    1.0897    1.6411 H   0  0  0  0  0  0  0  0  0  0  0  0
   -1.9895    0.7675   -0.0349 H   0  0  0  0  0  0  0  0  0  0  0  0
   -2.2691   -1.1763    2.1718 H   0  0  0  0  0  0  0  0  0  0  0  0
   -4.6384   -1.0657    2.0560 H   0  0  0  0  0  0  0  0  0  0  0  0
   -3.3634    1.5544    2.7151 H   0  0  0  0  0  0  0  0  0  0  0  0
   -5.0705    1.1567    2.8855 H   0  0  0  0  0  0  0  0  0  0  0  0
   -5.4477    2.3315    0.7734 H   0  0  0  0  0  0  0  0  0  0  0  0
   -3.7308    2.2539    0.3419 H   0  0  0  0  0  0  0  0  0  0  0  0
   -6.9540    0.4416    0.4318 H   0  0  0  0  0  0  0  0  0  0  0  0
   -6.3520   -1.2271    0.2963 H   0  0  0  0  0  0  0  0  0  0  0  0
   -6.1102    1.0059   -1.8445 H   0  0  0  0  0  0  0  0  0  0  0  0
   -6.2111   -0.7498   -2.1371 H   0  0  0  0  0  0  0  0  0  0  0  0
   -3.6722    0.5966   -1.6343 H   0  0  0  0  0  0  0  0  0  0  0  0
   -3.9340   -1.1147   -1.2151 H   0  0  0  0  0  0  0  0  0  0  0  0
    0.5836    0.4435    2.4420 H   0  0  0  0  0  0  0  0  0  0  0  0
    2.7498   -0.6350    2.0497 H   0  0  0  0  0  0  0  0  0  0  0  0
  1  2  1  0
  2  3  1  0
  2  4  1  0
  4  5  1  0
  5  6  2  0
  5  7  2  0
  5  8  1  0
  8  9  1  0
  9 10  1  0
 10 11  2  0
 11 12  1  0
 12 13  1  0
 13 14  1  0
 14 15  1  0
 15 16  1  0
 16 17  1  0
 17 18  1  0
 18 19  1  0
 19 20  1  0
 20 21  1  0
 12 22  2  0
 22 23  1  0
 23  9  2  0
 18 15  1  0
 21 18  1  0
  1 24  1  0
  1 25  1  0
  1 26  1  0
  2 27  1  0
  3 28  1  0
  3 29  1  0
  3 30  1  0
  4 31  1  0
  8 32  1  0
  8 33  1  0
 10 34  1  0
 11 35  1  0
 13 36  1  0
 13 37  1  0
 14 38  1  0
 15 39  1  0
 16 40  1  0
 16 41  1  0
 17 42  1  0
 17 43  1  0
 19 44  1  0
 19 45  1  0
 20 46  1  0
 20 47  1  0
 21 48  1  0
 21 49  1  0
 22 50  1  0
 23 51  1  0
M  END
$$$$
OCNT-2318082
     RDKit          3D

 41 43  0  0  0  0  0  0  0  0999 V2000
    5.9815    1.5115    0.9219 C   0  0  0  0  0  0  0  0  0  0  0  0
    4.7332    0.7491    0.6132 C   0  0  0  0  0  0  0  0  0  0  0  0
    3.7991    1.2266   -0.3047 C   0  0  0  0  0  0  0  0  0  0  0  0
    2.6296    0.5070   -0.5377 C   0  0  0  0  0  0  0  0  0  0  0  0
    2.4159   -0.6793    0.1593 C   0  0  0  0  0  0  0  0  0  0  0  0
    1.1383   -1.4725   -0.0448 C   0  0  0  0  0  0  0  0  0  0  0  0
    0.0476   -1.0131    0.8370 N   0  0  0  0  0  0  0  0  0  0  0  0
   -0.8005   -0.1211    0.2727 C   0  0  0  0  0  0  0  0  0  0  0  0
   -0.5600    1.1523    0.0859 N   0  0  0  0  0  0  0  0  0  0  0  0
   -1.6798    1.6536   -0.5210 C   0  0  0  0  0  0  0  0  0  0  0  0
   -1.9410    2.9619   -0.9561 C   0  0  0  0  0  0  0  0  0  0  0  0
   -3.1710    3.2402   -1.5617 C   0  0  0  0  0  0  0  0  0  0  0  0
   -4.1235    2.2351   -1.7299 C   0  0  0  0  0  0  0  0  0  0  0  0
   -3.8818    0.9248   -1.2993 C   0  0  0  0  0  0  0  0  0  0  0  0
   -2.6436    0.6637   -0.6953 C   0  0  0  0  0  0  0  0  0  0  0  0
   -2.0663   -0.4686   -0.1497 N   0  0  0  0  0  0  0  0  0  0  0  0
   -2.7230   -1.7654   -0.0173 C   0  0  0  0  0  0  0  0  0  0  0  0
   -2.8553   -2.2215    1.4372 C   0  0  0  0  0  0  0  0  0  0  0  0
   -2.0884   -2.8421   -0.8971 C   0  0  0  0  0  0  0  0  0  0  0  0
    3.2992   -1.1498    1.0777 N   0  0  0  0  0  0  0  0  0  0  0  0
    4.4260   -0.4295    1.2816 C   0  0  0  0  0  0  0  0  0  0  0  0
    6.7916    0.8341    1.2118 H   0  0  0  0  0  0  0  0  0  0  0  0
    6.3244    2.0708    0.0450 H   0  0  0  0  0  0  0  0  0  0  0  0
    5.7994    2.2150    1.7400 H   0  0  0  0  0  0  0  0  0  0  0  0
    3.9663    2.1612   -0.8336 H   0  0  0  0  0  0  0  0  0  0  0  0
    1.8851    0.8820   -1.2342 H   0  0  0  0  0  0  0  0  0  0  0  0
    1.3447   -2.5205    0.2040 H   0  0  0  0  0  0  0  0  0  0  0  0
    0.8468   -1.4621   -1.1035 H   0  0  0  0  0  0  0  0  0  0  0  0
    0.5235   -0.5862    1.6358 H   0  0  0  0  0  0  0  0  0  0  0  0
   -1.1950    3.7367   -0.8193 H   0  0  0  0  0  0  0  0  0  0  0  0
   -3.3840    4.2506   -1.9020 H   0  0  0  0  0  0  0  0  0  0  0  0
   -5.0743    2.4738   -2.2024 H   0  0  0  0  0  0  0  0  0  0  0  0
   -4.6332    0.1550   -1.4350 H   0  0  0  0  0  0  0  0  0  0  0  0
   -3.7461   -1.6283   -0.3860 H   0  0  0  0  0  0  0  0  0  0  0  0
   -3.2980   -1.4334    2.0560 H   0  0  0  0  0  0  0  0  0  0  0  0
   -1.8900   -2.4906    1.8766 H   0  0  0  0  0  0  0  0  0  0  0  0
   -3.5016   -3.1036    1.5029 H   0  0  0  0  0  0  0  0  0  0  0  0
   -2.7220   -3.7353   -0.9230 H   0  0  0  0  0  0  0  0  0  0  0  0
   -1.9642   -2.4875   -1.9260 H   0  0  0  0  0  0  0  0  0  0  0  0
   -1.1072   -3.1508   -0.5262 H   0  0  0  0  0  0  0  0  0  0  0  0
    5.0976   -0.8437    2.0292 H   0  0  0  0  0  0  0  0  0  0  0  0
  1  2  1  0
  2  3  2  0
  3  4  1  0
  4  5  2  0
  5  6  1  0
  6  7  1  0
  7  8  1  0
  8  9  2  0
  9 10  1  0
 10 11  2  0
 11 12  1  0
 12 13  2  0
 13 14  1  0
 14 15  2  0
 15 16  1  0
 16 17  1  0
 17 18  1  0
 17 19  1  0
  5 20  1  0
 20 21  2  0
 21  2  1  0
 16  8  1  0
 15 10  1  0
  1 22  1  0
  1 23  1  0
  1 24  1  0
  3 25  1  0
  4 26  1  0
  6 27  1  0
  6 28  1  0
  7 29  1  0
 11 30  1  0
 12 31  1  0
 13 32  1  0
 14 33  1  0
 17 34  1  0
 18 35  1  0
 18 36  1  0
 18 37  1  0
 19 38  1  0
 19 39  1  0
 19 40  1  0
 21 41  1  0
M  END
$$$$
OCNT-2318089
     RDKit          3D

 40 41  0  0  0  0  0  0  0  0999 V2000
   -5.8100   -0.7513    1.2746 C   0  0  0  0  0  0  0  0  0  0  0  0
   -4.5803   -0.7609    0.3758 C   0  0  0  0  0  0  0  0  0  0  0  0
   -3.4239    0.0977    0.9178 C   0  0  0  0  0  0  0  0  0  0  0  0
   -3.8109    1.5904    1.0172 C   0  0  0  0  0  0  0  0  0  0  0  0
   -2.6612    2.3596    1.3749 O   0  0  0  0  0  0  0  0  0  0  0  0
   -2.2284    0.0198    0.0486 N   0  0  0  0  0  0  0  0  0  0  0  0
   -1.4340   -1.1871    0.2871 C   0  0  0  0  0  0  0  0  0  0  0  0
   -0.2561   -1.2136   -0.6221 C   0  0  0  0  0  0  0  0  0  0  0  0
   -0.0540   -1.7064   -1.8934 C   0  0  0  0  0  0  0  0  0  0  0  0
    1.2973   -1.4297   -2.2165 C   0  0  0  0  0  0  0  0  0  0  0  0
    1.8466   -0.7804   -1.1270 C   0  0  0  0  0  0  0  0  0  0  0  0
    3.1670   -0.2351   -0.8176 C   0  0  0  0  0  0  0  0  0  0  0  0
    4.2390   -0.4156   -1.7040 C   0  0  0  0  0  0  0  0  0  0  0  0
    5.5034    0.1065   -1.4191 C   0  0  0  0  0  0  0  0  0  0  0  0
    5.7167    0.8175   -0.2395 C   0  0  0  0  0  0  0  0  0  0  0  0
    4.6688    1.0073    0.6717 C   0  0  0  0  0  0  0  0  0  0  0  0
    4.8819    1.7916    1.9426 C   0  0  0  0  0  0  0  0  0  0  0  0
    4.1820    1.2958    3.0008 F   0  0  0  0  0  0  0  0  0  0  0  0
    6.1849    1.8181    2.3430 F   0  0  0  0  0  0  0  0  0  0  0  0
    4.5050    3.0939    1.8186 F   0  0  0  0  0  0  0  0  0  0  0  0
    3.3993    0.4834    0.3672 C   0  0  0  0  0  0  0  0  0  0  0  0
    0.8948   -0.6531   -0.1532 O   0  0  0  0  0  0  0  0  0  0  0  0
   -6.5596   -1.4511    0.8902 H   0  0  0  0  0  0  0  0  0  0  0  0
   -6.2737    0.2388    1.3114 H   0  0  0  0  0  0  0  0  0  0  0  0
   -5.5541   -1.0552    2.2948 H   0  0  0  0  0  0  0  0  0  0  0  0
   -4.2546   -1.8018    0.2680 H   0  0  0  0  0  0  0  0  0  0  0  0
   -4.8699   -0.4174   -0.6255 H   0  0  0  0  0  0  0  0  0  0  0  0
   -3.1471   -0.2345    1.9275 H   0  0  0  0  0  0  0  0  0  0  0  0
   -4.5714    1.7567    1.7849 H   0  0  0  0  0  0  0  0  0  0  0  0
   -4.1882    1.9712    0.0619 H   0  0  0  0  0  0  0  0  0  0  0  0
   -1.9198    1.9141    0.9125 H   0  0  0  0  0  0  0  0  0  0  0  0
   -2.5054    0.0527   -0.9323 H   0  0  0  0  0  0  0  0  0  0  0  0
   -2.0282   -2.0909    0.1156 H   0  0  0  0  0  0  0  0  0  0  0  0
   -1.0855   -1.2104    1.3264 H   0  0  0  0  0  0  0  0  0  0  0  0
   -0.7891   -2.2037   -2.5102 H   0  0  0  0  0  0  0  0  0  0  0  0
    1.8058   -1.6735   -3.1379 H   0  0  0  0  0  0  0  0  0  0  0  0
    4.1047   -0.9675   -2.6316 H   0  0  0  0  0  0  0  0  0  0  0  0
    6.3214   -0.0422   -2.1202 H   0  0  0  0  0  0  0  0  0  0  0  0
    6.7062    1.2225   -0.0312 H   0  0  0  0  0  0  0  0  0  0  0  0
    2.5808    0.6437    1.0704 H   0  0  0  0  0  0  0  0  0  0  0  0
  1  2  1  0
  2  3  1  0
  3  4  1  0
  4  5  1  0
  3  6  1  0
  6  7  1  0
  7  8  1  0
  8  9  2  0
  9 10  1  0
 10 11  2  0
 11 12  1  0
 12 13  1  0
 13 14  2  0
 14 15  1  0
 15 16  2  0
 16 17  1  0
 17 18  1  0
 17 19  1  0
 17 20  1  0
 16 21  1  0
 11 22  1  0
 22  8  1  0
 21 12  2  0
  1 23  1  0
  1 24  1  0
  1 25  1  0
  2 26  1  0
  2 27  1  0
  3 28  1  0
  4 29  1  0
  4 30  1  0
  5 31  1  0
  6 32  1  0
  7 33  1  0
  7 34  1  0
  9 35  1  0
 10 36  1  0
 13 37  1  0
 14 38  1  0
 15 39  1  0
 21 40  1  0
M  END
$$$$
OCNT-2318090
     RDKit          3D

 44 46  0  0  0  0  0  0  0  0999 V2000
    0.2586   -1.3284   -2.9478 C   0  0  0  0  0  0  0  0  0  0  0  0
    0.9549   -0.9721   -1.6858 C   0  0  0  0  0  0  0  0  0  0  0  0
    2.1948   -0.4876   -1.7208 N   0  0  0  0  0  0  0  0  0  0  0  0
    2.5048   -0.1736   -0.4352 N   0  0  0  0  0  0  0  0  0  0  0  0
    3.7277    0.5309   -0.1865 C   0  0  0  0  0  0  0  0  0  0  0  0
    3.9967    1.1818    1.0235 C   0  0  0  0  0  0  0  0  0  0  0  0
    5.2087    1.8604    1.2103 C   0  0  0  0  0  0  0  0  0  0  0  0
    6.1533    1.9024    0.1881 C   0  0  0  0  0  0  0  0  0  0  0  0
    7.6371    2.7382    0.4274 Cl  0  0  0  0  0  0  0  0  0  0  0  0
    5.8952    1.2799   -1.0276 C   0  0  0  0  0  0  0  0  0  0  0  0
    4.6860    0.6033   -1.2164 C   0  0  0  0  0  0  0  0  0  0  0  0
    1.5154   -0.6302    0.4354 C   0  0  0  0  0  0  0  0  0  0  0  0
    1.6049   -0.6395    1.9187 C   0  0  0  0  0  0  0  0  0  0  0  0
    0.4774   -1.1036   -0.3617 C   0  0  0  0  0  0  0  0  0  0  0  0
   -0.8419   -1.6624    0.0569 C   0  0  0  0  0  0  0  0  0  0  0  0
   -1.7852   -0.5527    0.1345 N   0  0  0  0  0  0  0  0  0  0  0  0
   -3.0903   -1.0100    0.6029 C   0  0  0  0  0  0  0  0  0  0  0  0
   -4.0531    0.1602    0.5580 C   0  0  0  0  0  0  0  0  0  0  0  0
   -4.5767    0.4841   -0.8222 C   0  0  0  0  0  0  0  0  0  0  0  0
   -5.5466   -0.4873   -1.1990 O   0  0  0  0  0  0  0  0  0  0  0  0
   -4.9977    0.3598    1.7335 C   0  0  0  0  0  0  0  0  0  0  0  0
   -3.8477    1.3018    1.5423 C   0  0  0  0  0  0  0  0  0  0  0  0
    0.1351   -2.4136   -3.0199 H   0  0  0  0  0  0  0  0  0  0  0  0
   -0.7318   -0.8635   -2.9844 H   0  0  0  0  0  0  0  0  0  0  0  0
    0.8195   -0.9915   -3.8258 H   0  0  0  0  0  0  0  0  0  0  0  0
    3.2802    1.2281    1.8329 H   0  0  0  0  0  0  0  0  0  0  0  0
    5.4019    2.3648    2.1539 H   0  0  0  0  0  0  0  0  0  0  0  0
    6.6226    1.3152   -1.8341 H   0  0  0  0  0  0  0  0  0  0  0  0
    4.5080    0.1232   -2.1783 H   0  0  0  0  0  0  0  0  0  0  0  0
    2.6054   -0.9193    2.2615 H   0  0  0  0  0  0  0  0  0  0  0  0
    1.3285    0.3360    2.3295 H   0  0  0  0  0  0  0  0  0  0  0  0
    0.9191   -1.3754    2.3504 H   0  0  0  0  0  0  0  0  0  0  0  0
   -1.1818   -2.4047   -0.6747 H   0  0  0  0  0  0  0  0  0  0  0  0
   -0.7508   -2.1726    1.0221 H   0  0  0  0  0  0  0  0  0  0  0  0
   -1.4211    0.1476    0.7770 H   0  0  0  0  0  0  0  0  0  0  0  0
   -3.0054   -1.4001    1.6246 H   0  0  0  0  0  0  0  0  0  0  0  0
   -3.4719   -1.8209   -0.0287 H   0  0  0  0  0  0  0  0  0  0  0  0
   -5.0529    1.4700   -0.8589 H   0  0  0  0  0  0  0  0  0  0  0  0
   -3.7740    0.4770   -1.5660 H   0  0  0  0  0  0  0  0  0  0  0  0
   -6.2695   -0.4249   -0.5536 H   0  0  0  0  0  0  0  0  0  0  0  0
   -5.9941    0.7472    1.5506 H   0  0  0  0  0  0  0  0  0  0  0  0
   -4.9513   -0.3352    2.5649 H   0  0  0  0  0  0  0  0  0  0  0  0
   -4.0636    2.3131    1.2149 H   0  0  0  0  0  0  0  0  0  0  0  0
   -3.0284    1.2440    2.2503 H   0  0  0  0  0  0  0  0  0  0  0  0
  1  2  1  0
  2  3  2  0
  3  4  1  0
  4  5  1  0
  5  6  1  0
  6  7  2  0
  7  8  1  0
  8  9  1  0
  8 10  2  0
 10 11  1  0
  4 12  1  0
 12 13  1  0
 12 14  2  0
 14 15  1  0
 15 16  1  0
 16 17  1  0
 17 18  1  0
 18 19  1  0
 19 20  1  0
 18 21  1  0
 21 22  1  0
 14  2  1  0
 22 18  1  0
 11  5  2  0
  1 23  1  0
  1 24  1  0
  1 25  1  0
  6 26  1  0
  7 27  1  0
 10 28  1  0
 11 29  1  0
 13 30  1  0
 13 31  1  0
 13 32  1  0
 15 33  1  0
 15 34  1  0
 16 35  1  0
 17 36  1  0
 17 37  1  0
 19 38  1  0
 19 39  1  0
 20 40  1  0
 21 41  1  0
 21 42  1  0
 22 43  1  0
 22 44  1  0
M  END
$$$$
OCNT-2318091
     RDKit          3D

 48 50  0  0  0  0  0  0  0  0999 V2000
    6.3136    0.0627    0.8094 C   0  0  0  0  0  0  0  0  0  0  0  0
    4.9767   -0.4577    0.3123 C   0  0  0  0  0  0  0  0  0  0  0  0
    3.9157    0.3950    0.7351 O   0  0  0  0  0  0  0  0  0  0  0  0
    3.6781    1.5051   -0.1280 C   0  0  0  0  0  0  0  0  0  0  0  0
    2.6788    1.1813   -1.2622 C   0  0  0  0  0  0  0  0  0  0  0  0
    1.2703    0.8832   -0.9467 N   0  0  0  0  0  0  0  0  0  0  0  0
    0.8172    1.2816    0.3982 C   0  0  0  0  0  0  0  0  0  0  0  0
   -0.7110    1.1208    0.5937 C   0  0  0  0  0  0  0  0  0  0  0  0
   -1.1481   -0.2315    0.2024 N   0  0  0  0  0  0  0  0  0  0  0  0
   -2.4474   -0.6117    0.5868 C   0  0  0  0  0  0  0  0  0  0  0  0
   -2.5559   -1.6009    1.5818 C   0  0  0  0  0  0  0  0  0  0  0  0
   -1.4162   -2.2182    2.1888 C   0  0  0  0  0  0  0  0  0  0  0  0
   -0.5286   -2.7560    2.7107 N   0  0  0  0  0  0  0  0  0  0  0  0
   -3.8126   -1.9963    1.9878 C   0  0  0  0  0  0  0  0  0  0  0  0
   -4.9559   -1.4915    1.4861 N   0  0  0  0  0  0  0  0  0  0  0  0
   -4.8935   -0.5427    0.5271 C   0  0  0  0  0  0  0  0  0  0  0  0
   -6.0777   -0.0089   -0.0071 C   0  0  0  0  0  0  0  0  0  0  0  0
   -7.6299   -0.5532    0.5523 Cl  0  0  0  0  0  0  0  0  0  0  0  0
   -6.0782    0.9720   -1.0013 C   0  0  0  0  0  0  0  0  0  0  0  0
   -4.8746    1.4459   -1.4894 C   0  0  0  0  0  0  0  0  0  0  0  0
   -3.6829    0.9350   -0.9779 C   0  0  0  0  0  0  0  0  0  0  0  0
   -3.6511   -0.0614    0.0341 C   0  0  0  0  0  0  0  0  0  0  0  0
   -0.7072   -0.6500   -1.1416 C   0  0  0  0  0  0  0  0  0  0  0  0
    0.8378   -0.4946   -1.2900 C   0  0  0  0  0  0  0  0  0  0  0  0
    1.5557   -1.6075   -0.5135 C   0  0  0  0  0  0  0  0  0  0  0  0
    6.5477    1.0393    0.3753 H   0  0  0  0  0  0  0  0  0  0  0  0
    6.2944    0.1937    1.8963 H   0  0  0  0  0  0  0  0  0  0  0  0
    7.1183   -0.6320    0.5520 H   0  0  0  0  0  0  0  0  0  0  0  0
    4.9783   -0.5803   -0.7761 H   0  0  0  0  0  0  0  0  0  0  0  0
    4.7936   -1.4421    0.7552 H   0  0  0  0  0  0  0  0  0  0  0  0
    4.6183    1.8635   -0.5636 H   0  0  0  0  0  0  0  0  0  0  0  0
    3.3018    2.3276    0.4883 H   0  0  0  0  0  0  0  0  0  0  0  0
    3.1028    0.3893   -1.8911 H   0  0  0  0  0  0  0  0  0  0  0  0
    2.6512    2.0696   -1.9064 H   0  0  0  0  0  0  0  0  0  0  0  0
    1.3304    0.7013    1.1732 H   0  0  0  0  0  0  0  0  0  0  0  0
    1.0504    2.3390    0.5692 H   0  0  0  0  0  0  0  0  0  0  0  0
   -1.2202    1.8888    0.0027 H   0  0  0  0  0  0  0  0  0  0  0  0
   -0.9487    1.3038    1.6490 H   0  0  0  0  0  0  0  0  0  0  0  0
   -3.9515   -2.7565    2.7535 H   0  0  0  0  0  0  0  0  0  0  0  0
   -7.0143    1.3624   -1.3919 H   0  0  0  0  0  0  0  0  0  0  0  0
   -4.8565    2.2087   -2.2639 H   0  0  0  0  0  0  0  0  0  0  0  0
   -2.7621    1.3348   -1.3911 H   0  0  0  0  0  0  0  0  0  0  0  0
   -1.1893   -0.0429   -1.9154 H   0  0  0  0  0  0  0  0  0  0  0  0
   -0.9901   -1.6941   -1.3268 H   0  0  0  0  0  0  0  0  0  0  0  0
    1.0525   -0.6556   -2.3552 H   0  0  0  0  0  0  0  0  0  0  0  0
    2.6229   -1.6279   -0.7469 H   0  0  0  0  0  0  0  0  0  0  0  0
    1.1541   -2.5883   -0.7918 H   0  0  0  0  0  0  0  0  0  0  0  0
    1.4429   -1.5025    0.5693 H   0  0  0  0  0  0  0  0  0  0  0  0
  1  2  1  0
  2  3  1  0
  3  4  1  0
  4  5  1  0
  5  6  1  0
  6  7  1  0
  7  8  1  0
  8  9  1  0
  9 10  1  0
 10 11  2  0
 11 12  1  0
 12 13  3  0
 11 14  1  0
 14 15  2  0
 15 16  1  0
 16 17  2  0
 17 18  1  0
 17 19  1  0
 19 20  2  0
 20 21  1  0
 21 22  2  0
  9 23  1  0
 23 24  1  0
 24 25  1  0
 24  6  1  0
 22 10  1  0
 22 16  1  0
  1 26  1  0
  1 27  1  0
  1 28  1  0
  2 29  1  0
  2 30  1  0
  4 31  1  0
  4 32  1  0
  5 33  1  0
  5 34  1  0
  7 35  1  0
  7 36  1  0
  8 37  1  0
  8 38  1  0
 14 39  1  0
 19 40  1  0
 20 41  1  0
 21 42  1  0
 23 43  1  0
 23 44  1  0
 24 45  1  0
 25 46  1  0
 25 47  1  0
 25 48  1  0
M  END
$$$$
OCNT-2318099
     RDKit          3D

 40 43  0  0  0  0  0  0  0  0999 V2000
    2.8534   -2.5064    0.7697 O   0  0  0  0  0  0  0  0  0  0  0  0
    3.9201   -2.0265   -0.0414 C   0  0  0  0  0  0  0  0  0  0  0  0
    3.5061   -0.8700   -0.9476 C   0  0  0  0  0  0  0  0  0  0  0  0
    2.2516   -1.1719   -1.7989 C   0  0  0  0  0  0  0  0  0  0  0  0
    1.5626    0.1146   -2.0142 N   0  0  0  0  0  0  0  0  0  0  0  0
    0.1672    0.1083   -2.4722 C   0  0  0  0  0  0  0  0  0  0  0  0
   -0.8950   -0.3282   -1.5151 C   0  0  0  0  0  0  0  0  0  0  0  0
   -1.6916    0.3850   -0.7493 N   0  0  0  0  0  0  0  0  0  0  0  0
   -2.4381   -0.5827   -0.1092 C   0  0  0  0  0  0  0  0  0  0  0  0
   -3.4618   -0.2496    0.8765 C   0  0  0  0  0  0  0  0  0  0  0  0
   -3.6992    1.0891    1.2237 C   0  0  0  0  0  0  0  0  0  0  0  0
   -4.6768    1.4189    2.1662 C   0  0  0  0  0  0  0  0  0  0  0  0
   -5.4278    0.4141    2.7725 C   0  0  0  0  0  0  0  0  0  0  0  0
   -5.2029   -0.9199    2.4388 C   0  0  0  0  0  0  0  0  0  0  0  0
   -4.2253   -1.2507    1.4962 C   0  0  0  0  0  0  0  0  0  0  0  0
   -2.1378   -1.8370   -0.4877 N   0  0  0  0  0  0  0  0  0  0  0  0
   -1.1147   -1.6697   -1.4166 O   0  0  0  0  0  0  0  0  0  0  0  0
    1.9321    0.8957   -0.9082 C   0  0  0  0  0  0  0  0  0  0  0  0
    1.3553    2.0741   -0.4629 C   0  0  0  0  0  0  0  0  0  0  0  0
    1.8965    2.7170    0.6555 C   0  0  0  0  0  0  0  0  0  0  0  0
    3.0178    2.1905    1.3100 C   0  0  0  0  0  0  0  0  0  0  0  0
    3.6118    1.0141    0.8554 C   0  0  0  0  0  0  0  0  0  0  0  0
    3.0528    0.3782   -0.2445 C   0  0  0  0  0  0  0  0  0  0  0  0
    2.5028   -1.7496    1.2750 H   0  0  0  0  0  0  0  0  0  0  0  0
    4.2634   -2.8678   -0.6525 H   0  0  0  0  0  0  0  0  0  0  0  0
    4.7461   -1.7414    0.6183 H   0  0  0  0  0  0  0  0  0  0  0  0
    4.3430   -0.5996   -1.6046 H   0  0  0  0  0  0  0  0  0  0  0  0
    2.5316   -1.6228   -2.7576 H   0  0  0  0  0  0  0  0  0  0  0  0
    1.5809   -1.8745   -1.2895 H   0  0  0  0  0  0  0  0  0  0  0  0
    0.1092   -0.5332   -3.3613 H   0  0  0  0  0  0  0  0  0  0  0  0
   -0.0882    1.1123   -2.8345 H   0  0  0  0  0  0  0  0  0  0  0  0
   -3.1204    1.8865    0.7613 H   0  0  0  0  0  0  0  0  0  0  0  0
   -4.8497    2.4602    2.4260 H   0  0  0  0  0  0  0  0  0  0  0  0
   -6.1880    0.6705    3.5061 H   0  0  0  0  0  0  0  0  0  0  0  0
   -5.7871   -1.7054    2.9116 H   0  0  0  0  0  0  0  0  0  0  0  0
   -4.0653   -2.2990    1.2511 H   0  0  0  0  0  0  0  0  0  0  0  0
    0.4958    2.5079   -0.9621 H   0  0  0  0  0  0  0  0  0  0  0  0
    1.4460    3.6390    1.0148 H   0  0  0  0  0  0  0  0  0  0  0  0
    3.4311    2.7097    2.1714 H   0  0  0  0  0  0  0  0  0  0  0  0
    4.4923    0.6204    1.3523 H   0  0  0  0  0  0  0  0  0  0  0  0
  1  2  1  0
  2  3  1  0
  3  4  1  0
  4  5  1  0
  5  6  1  0
  6  7  1  0
  7  8  2  0
  8  9  1  0
  9 10  1  0
 10 11  2  0
 11 12  1  0
 12 13  2  0
 13 14  1  0
 14 15  2  0
  9 16  2  0
 16 17  1  0
  5 18  1  0
 18 19  2  0
 19 20  1  0
 20 21  2  0
 21 22  1  0
 22 23  2  0
 23  3  1  0
 17  7  1  0
 23 18  1  0
 15 10  1  0
  1 24  1  0
  2 25  1  0
  2 26  1  0
  3 27  1  0
  4 28  1  0
  4 29  1  0
  6 30  1  0
  6 31  1  0
 11 32  1  0
 12 33  1  0
 13 34  1  0
 14 35  1  0
 15 36  1  0
 19 37  1  0
 20 38  1  0
 21 39  1  0
 22 40  1  0
M  END
$$$$
OCNT-2318103
     RDKit          3D

 44 46  0  0  0  0  0  0  0  0999 V2000
   -4.8721    1.3145   -0.4460 C   0  0  0  0  0  0  0  0  0  0  0  0
   -4.7735    0.0098    0.3436 C   0  0  0  0  0  0  0  0  0  0  0  0
   -4.5734    0.2821    1.8340 C   0  0  0  0  0  0  0  0  0  0  0  0
   -3.6651   -0.8647   -0.1974 C   0  0  0  0  0  0  0  0  0  0  0  0
   -4.0107   -2.0638   -0.6941 N   0  0  0  0  0  0  0  0  0  0  0  0
   -3.0050   -2.8060   -1.1791 C   0  0  0  0  0  0  0  0  0  0  0  0
   -1.6894   -2.4040   -1.1679 C   0  0  0  0  0  0  0  0  0  0  0  0
   -1.4087   -1.1661   -0.6199 C   0  0  0  0  0  0  0  0  0  0  0  0
   -0.1033   -0.6796   -0.5899 N   0  0  0  0  0  0  0  0  0  0  0  0
    0.9759   -1.5903   -0.1609 C   0  0  0  0  0  0  0  0  0  0  0  0
    1.8085   -0.9984    1.0005 C   0  0  0  0  0  0  0  0  0  0  0  0
    2.3843    0.3254    0.6662 N   0  0  0  0  0  0  0  0  0  0  0  0
    3.7527    0.3008    0.3535 C   0  0  0  0  0  0  0  0  0  0  0  0
    4.6925   -0.2034    1.2657 C   0  0  0  0  0  0  0  0  0  0  0  0
    6.0319   -0.2634    1.0425 N   0  0  0  0  0  0  0  0  0  0  0  0
    6.4259    0.2340   -0.1451 C   0  0  0  0  0  0  0  0  0  0  0  0
    5.5269    0.7575   -1.0541 C   0  0  0  0  0  0  0  0  0  0  0  0
    4.1928    0.8009   -0.8231 N   0  0  0  0  0  0  0  0  0  0  0  0
    1.5372    1.1656   -0.2321 C   0  0  0  0  0  0  0  0  0  0  0  0
    1.6522    2.6335    0.1859 C   0  0  0  0  0  0  0  0  0  0  0  0
    0.0457    0.7281   -0.1655 C   0  0  0  0  0  0  0  0  0  0  0  0
   -2.4034   -0.3917   -0.1498 N   0  0  0  0  0  0  0  0  0  0  0  0
   -5.7136    1.9188   -0.0907 H   0  0  0  0  0  0  0  0  0  0  0  0
   -3.9619    1.9173   -0.3492 H   0  0  0  0  0  0  0  0  0  0  0  0
   -5.0272    1.1160   -1.5123 H   0  0  0  0  0  0  0  0  0  0  0  0
   -5.7239   -0.5267    0.2252 H   0  0  0  0  0  0  0  0  0  0  0  0
   -3.6510    0.8426    2.0241 H   0  0  0  0  0  0  0  0  0  0  0  0
   -4.5150   -0.6550    2.3989 H   0  0  0  0  0  0  0  0  0  0  0  0
   -5.4088    0.8653    2.2361 H   0  0  0  0  0  0  0  0  0  0  0  0
   -3.2938   -3.7646   -1.5989 H   0  0  0  0  0  0  0  0  0  0  0  0
   -0.9210   -3.0296   -1.5996 H   0  0  0  0  0  0  0  0  0  0  0  0
    1.6289   -1.7738   -1.0225 H   0  0  0  0  0  0  0  0  0  0  0  0
    0.5909   -2.5619    0.1709 H   0  0  0  0  0  0  0  0  0  0  0  0
    1.1593   -0.8662    1.8755 H   0  0  0  0  0  0  0  0  0  0  0  0
    2.5684   -1.7319    1.2942 H   0  0  0  0  0  0  0  0  0  0  0  0
    4.3807   -0.5657    2.2396 H   0  0  0  0  0  0  0  0  0  0  0  0
    7.4899    0.2056   -0.3482 H   0  0  0  0  0  0  0  0  0  0  0  0
    5.8542    1.1619   -2.0050 H   0  0  0  0  0  0  0  0  0  0  0  0
    1.8486    1.0551   -1.2795 H   0  0  0  0  0  0  0  0  0  0  0  0
    1.0224    3.2684   -0.4462 H   0  0  0  0  0  0  0  0  0  0  0  0
    2.6815    2.9962    0.0996 H   0  0  0  0  0  0  0  0  0  0  0  0
    1.3404    2.7731    1.2270 H   0  0  0  0  0  0  0  0  0  0  0  0
   -0.3294    0.8575    0.8592 H   0  0  0  0  0  0  0  0  0  0  0  0
   -0.5418    1.3767   -0.8283 H   0  0  0  0  0  0  0  0  0  0  0  0
  1  2  1  0
  2  3  1  0
  2  4  1  0
  4  5  2  0
  5  6  1  0
  6  7  2  0
  7  8  1  0
  8  9  1  0
  9 10  1  0
 10 11  1  0
 11 12  1  0
 12 13  1  0
 13 14  2  0
 14 15  1  0
 15 16  2  0
 16 17  1  0
 17 18  2  0
 12 19  1  0
 19 20  1  0
 19 21  1  0
  8 22  2  0
 22  4  1  0
 21  9  1  0
 18 13  1  0
  1 23  1  0
  1 24  1  0
  1 25  1  0
  2 26  1  0
  3 27  1  0
  3 28  1  0
  3 29  1  0
  6 30  1  0
  7 31  1  0
 10 32  1  0
 10 33  1  0
 11 34  1  0
 11 35  1  0
 14 36  1  0
 16 37  1  0
 17 38  1  0
 19 39  1  0
 20 40  1  0
 20 41  1  0
 20 42  1  0
 21 43  1  0
 21 44  1  0
M  END
$$$$
OCNT-2318112
     RDKit          3D

 42 45  0  0  0  0  0  0  0  0999 V2000
   -2.0263    3.2446    0.2047 C   0  0  0  0  0  0  0  0  0  0  0  0
   -1.1343    2.0439    0.3704 C   0  0  0  0  0  0  0  0  0  0  0  0
   -0.1593    2.0488    1.3758 C   0  0  0  0  0  0  0  0  0  0  0  0
    0.6923    0.9534    1.5580 C   0  0  0  0  0  0  0  0  0  0  0  0
    0.6280   -0.1592    0.7179 C   0  0  0  0  0  0  0  0  0  0  0  0
    1.4175   -1.3082    0.8953 N   0  0  0  0  0  0  0  0  0  0  0  0
    2.8407   -1.1255    1.2513 C   0  0  0  0  0  0  0  0  0  0  0  0
    3.3601   -2.4778    1.7597 C   0  0  0  0  0  0  0  0  0  0  0  0
    3.7003   -0.6349    0.1106 C   0  0  0  0  0  0  0  0  0  0  0  0
    4.4583    0.5145    0.0208 C   0  0  0  0  0  0  0  0  0  0  0  0
    4.9850    0.5024   -1.2411 N   0  0  0  0  0  0  0  0  0  0  0  0
    4.5452   -0.6313   -1.8622 C   0  0  0  0  0  0  0  0  0  0  0  0
    3.7675   -1.3398   -1.0773 N   0  0  0  0  0  0  0  0  0  0  0  0
   -0.3793   -0.1783   -0.2569 C   0  0  0  0  0  0  0  0  0  0  0  0
   -1.2573    0.9058   -0.4469 C   0  0  0  0  0  0  0  0  0  0  0  0
   -2.2788    0.8223   -1.4852 C   0  0  0  0  0  0  0  0  0  0  0  0
   -2.4354    1.6310   -2.5193 N   0  0  0  0  0  0  0  0  0  0  0  0
   -3.5263    1.1684   -3.2171 N   0  0  0  0  0  0  0  0  0  0  0  0
   -4.0543    0.1057   -2.6274 N   0  0  0  0  0  0  0  0  0  0  0  0
   -3.2927   -0.1038   -1.5451 N   0  0  0  0  0  0  0  0  0  0  0  0
   -3.5619   -1.1862   -0.5756 C   0  0  0  0  0  0  0  0  0  0  0  0
   -4.9490   -1.4565   -0.0383 C   0  0  0  0  0  0  0  0  0  0  0  0
   -3.8912   -0.9137    0.8743 C   0  0  0  0  0  0  0  0  0  0  0  0
   -1.8438    3.7232   -0.7628 H   0  0  0  0  0  0  0  0  0  0  0  0
   -1.8396    3.9935    0.9824 H   0  0  0  0  0  0  0  0  0  0  0  0
   -3.0792    2.9542    0.2784 H   0  0  0  0  0  0  0  0  0  0  0  0
   -0.0593    2.9046    2.0403 H   0  0  0  0  0  0  0  0  0  0  0  0
    1.3975    0.9933    2.3815 H   0  0  0  0  0  0  0  0  0  0  0  0
    1.4039   -1.8714    0.0428 H   0  0  0  0  0  0  0  0  0  0  0  0
    2.9418   -0.4319    2.0937 H   0  0  0  0  0  0  0  0  0  0  0  0
    4.4095   -2.4061    2.0666 H   0  0  0  0  0  0  0  0  0  0  0  0
    3.2899   -3.2530    0.9874 H   0  0  0  0  0  0  0  0  0  0  0  0
    2.7763   -2.8179    2.6225 H   0  0  0  0  0  0  0  0  0  0  0  0
    4.6425    1.3216    0.7153 H   0  0  0  0  0  0  0  0  0  0  0  0
    5.5817    1.2074   -1.6516 H   0  0  0  0  0  0  0  0  0  0  0  0
    4.8195   -0.8821   -2.8782 H   0  0  0  0  0  0  0  0  0  0  0  0
   -0.4657   -1.0527   -0.8993 H   0  0  0  0  0  0  0  0  0  0  0  0
   -2.9583   -2.0635   -0.7880 H   0  0  0  0  0  0  0  0  0  0  0  0
   -5.7558   -0.7945   -0.3346 H   0  0  0  0  0  0  0  0  0  0  0  0
   -5.2511   -2.4901    0.0880 H   0  0  0  0  0  0  0  0  0  0  0  0
   -3.4680   -1.5750    1.6223 H   0  0  0  0  0  0  0  0  0  0  0  0
   -3.9903    0.1146    1.2050 H   0  0  0  0  0  0  0  0  0  0  0  0
  1  2  1  0
  2  3  1  0
  3  4  2  0
  4  5  1  0
  5  6  1  0
  6  7  1  0
  7  8  1  0
  7  9  1  0
  9 10  2  0
 10 11  1  0
 11 12  1  0
 12 13  2  0
  5 14  2  0
 14 15  1  0
 15 16  1  0
 16 17  2  0
 17 18  1  0
 18 19  2  0
 19 20  1  0
 20 21  1  0
 21 22  1  0
 22 23  1  0
 15  2  2  0
 20 16  1  0
 23 21  1  0
 13  9  1  0
  1 24  1  0
  1 25  1  0
  1 26  1  0
  3 27  1  0
  4 28  1  0
  6 29  1  0
  7 30  1  0
  8 31  1  0
  8 32  1  0
  8 33  1  0
 10 34  1  0
 11 35  1  0
 12 36  1  0
 14 37  1  0
 21 38  1  0
 22 39  1  0
 22 40  1  0
 23 41  1  0
 23 42  1  0
M  END
$$$$
OCNT-2318116
     RDKit          3D

 54 58  0  0  0  0  0  0  0  0999 V2000
   -2.9219    0.6974   -2.6468 C   0  0  0  0  0  0  0  0  0  0  0  0
   -3.4695    1.4456   -1.6908 N   0  0  0  0  0  0  0  0  0  0  0  0
   -3.3407    0.6996   -0.5744 N   0  0  0  0  0  0  0  0  0  0  0  0
   -3.8863    1.2175    0.6744 C   0  0  0  0  0  0  0  0  0  0  0  0
   -5.3632    0.9347    0.9107 C   0  0  0  0  0  0  0  0  0  0  0  0
   -6.4301    1.3912   -0.1247 C   0  0  0  0  0  0  0  0  0  0  0  0
   -7.2639    0.1683    0.3146 C   0  0  0  0  0  0  0  0  0  0  0  0
   -5.9341   -0.4997    0.7256 C   0  0  0  0  0  0  0  0  0  0  0  0
   -2.6304   -0.4619   -0.7832 C   0  0  0  0  0  0  0  0  0  0  0  0
   -2.2894   -1.4413    0.2837 C   0  0  0  0  0  0  0  0  0  0  0  0
   -1.1540   -0.9999    1.0859 N   0  0  0  0  0  0  0  0  0  0  0  0
    0.1214   -1.6190    0.7248 C   0  0  0  0  0  0  0  0  0  0  0  0
    0.7899   -1.1312   -0.5695 C   0  0  1  0  0  0  0  0  0  0  0  0
    1.0691    0.3621   -0.6096 C   0  0  0  0  0  0  0  0  0  0  0  0
    2.1940    0.4313   -1.6140 C   0  0  0  0  0  0  0  0  0  0  0  0
    2.9965   -0.8229   -1.3044 C   0  0  1  0  0  0  0  0  0  0  0  0
    4.0831   -0.5984   -0.3111 C   0  0  0  0  0  0  0  0  0  0  0  0
    4.9356    0.4029   -0.2301 N   0  0  0  0  0  0  0  0  0  0  0  0
    5.7063    0.0734    0.8532 C   0  0  0  0  0  0  0  0  0  0  0  0
    6.8685    0.9710    1.3544 C   0  0  0  0  0  0  0  0  0  0  0  0
    7.8323    1.5560    0.3535 C   0  0  0  0  0  0  0  0  0  0  0  0
    8.2834    0.4567    1.2705 C   0  0  0  0  0  0  0  0  0  0  0  0
    5.3800   -1.0768    1.4503 N   0  0  0  0  0  0  0  0  0  0  0  0
    4.3543   -1.4869    0.6899 N   0  0  0  0  0  0  0  0  0  0  0  0
    2.0759   -1.7742   -0.7233 O   0  0  0  0  0  0  0  0  0  0  0  0
   -2.3957   -0.5021   -2.1445 C   0  0  0  0  0  0  0  0  0  0  0  0
   -2.9272    1.0603   -3.6665 H   0  0  0  0  0  0  0  0  0  0  0  0
   -3.2919    0.8050    1.4952 H   0  0  0  0  0  0  0  0  0  0  0  0
   -3.7045    2.2993    0.6739 H   0  0  0  0  0  0  0  0  0  0  0  0
   -5.6137    1.3236    1.9116 H   0  0  0  0  0  0  0  0  0  0  0  0
   -6.1222    1.3439   -1.1739 H   0  0  0  0  0  0  0  0  0  0  0  0
   -6.8861    2.3664    0.0652 H   0  0  0  0  0  0  0  0  0  0  0  0
   -7.8246   -0.3348   -0.4769 H   0  0  0  0  0  0  0  0  0  0  0  0
   -7.9358    0.3707    1.1566 H   0  0  0  0  0  0  0  0  0  0  0  0
   -5.4827   -1.0847   -0.0826 H   0  0  0  0  0  0  0  0  0  0  0  0
   -5.9723   -1.1143    1.6286 H   0  0  0  0  0  0  0  0  0  0  0  0
   -2.1180   -2.4337   -0.1513 H   0  0  0  0  0  0  0  0  0  0  0  0
   -3.1488   -1.5630    0.9523 H   0  0  0  0  0  0  0  0  0  0  0  0
   -1.0722    0.0147    1.0700 H   0  0  0  0  0  0  0  0  0  0  0  0
    0.8177   -1.4367    1.5541 H   0  0  0  0  0  0  0  0  0  0  0  0
    0.0229   -2.7121    0.6980 H   0  0  0  0  0  0  0  0  0  0  0  0
    0.1963   -1.4333   -1.4381 H   0  0  0  0  0  0  0  0  0  0  0  0
    1.4194    0.7236    0.3648 H   0  0  0  0  0  0  0  0  0  0  0  0
    0.1995    0.9561   -0.9023 H   0  0  0  0  0  0  0  0  0  0  0  0
    1.7734    0.3542   -2.6247 H   0  0  0  0  0  0  0  0  0  0  0  0
    2.7630    1.3640   -1.5612 H   0  0  0  0  0  0  0  0  0  0  0  0
    3.4238   -1.2581   -2.2139 H   0  0  0  0  0  0  0  0  0  0  0  0
    6.6096    1.5808    2.2117 H   0  0  0  0  0  0  0  0  0  0  0  0
    7.6875    1.3193   -0.6947 H   0  0  0  0  0  0  0  0  0  0  0  0
    8.1989    2.5586    0.5359 H   0  0  0  0  0  0  0  0  0  0  0  0
    8.9564    0.7079    2.0810 H   0  0  0  0  0  0  0  0  0  0  0  0
    8.4448   -0.5284    0.8473 H   0  0  0  0  0  0  0  0  0  0  0  0
    3.8751   -2.3560    0.8983 H   0  0  0  0  0  0  0  0  0  0  0  0
   -1.8997   -1.2867   -2.6977 H   0  0  0  0  0  0  0  0  0  0  0  0
  1  2  2  0
  2  3  1  0
  3  4  1  0
  4  5  1  0
  5  6  1  0
  6  7  1  0
  7  8  1  0
  3  9  1  0
  9 10  1  0
 10 11  1  0
 11 12  1  0
 12 13  1  0
 13 14  1  0
 14 15  1  0
 15 16  1  0
 16 17  1  0
 17 18  2  0
 18 19  1  0
 19 20  1  0
 20 21  1  0
 21 22  1  0
 19 23  2  0
 23 24  1  0
 16 25  1  0
  9 26  2  0
 26  1  1  0
  8  5  1  0
 25 13  1  0
 24 17  1  0
 22 20  1  0
  1 27  1  0
  4 28  1  0
  4 29  1  0
  5 30  1  0
  6 31  1  0
  6 32  1  0
  7 33  1  0
  7 34  1  0
  8 35  1  0
  8 36  1  0
 10 37  1  0
 10 38  1  0
 11 39  1  0
 12 40  1  0
 12 41  1  0
 13 42  1  6
 14 43  1  0
 14 44  1  0
 15 45  1  0
 15 46  1  0
 16 47  1  6
 20 48  1  0
 21 49  1  0
 21 50  1  0
 22 51  1  0
 22 52  1  0
 24 53  1  0
 26 54  1  0
M  END
$$$$
OCNT-2318123
     RDKit          3D

 44 46  0  0  0  0  0  0  0  0999 V2000
    5.1494    2.2461   -0.8003 C   0  0  0  0  0  0  0  0  0  0  0  0
    5.6237    1.5672    0.4720 C   0  0  0  0  0  0  0  0  0  0  0  0
    5.0244    0.2591    0.6492 N   0  0  0  0  0  0  0  0  0  0  0  0
    3.9252   -0.0399    1.3977 C   0  0  0  0  0  0  0  0  0  0  0  0
    3.7277   -1.4017    1.2790 C   0  0  0  0  0  0  0  0  0  0  0  0
    2.6639   -2.2341    1.8955 C   0  0  0  0  0  0  0  0  0  0  0  0
    1.4240   -1.9931    1.1928 N   0  0  0  0  0  0  0  0  0  0  0  0
    0.5103   -1.0893    1.6622 C   0  0  0  0  0  0  0  0  0  0  0  0
    0.6342   -0.5047    2.7341 O   0  0  0  0  0  0  0  0  0  0  0  0
   -0.5744   -0.8972    0.8440 N   0  0  0  0  0  0  0  0  0  0  0  0
   -0.9097   -1.5989   -0.3827 C   0  0  0  0  0  0  0  0  0  0  0  0
   -2.3679   -1.2531   -0.6364 C   0  0  0  0  0  0  0  0  0  0  0  0
   -2.5104    0.1475   -0.0350 C   0  0  1  0  0  0  0  0  0  0  0  0
   -3.8499    0.4290    0.3524 O   0  0  0  0  0  0  0  0  0  0  0  0
   -4.7320    0.8643   -0.5951 C   0  0  0  0  0  0  0  0  0  0  0  0
   -4.4581    1.0964   -1.9376 C   0  0  0  0  0  0  0  0  0  0  0  0
   -5.4922    1.5388   -2.7498 C   0  0  0  0  0  0  0  0  0  0  0  0
   -6.7515    1.7586   -2.3183 N   0  0  0  0  0  0  0  0  0  0  0  0
   -6.9891    1.5273   -1.0112 C   0  0  0  0  0  0  0  0  0  0  0  0
   -6.0236    1.0857   -0.1234 C   0  0  0  0  0  0  0  0  0  0  0  0
   -1.6220    0.0417    1.2093 C   0  0  0  0  0  0  0  0  0  0  0  0
    4.7802   -1.8230    0.4350 C   0  0  0  0  0  0  0  0  0  0  0  0
    5.5632   -0.8155    0.0431 N   0  0  0  0  0  0  0  0  0  0  0  0
    5.4083    1.6542   -1.6846 H   0  0  0  0  0  0  0  0  0  0  0  0
    4.0623    2.3788   -0.7943 H   0  0  0  0  0  0  0  0  0  0  0  0
    5.6140    3.2317   -0.9011 H   0  0  0  0  0  0  0  0  0  0  0  0
    5.3672    2.1730    1.3479 H   0  0  0  0  0  0  0  0  0  0  0  0
    6.7112    1.4354    0.4617 H   0  0  0  0  0  0  0  0  0  0  0  0
    3.3756    0.7159    1.9436 H   0  0  0  0  0  0  0  0  0  0  0  0
    2.5606   -2.0140    2.9630 H   0  0  0  0  0  0  0  0  0  0  0  0
    2.8947   -3.2986    1.7849 H   0  0  0  0  0  0  0  0  0  0  0  0
    1.4571   -2.1096    0.1942 H   0  0  0  0  0  0  0  0  0  0  0  0
   -0.7461   -2.6755   -0.2796 H   0  0  0  0  0  0  0  0  0  0  0  0
   -0.2640   -1.2107   -1.1779 H   0  0  0  0  0  0  0  0  0  0  0  0
   -2.6248   -1.2949   -1.6986 H   0  0  0  0  0  0  0  0  0  0  0  0
   -3.0284   -1.9577   -0.1152 H   0  0  0  0  0  0  0  0  0  0  0  0
   -2.0901    0.9209   -0.6908 H   0  0  0  0  0  0  0  0  0  0  0  0
   -3.4817    0.9500   -2.3781 H   0  0  0  0  0  0  0  0  0  0  0  0
   -5.3274    1.7347   -3.8058 H   0  0  0  0  0  0  0  0  0  0  0  0
   -8.0081    1.7117   -0.6837 H   0  0  0  0  0  0  0  0  0  0  0  0
   -6.2720    0.9162    0.9184 H   0  0  0  0  0  0  0  0  0  0  0  0
   -2.1660   -0.3581    2.0734 H   0  0  0  0  0  0  0  0  0  0  0  0
   -1.1936    1.0078    1.4962 H   0  0  0  0  0  0  0  0  0  0  0  0
    5.0055   -2.8231    0.0869 H   0  0  0  0  0  0  0  0  0  0  0  0
  1  2  1  0
  2  3  1  0
  3  4  1  0
  4  5  2  0
  5  6  1  0
  6  7  1  0
  7  8  1  0
  8  9  2  0
  8 10  1  0
 10 11  1  0
 11 12  1  0
 12 13  1  0
 13 14  1  0
 14 15  1  0
 15 16  2  0
 16 17  1  0
 17 18  2  0
 18 19  1  0
 19 20  2  0
 13 21  1  0
  5 22  1  0
 22 23  2  0
 23  3  1  0
 21 10  1  0
 20 15  1  0
  1 24  1  0
  1 25  1  0
  1 26  1  0
  2 27  1  0
  2 28  1  0
  4 29  1  0
  6 30  1  0
  6 31  1  0
  7 32  1  0
 11 33  1  0
 11 34  1  0
 12 35  1  0
 12 36  1  0
 13 37  1  6
 16 38  1  0
 17 39  1  0
 19 40  1  0
 20 41  1  0
 21 42  1  0
 21 43  1  0
 22 44  1  0
M  END
$$$$
OCNT-2318132
     RDKit          3D

 43 44  0  0  0  0  0  0  0  0999 V2000
    2.4212   -0.6921    2.8282 C   0  0  0  0  0  0  0  0  0  0  0  0
    1.2412   -0.6915    1.8617 C   0  0  0  0  0  0  0  0  0  0  0  0
    1.2751    0.4860    0.8627 C   0  0  0  0  0  0  0  0  0  0  0  0
   -0.0045    0.6603    0.1500 N   0  0  0  0  0  0  0  0  0  0  0  0
   -0.4073   -0.4522   -0.7350 C   0  0  0  0  0  0  0  0  0  0  0  0
   -0.7797    0.1441   -2.1095 C   0  0  0  0  0  0  0  0  0  0  0  0
   -1.1562   -0.8783   -3.0293 O   0  0  0  0  0  0  0  0  0  0  0  0
   -1.5295   -1.3534   -0.1471 C   0  0  0  0  0  0  0  0  0  0  0  0
   -2.8259   -0.6698    0.2340 C   0  0  0  0  0  0  0  0  0  0  0  0
   -3.0533   -0.2548    1.5561 C   0  0  0  0  0  0  0  0  0  0  0  0
   -4.2490    0.3757    1.9031 C   0  0  0  0  0  0  0  0  0  0  0  0
   -5.2204    0.5855    0.9322 C   0  0  0  0  0  0  0  0  0  0  0  0
   -6.3677    1.1904    1.2671 F   0  0  0  0  0  0  0  0  0  0  0  0
   -5.0213    0.1724   -0.3788 C   0  0  0  0  0  0  0  0  0  0  0  0
   -3.8263   -0.4583   -0.7273 C   0  0  0  0  0  0  0  0  0  0  0  0
    2.4526    0.5857   -0.0962 C   0  0  0  0  0  0  0  0  0  0  0  0
    2.8145    1.8559   -0.5877 C   0  0  0  0  0  0  0  0  0  0  0  0
    3.8787    2.0124   -1.4804 C   0  0  0  0  0  0  0  0  0  0  0  0
    4.5991    0.9006   -1.9077 C   0  0  0  0  0  0  0  0  0  0  0  0
    4.2485   -0.3650   -1.4458 C   0  0  0  0  0  0  0  0  0  0  0  0
    3.1854   -0.5142   -0.5551 C   0  0  0  0  0  0  0  0  0  0  0  0
    2.8799   -1.7571   -0.1581 F   0  0  0  0  0  0  0  0  0  0  0  0
    3.3736   -0.8364    2.3113 H   0  0  0  0  0  0  0  0  0  0  0  0
    2.4712    0.2491    3.3850 H   0  0  0  0  0  0  0  0  0  0  0  0
    2.3098   -1.5053    3.5528 H   0  0  0  0  0  0  0  0  0  0  0  0
    1.1938   -1.6585    1.3511 H   0  0  0  0  0  0  0  0  0  0  0  0
    0.3267   -0.6191    2.4648 H   0  0  0  0  0  0  0  0  0  0  0  0
    1.3578    1.3796    1.4994 H   0  0  0  0  0  0  0  0  0  0  0  0
   -0.7457    0.8499    0.8217 H   0  0  0  0  0  0  0  0  0  0  0  0
    0.4353   -1.1287   -0.9220 H   0  0  0  0  0  0  0  0  0  0  0  0
    0.0835    0.6706   -2.5334 H   0  0  0  0  0  0  0  0  0  0  0  0
   -1.6041    0.8604   -2.0315 H   0  0  0  0  0  0  0  0  0  0  0  0
   -1.2544   -0.4462   -3.8954 H   0  0  0  0  0  0  0  0  0  0  0  0
   -1.7590   -2.1618   -0.8542 H   0  0  0  0  0  0  0  0  0  0  0  0
   -1.1434   -1.8709    0.7405 H   0  0  0  0  0  0  0  0  0  0  0  0
   -2.3038   -0.4274    2.3251 H   0  0  0  0  0  0  0  0  0  0  0  0
   -4.4311    0.6992    2.9228 H   0  0  0  0  0  0  0  0  0  0  0  0
   -5.7964    0.3393   -1.1194 H   0  0  0  0  0  0  0  0  0  0  0  0
   -3.6785   -0.7894   -1.7537 H   0  0  0  0  0  0  0  0  0  0  0  0
    2.2526    2.7356   -0.2774 H   0  0  0  0  0  0  0  0  0  0  0  0
    4.1390    3.0033   -1.8444 H   0  0  0  0  0  0  0  0  0  0  0  0
    5.4254    1.0185   -2.6035 H   0  0  0  0  0  0  0  0  0  0  0  0
    4.7927   -1.2441   -1.7767 H   0  0  0  0  0  0  0  0  0  0  0  0
  1  2  1  0
  2  3  1  0
  3  4  1  0
  4  5  1  0
  5  6  1  0
  6  7  1  0
  5  8  1  0
  8  9  1  0
  9 10  1  0
 10 11  2  0
 11 12  1  0
 12 13  1  0
 12 14  2  0
 14 15  1  0
  3 16  1  0
 16 17  2  0
 17 18  1  0
 18 19  2  0
 19 20  1  0
 20 21  2  0
 21 22  1  0
 15  9  2  0
 21 16  1  0
  1 23  1  0
  1 24  1  0
  1 25  1  0
  2 26  1  0
  2 27  1  0
  3 28  1  0
  4 29  1  0
  5 30  1  0
  6 31  1  0
  6 32  1  0
  7 33  1  0
  8 34  1  0
  8 35  1  0
 10 36  1  0
 11 37  1  0
 14 38  1  0
 15 39  1  0
 17 40  1  0
 18 41  1  0
 19 42  1  0
 20 43  1  0
M  END
$$$$
OCNT-2318133
     RDKit          3D

 47 50  0  0  0  0  0  0  0  0999 V2000
    4.8652   -0.7988   -0.6582 N   0  0  0  0  0  0  0  0  0  0  0  0
    4.1988   -2.3272   -0.6461 S   0  0  0  0  0  0  0  0  0  0  0  0
    4.0873   -2.7284   -2.0235 O   0  0  0  0  0  0  0  0  0  0  0  0
    4.9714   -3.0587    0.3254 O   0  0  0  0  0  0  0  0  0  0  0  0
    2.7060   -1.9718   -0.0084 N   0  0  0  0  0  0  0  0  0  0  0  0
    2.5777   -1.6794    1.4252 C   0  0  0  0  0  0  0  0  0  0  0  0
    1.5825   -0.5785    1.7719 C   0  0  0  0  0  0  0  0  0  0  0  0
    1.8515    0.7312    1.0317 C   0  0  0  0  0  0  0  0  0  0  0  0
    1.1805    0.8211   -0.2749 N   0  0  0  0  0  0  0  0  0  0  0  0
   -0.2103    1.0375   -0.2080 C   0  0  0  0  0  0  0  0  0  0  0  0
   -1.0237    0.0048   -0.4979 N   0  0  0  0  0  0  0  0  0  0  0  0
   -2.3478    0.1960   -0.3751 C   0  0  0  0  0  0  0  0  0  0  0  0
   -3.2388   -0.9417   -0.6737 C   0  0  0  0  0  0  0  0  0  0  0  0
   -2.7390   -2.1705   -1.1304 C   0  0  0  0  0  0  0  0  0  0  0  0
   -3.6169   -3.2103   -1.3956 C   0  0  0  0  0  0  0  0  0  0  0  0
   -4.9526   -3.1211   -1.2417 N   0  0  0  0  0  0  0  0  0  0  0  0
   -5.4300   -1.9390   -0.8051 C   0  0  0  0  0  0  0  0  0  0  0  0
   -4.6300   -0.8448   -0.5144 C   0  0  0  0  0  0  0  0  0  0  0  0
   -2.9195    1.3477    0.0097 N   0  0  0  0  0  0  0  0  0  0  0  0
   -2.1142    2.3835    0.2520 C   0  0  0  0  0  0  0  0  0  0  0  0
   -2.6894    3.5967    0.6125 C   0  0  0  0  0  0  0  0  0  0  0  0
   -1.9210    4.7386    0.8533 C   0  0  0  0  0  0  0  0  0  0  0  0
   -0.5416    4.6774    0.7238 C   0  0  0  0  0  0  0  0  0  0  0  0
    0.0555    3.4701    0.3688 C   0  0  0  0  0  0  0  0  0  0  0  0
   -0.7211    2.3020    0.1486 C   0  0  0  0  0  0  0  0  0  0  0  0
    1.6147   -0.1260   -1.3214 C   0  0  0  0  0  0  0  0  0  0  0  0
    1.5950   -1.6069   -0.9155 C   0  0  0  0  0  0  0  0  0  0  0  0
    5.5484   -0.7579   -1.4161 H   0  0  0  0  0  0  0  0  0  0  0  0
    5.3214   -0.6383    0.2392 H   0  0  0  0  0  0  0  0  0  0  0  0
    3.5526   -1.3961    1.8398 H   0  0  0  0  0  0  0  0  0  0  0  0
    2.2791   -2.6036    1.9338 H   0  0  0  0  0  0  0  0  0  0  0  0
    0.5547   -0.9266    1.6238 H   0  0  0  0  0  0  0  0  0  0  0  0
    1.6776   -0.3884    2.8490 H   0  0  0  0  0  0  0  0  0  0  0  0
    1.5318    1.5566    1.6784 H   0  0  0  0  0  0  0  0  0  0  0  0
    2.9290    0.8801    0.8906 H   0  0  0  0  0  0  0  0  0  0  0  0
   -1.6756   -2.3228   -1.2826 H   0  0  0  0  0  0  0  0  0  0  0  0
   -3.2541   -4.1708   -1.7504 H   0  0  0  0  0  0  0  0  0  0  0  0
   -6.5089   -1.8880   -0.6895 H   0  0  0  0  0  0  0  0  0  0  0  0
   -5.0922    0.0744   -0.1664 H   0  0  0  0  0  0  0  0  0  0  0  0
   -3.7722    3.6593    0.6998 H   0  0  0  0  0  0  0  0  0  0  0  0
   -2.4061    5.6720    1.1273 H   0  0  0  0  0  0  0  0  0  0  0  0
    0.0670    5.5624    0.8895 H   0  0  0  0  0  0  0  0  0  0  0  0
    1.1357    3.4348    0.2428 H   0  0  0  0  0  0  0  0  0  0  0  0
    2.6221    0.1655   -1.6364 H   0  0  0  0  0  0  0  0  0  0  0  0
    0.9912    0.0060   -2.2163 H   0  0  0  0  0  0  0  0  0  0  0  0
    1.6597   -2.2200   -1.8220 H   0  0  0  0  0  0  0  0  0  0  0  0
    0.6483   -1.9024   -0.4540 H   0  0  0  0  0  0  0  0  0  0  0  0
  1  2  1  0
  2  3  2  0
  2  4  2  0
  2  5  1  0
  5  6  1  0
  6  7  1  0
  7  8  1  0
  8  9  1  0
  9 10  1  0
 10 11  1  0
 11 12  2  0
 12 13  1  0
 13 14  2  0
 14 15  1  0
 15 16  2  0
 16 17  1  0
 17 18  2  0
 12 19  1  0
 19 20  2  0
 20 21  1  0
 21 22  2  0
 22 23  1  0
 23 24  2  0
 24 25  1  0
  9 26  1  0
 26 27  1  0
 27  5  1  0
 25 10  2  0
 18 13  1  0
 25 20  1  0
  1 28  1  0
  1 29  1  0
  6 30  1  0
  6 31  1  0
  7 32  1  0
  7 33  1  0
  8 34  1  0
  8 35  1  0
 14 36  1  0
 15 37  1  0
 17 38  1  0
 18 39  1  0
 21 40  1  0
 22 41  1  0
 23 42  1  0
 24 43  1  0
 26 44  1  0
 26 45  1  0
 27 46  1  0
 27 47  1  0
M  END
$$$$
OCNT-2318150
     RDKit          3D

 42 45  0  0  0  0  0  0  0  0999 V2000
    2.2264   -1.6681   -1.9054 C   0  0  0  0  0  0  0  0  0  0  0  0
    2.9059   -0.7833   -0.8930 C   0  0  0  0  0  0  0  0  0  0  0  0
    4.3026   -0.9188   -0.7344 C   0  0  0  0  0  0  0  0  0  0  0  0
    4.9899   -0.1197    0.1966 C   0  0  0  0  0  0  0  0  0  0  0  0
    4.2626    0.7945    0.9504 C   0  0  0  0  0  0  0  0  0  0  0  0
    2.8763    0.9520    0.8195 C   0  0  0  0  0  0  0  0  0  0  0  0
    2.1962    0.1625   -0.1212 C   0  0  0  0  0  0  0  0  0  0  0  0
    0.7933    0.2622   -0.2869 N   0  0  0  0  0  0  0  0  0  0  0  0
   -0.0379    1.2688    0.1581 C   0  0  0  0  0  0  0  0  0  0  0  0
    0.3398    2.3480    0.6053 O   0  0  0  0  0  0  0  0  0  0  0  0
   -1.4010    0.9627    0.0243 N   0  0  0  0  0  0  0  0  0  0  0  0
   -2.3383    2.0139    0.4106 C   0  0  0  0  0  0  0  0  0  0  0  0
   -3.6677    1.8720   -0.3247 C   0  0  0  0  0  0  0  0  0  0  0  0
   -4.2215    0.4761   -0.2100 C   0  0  0  0  0  0  0  0  0  0  0  0
   -5.5912    0.2464   -0.4066 C   0  0  0  0  0  0  0  0  0  0  0  0
   -6.1012   -1.0479   -0.3281 C   0  0  0  0  0  0  0  0  0  0  0  0
   -7.7839   -1.3197   -0.5625 Cl  0  0  0  0  0  0  0  0  0  0  0  0
   -5.2579   -2.1229   -0.0622 C   0  0  0  0  0  0  0  0  0  0  0  0
   -3.8914   -1.9029    0.1207 C   0  0  0  0  0  0  0  0  0  0  0  0
   -3.3584   -0.6060    0.0389 C   0  0  0  0  0  0  0  0  0  0  0  0
   -1.8735   -0.4055    0.2489 C   0  0  0  0  0  0  0  0  0  0  0  0
    5.1540    1.4427    1.7753 N   0  0  0  0  0  0  0  0  0  0  0  0
    6.4213    0.9654    1.5680 C   0  0  0  0  0  0  0  0  0  0  0  0
    6.3502   -0.0048    0.5942 C   0  0  0  0  0  0  0  0  0  0  0  0
    1.4660   -2.2879   -1.4193 H   0  0  0  0  0  0  0  0  0  0  0  0
    1.7620   -1.0608   -2.6890 H   0  0  0  0  0  0  0  0  0  0  0  0
    2.9358   -2.3455   -2.3930 H   0  0  0  0  0  0  0  0  0  0  0  0
    4.8610   -1.6382   -1.3270 H   0  0  0  0  0  0  0  0  0  0  0  0
    2.3607    1.6697    1.4471 H   0  0  0  0  0  0  0  0  0  0  0  0
    0.3916   -0.3028   -1.0163 H   0  0  0  0  0  0  0  0  0  0  0  0
   -2.4781    1.9519    1.4976 H   0  0  0  0  0  0  0  0  0  0  0  0
   -1.9163    3.0012    0.1908 H   0  0  0  0  0  0  0  0  0  0  0  0
   -3.5269    2.0948   -1.3896 H   0  0  0  0  0  0  0  0  0  0  0  0
   -4.3800    2.5992    0.0819 H   0  0  0  0  0  0  0  0  0  0  0  0
   -6.2587    1.0780   -0.6201 H   0  0  0  0  0  0  0  0  0  0  0  0
   -5.6563   -3.1320    0.0016 H   0  0  0  0  0  0  0  0  0  0  0  0
   -3.2425   -2.7520    0.3271 H   0  0  0  0  0  0  0  0  0  0  0  0
   -1.6207   -0.6696    1.2836 H   0  0  0  0  0  0  0  0  0  0  0  0
   -1.3383   -1.0898   -0.4167 H   0  0  0  0  0  0  0  0  0  0  0  0
    4.9003    2.1690    2.4311 H   0  0  0  0  0  0  0  0  0  0  0  0
    7.2598    1.3573    2.1276 H   0  0  0  0  0  0  0  0  0  0  0  0
    7.1864   -0.5717    0.2069 H   0  0  0  0  0  0  0  0  0  0  0  0
  1  2  1  0
  2  3  1  0
  3  4  2  0
  4  5  1  0
  5  6  2  0
  6  7  1  0
  7  8  1  0
  8  9  1  0
  9 10  2  0
  9 11  1  0
 11 12  1  0
 12 13  1  0
 13 14  1  0
 14 15  1  0
 15 16  2  0
 16 17  1  0
 16 18  1  0
 18 19  2  0
 19 20  1  0
 20 21  1  0
  5 22  1  0
 22 23  1  0
 23 24  2  0
  7  2  2  0
 21 11  1  0
 24  4  1  0
 20 14  2  0
  1 25  1  0
  1 26  1  0
  1 27  1  0
  3 28  1  0
  6 29  1  0
  8 30  1  0
 12 31  1  0
 12 32  1  0
 13 33  1  0
 13 34  1  0
 15 35  1  0
 18 36  1  0
 19 37  1  0
 21 38  1  0
 21 39  1  0
 22 40  1  0
 23 41  1  0
 24 42  1  0
M  END
$$$$
OCNT-2318152
     RDKit          3D

 46 48  0  0  0  0  0  0  0  0999 V2000
   -5.0392   -0.6490   -2.4590 C   0  0  0  0  0  0  0  0  0  0  0  0
   -4.2558   -0.7265   -1.2749 O   0  0  0  0  0  0  0  0  0  0  0  0
   -2.8853   -1.0201   -1.5637 C   0  0  0  0  0  0  0  0  0  0  0  0
   -2.1042   -1.0708   -0.2463 C   0  0  0  0  0  0  0  0  0  0  0  0
   -1.8991    0.2679    0.3388 N   0  0  0  0  0  0  0  0  0  0  0  0
   -2.9838    0.9438    0.9302 C   0  0  0  0  0  0  0  0  0  0  0  0
   -3.2587    2.1163    0.6578 O   0  0  0  0  0  0  0  0  0  0  0  0
   -3.8007    0.2228    1.8995 C   0  0  0  0  0  0  0  0  0  0  0  0
   -4.9909    0.5959    2.4981 C   0  0  0  0  0  0  0  0  0  0  0  0
   -5.3529   -0.4269    3.3936 C   0  0  0  0  0  0  0  0  0  0  0  0
   -4.3555   -1.3704    3.3075 C   0  0  0  0  0  0  0  0  0  0  0  0
   -3.4073   -0.9843    2.4174 O   0  0  0  0  0  0  0  0  0  0  0  0
   -0.8202    1.0224   -0.1331 C   0  0  0  0  0  0  0  0  0  0  0  0
    0.0061    0.6103   -1.0785 N   0  0  0  0  0  0  0  0  0  0  0  0
    0.9780    1.5712   -1.3233 C   0  0  0  0  0  0  0  0  0  0  0  0
    1.9900    1.3125   -2.3902 C   0  0  0  0  0  0  0  0  0  0  0  0
    3.3775    1.1297   -1.7935 C   0  0  0  0  0  0  0  0  0  0  0  0
    4.3045    1.8589   -2.1318 O   0  0  0  0  0  0  0  0  0  0  0  0
    3.4426    0.0982   -0.8756 N   0  0  0  0  0  0  0  0  0  0  0  0
    4.5290   -0.2515   -0.0458 C   0  0  0  0  0  0  0  0  0  0  0  0
    5.8104    0.2878   -0.1659 C   0  0  0  0  0  0  0  0  0  0  0  0
    6.8199   -0.0734    0.7368 C   0  0  0  0  0  0  0  0  0  0  0  0
    6.5533   -0.9830    1.7521 C   0  0  0  0  0  0  0  0  0  0  0  0
    7.7883   -1.4229    2.8729 Cl  0  0  0  0  0  0  0  0  0  0  0  0
    5.2896   -1.5469    1.8645 C   0  0  0  0  0  0  0  0  0  0  0  0
    4.2810   -1.1782    0.9652 C   0  0  0  0  0  0  0  0  0  0  0  0
    0.9288    2.6685   -0.4762 C   0  0  0  0  0  0  0  0  0  0  0  0
   -0.3482    2.4780    0.6459 S   0  0  0  0  0  0  0  0  0  0  0  0
   -4.6623    0.1409   -3.1225 H   0  0  0  0  0  0  0  0  0  0  0  0
   -6.0662   -0.3984   -2.1714 H   0  0  0  0  0  0  0  0  0  0  0  0
   -5.0421   -1.6152   -2.9801 H   0  0  0  0  0  0  0  0  0  0  0  0
   -2.4751   -0.2567   -2.2416 H   0  0  0  0  0  0  0  0  0  0  0  0
   -2.8314   -2.0019   -2.0510 H   0  0  0  0  0  0  0  0  0  0  0  0
   -1.1246   -1.5294   -0.4086 H   0  0  0  0  0  0  0  0  0  0  0  0
   -2.6386   -1.7165    0.4504 H   0  0  0  0  0  0  0  0  0  0  0  0
   -5.5144    1.5188    2.3045 H   0  0  0  0  0  0  0  0  0  0  0  0
   -6.2217   -0.4713    4.0374 H   0  0  0  0  0  0  0  0  0  0  0  0
   -4.1790   -2.3259    3.7975 H   0  0  0  0  0  0  0  0  0  0  0  0
    2.0114    2.1478   -3.0915 H   0  0  0  0  0  0  0  0  0  0  0  0
    1.7351    0.4076   -2.9564 H   0  0  0  0  0  0  0  0  0  0  0  0
    2.5631   -0.3697   -0.6727 H   0  0  0  0  0  0  0  0  0  0  0  0
    6.0717    0.9815   -0.9624 H   0  0  0  0  0  0  0  0  0  0  0  0
    7.8140    0.3676    0.6314 H   0  0  0  0  0  0  0  0  0  0  0  0
    5.0833   -2.2685    2.6489 H   0  0  0  0  0  0  0  0  0  0  0  0
    3.2938   -1.6209    1.0861 H   0  0  0  0  0  0  0  0  0  0  0  0
    1.5855    3.5296   -0.4515 H   0  0  0  0  0  0  0  0  0  0  0  0
  1  2  1  0
  2  3  1  0
  3  4  1  0
  4  5  1  0
  5  6  1  0
  6  7  2  0
  6  8  1  0
  8  9  2  0
  9 10  1  0
 10 11  2  0
 11 12  1  0
  5 13  1  0
 13 14  2  0
 14 15  1  0
 15 16  1  0
 16 17  1  0
 17 18  2  0
 17 19  1  0
 19 20  1  0
 20 21  1  0
 21 22  2  0
 22 23  1  0
 23 24  1  0
 23 25  2  0
 25 26  1  0
 15 27  2  0
 27 28  1  0
 12  8  1  0
 28 13  1  0
 26 20  2  0
  1 29  1  0
  1 30  1  0
  1 31  1  0
  3 32  1  0
  3 33  1  0
  4 34  1  0
  4 35  1  0
  9 36  1  0
 10 37  1  0
 11 38  1  0
 16 39  1  0
 16 40  1  0
 19 41  1  0
 21 42  1  0
 22 43  1  0
 25 44  1  0
 26 45  1  0
 27 46  1  0
M  END
$$$$
OCNT-2318156
     RDKit          3D

 46 49  0  0  0  0  0  0  0  0999 V2000
    0.5634   -0.1580   -2.3897 O   0  0  0  0  0  0  0  0  0  0  0  0
    0.1878    0.5373   -1.4526 C   0  0  0  0  0  0  0  0  0  0  0  0
   -1.1349    0.7112   -1.1114 N   0  0  0  0  0  0  0  0  0  0  0  0
   -2.2064   -0.0329   -1.7504 C   0  0  0  0  0  0  0  0  0  0  0  0
   -2.8115   -0.9815   -0.7013 C   0  0  0  0  0  0  0  0  0  0  0  0
   -3.5559   -0.1285    0.4364 C   0  0  0  0  0  0  0  0  0  0  0  0
   -4.9371    0.0372    0.5561 C   0  0  0  0  0  0  0  0  0  0  0  0
   -5.4546    0.8132    1.5914 C   0  0  0  0  0  0  0  0  0  0  0  0
   -4.5872    1.4153    2.4904 C   0  0  0  0  0  0  0  0  0  0  0  0
   -3.2314    1.2219    2.3095 C   0  0  0  0  0  0  0  0  0  0  0  0
   -2.7036    0.4829    1.3074 N   0  0  0  0  0  0  0  0  0  0  0  0
   -1.8301   -2.1054   -0.1980 C   0  0  0  0  0  0  0  0  0  0  0  0
   -3.0040   -3.0953   -0.3002 C   0  0  0  0  0  0  0  0  0  0  0  0
   -3.6096   -2.1638   -1.3655 C   0  0  0  0  0  0  0  0  0  0  0  0
    1.1870    1.2217   -0.5845 C   0  0  0  0  0  0  0  0  0  0  0  0
    0.8763    2.3865    0.1279 C   0  0  0  0  0  0  0  0  0  0  0  0
    1.8452    2.9952    0.9255 C   0  0  0  0  0  0  0  0  0  0  0  0
    3.1275    2.4472    1.0101 C   0  0  0  0  0  0  0  0  0  0  0  0
    3.4609    1.2874    0.2933 C   0  0  0  0  0  0  0  0  0  0  0  0
    4.8003    0.7129    0.3732 C   0  0  0  0  0  0  0  0  0  0  0  0
    5.7970    1.2283    1.1120 N   0  0  0  0  0  0  0  0  0  0  0  0
    6.8656    0.3662    0.8862 O   0  0  0  0  0  0  0  0  0  0  0  0
    6.4198   -0.5965    0.0279 C   0  0  0  0  0  0  0  0  0  0  0  0
    7.4151   -1.6311   -0.3469 C   0  0  0  0  0  0  0  0  0  0  0  0
    7.8729   -2.3168    0.7360 F   0  0  0  0  0  0  0  0  0  0  0  0
    8.5095   -1.0949   -0.9532 F   0  0  0  0  0  0  0  0  0  0  0  0
    6.9156   -2.5599   -1.2059 F   0  0  0  0  0  0  0  0  0  0  0  0
    5.1564   -0.4274   -0.3146 N   0  0  0  0  0  0  0  0  0  0  0  0
    2.4799    0.6840   -0.5075 C   0  0  0  0  0  0  0  0  0  0  0  0
   -1.3530    1.0745   -0.1856 H   0  0  0  0  0  0  0  0  0  0  0  0
   -2.9504    0.6899   -2.1027 H   0  0  0  0  0  0  0  0  0  0  0  0
   -1.8225   -0.5789   -2.6185 H   0  0  0  0  0  0  0  0  0  0  0  0
   -5.6144   -0.4312   -0.1498 H   0  0  0  0  0  0  0  0  0  0  0  0
   -6.5286    0.9419    1.6939 H   0  0  0  0  0  0  0  0  0  0  0  0
   -4.9580    2.0206    3.3092 H   0  0  0  0  0  0  0  0  0  0  0  0
   -2.5082    1.6686    2.9862 H   0  0  0  0  0  0  0  0  0  0  0  0
   -1.0089   -2.3369   -0.8875 H   0  0  0  0  0  0  0  0  0  0  0  0
   -1.4123   -1.9825    0.8054 H   0  0  0  0  0  0  0  0  0  0  0  0
   -2.7481   -4.1021   -0.6393 H   0  0  0  0  0  0  0  0  0  0  0  0
   -3.6021   -3.1713    0.6153 H   0  0  0  0  0  0  0  0  0  0  0  0
   -3.2891   -2.4149   -2.3849 H   0  0  0  0  0  0  0  0  0  0  0  0
   -4.7005   -2.1055   -1.3664 H   0  0  0  0  0  0  0  0  0  0  0  0
   -0.1064    2.8440    0.0542 H   0  0  0  0  0  0  0  0  0  0  0  0
    1.6059    3.9017    1.4766 H   0  0  0  0  0  0  0  0  0  0  0  0
    3.8677    2.9407    1.6381 H   0  0  0  0  0  0  0  0  0  0  0  0
    2.7152   -0.2152   -1.0767 H   0  0  0  0  0  0  0  0  0  0  0  0
  1  2  2  0
  2  3  1  0
  3  4  1  0
  4  5  1  0
  5  6  1  0
  6  7  2  0
  7  8  1  0
  8  9  2  0
  9 10  1  0
 10 11  2  0
  5 12  1  0
 12 13  1  0
 13 14  1  0
  2 15  1  0
 15 16  1  0
 16 17  2  0
 17 18  1  0
 18 19  2  0
 19 20  1  0
 20 21  2  0
 21 22  1  0
 22 23  1  0
 23 24  1  0
 24 25  1  0
 24 26  1  0
 24 27  1  0
 23 28  2  0
 19 29  1  0
 14  5  1  0
 29 15  2  0
 11  6  1  0
 28 20  1  0
  3 30  1  0
  4 31  1  0
  4 32  1  0
  7 33  1  0
  8 34  1  0
  9 35  1  0
 10 36  1  0
 12 37  1  0
 12 38  1  0
 13 39  1  0
 13 40  1  0
 14 41  1  0
 14 42  1  0
 16 43  1  0
 17 44  1  0
 18 45  1  0
 29 46  1  0
M  END
$$$$
OCNT-2318165
     RDKit          3D

 41 44  0  0  0  0  0  0  0  0999 V2000
    1.6220   -0.9660    0.8154 O   0  0  0  0  0  0  0  0  0  0  0  0
    1.6463    0.2300    0.5439 C   0  0  0  0  0  0  0  0  0  0  0  0
    0.4934    0.9938    0.4745 N   0  0  0  0  0  0  0  0  0  0  0  0
   -0.8139    0.4199    0.7495 C   0  0  0  0  0  0  0  0  0  0  0  0
   -1.3487   -0.4121   -0.4195 C   0  0  0  0  0  0  0  0  0  0  0  0
   -2.7343   -0.9154   -0.1637 C   0  0  0  0  0  0  0  0  0  0  0  0
   -3.0675   -2.1396    0.3824 C   0  0  0  0  0  0  0  0  0  0  0  0
   -4.4308   -2.2236    0.4580 N   0  0  0  0  0  0  0  0  0  0  0  0
   -5.0041   -1.0714   -0.0267 C   0  0  0  0  0  0  0  0  0  0  0  0
   -6.3527   -0.7137   -0.1405 C   0  0  0  0  0  0  0  0  0  0  0  0
   -6.6350    0.5391   -0.6818 C   0  0  0  0  0  0  0  0  0  0  0  0
   -7.9143    0.9189   -0.8072 F   0  0  0  0  0  0  0  0  0  0  0  0
   -5.6306    1.4041   -1.0949 C   0  0  0  0  0  0  0  0  0  0  0  0
   -4.2872    1.0310   -0.9741 C   0  0  0  0  0  0  0  0  0  0  0  0
   -3.9636   -0.2307   -0.4290 C   0  0  0  0  0  0  0  0  0  0  0  0
    2.9107    1.0215    0.2719 C   0  0  0  0  0  0  0  0  0  0  0  0
    2.9640    1.4776   -1.1912 C   0  0  0  0  0  0  0  0  0  0  0  0
    4.3319    1.4464   -1.6614 O   0  0  0  0  0  0  0  0  0  0  0  0
    4.9562    0.5945   -0.7892 C   0  0  0  0  0  0  0  0  0  0  0  0
    6.2330    0.1040   -0.9730 C   0  0  0  0  0  0  0  0  0  0  0  0
    6.7530   -0.7471    0.0035 C   0  0  0  0  0  0  0  0  0  0  0  0
    5.9931   -1.0775    1.1372 C   0  0  0  0  0  0  0  0  0  0  0  0
    4.7070   -0.5576    1.3090 C   0  0  0  0  0  0  0  0  0  0  0  0
    4.1973    0.2761    0.3268 C   0  0  0  0  0  0  0  0  0  0  0  0
    0.5588    1.9989    0.3784 H   0  0  0  0  0  0  0  0  0  0  0  0
   -1.4868    1.2571    0.9668 H   0  0  0  0  0  0  0  0  0  0  0  0
   -0.7429   -0.1921    1.6566 H   0  0  0  0  0  0  0  0  0  0  0  0
   -1.3409    0.1915   -1.3360 H   0  0  0  0  0  0  0  0  0  0  0  0
   -0.6815   -1.2608   -0.6145 H   0  0  0  0  0  0  0  0  0  0  0  0
   -2.4451   -2.9579    0.7220 H   0  0  0  0  0  0  0  0  0  0  0  0
   -4.9460   -3.0158    0.8169 H   0  0  0  0  0  0  0  0  0  0  0  0
   -7.1541   -1.3720    0.1732 H   0  0  0  0  0  0  0  0  0  0  0  0
   -5.8969    2.3696   -1.5134 H   0  0  0  0  0  0  0  0  0  0  0  0
   -3.5046    1.7085   -1.3017 H   0  0  0  0  0  0  0  0  0  0  0  0
    2.9649    1.8789    0.9534 H   0  0  0  0  0  0  0  0  0  0  0  0
    2.3698    0.8352   -1.8547 H   0  0  0  0  0  0  0  0  0  0  0  0
    2.5841    2.5000   -1.2981 H   0  0  0  0  0  0  0  0  0  0  0  0
    6.8099    0.3698   -1.8514 H   0  0  0  0  0  0  0  0  0  0  0  0
    7.7528   -1.1575   -0.1137 H   0  0  0  0  0  0  0  0  0  0  0  0
    6.4100   -1.7432    1.8894 H   0  0  0  0  0  0  0  0  0  0  0  0
    4.1232   -0.8124    2.1886 H   0  0  0  0  0  0  0  0  0  0  0  0
  1  2  2  0
  2  3  1  0
  3  4  1  0
  4  5  1  0
  5  6  1  0
  6  7  2  0
  7  8  1  0
  8  9  1  0
  9 10  2  0
 10 11  1  0
 11 12  1  0
 11 13  2  0
 13 14  1  0
 14 15  2  0
  2 16  1  0
 16 17  1  0
 17 18  1  0
 18 19  1  0
 19 20  2  0
 20 21  1  0
 21 22  2  0
 22 23  1  0
 23 24  2  0
 15  6  1  0
 24 16  1  0
 15  9  1  0
 24 19  1  0
  3 25  1  0
  4 26  1  0
  4 27  1  0
  5 28  1  0
  5 29  1  0
  7 30  1  0
  8 31  1  0
 10 32  1  0
 13 33  1  0
 14 34  1  0
 16 35  1  0
 17 36  1  0
 17 37  1  0
 20 38  1  0
 21 39  1  0
 22 40  1  0
 23 41  1  0
M  END
$$$$
OCNT-2318171
     RDKit          3D

 46 49  0  0  0  0  0  0  0  0999 V2000
    2.2514    0.3372    2.5676 C   0  0  0  0  0  0  0  0  0  0  0  0
    3.0509   -0.4129    1.5328 C   0  0  0  0  0  0  0  0  0  0  0  0
    4.0810   -1.2088    1.9136 C   0  0  0  0  0  0  0  0  0  0  0  0
    4.8947   -1.9540    0.9638 C   0  0  0  0  0  0  0  0  0  0  0  0
    4.6193   -1.8557   -0.3461 C   0  0  0  0  0  0  0  0  0  0  0  0
    3.5656   -1.0454   -0.7518 N   0  0  0  0  0  0  0  0  0  0  0  0
    3.0993   -0.7939   -2.0165 C   0  0  0  0  0  0  0  0  0  0  0  0
    2.0369    0.0713   -1.8608 C   0  0  0  0  0  0  0  0  0  0  0  0
    1.1482    0.6692   -2.8954 C   0  0  0  0  0  0  0  0  0  0  0  0
   -0.2819    0.1770   -2.7559 C   0  0  0  0  0  0  0  0  0  0  0  0
   -0.8836   -0.3577   -3.6844 O   0  0  0  0  0  0  0  0  0  0  0  0
   -0.8463    0.4150   -1.5183 N   0  0  0  0  0  0  0  0  0  0  0  0
   -2.1223   -0.1691   -1.1349 C   0  0  0  0  0  0  0  0  0  0  0  0
   -3.3178    0.5421   -1.7891 C   0  0  0  0  0  0  0  0  0  0  0  0
   -3.3660    2.0502   -1.5528 C   0  0  0  0  0  0  0  0  0  0  0  0
   -3.0177    2.4491   -0.1281 C   0  0  0  0  0  0  0  0  0  0  0  0
   -3.6955    1.6120    0.8079 O   0  0  0  0  0  0  0  0  0  0  0  0
   -2.9523    0.5379    1.2227 C   0  0  0  0  0  0  0  0  0  0  0  0
   -3.0217    0.2841    2.5954 C   0  0  0  0  0  0  0  0  0  0  0  0
   -2.2930   -0.7609    3.1458 C   0  0  0  0  0  0  0  0  0  0  0  0
   -2.3503   -0.9847    4.4662 F   0  0  0  0  0  0  0  0  0  0  0  0
   -1.4964   -1.5678    2.3490 C   0  0  0  0  0  0  0  0  0  0  0  0
   -1.4501   -1.3376    0.9739 C   0  0  0  0  0  0  0  0  0  0  0  0
   -2.1968   -0.2960    0.3803 C   0  0  0  0  0  0  0  0  0  0  0  0
    1.8419    0.3599   -0.5247 N   0  0  0  0  0  0  0  0  0  0  0  0
    2.7665   -0.3188    0.1255 C   0  0  0  0  0  0  0  0  0  0  0  0
    2.6070    0.1519    3.5867 H   0  0  0  0  0  0  0  0  0  0  0  0
    2.3106    1.4154    2.3830 H   0  0  0  0  0  0  0  0  0  0  0  0
    1.2010    0.0365    2.5234 H   0  0  0  0  0  0  0  0  0  0  0  0
    4.3424   -1.3186    2.9646 H   0  0  0  0  0  0  0  0  0  0  0  0
    5.7061   -2.5713    1.3353 H   0  0  0  0  0  0  0  0  0  0  0  0
    5.1789   -2.3789   -1.1127 H   0  0  0  0  0  0  0  0  0  0  0  0
    3.5453   -1.2436   -2.8924 H   0  0  0  0  0  0  0  0  0  0  0  0
    1.1508    1.7622   -2.8113 H   0  0  0  0  0  0  0  0  0  0  0  0
    1.5053    0.4128   -3.8981 H   0  0  0  0  0  0  0  0  0  0  0  0
   -0.1632    0.5661   -0.7731 H   0  0  0  0  0  0  0  0  0  0  0  0
   -2.1362   -1.1942   -1.5331 H   0  0  0  0  0  0  0  0  0  0  0  0
   -3.3077    0.3717   -2.8728 H   0  0  0  0  0  0  0  0  0  0  0  0
   -4.2509    0.0890   -1.4280 H   0  0  0  0  0  0  0  0  0  0  0  0
   -4.3839    2.3929   -1.7886 H   0  0  0  0  0  0  0  0  0  0  0  0
   -2.6967    2.5689   -2.2486 H   0  0  0  0  0  0  0  0  0  0  0  0
   -1.9328    2.4635    0.0460 H   0  0  0  0  0  0  0  0  0  0  0  0
   -3.3609    3.4766    0.0455 H   0  0  0  0  0  0  0  0  0  0  0  0
   -3.6302    0.9087    3.2403 H   0  0  0  0  0  0  0  0  0  0  0  0
   -0.9205   -2.3706    2.7953 H   0  0  0  0  0  0  0  0  0  0  0  0
   -0.8282   -1.9807    0.3528 H   0  0  0  0  0  0  0  0  0  0  0  0
  1  2  1  0
  2  3  2  0
  3  4  1  0
  4  5  2  0
  5  6  1  0
  6  7  1  0
  7  8  2  0
  8  9  1  0
  9 10  1  0
 10 11  2  0
 10 12  1  0
 12 13  1  0
 13 14  1  0
 14 15  1  0
 15 16  1  0
 16 17  1  0
 17 18  1  0
 18 19  1  0
 19 20  2  0
 20 21  1  0
 20 22  1  0
 22 23  2  0
 23 24  1  0
  8 25  1  0
 25 26  2  0
 26  2  1  0
 26  6  1  0
 24 13  1  0
 24 18  2  0
  1 27  1  0
  1 28  1  0
  1 29  1  0
  3 30  1  0
  4 31  1  0
  5 32  1  0
  7 33  1  0
  9 34  1  0
  9 35  1  0
 12 36  1  0
 13 37  1  0
 14 38  1  0
 14 39  1  0
 15 40  1  0
 15 41  1  0
 16 42  1  0
 16 43  1  0
 19 44  1  0
 22 45  1  0
 23 46  1  0
M  END
$$$$
OCNT-2318184
     RDKit          3D

 58 60  0  0  0  0  0  0  0  0999 V2000
   -4.0016    1.8199    3.5104 C   0  0  0  0  0  0  0  0  0  0  0  0
   -3.7840    0.7340    2.4989 C   0  0  0  0  0  0  0  0  0  0  0  0
   -3.7364    1.0309    1.1366 C   0  0  0  0  0  0  0  0  0  0  0  0
   -3.5610    0.0265    0.1647 C   0  0  0  0  0  0  0  0  0  0  0  0
   -3.5204    0.4784   -1.2704 C   0  0  0  0  0  0  0  0  0  0  0  0
   -3.4352   -1.3197    0.5876 C   0  0  0  0  0  0  0  0  0  0  0  0
   -3.2078   -2.6511   -0.6050 S   0  0  0  0  0  0  0  0  0  0  0  0
   -4.0149   -3.7762   -0.1774 O   0  0  0  0  0  0  0  0  0  0  0  0
   -3.3310   -2.1691   -1.9631 O   0  0  0  0  0  0  0  0  0  0  0  0
   -1.5963   -3.1163   -0.3454 N   0  0  0  0  0  0  0  0  0  0  0  0
   -0.5705   -2.3812   -1.0064 C   0  0  0  0  0  0  0  0  0  0  0  0
   -0.1476   -1.1718   -0.4510 C   0  0  0  0  0  0  0  0  0  0  0  0
    0.8239   -0.4011   -1.0978 C   0  0  0  0  0  0  0  0  0  0  0  0
    1.2289    0.8887   -0.4771 C   0  0  0  0  0  0  0  0  0  0  0  0
    0.4446    1.5014    0.2372 O   0  0  0  0  0  0  0  0  0  0  0  0
    2.5161    1.3106   -0.7300 N   0  0  0  0  0  0  0  0  0  0  0  0
    3.0532    2.5183   -0.1202 C   0  0  0  0  0  0  0  0  0  0  0  0
    2.4936    3.7767   -0.7923 C   0  0  0  0  0  0  0  0  0  0  0  0
    4.5643    2.4766   -0.1572 C   0  0  0  0  0  0  0  0  0  0  0  0
    5.2984    2.6288   -1.3396 C   0  0  0  0  0  0  0  0  0  0  0  0
    6.6879    2.5562   -1.3096 C   0  0  0  0  0  0  0  0  0  0  0  0
    7.3059    2.3222   -0.0937 C   0  0  0  0  0  0  0  0  0  0  0  0
    6.6369    2.1571    1.0656 N   0  0  0  0  0  0  0  0  0  0  0  0
    5.2879    2.2365    1.0084 C   0  0  0  0  0  0  0  0  0  0  0  0
    1.3589   -0.8378   -2.3139 C   0  0  0  0  0  0  0  0  0  0  0  0
    0.9340   -2.0476   -2.8687 C   0  0  0  0  0  0  0  0  0  0  0  0
   -0.0365   -2.8313   -2.2253 C   0  0  0  0  0  0  0  0  0  0  0  0
   -0.4826   -4.1188   -2.8607 C   0  0  0  0  0  0  0  0  0  0  0  0
   -3.4915   -1.6348    1.9712 C   0  0  0  0  0  0  0  0  0  0  0  0
   -3.3950   -3.0332    2.5245 C   0  0  0  0  0  0  0  0  0  0  0  0
   -3.6797   -0.5967    2.9025 C   0  0  0  0  0  0  0  0  0  0  0  0
   -3.6464    2.7850    3.1346 H   0  0  0  0  0  0  0  0  0  0  0  0
   -3.4494    1.6080    4.4320 H   0  0  0  0  0  0  0  0  0  0  0  0
   -5.0673    1.9048    3.7450 H   0  0  0  0  0  0  0  0  0  0  0  0
   -3.8319    2.0705    0.8237 H   0  0  0  0  0  0  0  0  0  0  0  0
   -4.3800    0.0843   -1.8204 H   0  0  0  0  0  0  0  0  0  0  0  0
   -2.5819    0.1844   -1.7477 H   0  0  0  0  0  0  0  0  0  0  0  0
   -3.5725    1.5702   -1.3497 H   0  0  0  0  0  0  0  0  0  0  0  0
   -1.5213   -4.1320   -0.3292 H   0  0  0  0  0  0  0  0  0  0  0  0
   -0.5624   -0.8252    0.4932 H   0  0  0  0  0  0  0  0  0  0  0  0
    3.1706    0.6691   -1.1567 H   0  0  0  0  0  0  0  0  0  0  0  0
    2.7208    2.5332    0.9260 H   0  0  0  0  0  0  0  0  0  0  0  0
    1.4087    3.8433   -0.6600 H   0  0  0  0  0  0  0  0  0  0  0  0
    2.6835    3.7818   -1.8715 H   0  0  0  0  0  0  0  0  0  0  0  0
    2.9383    4.6822   -0.3645 H   0  0  0  0  0  0  0  0  0  0  0  0
    4.7967    2.8028   -2.2875 H   0  0  0  0  0  0  0  0  0  0  0  0
    7.2741    2.6762   -2.2136 H   0  0  0  0  0  0  0  0  0  0  0  0
    8.3871    2.2572   -0.0188 H   0  0  0  0  0  0  0  0  0  0  0  0
    4.7894    2.0914    1.9644 H   0  0  0  0  0  0  0  0  0  0  0  0
    2.0809   -0.2372   -2.8601 H   0  0  0  0  0  0  0  0  0  0  0  0
    1.3530   -2.3673   -3.8216 H   0  0  0  0  0  0  0  0  0  0  0  0
   -1.5619   -4.1072   -3.0406 H   0  0  0  0  0  0  0  0  0  0  0  0
    0.0063   -4.2808   -3.8268 H   0  0  0  0  0  0  0  0  0  0  0  0
   -0.2305   -4.9659   -2.2145 H   0  0  0  0  0  0  0  0  0  0  0  0
   -2.5448   -3.5748    2.1045 H   0  0  0  0  0  0  0  0  0  0  0  0
   -3.2355   -3.0199    3.6090 H   0  0  0  0  0  0  0  0  0  0  0  0
   -4.3241   -3.5807    2.3417 H   0  0  0  0  0  0  0  0  0  0  0  0
   -3.7423   -0.8293    3.9650 H   0  0  0  0  0  0  0  0  0  0  0  0
  1  2  1  0
  2  3  2  0
  3  4  1  0
  4  5  1  0
  4  6  2  0
  6  7  1  0
  7  8  2  0
  7  9  2  0
  7 10  1  0
 10 11  1  0
 11 12  1  0
 12 13  2  0
 13 14  1  0
 14 15  2  0
 14 16  1  0
 16 17  1  0
 17 18  1  0
 17 19  1  0
 19 20  1  0
 20 21  2  0
 21 22  1  0
 22 23  2  0
 23 24  1  0
 13 25  1  0
 25 26  2  0
 26 27  1  0
 27 28  1  0
  6 29  1  0
 29 30  1  0
 29 31  2  0
 31  2  1  0
 27 11  2  0
 24 19  2  0
  1 32  1  0
  1 33  1  0
  1 34  1  0
  3 35  1  0
  5 36  1  0
  5 37  1  0
  5 38  1  0
 10 39  1  0
 12 40  1  0
 16 41  1  0
 17 42  1  0
 18 43  1  0
 18 44  1  0
 18 45  1  0
 20 46  1  0
 21 47  1  0
 22 48  1  0
 24 49  1  0
 25 50  1  0
 26 51  1  0
 28 52  1  0
 28 53  1  0
 28 54  1  0
 30 55  1  0
 30 56  1  0
 30 57  1  0
 31 58  1  0
M  END
$$$$
OCNT-2318193
     RDKit          3D

 45 48  0  0  0  0  0  0  0  0999 V2000
   -2.8321    3.6144   -0.1267 C   0  0  0  0  0  0  0  0  0  0  0  0
   -2.3263    2.2714    0.1514 N   0  0  0  0  0  0  0  0  0  0  0  0
   -0.8770    2.3050    0.4207 C   0  0  0  0  0  0  0  0  0  0  0  0
   -0.2848    0.9002    0.6387 C   0  0  0  0  0  0  0  0  0  0  0  0
   -0.5616   -0.0307   -0.4964 N   0  0  0  0  0  0  0  0  0  0  0  0
    0.4471    0.0843   -1.8515 S   0  0  0  0  0  0  0  0  0  0  0  0
    0.4646    1.4537   -2.3155 O   0  0  0  0  0  0  0  0  0  0  0  0
    0.1160   -1.0054   -2.7471 O   0  0  0  0  0  0  0  0  0  0  0  0
    2.1230   -0.2693   -1.3219 C   0  0  0  0  0  0  0  0  0  0  0  0
    2.8859   -1.4261   -1.4453 C   0  0  0  0  0  0  0  0  0  0  0  0
    4.1466   -1.1835   -0.8483 C   0  0  0  0  0  0  0  0  0  0  0  0
    5.3263   -1.9214   -0.6499 C   0  0  0  0  0  0  0  0  0  0  0  0
    6.4001   -1.3061    0.0099 C   0  0  0  0  0  0  0  0  0  0  0  0
    6.3070    0.0126    0.4631 C   0  0  0  0  0  0  0  0  0  0  0  0
    5.1405    0.7611    0.2742 C   0  0  0  0  0  0  0  0  0  0  0  0
    4.0927    0.1216   -0.3836 C   0  0  0  0  0  0  0  0  0  0  0  0
    2.8839    0.6746   -0.6599 O   0  0  0  0  0  0  0  0  0  0  0  0
   -2.0298   -0.0832   -0.8210 C   0  0  0  0  0  0  0  0  0  0  0  0
   -2.7539   -1.0198    0.1450 C   0  0  0  0  0  0  0  0  0  0  0  0
   -2.4731   -2.3976    0.0709 C   0  0  0  0  0  0  0  0  0  0  0  0
   -3.0981   -3.3080    0.9248 C   0  0  0  0  0  0  0  0  0  0  0  0
   -4.0124   -2.8566    1.8718 C   0  0  0  0  0  0  0  0  0  0  0  0
   -4.2977   -1.4967    1.9657 C   0  0  0  0  0  0  0  0  0  0  0  0
   -3.6725   -0.5845    1.1106 C   0  0  0  0  0  0  0  0  0  0  0  0
   -2.6104    1.3598   -0.9814 C   0  0  0  0  0  0  0  0  0  0  0  0
   -2.6542    4.2755    0.7287 H   0  0  0  0  0  0  0  0  0  0  0  0
   -2.3637    4.0612   -1.0110 H   0  0  0  0  0  0  0  0  0  0  0  0
   -3.9158    3.5900   -0.2858 H   0  0  0  0  0  0  0  0  0  0  0  0
   -0.3457    2.8139   -0.3913 H   0  0  0  0  0  0  0  0  0  0  0  0
   -0.6964    2.8905    1.3306 H   0  0  0  0  0  0  0  0  0  0  0  0
   -0.7039    0.4591    1.5518 H   0  0  0  0  0  0  0  0  0  0  0  0
    0.7909    0.9738    0.8203 H   0  0  0  0  0  0  0  0  0  0  0  0
    2.5471   -2.3359   -1.9223 H   0  0  0  0  0  0  0  0  0  0  0  0
    5.4102   -2.9462   -0.9994 H   0  0  0  0  0  0  0  0  0  0  0  0
    7.3202   -1.8651    0.1695 H   0  0  0  0  0  0  0  0  0  0  0  0
    7.1559    0.4666    0.9703 H   0  0  0  0  0  0  0  0  0  0  0  0
    5.0521    1.7848    0.6168 H   0  0  0  0  0  0  0  0  0  0  0  0
   -2.1642   -0.5555   -1.8042 H   0  0  0  0  0  0  0  0  0  0  0  0
   -1.7548   -2.7657   -0.6605 H   0  0  0  0  0  0  0  0  0  0  0  0
   -2.8680   -4.3674    0.8506 H   0  0  0  0  0  0  0  0  0  0  0  0
   -4.4994   -3.5626    2.5389 H   0  0  0  0  0  0  0  0  0  0  0  0
   -5.0066   -1.1412    2.7092 H   0  0  0  0  0  0  0  0  0  0  0  0
   -3.9134    0.4695    1.2234 H   0  0  0  0  0  0  0  0  0  0  0  0
   -2.1984    1.7935   -1.9027 H   0  0  0  0  0  0  0  0  0  0  0  0
   -3.6959    1.2914   -1.1287 H   0  0  0  0  0  0  0  0  0  0  0  0
  1  2  1  0
  2  3  1  0
  3  4  1  0
  4  5  1  0
  5  6  1  0
  6  7  2  0
  6  8  2  0
  6  9  1  0
  9 10  2  0
 10 11  1  0
 11 12  2  0
 12 13  1  0
 13 14  2  0
 14 15  1  0
 15 16  2  0
 16 17  1  0
  5 18  1  0
 18 19  1  0
 19 20  2  0
 20 21  1  0
 21 22  2  0
 22 23  1  0
 23 24  2  0
 18 25  1  0
 25  2  1  0
 17  9  1  0
 24 19  1  0
 16 11  1  0
  1 26  1  0
  1 27  1  0
  1 28  1  0
  3 29  1  0
  3 30  1  0
  4 31  1  0
  4 32  1  0
 10 33  1  0
 12 34  1  0
 13 35  1  0
 14 36  1  0
 15 37  1  0
 18 38  1  0
 20 39  1  0
 21 40  1  0
 22 41  1  0
 23 42  1  0
 24 43  1  0
 25 44  1  0
 25 45  1  0
M  END
$$$$
OCNT-2318205
     RDKit          3D

 45 47  0  0  0  0  0  0  0  0999 V2000
   -4.2157    2.0775   -4.0582 C   0  0  0  0  0  0  0  0  0  0  0  0
   -3.1367    1.4793   -3.1879 C   0  0  0  0  0  0  0  0  0  0  0  0
   -1.9586    1.5787   -3.5047 O   0  0  0  0  0  0  0  0  0  0  0  0
   -3.6626    0.8488   -2.0742 N   0  0  0  0  0  0  0  0  0  0  0  0
   -2.9728    0.1498   -1.0525 C   0  0  0  0  0  0  0  0  0  0  0  0
   -1.5944   -0.1205   -1.1146 C   0  0  0  0  0  0  0  0  0  0  0  0
   -0.9429   -0.8090   -0.0839 C   0  0  0  0  0  0  0  0  0  0  0  0
    0.4343   -1.1087   -0.0697 N   0  0  0  0  0  0  0  0  0  0  0  0
    1.3599   -0.9322   -1.0715 C   0  0  0  0  0  0  0  0  0  0  0  0
    1.1257   -0.5569   -2.2149 O   0  0  0  0  0  0  0  0  0  0  0  0
    2.6420   -1.2303   -0.6866 N   0  0  0  0  0  0  0  0  0  0  0  0
    3.8676   -0.9973   -1.4268 C   0  0  0  0  0  0  0  0  0  0  0  0
    4.6164   -1.5110   -0.1960 C   0  0  0  0  0  0  0  0  0  0  0  0
    3.2947   -1.4453    0.5980 C   0  0  0  0  0  0  0  0  0  0  0  0
    3.1560   -0.3249    1.7201 C   0  0  0  0  0  0  0  0  0  0  0  0
    2.8369    1.0213    1.4304 C   0  0  0  0  0  0  0  0  0  0  0  0
    2.7164    1.9885    2.4327 C   0  0  0  0  0  0  0  0  0  0  0  0
    2.9197    1.6292    3.7556 C   0  0  0  0  0  0  0  0  0  0  0  0
    2.8065    2.5521    4.7192 F   0  0  0  0  0  0  0  0  0  0  0  0
    3.2400    0.3226    4.0919 C   0  0  0  0  0  0  0  0  0  0  0  0
    3.3562   -0.6387    3.0832 C   0  0  0  0  0  0  0  0  0  0  0  0
   -1.6809   -1.2223    1.0275 C   0  0  0  0  0  0  0  0  0  0  0  0
   -3.0505   -0.9755    1.1002 C   0  0  0  0  0  0  0  0  0  0  0  0
   -3.7118   -0.2943    0.0673 C   0  0  0  0  0  0  0  0  0  0  0  0
   -5.1919   -0.0567    0.2096 C   0  0  0  0  0  0  0  0  0  0  0  0
   -3.7765    2.8347   -4.7146 H   0  0  0  0  0  0  0  0  0  0  0  0
   -4.9823    2.5634   -3.4475 H   0  0  0  0  0  0  0  0  0  0  0  0
   -4.6702    1.2910   -4.6664 H   0  0  0  0  0  0  0  0  0  0  0  0
   -4.6624    0.9307   -1.9590 H   0  0  0  0  0  0  0  0  0  0  0  0
   -1.0208    0.2087   -1.9731 H   0  0  0  0  0  0  0  0  0  0  0  0
    0.7856   -1.5584    0.7604 H   0  0  0  0  0  0  0  0  0  0  0  0
    4.0285    0.0576   -1.6670 H   0  0  0  0  0  0  0  0  0  0  0  0
    3.9660   -1.6152   -2.3230 H   0  0  0  0  0  0  0  0  0  0  0  0
    5.0169   -2.5262   -0.3064 H   0  0  0  0  0  0  0  0  0  0  0  0
    5.4200   -0.8559    0.1550 H   0  0  0  0  0  0  0  0  0  0  0  0
    3.0177   -2.4332    0.9946 H   0  0  0  0  0  0  0  0  0  0  0  0
    2.6716    1.3258    0.3964 H   0  0  0  0  0  0  0  0  0  0  0  0
    2.4640    3.0144    2.1827 H   0  0  0  0  0  0  0  0  0  0  0  0
    3.3993    0.0594    5.1331 H   0  0  0  0  0  0  0  0  0  0  0  0
    3.6120   -1.6602    3.3639 H   0  0  0  0  0  0  0  0  0  0  0  0
   -1.2036   -1.7504    1.8491 H   0  0  0  0  0  0  0  0  0  0  0  0
   -3.5983   -1.3189    1.9749 H   0  0  0  0  0  0  0  0  0  0  0  0
   -5.5746   -0.4443    1.1604 H   0  0  0  0  0  0  0  0  0  0  0  0
   -5.7364   -0.5630   -0.5936 H   0  0  0  0  0  0  0  0  0  0  0  0
   -5.4101    1.0158    0.1860 H   0  0  0  0  0  0  0  0  0  0  0  0
  1  2  1  0
  2  3  2  0
  2  4  1  0
  4  5  1  0
  5  6  1  0
  6  7  2  0
  7  8  1  0
  8  9  1  0
  9 10  2  0
  9 11  1  0
 11 12  1  0
 12 13  1  0
 13 14  1  0
 14 15  1  0
 15 16  1  0
 16 17  2  0
 17 18  1  0
 18 19  1  0
 18 20  2  0
 20 21  1  0
  7 22  1  0
 22 23  2  0
 23 24  1  0
 24 25  1  0
 24  5  2  0
 14 11  1  0
 21 15  2  0
  1 26  1  0
  1 27  1  0
  1 28  1  0
  4 29  1  0
  6 30  1  0
  8 31  1  0
 12 32  1  0
 12 33  1  0
 13 34  1  0
 13 35  1  0
 14 36  1  0
 16 37  1  0
 17 38  1  0
 20 39  1  0
 21 40  1  0
 22 41  1  0
 23 42  1  0
 25 43  1  0
 25 44  1  0
 25 45  1  0
M  END
$$$$
OCNT-2318213
     RDKit          3D

 53 56  0  0  0  0  0  0  0  0999 V2000
    3.1927    3.0990   -1.8494 C   0  0  0  0  0  0  0  0  0  0  0  0
    3.9142    2.3330   -0.8054 C   0  0  0  0  0  0  0  0  0  0  0  0
    5.0172    2.7573   -0.0889 C   0  0  0  0  0  0  0  0  0  0  0  0
    5.3240    1.7132    0.7913 C   0  0  0  0  0  0  0  0  0  0  0  0
    6.4209    1.6400    1.7851 C   0  0  0  0  0  0  0  0  0  0  0  0
    4.4721    0.6992    0.6592 N   0  0  0  0  0  0  0  0  0  0  0  0
    3.6140    1.0527   -0.3422 N   0  0  0  0  0  0  0  0  0  0  0  0
    2.6086    0.1041   -0.7294 C   0  0  0  0  0  0  0  0  0  0  0  0
    1.7409    0.2982   -1.8038 C   0  0  0  0  0  0  0  0  0  0  0  0
    0.7891   -0.6747   -2.1341 C   0  0  0  0  0  0  0  0  0  0  0  0
    0.6813   -1.8710   -1.4080 C   0  0  0  0  0  0  0  0  0  0  0  0
   -0.3870   -2.8670   -1.8027 C   0  0  0  0  0  0  0  0  0  0  0  0
   -1.5412   -2.7314   -0.9515 N   0  0  0  0  0  0  0  0  0  0  0  0
   -2.5628   -1.8758   -1.2644 C   0  0  0  0  0  0  0  0  0  0  0  0
   -2.6993   -1.3100   -2.3390 O   0  0  0  0  0  0  0  0  0  0  0  0
   -3.5522   -1.6863   -0.1728 C   0  0  0  0  0  0  0  0  0  0  0  0
   -3.1103   -1.3675    1.2370 C   0  0  0  0  0  0  0  0  0  0  0  0
   -3.8170   -0.3028    0.4228 C   0  0  0  0  0  0  0  0  0  0  0  0
   -5.2384    0.0570    0.8209 C   0  0  0  0  0  0  0  0  0  0  0  0
   -5.6807    1.3230    0.0898 C   0  0  0  0  0  0  0  0  0  0  0  0
   -4.8706    2.4577    0.4124 O   0  0  0  0  0  0  0  0  0  0  0  0
   -3.4899    2.1573    0.6535 C   0  0  0  0  0  0  0  0  0  0  0  0
   -3.0123    0.8958   -0.0608 C   0  0  0  0  0  0  0  0  0  0  0  0
    1.5346   -2.0768   -0.3045 C   0  0  0  0  0  0  0  0  0  0  0  0
    1.4438   -3.3234    0.5473 C   0  0  0  0  0  0  0  0  0  0  0  0
    2.2566   -3.3151    1.6390 F   0  0  0  0  0  0  0  0  0  0  0  0
    1.7609   -4.4520   -0.1446 F   0  0  0  0  0  0  0  0  0  0  0  0
    0.1854   -3.5294    1.0348 F   0  0  0  0  0  0  0  0  0  0  0  0
    2.4929   -1.0915    0.0095 C   0  0  0  0  0  0  0  0  0  0  0  0
    2.1301    3.1984   -1.6099 H   0  0  0  0  0  0  0  0  0  0  0  0
    3.3194    2.6359   -2.8323 H   0  0  0  0  0  0  0  0  0  0  0  0
    3.5941    4.1157   -1.9251 H   0  0  0  0  0  0  0  0  0  0  0  0
    5.5275    3.7048   -0.1928 H   0  0  0  0  0  0  0  0  0  0  0  0
    7.0755    2.5142    1.7150 H   0  0  0  0  0  0  0  0  0  0  0  0
    6.0166    1.5976    2.8020 H   0  0  0  0  0  0  0  0  0  0  0  0
    7.0320    0.7466    1.6174 H   0  0  0  0  0  0  0  0  0  0  0  0
    1.7609    1.1771   -2.4315 H   0  0  0  0  0  0  0  0  0  0  0  0
    0.1148   -0.4865   -2.9715 H   0  0  0  0  0  0  0  0  0  0  0  0
   -0.6754   -2.7257   -2.8506 H   0  0  0  0  0  0  0  0  0  0  0  0
   -0.0182   -3.8929   -1.7146 H   0  0  0  0  0  0  0  0  0  0  0  0
   -1.4836   -3.0921   -0.0073 H   0  0  0  0  0  0  0  0  0  0  0  0
   -4.4133   -2.3409   -0.2828 H   0  0  0  0  0  0  0  0  0  0  0  0
   -2.0528   -1.2339    1.4459 H   0  0  0  0  0  0  0  0  0  0  0  0
   -3.6482   -1.8435    2.0510 H   0  0  0  0  0  0  0  0  0  0  0  0
   -5.9314   -0.7607    0.5973 H   0  0  0  0  0  0  0  0  0  0  0  0
   -5.2664    0.2338    1.9026 H   0  0  0  0  0  0  0  0  0  0  0  0
   -6.7130    1.5705    0.3558 H   0  0  0  0  0  0  0  0  0  0  0  0
   -5.6481    1.1805   -0.9960 H   0  0  0  0  0  0  0  0  0  0  0  0
   -3.3538    2.0589    1.7376 H   0  0  0  0  0  0  0  0  0  0  0  0
   -2.9045    3.0239    0.3255 H   0  0  0  0  0  0  0  0  0  0  0  0
   -1.9398    0.7543    0.1133 H   0  0  0  0  0  0  0  0  0  0  0  0
   -3.1653    1.0194   -1.1400 H   0  0  0  0  0  0  0  0  0  0  0  0
    3.1552   -1.2682    0.8604 H   0  0  0  0  0  0  0  0  0  0  0  0
  1  2  1  0
  2  3  2  0
  3  4  1  0
  4  5  1  0
  4  6  2  0
  6  7  1  0
  7  8  1  0
  8  9  1  0
  9 10  2  0
 10 11  1  0
 11 12  1  0
 12 13  1  0
 13 14  1  0
 14 15  2  0
 14 16  1  0
 16 17  1  0
 17 18  1  0
 18 19  1  0
 19 20  1  0
 20 21  1  0
 21 22  1  0
 22 23  1  0
 11 24  2  0
 24 25  1  0
 25 26  1  0
 25 27  1  0
 25 28  1  0
 24 29  1  0
  7  2  1  0
 29  8  2  0
 18 16  1  0
 23 18  1  0
  1 30  1  0
  1 31  1  0
  1 32  1  0
  3 33  1  0
  5 34  1  0
  5 35  1  0
  5 36  1  0
  9 37  1  0
 10 38  1  0
 12 39  1  0
 12 40  1  0
 13 41  1  0
 16 42  1  0
 17 43  1  0
 17 44  1  0
 19 45  1  0
 19 46  1  0
 20 47  1  0
 20 48  1  0
 22 49  1  0
 22 50  1  0
 23 51  1  0
 23 52  1  0
 29 53  1  0
M  END
$$$$
OCNT-2318216
     RDKit          3D

 39 42  0  0  0  0  0  0  0  0999 V2000
   -0.5187    1.8993   -1.1760 O   0  0  0  0  0  0  0  0  0  0  0  0
   -0.1518    1.0142   -0.4043 C   0  0  0  0  0  0  0  0  0  0  0  0
   -1.0809    0.3379    0.3621 N   0  0  0  0  0  0  0  0  0  0  0  0
   -2.5159    0.5756    0.2362 C   0  0  0  0  0  0  0  0  0  0  0  0
   -3.2509    0.0547    1.4981 C   0  0  0  0  0  0  0  0  0  0  0  0
   -4.7638    0.3518    1.4654 C   0  0  0  0  0  0  0  0  0  0  0  0
   -5.3288    0.0301    0.1332 C   0  0  0  0  0  0  0  0  0  0  0  0
   -4.5557   -0.1310   -0.9928 C   0  0  0  0  0  0  0  0  0  0  0  0
   -3.0767   -0.0574   -1.0704 C   0  0  0  0  0  0  0  0  0  0  0  0
   -5.4109   -0.3882   -2.0200 N   0  0  0  0  0  0  0  0  0  0  0  0
   -6.6991   -0.4174   -1.6280 N   0  0  0  0  0  0  0  0  0  0  0  0
   -6.6466   -0.1550   -0.3174 C   0  0  0  0  0  0  0  0  0  0  0  0
    1.2404    0.6053   -0.2414 C   0  0  0  0  0  0  0  0  0  0  0  0
    1.8394   -0.3720    0.5336 C   0  0  0  0  0  0  0  0  0  0  0  0
    1.0290   -1.4614    1.5970 Cl  0  0  0  0  0  0  0  0  0  0  0  0
    3.2752   -0.4277    0.3835 C   0  0  0  0  0  0  0  0  0  0  0  0
    4.2506   -1.2645    0.9874 C   0  0  0  0  0  0  0  0  0  0  0  0
    5.6083   -1.1264    0.6763 C   0  0  0  0  0  0  0  0  0  0  0  0
    6.0362   -0.1667   -0.2412 C   0  0  0  0  0  0  0  0  0  0  0  0
    7.5045   -0.0054   -0.5573 C   0  0  0  0  0  0  0  0  0  0  0  0
    8.1104    0.9019    0.2561 F   0  0  0  0  0  0  0  0  0  0  0  0
    7.7324    0.4197   -1.8309 F   0  0  0  0  0  0  0  0  0  0  0  0
    8.2102   -1.1625   -0.4203 F   0  0  0  0  0  0  0  0  0  0  0  0
    5.0887    0.6772   -0.8427 C   0  0  0  0  0  0  0  0  0  0  0  0
    3.7226    0.5313   -0.5239 C   0  0  0  0  0  0  0  0  0  0  0  0
    2.4225    1.4530   -1.1544 S   0  0  0  0  0  0  0  0  0  0  0  0
   -0.7752   -0.4653    0.8967 H   0  0  0  0  0  0  0  0  0  0  0  0
   -2.6644    1.6631    0.1830 H   0  0  0  0  0  0  0  0  0  0  0  0
   -2.8148    0.4990    2.4013 H   0  0  0  0  0  0  0  0  0  0  0  0
   -3.0956   -1.0300    1.5809 H   0  0  0  0  0  0  0  0  0  0  0  0
   -5.2694   -0.2225    2.2494 H   0  0  0  0  0  0  0  0  0  0  0  0
   -4.9294    1.4152    1.6756 H   0  0  0  0  0  0  0  0  0  0  0  0
   -2.6742   -1.0704   -1.1962 H   0  0  0  0  0  0  0  0  0  0  0  0
   -2.7610    0.5278   -1.9413 H   0  0  0  0  0  0  0  0  0  0  0  0
   -5.1991   -0.5556   -2.9985 H   0  0  0  0  0  0  0  0  0  0  0  0
   -7.5701   -0.1097    0.2455 H   0  0  0  0  0  0  0  0  0  0  0  0
    3.9485   -2.0254    1.7049 H   0  0  0  0  0  0  0  0  0  0  0  0
    6.3309   -1.7827    1.1612 H   0  0  0  0  0  0  0  0  0  0  0  0
    5.4029    1.4400   -1.5540 H   0  0  0  0  0  0  0  0  0  0  0  0
  1  2  2  0
  2  3  1  0
  3  4  1  0
  4  5  1  0
  5  6  1  0
  6  7  1  0
  7  8  2  0
  8  9  1  0
  8 10  1  0
 10 11  1  0
 11 12  2  0
  2 13  1  0
 13 14  2  0
 14 15  1  0
 14 16  1  0
 16 17  2  0
 17 18  1  0
 18 19  2  0
 19 20  1  0
 20 21  1  0
 20 22  1  0
 20 23  1  0
 19 24  1  0
 24 25  2  0
 25 26  1  0
  9  4  1  0
 26 13  1  0
 12  7  1  0
 25 16  1  0
  3 27  1  0
  4 28  1  0
  5 29  1  0
  5 30  1  0
  6 31  1  0
  6 32  1  0
  9 33  1  0
  9 34  1  0
 10 35  1  0
 12 36  1  0
 17 37  1  0
 18 38  1  0
 24 39  1  0
M  END
$$$$
OCNT-2318220
     RDKit          3D

 62 65  0  0  0  0  0  0  0  0999 V2000
    5.4060   -1.0240   -3.4406 C   0  0  0  0  0  0  0  0  0  0  0  0
    5.0209   -0.8731   -2.0600 N   0  0  0  0  0  0  0  0  0  0  0  0
    4.2891    0.2188   -1.6409 C   0  0  0  0  0  0  0  0  0  0  0  0
    3.8693    1.0840   -2.3961 O   0  0  0  0  0  0  0  0  0  0  0  0
    4.0214    0.2156   -0.1431 C   0  0  0  0  0  0  0  0  0  0  0  0
    3.1376    1.3907    0.3239 C   0  0  0  0  0  0  0  0  0  0  0  0
    1.6989    1.2626   -0.2211 C   0  0  0  0  0  0  0  0  0  0  0  0
    0.6617    1.8193    0.7471 C   0  0  0  0  0  0  0  0  0  0  0  0
    0.7123    1.0751    2.0307 N   0  0  0  0  0  0  0  0  0  0  0  0
   -0.6017    0.0747    2.4323 S   0  0  0  0  0  0  0  0  0  0  0  0
   -1.8111    0.8510    2.2483 O   0  0  0  0  0  0  0  0  0  0  0  0
   -0.3185   -0.5592    3.7049 O   0  0  0  0  0  0  0  0  0  0  0  0
   -0.5547   -1.1979    1.1794 C   0  0  0  0  0  0  0  0  0  0  0  0
    0.3678   -2.2478    1.3722 C   0  0  0  0  0  0  0  0  0  0  0  0
    0.5431   -3.2412    0.4002 C   0  0  0  0  0  0  0  0  0  0  0  0
    1.5667   -4.3312    0.6001 C   0  0  0  0  0  0  0  0  0  0  0  0
    2.7431   -3.8447    1.0894 F   0  0  0  0  0  0  0  0  0  0  0  0
    1.8913   -4.9911   -0.5465 F   0  0  0  0  0  0  0  0  0  0  0  0
    1.1564   -5.2830    1.4816 F   0  0  0  0  0  0  0  0  0  0  0  0
   -0.2687   -3.2033   -0.7373 C   0  0  0  0  0  0  0  0  0  0  0  0
   -1.2191   -2.1869   -0.9019 C   0  0  0  0  0  0  0  0  0  0  0  0
   -1.3872   -1.1616    0.0457 C   0  0  0  0  0  0  0  0  0  0  0  0
   -2.3739   -0.1788   -0.1599 N   0  0  0  0  0  0  0  0  0  0  0  0
   -3.2215    0.0160   -1.3022 C   0  0  0  0  0  0  0  0  0  0  0  0
   -4.4472   -0.9285   -1.3052 C   0  0  0  0  0  0  0  0  0  0  0  0
   -5.2278    0.1677   -0.5550 C   0  0  0  0  0  0  0  0  0  0  0  0
   -4.2328    1.1978   -1.1489 C   0  0  0  0  0  0  0  0  0  0  0  0
   -3.8587    2.4613   -0.4047 C   0  0  0  0  0  0  0  0  0  0  0  0
   -4.8880    3.4911   -0.0138 C   0  0  0  0  0  0  0  0  0  0  0  0
   -4.1361    2.7363    1.0471 C   0  0  0  0  0  0  0  0  0  0  0  0
    2.0570    0.6743    2.5108 C   0  0  0  0  0  0  0  0  0  0  0  0
    3.1445    1.5193    1.8587 C   0  0  0  0  0  0  0  0  0  0  0  0
    6.2906   -0.4084   -3.6217 H   0  0  0  0  0  0  0  0  0  0  0  0
    4.5949   -0.7044   -4.1003 H   0  0  0  0  0  0  0  0  0  0  0  0
    5.6400   -2.0764   -3.6234 H   0  0  0  0  0  0  0  0  0  0  0  0
    5.4854   -1.4460   -1.3656 H   0  0  0  0  0  0  0  0  0  0  0  0
    3.5582   -0.7420    0.1254 H   0  0  0  0  0  0  0  0  0  0  0  0
    4.9962    0.2689    0.3546 H   0  0  0  0  0  0  0  0  0  0  0  0
    3.5695    2.3174   -0.0742 H   0  0  0  0  0  0  0  0  0  0  0  0
    1.6199    1.7915   -1.1756 H   0  0  0  0  0  0  0  0  0  0  0  0
    1.4677    0.2124   -0.4353 H   0  0  0  0  0  0  0  0  0  0  0  0
    0.8463    2.8792    0.9517 H   0  0  0  0  0  0  0  0  0  0  0  0
   -0.3333    1.7766    0.2943 H   0  0  0  0  0  0  0  0  0  0  0  0
    0.9526   -2.2946    2.2901 H   0  0  0  0  0  0  0  0  0  0  0  0
   -0.1783   -3.9704   -1.5067 H   0  0  0  0  0  0  0  0  0  0  0  0
   -1.8427   -2.2156   -1.7957 H   0  0  0  0  0  0  0  0  0  0  0  0
   -2.4387    0.5477    0.5720 H   0  0  0  0  0  0  0  0  0  0  0  0
   -2.6506    0.0451   -2.2369 H   0  0  0  0  0  0  0  0  0  0  0  0
   -4.8235   -1.1286   -2.3175 H   0  0  0  0  0  0  0  0  0  0  0  0
   -4.3490   -1.8811   -0.7755 H   0  0  0  0  0  0  0  0  0  0  0  0
   -5.1825    0.0535    0.5336 H   0  0  0  0  0  0  0  0  0  0  0  0
   -6.2750    0.2854   -0.8485 H   0  0  0  0  0  0  0  0  0  0  0  0
   -4.5752    1.5211   -2.1458 H   0  0  0  0  0  0  0  0  0  0  0  0
   -2.9161    2.8303   -0.7984 H   0  0  0  0  0  0  0  0  0  0  0  0
   -5.9434    3.2524   -0.1226 H   0  0  0  0  0  0  0  0  0  0  0  0
   -4.6508    4.5403   -0.1497 H   0  0  0  0  0  0  0  0  0  0  0  0
   -4.6845    2.0136    1.6367 H   0  0  0  0  0  0  0  0  0  0  0  0
   -3.3741    3.2665    1.6093 H   0  0  0  0  0  0  0  0  0  0  0  0
    2.0990    0.8188    3.5951 H   0  0  0  0  0  0  0  0  0  0  0  0
    2.2518   -0.3819    2.3038 H   0  0  0  0  0  0  0  0  0  0  0  0
    4.1234    1.2518    2.2770 H   0  0  0  0  0  0  0  0  0  0  0  0
    2.9819    2.5736    2.1223 H   0  0  0  0  0  0  0  0  0  0  0  0
  1  2  1  0
  2  3  1  0
  3  4  2  0
  3  5  1  0
  5  6  1  0
  6  7  1  0
  7  8  1  0
  8  9  1  0
  9 10  1  0
 10 11  2  0
 10 12  2  0
 10 13  1  0
 13 14  1  0
 14 15  2  0
 15 16  1  0
 16 17  1  0
 16 18  1  0
 16 19  1  0
 15 20  1  0
 20 21  2  0
 21 22  1  0
 22 23  1  0
 23 24  1  0
 24 25  1  0
 25 26  1  0
 26 27  1  0
 27 28  1  0
 28 29  1  0
 29 30  1  0
  9 31  1  0
 31 32  1  0
 32  6  1  0
 22 13  2  0
 27 24  1  0
 30 28  1  0
  1 33  1  0
  1 34  1  0
  1 35  1  0
  2 36  1  0
  5 37  1  0
  5 38  1  0
  6 39  1  0
  7 40  1  0
  7 41  1  0
  8 42  1  0
  8 43  1  0
 14 44  1  0
 20 45  1  0
 21 46  1  0
 23 47  1  0
 24 48  1  0
 25 49  1  0
 25 50  1  0
 26 51  1  0
 26 52  1  0
 27 53  1  0
 28 54  1  0
 29 55  1  0
 29 56  1  0
 30 57  1  0
 30 58  1  0
 31 59  1  0
 31 60  1  0
 32 61  1  0
 32 62  1  0
M  END
$$$$
OCNT-2318230
     RDKit          3D

  0  0  0  0  0  0  0  0  0  0999 V3000
M  V30 BEGIN CTAB
M  V30 COUNTS 33 36 0 0 0
M  V30 BEGIN ATOM
M  V30 1 F 6.936866 1.906926 -0.546069 0
M  V30 2 C 5.733833 1.319891 -0.587726 0
M  V30 3 C 5.647847 -0.067086 -0.562557 0
M  V30 4 C 4.393621 -0.683224 -0.603993 0
M  V30 5 C 3.211777 0.077117 -0.663546 0
M  V30 6 C 1.855614 -0.586126 -0.725248 0 CFG=1
M  V30 7 C 1.430038 -1.549194 0.358173 0
M  V30 8 C 0.779287 -0.197204 0.270489 0 CFG=2
M  V30 9 C -0.683413 -0.076317 -0.237115 0
M  V30 10 N -1.633429 -0.932576 0.066982 0
M  V30 11 C -2.724062 -0.406468 -0.580265 0
M  V30 12 C -4.063681 -1.034930 -0.542970 0
M  V30 13 N -4.908221 -0.395028 0.446168 0
M  V30 14 C -5.381091 0.883319 0.440809 0
M  V30 15 N -6.185870 1.059468 1.463591 0
M  V30 16 C -6.188522 -0.165049 2.067122 0
M  V30 17 N -5.440022 -1.096676 1.470363 0
M  V30 18 N -2.472362 0.705304 -1.286140 0
M  V30 19 O -1.115293 0.934096 -1.049087 0
M  V30 20 C 3.351612 1.476347 -0.697564 0
M  V30 21 F 2.252466 2.243437 -0.766940 0
M  V30 22 C 4.592955 2.102798 -0.657017 0
M  V30 23 H 6.555769 -0.661060 -0.513009 0
M  V30 24 H 4.336445 -1.770214 -0.590481 0
M  V30 25 H 1.517114 -0.828953 -1.731904 0
M  V30 26 H 0.851906 -2.419614 0.066144 0
M  V30 27 H 2.088578 -1.727372 1.200566 0
M  V30 28 H 1.026925 0.518574 1.046031 0
M  V30 29 H -3.985486 -2.098361 -0.291282 0
M  V30 30 H -4.573985 -0.950988 -1.508855 0
M  V30 31 H -5.115152 1.621462 -0.303853 0
M  V30 32 H -6.757509 -0.385858 2.961348 0
M  V30 33 H 4.665443 3.183557 -0.680266 0
M  V30 END ATOM
M  V30 BEGIN BOND
M  V30 1 1 1 2
M  V30 2 1 2 3
M  V30 3 2 3 4
M  V30 4 1 4 5
M  V30 5 1 5 6
M  V30 6 1 6 7
M  V30 7 1 7 8
M  V30 8 1 8 9
M  V30 9 2 9 10
M  V30 10 1 10 11
M  V30 11 1 11 12
M  V30 12 1 12 13
M  V30 13 1 13 14
M  V30 14 2 14 15
M  V30 15 1 15 16
M  V30 16 2 16 17
M  V30 17 2 11 18
M  V30 18 1 18 19
M  V30 19 2 5 20
M  V30 20 1 20 21
M  V30 21 1 20 22
M  V30 22 2 22 2
M  V30 23 1 8 6
M  V30 24 1 19 9
M  V30 25 1 17 13
M  V30 26 1 3 23
M  V30 27 1 4 24
M  V30 28 1 6 25 CFG=3
M  V30 29 1 7 26
M  V30 30 1 7 27
M  V30 31 1 8 28 CFG=1
M  V30 32 1 12 29
M  V30 33 1 12 30
M  V30 34 1 14 31
M  V30 35 1 16 32
M  V30 36 1 22 33
M  V30 END BOND
M  V30 BEGIN COLLECTION
M  V30 MDLV30/STERAC1 ATOMS=(2 6 8)
M  V30 END COLLECTION
M  V30 END CTAB
M  END
>  <_CXSMILES_Data>  (1327) 
|&1:5,7|

$$$$
OCNT-2318232
     RDKit          3D

 42 44  0  0  0  0  0  0  0  0999 V2000
    7.7281    1.2756   -0.7452 C   0  0  0  0  0  0  0  0  0  0  0  0
    6.4620    1.8440   -0.1299 C   0  0  0  0  0  0  0  0  0  0  0  0
    5.4677    0.8244    0.1160 N   0  0  0  0  0  0  0  0  0  0  0  0
    4.3989    0.4912   -0.6576 C   0  0  0  0  0  0  0  0  0  0  0  0
    3.7879   -0.5283    0.0426 C   0  0  0  0  0  0  0  0  0  0  0  0
    2.5548   -1.3045   -0.2856 C   0  0  0  0  0  0  0  0  0  0  0  0
    1.3104   -0.5313   -0.2131 N   0  0  0  0  0  0  0  0  0  0  0  0
    0.0824   -1.1793   -0.3974 C   0  0  0  0  0  0  0  0  0  0  0  0
   -0.0626   -2.3846   -1.0912 C   0  0  0  0  0  0  0  0  0  0  0  0
   -1.3235   -2.9478   -1.2991 C   0  0  0  0  0  0  0  0  0  0  0  0
   -2.4653   -2.2916   -0.8448 C   0  0  0  0  0  0  0  0  0  0  0  0
   -2.3672   -1.0570   -0.1938 C   0  0  0  0  0  0  0  0  0  0  0  0
   -3.5951   -0.3813    0.2424 C   0  0  0  0  0  0  0  0  0  0  0  0
   -4.8035   -0.9153    0.2769 N   0  0  0  0  0  0  0  0  0  0  0  0
   -5.6569    0.0574    0.7398 C   0  0  0  0  0  0  0  0  0  0  0  0
   -7.0999   -0.2255    0.9063 C   0  0  0  0  0  0  0  0  0  0  0  0
   -4.9629    1.2238    0.9840 C   0  0  0  0  0  0  0  0  0  0  0  0
   -5.3834    2.5520    1.4789 C   0  0  0  0  0  0  0  0  0  0  0  0
   -3.6622    0.9274    0.6630 N   0  0  0  0  0  0  0  0  0  0  0  0
   -1.0874   -0.5138    0.0135 C   0  0  0  0  0  0  0  0  0  0  0  0
    4.4921   -0.7609    1.1968 N   0  0  0  0  0  0  0  0  0  0  0  0
    5.5213    0.0751    1.2297 N   0  0  0  0  0  0  0  0  0  0  0  0
    8.4546    2.0738   -0.9258 H   0  0  0  0  0  0  0  0  0  0  0  0
    8.1913    0.5352   -0.0844 H   0  0  0  0  0  0  0  0  0  0  0  0
    7.5154    0.7834   -1.7002 H   0  0  0  0  0  0  0  0  0  0  0  0
    6.6798    2.3344    0.8252 H   0  0  0  0  0  0  0  0  0  0  0  0
    6.0167    2.5907   -0.7962 H   0  0  0  0  0  0  0  0  0  0  0  0
    4.1643    0.9787   -1.5920 H   0  0  0  0  0  0  0  0  0  0  0  0
    2.6825   -1.7018   -1.3002 H   0  0  0  0  0  0  0  0  0  0  0  0
    2.4928   -2.1604    0.3988 H   0  0  0  0  0  0  0  0  0  0  0  0
    1.3036    0.0528    0.6206 H   0  0  0  0  0  0  0  0  0  0  0  0
    0.7972   -2.9182   -1.4834 H   0  0  0  0  0  0  0  0  0  0  0  0
   -1.4176   -3.8951   -1.8234 H   0  0  0  0  0  0  0  0  0  0  0  0
   -3.4435   -2.7397   -1.0139 H   0  0  0  0  0  0  0  0  0  0  0  0
   -7.4179   -0.0103    1.9311 H   0  0  0  0  0  0  0  0  0  0  0  0
   -7.6913    0.3902    0.2218 H   0  0  0  0  0  0  0  0  0  0  0  0
   -7.3204   -1.2767    0.6961 H   0  0  0  0  0  0  0  0  0  0  0  0
   -5.1556    2.6502    2.5449 H   0  0  0  0  0  0  0  0  0  0  0  0
   -6.4595    2.7001    1.3448 H   0  0  0  0  0  0  0  0  0  0  0  0
   -4.8659    3.3527    0.9407 H   0  0  0  0  0  0  0  0  0  0  0  0
   -2.8837    1.5667    0.7077 H   0  0  0  0  0  0  0  0  0  0  0  0
   -0.9785    0.4436    0.5136 H   0  0  0  0  0  0  0  0  0  0  0  0
  1  2  1  0
  2  3  1  0
  3  4  1  0
  4  5  2  0
  5  6  1  0
  6  7  1  0
  7  8  1  0
  8  9  2  0
  9 10  1  0
 10 11  2  0
 11 12  1  0
 12 13  1  0
 13 14  2  0
 14 15  1  0
 15 16  1  0
 15 17  2  0
 17 18  1  0
 17 19  1  0
 12 20  2  0
  5 21  1  0
 21 22  2  0
 22  3  1  0
 20  8  1  0
 19 13  1  0
  1 23  1  0
  1 24  1  0
  1 25  1  0
  2 26  1  0
  2 27  1  0
  4 28  1  0
  6 29  1  0
  6 30  1  0
  7 31  1  0
  9 32  1  0
 10 33  1  0
 11 34  1  0
 16 35  1  0
 16 36  1  0
 16 37  1  0
 18 38  1  0
 18 39  1  0
 18 40  1  0
 19 41  1  0
 20 42  1  0
M  END
$$$$
OCNT-2318260
     RDKit          3D

 46 48  0  0  0  0  0  0  0  0999 V2000
    1.2896   -2.8389   -0.5904 C   0  0  0  0  0  0  0  0  0  0  0  0
    1.2958   -1.3073   -0.6086 C   0  0  0  0  0  0  0  0  0  0  0  0
    0.2703   -0.7656    0.2570 N   0  0  0  0  0  0  0  0  0  0  0  0
   -1.0637   -0.7533   -0.0707 C   0  0  0  0  0  0  0  0  0  0  0  0
   -1.5127   -1.1789   -1.1317 O   0  0  0  0  0  0  0  0  0  0  0  0
   -1.9054   -0.1865    0.9907 C   0  0  0  0  0  0  0  0  0  0  0  0
   -3.2871   -0.0137    0.8822 C   0  0  0  0  0  0  0  0  0  0  0  0
   -4.0599   -0.3611   -0.1874 N   0  0  0  0  0  0  0  0  0  0  0  0
   -5.3249    0.1076   -0.5972 C   0  0  0  0  0  0  0  0  0  0  0  0
   -6.0975   -0.7250   -1.4238 C   0  0  0  0  0  0  0  0  0  0  0  0
   -7.3768   -0.3492   -1.8429 C   0  0  0  0  0  0  0  0  0  0  0  0
   -7.9093    0.8700   -1.4370 C   0  0  0  0  0  0  0  0  0  0  0  0
   -7.1615    1.7083   -0.6153 C   0  0  0  0  0  0  0  0  0  0  0  0
   -5.8817    1.3265   -0.1969 C   0  0  0  0  0  0  0  0  0  0  0  0
   -3.8703    0.5991    2.3867 S   0  0  0  0  0  0  0  0  0  0  0  0
   -2.2797    0.6531    3.0008 C   0  0  0  0  0  0  0  0  0  0  0  0
   -1.3316    0.2199    2.2047 N   0  0  0  0  0  0  0  0  0  0  0  0
    2.6472   -0.7340   -0.2230 C   0  0  0  0  0  0  0  0  0  0  0  0
    3.2756    0.1968   -1.0617 C   0  0  0  0  0  0  0  0  0  0  0  0
    4.5166    0.7501   -0.7232 C   0  0  0  0  0  0  0  0  0  0  0  0
    5.1536    0.3875    0.4628 C   0  0  0  0  0  0  0  0  0  0  0  0
    6.3961    0.9062    0.8741 N   0  0  0  0  0  0  0  0  0  0  0  0
    7.2439    1.7083    0.1593 C   0  0  0  0  0  0  0  0  0  0  0  0
    8.3261    2.0853    0.9029 N   0  0  0  0  0  0  0  0  0  0  0  0
    7.1437    2.0888   -0.9970 O   0  0  0  0  0  0  0  0  0  0  0  0
    4.5252   -0.5288    1.3127 C   0  0  0  0  0  0  0  0  0  0  0  0
    3.2853   -1.0828    0.9759 C   0  0  0  0  0  0  0  0  0  0  0  0
    0.3407   -3.2299   -0.9733 H   0  0  0  0  0  0  0  0  0  0  0  0
    2.0944   -3.2425   -1.2145 H   0  0  0  0  0  0  0  0  0  0  0  0
    1.4133   -3.2376    0.4225 H   0  0  0  0  0  0  0  0  0  0  0  0
    1.0531   -0.9974   -1.6334 H   0  0  0  0  0  0  0  0  0  0  0  0
    0.5126   -0.3970    1.1719 H   0  0  0  0  0  0  0  0  0  0  0  0
   -3.5873   -0.8669   -0.9436 H   0  0  0  0  0  0  0  0  0  0  0  0
   -5.7063   -1.6893   -1.7404 H   0  0  0  0  0  0  0  0  0  0  0  0
   -7.9549   -1.0119   -2.4812 H   0  0  0  0  0  0  0  0  0  0  0  0
   -8.9031    1.1671   -1.7606 H   0  0  0  0  0  0  0  0  0  0  0  0
   -7.5688    2.6656   -0.3005 H   0  0  0  0  0  0  0  0  0  0  0  0
   -5.3182    2.0232    0.4146 H   0  0  0  0  0  0  0  0  0  0  0  0
   -2.0739    1.0176    3.9989 H   0  0  0  0  0  0  0  0  0  0  0  0
    2.8047    0.5064   -1.9931 H   0  0  0  0  0  0  0  0  0  0  0  0
    4.9573    1.4682   -1.4084 H   0  0  0  0  0  0  0  0  0  0  0  0
    6.7791    0.5456    1.7349 H   0  0  0  0  0  0  0  0  0  0  0  0
    8.1345    2.3592    1.8557 H   0  0  0  0  0  0  0  0  0  0  0  0
    8.9049    2.7516    0.4043 H   0  0  0  0  0  0  0  0  0  0  0  0
    4.9890   -0.8266    2.2493 H   0  0  0  0  0  0  0  0  0  0  0  0
    2.8222   -1.7876    1.6630 H   0  0  0  0  0  0  0  0  0  0  0  0
  1  2  1  0
  2  3  1  0
  3  4  1  0
  4  5  2  0
  4  6  1  0
  6  7  2  0
  7  8  1  0
  8  9  1  0
  9 10  2  0
 10 11  1  0
 11 12  2  0
 12 13  1  0
 13 14  2  0
  7 15  1  0
 15 16  1  0
 16 17  2  0
  2 18  1  0
 18 19  1  0
 19 20  2  0
 20 21  1  0
 21 22  1  0
 22 23  1  0
 23 24  1  0
 23 25  2  0
 21 26  2  0
 26 27  1  0
 17  6  1  0
 27 18  2  0
 14  9  1  0
  1 28  1  0
  1 29  1  0
  1 30  1  0
  2 31  1  0
  3 32  1  0
  8 33  1  0
 10 34  1  0
 11 35  1  0
 12 36  1  0
 13 37  1  0
 14 38  1  0
 16 39  1  0
 19 40  1  0
 20 41  1  0
 22 42  1  0
 24 43  1  0
 24 44  1  0
 26 45  1  0
 27 46  1  0
M  END
$$$$
OCNT-2318272
     RDKit          3D

 42 44  0  0  0  0  0  0  0  0999 V2000
   -2.5955    1.0357    1.7721 O   0  0  0  0  0  0  0  0  0  0  0  0
   -3.1011    0.1602    1.0796 C   0  0  0  0  0  0  0  0  0  0  0  0
   -2.4171   -0.7919    0.3376 N   0  0  0  0  0  0  0  0  0  0  0  0
   -1.0211   -0.9304    0.1916 C   0  0  0  0  0  0  0  0  0  0  0  0
   -0.5660   -1.9846   -0.6127 C   0  0  0  0  0  0  0  0  0  0  0  0
    0.8019   -2.1907   -0.8130 C   0  0  0  0  0  0  0  0  0  0  0  0
    1.7271   -1.3342   -0.2222 C   0  0  0  0  0  0  0  0  0  0  0  0
    3.0578   -1.6128   -0.4310 O   0  0  0  0  0  0  0  0  0  0  0  0
    3.8905   -0.5567   -0.7228 C   0  0  0  0  0  0  0  0  0  0  0  0
    3.5822    0.4049   -1.6871 C   0  0  0  0  0  0  0  0  0  0  0  0
    4.4873    1.4307   -1.9571 C   0  0  0  0  0  0  0  0  0  0  0  0
    5.7065    1.4843   -1.2785 C   0  0  0  0  0  0  0  0  0  0  0  0
    6.0405    0.5032   -0.3310 C   0  0  0  0  0  0  0  0  0  0  0  0
    7.3514    0.5632    0.4115 C   0  0  0  0  0  0  0  0  0  0  0  0
    7.2461    1.2296    1.5939 F   0  0  0  0  0  0  0  0  0  0  0  0
    8.3353    1.1955   -0.2878 F   0  0  0  0  0  0  0  0  0  0  0  0
    7.8484   -0.6676    0.7181 F   0  0  0  0  0  0  0  0  0  0  0  0
    5.1179   -0.5192   -0.0596 C   0  0  0  0  0  0  0  0  0  0  0  0
    1.2876   -0.2964    0.5993 C   0  0  0  0  0  0  0  0  0  0  0  0
   -0.0831   -0.0913    0.7969 C   0  0  0  0  0  0  0  0  0  0  0  0
   -4.6107   -0.0232    0.9900 C   0  0  0  0  0  0  0  0  0  0  0  0
   -5.1601    0.0881   -0.4338 C   0  0  0  0  0  0  0  0  0  0  0  0
   -6.3508    1.0320   -0.3335 C   0  0  0  0  0  0  0  0  0  0  0  0
   -6.6891    1.0838    1.0900 N   0  0  0  0  0  0  0  0  0  0  0  0
   -5.3830    1.0359    1.7645 C   0  0  0  0  0  0  0  0  0  0  0  0
   -2.9790   -1.4761   -0.1528 H   0  0  0  0  0  0  0  0  0  0  0  0
   -1.2658   -2.6637   -1.0924 H   0  0  0  0  0  0  0  0  0  0  0  0
    1.1439   -3.0158   -1.4319 H   0  0  0  0  0  0  0  0  0  0  0  0
    2.6432    0.3616   -2.2324 H   0  0  0  0  0  0  0  0  0  0  0  0
    4.2437    2.1871   -2.6996 H   0  0  0  0  0  0  0  0  0  0  0  0
    6.4026    2.2931   -1.4982 H   0  0  0  0  0  0  0  0  0  0  0  0
    5.3521   -1.2892    0.6737 H   0  0  0  0  0  0  0  0  0  0  0  0
    1.9979    0.3574    1.0982 H   0  0  0  0  0  0  0  0  0  0  0  0
   -0.3809    0.7326    1.4379 H   0  0  0  0  0  0  0  0  0  0  0  0
   -4.8518   -1.0152    1.3964 H   0  0  0  0  0  0  0  0  0  0  0  0
   -4.4254    0.4697   -1.1511 H   0  0  0  0  0  0  0  0  0  0  0  0
   -5.4832   -0.9005   -0.7811 H   0  0  0  0  0  0  0  0  0  0  0  0
   -7.1980    0.6913   -0.9365 H   0  0  0  0  0  0  0  0  0  0  0  0
   -6.0751    2.0342   -0.6818 H   0  0  0  0  0  0  0  0  0  0  0  0
   -7.2200    0.2484    1.3386 H   0  0  0  0  0  0  0  0  0  0  0  0
   -4.9121    2.0250    1.7175 H   0  0  0  0  0  0  0  0  0  0  0  0
   -5.4950    0.7701    2.8206 H   0  0  0  0  0  0  0  0  0  0  0  0
  1  2  2  0
  2  3  1  0
  3  4  1  0
  4  5  1  0
  5  6  2  0
  6  7  1  0
  7  8  1  0
  8  9  1  0
  9 10  1  0
 10 11  2  0
 11 12  1  0
 12 13  2  0
 13 14  1  0
 14 15  1  0
 14 16  1  0
 14 17  1  0
 13 18  1  0
  7 19  2  0
 19 20  1  0
  2 21  1  0
 21 22  1  0
 22 23  1  0
 23 24  1  0
 24 25  1  0
 20  4  2  0
 25 21  1  0
 18  9  2  0
  3 26  1  0
  5 27  1  0
  6 28  1  0
 10 29  1  0
 11 30  1  0
 12 31  1  0
 18 32  1  0
 19 33  1  0
 20 34  1  0
 21 35  1  0
 22 36  1  0
 22 37  1  0
 23 38  1  0
 23 39  1  0
 24 40  1  0
 25 41  1  0
 25 42  1  0
M  END
$$$$
OCNT-2318277
     RDKit          3D

 50 52  0  0  0  0  0  0  0  0999 V2000
    1.2428    1.0711   -3.7034 C   0  0  0  0  0  0  0  0  0  0  0  0
    1.9628    0.6723   -2.4679 C   0  0  0  0  0  0  0  0  0  0  0  0
    3.1992    1.1147   -2.2534 N   0  0  0  0  0  0  0  0  0  0  0  0
    3.5597    0.6389   -1.0267 N   0  0  0  0  0  0  0  0  0  0  0  0
    4.8053    1.0863   -0.4503 C   0  0  0  0  0  0  0  0  0  0  0  0
    5.0722    0.9394    0.9086 C   0  0  0  0  0  0  0  0  0  0  0  0
    6.2914    1.3941    1.4171 C   0  0  0  0  0  0  0  0  0  0  0  0
    7.2110    1.9924    0.5677 C   0  0  0  0  0  0  0  0  0  0  0  0
    6.8696    2.1253   -0.7635 C   0  0  0  0  0  0  0  0  0  0  0  0
    5.7001    1.6964   -1.2807 N   0  0  0  0  0  0  0  0  0  0  0  0
    2.5875   -0.2397   -0.5436 C   0  0  0  0  0  0  0  0  0  0  0  0
    2.7120   -1.1049    0.6590 C   0  0  0  0  0  0  0  0  0  0  0  0
    1.5165   -0.1764   -1.4294 C   0  0  0  0  0  0  0  0  0  0  0  0
    0.2039   -0.8833   -1.3436 C   0  0  0  0  0  0  0  0  0  0  0  0
   -0.5408   -0.3016   -0.2251 N   0  0  0  0  0  0  0  0  0  0  0  0
   -1.8737   -0.9179   -0.1174 C   0  0  0  0  0  0  0  0  0  0  0  0
   -2.6556   -0.4249    1.1237 C   0  0  1  0  0  0  0  0  0  0  0  0
   -2.7917    1.1093    1.1338 C   0  0  0  0  0  0  0  0  0  0  0  0
   -4.0897    1.3553    1.8717 C   0  0  0  0  0  0  0  0  0  0  0  0
   -4.9757    0.2529    1.3214 C   0  0  0  0  0  0  0  0  0  0  0  0
   -4.0767   -0.9228    1.2596 N   0  0  0  0  0  0  0  0  0  0  0  0
   -4.5943   -2.2718    0.3981 S   0  0  0  0  0  0  0  0  0  0  0  0
   -6.1163   -2.6973    1.2200 C   0  0  0  0  0  0  0  0  0  0  0  0
   -3.6554   -3.3448    0.6423 O   0  0  0  0  0  0  0  0  0  0  0  0
   -4.9019   -1.8393   -0.9479 O   0  0  0  0  0  0  0  0  0  0  0  0
    0.2899    1.5472   -3.4517 H   0  0  0  0  0  0  0  0  0  0  0  0
    1.0397    0.1941   -4.3261 H   0  0  0  0  0  0  0  0  0  0  0  0
    1.8252    1.7819   -4.2992 H   0  0  0  0  0  0  0  0  0  0  0  0
    4.3588    0.5288    1.6075 H   0  0  0  0  0  0  0  0  0  0  0  0
    6.5132    1.2909    2.4759 H   0  0  0  0  0  0  0  0  0  0  0  0
    8.1635    2.3567    0.9351 H   0  0  0  0  0  0  0  0  0  0  0  0
    7.5433    2.5946   -1.4744 H   0  0  0  0  0  0  0  0  0  0  0  0
    3.7216   -1.5138    0.7604 H   0  0  0  0  0  0  0  0  0  0  0  0
    2.4403   -0.5536    1.5640 H   0  0  0  0  0  0  0  0  0  0  0  0
    2.0395   -1.9666    0.5922 H   0  0  0  0  0  0  0  0  0  0  0  0
    0.3745   -1.9542   -1.1836 H   0  0  0  0  0  0  0  0  0  0  0  0
   -0.3547   -0.7700   -2.2797 H   0  0  0  0  0  0  0  0  0  0  0  0
   -0.6345    0.6991   -0.3947 H   0  0  0  0  0  0  0  0  0  0  0  0
   -2.4463   -0.7040   -1.0277 H   0  0  0  0  0  0  0  0  0  0  0  0
   -1.7409   -2.0016   -0.0508 H   0  0  0  0  0  0  0  0  0  0  0  0
   -2.1276   -0.7444    2.0320 H   0  0  0  0  0  0  0  0  0  0  0  0
   -2.8735    1.5038    0.1129 H   0  0  0  0  0  0  0  0  0  0  0  0
   -1.9406    1.5979    1.6184 H   0  0  0  0  0  0  0  0  0  0  0  0
   -3.9436    1.2297    2.9510 H   0  0  0  0  0  0  0  0  0  0  0  0
   -4.4993    2.3526    1.6900 H   0  0  0  0  0  0  0  0  0  0  0  0
   -5.8227    0.0708    1.9874 H   0  0  0  0  0  0  0  0  0  0  0  0
   -5.3400    0.5153    0.3225 H   0  0  0  0  0  0  0  0  0  0  0  0
   -6.8493   -1.9050    1.0619 H   0  0  0  0  0  0  0  0  0  0  0  0
   -6.4836   -3.6274    0.7801 H   0  0  0  0  0  0  0  0  0  0  0  0
   -5.9150   -2.8467    2.2823 H   0  0  0  0  0  0  0  0  0  0  0  0
  1  2  1  0
  2  3  2  0
  3  4  1  0
  4  5  1  0
  5  6  2  0
  6  7  1  0
  7  8  2  0
  8  9  1  0
  9 10  2  0
  4 11  1  0
 11 12  1  0
 11 13  2  0
 13 14  1  0
 14 15  1  0
 15 16  1  0
 16 17  1  0
 17 18  1  0
 18 19  1  0
 19 20  1  0
 20 21  1  0
 21 22  1  0
 22 23  1  0
 22 24  2  0
 22 25  2  0
 13  2  1  0
 21 17  1  0
 10  5  1  0
  1 26  1  0
  1 27  1  0
  1 28  1  0
  6 29  1  0
  7 30  1  0
  8 31  1  0
  9 32  1  0
 12 33  1  0
 12 34  1  0
 12 35  1  0
 14 36  1  0
 14 37  1  0
 15 38  1  0
 16 39  1  0
 16 40  1  0
 17 41  1  1
 18 42  1  0
 18 43  1  0
 19 44  1  0
 19 45  1  0
 20 46  1  0
 20 47  1  0
 23 48  1  0
 23 49  1  0
 23 50  1  0
M  END
$$$$
OCNT-2318281
     RDKit          3D

 44 46  0  0  0  0  0  0  0  0999 V2000
    3.5686    1.2545   -1.2330 C   0  0  0  0  0  0  0  0  0  0  0  0
    2.8640    1.6015    0.0747 C   0  0  0  0  0  0  0  0  0  0  0  0
    3.2556    0.6702    1.1978 C   0  0  0  0  0  0  0  0  0  0  0  0
    4.3054    1.0768    2.0278 C   0  0  0  0  0  0  0  0  0  0  0  0
    4.7898    0.3669    3.0712 N   0  0  0  0  0  0  0  0  0  0  0  0
    4.2148   -0.8250    3.3075 C   0  0  0  0  0  0  0  0  0  0  0  0
    3.1772   -1.3350    2.5480 C   0  0  0  0  0  0  0  0  0  0  0  0
    2.6751   -0.5891    1.4641 C   0  0  0  0  0  0  0  0  0  0  0  0
    1.5766   -1.1681    0.6805 C   0  0  0  0  0  0  0  0  0  0  0  0
    0.9523   -2.3135    1.0206 N   0  0  0  0  0  0  0  0  0  0  0  0
    0.0013   -2.4948    0.0227 O   0  0  0  0  0  0  0  0  0  0  0  0
    0.1309   -1.4363   -0.8250 C   0  0  0  0  0  0  0  0  0  0  0  0
   -0.7949   -1.3778   -1.9817 C   0  0  0  0  0  0  0  0  0  0  0  0
   -2.2655   -1.1913   -1.5543 C   0  0  0  0  0  0  0  0  0  0  0  0
   -3.1901   -1.2926   -2.7745 C   0  0  0  0  0  0  0  0  0  0  0  0
   -2.5131    0.1170   -0.8032 C   0  0  0  0  0  0  0  0  0  0  0  0
   -2.2363    1.3485   -1.4356 C   0  0  0  0  0  0  0  0  0  0  0  0
   -2.4448    2.5638   -0.7797 C   0  0  0  0  0  0  0  0  0  0  0  0
   -2.9357    2.5758    0.5208 C   0  0  0  0  0  0  0  0  0  0  0  0
   -3.2193    1.3715    1.1657 C   0  0  0  0  0  0  0  0  0  0  0  0
   -3.0139    0.1369    0.5218 C   0  0  0  0  0  0  0  0  0  0  0  0
   -3.3374   -1.1225    1.2851 C   0  0  0  0  0  0  0  0  0  0  0  0
    1.0928   -0.6136   -0.4832 N   0  0  0  0  0  0  0  0  0  0  0  0
    3.2731    1.9550   -2.0201 H   0  0  0  0  0  0  0  0  0  0  0  0
    4.6557    1.3117   -1.1196 H   0  0  0  0  0  0  0  0  0  0  0  0
    3.3267    0.2419   -1.5734 H   0  0  0  0  0  0  0  0  0  0  0  0
    1.7757    1.6326   -0.0507 H   0  0  0  0  0  0  0  0  0  0  0  0
    3.1327    2.6349    0.3464 H   0  0  0  0  0  0  0  0  0  0  0  0
    4.8100    2.0303    1.8668 H   0  0  0  0  0  0  0  0  0  0  0  0
    4.6192   -1.3836    4.1492 H   0  0  0  0  0  0  0  0  0  0  0  0
    2.7756   -2.3136    2.8020 H   0  0  0  0  0  0  0  0  0  0  0  0
   -0.4759   -0.5695   -2.6527 H   0  0  0  0  0  0  0  0  0  0  0  0
   -0.6919   -2.3103   -2.5538 H   0  0  0  0  0  0  0  0  0  0  0  0
   -2.5257   -2.0389   -0.9109 H   0  0  0  0  0  0  0  0  0  0  0  0
   -3.0931   -2.2759   -3.2501 H   0  0  0  0  0  0  0  0  0  0  0  0
   -2.9539   -0.5367   -3.5301 H   0  0  0  0  0  0  0  0  0  0  0  0
   -4.2386   -1.1623   -2.4838 H   0  0  0  0  0  0  0  0  0  0  0  0
   -1.8516    1.3750   -2.4535 H   0  0  0  0  0  0  0  0  0  0  0  0
   -2.2198    3.4992   -1.2850 H   0  0  0  0  0  0  0  0  0  0  0  0
   -3.0954    3.5219    1.0355 H   0  0  0  0  0  0  0  0  0  0  0  0
   -3.6030    1.3992    2.1850 H   0  0  0  0  0  0  0  0  0  0  0  0
   -2.4384   -1.7340    1.4157 H   0  0  0  0  0  0  0  0  0  0  0  0
   -4.1059   -1.6984    0.7597 H   0  0  0  0  0  0  0  0  0  0  0  0
   -3.7288   -0.9021    2.2854 H   0  0  0  0  0  0  0  0  0  0  0  0
  1  2  1  0
  2  3  1  0
  3  4  2  0
  4  5  1  0
  5  6  2  0
  6  7  1  0
  7  8  2  0
  8  9  1  0
  9 10  2  0
 10 11  1  0
 11 12  1  0
 12 13  1  0
 13 14  1  0
 14 15  1  0
 14 16  1  0
 16 17  2  0
 17 18  1  0
 18 19  2  0
 19 20  1  0
 20 21  2  0
 21 22  1  0
 12 23  2  0
  8  3  1  0
 23  9  1  0
 21 16  1  0
  1 24  1  0
  1 25  1  0
  1 26  1  0
  2 27  1  0
  2 28  1  0
  4 29  1  0
  6 30  1  0
  7 31  1  0
 13 32  1  0
 13 33  1  0
 14 34  1  0
 15 35  1  0
 15 36  1  0
 15 37  1  0
 17 38  1  0
 18 39  1  0
 19 40  1  0
 20 41  1  0
 22 42  1  0
 22 43  1  0
 22 44  1  0
M  END
$$$$
OCNT-2318286
     RDKit          3D

 49 52  0  0  0  0  0  0  0  0999 V2000
   -2.4319   -2.4838    0.2571 C   0  0  0  0  0  0  0  0  0  0  0  0
   -2.3871   -0.9417    0.0462 C   0  0  0  0  0  0  0  0  0  0  0  0
   -3.6572   -0.4312   -0.6865 C   0  0  0  0  0  0  0  0  0  0  0  0
   -3.9194    0.9486   -0.8007 C   0  0  0  0  0  0  0  0  0  0  0  0
   -5.0517    1.4326   -1.4639 C   0  0  0  0  0  0  0  0  0  0  0  0
   -5.9539    0.5475   -2.0390 C   0  0  0  0  0  0  0  0  0  0  0  0
   -5.7191   -0.8189   -1.9528 C   0  0  0  0  0  0  0  0  0  0  0  0
   -4.5852   -1.3014   -1.2877 C   0  0  0  0  0  0  0  0  0  0  0  0
   -1.1395   -0.6722   -0.8515 C   0  0  0  0  0  0  0  0  0  0  0  0
   -0.4886    0.7153   -0.8018 C   0  0  0  0  0  0  0  0  0  0  0  0
   -0.0162    1.1826    0.5766 C   0  0  0  0  0  0  0  0  0  0  0  0
    0.1974    0.0819    1.5142 N   0  0  0  0  0  0  0  0  0  0  0  0
    1.4546   -0.3376    1.9742 C   0  0  0  0  0  0  0  0  0  0  0  0
    1.5747   -1.0321    2.9863 O   0  0  0  0  0  0  0  0  0  0  0  0
    2.7080    0.0373    1.2421 C   0  0  0  0  0  0  0  0  0  0  0  0
    3.8957    0.1412    1.9573 C   0  0  0  0  0  0  0  0  0  0  0  0
    5.0701    0.4381    1.2641 C   0  0  0  0  0  0  0  0  0  0  0  0
    5.0461    0.6057   -0.1242 C   0  0  0  0  0  0  0  0  0  0  0  0
    6.2729    0.9099   -0.8480 C   0  0  0  0  0  0  0  0  0  0  0  0
    7.4197    1.3188   -0.3359 N   0  0  0  0  0  0  0  0  0  0  0  0
    8.2861    1.4789   -1.3886 N   0  0  0  0  0  0  0  0  0  0  0  0
    7.7012    1.1681   -2.5353 N   0  0  0  0  0  0  0  0  0  0  0  0
    6.4572    0.8071   -2.2024 N   0  0  0  0  0  0  0  0  0  0  0  0
    3.8071    0.4754   -0.7466 C   0  0  0  0  0  0  0  0  0  0  0  0
    2.6467    0.1922   -0.1061 N   0  0  0  0  0  0  0  0  0  0  0  0
   -0.9728   -0.4595    2.2032 C   0  0  0  0  0  0  0  0  0  0  0  0
   -2.3078   -0.2996    1.4656 C   0  0  0  0  0  0  0  0  0  0  0  0
   -1.5547   -2.8438    0.8057 H   0  0  0  0  0  0  0  0  0  0  0  0
   -2.4350   -3.0242   -0.6970 H   0  0  0  0  0  0  0  0  0  0  0  0
   -3.3183   -2.7878    0.8270 H   0  0  0  0  0  0  0  0  0  0  0  0
   -3.2426    1.6830   -0.3738 H   0  0  0  0  0  0  0  0  0  0  0  0
   -5.2258    2.5035   -1.5290 H   0  0  0  0  0  0  0  0  0  0  0  0
   -6.8345    0.9205   -2.5547 H   0  0  0  0  0  0  0  0  0  0  0  0
   -6.4193   -1.5178   -2.4036 H   0  0  0  0  0  0  0  0  0  0  0  0
   -4.4564   -2.3793   -1.2594 H   0  0  0  0  0  0  0  0  0  0  0  0
   -0.3522   -1.3981   -0.6029 H   0  0  0  0  0  0  0  0  0  0  0  0
   -1.3916   -0.8896   -1.8987 H   0  0  0  0  0  0  0  0  0  0  0  0
   -1.1422    1.4756   -1.2409 H   0  0  0  0  0  0  0  0  0  0  0  0
    0.3832    0.6819   -1.4684 H   0  0  0  0  0  0  0  0  0  0  0  0
   -0.7505    1.8653    1.0199 H   0  0  0  0  0  0  0  0  0  0  0  0
    0.8857    1.7942    0.4771 H   0  0  0  0  0  0  0  0  0  0  0  0
    3.9105   -0.0095    3.0326 H   0  0  0  0  0  0  0  0  0  0  0  0
    6.0055    0.5263    1.8161 H   0  0  0  0  0  0  0  0  0  0  0  0
    5.8239    0.4996   -2.9291 H   0  0  0  0  0  0  0  0  0  0  0  0
    3.6824    0.6085   -1.8171 H   0  0  0  0  0  0  0  0  0  0  0  0
   -1.0386    0.0657    3.1644 H   0  0  0  0  0  0  0  0  0  0  0  0
   -0.7917   -1.5134    2.4417 H   0  0  0  0  0  0  0  0  0  0  0  0
   -3.0983   -0.7311    2.0959 H   0  0  0  0  0  0  0  0  0  0  0  0
   -2.5466    0.7674    1.4363 H   0  0  0  0  0  0  0  0  0  0  0  0
  1  2  1  0
  2  3  1  0
  3  4  2  0
  4  5  1  0
  5  6  2  0
  6  7  1  0
  7  8  2  0
  2  9  1  0
  9 10  1  0
 10 11  1  0
 11 12  1  0
 12 13  1  0
 13 14  2  0
 13 15  1  0
 15 16  2  0
 16 17  1  0
 17 18  2  0
 18 19  1  0
 19 20  2  0
 20 21  1  0
 21 22  2  0
 22 23  1  0
 18 24  1  0
 24 25  2  0
 12 26  1  0
 26 27  1  0
 27  2  1  0
  8  3  1  0
 25 15  1  0
 23 19  1  0
  1 28  1  0
  1 29  1  0
  1 30  1  0
  4 31  1  0
  5 32  1  0
  6 33  1  0
  7 34  1  0
  8 35  1  0
  9 36  1  0
  9 37  1  0
 10 38  1  0
 10 39  1  0
 11 40  1  0
 11 41  1  0
 16 42  1  0
 17 43  1  0
 23 44  1  0
 24 45  1  0
 26 46  1  0
 26 47  1  0
 27 48  1  0
 27 49  1  0
M  END
$$$$
OCNT-2318287
     RDKit          3D

 53 55  0  0  0  0  0  0  0  0999 V2000
   -5.3622   -1.4186    2.5114 C   0  0  0  0  0  0  0  0  0  0  0  0
   -5.7144   -0.0097    2.5121 N   0  0  0  0  0  0  0  0  0  0  0  0
   -6.4140    0.6965    1.1667 S   0  0  0  0  0  0  0  0  0  0  0  0
   -6.5014    2.1123    1.4507 O   0  0  0  0  0  0  0  0  0  0  0  0
   -7.5748   -0.0822    0.7979 O   0  0  0  0  0  0  0  0  0  0  0  0
   -5.1671    0.4673   -0.0777 C   0  0  0  0  0  0  0  0  0  0  0  0
   -5.2661   -0.6033   -0.9702 C   0  0  0  0  0  0  0  0  0  0  0  0
   -4.2891   -0.7699   -1.9495 C   0  0  0  0  0  0  0  0  0  0  0  0
   -3.2321    0.1385   -2.0442 C   0  0  0  0  0  0  0  0  0  0  0  0
   -3.1424    1.2334   -1.1693 C   0  0  0  0  0  0  0  0  0  0  0  0
   -2.0006    2.2151   -1.2951 C   0  0  0  0  0  0  0  0  0  0  0  0
   -0.7635    1.6233   -0.7947 N   0  0  0  0  0  0  0  0  0  0  0  0
    0.3728    2.5526   -0.8861 C   0  0  0  0  0  0  0  0  0  0  0  0
    0.4334    3.5070    0.3094 C   0  0  0  0  0  0  0  0  0  0  0  0
    1.6456    1.7615   -1.0149 C   0  0  0  0  0  0  0  0  0  0  0  0
    2.1266    0.6487   -0.3342 C   0  0  0  0  0  0  0  0  0  0  0  0
    1.5466   -0.0786    0.8170 C   0  0  0  0  0  0  0  0  0  0  0  0
    3.3413    0.3672   -0.9572 N   0  0  0  0  0  0  0  0  0  0  0  0
    4.2523   -0.7223   -0.8206 C   0  0  0  0  0  0  0  0  0  0  0  0
    3.9046   -1.9205   -0.1888 C   0  0  0  0  0  0  0  0  0  0  0  0
    4.8350   -2.9625   -0.0823 C   0  0  0  0  0  0  0  0  0  0  0  0
    6.1187   -2.8353   -0.6215 C   0  0  0  0  0  0  0  0  0  0  0  0
    7.1208   -3.9416   -0.4754 C   0  0  0  0  0  0  0  0  0  0  0  0
    6.4674   -1.6424   -1.2587 C   0  0  0  0  0  0  0  0  0  0  0  0
    5.5412   -0.6005   -1.3683 C   0  0  0  0  0  0  0  0  0  0  0  0
    3.6274    1.3705   -1.8284 N   0  0  0  0  0  0  0  0  0  0  0  0
    2.5896    2.1817   -1.9086 N   0  0  0  0  0  0  0  0  0  0  0  0
   -4.1192    1.3902   -0.1763 C   0  0  0  0  0  0  0  0  0  0  0  0
   -4.3332   -1.5487    2.1666 H   0  0  0  0  0  0  0  0  0  0  0  0
   -6.0347   -2.0107    1.8858 H   0  0  0  0  0  0  0  0  0  0  0  0
   -5.4320   -1.8038    3.5326 H   0  0  0  0  0  0  0  0  0  0  0  0
   -5.2492    0.6330    3.1486 H   0  0  0  0  0  0  0  0  0  0  0  0
   -6.0949   -1.3053   -0.9102 H   0  0  0  0  0  0  0  0  0  0  0  0
   -4.3506   -1.6033   -2.6456 H   0  0  0  0  0  0  0  0  0  0  0  0
   -2.4714   -0.0043   -2.8110 H   0  0  0  0  0  0  0  0  0  0  0  0
   -2.2485    3.1329   -0.7492 H   0  0  0  0  0  0  0  0  0  0  0  0
   -1.8986    2.4908   -2.3524 H   0  0  0  0  0  0  0  0  0  0  0  0
   -0.8977    1.3391    0.1717 H   0  0  0  0  0  0  0  0  0  0  0  0
    0.2802    3.1525   -1.8019 H   0  0  0  0  0  0  0  0  0  0  0  0
    1.3015    4.1714    0.2295 H   0  0  0  0  0  0  0  0  0  0  0  0
    0.5231    2.9679    1.2590 H   0  0  0  0  0  0  0  0  0  0  0  0
   -0.4599    4.1373    0.3638 H   0  0  0  0  0  0  0  0  0  0  0  0
    0.9967   -0.9630    0.4821 H   0  0  0  0  0  0  0  0  0  0  0  0
    2.3155   -0.3733    1.5374 H   0  0  0  0  0  0  0  0  0  0  0  0
    0.8457    0.5526    1.3711 H   0  0  0  0  0  0  0  0  0  0  0  0
    2.9123   -2.1088    0.2003 H   0  0  0  0  0  0  0  0  0  0  0  0
    4.5425   -3.8848    0.4162 H   0  0  0  0  0  0  0  0  0  0  0  0
    7.8217   -3.9479   -1.3169 H   0  0  0  0  0  0  0  0  0  0  0  0
    7.6848   -3.8149    0.4539 H   0  0  0  0  0  0  0  0  0  0  0  0
    6.6251   -4.9179   -0.4589 H   0  0  0  0  0  0  0  0  0  0  0  0
    7.4625   -1.5125   -1.6793 H   0  0  0  0  0  0  0  0  0  0  0  0
    5.8536    0.3107   -1.8771 H   0  0  0  0  0  0  0  0  0  0  0  0
   -4.0707    2.2327    0.5108 H   0  0  0  0  0  0  0  0  0  0  0  0
  1  2  1  0
  2  3  1  0
  3  4  2  0
  3  5  2  0
  3  6  1  0
  6  7  2  0
  7  8  1  0
  8  9  2  0
  9 10  1  0
 10 11  1  0
 11 12  1  0
 12 13  1  0
 13 14  1  0
 13 15  1  0
 15 16  2  0
 16 17  1  0
 16 18  1  0
 18 19  1  0
 19 20  1  0
 20 21  2  0
 21 22  1  0
 22 23  1  0
 22 24  2  0
 24 25  1  0
 18 26  1  0
 26 27  2  0
 10 28  2  0
 28  6  1  0
 27 15  1  0
 25 19  2  0
  1 29  1  0
  1 30  1  0
  1 31  1  0
  2 32  1  0
  7 33  1  0
  8 34  1  0
  9 35  1  0
 11 36  1  0
 11 37  1  0
 12 38  1  0
 13 39  1  0
 14 40  1  0
 14 41  1  0
 14 42  1  0
 17 43  1  0
 17 44  1  0
 17 45  1  0
 20 46  1  0
 21 47  1  0
 23 48  1  0
 23 49  1  0
 23 50  1  0
 24 51  1  0
 25 52  1  0
 28 53  1  0
M  END
$$$$
OCNT-2318290
     RDKit          3D

 59 62  0  0  0  0  0  0  0  0999 V2000
   -6.1895   -1.2545    2.3806 C   0  0  0  0  0  0  0  0  0  0  0  0
   -6.7376   -0.7936    1.0673 C   0  0  0  0  0  0  0  0  0  0  0  0
   -8.1074   -0.7415    0.8407 C   0  0  0  0  0  0  0  0  0  0  0  0
   -8.6729   -0.3321   -0.3177 N   0  0  0  0  0  0  0  0  0  0  0  0
   -7.8334    0.0368   -1.3069 C   0  0  0  0  0  0  0  0  0  0  0  0
   -6.4557    0.0328   -1.1870 C   0  0  0  0  0  0  0  0  0  0  0  0
   -5.9085   -0.3655    0.0292 C   0  0  0  0  0  0  0  0  0  0  0  0
   -4.5536   -0.4304    0.2183 O   0  0  0  0  0  0  0  0  0  0  0  0
   -3.8682    0.8175    0.0041 C   0  0  0  0  0  0  0  0  0  0  0  0
   -2.8349    0.6161   -1.1101 C   0  0  0  0  0  0  0  0  0  0  0  0
   -1.4812    0.1882   -0.5543 C   0  0  0  0  0  0  0  0  0  0  0  0
   -0.9552    1.1634    0.4049 N   0  0  0  0  0  0  0  0  0  0  0  0
    0.3852    1.4831    0.5505 C   0  0  0  0  0  0  0  0  0  0  0  0
    0.7711    2.4723    1.1657 O   0  0  0  0  0  0  0  0  0  0  0  0
    1.2494    0.5992   -0.0471 N   0  0  0  0  0  0  0  0  0  0  0  0
    2.6952    0.7799    0.0520 C   0  0  0  0  0  0  0  0  0  0  0  0
    3.2232    0.3693    1.4191 C   0  0  0  0  0  0  0  0  0  0  0  0
    4.7261    0.5957    1.4953 C   0  0  0  0  0  0  0  0  0  0  0  0
    5.3604    0.6532    0.2196 O   0  0  0  0  0  0  0  0  0  0  0  0
    4.8991   -0.2811   -0.7664 C   0  0  0  0  0  0  0  0  0  0  0  0
    5.1450   -1.7325   -0.3183 C   0  0  0  0  0  0  0  0  0  0  0  0
    6.6298   -1.9986   -0.0655 C   0  0  0  0  0  0  0  0  0  0  0  0
    7.5050   -1.2434   -0.8991 O   0  0  0  0  0  0  0  0  0  0  0  0
    6.9475   -0.9484   -2.1691 C   0  0  0  0  0  0  0  0  0  0  0  0
    5.7325   -0.0284   -2.0475 C   0  0  0  0  0  0  0  0  0  0  0  0
    3.4038   -0.0059   -1.0582 C   0  0  0  0  0  0  0  0  0  0  0  0
   -1.9286    1.9756    1.1309 C   0  0  0  0  0  0  0  0  0  0  0  0
   -3.2306    1.2207    1.3397 C   0  0  0  0  0  0  0  0  0  0  0  0
   -5.4294   -2.0283    2.2301 H   0  0  0  0  0  0  0  0  0  0  0  0
   -5.7450   -0.4123    2.9204 H   0  0  0  0  0  0  0  0  0  0  0  0
   -6.9735   -1.6864    3.0120 H   0  0  0  0  0  0  0  0  0  0  0  0
   -8.8181   -1.0395    1.6072 H   0  0  0  0  0  0  0  0  0  0  0  0
   -8.3148    0.3417   -2.2318 H   0  0  0  0  0  0  0  0  0  0  0  0
   -5.8350    0.3209   -2.0259 H   0  0  0  0  0  0  0  0  0  0  0  0
   -4.5579    1.6150   -0.3050 H   0  0  0  0  0  0  0  0  0  0  0  0
   -3.1845   -0.1244   -1.8383 H   0  0  0  0  0  0  0  0  0  0  0  0
   -2.7037    1.5649   -1.6459 H   0  0  0  0  0  0  0  0  0  0  0  0
   -1.5632   -0.7717   -0.0316 H   0  0  0  0  0  0  0  0  0  0  0  0
   -0.7784    0.0592   -1.3837 H   0  0  0  0  0  0  0  0  0  0  0  0
    0.9180   -0.3527   -0.0531 H   0  0  0  0  0  0  0  0  0  0  0  0
    2.9000    1.8497   -0.0921 H   0  0  0  0  0  0  0  0  0  0  0  0
    2.7271    0.9092    2.2341 H   0  0  0  0  0  0  0  0  0  0  0  0
    2.9977   -0.6900    1.5964 H   0  0  0  0  0  0  0  0  0  0  0  0
    4.9276    1.5549    1.9844 H   0  0  0  0  0  0  0  0  0  0  0  0
    5.2058   -0.1729    2.1105 H   0  0  0  0  0  0  0  0  0  0  0  0
    4.5824   -2.0024    0.5806 H   0  0  0  0  0  0  0  0  0  0  0  0
    4.7952   -2.4125   -1.1069 H   0  0  0  0  0  0  0  0  0  0  0  0
    6.8865   -1.7531    0.9703 H   0  0  0  0  0  0  0  0  0  0  0  0
    6.8486   -3.0633   -0.2033 H   0  0  0  0  0  0  0  0  0  0  0  0
    7.7176   -0.4671   -2.7813 H   0  0  0  0  0  0  0  0  0  0  0  0
    6.6815   -1.8862   -2.6728 H   0  0  0  0  0  0  0  0  0  0  0  0
    6.0800    1.0131   -2.0516 H   0  0  0  0  0  0  0  0  0  0  0  0
    5.1335   -0.1639   -2.9563 H   0  0  0  0  0  0  0  0  0  0  0  0
    2.8875   -0.9545   -1.2577 H   0  0  0  0  0  0  0  0  0  0  0  0
    3.2868    0.5750   -1.9830 H   0  0  0  0  0  0  0  0  0  0  0  0
   -1.5100    2.2717    2.0992 H   0  0  0  0  0  0  0  0  0  0  0  0
   -2.0967    2.8915    0.5517 H   0  0  0  0  0  0  0  0  0  0  0  0
   -3.9381    1.8356    1.9091 H   0  0  0  0  0  0  0  0  0  0  0  0
   -3.0433    0.3308    1.9558 H   0  0  0  0  0  0  0  0  0  0  0  0
  1  2  1  0
  2  3  2  0
  3  4  1  0
  4  5  2  0
  5  6  1  0
  6  7  2  0
  7  8  1  0
  8  9  1  0
  9 10  1  0
 10 11  1  0
 11 12  1  0
 12 13  1  0
 13 14  2  0
 13 15  1  0
 15 16  1  0
 16 17  1  0
 17 18  1  0
 18 19  1  0
 19 20  1  0
 20 21  1  0
 21 22  1  0
 22 23  1  0
 23 24  1  0
 24 25  1  0
 20 26  1  0
 12 27  1  0
 27 28  1  0
  7  2  1  0
 28  9  1  0
 26 16  1  0
 25 20  1  0
  1 29  1  0
  1 30  1  0
  1 31  1  0
  3 32  1  0
  5 33  1  0
  6 34  1  0
  9 35  1  0
 10 36  1  0
 10 37  1  0
 11 38  1  0
 11 39  1  0
 15 40  1  0
 16 41  1  0
 17 42  1  0
 17 43  1  0
 18 44  1  0
 18 45  1  0
 21 46  1  0
 21 47  1  0
 22 48  1  0
 22 49  1  0
 24 50  1  0
 24 51  1  0
 25 52  1  0
 25 53  1  0
 26 54  1  0
 26 55  1  0
 27 56  1  0
 27 57  1  0
 28 58  1  0
 28 59  1  0
M  END
$$$$
OCNT-2318299
     RDKit          3D

 44 47  0  0  0  0  0  0  0  0999 V2000
    0.4097    1.3446    0.8278 O   0  0  0  0  0  0  0  0  0  0  0  0
   -0.1744    0.8658   -0.1375 C   0  0  0  0  0  0  0  0  0  0  0  0
   -1.5335    1.0131   -0.3204 N   0  0  0  0  0  0  0  0  0  0  0  0
   -2.3875    1.6801    0.6638 C   0  0  0  0  0  0  0  0  0  0  0  0
   -2.6530    0.7583    1.8875 C   0  0  0  0  0  0  0  0  0  0  0  0
   -3.4729   -0.5038    1.5413 C   0  0  0  0  0  0  0  0  0  0  0  0
   -4.5549   -0.1417    0.5982 C   0  0  0  0  0  0  0  0  0  0  0  0
   -4.6664    1.0314   -0.1101 C   0  0  0  0  0  0  0  0  0  0  0  0
   -3.7107    2.1625    0.0094 C   0  0  0  0  0  0  0  0  0  0  0  0
   -5.7661    1.0114   -0.9183 N   0  0  0  0  0  0  0  0  0  0  0  0
   -6.3298   -0.1568   -0.6926 C   0  0  0  0  0  0  0  0  0  0  0  0
   -5.6289   -0.8957    0.2252 N   0  0  0  0  0  0  0  0  0  0  0  0
    0.4965    0.0816   -1.1665 C   0  0  0  0  0  0  0  0  0  0  0  0
    0.0293   -0.1804   -2.4443 C   0  0  0  0  0  0  0  0  0  0  0  0
    1.0005   -0.8933   -3.0735 N   0  0  0  0  0  0  0  0  0  0  0  0
    2.0669   -1.1361   -2.3076 N   0  0  0  0  0  0  0  0  0  0  0  0
    1.7840   -0.5506   -1.1283 C   0  0  0  0  0  0  0  0  0  0  0  0
    2.7562   -0.6403   -0.0354 C   0  0  0  0  0  0  0  0  0  0  0  0
    2.3574   -0.9433    1.2715 C   0  0  0  0  0  0  0  0  0  0  0  0
    3.3032   -1.0368    2.2928 C   0  0  0  0  0  0  0  0  0  0  0  0
    4.6553   -0.8487    2.0089 C   0  0  0  0  0  0  0  0  0  0  0  0
    5.0758   -0.5751    0.7057 C   0  0  0  0  0  0  0  0  0  0  0  0
    6.4272   -0.4286    0.5586 O   0  0  0  0  0  0  0  0  0  0  0  0
    6.9232   -0.4904   -0.7677 C   0  0  0  0  0  0  0  0  0  0  0  0
    6.6630    0.6827   -1.3956 F   0  0  0  0  0  0  0  0  0  0  0  0
    8.2754   -0.5927   -0.6876 F   0  0  0  0  0  0  0  0  0  0  0  0
    4.1238   -0.4596   -0.3096 C   0  0  0  0  0  0  0  0  0  0  0  0
   -1.9900    0.4515   -1.0267 H   0  0  0  0  0  0  0  0  0  0  0  0
   -1.8378    2.5640    1.0111 H   0  0  0  0  0  0  0  0  0  0  0  0
   -3.2035    1.3405    2.6389 H   0  0  0  0  0  0  0  0  0  0  0  0
   -1.7109    0.4532    2.3575 H   0  0  0  0  0  0  0  0  0  0  0  0
   -2.8198   -1.2495    1.0733 H   0  0  0  0  0  0  0  0  0  0  0  0
   -3.8793   -0.9458    2.4572 H   0  0  0  0  0  0  0  0  0  0  0  0
   -3.5186    2.6070   -0.9735 H   0  0  0  0  0  0  0  0  0  0  0  0
   -4.1665    2.9328    0.6429 H   0  0  0  0  0  0  0  0  0  0  0  0
   -7.2364   -0.5219   -1.1568 H   0  0  0  0  0  0  0  0  0  0  0  0
   -5.8706   -1.8213    0.5525 H   0  0  0  0  0  0  0  0  0  0  0  0
   -0.8745    0.1026   -2.9645 H   0  0  0  0  0  0  0  0  0  0  0  0
    1.0065   -1.2414   -4.0272 H   0  0  0  0  0  0  0  0  0  0  0  0
    1.3093   -1.1015    1.5110 H   0  0  0  0  0  0  0  0  0  0  0  0
    2.9859   -1.2537    3.3092 H   0  0  0  0  0  0  0  0  0  0  0  0
    5.3873   -0.9216    2.8100 H   0  0  0  0  0  0  0  0  0  0  0  0
    6.5413   -1.3401   -1.3447 H   0  0  0  0  0  0  0  0  0  0  0  0
    4.4081   -0.2122   -1.3290 H   0  0  0  0  0  0  0  0  0  0  0  0
  1  2  2  0
  2  3  1  0
  3  4  1  0
  4  5  1  0
  5  6  1  0
  6  7  1  0
  7  8  2  0
  8  9  1  0
  8 10  1  0
 10 11  2  0
 11 12  1  0
  2 13  1  0
 13 14  2  0
 14 15  1  0
 15 16  1  0
 16 17  2  0
 17 18  1  0
 18 19  2  0
 19 20  1  0
 20 21  2  0
 21 22  1  0
 22 23  1  0
 23 24  1  0
 24 25  1  0
 24 26  1  0
 22 27  2  0
  9  4  1  0
 17 13  1  0
 27 18  1  0
 12  7  1  0
  3 28  1  0
  4 29  1  0
  5 30  1  0
  5 31  1  0
  6 32  1  0
  6 33  1  0
  9 34  1  0
  9 35  1  0
 11 36  1  0
 12 37  1  0
 14 38  1  0
 15 39  1  0
 19 40  1  0
 20 41  1  0
 21 42  1  0
 24 43  1  0
 27 44  1  0
M  END
$$$$
OCNT-2318306
     RDKit          3D

 38 40  0  0  0  0  0  0  0  0999 V2000
    8.1857    0.3506   -0.5526 C   0  0  0  0  0  0  0  0  0  0  0  0
    7.3597    1.2683    0.1556 O   0  0  0  0  0  0  0  0  0  0  0  0
    6.0497    0.9382    0.1776 C   0  0  0  0  0  0  0  0  0  0  0  0
    5.5861   -0.1629   -0.4184 N   0  0  0  0  0  0  0  0  0  0  0  0
    4.2206   -0.1520   -0.1778 O   0  0  0  0  0  0  0  0  0  0  0  0
    3.8932    0.9533    0.5566 C   0  0  0  0  0  0  0  0  0  0  0  0
    2.5137    1.1767    0.9305 C   0  0  0  0  0  0  0  0  0  0  0  0
    2.1816    2.1557    1.5904 O   0  0  0  0  0  0  0  0  0  0  0  0
    1.6547    0.1917    0.4711 N   0  0  0  0  0  0  0  0  0  0  0  0
    0.2606    0.0974    0.6511 C   0  0  0  0  0  0  0  0  0  0  0  0
   -0.3816   -1.0073    0.0791 C   0  0  0  0  0  0  0  0  0  0  0  0
   -1.7634   -1.1785    0.2080 C   0  0  0  0  0  0  0  0  0  0  0  0
   -2.5327   -0.2438    0.9104 C   0  0  0  0  0  0  0  0  0  0  0  0
   -4.0275   -0.4220    1.0533 C   0  0  0  0  0  0  0  0  0  0  0  0
   -4.7860   -0.3505   -0.2511 C   0  0  0  0  0  0  0  0  0  0  0  0
   -5.5259   -1.4444   -0.7095 C   0  0  0  0  0  0  0  0  0  0  0  0
   -6.2125   -1.3286   -1.9089 C   0  0  0  0  0  0  0  0  0  0  0  0
   -6.2139   -0.2148   -2.6707 N   0  0  0  0  0  0  0  0  0  0  0  0
   -5.4960    0.8318   -2.2109 C   0  0  0  0  0  0  0  0  0  0  0  0
   -4.7793    0.8149   -1.0243 C   0  0  0  0  0  0  0  0  0  0  0  0
   -1.8882    0.8582    1.4845 C   0  0  0  0  0  0  0  0  0  0  0  0
   -0.5041    1.0271    1.3553 C   0  0  0  0  0  0  0  0  0  0  0  0
    5.0379    1.6769    0.8045 C   0  0  0  0  0  0  0  0  0  0  0  0
    8.1669   -0.6417   -0.0884 H   0  0  0  0  0  0  0  0  0  0  0  0
    9.2143    0.7209   -0.5023 H   0  0  0  0  0  0  0  0  0  0  0  0
    7.9038    0.2957   -1.6100 H   0  0  0  0  0  0  0  0  0  0  0  0
    2.0872   -0.5530   -0.0638 H   0  0  0  0  0  0  0  0  0  0  0  0
    0.1806   -1.7524   -0.4784 H   0  0  0  0  0  0  0  0  0  0  0  0
   -2.2360   -2.0444   -0.2511 H   0  0  0  0  0  0  0  0  0  0  0  0
   -4.4414    0.3370    1.7300 H   0  0  0  0  0  0  0  0  0  0  0  0
   -4.2083   -1.3846    1.5495 H   0  0  0  0  0  0  0  0  0  0  0  0
   -5.5721   -2.3726   -0.1499 H   0  0  0  0  0  0  0  0  0  0  0  0
   -6.7982   -2.1558   -2.2995 H   0  0  0  0  0  0  0  0  0  0  0  0
   -5.5109    1.7161   -2.8414 H   0  0  0  0  0  0  0  0  0  0  0  0
   -4.2221    1.6937   -0.7165 H   0  0  0  0  0  0  0  0  0  0  0  0
   -2.4556    1.6022    2.0401 H   0  0  0  0  0  0  0  0  0  0  0  0
   -0.0592    1.9011    1.8203 H   0  0  0  0  0  0  0  0  0  0  0  0
    5.1183    2.6002    1.3574 H   0  0  0  0  0  0  0  0  0  0  0  0
  1  2  1  0
  2  3  1  0
  3  4  2  0
  4  5  1  0
  5  6  1  0
  6  7  1  0
  7  8  2  0
  7  9  1  0
  9 10  1  0
 10 11  1  0
 11 12  2  0
 12 13  1  0
 13 14  1  0
 14 15  1  0
 15 16  2  0
 16 17  1  0
 17 18  2  0
 18 19  1  0
 19 20  2  0
 13 21  2  0
 21 22  1  0
  6 23  2  0
 23  3  1  0
 22 10  2  0
 20 15  1  0
  1 24  1  0
  1 25  1  0
  1 26  1  0
  9 27  1  0
 11 28  1  0
 12 29  1  0
 14 30  1  0
 14 31  1  0
 16 32  1  0
 17 33  1  0
 19 34  1  0
 20 35  1  0
 21 36  1  0
 22 37  1  0
 23 38  1  0
M  END
$$$$
OCNT-2318312
     RDKit          3D

 43 45  0  0  0  0  0  0  0  0999 V2000
    1.1941    5.2563   -0.9784 C   0  0  0  0  0  0  0  0  0  0  0  0
    0.8472    3.9052   -0.6121 N   0  0  0  0  0  0  0  0  0  0  0  0
   -0.3798    3.4395   -0.2631 C   0  0  0  0  0  0  0  0  0  0  0  0
   -0.2315    2.0869   -0.0037 C   0  0  0  0  0  0  0  0  0  0  0  0
   -1.3236    1.1647    0.4198 C   0  0  0  0  0  0  0  0  0  0  0  0
   -1.9266    0.6057   -0.7885 N   0  0  0  0  0  0  0  0  0  0  0  0
   -2.9813   -0.4101   -0.5642 C   0  0  0  0  0  0  0  0  0  0  0  0
   -4.1063    0.0722    0.3805 C   0  0  0  0  0  0  0  0  0  0  0  0
   -3.7159   -0.0640    1.7433 O   0  0  0  0  0  0  0  0  0  0  0  0
   -2.3729   -1.7623   -0.1566 C   0  0  0  0  0  0  0  0  0  0  0  0
   -3.3909   -2.8814   -0.1356 C   0  0  0  0  0  0  0  0  0  0  0  0
   -4.3324   -2.7203    0.8138 F   0  0  0  0  0  0  0  0  0  0  0  0
   -2.7775   -4.0641    0.1016 F   0  0  0  0  0  0  0  0  0  0  0  0
   -4.0200   -2.9858   -1.3270 F   0  0  0  0  0  0  0  0  0  0  0  0
    1.1557    1.8433   -0.2366 C   0  0  0  0  0  0  0  0  0  0  0  0
    1.9688    0.4973   -0.1414 C   0  0  0  0  0  0  0  0  0  0  0  0
    1.5077   -0.7629    0.1909 C   0  0  0  0  0  0  0  0  0  0  0  0
    2.6156   -1.6504    0.1312 C   0  0  0  0  0  0  0  0  0  0  0  0
    2.8187   -3.0245    0.3490 C   0  0  0  0  0  0  0  0  0  0  0  0
    4.1099   -3.5468    0.1821 C   0  0  0  0  0  0  0  0  0  0  0  0
    5.1769   -2.7251   -0.1925 C   0  0  0  0  0  0  0  0  0  0  0  0
    4.9923   -1.3562   -0.4128 C   0  0  0  0  0  0  0  0  0  0  0  0
    3.6994   -0.8691   -0.2389 C   0  0  0  0  0  0  0  0  0  0  0  0
    3.3141    0.4218   -0.4039 O   0  0  0  0  0  0  0  0  0  0  0  0
    1.7982    2.9647   -0.5964 N   0  0  0  0  0  0  0  0  0  0  0  0
    0.3015    5.8854   -0.9372 H   0  0  0  0  0  0  0  0  0  0  0  0
    1.9424    5.6242   -0.2719 H   0  0  0  0  0  0  0  0  0  0  0  0
    1.5963    5.2459   -1.9946 H   0  0  0  0  0  0  0  0  0  0  0  0
   -1.2503    4.0798   -0.2305 H   0  0  0  0  0  0  0  0  0  0  0  0
   -0.9415    0.4000    1.0987 H   0  0  0  0  0  0  0  0  0  0  0  0
   -2.0625    1.7510    0.9780 H   0  0  0  0  0  0  0  0  0  0  0  0
   -1.1956    0.2299   -1.3919 H   0  0  0  0  0  0  0  0  0  0  0  0
   -3.4463   -0.5377   -1.5504 H   0  0  0  0  0  0  0  0  0  0  0  0
   -4.3619    1.1198    0.1859 H   0  0  0  0  0  0  0  0  0  0  0  0
   -5.0141   -0.5193    0.2223 H   0  0  0  0  0  0  0  0  0  0  0  0
   -4.4828    0.1999    2.2825 H   0  0  0  0  0  0  0  0  0  0  0  0
   -1.5860   -2.0349   -0.8713 H   0  0  0  0  0  0  0  0  0  0  0  0
   -1.8950   -1.7018    0.8273 H   0  0  0  0  0  0  0  0  0  0  0  0
    0.5008   -1.0384    0.4496 H   0  0  0  0  0  0  0  0  0  0  0  0
    1.9981   -3.6725    0.6413 H   0  0  0  0  0  0  0  0  0  0  0  0
    4.2828   -4.6083    0.3476 H   0  0  0  0  0  0  0  0  0  0  0  0
    6.1689   -3.1551   -0.3149 H   0  0  0  0  0  0  0  0  0  0  0  0
    5.8054   -0.7023   -0.7032 H   0  0  0  0  0  0  0  0  0  0  0  0
  1  2  1  0
  2  3  1  0
  3  4  2  0
  4  5  1  0
  5  6  1  0
  6  7  1  0
  7  8  1  0
  8  9  1  0
  7 10  1  0
 10 11  1  0
 11 12  1  0
 11 13  1  0
 11 14  1  0
  4 15  1  0
 15 16  1  0
 16 17  2  0
 17 18  1  0
 18 19  2  0
 19 20  1  0
 20 21  2  0
 21 22  1  0
 22 23  2  0
 23 24  1  0
 15 25  2  0
 25  2  1  0
 24 16  1  0
 23 18  1  0
  1 26  1  0
  1 27  1  0
  1 28  1  0
  3 29  1  0
  5 30  1  0
  5 31  1  0
  6 32  1  0
  7 33  1  0
  8 34  1  0
  8 35  1  0
  9 36  1  0
 10 37  1  0
 10 38  1  0
 17 39  1  0
 19 40  1  0
 20 41  1  0
 21 42  1  0
 22 43  1  0
M  END
$$$$
OCNT-2318326
     RDKit          3D

 40 43  0  0  0  0  0  0  0  0999 V2000
   -5.2337    1.7498   -3.2999 Br  0  0  0  0  0  0  0  0  0  0  0  0
   -4.0440    0.6029   -2.3448 C   0  0  0  0  0  0  0  0  0  0  0  0
   -2.9537    0.1215   -3.0689 C   0  0  0  0  0  0  0  0  0  0  0  0
   -2.0364   -0.7225   -2.4599 C   0  0  0  0  0  0  0  0  0  0  0  0
   -2.1944   -1.1072   -1.1171 C   0  0  0  0  0  0  0  0  0  0  0  0
   -1.1367   -2.0310   -0.5363 C   0  0  0  0  0  0  0  0  0  0  0  0
   -0.0048   -1.3000    0.0827 C   0  0  0  0  0  0  0  0  0  0  0  0
    1.0947   -0.8360   -0.4646 N   0  0  0  0  0  0  0  0  0  0  0  0
    1.7497   -0.2727    0.6019 C   0  0  0  0  0  0  0  0  0  0  0  0
    2.9435    0.3433    0.3994 N   0  0  0  0  0  0  0  0  0  0  0  0
    3.7884    0.5969    1.5761 C   0  0  0  0  0  0  0  0  0  0  0  0
    4.9249    1.5899    1.2524 C   0  0  0  0  0  0  0  0  0  0  0  0
    5.7261    1.2073    0.0731 N   0  0  0  0  0  0  0  0  0  0  0  0
    4.8107    1.0765   -1.0776 C   0  0  0  0  0  0  0  0  0  0  0  0
    3.6673    0.0646   -0.8492 C   0  0  0  0  0  0  0  0  0  0  0  0
    1.0980   -0.4105    1.7667 N   0  0  0  0  0  0  0  0  0  0  0  0
   -0.0655   -1.0894    1.4258 O   0  0  0  0  0  0  0  0  0  0  0  0
   -3.2941   -0.6083   -0.3581 C   0  0  0  0  0  0  0  0  0  0  0  0
   -3.4936   -0.9334    1.0060 C   0  0  0  0  0  0  0  0  0  0  0  0
   -4.5761   -0.4441    1.7380 C   0  0  0  0  0  0  0  0  0  0  0  0
   -5.4962    0.3885    1.1276 C   0  0  0  0  0  0  0  0  0  0  0  0
   -5.3285    0.7334   -0.2125 C   0  0  0  0  0  0  0  0  0  0  0  0
   -4.2386    0.2563   -0.9836 C   0  0  0  0  0  0  0  0  0  0  0  0
   -2.8080    0.4024   -4.1092 H   0  0  0  0  0  0  0  0  0  0  0  0
   -1.1854   -1.0776   -3.0395 H   0  0  0  0  0  0  0  0  0  0  0  0
   -1.5826   -2.7370    0.1726 H   0  0  0  0  0  0  0  0  0  0  0  0
   -0.7416   -2.6698   -1.3378 H   0  0  0  0  0  0  0  0  0  0  0  0
    3.1996    1.0207    2.3989 H   0  0  0  0  0  0  0  0  0  0  0  0
    4.2194   -0.3504    1.9253 H   0  0  0  0  0  0  0  0  0  0  0  0
    5.5920    1.6670    2.1181 H   0  0  0  0  0  0  0  0  0  0  0  0
    4.5060    2.5910    1.0900 H   0  0  0  0  0  0  0  0  0  0  0  0
    6.1417    0.2934    0.2541 H   0  0  0  0  0  0  0  0  0  0  0  0
    4.3898    2.0624   -1.3120 H   0  0  0  0  0  0  0  0  0  0  0  0
    5.3925    0.7692   -1.9537 H   0  0  0  0  0  0  0  0  0  0  0  0
    2.9975    0.1229   -1.7160 H   0  0  0  0  0  0  0  0  0  0  0  0
    4.0802   -0.9517   -0.8114 H   0  0  0  0  0  0  0  0  0  0  0  0
   -2.7996   -1.5764    1.5406 H   0  0  0  0  0  0  0  0  0  0  0  0
   -4.6925   -0.7137    2.7845 H   0  0  0  0  0  0  0  0  0  0  0  0
   -6.3422    0.7768    1.6885 H   0  0  0  0  0  0  0  0  0  0  0  0
   -6.0736    1.3949   -0.6485 H   0  0  0  0  0  0  0  0  0  0  0  0
  1  2  1  0
  2  3  2  0
  3  4  1  0
  4  5  2  0
  5  6  1  0
  6  7  1  0
  7  8  2  0
  8  9  1  0
  9 10  1  0
 10 11  1  0
 11 12  1  0
 12 13  1  0
 13 14  1  0
 14 15  1  0
  9 16  2  0
 16 17  1  0
  5 18  1  0
 18 19  2  0
 19 20  1  0
 20 21  2  0
 21 22  1  0
 22 23  2  0
 23  2  1  0
 17  7  1  0
 23 18  1  0
 15 10  1  0
  3 24  1  0
  4 25  1  0
  6 26  1  0
  6 27  1  0
 11 28  1  0
 11 29  1  0
 12 30  1  0
 12 31  1  0
 13 32  1  0
 14 33  1  0
 14 34  1  0
 15 35  1  0
 15 36  1  0
 19 37  1  0
 20 38  1  0
 21 39  1  0
 22 40  1  0
M  END
$$$$
OCNT-2318328
     RDKit          3D

 46 49  0  0  0  0  0  0  0  0999 V2000
    0.8872   -1.2691    2.2556 O   0  0  0  0  0  0  0  0  0  0  0  0
    0.1390   -0.9404    1.3356 C   0  0  0  0  0  0  0  0  0  0  0  0
   -1.3711   -0.9856    1.5460 C   0  0  0  0  0  0  0  0  0  0  0  0
   -2.2944    0.0546    0.3805 S   0  0  0  0  0  0  0  0  0  0  0  0
   -3.9284   -0.2282    0.9077 C   0  0  0  0  0  0  0  0  0  0  0  0
   -4.2451   -1.0367    1.9196 N   0  0  0  0  0  0  0  0  0  0  0  0
   -5.5821   -0.9169    1.9501 N   0  0  0  0  0  0  0  0  0  0  0  0
   -6.0425   -0.0722    0.9736 C   0  0  0  0  0  0  0  0  0  0  0  0
   -7.4412    0.2717    0.7340 C   0  0  0  0  0  0  0  0  0  0  0  0
   -7.7765    1.1729   -0.2814 C   0  0  0  0  0  0  0  0  0  0  0  0
   -9.1099    1.5037   -0.5157 C   0  0  0  0  0  0  0  0  0  0  0  0
  -10.0802    0.9205    0.2794 C   0  0  0  0  0  0  0  0  0  0  0  0
   -9.8050    0.0487    1.2729 N   0  0  0  0  0  0  0  0  0  0  0  0
   -8.4991   -0.2528    1.4737 C   0  0  0  0  0  0  0  0  0  0  0  0
   -4.9956    0.3691    0.2990 N   0  0  0  0  0  0  0  0  0  0  0  0
    0.5436   -0.5843    0.0628 N   0  0  0  0  0  0  0  0  0  0  0  0
    1.8538   -0.5094   -0.4471 C   0  0  0  0  0  0  0  0  0  0  0  0
    2.0011   -0.0277   -1.7544 C   0  0  0  0  0  0  0  0  0  0  0  0
    3.2674    0.0825   -2.3352 C   0  0  0  0  0  0  0  0  0  0  0  0
    4.4000   -0.2803   -1.6101 C   0  0  0  0  0  0  0  0  0  0  0  0
    5.6095   -0.1761   -2.2576 O   0  0  0  0  0  0  0  0  0  0  0  0
    6.6843    0.2857   -1.5332 C   0  0  0  0  0  0  0  0  0  0  0  0
    7.8815   -0.4199   -1.6546 C   0  0  0  0  0  0  0  0  0  0  0  0
    9.0157    0.0112   -0.9660 C   0  0  0  0  0  0  0  0  0  0  0  0
    8.9555    1.1568   -0.1727 C   0  0  0  0  0  0  0  0  0  0  0  0
    7.7646    1.8772   -0.0732 C   0  0  0  0  0  0  0  0  0  0  0  0
    6.6281    1.4474   -0.7598 C   0  0  0  0  0  0  0  0  0  0  0  0
    4.2617   -0.7921   -0.3199 C   0  0  0  0  0  0  0  0  0  0  0  0
    2.9928   -0.8960    0.2620 C   0  0  0  0  0  0  0  0  0  0  0  0
   -1.5726   -0.6437    2.5667 H   0  0  0  0  0  0  0  0  0  0  0  0
   -1.6841   -2.0297    1.4408 H   0  0  0  0  0  0  0  0  0  0  0  0
   -6.1039   -1.4331    2.6479 H   0  0  0  0  0  0  0  0  0  0  0  0
   -6.9975    1.6212   -0.8960 H   0  0  0  0  0  0  0  0  0  0  0  0
   -9.3812    2.1994   -1.3014 H   0  0  0  0  0  0  0  0  0  0  0  0
  -11.1337    1.1446    0.1354 H   0  0  0  0  0  0  0  0  0  0  0  0
   -8.3472   -0.9599    2.2831 H   0  0  0  0  0  0  0  0  0  0  0  0
   -0.2005   -0.2869   -0.5597 H   0  0  0  0  0  0  0  0  0  0  0  0
    1.1348    0.2712   -2.3391 H   0  0  0  0  0  0  0  0  0  0  0  0
    3.3699    0.4558   -3.3502 H   0  0  0  0  0  0  0  0  0  0  0  0
    7.9279   -1.3077   -2.2789 H   0  0  0  0  0  0  0  0  0  0  0  0
    9.9441   -0.5462   -1.0492 H   0  0  0  0  0  0  0  0  0  0  0  0
    9.8397    1.4923    0.3639 H   0  0  0  0  0  0  0  0  0  0  0  0
    7.7218    2.7747    0.5377 H   0  0  0  0  0  0  0  0  0  0  0  0
    5.7058    2.0180   -0.6866 H   0  0  0  0  0  0  0  0  0  0  0  0
    5.1307   -1.1202    0.2447 H   0  0  0  0  0  0  0  0  0  0  0  0
    2.9312   -1.2954    1.2693 H   0  0  0  0  0  0  0  0  0  0  0  0
  1  2  2  0
  2  3  1  0
  3  4  1  0
  4  5  1  0
  5  6  2  0
  6  7  1  0
  7  8  1  0
  8  9  1  0
  9 10  1  0
 10 11  2  0
 11 12  1  0
 12 13  2  0
 13 14  1  0
  8 15  2  0
  2 16  1  0
 16 17  1  0
 17 18  1  0
 18 19  2  0
 19 20  1  0
 20 21  1  0
 21 22  1  0
 22 23  2  0
 23 24  1  0
 24 25  2  0
 25 26  1  0
 26 27  2  0
 20 28  2  0
 28 29  1  0
 15  5  1  0
 29 17  2  0
 14  9  2  0
 27 22  1  0
  3 30  1  0
  3 31  1  0
  7 32  1  0
 10 33  1  0
 11 34  1  0
 12 35  1  0
 14 36  1  0
 16 37  1  0
 18 38  1  0
 19 39  1  0
 23 40  1  0
 24 41  1  0
 25 42  1  0
 26 43  1  0
 27 44  1  0
 28 45  1  0
 29 46  1  0
M  END
$$$$
OCNT-2318329
     RDKit          3D

 63 67  0  0  0  0  0  0  0  0999 V2000
    2.6777   -1.5662    1.9327 O   0  0  0  0  0  0  0  0  0  0  0  0
    2.7706   -0.5566    1.2413 C   0  0  0  0  0  0  0  0  0  0  0  0
    3.9229    0.4070    1.4446 C   0  0  0  0  0  0  0  0  0  0  0  0
    5.1750   -0.1742    0.7872 C   0  0  0  0  0  0  0  0  0  0  0  0
    6.2677    0.8068    0.6975 N   0  0  0  0  0  0  0  0  0  0  0  0
    6.8816    1.1343    2.0051 C   0  0  0  0  0  0  0  0  0  0  0  0
    8.2692    0.5057    2.2210 C   0  0  0  0  0  0  0  0  0  0  0  0
    9.2199    0.8767    1.2141 O   0  0  0  0  0  0  0  0  0  0  0  0
    8.6192    1.1056   -0.0690 C   0  0  0  0  0  0  0  0  0  0  0  0
    7.3015    0.3405   -0.2538 C   0  0  0  0  0  0  0  0  0  0  0  0
    1.9379   -0.1842    0.1993 N   0  0  0  0  0  0  0  0  0  0  0  0
    0.8113   -0.8744   -0.2938 C   0  0  0  0  0  0  0  0  0  0  0  0
    0.3498   -2.0846    0.2218 C   0  0  0  0  0  0  0  0  0  0  0  0
   -0.7682   -2.7109   -0.3380 C   0  0  0  0  0  0  0  0  0  0  0  0
   -1.4330   -2.1330   -1.4184 C   0  0  0  0  0  0  0  0  0  0  0  0
   -0.9941   -0.9143   -1.9462 C   0  0  0  0  0  0  0  0  0  0  0  0
   -1.6904   -0.3015   -3.1381 C   0  0  0  0  0  0  0  0  0  0  0  0
   -2.0485    1.1088   -2.9594 N   0  0  0  0  0  0  0  0  0  0  0  0
   -3.1149    1.3346   -1.9782 C   0  0  0  0  0  0  0  0  0  0  0  0
   -4.4473    0.8576   -2.4600 C   0  0  0  0  0  0  0  0  0  0  0  0
   -4.9522    0.8334   -3.7486 C   0  0  0  0  0  0  0  0  0  0  0  0
   -6.2151    0.3373   -3.6598 N   0  0  0  0  0  0  0  0  0  0  0  0
   -6.5940    0.0620   -2.4084 N   0  0  0  0  0  0  0  0  0  0  0  0
   -5.5315    0.3831   -1.6543 C   0  0  0  0  0  0  0  0  0  0  0  0
   -5.5897    0.2454   -0.2044 C   0  0  0  0  0  0  0  0  0  0  0  0
   -4.7627   -0.6885    0.4559 C   0  0  0  0  0  0  0  0  0  0  0  0
   -4.8227   -0.8370    1.8459 C   0  0  0  0  0  0  0  0  0  0  0  0
   -5.7104   -0.0402    2.5374 C   0  0  0  0  0  0  0  0  0  0  0  0
   -5.9094   -0.0538    3.8830 O   0  0  0  0  0  0  0  0  0  0  0  0
   -6.9110    0.9736    4.0222 C   0  0  0  0  0  0  0  0  0  0  0  0
   -7.3040    1.5654    2.7664 O   0  0  0  0  0  0  0  0  0  0  0  0
   -6.5143    0.8761    1.8992 C   0  0  0  0  0  0  0  0  0  0  0  0
   -6.4858    1.0382    0.5299 C   0  0  0  0  0  0  0  0  0  0  0  0
    0.1333   -0.2976   -1.3775 C   0  0  0  0  0  0  0  0  0  0  0  0
    4.0526    0.5529    2.5221 H   0  0  0  0  0  0  0  0  0  0  0  0
    3.6783    1.3866    1.0171 H   0  0  0  0  0  0  0  0  0  0  0  0
    4.9022   -0.4924   -0.2279 H   0  0  0  0  0  0  0  0  0  0  0  0
    5.5002   -1.0777    1.3200 H   0  0  0  0  0  0  0  0  0  0  0  0
    6.9965    2.2253    2.0303 H   0  0  0  0  0  0  0  0  0  0  0  0
    6.2323    0.8730    2.8464 H   0  0  0  0  0  0  0  0  0  0  0  0
    8.2009   -0.5881    2.2431 H   0  0  0  0  0  0  0  0  0  0  0  0
    8.6770    0.8225    3.1861 H   0  0  0  0  0  0  0  0  0  0  0  0
    9.3440    0.7977   -0.8299 H   0  0  0  0  0  0  0  0  0  0  0  0
    8.4649    2.1855   -0.1870 H   0  0  0  0  0  0  0  0  0  0  0  0
    6.9360    0.4790   -1.2758 H   0  0  0  0  0  0  0  0  0  0  0  0
    7.4995   -0.7289   -0.1063 H   0  0  0  0  0  0  0  0  0  0  0  0
    2.1509    0.6892   -0.2679 H   0  0  0  0  0  0  0  0  0  0  0  0
    0.8396   -2.5724    1.0584 H   0  0  0  0  0  0  0  0  0  0  0  0
   -1.1129   -3.6583    0.0682 H   0  0  0  0  0  0  0  0  0  0  0  0
   -2.2942   -2.6421   -1.8468 H   0  0  0  0  0  0  0  0  0  0  0  0
   -0.9930   -0.3671   -3.9834 H   0  0  0  0  0  0  0  0  0  0  0  0
   -2.5626   -0.9006   -3.4291 H   0  0  0  0  0  0  0  0  0  0  0  0
   -2.3451    1.4923   -3.8529 H   0  0  0  0  0  0  0  0  0  0  0  0
   -2.8495    0.8917   -1.0141 H   0  0  0  0  0  0  0  0  0  0  0  0
   -3.1860    2.4143   -1.8063 H   0  0  0  0  0  0  0  0  0  0  0  0
   -4.5329    1.1180   -4.7021 H   0  0  0  0  0  0  0  0  0  0  0  0
   -6.8770    0.1647   -4.4103 H   0  0  0  0  0  0  0  0  0  0  0  0
   -4.0804   -1.3144   -0.1146 H   0  0  0  0  0  0  0  0  0  0  0  0
   -4.1982   -1.5584    2.3592 H   0  0  0  0  0  0  0  0  0  0  0  0
   -7.7967    0.5391    4.4973 H   0  0  0  0  0  0  0  0  0  0  0  0
   -6.5129    1.7586    4.6730 H   0  0  0  0  0  0  0  0  0  0  0  0
   -7.1425    1.7495    0.0371 H   0  0  0  0  0  0  0  0  0  0  0  0
    0.4709    0.6461   -1.8008 H   0  0  0  0  0  0  0  0  0  0  0  0
  1  2  2  0
  2  3  1  0
  3  4  1  0
  4  5  1  0
  5  6  1  0
  6  7  1  0
  7  8  1  0
  8  9  1  0
  9 10  1  0
  2 11  1  0
 11 12  1  0
 12 13  1  0
 13 14  2  0
 14 15  1  0
 15 16  2  0
 16 17  1  0
 17 18  1  0
 18 19  1  0
 19 20  1  0
 20 21  2  0
 21 22  1  0
 22 23  1  0
 23 24  2  0
 24 25  1  0
 25 26  1  0
 26 27  2  0
 27 28  1  0
 28 29  1  0
 29 30  1  0
 30 31  1  0
 31 32  1  0
 32 33  1  0
 16 34  1  0
 10  5  1  0
 34 12  2  0
 24 20  1  0
 33 25  2  0
 32 28  2  0
  3 35  1  0
  3 36  1  0
  4 37  1  0
  4 38  1  0
  6 39  1  0
  6 40  1  0
  7 41  1  0
  7 42  1  0
  9 43  1  0
  9 44  1  0
 10 45  1  0
 10 46  1  0
 11 47  1  0
 13 48  1  0
 14 49  1  0
 15 50  1  0
 17 51  1  0
 17 52  1  0
 18 53  1  0
 19 54  1  0
 19 55  1  0
 21 56  1  0
 22 57  1  0
 26 58  1  0
 27 59  1  0
 30 60  1  0
 30 61  1  0
 33 62  1  0
 34 63  1  0
M  END
$$$$
OCNT-2318330
     RDKit          3D

 36 38  0  0  0  0  0  0  0  0999 V2000
   -1.1388    1.1642    1.5245 C   0  0  0  0  0  0  0  0  0  0  0  0
   -1.1032   -0.1642    0.8692 C   0  0  0  0  0  0  0  0  0  0  0  0
   -2.0773   -0.7712    0.0978 C   0  0  0  0  0  0  0  0  0  0  0  0
   -3.4072   -0.4104   -0.3793 C   0  0  0  0  0  0  0  0  0  0  0  0
   -3.7243    0.9170   -0.7015 C   0  0  0  0  0  0  0  0  0  0  0  0
   -5.0018    1.2567   -1.1566 C   0  0  0  0  0  0  0  0  0  0  0  0
   -5.9782    0.2733   -1.2973 C   0  0  0  0  0  0  0  0  0  0  0  0
   -5.6782   -1.0509   -0.9866 C   0  0  0  0  0  0  0  0  0  0  0  0
   -4.4010   -1.3904   -0.5320 C   0  0  0  0  0  0  0  0  0  0  0  0
   -1.6279   -1.9960   -0.3001 O   0  0  0  0  0  0  0  0  0  0  0  0
   -0.3526   -2.2111    0.1792 N   0  0  0  0  0  0  0  0  0  0  0  0
   -0.0427   -1.1176    0.8878 C   0  0  0  0  0  0  0  0  0  0  0  0
    1.3013   -1.0178    1.5319 C   0  0  0  0  0  0  0  0  0  0  0  0
    2.2466   -0.5115    0.5139 N   0  0  0  0  0  0  0  0  0  0  0  0
    3.8143   -0.3487    1.0964 S   0  0  0  0  0  0  0  0  0  0  0  0
    4.3822   -1.6728    1.1888 O   0  0  0  0  0  0  0  0  0  0  0  0
    3.7808    0.5570    2.2222 O   0  0  0  0  0  0  0  0  0  0  0  0
    4.7540    0.4427   -0.0857 C   0  0  0  0  0  0  0  0  0  0  0  0
    5.5506    1.5439    0.1316 C   0  0  0  0  0  0  0  0  0  0  0  0
    6.1648    1.9196   -1.0232 O   0  0  0  0  0  0  0  0  0  0  0  0
    5.7596    1.0451   -1.9846 C   0  0  0  0  0  0  0  0  0  0  0  0
    4.8942    0.1233   -1.4494 C   0  0  0  0  0  0  0  0  0  0  0  0
    4.0727   -1.2813   -2.3756 Br  0  0  0  0  0  0  0  0  0  0  0  0
   -0.4903    1.1943    2.4058 H   0  0  0  0  0  0  0  0  0  0  0  0
   -0.8030    1.9398    0.8284 H   0  0  0  0  0  0  0  0  0  0  0  0
   -2.1508    1.4134    1.8604 H   0  0  0  0  0  0  0  0  0  0  0  0
   -2.9767    1.7018   -0.6204 H   0  0  0  0  0  0  0  0  0  0  0  0
   -5.2318    2.2898   -1.4071 H   0  0  0  0  0  0  0  0  0  0  0  0
   -6.9709    0.5375   -1.6530 H   0  0  0  0  0  0  0  0  0  0  0  0
   -6.4368   -1.8217   -1.0968 H   0  0  0  0  0  0  0  0  0  0  0  0
   -4.1898   -2.4310   -0.2908 H   0  0  0  0  0  0  0  0  0  0  0  0
    1.6180   -2.0078    1.8805 H   0  0  0  0  0  0  0  0  0  0  0  0
    1.2621   -0.3407    2.3904 H   0  0  0  0  0  0  0  0  0  0  0  0
    2.2376   -1.1333   -0.3002 H   0  0  0  0  0  0  0  0  0  0  0  0
    5.7748    2.1462    1.0025 H   0  0  0  0  0  0  0  0  0  0  0  0
    6.1696    1.2127   -2.9709 H   0  0  0  0  0  0  0  0  0  0  0  0
  1  2  1  0
  2  3  2  0
  3  4  1  0
  4  5  2  0
  5  6  1  0
  6  7  2  0
  7  8  1  0
  8  9  2  0
  3 10  1  0
 10 11  1  0
 11 12  2  0
 12 13  1  0
 13 14  1  0
 14 15  1  0
 15 16  2  0
 15 17  2  0
 15 18  1  0
 18 19  2  0
 19 20  1  0
 20 21  1  0
 21 22  2  0
 22 23  1  0
 12  2  1  0
 22 18  1  0
  9  4  1  0
  1 24  1  0
  1 25  1  0
  1 26  1  0
  5 27  1  0
  6 28  1  0
  7 29  1  0
  8 30  1  0
  9 31  1  0
 13 32  1  0
 13 33  1  0
 14 34  1  0
 19 35  1  0
 21 36  1  0
M  END
$$$$
OCNT-2318340
     RDKit          3D

 37 39  0  0  0  0  0  0  0  0999 V2000
    1.7814   -2.3968    0.9945 O   0  0  0  0  0  0  0  0  0  0  0  0
    2.0395   -1.2102    1.1603 C   0  0  0  0  0  0  0  0  0  0  0  0
    1.2402   -0.3474    1.8791 N   0  0  0  0  0  0  0  0  0  0  0  0
   -0.0233   -0.7805    2.4330 C   0  0  0  0  0  0  0  0  0  0  0  0
   -1.1590   -0.4536    1.4987 C   0  0  0  0  0  0  0  0  0  0  0  0
   -1.4798   -1.3134    0.4426 C   0  0  0  0  0  0  0  0  0  0  0  0
   -2.5179   -1.0059   -0.4463 C   0  0  0  0  0  0  0  0  0  0  0  0
   -3.2586    0.1788   -0.3012 C   0  0  0  0  0  0  0  0  0  0  0  0
   -4.3133    0.4832   -1.2119 N   0  0  0  0  0  0  0  0  0  0  0  0
   -5.1422    1.5855   -1.2256 C   0  0  0  0  0  0  0  0  0  0  0  0
   -5.9922    1.4242   -2.2936 C   0  0  0  0  0  0  0  0  0  0  0  0
   -5.7269    0.2608   -2.9496 N   0  0  0  0  0  0  0  0  0  0  0  0
   -4.7275   -0.2798   -2.2877 C   0  0  0  0  0  0  0  0  0  0  0  0
   -2.9245    1.0372    0.7531 C   0  0  0  0  0  0  0  0  0  0  0  0
   -3.5685    2.1920    0.9673 F   0  0  0  0  0  0  0  0  0  0  0  0
   -1.8888    0.7298    1.6395 C   0  0  0  0  0  0  0  0  0  0  0  0
    3.2546   -0.6216    0.5330 C   0  0  0  0  0  0  0  0  0  0  0  0
    3.7695   -1.2322   -0.6195 C   0  0  0  0  0  0  0  0  0  0  0  0
    4.9087   -0.7190   -1.2447 C   0  0  0  0  0  0  0  0  0  0  0  0
    5.5397    0.4032   -0.7106 C   0  0  0  0  0  0  0  0  0  0  0  0
    6.6533    0.9108   -1.3196 O   0  0  0  0  0  0  0  0  0  0  0  0
    5.0403    1.0073    0.4484 C   0  0  0  0  0  0  0  0  0  0  0  0
    5.8067    2.3891    1.1437 Cl  0  0  0  0  0  0  0  0  0  0  0  0
    3.9016    0.4949    1.0748 C   0  0  0  0  0  0  0  0  0  0  0  0
    1.3803    0.6486    1.7869 H   0  0  0  0  0  0  0  0  0  0  0  0
   -0.0037   -1.8547    2.6491 H   0  0  0  0  0  0  0  0  0  0  0  0
   -0.1548   -0.2606    3.3885 H   0  0  0  0  0  0  0  0  0  0  0  0
   -0.9127   -2.2346    0.3022 H   0  0  0  0  0  0  0  0  0  0  0  0
   -2.7087   -1.7230   -1.2393 H   0  0  0  0  0  0  0  0  0  0  0  0
   -5.0831    2.3862   -0.5060 H   0  0  0  0  0  0  0  0  0  0  0  0
   -6.7810    2.0904   -2.6189 H   0  0  0  0  0  0  0  0  0  0  0  0
   -4.2759   -1.2234   -2.5571 H   0  0  0  0  0  0  0  0  0  0  0  0
   -1.6665    1.4311    2.4396 H   0  0  0  0  0  0  0  0  0  0  0  0
    3.2796   -2.1122   -1.0343 H   0  0  0  0  0  0  0  0  0  0  0  0
    5.2853   -1.2073   -2.1389 H   0  0  0  0  0  0  0  0  0  0  0  0
    6.8792    0.3676   -2.0922 H   0  0  0  0  0  0  0  0  0  0  0  0
    3.5492    0.9556    1.9925 H   0  0  0  0  0  0  0  0  0  0  0  0
  1  2  2  0
  2  3  1  0
  3  4  1  0
  4  5  1  0
  5  6  1  0
  6  7  2  0
  7  8  1  0
  8  9  1  0
  9 10  1  0
 10 11  2  0
 11 12  1  0
 12 13  2  0
  8 14  2  0
 14 15  1  0
 14 16  1  0
  2 17  1  0
 17 18  1  0
 18 19  2  0
 19 20  1  0
 20 21  1  0
 20 22  2  0
 22 23  1  0
 22 24  1  0
 16  5  2  0
 24 17  2  0
 13  9  1  0
  3 25  1  0
  4 26  1  0
  4 27  1  0
  6 28  1  0
  7 29  1  0
 10 30  1  0
 11 31  1  0
 13 32  1  0
 16 33  1  0
 18 34  1  0
 19 35  1  0
 21 36  1  0
 24 37  1  0
M  END
$$$$
OCNT-2318342
     RDKit          3D

 53 57  0  0  0  0  0  0  0  0999 V2000
    4.9060    2.1147    4.3311 C   0  0  0  0  0  0  0  0  0  0  0  0
    4.7041    1.6854    2.9336 C   0  0  0  0  0  0  0  0  0  0  0  0
    3.5924    1.5289    2.1369 C   0  0  0  0  0  0  0  0  0  0  0  0
    4.0556    1.0930    0.8583 C   0  0  0  0  0  0  0  0  0  0  0  0
    3.3011    0.7757   -0.3503 C   0  0  0  0  0  0  0  0  0  0  0  0
    1.9520    0.4441   -0.2613 C   0  0  0  0  0  0  0  0  0  0  0  0
    1.2421    0.1492   -1.4329 C   0  0  0  0  0  0  0  0  0  0  0  0
   -0.1892   -0.1984   -1.3693 C   0  0  0  0  0  0  0  0  0  0  0  0
   -0.9561    0.3842   -2.1226 O   0  0  0  0  0  0  0  0  0  0  0  0
   -0.4934   -1.1861   -0.4522 N   0  0  0  0  0  0  0  0  0  0  0  0
   -1.7743   -1.6837   -0.1310 C   0  0  0  0  0  0  0  0  0  0  0  0
   -1.8384   -2.7591    0.7623 C   0  0  0  0  0  0  0  0  0  0  0  0
   -3.0695   -3.2993    1.1393 C   0  0  0  0  0  0  0  0  0  0  0  0
   -4.2513   -2.7674    0.6289 C   0  0  0  0  0  0  0  0  0  0  0  0
   -4.2106   -1.6915   -0.2670 C   0  0  0  0  0  0  0  0  0  0  0  0
   -5.4835   -1.0913   -0.8077 C   0  0  0  0  0  0  0  0  0  0  0  0
   -5.9200    0.0371   -0.0059 N   0  0  0  0  0  0  0  0  0  0  0  0
   -5.6486    1.3567   -0.2421 C   0  0  0  0  0  0  0  0  0  0  0  0
   -6.3196    2.0384    0.7465 C   0  0  0  0  0  0  0  0  0  0  0  0
   -6.9949    1.1698    1.5648 N   0  0  0  0  0  0  0  0  0  0  0  0
   -6.7351   -0.0271    1.0885 C   0  0  0  0  0  0  0  0  0  0  0  0
   -2.9638   -1.1549   -0.6367 C   0  0  0  0  0  0  0  0  0  0  0  0
    1.9143    0.2235   -2.6601 C   0  0  0  0  0  0  0  0  0  0  0  0
    1.6631    0.0352   -4.0450 C   0  0  0  0  0  0  0  0  0  0  0  0
    0.4020   -0.3433   -4.7267 C   0  0  0  0  0  0  0  0  0  0  0  0
    2.7686    0.2411   -4.7744 N   0  0  0  0  0  0  0  0  0  0  0  0
    3.7628    0.5707   -3.8687 O   0  0  0  0  0  0  0  0  0  0  0  0
    3.2569    0.5605   -2.6059 C   0  0  0  0  0  0  0  0  0  0  0  0
    3.9880    0.8310   -1.5103 N   0  0  0  0  0  0  0  0  0  0  0  0
    5.4359    1.0184    0.9752 C   0  0  0  0  0  0  0  0  0  0  0  0
    6.5342    0.6447    0.0548 C   0  0  0  0  0  0  0  0  0  0  0  0
    5.8249    1.3713    2.2340 O   0  0  0  0  0  0  0  0  0  0  0  0
    5.4186    1.3345    4.9021 H   0  0  0  0  0  0  0  0  0  0  0  0
    3.9489    2.3217    4.8201 H   0  0  0  0  0  0  0  0  0  0  0  0
    5.5117    3.0252    4.3680 H   0  0  0  0  0  0  0  0  0  0  0  0
    2.5747    1.7234    2.4448 H   0  0  0  0  0  0  0  0  0  0  0  0
    1.4456    0.4282    0.6990 H   0  0  0  0  0  0  0  0  0  0  0  0
    0.2802   -1.6481    0.0104 H   0  0  0  0  0  0  0  0  0  0  0  0
   -0.9342   -3.1947    1.1796 H   0  0  0  0  0  0  0  0  0  0  0  0
   -3.1060   -4.1344    1.8347 H   0  0  0  0  0  0  0  0  0  0  0  0
   -5.2020   -3.1960    0.9394 H   0  0  0  0  0  0  0  0  0  0  0  0
   -6.2942   -1.8298   -0.8221 H   0  0  0  0  0  0  0  0  0  0  0  0
   -5.3467   -0.7456   -1.8392 H   0  0  0  0  0  0  0  0  0  0  0  0
   -5.0233    1.6914   -1.0579 H   0  0  0  0  0  0  0  0  0  0  0  0
   -6.3550    3.1078    0.9100 H   0  0  0  0  0  0  0  0  0  0  0  0
   -7.1090   -0.9586    1.4925 H   0  0  0  0  0  0  0  0  0  0  0  0
   -2.9512   -0.3068   -1.3151 H   0  0  0  0  0  0  0  0  0  0  0  0
   -0.2962    0.4994   -4.7332 H   0  0  0  0  0  0  0  0  0  0  0  0
   -0.0722   -1.1922   -4.2244 H   0  0  0  0  0  0  0  0  0  0  0  0
    0.5821   -0.6370   -5.7665 H   0  0  0  0  0  0  0  0  0  0  0  0
    7.4871    0.5649    0.5879 H   0  0  0  0  0  0  0  0  0  0  0  0
    6.6510    1.3987   -0.7297 H   0  0  0  0  0  0  0  0  0  0  0  0
    6.3346   -0.3235   -0.4142 H   0  0  0  0  0  0  0  0  0  0  0  0
  1  2  1  0
  2  3  2  0
  3  4  1  0
  4  5  1  0
  5  6  2  0
  6  7  1  0
  7  8  1  0
  8  9  2  0
  8 10  1  0
 10 11  1  0
 11 12  1  0
 12 13  2  0
 13 14  1  0
 14 15  2  0
 15 16  1  0
 16 17  1  0
 17 18  1  0
 18 19  2  0
 19 20  1  0
 20 21  2  0
 15 22  1  0
  7 23  2  0
 23 24  1  0
 24 25  1  0
 24 26  2  0
 26 27  1  0
 27 28  1  0
 28 29  2  0
  4 30  2  0
 30 31  1  0
 30 32  1  0
 32  2  1  0
 29  5  1  0
 22 11  2  0
 28 23  1  0
 21 17  1  0
  1 33  1  0
  1 34  1  0
  1 35  1  0
  3 36  1  0
  6 37  1  0
 10 38  1  0
 12 39  1  0
 13 40  1  0
 14 41  1  0
 16 42  1  0
 16 43  1  0
 18 44  1  0
 19 45  1  0
 21 46  1  0
 22 47  1  0
 25 48  1  0
 25 49  1  0
 25 50  1  0
 31 51  1  0
 31 52  1  0
 31 53  1  0
M  END
$$$$
OCNT-2318348
     RDKit          3D

 39 41  0  0  0  0  0  0  0  0999 V2000
   -4.1990    1.2019    3.3934 C   0  0  0  0  0  0  0  0  0  0  0  0
   -3.6743    0.0597    2.7290 O   0  0  0  0  0  0  0  0  0  0  0  0
   -2.6497    0.4119    1.7978 C   0  0  0  0  0  0  0  0  0  0  0  0
   -2.0688   -0.8562    1.1432 C   0  0  0  0  0  0  0  0  0  0  0  0
   -3.1229   -1.6708    0.3527 C   0  0  0  0  0  0  0  0  0  0  0  0
   -3.5748   -1.0340   -0.8987 N   0  0  0  0  0  0  0  0  0  0  0  0
   -2.4077   -0.7670   -1.7506 C   0  0  0  0  0  0  0  0  0  0  0  0
   -1.3201    0.0770   -1.0618 C   0  0  0  0  0  0  0  0  0  0  0  0
   -0.8953   -0.4732    0.2670 N   0  0  0  0  0  0  0  0  0  0  0  0
    0.3468   -1.6462    0.2117 S   0  0  0  0  0  0  0  0  0  0  0  0
    0.0143   -2.6064   -0.8157 O   0  0  0  0  0  0  0  0  0  0  0  0
    0.6529   -2.0403    1.5691 O   0  0  0  0  0  0  0  0  0  0  0  0
    1.8156   -0.8007   -0.3320 C   0  0  0  0  0  0  0  0  0  0  0  0
    2.2085    0.5174   -0.2262 C   0  0  0  0  0  0  0  0  0  0  0  0
    3.4969    0.7681   -0.8028 C   0  0  0  0  0  0  0  0  0  0  0  0
    4.2408    1.9682   -0.9069 C   0  0  0  0  0  0  0  0  0  0  0  0
    5.4953    1.9615   -1.5216 C   0  0  0  0  0  0  0  0  0  0  0  0
    6.3857    3.4297   -1.6436 Cl  0  0  0  0  0  0  0  0  0  0  0  0
    6.0304    0.7883   -2.0338 C   0  0  0  0  0  0  0  0  0  0  0  0
    5.3182   -0.4104   -1.9411 C   0  0  0  0  0  0  0  0  0  0  0  0
    4.0525   -0.4043   -1.3225 C   0  0  0  0  0  0  0  0  0  0  0  0
    3.0060   -1.7519   -1.0917 S   0  0  0  0  0  0  0  0  0  0  0  0
   -3.4140    1.7070    3.9644 H   0  0  0  0  0  0  0  0  0  0  0  0
   -4.6449    1.8929    2.6717 H   0  0  0  0  0  0  0  0  0  0  0  0
   -4.9767    0.8700    4.0864 H   0  0  0  0  0  0  0  0  0  0  0  0
   -1.8501    0.9446    2.3277 H   0  0  0  0  0  0  0  0  0  0  0  0
   -3.0659    1.0915    1.0457 H   0  0  0  0  0  0  0  0  0  0  0  0
   -1.7257   -1.4941    1.9667 H   0  0  0  0  0  0  0  0  0  0  0  0
   -4.0008   -1.8603    0.9804 H   0  0  0  0  0  0  0  0  0  0  0  0
   -2.7104   -2.6579    0.1088 H   0  0  0  0  0  0  0  0  0  0  0  0
   -4.0458   -0.1590   -0.6734 H   0  0  0  0  0  0  0  0  0  0  0  0
   -1.9943   -1.7195   -2.0988 H   0  0  0  0  0  0  0  0  0  0  0  0
   -2.7485   -0.2398   -2.6490 H   0  0  0  0  0  0  0  0  0  0  0  0
   -0.4571    0.1806   -1.7277 H   0  0  0  0  0  0  0  0  0  0  0  0
   -1.6911    1.0958   -0.8960 H   0  0  0  0  0  0  0  0  0  0  0  0
    1.5944    1.2722    0.2503 H   0  0  0  0  0  0  0  0  0  0  0  0
    3.8346    2.8937   -0.5073 H   0  0  0  0  0  0  0  0  0  0  0  0
    7.0083    0.7916   -2.5095 H   0  0  0  0  0  0  0  0  0  0  0  0
    5.7367   -1.3315   -2.3385 H   0  0  0  0  0  0  0  0  0  0  0  0
  1  2  1  0
  2  3  1  0
  3  4  1  0
  4  5  1  0
  5  6  1  0
  6  7  1  0
  7  8  1  0
  8  9  1  0
  9 10  1  0
 10 11  2  0
 10 12  2  0
 10 13  1  0
 13 14  2  0
 14 15  1  0
 15 16  2  0
 16 17  1  0
 17 18  1  0
 17 19  2  0
 19 20  1  0
 20 21  2  0
 21 22  1  0
  9  4  1  0
 22 13  1  0
 21 15  1  0
  1 23  1  0
  1 24  1  0
  1 25  1  0
  3 26  1  0
  3 27  1  0
  4 28  1  0
  5 29  1  0
  5 30  1  0
  6 31  1  0
  7 32  1  0
  7 33  1  0
  8 34  1  0
  8 35  1  0
 14 36  1  0
 16 37  1  0
 19 38  1  0
 20 39  1  0
M  END
$$$$
OCNT-2318359
     RDKit          3D

 57 59  0  0  0  0  0  0  0  0999 V2000
    8.0288   -0.8260   -0.7907 C   0  0  0  0  0  0  0  0  0  0  0  0
    7.3528    0.4238   -0.8442 O   0  0  0  0  0  0  0  0  0  0  0  0
    6.1113    0.4775   -0.2724 C   0  0  0  0  0  0  0  0  0  0  0  0
    5.4764   -0.5583    0.4117 C   0  0  0  0  0  0  0  0  0  0  0  0
    4.1998   -0.3667    0.9526 C   0  0  0  0  0  0  0  0  0  0  0  0
    3.5422    0.8634    0.8186 C   0  0  0  0  0  0  0  0  0  0  0  0
    2.1652    1.0634    1.4015 C   0  0  0  0  0  0  0  0  0  0  0  0
    1.0357    0.4325    0.5960 C   0  0  0  0  0  0  0  0  0  0  0  0
    1.1926   -0.1027   -0.4929 O   0  0  0  0  0  0  0  0  0  0  0  0
   -0.1839    0.5415    1.2296 N   0  0  0  0  0  0  0  0  0  0  0  0
   -1.4762   -0.0179    0.8018 C   0  0  0  0  0  0  0  0  0  0  0  0
   -1.6385   -1.4860    1.2072 C   0  0  0  0  0  0  0  0  0  0  0  0
   -2.8509   -1.9121    1.7883 C   0  0  0  0  0  0  0  0  0  0  0  0
   -3.0415   -3.2429    2.1708 C   0  0  0  0  0  0  0  0  0  0  0  0
   -2.0224   -4.1643    1.9718 C   0  0  0  0  0  0  0  0  0  0  0  0
   -2.2057   -5.4390    2.3427 F   0  0  0  0  0  0  0  0  0  0  0  0
   -0.8263   -3.7683    1.3904 C   0  0  0  0  0  0  0  0  0  0  0  0
    0.1545   -4.6606    1.1945 F   0  0  0  0  0  0  0  0  0  0  0  0
   -0.6304   -2.4435    1.0048 C   0  0  0  0  0  0  0  0  0  0  0  0
   -2.0680    0.3872   -0.6455 C   0  0  0  0  0  0  0  0  0  0  0  0
   -1.6751   -0.6898   -1.6907 C   0  0  0  0  0  0  0  0  0  0  0  0
   -1.4825    1.7376   -1.1210 C   0  0  0  0  0  0  0  0  0  0  0  0
   -3.5713    0.4509   -0.5337 N   0  0  0  0  0  0  0  0  0  0  0  0
   -4.3747    0.4016   -1.7597 C   0  0  0  0  0  0  0  0  0  0  0  0
   -4.7737    1.8300   -2.0855 C   0  0  0  0  0  0  0  0  0  0  0  0
   -4.6534    2.5858   -0.7753 C   0  0  0  0  0  0  0  0  0  0  0  0
   -4.1289    1.5741    0.2327 C   0  0  0  0  0  0  0  0  0  0  0  0
    4.1813    1.8971    0.1250 C   0  0  0  0  0  0  0  0  0  0  0  0
    5.4569    1.7031   -0.4108 C   0  0  0  0  0  0  0  0  0  0  0  0
    8.2455   -1.1129    0.2435 H   0  0  0  0  0  0  0  0  0  0  0  0
    8.9846   -0.7113   -1.3109 H   0  0  0  0  0  0  0  0  0  0  0  0
    7.4602   -1.6061   -1.3076 H   0  0  0  0  0  0  0  0  0  0  0  0
    5.9417   -1.5297    0.5394 H   0  0  0  0  0  0  0  0  0  0  0  0
    3.7180   -1.1931    1.4713 H   0  0  0  0  0  0  0  0  0  0  0  0
    2.1503    0.6453    2.4161 H   0  0  0  0  0  0  0  0  0  0  0  0
    1.9534    2.1357    1.4977 H   0  0  0  0  0  0  0  0  0  0  0  0
   -0.1669    0.8758    2.1838 H   0  0  0  0  0  0  0  0  0  0  0  0
   -2.1149    0.5089    1.5234 H   0  0  0  0  0  0  0  0  0  0  0  0
   -3.6657   -1.2040    1.9341 H   0  0  0  0  0  0  0  0  0  0  0  0
   -3.9784   -3.5639    2.6148 H   0  0  0  0  0  0  0  0  0  0  0  0
    0.3119   -2.1873    0.5315 H   0  0  0  0  0  0  0  0  0  0  0  0
   -1.8392   -0.3406   -2.7165 H   0  0  0  0  0  0  0  0  0  0  0  0
   -0.6206   -0.9607   -1.6366 H   0  0  0  0  0  0  0  0  0  0  0  0
   -2.2491   -1.6141   -1.5569 H   0  0  0  0  0  0  0  0  0  0  0  0
   -0.4154    1.6610   -1.3475 H   0  0  0  0  0  0  0  0  0  0  0  0
   -1.9531    2.0776   -2.0485 H   0  0  0  0  0  0  0  0  0  0  0  0
   -1.6001    2.5262   -0.3710 H   0  0  0  0  0  0  0  0  0  0  0  0
   -5.2833   -0.1719   -1.5328 H   0  0  0  0  0  0  0  0  0  0  0  0
   -3.9249   -0.0977   -2.6197 H   0  0  0  0  0  0  0  0  0  0  0  0
   -4.1028    2.2642   -2.8345 H   0  0  0  0  0  0  0  0  0  0  0  0
   -5.7914    1.8799   -2.4863 H   0  0  0  0  0  0  0  0  0  0  0  0
   -3.9590    3.4256   -0.8897 H   0  0  0  0  0  0  0  0  0  0  0  0
   -5.6188    2.9948   -0.4592 H   0  0  0  0  0  0  0  0  0  0  0  0
   -3.4440    2.0422    0.9454 H   0  0  0  0  0  0  0  0  0  0  0  0
   -4.9699    1.1916    0.8250 H   0  0  0  0  0  0  0  0  0  0  0  0
    3.6941    2.8595   -0.0106 H   0  0  0  0  0  0  0  0  0  0  0  0
    5.9432    2.5132   -0.9487 H   0  0  0  0  0  0  0  0  0  0  0  0
  1  2  1  0
  2  3  1  0
  3  4  1  0
  4  5  2  0
  5  6  1  0
  6  7  1  0
  7  8  1  0
  8  9  2  0
  8 10  1  0
 10 11  1  0
 11 12  1  0
 12 13  1  0
 13 14  2  0
 14 15  1  0
 15 16  1  0
 15 17  2  0
 17 18  1  0
 17 19  1  0
 11 20  1  0
 20 21  1  0
 20 22  1  0
 20 23  1  0
 23 24  1  0
 24 25  1  0
 25 26  1  0
 26 27  1  0
  6 28  2  0
 28 29  1  0
 29  3  2  0
 19 12  2  0
 27 23  1  0
  1 30  1  0
  1 31  1  0
  1 32  1  0
  4 33  1  0
  5 34  1  0
  7 35  1  0
  7 36  1  0
 10 37  1  0
 11 38  1  0
 13 39  1  0
 14 40  1  0
 19 41  1  0
 21 42  1  0
 21 43  1  0
 21 44  1  0
 22 45  1  0
 22 46  1  0
 22 47  1  0
 24 48  1  0
 24 49  1  0
 25 50  1  0
 25 51  1  0
 26 52  1  0
 26 53  1  0
 27 54  1  0
 27 55  1  0
 28 56  1  0
 29 57  1  0
M  END
$$$$
OCNT-2318363
     RDKit          3D

 44 46  0  0  0  0  0  0  0  0999 V2000
    4.3146    0.8412    0.4084 C   0  0  0  0  0  0  0  0  0  0  0  0
    3.7049   -0.4902    0.8649 C   0  0  0  0  0  0  0  0  0  0  0  0
    2.5279   -0.3126    1.8337 C   0  0  0  0  0  0  0  0  0  0  0  0
    4.8075   -1.2544    1.6294 C   0  0  0  0  0  0  0  0  0  0  0  0
    3.4014   -1.3595   -0.2373 O   0  0  0  0  0  0  0  0  0  0  0  0
    2.4130   -1.1603   -1.1488 C   0  0  0  0  0  0  0  0  0  0  0  0
    1.5981   -0.0420   -1.2902 C   0  0  0  0  0  0  0  0  0  0  0  0
    0.6095    0.0126   -2.2910 C   0  0  0  0  0  0  0  0  0  0  0  0
   -0.2873    1.2188   -2.4000 C   0  0  0  0  0  0  0  0  0  0  0  0
   -1.4573    1.0059   -1.6011 O   0  0  0  0  0  0  0  0  0  0  0  0
   -1.4359    1.5598   -0.3636 C   0  0  0  0  0  0  0  0  0  0  0  0
   -0.5390    2.2531    0.0957 O   0  0  0  0  0  0  0  0  0  0  0  0
   -2.6760    1.2228    0.3957 C   0  0  0  0  0  0  0  0  0  0  0  0
   -3.5936    0.3496   -0.0700 C   0  0  0  0  0  0  0  0  0  0  0  0
   -4.7248    0.0787    0.6936 N   0  0  0  0  0  0  0  0  0  0  0  0
   -5.7836   -0.7565    0.4384 C   0  0  0  0  0  0  0  0  0  0  0  0
   -6.6728   -0.7417    1.4086 N   0  0  0  0  0  0  0  0  0  0  0  0
   -6.1761    0.1366    2.3405 C   0  0  0  0  0  0  0  0  0  0  0  0
   -4.9731    0.6597    1.9267 C   0  0  0  0  0  0  0  0  0  0  0  0
   -4.0158    1.5762    2.4343 C   0  0  0  0  0  0  0  0  0  0  0  0
   -2.9161    1.8451    1.7032 C   0  0  0  0  0  0  0  0  0  0  0  0
    0.4392   -1.0799   -3.1491 C   0  0  0  0  0  0  0  0  0  0  0  0
    1.2573   -2.1984   -3.0225 C   0  0  0  0  0  0  0  0  0  0  0  0
    2.2374   -2.2323   -2.0300 C   0  0  0  0  0  0  0  0  0  0  0  0
    4.7325    1.3971    1.2551 H   0  0  0  0  0  0  0  0  0  0  0  0
    5.1134    0.6712   -0.3225 H   0  0  0  0  0  0  0  0  0  0  0  0
    3.5879    1.4971   -0.0746 H   0  0  0  0  0  0  0  0  0  0  0  0
    2.0725   -1.2804    2.0726 H   0  0  0  0  0  0  0  0  0  0  0  0
    1.7330    0.3145    1.4249 H   0  0  0  0  0  0  0  0  0  0  0  0
    2.8519    0.1579    2.7688 H   0  0  0  0  0  0  0  0  0  0  0  0
    4.4456   -2.2364    1.9568 H   0  0  0  0  0  0  0  0  0  0  0  0
    5.1525   -0.7026    2.5104 H   0  0  0  0  0  0  0  0  0  0  0  0
    5.6715   -1.4451    0.9815 H   0  0  0  0  0  0  0  0  0  0  0  0
    1.6955    0.8157   -0.6367 H   0  0  0  0  0  0  0  0  0  0  0  0
   -0.6174    1.3464   -3.4375 H   0  0  0  0  0  0  0  0  0  0  0  0
    0.2460    2.1411   -2.1389 H   0  0  0  0  0  0  0  0  0  0  0  0
   -3.5111   -0.1710   -1.0159 H   0  0  0  0  0  0  0  0  0  0  0  0
   -5.8500   -1.3454   -0.4662 H   0  0  0  0  0  0  0  0  0  0  0  0
   -6.7130    0.3423    3.2575 H   0  0  0  0  0  0  0  0  0  0  0  0
   -4.1758    2.0462    3.3998 H   0  0  0  0  0  0  0  0  0  0  0  0
   -2.1687    2.5420    2.0755 H   0  0  0  0  0  0  0  0  0  0  0  0
   -0.3299   -1.0650   -3.9177 H   0  0  0  0  0  0  0  0  0  0  0  0
    1.1330   -3.0466   -3.6903 H   0  0  0  0  0  0  0  0  0  0  0  0
    2.8713   -3.1113   -1.9352 H   0  0  0  0  0  0  0  0  0  0  0  0
  1  2  1  0
  2  3  1  0
  2  4  1  0
  2  5  1  0
  5  6  1  0
  6  7  2  0
  7  8  1  0
  8  9  1  0
  9 10  1  0
 10 11  1  0
 11 12  2  0
 11 13  1  0
 13 14  2  0
 14 15  1  0
 15 16  1  0
 16 17  2  0
 17 18  1  0
 18 19  2  0
 19 20  1  0
 20 21  2  0
  8 22  2  0
 22 23  1  0
 23 24  2  0
 24  6  1  0
 21 13  1  0
 19 15  1  0
  1 25  1  0
  1 26  1  0
  1 27  1  0
  3 28  1  0
  3 29  1  0
  3 30  1  0
  4 31  1  0
  4 32  1  0
  4 33  1  0
  7 34  1  0
  9 35  1  0
  9 36  1  0
 14 37  1  0
 16 38  1  0
 18 39  1  0
 20 40  1  0
 21 41  1  0
 22 42  1  0
 23 43  1  0
 24 44  1  0
M  END
$$$$
OCNT-2318369
     RDKit          3D

 51 54  0  0  0  0  0  0  0  0999 V2000
    2.6503   -1.9216    1.4930 O   0  0  0  0  0  0  0  0  0  0  0  0
    2.6905   -1.6317    0.2977 C   0  0  0  0  0  0  0  0  0  0  0  0
    3.9273   -1.8158   -0.5665 C   0  0  0  0  0  0  0  0  0  0  0  0
    4.9836   -0.8112   -0.2351 C   0  0  0  0  0  0  0  0  0  0  0  0
    6.1328   -1.0464    0.4965 C   0  0  0  0  0  0  0  0  0  0  0  0
    6.8369    0.1237    0.5863 N   0  0  0  0  0  0  0  0  0  0  0  0
    6.1781    1.1244   -0.0862 C   0  0  0  0  0  0  0  0  0  0  0  0
    6.5134    2.4600   -0.2673 C   0  0  0  0  0  0  0  0  0  0  0  0
    5.6841    3.2579   -0.9770 N   0  0  0  0  0  0  0  0  0  0  0  0
    4.5496    2.7322   -1.4857 C   0  0  0  0  0  0  0  0  0  0  0  0
    4.1557    1.4095   -1.3440 C   0  0  0  0  0  0  0  0  0  0  0  0
    5.0105    0.5717   -0.6116 C   0  0  0  0  0  0  0  0  0  0  0  0
    1.5940   -1.1149   -0.3616 N   0  0  0  0  0  0  0  0  0  0  0  0
    0.3517   -0.8038    0.3355 C   0  0  0  0  0  0  0  0  0  0  0  0
   -0.5280   -2.0467    0.5783 C   0  0  1  0  0  0  0  0  0  0  0  0
    0.1025   -2.9887    1.4580 O   0  0  0  0  0  0  0  0  0  0  0  0
   -1.8868   -1.6634    1.2067 C   0  0  0  0  0  0  0  0  0  0  0  0
   -2.6624   -0.6610    0.4544 N   0  0  0  0  0  0  0  0  0  0  0  0
   -3.2315   -1.2128   -0.7870 C   0  0  0  0  0  0  0  0  0  0  0  0
   -3.8598   -0.0941   -1.6324 C   0  0  0  0  0  0  0  0  0  0  0  0
   -4.7646    0.8057   -0.8313 C   0  0  0  0  0  0  0  0  0  0  0  0
   -5.6423    1.6832   -1.4806 C   0  0  0  0  0  0  0  0  0  0  0  0
   -6.4557    2.5396   -0.7397 C   0  0  0  0  0  0  0  0  0  0  0  0
   -6.3957    2.5293    0.6518 C   0  0  0  0  0  0  0  0  0  0  0  0
   -5.5166    1.6666    1.3050 C   0  0  0  0  0  0  0  0  0  0  0  0
   -4.6833    0.8094    0.5720 C   0  0  0  0  0  0  0  0  0  0  0  0
   -3.7590   -0.1432    1.2991 C   0  0  0  0  0  0  0  0  0  0  0  0
    3.6659   -1.7435   -1.6291 H   0  0  0  0  0  0  0  0  0  0  0  0
    4.2944   -2.8374   -0.4066 H   0  0  0  0  0  0  0  0  0  0  0  0
    6.4995   -1.9469    0.9725 H   0  0  0  0  0  0  0  0  0  0  0  0
    7.7126    0.2388    1.0779 H   0  0  0  0  0  0  0  0  0  0  0  0
    7.4120    2.9138    0.1317 H   0  0  0  0  0  0  0  0  0  0  0  0
    3.9314    3.4345   -2.0384 H   0  0  0  0  0  0  0  0  0  0  0  0
    3.2301    1.0581   -1.7791 H   0  0  0  0  0  0  0  0  0  0  0  0
    1.6426   -0.9381   -1.3551 H   0  0  0  0  0  0  0  0  0  0  0  0
   -0.1682   -0.0695   -0.2887 H   0  0  0  0  0  0  0  0  0  0  0  0
    0.6114   -0.3298    1.2890 H   0  0  0  0  0  0  0  0  0  0  0  0
   -0.6823   -2.5742   -0.3679 H   0  0  0  0  0  0  0  0  0  0  0  0
    0.9768   -2.6282    1.7204 H   0  0  0  0  0  0  0  0  0  0  0  0
   -1.6715   -1.2718    2.2117 H   0  0  0  0  0  0  0  0  0  0  0  0
   -2.4785   -2.5739    1.3738 H   0  0  0  0  0  0  0  0  0  0  0  0
   -2.4576   -1.6882   -1.3991 H   0  0  0  0  0  0  0  0  0  0  0  0
   -3.9813   -1.9847   -0.5617 H   0  0  0  0  0  0  0  0  0  0  0  0
   -4.4217   -0.5479   -2.4574 H   0  0  0  0  0  0  0  0  0  0  0  0
   -3.0641    0.5233   -2.0652 H   0  0  0  0  0  0  0  0  0  0  0  0
   -5.6925    1.7055   -2.5659 H   0  0  0  0  0  0  0  0  0  0  0  0
   -7.1355    3.2169   -1.2485 H   0  0  0  0  0  0  0  0  0  0  0  0
   -7.0327    3.1944    1.2296 H   0  0  0  0  0  0  0  0  0  0  0  0
   -5.4819    1.6675    2.3920 H   0  0  0  0  0  0  0  0  0  0  0  0
   -4.3662   -0.9679    1.6939 H   0  0  0  0  0  0  0  0  0  0  0  0
   -3.3181    0.3915    2.1489 H   0  0  0  0  0  0  0  0  0  0  0  0
  1  2  2  0
  2  3  1  0
  3  4  1  0
  4  5  2  0
  5  6  1  0
  6  7  1  0
  7  8  2  0
  8  9  1  0
  9 10  2  0
 10 11  1  0
 11 12  2  0
  2 13  1  0
 13 14  1  0
 14 15  1  0
 15 16  1  0
 15 17  1  0
 17 18  1  0
 18 19  1  0
 19 20  1  0
 20 21  1  0
 21 22  2  0
 22 23  1  0
 23 24  2  0
 24 25  1  0
 25 26  2  0
 26 27  1  0
 12  4  1  0
 27 18  1  0
 12  7  1  0
 26 21  1  0
  3 28  1  0
  3 29  1  0
  5 30  1  0
  6 31  1  0
  8 32  1  0
 10 33  1  0
 11 34  1  0
 13 35  1  0
 14 36  1  0
 14 37  1  0
 15 38  1  6
 16 39  1  0
 17 40  1  0
 17 41  1  0
 19 42  1  0
 19 43  1  0
 20 44  1  0
 20 45  1  0
 22 46  1  0
 23 47  1  0
 24 48  1  0
 25 49  1  0
 27 50  1  0
 27 51  1  0
M  END
$$$$
OCNT-2318390
     RDKit          3D

 38 41  0  0  0  0  0  0  0  0999 V2000
   -3.4686   -1.0108   -1.2088 C   0  0  0  0  0  0  0  0  0  0  0  0
   -2.6192   -0.3853   -0.2284 N   0  0  0  0  0  0  0  0  0  0  0  0
   -3.0431    0.4604    0.7701 C   0  0  0  0  0  0  0  0  0  0  0  0
   -4.5180    0.8779    1.0396 C   0  0  0  0  0  0  0  0  0  0  0  0
   -5.2056    1.8048    0.0711 C   0  0  0  0  0  0  0  0  0  0  0  0
   -4.8071    2.3044    1.4288 C   0  0  0  0  0  0  0  0  0  0  0  0
   -2.0345    0.8913    1.5008 N   0  0  0  0  0  0  0  0  0  0  0  0
   -0.9185    0.3270    0.9435 C   0  0  0  0  0  0  0  0  0  0  0  0
   -1.2639   -0.4844   -0.1128 C   0  0  0  0  0  0  0  0  0  0  0  0
   -0.2920   -1.2431   -0.9248 C   0  0  0  0  0  0  0  0  0  0  0  0
    1.0137   -1.4039   -0.1100 C   0  0  0  0  0  0  0  0  0  0  0  0
    1.4581   -0.1621    0.5703 N   0  0  0  0  0  0  0  0  0  0  0  0
    2.7796    0.2649    0.7068 C   0  0  0  0  0  0  0  0  0  0  0  0
    3.0497    1.3096    1.2938 O   0  0  0  0  0  0  0  0  0  0  0  0
    3.7193   -0.5780    0.1542 N   0  0  0  0  0  0  0  0  0  0  0  0
    5.0570   -0.2804   -0.0262 C   0  0  0  0  0  0  0  0  0  0  0  0
    6.0756   -1.1565   -0.3355 C   0  0  0  0  0  0  0  0  0  0  0  0
    7.3043   -0.4484   -0.4787 C   0  0  0  0  0  0  0  0  0  0  0  0
    7.2638    0.8705   -0.3157 N   0  0  0  0  0  0  0  0  0  0  0  0
    5.6937    1.2998    0.0281 S   0  0  0  0  0  0  0  0  0  0  0  0
    0.4734    0.5516    1.4234 C   0  0  0  0  0  0  0  0  0  0  0  0
   -4.3537   -1.4127   -0.7084 H   0  0  0  0  0  0  0  0  0  0  0  0
   -3.7544   -0.2563   -1.9463 H   0  0  0  0  0  0  0  0  0  0  0  0
   -2.9334   -1.8265   -1.6994 H   0  0  0  0  0  0  0  0  0  0  0  0
   -5.1136    0.1139    1.5273 H   0  0  0  0  0  0  0  0  0  0  0  0
   -6.2603    1.6483   -0.1203 H   0  0  0  0  0  0  0  0  0  0  0  0
   -4.6483    2.1819   -0.7789 H   0  0  0  0  0  0  0  0  0  0  0  0
   -5.5845    2.4777    2.1628 H   0  0  0  0  0  0  0  0  0  0  0  0
   -3.9716    2.9932    1.4985 H   0  0  0  0  0  0  0  0  0  0  0  0
   -0.6719   -2.2309   -1.2035 H   0  0  0  0  0  0  0  0  0  0  0  0
   -0.0824   -0.6858   -1.8453 H   0  0  0  0  0  0  0  0  0  0  0  0
    1.7817   -1.7763   -0.7925 H   0  0  0  0  0  0  0  0  0  0  0  0
    0.8794   -2.1557    0.6780 H   0  0  0  0  0  0  0  0  0  0  0  0
    3.4872   -1.5560    0.1223 H   0  0  0  0  0  0  0  0  0  0  0  0
    5.9641   -2.2254   -0.4501 H   0  0  0  0  0  0  0  0  0  0  0  0
    8.2663   -0.8870   -0.7122 H   0  0  0  0  0  0  0  0  0  0  0  0
    0.5843    0.1639    2.4422 H   0  0  0  0  0  0  0  0  0  0  0  0
    0.6932    1.6243    1.4348 H   0  0  0  0  0  0  0  0  0  0  0  0
  1  2  1  0
  2  3  1  0
  3  4  1  0
  4  5  1  0
  5  6  1  0
  3  7  2  0
  7  8  1  0
  8  9  2  0
  9 10  1  0
 10 11  1  0
 11 12  1  0
 12 13  1  0
 13 14  2  0
 13 15  1  0
 15 16  1  0
 16 17  2  0
 17 18  1  0
 18 19  2  0
 19 20  1  0
 12 21  1  0
  9  2  1  0
 20 16  1  0
  6  4  1  0
 21  8  1  0
  1 22  1  0
  1 23  1  0
  1 24  1  0
  4 25  1  0
  5 26  1  0
  5 27  1  0
  6 28  1  0
  6 29  1  0
 10 30  1  0
 10 31  1  0
 11 32  1  0
 11 33  1  0
 15 34  1  0
 17 35  1  0
 18 36  1  0
 21 37  1  0
 21 38  1  0
M  END
$$$$
OCNT-2318391
     RDKit          3D

  0  0  0  0  0  0  0  0  0  0999 V3000
M  V30 BEGIN CTAB
M  V30 COUNTS 53 56 0 0 0
M  V30 BEGIN ATOM
M  V30 1 O -2.749316 -2.264645 2.185919 0
M  V30 2 C -2.667345 -1.797446 0.851401 0 CFG=1
M  V30 3 C -3.805127 -0.829953 0.521611 0
M  V30 4 C -3.173007 0.289056 -0.330020 0
M  V30 5 C -3.954925 0.630765 -1.598598 0
M  V30 6 N -5.220389 1.282508 -1.329231 0
M  V30 7 C -5.398228 2.603669 -1.027578 0
M  V30 8 C -6.758444 2.754148 -0.889351 0
M  V30 9 N -7.403887 1.565003 -1.109938 0
M  V30 10 C -6.452852 0.698013 -1.375350 0
M  V30 11 C -1.750517 -0.199301 -0.639598 0
M  V30 12 C -1.381565 -0.984387 0.616594 0 CFG=2
M  V30 13 N -0.218219 -1.868404 0.493356 0
M  V30 14 C 1.065854 -1.156064 0.397489 0
M  V30 15 C 2.181056 -2.135732 0.018400 0
M  V30 16 C 3.503758 -1.377039 -0.164832 0
M  V30 17 N 3.804801 -0.392874 0.884713 0
M  V30 18 C 3.891654 0.989741 0.389361 0
M  V30 19 C 5.114622 1.227495 -0.434229 0
M  V30 20 C 5.357040 1.254259 -1.793555 0
M  V30 21 C 6.732458 1.550749 -1.950447 0
M  V30 22 C 7.240233 1.693976 -0.681114 0
M  V30 23 O 6.266003 1.507842 0.245155 0
M  V30 24 C 2.917875 -0.512708 2.041161 0
M  V30 25 C 1.427636 -0.421584 1.701096 0
M  V30 26 H -1.876439 -2.657339 2.379925 0
M  V30 27 H -2.718342 -2.663795 0.179395 0
M  V30 28 H -4.259226 -0.411880 1.427725 0
M  V30 29 H -4.597979 -1.364334 -0.013414 0
M  V30 30 H -3.094083 1.186511 0.299632 0
M  V30 31 H -4.157256 -0.267049 -2.194685 0
M  V30 32 H -3.377160 1.316383 -2.230478 0
M  V30 33 H -4.578967 3.302470 -0.935099 0
M  V30 34 H -7.307282 3.654611 -0.645592 0
M  V30 35 H -6.604417 -0.349424 -1.601183 0
M  V30 36 H -1.071623 0.639088 -0.825735 0
M  V30 37 H -1.743635 -0.846719 -1.525964 0
M  V30 38 H -1.242701 -0.306279 1.468678 0
M  V30 39 H -0.331423 -2.472878 -0.321446 0
M  V30 40 H 1.002009 -0.419711 -0.414264 0
M  V30 41 H 1.938734 -2.656505 -0.916580 0
M  V30 42 H 2.292850 -2.909448 0.789477 0
M  V30 43 H 3.487269 -0.913699 -1.158910 0
M  V30 44 H 4.320363 -2.108541 -0.191358 0
M  V30 45 H 3.939587 1.687038 1.236294 0
M  V30 46 H 2.995661 1.261762 -0.182446 0
M  V30 47 H 4.630121 1.076350 -2.573054 0
M  V30 48 H 7.287192 1.647963 -2.872781 0
M  V30 49 H 8.221392 1.917176 -0.286255 0
M  V30 50 H 3.168779 0.233029 2.805937 0
M  V30 51 H 3.114645 -1.478672 2.525529 0
M  V30 52 H 0.869090 -0.832453 2.552169 0
M  V30 53 H 1.123671 0.629260 1.613681 0
M  V30 END ATOM
M  V30 BEGIN BOND
M  V30 1 1 1 2
M  V30 2 1 2 3
M  V30 3 1 3 4
M  V30 4 1 4 5
M  V30 5 1 5 6
M  V30 6 1 6 7
M  V30 7 2 7 8
M  V30 8 1 8 9
M  V30 9 2 9 10
M  V30 10 1 4 11
M  V30 11 1 11 12
M  V30 12 1 12 13
M  V30 13 1 13 14
M  V30 14 1 14 15
M  V30 15 1 15 16
M  V30 16 1 16 17
M  V30 17 1 17 18
M  V30 18 1 18 19
M  V30 19 2 19 20
M  V30 20 1 20 21
M  V30 21 2 21 22
M  V30 22 1 22 23
M  V30 23 1 17 24
M  V30 24 1 24 25
M  V30 25 1 12 2
M  V30 26 1 25 14
M  V30 27 1 10 6
M  V30 28 1 23 19
M  V30 29 1 1 26
M  V30 30 1 2 27 CFG=3
M  V30 31 1 3 28
M  V30 32 1 3 29
M  V30 33 1 4 30
M  V30 34 1 5 31
M  V30 35 1 5 32
M  V30 36 1 7 33
M  V30 37 1 8 34
M  V30 38 1 10 35
M  V30 39 1 11 36
M  V30 40 1 11 37
M  V30 41 1 12 38 CFG=1
M  V30 42 1 13 39
M  V30 43 1 14 40
M  V30 44 1 15 41
M  V30 45 1 15 42
M  V30 46 1 16 43
M  V30 47 1 16 44
M  V30 48 1 18 45
M  V30 49 1 18 46
M  V30 50 1 20 47
M  V30 51 1 21 48
M  V30 52 1 22 49
M  V30 53 1 24 50
M  V30 54 1 24 51
M  V30 55 1 25 52
M  V30 56 1 25 53
M  V30 END BOND
M  V30 BEGIN COLLECTION
M  V30 MDLV30/STERAC1 ATOMS=(2 2 12)
M  V30 END COLLECTION
M  V30 END CTAB
M  END
>  <_CXSMILES_Data>  (1350) 
|&1:1,11|

$$$$
OCNT-2318397
     RDKit          3D

 41 43  0  0  0  0  0  0  0  0999 V2000
   -1.3806    0.7899   -1.8671 C   0  0  0  0  0  0  0  0  0  0  0  0
   -1.3889   -0.1932   -0.6910 C   0  0  0  0  0  0  0  0  0  0  0  0
    0.0583   -0.5082   -0.2225 C   0  0  0  0  0  0  0  0  0  0  0  0
    0.7189    0.5906    0.4922 N   0  0  0  0  0  0  0  0  0  0  0  0
    2.0937    0.8269    0.5244 C   0  0  0  0  0  0  0  0  0  0  0  0
    2.5551    1.8835    0.9621 O   0  0  0  0  0  0  0  0  0  0  0  0
    3.0657   -0.2041    0.0308 C   0  0  0  0  0  0  0  0  0  0  0  0
    4.3136    0.2173   -0.3834 C   0  0  0  0  0  0  0  0  0  0  0  0
    5.1914   -0.7695   -0.7859 C   0  0  0  0  0  0  0  0  0  0  0  0
    6.5721   -0.3828   -1.2654 C   0  0  0  0  0  0  0  0  0  0  0  0
    7.2621    0.3463   -0.3419 F   0  0  0  0  0  0  0  0  0  0  0  0
    6.5333    0.3901   -2.3890 F   0  0  0  0  0  0  0  0  0  0  0  0
    4.8514   -2.0822   -0.7695 N   0  0  0  0  0  0  0  0  0  0  0  0
    3.6200   -2.3810   -0.3320 C   0  0  0  0  0  0  0  0  0  0  0  0
    2.6967   -1.5041    0.0727 N   0  0  0  0  0  0  0  0  0  0  0  0
   -0.1609    1.5469    1.1620 C   0  0  0  0  0  0  0  0  0  0  0  0
   -1.5143    0.9407    1.5590 C   0  0  0  0  0  0  0  0  0  0  0  0
   -2.2291    0.3420    0.4113 N   0  0  0  0  0  0  0  0  0  0  0  0
   -3.5437   -0.1046    0.5747 C   0  0  0  0  0  0  0  0  0  0  0  0
   -4.3030   -0.5917   -0.4975 C   0  0  0  0  0  0  0  0  0  0  0  0
   -5.6127   -1.0145   -0.2981 C   0  0  0  0  0  0  0  0  0  0  0  0
   -6.2381   -0.9904    0.8921 N   0  0  0  0  0  0  0  0  0  0  0  0
   -5.5170   -0.5099    1.9206 C   0  0  0  0  0  0  0  0  0  0  0  0
   -4.2043   -0.0637    1.8101 C   0  0  0  0  0  0  0  0  0  0  0  0
   -0.9430    1.7553   -1.5979 H   0  0  0  0  0  0  0  0  0  0  0  0
   -2.3941    0.9883   -2.2292 H   0  0  0  0  0  0  0  0  0  0  0  0
   -0.8025    0.3830   -2.7036 H   0  0  0  0  0  0  0  0  0  0  0  0
   -1.7895   -1.1496   -1.0504 H   0  0  0  0  0  0  0  0  0  0  0  0
    0.0280   -1.3537    0.4759 H   0  0  0  0  0  0  0  0  0  0  0  0
    0.6569   -0.8011   -1.0906 H   0  0  0  0  0  0  0  0  0  0  0  0
    4.5915    1.2654   -0.3873 H   0  0  0  0  0  0  0  0  0  0  0  0
    7.1641   -1.2738   -1.4947 H   0  0  0  0  0  0  0  0  0  0  0  0
    3.3491   -3.4314   -0.3057 H   0  0  0  0  0  0  0  0  0  0  0  0
    0.3392    1.9381    2.0556 H   0  0  0  0  0  0  0  0  0  0  0  0
   -0.3054    2.3920    0.4795 H   0  0  0  0  0  0  0  0  0  0  0  0
   -2.1165    1.7423    2.0031 H   0  0  0  0  0  0  0  0  0  0  0  0
   -1.3457    0.1689    2.3209 H   0  0  0  0  0  0  0  0  0  0  0  0
   -3.9104   -0.6354   -1.5055 H   0  0  0  0  0  0  0  0  0  0  0  0
   -6.2070   -1.3898   -1.1261 H   0  0  0  0  0  0  0  0  0  0  0  0
   -6.0318   -0.4881    2.8768 H   0  0  0  0  0  0  0  0  0  0  0  0
   -3.7225    0.2970    2.7104 H   0  0  0  0  0  0  0  0  0  0  0  0
  1  2  1  0
  2  3  1  0
  3  4  1  0
  4  5  1  0
  5  6  2  0
  5  7  1  0
  7  8  2  0
  8  9  1  0
  9 10  1  0
 10 11  1  0
 10 12  1  0
  9 13  2  0
 13 14  1  0
 14 15  2  0
  4 16  1  0
 16 17  1  0
 17 18  1  0
 18 19  1  0
 19 20  2  0
 20 21  1  0
 21 22  2  0
 22 23  1  0
 23 24  2  0
 18  2  1  0
 24 19  1  0
 15  7  1  0
  1 25  1  0
  1 26  1  0
  1 27  1  0
  2 28  1  0
  3 29  1  0
  3 30  1  0
  8 31  1  0
 10 32  1  0
 14 33  1  0
 16 34  1  0
 16 35  1  0
 17 36  1  0
 17 37  1  0
 20 38  1  0
 21 39  1  0
 23 40  1  0
 24 41  1  0
M  END
$$$$
OCNT-2318399
     RDKit          3D

 41 43  0  0  0  0  0  0  0  0999 V2000
    2.8343    1.0848   -1.2744 O   0  0  0  0  0  0  0  0  0  0  0  0
    2.8828    0.1576   -0.4754 C   0  0  0  0  0  0  0  0  0  0  0  0
    4.0069   -0.2969    0.1922 N   0  0  0  0  0  0  0  0  0  0  0  0
    5.3353    0.1539    0.0260 C   0  0  0  0  0  0  0  0  0  0  0  0
    6.3066   -0.3849    0.8713 C   0  0  0  0  0  0  0  0  0  0  0  0
    7.6196    0.0352    0.7280 C   0  0  0  0  0  0  0  0  0  0  0  0
    8.0215    0.9383   -0.1875 N   0  0  0  0  0  0  0  0  0  0  0  0
    7.0651    1.4419   -0.9960 C   0  0  0  0  0  0  0  0  0  0  0  0
    5.7270    1.0852   -0.9302 C   0  0  0  0  0  0  0  0  0  0  0  0
    1.6118   -0.5392   -0.1246 C   0  0  0  0  0  0  0  0  0  0  0  0
    1.5795   -1.9020    0.2041 C   0  0  0  0  0  0  0  0  0  0  0  0
    0.3666   -2.5117    0.5293 C   0  0  0  0  0  0  0  0  0  0  0  0
   -0.8124   -1.7664    0.5219 C   0  0  0  0  0  0  0  0  0  0  0  0
   -0.7842   -0.4140    0.1808 C   0  0  0  0  0  0  0  0  0  0  0  0
   -2.0087    0.3300    0.1337 N   0  0  0  0  0  0  0  0  0  0  0  0
   -2.9367    0.0743   -1.2791 S   0  0  0  0  0  0  0  0  0  0  0  0
   -2.5273    1.1270   -2.1886 O   0  0  0  0  0  0  0  0  0  0  0  0
   -2.9244   -1.3136   -1.6839 O   0  0  0  0  0  0  0  0  0  0  0  0
   -4.5753    0.4641   -0.7218 C   0  0  0  0  0  0  0  0  0  0  0  0
   -5.2636    1.5223   -1.3349 C   0  0  0  0  0  0  0  0  0  0  0  0
   -6.5590    1.8450   -0.9275 C   0  0  0  0  0  0  0  0  0  0  0  0
   -7.1706    1.1120    0.0886 C   0  0  0  0  0  0  0  0  0  0  0  0
   -6.4842    0.0580    0.6937 C   0  0  0  0  0  0  0  0  0  0  0  0
   -7.2629   -0.8342    1.9504 Cl  0  0  0  0  0  0  0  0  0  0  0  0
   -5.1838   -0.2731    0.2937 C   0  0  0  0  0  0  0  0  0  0  0  0
   -4.5235   -1.3053    0.9014 O   0  0  0  0  0  0  0  0  0  0  0  0
    0.4210    0.1995   -0.1577 C   0  0  0  0  0  0  0  0  0  0  0  0
    3.8637   -0.9759    0.9278 H   0  0  0  0  0  0  0  0  0  0  0  0
    6.0640   -1.1161    1.6333 H   0  0  0  0  0  0  0  0  0  0  0  0
    8.4062   -0.3569    1.3663 H   0  0  0  0  0  0  0  0  0  0  0  0
    7.4107    2.1661   -1.7285 H   0  0  0  0  0  0  0  0  0  0  0  0
    5.0344    1.5394   -1.6274 H   0  0  0  0  0  0  0  0  0  0  0  0
    2.4783   -2.5119    0.1745 H   0  0  0  0  0  0  0  0  0  0  0  0
    0.3323   -3.5718    0.7692 H   0  0  0  0  0  0  0  0  0  0  0  0
   -1.7582   -2.2482    0.7605 H   0  0  0  0  0  0  0  0  0  0  0  0
   -1.8300    1.3347    0.1798 H   0  0  0  0  0  0  0  0  0  0  0  0
   -4.8022    2.0968   -2.1370 H   0  0  0  0  0  0  0  0  0  0  0  0
   -7.0919    2.6641   -1.4060 H   0  0  0  0  0  0  0  0  0  0  0  0
   -8.1808    1.3648    0.4016 H   0  0  0  0  0  0  0  0  0  0  0  0
   -5.1347   -1.7189    1.5405 H   0  0  0  0  0  0  0  0  0  0  0  0
    0.4470    1.2462   -0.4517 H   0  0  0  0  0  0  0  0  0  0  0  0
  1  2  2  0
  2  3  1  0
  3  4  1  0
  4  5  2  0
  5  6  1  0
  6  7  2  0
  7  8  1  0
  8  9  2  0
  2 10  1  0
 10 11  1  0
 11 12  2  0
 12 13  1  0
 13 14  2  0
 14 15  1  0
 15 16  1  0
 16 17  2  0
 16 18  2  0
 16 19  1  0
 19 20  2  0
 20 21  1  0
 21 22  2  0
 22 23  1  0
 23 24  1  0
 23 25  2  0
 25 26  1  0
 14 27  1  0
  9  4  1  0
 27 10  2  0
 25 19  1  0
  3 28  1  0
  5 29  1  0
  6 30  1  0
  8 31  1  0
  9 32  1  0
 11 33  1  0
 12 34  1  0
 13 35  1  0
 15 36  1  0
 20 37  1  0
 21 38  1  0
 22 39  1  0
 26 40  1  0
 27 41  1  0
M  END
$$$$
OCNT-2318401
     RDKit          3D

 40 43  0  0  0  0  0  0  0  0999 V2000
    5.0859    1.7037   -0.9786 C   0  0  0  0  0  0  0  0  0  0  0  0
    3.9456    0.8847   -0.5014 C   0  0  0  0  0  0  0  0  0  0  0  0
    2.7879    0.8752   -1.1809 N   0  0  0  0  0  0  0  0  0  0  0  0
    1.9890    0.0756   -0.4314 N   0  0  0  0  0  0  0  0  0  0  0  0
    0.6297   -0.1969   -0.8513 C   0  0  0  0  0  0  0  0  0  0  0  0
   -0.3887    0.6551   -0.1146 C   0  0  0  0  0  0  0  0  0  0  0  0
   -0.0755    1.4149    0.8028 O   0  0  0  0  0  0  0  0  0  0  0  0
   -1.7258    0.5321   -0.5333 N   0  0  0  0  0  0  0  0  0  0  0  0
   -2.1299   -0.2559   -1.6996 C   0  0  0  0  0  0  0  0  0  0  0  0
   -3.6177   -0.5936   -1.7979 C   0  0  0  0  0  0  0  0  0  0  0  0
   -4.1307   -1.3433   -0.5740 C   0  0  0  0  0  0  0  0  0  0  0  0
   -4.2113   -0.5623    0.6403 N   0  0  0  0  0  0  0  0  0  0  0  0
   -4.9646   -1.0245    1.6552 N   0  0  0  0  0  0  0  0  0  0  0  0
   -4.8340   -0.1820    2.6693 N   0  0  0  0  0  0  0  0  0  0  0  0
   -3.9912    0.8163    2.2793 C   0  0  0  0  0  0  0  0  0  0  0  0
   -3.5886    0.6076    0.9776 C   0  0  0  0  0  0  0  0  0  0  0  0
   -2.7113    1.4045    0.0943 C   0  0  0  0  0  0  0  0  0  0  0  0
    2.6269   -0.5005    0.6325 C   0  0  0  0  0  0  0  0  0  0  0  0
    2.1109   -1.3976    1.4985 N   0  0  0  0  0  0  0  0  0  0  0  0
    2.9869   -1.7486    2.4683 C   0  0  0  0  0  0  0  0  0  0  0  0
    4.2906   -1.2817    2.5938 C   0  0  0  0  0  0  0  0  0  0  0  0
    4.7802   -0.3693    1.6572 C   0  0  0  0  0  0  0  0  0  0  0  0
    3.9077    0.0321    0.6344 C   0  0  0  0  0  0  0  0  0  0  0  0
    5.8855    1.0578   -1.3549 H   0  0  0  0  0  0  0  0  0  0  0  0
    5.4888    2.3126   -0.1629 H   0  0  0  0  0  0  0  0  0  0  0  0
    4.7862    2.3800   -1.7859 H   0  0  0  0  0  0  0  0  0  0  0  0
    0.4325   -1.2569   -0.6630 H   0  0  0  0  0  0  0  0  0  0  0  0
    0.5756   -0.0024   -1.9274 H   0  0  0  0  0  0  0  0  0  0  0  0
   -1.5558   -1.1878   -1.7156 H   0  0  0  0  0  0  0  0  0  0  0  0
   -1.8338    0.3178   -2.5859 H   0  0  0  0  0  0  0  0  0  0  0  0
   -3.7644   -1.2251   -2.6829 H   0  0  0  0  0  0  0  0  0  0  0  0
   -4.2121    0.3121   -1.9667 H   0  0  0  0  0  0  0  0  0  0  0  0
   -5.1447   -1.7055   -0.7819 H   0  0  0  0  0  0  0  0  0  0  0  0
   -3.4997   -2.2119   -0.3533 H   0  0  0  0  0  0  0  0  0  0  0  0
   -3.7247    1.6244    2.9459 H   0  0  0  0  0  0  0  0  0  0  0  0
   -3.2845    1.9175   -0.6856 H   0  0  0  0  0  0  0  0  0  0  0  0
   -2.2251    2.1937    0.6779 H   0  0  0  0  0  0  0  0  0  0  0  0
    2.5931   -2.4592    3.1920 H   0  0  0  0  0  0  0  0  0  0  0  0
    4.9174   -1.6243    3.4104 H   0  0  0  0  0  0  0  0  0  0  0  0
    5.7935    0.0116    1.7216 H   0  0  0  0  0  0  0  0  0  0  0  0
  1  2  1  0
  2  3  2  0
  3  4  1  0
  4  5  1  0
  5  6  1  0
  6  7  2  0
  6  8  1  0
  8  9  1  0
  9 10  1  0
 10 11  1  0
 11 12  1  0
 12 13  1  0
 13 14  2  0
 14 15  1  0
 15 16  2  0
 16 17  1  0
  4 18  1  0
 18 19  1  0
 19 20  2  0
 20 21  1  0
 21 22  2  0
 22 23  1  0
 23  2  1  0
 17  8  1  0
 23 18  2  0
 16 12  1  0
  1 24  1  0
  1 25  1  0
  1 26  1  0
  5 27  1  0
  5 28  1  0
  9 29  1  0
  9 30  1  0
 10 31  1  0
 10 32  1  0
 11 33  1  0
 11 34  1  0
 15 35  1  0
 17 36  1  0
 17 37  1  0
 20 38  1  0
 21 39  1  0
 22 40  1  0
M  END
$$$$
OCNT-2318404
     RDKit          3D

 59 62  0  0  0  0  0  0  0  0999 V2000
    3.8938    1.7591    1.1895 C   0  0  0  0  0  0  0  0  0  0  0  0
    3.6541    0.3585    1.7373 C   0  0  0  0  0  0  0  0  0  0  0  0
    3.9167   -0.7130    0.7266 C   0  0  0  0  0  0  0  0  0  0  0  0
    2.9952   -1.4582   -0.0108 C   0  0  0  0  0  0  0  0  0  0  0  0
    1.5462   -1.4547   -0.1071 C   0  0  0  0  0  0  0  0  0  0  0  0
    0.8816   -2.4656   -0.3109 O   0  0  0  0  0  0  0  0  0  0  0  0
    0.9593   -0.2097    0.0224 N   0  0  0  0  0  0  0  0  0  0  0  0
   -0.4915    0.0444   -0.1125 C   0  0  0  0  0  0  0  0  0  0  0  0
   -1.2922   -0.7759    0.9374 C   0  0  0  0  0  0  0  0  0  0  0  0
   -2.7213   -0.5047    0.9635 N   0  0  0  0  0  0  0  0  0  0  0  0
   -3.3158    0.2602    1.9384 C   0  0  0  0  0  0  0  0  0  0  0  0
   -2.6748    0.8223    2.8245 O   0  0  0  0  0  0  0  0  0  0  0  0
   -4.8197    0.4718    1.8106 C   0  0  0  0  0  0  0  0  0  0  0  0
   -5.5700   -0.7604    1.3605 C   0  0  0  0  0  0  0  0  0  0  0  0
   -5.5685   -0.7338   -0.0774 O   0  0  0  0  0  0  0  0  0  0  0  0
   -5.3135    0.6130   -0.5146 C   0  0  0  0  0  0  0  0  0  0  0  0
   -6.4270    1.0728   -1.4369 C   0  0  0  0  0  0  0  0  0  0  0  0
   -5.1593    1.4732    0.7299 C   0  0  0  0  0  0  0  0  0  0  0  0
   -0.7275    1.5653    0.0149 C   0  0  0  0  0  0  0  0  0  0  0  0
   -0.4206    2.1529   -1.3685 C   0  0  0  0  0  0  0  0  0  0  0  0
   -0.3967    0.9763   -2.3405 C   0  0  0  0  0  0  0  0  0  0  0  0
   -0.9577   -0.2073   -1.5579 C   0  0  0  0  0  0  0  0  0  0  0  0
    3.6555   -2.3875   -0.7700 O   0  0  0  0  0  0  0  0  0  0  0  0
    4.9844   -2.2432   -0.5423 C   0  0  0  0  0  0  0  0  0  0  0  0
    5.9889   -3.0058   -1.1326 C   0  0  0  0  0  0  0  0  0  0  0  0
    7.3018   -2.7129   -0.7495 C   0  0  0  0  0  0  0  0  0  0  0  0
    7.5739   -1.7047    0.1798 C   0  0  0  0  0  0  0  0  0  0  0  0
    6.5385   -0.9519    0.7531 C   0  0  0  0  0  0  0  0  0  0  0  0
    5.2086   -1.2279    0.3762 C   0  0  0  0  0  0  0  0  0  0  0  0
    3.2429    1.9755    0.3365 H   0  0  0  0  0  0  0  0  0  0  0  0
    3.6970    2.5065    1.9650 H   0  0  0  0  0  0  0  0  0  0  0  0
    4.9297    1.8834    0.8570 H   0  0  0  0  0  0  0  0  0  0  0  0
    2.6291    0.2838    2.1187 H   0  0  0  0  0  0  0  0  0  0  0  0
    4.3075    0.2002    2.6055 H   0  0  0  0  0  0  0  0  0  0  0  0
    1.5760    0.5874   -0.0268 H   0  0  0  0  0  0  0  0  0  0  0  0
   -1.2052   -1.8486    0.7421 H   0  0  0  0  0  0  0  0  0  0  0  0
   -0.8738   -0.5992    1.9352 H   0  0  0  0  0  0  0  0  0  0  0  0
   -3.3042   -0.9958    0.2921 H   0  0  0  0  0  0  0  0  0  0  0  0
   -5.1731    0.7927    2.7968 H   0  0  0  0  0  0  0  0  0  0  0  0
   -6.6157   -0.7247    1.6867 H   0  0  0  0  0  0  0  0  0  0  0  0
   -5.1327   -1.7031    1.7046 H   0  0  0  0  0  0  0  0  0  0  0  0
   -4.3745    0.5988   -1.0755 H   0  0  0  0  0  0  0  0  0  0  0  0
   -6.4414    0.4552   -2.3407 H   0  0  0  0  0  0  0  0  0  0  0  0
   -6.2969    2.1171   -1.7355 H   0  0  0  0  0  0  0  0  0  0  0  0
   -7.4086    0.9558   -0.9688 H   0  0  0  0  0  0  0  0  0  0  0  0
   -6.1032    1.9753    0.9751 H   0  0  0  0  0  0  0  0  0  0  0  0
   -4.3978    2.2464    0.5854 H   0  0  0  0  0  0  0  0  0  0  0  0
   -1.7748    1.7975    0.2463 H   0  0  0  0  0  0  0  0  0  0  0  0
   -0.1116    2.0301    0.7947 H   0  0  0  0  0  0  0  0  0  0  0  0
   -1.1969    2.8793   -1.6509 H   0  0  0  0  0  0  0  0  0  0  0  0
    0.5410    2.6847   -1.3749 H   0  0  0  0  0  0  0  0  0  0  0  0
   -0.9773    1.1790   -3.2467 H   0  0  0  0  0  0  0  0  0  0  0  0
    0.6369    0.7713   -2.6500 H   0  0  0  0  0  0  0  0  0  0  0  0
   -2.0517   -0.1950   -1.6291 H   0  0  0  0  0  0  0  0  0  0  0  0
   -0.6096   -1.1564   -1.9766 H   0  0  0  0  0  0  0  0  0  0  0  0
    5.7558   -3.7886   -1.8453 H   0  0  0  0  0  0  0  0  0  0  0  0
    8.1218   -3.2844   -1.1796 H   0  0  0  0  0  0  0  0  0  0  0  0
    8.6036   -1.5022    0.4672 H   0  0  0  0  0  0  0  0  0  0  0  0
    6.7652   -0.1746    1.4779 H   0  0  0  0  0  0  0  0  0  0  0  0
  1  2  1  0
  2  3  1  0
  3  4  2  0
  4  5  1  0
  5  6  2  0
  5  7  1  0
  7  8  1  0
  8  9  1  0
  9 10  1  0
 10 11  1  0
 11 12  2  0
 11 13  1  0
 13 14  1  0
 14 15  1  0
 15 16  1  0
 16 17  1  0
 16 18  1  0
  8 19  1  0
 19 20  1  0
 20 21  1  0
 21 22  1  0
  4 23  1  0
 23 24  1  0
 24 25  2  0
 25 26  1  0
 26 27  2  0
 27 28  1  0
 28 29  2  0
 29  3  1  0
 22  8  1  0
 29 24  1  0
 18 13  1  0
  1 30  1  0
  1 31  1  0
  1 32  1  0
  2 33  1  0
  2 34  1  0
  7 35  1  0
  9 36  1  0
  9 37  1  0
 10 38  1  0
 13 39  1  0
 14 40  1  0
 14 41  1  0
 16 42  1  0
 17 43  1  0
 17 44  1  0
 17 45  1  0
 18 46  1  0
 18 47  1  0
 19 48  1  0
 19 49  1  0
 20 50  1  0
 20 51  1  0
 21 52  1  0
 21 53  1  0
 22 54  1  0
 22 55  1  0
 25 56  1  0
 26 57  1  0
 27 58  1  0
 28 59  1  0
M  END
$$$$
OCNT-2318405
     RDKit          3D

  0  0  0  0  0  0  0  0  0  0999 V3000
M  V30 BEGIN CTAB
M  V30 COUNTS 45 47 0 0 0
M  V30 BEGIN ATOM
M  V30 1 C -0.454696 -1.517550 -3.057633 0
M  V30 2 C -1.217616 -1.495532 -1.737771 0
M  V30 3 C -1.349316 -0.085219 -1.125961 0
M  V30 4 N -0.090130 0.601442 -0.801532 0
M  V30 5 C 0.705996 0.105391 0.333384 0 CFG=1
M  V30 6 C 1.991846 -0.550324 -0.130395 0
M  V30 7 C 2.053754 -1.931051 -0.375535 0
M  V30 8 C 3.232901 -2.526503 -0.827950 0
M  V30 9 C 4.371000 -1.751675 -1.027734 0
M  V30 10 C 4.332285 -0.385525 -0.757379 0
M  V30 11 C 3.154262 0.212061 -0.302880 0
M  V30 12 O 3.256136 1.541872 -0.005441 0
M  V30 13 C 2.076004 2.195688 0.474066 0
M  V30 14 C 1.128518 1.274808 1.248259 0 CFG=1
M  V30 15 C -0.055669 2.053432 1.816674 0
M  V30 16 O 0.387142 2.994154 2.792863 0
M  V30 17 C -2.387639 0.044454 -0.018481 0
M  V30 18 C -3.114797 1.246664 0.095083 0
M  V30 19 C -4.073491 1.413274 1.096725 0
M  V30 20 C -4.311623 0.381305 1.994938 0
M  V30 21 F -5.229743 0.541841 2.956425 0
M  V30 22 C -3.607446 -0.809833 1.914785 0
M  V30 23 C -2.652593 -0.968007 0.914610 0
M  V30 24 F -1.969770 -2.120499 0.882944 0
M  V30 25 H -0.929476 -0.862367 -3.794912 0
M  V30 26 H 0.584027 -1.200125 -2.934910 0
M  V30 27 H -0.445620 -2.532885 -3.467065 0
M  V30 28 H -0.746957 -2.191940 -1.041979 0
M  V30 29 H -2.222173 -1.895710 -1.929729 0
M  V30 30 H -1.769049 0.510888 -1.950606 0
M  V30 31 H 0.502286 0.634884 -1.631935 0
M  V30 32 H 0.147060 -0.611028 0.945179 0
M  V30 33 H 1.186957 -2.561940 -0.201732 0
M  V30 34 H 3.263190 -3.596419 -1.018043 0
M  V30 35 H 5.291701 -2.210936 -1.376978 0
M  V30 36 H 5.226962 0.217970 -0.887651 0
M  V30 37 H 2.419880 3.009014 1.122992 0
M  V30 38 H 1.580240 2.670843 -0.380959 0
M  V30 39 H 1.697940 0.861797 2.094958 0
M  V30 40 H -0.771774 1.384046 2.303145 0
M  V30 41 H -0.580353 2.616600 1.039403 0
M  V30 42 H 0.739484 2.490865 3.547348 0
M  V30 43 H -2.925329 2.066118 -0.597013 0
M  V30 44 H -4.629710 2.341843 1.182962 0
M  V30 45 H -3.794599 -1.606187 2.625457 0
M  V30 END ATOM
M  V30 BEGIN BOND
M  V30 1 1 1 2
M  V30 2 1 2 3
M  V30 3 1 3 4
M  V30 4 1 4 5
M  V30 5 1 5 6
M  V30 6 2 6 7
M  V30 7 1 7 8
M  V30 8 2 8 9
M  V30 9 1 9 10
M  V30 10 2 10 11
M  V30 11 1 11 12
M  V30 12 1 12 13
M  V30 13 1 13 14
M  V30 14 1 14 15
M  V30 15 1 15 16
M  V30 16 1 3 17
M  V30 17 1 17 18
M  V30 18 2 18 19
M  V30 19 1 19 20
M  V30 20 1 20 21
M  V30 21 2 20 22
M  V30 22 1 22 23
M  V30 23 1 23 24
M  V30 24 1 14 5
M  V30 25 2 23 17
M  V30 26 1 11 6
M  V30 27 1 1 25
M  V30 28 1 1 26
M  V30 29 1 1 27
M  V30 30 1 2 28
M  V30 31 1 2 29
M  V30 32 1 3 30
M  V30 33 1 4 31
M  V30 34 1 5 32 CFG=1
M  V30 35 1 7 33
M  V30 36 1 8 34
M  V30 37 1 9 35
M  V30 38 1 10 36
M  V30 39 1 13 37
M  V30 40 1 13 38
M  V30 41 1 14 39 CFG=1
M  V30 42 1 15 40
M  V30 43 1 15 41
M  V30 44 1 16 42
M  V30 45 1 18 43
M  V30 46 1 19 44
M  V30 47 1 22 45
M  V30 END BOND
M  V30 BEGIN COLLECTION
M  V30 MDLV30/STERAC1 ATOMS=(2 5 14)
M  V30 END COLLECTION
M  V30 END CTAB
M  END
>  <_CXSMILES_Data>  (1355) 
|&1:4,13|

$$$$
OCNT-2318428
     RDKit          3D

 47 49  0  0  0  0  0  0  0  0999 V2000
   -3.1896   -3.6111   -2.2463 C   0  0  0  0  0  0  0  0  0  0  0  0
   -2.9809   -2.7023   -1.0485 C   0  0  0  0  0  0  0  0  0  0  0  0
   -2.5235   -1.3146   -1.4510 C   0  0  0  0  0  0  0  0  0  0  0  0
   -2.3577   -0.9575   -2.6101 O   0  0  0  0  0  0  0  0  0  0  0  0
   -2.2834   -0.4956   -0.3691 N   0  0  0  0  0  0  0  0  0  0  0  0
   -2.0567    0.9326   -0.5734 C   0  0  0  0  0  0  0  0  0  0  0  0
   -0.7028    1.3974   -1.2092 C   0  0  0  0  0  0  0  0  0  0  0  0
   -0.6886    2.4725   -1.8276 O   0  0  0  0  0  0  0  0  0  0  0  0
    0.4903    0.7129   -0.9707 N   0  0  0  0  0  0  0  0  0  0  0  0
    0.5934   -0.5678   -0.2881 C   0  0  0  0  0  0  0  0  0  0  0  0
    1.9823   -0.8448    0.2135 C   0  0  0  0  0  0  0  0  0  0  0  0
    3.0673   -0.0669    0.0114 C   0  0  0  0  0  0  0  0  0  0  0  0
    4.3144   -0.4865    0.5967 C   0  0  0  0  0  0  0  0  0  0  0  0
    4.8363   -1.7599    0.7749 C   0  0  0  0  0  0  0  0  0  0  0  0
    6.1167   -1.7638    1.4008 C   0  0  0  0  0  0  0  0  0  0  0  0
    6.5506   -0.4915    1.6853 C   0  0  0  0  0  0  0  0  0  0  0  0
    5.4231    0.6932    1.1983 S   0  0  0  0  0  0  0  0  0  0  0  0
    2.9031    1.1892   -0.8238 C   0  0  0  0  0  0  0  0  0  0  0  0
    1.6732    1.1241   -1.7236 C   0  0  0  0  0  0  0  0  0  0  0  0
   -2.3741    1.6733    0.7241 C   0  0  0  0  0  0  0  0  0  0  0  0
   -3.6998    2.0677    0.9803 C   0  0  0  0  0  0  0  0  0  0  0  0
   -4.0386    2.7081    2.1737 C   0  0  0  0  0  0  0  0  0  0  0  0
   -3.0603    2.9563    3.1325 C   0  0  0  0  0  0  0  0  0  0  0  0
   -1.7441    2.5654    2.8985 C   0  0  0  0  0  0  0  0  0  0  0  0
   -1.4025    1.9246    1.7051 C   0  0  0  0  0  0  0  0  0  0  0  0
   -3.9471   -3.2022   -2.9229 H   0  0  0  0  0  0  0  0  0  0  0  0
   -2.2614   -3.7304   -2.8151 H   0  0  0  0  0  0  0  0  0  0  0  0
   -3.5207   -4.6018   -1.9205 H   0  0  0  0  0  0  0  0  0  0  0  0
   -2.2269   -3.1388   -0.3842 H   0  0  0  0  0  0  0  0  0  0  0  0
   -3.9199   -2.6097   -0.4917 H   0  0  0  0  0  0  0  0  0  0  0  0
   -2.6973   -0.7611    0.5154 H   0  0  0  0  0  0  0  0  0  0  0  0
   -2.8058    1.2424   -1.3182 H   0  0  0  0  0  0  0  0  0  0  0  0
   -0.0756   -0.5855    0.5739 H   0  0  0  0  0  0  0  0  0  0  0  0
    0.3016   -1.3544   -0.9908 H   0  0  0  0  0  0  0  0  0  0  0  0
    2.0590   -1.7498    0.8123 H   0  0  0  0  0  0  0  0  0  0  0  0
    4.3242   -2.6604    0.4583 H   0  0  0  0  0  0  0  0  0  0  0  0
    6.6902   -2.6553    1.6238 H   0  0  0  0  0  0  0  0  0  0  0  0
    7.4801   -0.1973    2.1531 H   0  0  0  0  0  0  0  0  0  0  0  0
    3.7865    1.3423   -1.4551 H   0  0  0  0  0  0  0  0  0  0  0  0
    2.8221    2.0516   -0.1502 H   0  0  0  0  0  0  0  0  0  0  0  0
    1.5331    2.0968   -2.2058 H   0  0  0  0  0  0  0  0  0  0  0  0
    1.8180    0.3900   -2.5269 H   0  0  0  0  0  0  0  0  0  0  0  0
   -4.4797    1.8852    0.2427 H   0  0  0  0  0  0  0  0  0  0  0  0
   -5.0653    3.0176    2.3527 H   0  0  0  0  0  0  0  0  0  0  0  0
   -3.3215    3.4604    4.0594 H   0  0  0  0  0  0  0  0  0  0  0  0
   -0.9779    2.7655    3.6436 H   0  0  0  0  0  0  0  0  0  0  0  0
   -0.3638    1.6401    1.5537 H   0  0  0  0  0  0  0  0  0  0  0  0
  1  2  1  0
  2  3  1  0
  3  4  2  0
  3  5  1  0
  5  6  1  0
  6  7  1  0
  7  8  2  0
  7  9  1  0
  9 10  1  0
 10 11  1  0
 11 12  2  0
 12 13  1  0
 13 14  2  0
 14 15  1  0
 15 16  2  0
 16 17  1  0
 12 18  1  0
 18 19  1  0
  6 20  1  0
 20 21  2  0
 21 22  1  0
 22 23  2  0
 23 24  1  0
 24 25  2  0
 19  9  1  0
 25 20  1  0
 17 13  1  0
  1 26  1  0
  1 27  1  0
  1 28  1  0
  2 29  1  0
  2 30  1  0
  5 31  1  0
  6 32  1  0
 10 33  1  0
 10 34  1  0
 11 35  1  0
 14 36  1  0
 15 37  1  0
 16 38  1  0
 18 39  1  0
 18 40  1  0
 19 41  1  0
 19 42  1  0
 21 43  1  0
 22 44  1  0
 23 45  1  0
 24 46  1  0
 25 47  1  0
M  END
$$$$
OCNT-2318429
     RDKit          3D

 42 45  0  0  0  0  0  0  0  0999 V2000
    6.8299    0.5058    2.1033 C   0  0  0  0  0  0  0  0  0  0  0  0
    6.3505    0.5299    0.6621 C   0  0  0  0  0  0  0  0  0  0  0  0
    6.4075   -0.7494    0.1878 F   0  0  0  0  0  0  0  0  0  0  0  0
    7.2692    1.2242   -0.0713 F   0  0  0  0  0  0  0  0  0  0  0  0
    4.9644    1.1209    0.5498 C   0  0  0  0  0  0  0  0  0  0  0  0
    4.7924    2.5045    0.4271 C   0  0  0  0  0  0  0  0  0  0  0  0
    3.5127    3.0447    0.3313 C   0  0  0  0  0  0  0  0  0  0  0  0
    2.3912    2.2111    0.3530 C   0  0  0  0  0  0  0  0  0  0  0  0
    2.5378    0.8295    0.4644 C   0  0  0  0  0  0  0  0  0  0  0  0
    1.4558   -0.0729    0.4952 N   0  0  0  0  0  0  0  0  0  0  0  0
    0.1264    0.2043    0.2445 C   0  0  0  0  0  0  0  0  0  0  0  0
   -0.3389    1.2681   -0.1386 O   0  0  0  0  0  0  0  0  0  0  0  0
   -0.6583   -0.9170    0.4722 N   0  0  0  0  0  0  0  0  0  0  0  0
   -2.0839   -0.8660    0.3033 C   0  0  0  0  0  0  0  0  0  0  0  0
   -2.8920   -2.1412    0.2680 C   0  0  0  0  0  0  0  0  0  0  0  0
   -4.3665   -2.1737    0.6485 C   0  0  0  0  0  0  0  0  0  0  0  0
   -5.0341   -1.3658   -0.4399 C   0  0  0  0  0  0  0  0  0  0  0  0
   -6.3857   -1.0870   -0.5662 C   0  0  0  0  0  0  0  0  0  0  0  0
   -6.7854   -0.2964   -1.6371 C   0  0  0  0  0  0  0  0  0  0  0  0
   -8.0849   -0.0055   -1.7832 F   0  0  0  0  0  0  0  0  0  0  0  0
   -5.8634    0.2040   -2.5622 C   0  0  0  0  0  0  0  0  0  0  0  0
   -4.5029   -0.0855   -2.4281 C   0  0  0  0  0  0  0  0  0  0  0  0
   -4.0886   -0.8765   -1.3644 C   0  0  0  0  0  0  0  0  0  0  0  0
   -2.7073   -1.3153   -0.9959 C   0  0  0  0  0  0  0  0  0  0  0  0
    3.8277    0.2931    0.5706 C   0  0  0  0  0  0  0  0  0  0  0  0
    7.8315    0.0679    2.1548 H   0  0  0  0  0  0  0  0  0  0  0  0
    6.1719   -0.0970    2.7382 H   0  0  0  0  0  0  0  0  0  0  0  0
    6.8873    1.5143    2.5258 H   0  0  0  0  0  0  0  0  0  0  0  0
    5.6565    3.1669    0.3970 H   0  0  0  0  0  0  0  0  0  0  0  0
    3.3816    4.1186    0.2322 H   0  0  0  0  0  0  0  0  0  0  0  0
    1.4125    2.6749    0.2799 H   0  0  0  0  0  0  0  0  0  0  0  0
    1.6890   -1.0527    0.5431 H   0  0  0  0  0  0  0  0  0  0  0  0
   -0.3111   -1.5548    1.1731 H   0  0  0  0  0  0  0  0  0  0  0  0
   -2.5303    0.0054    0.7829 H   0  0  0  0  0  0  0  0  0  0  0  0
   -2.3946   -3.0965    0.3480 H   0  0  0  0  0  0  0  0  0  0  0  0
   -4.7396   -3.2026    0.6360 H   0  0  0  0  0  0  0  0  0  0  0  0
   -4.5264   -1.7219    1.6318 H   0  0  0  0  0  0  0  0  0  0  0  0
   -7.1182   -1.4571    0.1431 H   0  0  0  0  0  0  0  0  0  0  0  0
   -6.2126    0.8294   -3.3768 H   0  0  0  0  0  0  0  0  0  0  0  0
   -3.7802    0.3105   -3.1345 H   0  0  0  0  0  0  0  0  0  0  0  0
   -2.0567   -1.7112   -1.7677 H   0  0  0  0  0  0  0  0  0  0  0  0
    3.9657   -0.7819    0.6567 H   0  0  0  0  0  0  0  0  0  0  0  0
  1  2  1  0
  2  3  1  0
  2  4  1  0
  2  5  1  0
  5  6  2  0
  6  7  1  0
  7  8  2  0
  8  9  1  0
  9 10  1  0
 10 11  1  0
 11 12  2  0
 11 13  1  0
 13 14  1  0
 14 15  1  0
 15 16  1  0
 16 17  1  0
 17 18  1  0
 18 19  2  0
 19 20  1  0
 19 21  1  0
 21 22  2  0
 22 23  1  0
 23 24  1  0
  9 25  2  0
 25  5  1  0
 24 14  1  0
 24 15  1  0
 23 17  2  0
  1 26  1  0
  1 27  1  0
  1 28  1  0
  6 29  1  0
  7 30  1  0
  8 31  1  0
 10 32  1  0
 13 33  1  0
 14 34  1  0
 15 35  1  0
 16 36  1  0
 16 37  1  0
 18 38  1  0
 21 39  1  0
 22 40  1  0
 24 41  1  0
 25 42  1  0
M  END
$$$$
OCNT-2318445
     RDKit          3D

 45 47  0  0  0  0  0  0  0  0999 V2000
    4.2906    0.6945    1.1016 C   0  0  0  0  0  0  0  0  0  0  0  0
    3.6473   -0.5091    0.4042 C   0  0  0  0  0  0  0  0  0  0  0  0
    3.8011   -1.7395    1.3120 C   0  0  0  0  0  0  0  0  0  0  0  0
    4.3069   -0.8136   -0.9452 C   0  0  0  0  0  0  0  0  0  0  0  0
    2.2136   -0.3364    0.2655 O   0  0  0  0  0  0  0  0  0  0  0  0
    1.6934    0.6764   -0.4849 C   0  0  0  0  0  0  0  0  0  0  0  0
    2.3796    1.4947   -1.0823 O   0  0  0  0  0  0  0  0  0  0  0  0
    0.3154    0.6383   -0.4678 N   0  0  0  0  0  0  0  0  0  0  0  0
   -0.4702   -0.3623    0.2632 C   0  0  0  0  0  0  0  0  0  0  0  0
   -1.9758   -0.0530    0.0233 C   0  0  0  0  0  0  0  0  0  0  0  0
   -2.6842   -1.2239   -0.6832 C   0  0  0  0  0  0  0  0  0  0  0  0
   -2.8773   -2.4172    0.2523 C   0  0  0  0  0  0  0  0  0  0  0  0
   -3.5915   -2.0281    1.4657 N   0  0  0  0  0  0  0  0  0  0  0  0
   -2.8928   -0.9791    2.2041 C   0  0  0  0  0  0  0  0  0  0  0  0
   -2.7004    0.2694    1.3436 C   0  0  0  0  0  0  0  0  0  0  0  0
   -1.8827    1.1637   -0.8724 C   0  0  0  0  0  0  0  0  0  0  0  0
   -0.5554    1.5185   -1.1233 C   0  0  0  0  0  0  0  0  0  0  0  0
   -0.2469    2.6072   -1.9230 C   0  0  0  0  0  0  0  0  0  0  0  0
   -1.2942    3.3484   -2.4775 C   0  0  0  0  0  0  0  0  0  0  0  0
   -2.6269    2.9961   -2.2285 C   0  0  0  0  0  0  0  0  0  0  0  0
   -2.9285    1.8980   -1.4219 C   0  0  0  0  0  0  0  0  0  0  0  0
    5.3356    0.4928    1.3607 H   0  0  0  0  0  0  0  0  0  0  0  0
    4.2780    1.5887    0.4714 H   0  0  0  0  0  0  0  0  0  0  0  0
    3.7469    0.9486    2.0184 H   0  0  0  0  0  0  0  0  0  0  0  0
    4.8532   -1.9799    1.4976 H   0  0  0  0  0  0  0  0  0  0  0  0
    3.3079   -1.5755    2.2773 H   0  0  0  0  0  0  0  0  0  0  0  0
    3.3191   -2.6166    0.8644 H   0  0  0  0  0  0  0  0  0  0  0  0
    4.2947    0.0531   -1.6127 H   0  0  0  0  0  0  0  0  0  0  0  0
    3.7747   -1.6181   -1.4651 H   0  0  0  0  0  0  0  0  0  0  0  0
    5.3530   -1.1129   -0.8185 H   0  0  0  0  0  0  0  0  0  0  0  0
   -0.1879   -0.3038    1.3211 H   0  0  0  0  0  0  0  0  0  0  0  0
   -0.1765   -1.3532   -0.1031 H   0  0  0  0  0  0  0  0  0  0  0  0
   -3.6698   -0.9031   -1.0477 H   0  0  0  0  0  0  0  0  0  0  0  0
   -2.1219   -1.5409   -1.5710 H   0  0  0  0  0  0  0  0  0  0  0  0
   -3.4597   -3.1856   -0.2679 H   0  0  0  0  0  0  0  0  0  0  0  0
   -1.9140   -2.8723    0.5103 H   0  0  0  0  0  0  0  0  0  0  0  0
   -3.7146   -2.8440    2.0659 H   0  0  0  0  0  0  0  0  0  0  0  0
   -3.4865   -0.7143    3.0861 H   0  0  0  0  0  0  0  0  0  0  0  0
   -1.9305   -1.3530    2.5722 H   0  0  0  0  0  0  0  0  0  0  0  0
   -2.1497    1.0277    1.9151 H   0  0  0  0  0  0  0  0  0  0  0  0
   -3.6872    0.7051    1.1349 H   0  0  0  0  0  0  0  0  0  0  0  0
    0.7781    2.8965   -2.1280 H   0  0  0  0  0  0  0  0  0  0  0  0
   -1.0705    4.2060   -3.1076 H   0  0  0  0  0  0  0  0  0  0  0  0
   -3.4304    3.5828   -2.6672 H   0  0  0  0  0  0  0  0  0  0  0  0
   -3.9632    1.6290   -1.2319 H   0  0  0  0  0  0  0  0  0  0  0  0
  1  2  1  0
  2  3  1  0
  2  4  1  0
  2  5  1  0
  5  6  1  0
  6  7  2  0
  6  8  1  0
  8  9  1  0
  9 10  1  0
 10 11  1  0
 11 12  1  0
 12 13  1  0
 13 14  1  0
 14 15  1  0
 10 16  1  0
 16 17  1  0
 17 18  2  0
 18 19  1  0
 19 20  2  0
 20 21  1  0
 17  8  1  0
 15 10  1  0
 21 16  2  0
  1 22  1  0
  1 23  1  0
  1 24  1  0
  3 25  1  0
  3 26  1  0
  3 27  1  0
  4 28  1  0
  4 29  1  0
  4 30  1  0
  9 31  1  0
  9 32  1  0
 11 33  1  0
 11 34  1  0
 12 35  1  0
 12 36  1  0
 13 37  1  0
 14 38  1  0
 14 39  1  0
 15 40  1  0
 15 41  1  0
 18 42  1  0
 19 43  1  0
 20 44  1  0
 21 45  1  0
M  END
$$$$
OCNT-2318446
     RDKit          3D

  0  0  0  0  0  0  0  0  0  0999 V3000
M  V30 BEGIN CTAB
M  V30 COUNTS 46 49 0 0 0
M  V30 BEGIN ATOM
M  V30 1 C -6.527863 1.379845 -2.161372 0
M  V30 2 C -6.074961 0.142033 -1.475476 0
M  V30 3 C -6.806154 -1.019666 -1.297224 0
M  V30 4 N -6.028493 -1.919297 -0.614674 0
M  V30 5 C -4.807653 -1.366849 -0.346826 0
M  V30 6 N -3.817671 -1.993496 0.316661 0
M  V30 7 C -2.710749 -1.221388 0.454764 0
M  V30 8 C -2.552305 0.071287 -0.036946 0
M  V30 9 C -1.298083 0.833698 0.155828 0
M  V30 10 O -1.323227 2.059295 0.205081 0
M  V30 11 N -0.128018 0.099130 0.241306 0
M  V30 12 C 1.161833 0.774832 0.233108 0 CFG=2
M  V30 13 C 2.321112 -0.204278 0.387911 0
M  V30 14 C 3.481278 0.714093 0.772995 0
M  V30 15 C 4.697811 -0.013423 1.343499 0
M  V30 16 N 5.333887 -0.890891 0.382250 0
M  V30 17 C 5.224210 -2.251809 0.330135 0
M  V30 18 C 6.004589 -2.627557 -0.738474 0
M  V30 19 N 6.584055 -1.532950 -1.326134 0
M  V30 20 C 6.170159 -0.502094 -0.624336 0
M  V30 21 C 2.847374 1.675431 1.785828 0
M  V30 22 C 1.366523 1.765686 1.402084 0 CFG=1
M  V30 23 O 1.046562 3.092509 1.005595 0
M  V30 24 C -3.623064 0.675575 -0.704981 0
M  V30 25 C -4.797995 -0.078008 -0.870789 0
M  V30 26 H -6.501285 2.229868 -1.472121 0
M  V30 27 H -5.878472 1.603512 -3.013768 0
M  V30 28 H -7.552332 1.276548 -2.533303 0
M  V30 29 H -7.813051 -1.280734 -1.596055 0
M  V30 30 H -6.294133 -2.852372 -0.336197 0
M  V30 31 H -1.919394 -1.704511 1.022655 0
M  V30 32 H -0.146361 -0.835259 -0.149666 0
M  V30 33 H 1.237633 1.304174 -0.726158 0
M  V30 34 H 2.511234 -0.753547 -0.539928 0
M  V30 35 H 2.116261 -0.937643 1.178381 0
M  V30 36 H 3.780910 1.289572 -0.114198 0
M  V30 37 H 4.424476 -0.618788 2.216076 0
M  V30 38 H 5.457254 0.706566 1.671319 0
M  V30 39 H 4.626388 -2.822787 1.026141 0
M  V30 40 H 6.182066 -3.626764 -1.114668 0
M  V30 41 H 6.439291 0.530945 -0.803901 0
M  V30 42 H 3.351723 2.647521 1.781479 0
M  V30 43 H 2.928570 1.263219 2.799266 0
M  V30 44 H 0.744104 1.513908 2.268846 0
M  V30 45 H 0.110373 3.055427 0.701465 0
M  V30 46 H -3.548413 1.689669 -1.085475 0
M  V30 END ATOM
M  V30 BEGIN BOND
M  V30 1 1 1 2
M  V30 2 2 2 3
M  V30 3 1 3 4
M  V30 4 1 4 5
M  V30 5 1 5 6
M  V30 6 2 6 7
M  V30 7 1 7 8
M  V30 8 1 8 9
M  V30 9 2 9 10
M  V30 10 1 9 11
M  V30 11 1 11 12
M  V30 12 1 12 13
M  V30 13 1 13 14
M  V30 14 1 14 15
M  V30 15 1 15 16
M  V30 16 1 16 17
M  V30 17 2 17 18
M  V30 18 1 18 19
M  V30 19 2 19 20
M  V30 20 1 14 21
M  V30 21 1 21 22
M  V30 22 1 22 23
M  V30 23 2 8 24
M  V30 24 1 24 25
M  V30 25 1 25 2
M  V30 26 2 25 5
M  V30 27 1 22 12
M  V30 28 1 20 16
M  V30 29 1 1 26
M  V30 30 1 1 27
M  V30 31 1 1 28
M  V30 32 1 3 29
M  V30 33 1 4 30
M  V30 34 1 7 31
M  V30 35 1 11 32
M  V30 36 1 12 33 CFG=3
M  V30 37 1 13 34
M  V30 38 1 13 35
M  V30 39 1 14 36
M  V30 40 1 15 37
M  V30 41 1 15 38
M  V30 42 1 17 39
M  V30 43 1 18 40
M  V30 44 1 20 41
M  V30 45 1 21 42
M  V30 46 1 21 43
M  V30 47 1 22 44 CFG=1
M  V30 48 1 23 45
M  V30 49 1 24 46
M  V30 END BOND
M  V30 BEGIN COLLECTION
M  V30 MDLV30/STERAC1 ATOMS=(2 12 22)
M  V30 END COLLECTION
M  V30 END CTAB
M  END
>  <_CXSMILES_Data>  (1359) 
|&1:11,21|

$$$$
OCNT-2318453
     RDKit          3D

 35 37  0  0  0  0  0  0  0  0999 V2000
   -0.6285    0.0359   -3.0915 O   0  0  0  0  0  0  0  0  0  0  0  0
   -0.3163   -0.0296   -1.9056 C   0  0  0  0  0  0  0  0  0  0  0  0
   -1.1976   -0.4033   -0.9245 N   0  0  0  0  0  0  0  0  0  0  0  0
   -2.5129   -0.9067   -1.2414 C   0  0  0  0  0  0  0  0  0  0  0  0
   -3.4290   -0.8411   -0.0517 C   0  0  0  0  0  0  0  0  0  0  0  0
   -3.6684    0.3758    0.6053 C   0  0  0  0  0  0  0  0  0  0  0  0
   -4.5311    0.4225    1.6990 C   0  0  0  0  0  0  0  0  0  0  0  0
   -4.7362    1.6004    2.3061 F   0  0  0  0  0  0  0  0  0  0  0  0
   -5.1701   -0.7316    2.1497 C   0  0  0  0  0  0  0  0  0  0  0  0
   -6.2371   -0.6751    3.4991 Cl  0  0  0  0  0  0  0  0  0  0  0  0
   -4.9492   -1.9442    1.5022 C   0  0  0  0  0  0  0  0  0  0  0  0
   -4.0861   -1.9869    0.4095 C   0  0  0  0  0  0  0  0  0  0  0  0
   -3.8913   -3.1618   -0.2052 F   0  0  0  0  0  0  0  0  0  0  0  0
    1.0615    0.2918   -1.4364 C   0  0  0  0  0  0  0  0  0  0  0  0
    1.9544    0.7450   -2.3326 C   0  0  0  0  0  0  0  0  0  0  0  0
    3.2515    1.0903   -2.0536 N   0  0  0  0  0  0  0  0  0  0  0  0
    3.7748    0.9351   -0.7653 C   0  0  0  0  0  0  0  0  0  0  0  0
    5.0999    1.2721   -0.4785 C   0  0  0  0  0  0  0  0  0  0  0  0
    5.5960    1.1384    0.8218 C   0  0  0  0  0  0  0  0  0  0  0  0
    4.7702    0.6755    1.8472 C   0  0  0  0  0  0  0  0  0  0  0  0
    3.4423    0.3468    1.5778 C   0  0  0  0  0  0  0  0  0  0  0  0
    2.9478    0.4811    0.2759 C   0  0  0  0  0  0  0  0  0  0  0  0
    1.5332    0.1372   -0.0292 C   0  0  0  0  0  0  0  0  0  0  0  0
    0.7847   -0.2717    0.8565 O   0  0  0  0  0  0  0  0  0  0  0  0
   -0.8245   -0.5637    0.0124 H   0  0  0  0  0  0  0  0  0  0  0  0
   -2.3832   -1.9359   -1.5938 H   0  0  0  0  0  0  0  0  0  0  0  0
   -2.9424   -0.3302   -2.0690 H   0  0  0  0  0  0  0  0  0  0  0  0
   -3.1856    1.2920    0.2739 H   0  0  0  0  0  0  0  0  0  0  0  0
   -5.4379   -2.8553    1.8322 H   0  0  0  0  0  0  0  0  0  0  0  0
    1.6913    0.8761   -3.3806 H   0  0  0  0  0  0  0  0  0  0  0  0
    3.8738    1.3147   -2.8219 H   0  0  0  0  0  0  0  0  0  0  0  0
    5.7573    1.6422   -1.2607 H   0  0  0  0  0  0  0  0  0  0  0  0
    6.6299    1.3997    1.0363 H   0  0  0  0  0  0  0  0  0  0  0  0
    5.1606    0.5745    2.8573 H   0  0  0  0  0  0  0  0  0  0  0  0
    2.7982   -0.0097    2.3784 H   0  0  0  0  0  0  0  0  0  0  0  0
  1  2  2  0
  2  3  1  0
  3  4  1  0
  4  5  1  0
  5  6  2  0
  6  7  1  0
  7  8  1  0
  7  9  2  0
  9 10  1  0
  9 11  1  0
 11 12  2  0
 12 13  1  0
  2 14  1  0
 14 15  2  0
 15 16  1  0
 16 17  1  0
 17 18  2  0
 18 19  1  0
 19 20  2  0
 20 21  1  0
 21 22  2  0
 22 23  1  0
 23 24  2  0
 12  5  1  0
 23 14  1  0
 22 17  1  0
  3 25  1  0
  4 26  1  0
  4 27  1  0
  6 28  1  0
 11 29  1  0
 15 30  1  0
 16 31  1  0
 18 32  1  0
 19 33  1  0
 20 34  1  0
 21 35  1  0
M  END
$$$$
OCNT-2318479
     RDKit          3D

 44 47  0  0  0  0  0  0  0  0999 V2000
    0.8712    2.7946   -2.4701 C   0  0  0  0  0  0  0  0  0  0  0  0
   -0.0064    2.9651   -1.2573 C   0  0  0  0  0  0  0  0  0  0  0  0
   -0.5191    4.2534   -1.0102 C   0  0  0  0  0  0  0  0  0  0  0  0
   -1.3604    4.4886    0.0702 C   0  0  0  0  0  0  0  0  0  0  0  0
   -1.8386    5.7217    0.2793 F   0  0  0  0  0  0  0  0  0  0  0  0
   -1.7035    3.4650    0.9370 C   0  0  0  0  0  0  0  0  0  0  0  0
   -1.1968    2.1820    0.7219 C   0  0  0  0  0  0  0  0  0  0  0  0
   -0.3549    1.9126   -0.3737 C   0  0  0  0  0  0  0  0  0  0  0  0
    0.1742    0.5968   -0.5277 N   0  0  0  0  0  0  0  0  0  0  0  0
    1.4305    0.4133   -1.0170 N   0  0  0  0  0  0  0  0  0  0  0  0
    1.6516   -0.8876   -0.8122 C   0  0  0  0  0  0  0  0  0  0  0  0
    2.9395   -1.5471   -1.1447 C   0  0  0  0  0  0  0  0  0  0  0  0
    3.8725   -1.4498   -0.0394 N   0  0  0  0  0  0  0  0  0  0  0  0
    4.3457   -0.3216    0.5617 C   0  0  0  0  0  0  0  0  0  0  0  0
    5.2384   -0.6459    1.4687 N   0  0  0  0  0  0  0  0  0  0  0  0
    5.2949   -2.0062    1.3707 C   0  0  0  0  0  0  0  0  0  0  0  0
    4.4943   -2.5465    0.4485 N   0  0  0  0  0  0  0  0  0  0  0  0
    0.5793   -1.5704   -0.3216 N   0  0  0  0  0  0  0  0  0  0  0  0
   -0.3563   -0.6466   -0.1905 C   0  0  0  0  0  0  0  0  0  0  0  0
   -1.7838   -0.9392    0.1543 C   0  0  0  0  0  0  0  0  0  0  0  0
   -2.3783   -2.0212   -0.7614 C   0  0  0  0  0  0  0  0  0  0  0  0
   -3.4215   -2.6984    0.1113 C   0  0  0  0  0  0  0  0  0  0  0  0
   -2.7148   -2.8129    1.4534 C   0  0  0  0  0  0  0  0  0  0  0  0
   -1.9224   -1.5101    1.5828 C   0  0  0  0  0  0  0  0  0  0  0  0
   -2.6506   -0.5814    2.3884 O   0  0  0  0  0  0  0  0  0  0  0  0
    0.5818    1.9070   -3.0417 H   0  0  0  0  0  0  0  0  0  0  0  0
    1.9234    2.7331   -2.1767 H   0  0  0  0  0  0  0  0  0  0  0  0
    0.7700    3.6447   -3.1544 H   0  0  0  0  0  0  0  0  0  0  0  0
   -0.2732    5.0881   -1.6620 H   0  0  0  0  0  0  0  0  0  0  0  0
   -2.3467    3.6714    1.7870 H   0  0  0  0  0  0  0  0  0  0  0  0
   -1.4339    1.4250    1.4644 H   0  0  0  0  0  0  0  0  0  0  0  0
    2.7809   -2.6077   -1.3678 H   0  0  0  0  0  0  0  0  0  0  0  0
    3.4176   -1.0811   -2.0130 H   0  0  0  0  0  0  0  0  0  0  0  0
    4.0160    0.6773    0.3085 H   0  0  0  0  0  0  0  0  0  0  0  0
    5.9427   -2.6191    1.9844 H   0  0  0  0  0  0  0  0  0  0  0  0
   -2.4088   -0.0478    0.0388 H   0  0  0  0  0  0  0  0  0  0  0  0
   -1.6277   -2.7565   -1.0767 H   0  0  0  0  0  0  0  0  0  0  0  0
   -2.8182   -1.5919   -1.6677 H   0  0  0  0  0  0  0  0  0  0  0  0
   -4.3138   -2.0678    0.2010 H   0  0  0  0  0  0  0  0  0  0  0  0
   -3.7253   -3.6723   -0.2827 H   0  0  0  0  0  0  0  0  0  0  0  0
   -2.0214   -3.6620    1.4212 H   0  0  0  0  0  0  0  0  0  0  0  0
   -3.4251   -2.9751    2.2695 H   0  0  0  0  0  0  0  0  0  0  0  0
   -0.9613   -1.6849    2.0789 H   0  0  0  0  0  0  0  0  0  0  0  0
   -2.7616   -0.9888    3.2664 H   0  0  0  0  0  0  0  0  0  0  0  0
  1  2  1  0
  2  3  1  0
  3  4  2  0
  4  5  1  0
  4  6  1  0
  6  7  2  0
  7  8  1  0
  8  9  1  0
  9 10  1  0
 10 11  2  0
 11 12  1  0
 12 13  1  0
 13 14  1  0
 14 15  2  0
 15 16  1  0
 16 17  2  0
 11 18  1  0
 18 19  2  0
 19 20  1  0
 20 21  1  0
 21 22  1  0
 22 23  1  0
 23 24  1  0
 24 25  1  0
  8  2  2  0
 19  9  1  0
 24 20  1  0
 17 13  1  0
  1 26  1  0
  1 27  1  0
  1 28  1  0
  3 29  1  0
  6 30  1  0
  7 31  1  0
 12 32  1  0
 12 33  1  0
 14 34  1  0
 16 35  1  0
 20 36  1  0
 21 37  1  0
 21 38  1  0
 22 39  1  0
 22 40  1  0
 23 41  1  0
 23 42  1  0
 24 43  1  0
 25 44  1  0
M  END
$$$$
OCNT-2318486
     RDKit          3D

 44 46  0  0  0  0  0  0  0  0999 V2000
    3.5999    1.3072   -0.6775 O   0  0  0  0  0  0  0  0  0  0  0  0
    3.2835    0.7506    0.3726 C   0  0  0  0  0  0  0  0  0  0  0  0
    4.3013    0.5361    1.4843 C   0  0  0  0  0  0  0  0  0  0  0  0
    5.4611   -0.3413    1.0645 C   0  0  0  0  0  0  0  0  0  0  0  0
    6.4946    0.1878    0.2737 C   0  0  0  0  0  0  0  0  0  0  0  0
    7.5727   -0.6089   -0.1153 C   0  0  0  0  0  0  0  0  0  0  0  0
    7.6205   -1.9437    0.2813 C   0  0  0  0  0  0  0  0  0  0  0  0
    9.0828   -3.0247   -0.2416 Br  0  0  0  0  0  0  0  0  0  0  0  0
    6.5978   -2.4882    1.0586 C   0  0  0  0  0  0  0  0  0  0  0  0
    5.5181   -1.6903    1.4459 C   0  0  0  0  0  0  0  0  0  0  0  0
    2.0187    0.2839    0.6998 N   0  0  0  0  0  0  0  0  0  0  0  0
    0.8591    0.3166   -0.1061 C   0  0  0  0  0  0  0  0  0  0  0  0
    0.8319    0.7686   -1.4267 C   0  0  0  0  0  0  0  0  0  0  0  0
   -0.3597    0.7576   -2.1630 C   0  0  0  0  0  0  0  0  0  0  0  0
   -1.5408    0.3029   -1.5825 C   0  0  0  0  0  0  0  0  0  0  0  0
   -1.5270   -0.1395   -0.2567 C   0  0  0  0  0  0  0  0  0  0  0  0
   -2.7557   -0.6442    0.4092 C   0  0  0  0  0  0  0  0  0  0  0  0
   -2.6796   -1.5350    1.2474 O   0  0  0  0  0  0  0  0  0  0  0  0
   -3.9335   -0.0273    0.0474 N   0  0  0  0  0  0  0  0  0  0  0  0
   -5.1372   -0.3002    0.7889 C   0  0  0  0  0  0  0  0  0  0  0  0
   -6.2415    0.4328    0.1220 C   0  0  0  0  0  0  0  0  0  0  0  0
   -6.7499    1.6976    0.3485 C   0  0  0  0  0  0  0  0  0  0  0  0
   -7.8039    1.9035   -0.5761 C   0  0  0  0  0  0  0  0  0  0  0  0
   -7.9235    0.7553   -1.3265 C   0  0  0  0  0  0  0  0  0  0  0  0
   -6.9715   -0.1309   -0.8988 N   0  0  0  0  0  0  0  0  0  0  0  0
   -0.3283   -0.1469    0.4722 C   0  0  0  0  0  0  0  0  0  0  0  0
    4.6751    1.5230    1.7909 H   0  0  0  0  0  0  0  0  0  0  0  0
    3.8215    0.1147    2.3775 H   0  0  0  0  0  0  0  0  0  0  0  0
    6.4568    1.2263   -0.0536 H   0  0  0  0  0  0  0  0  0  0  0  0
    8.3619   -0.1803   -0.7295 H   0  0  0  0  0  0  0  0  0  0  0  0
    6.6323   -3.5305    1.3657 H   0  0  0  0  0  0  0  0  0  0  0  0
    4.7280   -2.1320    2.0489 H   0  0  0  0  0  0  0  0  0  0  0  0
    1.8975   -0.1137    1.6258 H   0  0  0  0  0  0  0  0  0  0  0  0
    1.7282    1.1239   -1.9248 H   0  0  0  0  0  0  0  0  0  0  0  0
   -0.3550    1.0955   -3.1977 H   0  0  0  0  0  0  0  0  0  0  0  0
   -2.4512    0.2736   -2.1770 H   0  0  0  0  0  0  0  0  0  0  0  0
   -3.8800    0.8724   -0.4173 H   0  0  0  0  0  0  0  0  0  0  0  0
   -5.3159   -1.3841    0.8088 H   0  0  0  0  0  0  0  0  0  0  0  0
   -4.9963    0.0422    1.8224 H   0  0  0  0  0  0  0  0  0  0  0  0
   -6.3979    2.3894    1.1067 H   0  0  0  0  0  0  0  0  0  0  0  0
   -8.4184    2.7876   -0.6702 H   0  0  0  0  0  0  0  0  0  0  0  0
   -8.6075    0.4912   -2.1234 H   0  0  0  0  0  0  0  0  0  0  0  0
   -6.8280   -1.0658   -1.2644 H   0  0  0  0  0  0  0  0  0  0  0  0
   -0.3414   -0.5127    1.5026 H   0  0  0  0  0  0  0  0  0  0  0  0
  1  2  2  0
  2  3  1  0
  3  4  1  0
  4  5  1  0
  5  6  2  0
  6  7  1  0
  7  8  1  0
  7  9  2  0
  9 10  1  0
  2 11  1  0
 11 12  1  0
 12 13  2  0
 13 14  1  0
 14 15  2  0
 15 16  1  0
 16 17  1  0
 17 18  2  0
 17 19  1  0
 19 20  1  0
 20 21  1  0
 21 22  2  0
 22 23  1  0
 23 24  2  0
 24 25  1  0
 16 26  2  0
 10  4  2  0
 26 12  1  0
 25 21  1  0
  3 27  1  0
  3 28  1  0
  5 29  1  0
  6 30  1  0
  9 31  1  0
 10 32  1  0
 11 33  1  0
 13 34  1  0
 14 35  1  0
 15 36  1  0
 19 37  1  0
 20 38  1  0
 20 39  1  0
 22 40  1  0
 23 41  1  0
 24 42  1  0
 25 43  1  0
 26 44  1  0
M  END
$$$$
OCNT-2318494
     RDKit          3D

 36 38  0  0  0  0  0  0  0  0999 V2000
    6.3783   -0.6735   -0.4747 C   0  0  0  0  0  0  0  0  0  0  0  0
    4.9398   -0.3870   -0.1662 C   0  0  0  0  0  0  0  0  0  0  0  0
    4.6064    0.5664    0.7814 C   0  0  0  0  0  0  0  0  0  0  0  0
    3.2626    0.7923    1.0766 C   0  0  0  0  0  0  0  0  0  0  0  0
    2.9718    1.8480    1.9710 N   0  0  0  0  0  0  0  0  0  0  0  0
    2.2671    0.1125    0.3330 C   0  0  0  0  0  0  0  0  0  0  0  0
    0.8707    0.3227    0.4821 C   0  0  0  0  0  0  0  0  0  0  0  0
   -0.0690   -0.3937   -0.2702 C   0  0  0  0  0  0  0  0  0  0  0  0
   -1.4335   -0.1095   -0.0494 N   0  0  0  0  0  0  0  0  0  0  0  0
   -2.5225   -0.7465   -0.6179 C   0  0  0  0  0  0  0  0  0  0  0  0
   -2.5022   -1.7161   -1.3653 O   0  0  0  0  0  0  0  0  0  0  0  0
   -3.8486   -0.1920   -0.2237 C   0  0  0  0  0  0  0  0  0  0  0  0
   -4.0504    1.1845   -0.0506 C   0  0  0  0  0  0  0  0  0  0  0  0
   -5.3125    1.6632    0.3146 C   0  0  0  0  0  0  0  0  0  0  0  0
   -6.3693    0.7708    0.4971 C   0  0  0  0  0  0  0  0  0  0  0  0
   -7.9191    1.3658    0.9474 Cl  0  0  0  0  0  0  0  0  0  0  0  0
   -6.1801   -0.5974    0.3095 C   0  0  0  0  0  0  0  0  0  0  0  0
   -4.9208   -1.0789   -0.0569 C   0  0  0  0  0  0  0  0  0  0  0  0
    0.3925   -1.3261   -1.1895 C   0  0  0  0  0  0  0  0  0  0  0  0
    1.7672   -1.5342   -1.3493 C   0  0  0  0  0  0  0  0  0  0  0  0
    2.7108   -0.8346   -0.6137 C   0  0  0  0  0  0  0  0  0  0  0  0
    4.0082   -1.0844   -0.8507 N   0  0  0  0  0  0  0  0  0  0  0  0
    6.8703    0.2273   -0.8545 H   0  0  0  0  0  0  0  0  0  0  0  0
    6.4657   -1.4560   -1.2354 H   0  0  0  0  0  0  0  0  0  0  0  0
    6.8978   -1.0150    0.4260 H   0  0  0  0  0  0  0  0  0  0  0  0
    5.3817    1.1161    1.3057 H   0  0  0  0  0  0  0  0  0  0  0  0
    2.0619    1.7679    2.4099 H   0  0  0  0  0  0  0  0  0  0  0  0
    3.0600    2.7486    1.5035 H   0  0  0  0  0  0  0  0  0  0  0  0
    0.5174    1.0557    1.1997 H   0  0  0  0  0  0  0  0  0  0  0  0
   -1.6292    0.5891    0.6549 H   0  0  0  0  0  0  0  0  0  0  0  0
   -3.2492    1.8969   -0.2279 H   0  0  0  0  0  0  0  0  0  0  0  0
   -5.4695    2.7314    0.4431 H   0  0  0  0  0  0  0  0  0  0  0  0
   -7.0055   -1.2927    0.4403 H   0  0  0  0  0  0  0  0  0  0  0  0
   -4.7756   -2.1468   -0.2125 H   0  0  0  0  0  0  0  0  0  0  0  0
   -0.2819   -1.9092   -1.8087 H   0  0  0  0  0  0  0  0  0  0  0  0
    2.1086   -2.2655   -2.0792 H   0  0  0  0  0  0  0  0  0  0  0  0
  1  2  1  0
  2  3  1  0
  3  4  2  0
  4  5  1  0
  4  6  1  0
  6  7  2  0
  7  8  1  0
  8  9  1  0
  9 10  1  0
 10 11  2  0
 10 12  1  0
 12 13  1  0
 13 14  2  0
 14 15  1  0
 15 16  1  0
 15 17  2  0
 17 18  1  0
  8 19  2  0
 19 20  1  0
 20 21  2  0
 21 22  1  0
 22  2  2  0
 21  6  1  0
 18 12  2  0
  1 23  1  0
  1 24  1  0
  1 25  1  0
  3 26  1  0
  5 27  1  0
  5 28  1  0
  7 29  1  0
  9 30  1  0
 13 31  1  0
 14 32  1  0
 17 33  1  0
 18 34  1  0
 19 35  1  0
 20 36  1  0
M  END
$$$$
OCNT-2318495
     RDKit          3D

 48 51  0  0  0  0  0  0  0  0999 V2000
    3.3806    1.5507   -1.8220 C   0  0  0  0  0  0  0  0  0  0  0  0
    2.4270    0.3648   -1.7787 C   0  0  0  0  0  0  0  0  0  0  0  0
    1.3097    0.3540   -2.8601 C   0  0  0  0  0  0  0  0  0  0  0  0
    0.4374    1.0005   -1.8629 N   0  0  0  0  0  0  0  0  0  0  0  0
   -0.9770    0.6331   -1.9270 C   0  0  0  0  0  0  0  0  0  0  0  0
   -1.3350   -0.8115   -1.7753 C   0  0  0  0  0  0  0  0  0  0  0  0
   -1.4850   -1.7352   -2.7947 C   0  0  0  0  0  0  0  0  0  0  0  0
   -1.8154   -2.9134   -2.2045 N   0  0  0  0  0  0  0  0  0  0  0  0
   -2.0625   -4.1748   -2.8593 C   0  0  0  0  0  0  0  0  0  0  0  0
   -1.9118   -2.8358   -0.8710 N   0  0  0  0  0  0  0  0  0  0  0  0
   -1.6548   -1.5490   -0.5849 C   0  0  0  0  0  0  0  0  0  0  0  0
   -1.6743   -1.0935    0.8050 C   0  0  0  0  0  0  0  0  0  0  0  0
   -2.3604    0.0663    1.1838 C   0  0  0  0  0  0  0  0  0  0  0  0
   -2.3123    0.5183    2.5070 C   0  0  0  0  0  0  0  0  0  0  0  0
   -1.5915   -0.1972    3.4677 C   0  0  0  0  0  0  0  0  0  0  0  0
   -1.5180    0.2805    4.8171 C   0  0  0  0  0  0  0  0  0  0  0  0
   -1.4528    0.6622    5.9114 N   0  0  0  0  0  0  0  0  0  0  0  0
   -0.9392   -1.3795    3.1064 C   0  0  0  0  0  0  0  0  0  0  0  0
   -0.9837   -1.8252    1.7823 C   0  0  0  0  0  0  0  0  0  0  0  0
    1.2288    0.3791   -0.7711 C   0  0  0  0  0  0  0  0  0  0  0  0
    1.2997    1.2660    0.5431 C   0  0  0  0  0  0  0  0  0  0  0  0
    0.8450    2.5986    0.6283 C   0  0  0  0  0  0  0  0  0  0  0  0
    0.9002    3.3342    1.8170 C   0  0  0  0  0  0  0  0  0  0  0  0
    1.4218    2.7575    2.9685 C   0  0  0  0  0  0  0  0  0  0  0  0
    1.8942    1.4518    2.9268 C   0  0  0  0  0  0  0  0  0  0  0  0
    1.8342    0.7259    1.7331 C   0  0  0  0  0  0  0  0  0  0  0  0
    4.0403    1.4758   -2.6926 H   0  0  0  0  0  0  0  0  0  0  0  0
    2.8500    2.5060   -1.8857 H   0  0  0  0  0  0  0  0  0  0  0  0
    4.0105    1.5697   -0.9271 H   0  0  0  0  0  0  0  0  0  0  0  0
    3.0044   -0.5682   -1.7459 H   0  0  0  0  0  0  0  0  0  0  0  0
    1.0361   -0.6579   -3.1767 H   0  0  0  0  0  0  0  0  0  0  0  0
    1.5050    0.9542   -3.7539 H   0  0  0  0  0  0  0  0  0  0  0  0
   -1.5102    1.2272   -1.1795 H   0  0  0  0  0  0  0  0  0  0  0  0
   -1.3724    0.9880   -2.8884 H   0  0  0  0  0  0  0  0  0  0  0  0
   -1.3761   -1.6414   -3.8660 H   0  0  0  0  0  0  0  0  0  0  0  0
   -1.4161   -4.9323   -2.4082 H   0  0  0  0  0  0  0  0  0  0  0  0
   -3.1154   -4.4337   -2.7191 H   0  0  0  0  0  0  0  0  0  0  0  0
   -1.8379   -4.0819   -3.9247 H   0  0  0  0  0  0  0  0  0  0  0  0
   -2.9413    0.6292    0.4585 H   0  0  0  0  0  0  0  0  0  0  0  0
   -2.8339    1.4339    2.7771 H   0  0  0  0  0  0  0  0  0  0  0  0
   -0.3845   -1.9547    3.8448 H   0  0  0  0  0  0  0  0  0  0  0  0
   -0.4652   -2.7419    1.5069 H   0  0  0  0  0  0  0  0  0  0  0  0
    0.9567   -0.6566   -0.5262 H   0  0  0  0  0  0  0  0  0  0  0  0
    0.4372    3.0784   -0.2596 H   0  0  0  0  0  0  0  0  0  0  0  0
    0.5364    4.3579    1.8367 H   0  0  0  0  0  0  0  0  0  0  0  0
    1.4630    3.3246    3.8942 H   0  0  0  0  0  0  0  0  0  0  0  0
    2.3055    0.9933    3.8222 H   0  0  0  0  0  0  0  0  0  0  0  0
    2.2032   -0.2983    1.7276 H   0  0  0  0  0  0  0  0  0  0  0  0
  1  2  1  0
  2  3  1  0
  3  4  1  0
  4  5  1  0
  5  6  1  0
  6  7  2  0
  7  8  1  0
  8  9  1  0
  8 10  1  0
 10 11  2  0
 11 12  1  0
 12 13  1  0
 13 14  2  0
 14 15  1  0
 15 16  1  0
 16 17  3  0
 15 18  2  0
 18 19  1  0
  4 20  1  0
 20 21  1  0
 21 22  2  0
 22 23  1  0
 23 24  2  0
 24 25  1  0
 25 26  2  0
 20  2  1  0
 26 21  1  0
 11  6  1  0
 19 12  2  0
  1 27  1  0
  1 28  1  0
  1 29  1  0
  2 30  1  0
  3 31  1  0
  3 32  1  0
  5 33  1  0
  5 34  1  0
  7 35  1  0
  9 36  1  0
  9 37  1  0
  9 38  1  0
 13 39  1  0
 14 40  1  0
 18 41  1  0
 19 42  1  0
 20 43  1  0
 22 44  1  0
 23 45  1  0
 24 46  1  0
 25 47  1  0
 26 48  1  0
M  END
$$$$
OCNT-2318499
     RDKit          3D

  0  0  0  0  0  0  0  0  0  0999 V3000
M  V30 BEGIN CTAB
M  V30 COUNTS 56 58 0 0 0
M  V30 BEGIN ATOM
M  V30 1 C 0.214399 1.787869 -2.910714 0
M  V30 2 C 0.538775 1.972838 -1.418493 0
M  V30 3 N -0.543037 1.481939 -0.549149 0
M  V30 4 C -0.698379 0.031624 -0.515503 0
M  V30 5 C -1.979047 -0.256695 0.219514 0 CFG=1
M  V30 6 C -3.293895 -0.316982 -0.541009 0 CFG=2
M  V30 7 C -4.536843 0.353904 0.002320 0
M  V30 8 C -5.789811 -0.293025 -0.043408 0
M  V30 9 C -6.950201 0.328086 0.423723 0
M  V30 10 C -6.884570 1.623884 0.932732 0
M  V30 11 C -5.662611 2.292772 0.975185 0
M  V30 12 C -4.503548 1.664099 0.509575 0
M  V30 13 C -2.718221 -1.581813 0.101032 0
M  V30 14 C -3.305388 -2.134518 1.382783 0
M  V30 15 C -2.220052 -2.660503 -0.830063 0
M  V30 16 C 1.919421 1.483540 -0.986336 0
M  V30 17 C 2.585120 2.150037 0.058698 0
M  V30 18 C 3.856153 1.741466 0.481772 0
M  V30 19 C 4.461042 0.634225 -0.115376 0
M  V30 20 C 5.825682 0.241058 0.299898 0
M  V30 21 O 6.696687 1.107912 0.282942 0
M  V30 22 N 6.067485 -1.085790 0.659046 0
M  V30 23 C 5.041514 -2.000216 1.146504 0
M  V30 24 C 7.442388 -1.464769 0.929145 0
M  V30 25 C 3.817341 -0.041078 -1.155490 0
M  V30 26 C 2.552243 0.381261 -1.586792 0
M  V30 27 H 0.157204 0.738916 -3.215369 0
M  V30 28 H -0.747098 2.259085 -3.161113 0
M  V30 29 H 0.983499 2.264688 -3.531521 0
M  V30 30 H 0.547519 3.064382 -1.280327 0
M  V30 31 H -0.358184 1.801889 0.401128 0
M  V30 32 H -0.734489 -0.383798 -1.526021 0
M  V30 33 H 0.132436 -0.441512 0.021595 0
M  V30 34 H -1.972984 0.198858 1.206449 0
M  V30 35 H -3.205520 -0.238433 -1.627822 0
M  V30 36 H -5.855972 -1.297355 -0.462938 0
M  V30 37 H -7.904885 -0.188506 0.360922 0
M  V30 38 H -7.787145 2.114192 1.284819 0
M  V30 39 H -5.608079 3.310310 1.357973 0
M  V30 40 H -3.559049 2.207134 0.524302 0
M  V30 41 H -2.574607 -2.777542 1.889247 0
M  V30 42 H -3.590821 -1.345734 2.087150 0
M  V30 43 H -4.197488 -2.738251 1.167417 0
M  V30 44 H -1.349664 -3.162795 -0.395890 0
M  V30 45 H -3.004331 -3.413454 -0.989540 0
M  V30 46 H -1.937007 -2.273532 -1.815821 0
M  V30 47 H 2.124119 3.012878 0.537134 0
M  V30 48 H 4.377781 2.294059 1.258516 0
M  V30 49 H 4.036369 -1.580094 1.089747 0
M  V30 50 H 5.252085 -2.232722 2.198456 0
M  V30 51 H 5.085516 -2.918922 0.554248 0
M  V30 52 H 8.127913 -0.910412 0.283615 0
M  V30 53 H 7.572775 -2.535914 0.743904 0
M  V30 54 H 7.671825 -1.235433 1.974477 0
M  V30 55 H 4.307126 -0.876414 -1.648611 0
M  V30 56 H 2.078509 -0.156693 -2.404202 0
M  V30 END ATOM
M  V30 BEGIN BOND
M  V30 1 1 1 2
M  V30 2 1 2 3
M  V30 3 1 3 4
M  V30 4 1 4 5
M  V30 5 1 5 6
M  V30 6 1 6 7
M  V30 7 2 7 8
M  V30 8 1 8 9
M  V30 9 2 9 10
M  V30 10 1 10 11
M  V30 11 2 11 12
M  V30 12 1 6 13
M  V30 13 1 13 14
M  V30 14 1 13 15
M  V30 15 1 2 16
M  V30 16 1 16 17
M  V30 17 2 17 18
M  V30 18 1 18 19
M  V30 19 1 19 20
M  V30 20 2 20 21
M  V30 21 1 20 22
M  V30 22 1 22 23
M  V30 23 1 22 24
M  V30 24 2 19 25
M  V30 25 1 25 26
M  V30 26 1 13 5
M  V30 27 2 26 16
M  V30 28 1 12 7
M  V30 29 1 1 27
M  V30 30 1 1 28
M  V30 31 1 1 29
M  V30 32 1 2 30
M  V30 33 1 3 31
M  V30 34 1 4 32
M  V30 35 1 4 33
M  V30 36 1 5 34 CFG=1
M  V30 37 1 6 35 CFG=3
M  V30 38 1 8 36
M  V30 39 1 9 37
M  V30 40 1 10 38
M  V30 41 1 11 39
M  V30 42 1 12 40
M  V30 43 1 14 41
M  V30 44 1 14 42
M  V30 45 1 14 43
M  V30 46 1 15 44
M  V30 47 1 15 45
M  V30 48 1 15 46
M  V30 49 1 17 47
M  V30 50 1 18 48
M  V30 51 1 23 49
M  V30 52 1 23 50
M  V30 53 1 23 51
M  V30 54 1 24 52
M  V30 55 1 24 53
M  V30 56 1 24 54
M  V30 57 1 25 55
M  V30 58 1 26 56
M  V30 END BOND
M  V30 BEGIN COLLECTION
M  V30 MDLV30/STERAC1 ATOMS=(2 5 6)
M  V30 END COLLECTION
M  V30 END CTAB
M  END
>  <_CXSMILES_Data>  (1365) 
|&1:4,5|

$$$$
OCNT-2318507
     RDKit          3D

 42 44  0  0  0  0  0  0  0  0999 V2000
    6.4106   -1.0345    1.5351 N   0  0  0  0  0  0  0  0  0  0  0  0
    5.9295   -0.1451    0.1979 S   0  0  0  0  0  0  0  0  0  0  0  0
    5.6432   -1.1190   -0.8283 O   0  0  0  0  0  0  0  0  0  0  0  0
    6.9470    0.8661    0.0335 O   0  0  0  0  0  0  0  0  0  0  0  0
    4.4177    0.6247    0.7765 C   0  0  0  0  0  0  0  0  0  0  0  0
    3.2930   -0.3776    1.0243 C   0  0  0  0  0  0  0  0  0  0  0  0
    2.1663    0.2517    1.8558 C   0  0  0  0  0  0  0  0  0  0  0  0
    0.8878   -0.1761    1.1575 C   0  0  0  0  0  0  0  0  0  0  0  0
    1.3060   -0.1572   -0.2461 N   0  0  0  0  0  0  0  0  0  0  0  0
    0.3368   -0.8178   -1.1348 C   0  0  0  0  0  0  0  0  0  0  0  0
   -0.9289   -0.0147   -1.2297 C   0  0  0  0  0  0  0  0  0  0  0  0
   -2.0734   -0.4685   -0.7004 N   0  0  0  0  0  0  0  0  0  0  0  0
   -2.9925    0.4982   -0.9587 N   0  0  0  0  0  0  0  0  0  0  0  0
   -4.3408    0.3539   -0.5256 C   0  0  0  0  0  0  0  0  0  0  0  0
   -4.7218   -0.8037    0.1763 C   0  0  0  0  0  0  0  0  0  0  0  0
   -6.0401   -0.9682    0.6115 C   0  0  0  0  0  0  0  0  0  0  0  0
   -6.9852    0.0202    0.3498 C   0  0  0  0  0  0  0  0  0  0  0  0
   -6.6046    1.1631   -0.3438 C   0  0  0  0  0  0  0  0  0  0  0  0
   -7.5159    2.1127   -0.5942 F   0  0  0  0  0  0  0  0  0  0  0  0
   -5.2961    1.3437   -0.7851 C   0  0  0  0  0  0  0  0  0  0  0  0
   -2.4318    1.5465   -1.6549 C   0  0  0  0  0  0  0  0  0  0  0  0
   -1.1052    1.2439   -1.8420 C   0  0  0  0  0  0  0  0  0  0  0  0
    2.6023   -0.8416   -0.2660 C   0  0  0  0  0  0  0  0  0  0  0  0
    6.4533   -2.0275    1.2977 H   0  0  0  0  0  0  0  0  0  0  0  0
    7.2956   -0.6690    1.8930 H   0  0  0  0  0  0  0  0  0  0  0  0
    4.1348    1.3676    0.0226 H   0  0  0  0  0  0  0  0  0  0  0  0
    4.6843    1.1639    1.6925 H   0  0  0  0  0  0  0  0  0  0  0  0
    3.6776   -1.2553    1.5578 H   0  0  0  0  0  0  0  0  0  0  0  0
    2.1932   -0.0888    2.8960 H   0  0  0  0  0  0  0  0  0  0  0  0
    2.2406    1.3466    1.8617 H   0  0  0  0  0  0  0  0  0  0  0  0
    0.5914   -1.1802    1.4866 H   0  0  0  0  0  0  0  0  0  0  0  0
    0.0734    0.5235    1.3694 H   0  0  0  0  0  0  0  0  0  0  0  0
    0.1196   -1.8416   -0.8030 H   0  0  0  0  0  0  0  0  0  0  0  0
    0.7597   -0.8910   -2.1452 H   0  0  0  0  0  0  0  0  0  0  0  0
   -3.9983   -1.5892    0.3910 H   0  0  0  0  0  0  0  0  0  0  0  0
   -6.3245   -1.8672    1.1529 H   0  0  0  0  0  0  0  0  0  0  0  0
   -8.0128   -0.0916    0.6805 H   0  0  0  0  0  0  0  0  0  0  0  0
   -5.0690    2.2585   -1.3196 H   0  0  0  0  0  0  0  0  0  0  0  0
   -3.0001    2.4126   -1.9549 H   0  0  0  0  0  0  0  0  0  0  0  0
   -0.3581    1.8460   -2.3399 H   0  0  0  0  0  0  0  0  0  0  0  0
    3.1546   -0.5855   -1.1745 H   0  0  0  0  0  0  0  0  0  0  0  0
    2.4808   -1.9325   -0.2347 H   0  0  0  0  0  0  0  0  0  0  0  0
  1  2  1  0
  2  3  2  0
  2  4  2  0
  2  5  1  0
  5  6  1  0
  6  7  1  0
  7  8  1  0
  8  9  1  0
  9 10  1  0
 10 11  1  0
 11 12  2  0
 12 13  1  0
 13 14  1  0
 14 15  2  0
 15 16  1  0
 16 17  2  0
 17 18  1  0
 18 19  1  0
 18 20  2  0
 13 21  1  0
 21 22  2  0
  9 23  1  0
 23  6  1  0
 22 11  1  0
 20 14  1  0
  1 24  1  0
  1 25  1  0
  5 26  1  0
  5 27  1  0
  6 28  1  0
  7 29  1  0
  7 30  1  0
  8 31  1  0
  8 32  1  0
 10 33  1  0
 10 34  1  0
 15 35  1  0
 16 36  1  0
 17 37  1  0
 20 38  1  0
 21 39  1  0
 22 40  1  0
 23 41  1  0
 23 42  1  0
M  END
$$$$
OCNT-2318516
     RDKit          3D

 42 45  0  0  0  0  0  0  0  0999 V2000
   -1.0041   -0.5405    1.3505 O   0  0  0  0  0  0  0  0  0  0  0  0
   -1.6513    0.0637    0.4969 C   0  0  0  0  0  0  0  0  0  0  0  0
   -1.1741    0.5398   -0.7143 N   0  0  0  0  0  0  0  0  0  0  0  0
    0.1072    0.4706   -1.1891 C   0  0  0  0  0  0  0  0  0  0  0  0
    0.4891    1.1747   -2.2300 N   0  0  0  0  0  0  0  0  0  0  0  0
    1.8296    0.9457   -2.4712 C   0  0  0  0  0  0  0  0  0  0  0  0
    2.4418    0.0294   -1.6393 C   0  0  0  0  0  0  0  0  0  0  0  0
    3.8501   -0.4688   -1.6423 C   0  0  0  0  0  0  0  0  0  0  0  0
    4.7820    0.3496   -0.7748 C   0  0  0  0  0  0  0  0  0  0  0  0
    4.7447    0.2388    0.6219 C   0  0  0  0  0  0  0  0  0  0  0  0
    5.6297    0.9627    1.4204 C   0  0  0  0  0  0  0  0  0  0  0  0
    6.5697    1.7964    0.8210 C   0  0  0  0  0  0  0  0  0  0  0  0
    7.6971    2.6653    1.8052 Cl  0  0  0  0  0  0  0  0  0  0  0  0
    6.6155    1.9318   -0.5616 C   0  0  0  0  0  0  0  0  0  0  0  0
    5.7224    1.2203   -1.3509 C   0  0  0  0  0  0  0  0  0  0  0  0
    5.7670    1.3814   -2.6851 F   0  0  0  0  0  0  0  0  0  0  0  0
    1.2920   -0.5434   -0.5038 S   0  0  0  0  0  0  0  0  0  0  0  0
   -3.1271    0.4216    0.7071 C   0  0  0  0  0  0  0  0  0  0  0  0
   -3.5325    0.3812    2.2135 C   0  0  0  0  0  0  0  0  0  0  0  0
   -3.9562   -1.0202    2.7232 C   0  0  0  0  0  0  0  0  0  0  0  0
   -5.1433   -1.5988    1.9256 C   0  0  0  0  0  0  0  0  0  0  0  0
   -4.8856   -1.3907    0.4774 C   0  0  0  0  0  0  0  0  0  0  0  0
   -3.9970   -0.4962   -0.0828 C   0  0  0  0  0  0  0  0  0  0  0  0
   -4.0119   -0.5889   -1.4567 N   0  0  0  0  0  0  0  0  0  0  0  0
   -4.8675   -1.5560   -1.7238 C   0  0  0  0  0  0  0  0  0  0  0  0
   -5.4529   -2.0523   -0.5791 N   0  0  0  0  0  0  0  0  0  0  0  0
   -1.8030    1.0475   -1.3317 H   0  0  0  0  0  0  0  0  0  0  0  0
    2.3179    1.4806   -3.2760 H   0  0  0  0  0  0  0  0  0  0  0  0
    4.2203   -0.4912   -2.6755 H   0  0  0  0  0  0  0  0  0  0  0  0
    3.8861   -1.5139   -1.2976 H   0  0  0  0  0  0  0  0  0  0  0  0
    4.0220   -0.4217    1.1019 H   0  0  0  0  0  0  0  0  0  0  0  0
    5.5891    0.8564    2.5080 H   0  0  0  0  0  0  0  0  0  0  0  0
    7.3358    2.5916   -1.0341 H   0  0  0  0  0  0  0  0  0  0  0  0
   -3.2660    1.4516    0.3633 H   0  0  0  0  0  0  0  0  0  0  0  0
   -4.3891    1.0526    2.3568 H   0  0  0  0  0  0  0  0  0  0  0  0
   -2.7184    0.7770    2.8390 H   0  0  0  0  0  0  0  0  0  0  0  0
   -3.1045   -1.7039    2.6493 H   0  0  0  0  0  0  0  0  0  0  0  0
   -4.2289   -0.9606    3.7851 H   0  0  0  0  0  0  0  0  0  0  0  0
   -6.0619   -1.0796    2.2107 H   0  0  0  0  0  0  0  0  0  0  0  0
   -5.2818   -2.6591    2.1436 H   0  0  0  0  0  0  0  0  0  0  0  0
   -5.1123   -1.9472   -2.7075 H   0  0  0  0  0  0  0  0  0  0  0  0
   -6.1397   -2.7975   -0.5349 H   0  0  0  0  0  0  0  0  0  0  0  0
  1  2  2  0
  2  3  1  0
  3  4  1  0
  4  5  2  0
  5  6  1  0
  6  7  2  0
  7  8  1  0
  8  9  1  0
  9 10  1  0
 10 11  2  0
 11 12  1  0
 12 13  1  0
 12 14  2  0
 14 15  1  0
 15 16  1  0
  7 17  1  0
  2 18  1  0
 18 19  1  0
 19 20  1  0
 20 21  1  0
 21 22  1  0
 22 23  2  0
 23 24  1  0
 24 25  2  0
 25 26  1  0
 17  4  1  0
 23 18  1  0
 15  9  2  0
 26 22  1  0
  3 27  1  0
  6 28  1  0
  8 29  1  0
  8 30  1  0
 10 31  1  0
 11 32  1  0
 14 33  1  0
 18 34  1  0
 19 35  1  0
 19 36  1  0
 20 37  1  0
 20 38  1  0
 21 39  1  0
 21 40  1  0
 25 41  1  0
 26 42  1  0
M  END
$$$$
OCNT-2318523
     RDKit          3D

 50 52  0  0  0  0  0  0  0  0999 V2000
   -2.9145    3.6116    0.3613 C   0  0  0  0  0  0  0  0  0  0  0  0
   -3.8655    2.6738   -0.1364 O   0  0  0  0  0  0  0  0  0  0  0  0
   -3.3931    1.4405   -0.4841 C   0  0  0  0  0  0  0  0  0  0  0  0
   -4.3564    0.5674   -0.9860 C   0  0  0  0  0  0  0  0  0  0  0  0
   -4.0183   -0.7365   -1.3576 C   0  0  0  0  0  0  0  0  0  0  0  0
   -2.7036   -1.1909   -1.2299 C   0  0  0  0  0  0  0  0  0  0  0  0
   -2.2847   -2.4558   -1.5494 O   0  0  0  0  0  0  0  0  0  0  0  0
   -3.2457   -3.3480   -2.0989 C   0  0  0  0  0  0  0  0  0  0  0  0
   -1.7208   -0.3181   -0.7272 C   0  0  0  0  0  0  0  0  0  0  0  0
   -0.2785   -0.7497   -0.5596 C   0  0  0  0  0  0  0  0  0  0  0  0
    0.1646   -0.8319    0.8484 N   0  0  0  0  0  0  0  0  0  0  0  0
    1.4543   -0.4486    1.2595 C   0  0  0  0  0  0  0  0  0  0  0  0
    1.9034   -0.7492    2.3719 O   0  0  0  0  0  0  0  0  0  0  0  0
    2.3040    0.3935    0.2805 C   0  0  0  0  0  0  0  0  0  0  0  0
    3.5378    1.0072    0.9978 C   0  0  0  0  0  0  0  0  0  0  0  0
    4.5915    1.4920    0.0792 N   0  0  0  0  0  0  0  0  0  0  0  0
    4.1578    2.6851   -0.6453 C   0  0  0  0  0  0  0  0  0  0  0  0
    4.9736    0.4073   -0.8555 C   0  0  0  0  0  0  0  0  0  0  0  0
    4.0208   -0.8051   -0.8538 C   0  0  0  0  0  0  0  0  0  0  0  0
    2.6549   -0.3835   -0.8814 O   0  0  0  0  0  0  0  0  0  0  0  0
   -0.5504   -1.8008    1.6690 C   0  0  0  0  0  0  0  0  0  0  0  0
   -0.7517   -1.6206    3.1536 C   0  0  0  0  0  0  0  0  0  0  0  0
   -1.9232   -1.5203    2.2327 C   0  0  0  0  0  0  0  0  0  0  0  0
   -2.0771    0.9987   -0.3661 C   0  0  0  0  0  0  0  0  0  0  0  0
   -2.4193    3.2415    1.2657 H   0  0  0  0  0  0  0  0  0  0  0  0
   -2.1832    3.8775   -0.4110 H   0  0  0  0  0  0  0  0  0  0  0  0
   -3.4547    4.5193    0.6397 H   0  0  0  0  0  0  0  0  0  0  0  0
   -5.3867    0.9020   -1.0819 H   0  0  0  0  0  0  0  0  0  0  0  0
   -4.8131   -1.3728   -1.7339 H   0  0  0  0  0  0  0  0  0  0  0  0
   -2.7385   -4.2931   -2.3137 H   0  0  0  0  0  0  0  0  0  0  0  0
   -3.6479   -2.9635   -3.0414 H   0  0  0  0  0  0  0  0  0  0  0  0
   -4.0431   -3.5562   -1.3813 H   0  0  0  0  0  0  0  0  0  0  0  0
    0.3141   -0.0303   -1.1285 H   0  0  0  0  0  0  0  0  0  0  0  0
   -0.0726   -1.7248   -1.0160 H   0  0  0  0  0  0  0  0  0  0  0  0
    1.6765    1.2233   -0.0630 H   0  0  0  0  0  0  0  0  0  0  0  0
    3.2148    1.8106    1.6700 H   0  0  0  0  0  0  0  0  0  0  0  0
    4.0094    0.2649    1.6550 H   0  0  0  0  0  0  0  0  0  0  0  0
    3.3120    2.4924   -1.3152 H   0  0  0  0  0  0  0  0  0  0  0  0
    4.9823    3.0842   -1.2464 H   0  0  0  0  0  0  0  0  0  0  0  0
    3.8717    3.4800    0.0554 H   0  0  0  0  0  0  0  0  0  0  0  0
    5.0618    0.7897   -1.8869 H   0  0  0  0  0  0  0  0  0  0  0  0
    5.9762    0.0568   -0.5810 H   0  0  0  0  0  0  0  0  0  0  0  0
    4.1855   -1.4444    0.0218 H   0  0  0  0  0  0  0  0  0  0  0  0
    4.2013   -1.4216   -1.7430 H   0  0  0  0  0  0  0  0  0  0  0  0
   -0.3606   -2.8213    1.3400 H   0  0  0  0  0  0  0  0  0  0  0  0
   -0.6617   -2.4994    3.7811 H   0  0  0  0  0  0  0  0  0  0  0  0
   -0.3936   -0.7110    3.6201 H   0  0  0  0  0  0  0  0  0  0  0  0
   -2.6433   -2.3304    2.2235 H   0  0  0  0  0  0  0  0  0  0  0  0
   -2.3640   -0.5382    2.1173 H   0  0  0  0  0  0  0  0  0  0  0  0
   -1.3024    1.6464    0.0306 H   0  0  0  0  0  0  0  0  0  0  0  0
  1  2  1  0
  2  3  1  0
  3  4  1  0
  4  5  2  0
  5  6  1  0
  6  7  1  0
  7  8  1  0
  6  9  2  0
  9 10  1  0
 10 11  1  0
 11 12  1  0
 12 13  2  0
 12 14  1  0
 14 15  1  0
 15 16  1  0
 16 17  1  0
 16 18  1  0
 18 19  1  0
 19 20  1  0
 11 21  1  0
 21 22  1  0
 22 23  1  0
  9 24  1  0
 24  3  2  0
 20 14  1  0
 23 21  1  0
  1 25  1  0
  1 26  1  0
  1 27  1  0
  4 28  1  0
  5 29  1  0
  8 30  1  0
  8 31  1  0
  8 32  1  0
 10 33  1  0
 10 34  1  0
 14 35  1  0
 15 36  1  0
 15 37  1  0
 17 38  1  0
 17 39  1  0
 17 40  1  0
 18 41  1  0
 18 42  1  0
 19 43  1  0
 19 44  1  0
 21 45  1  0
 22 46  1  0
 22 47  1  0
 23 48  1  0
 23 49  1  0
 24 50  1  0
M  END
$$$$
OCNT-2318531
     RDKit          3D

 42 45  0  0  0  0  0  0  0  0999 V2000
   -3.8002    1.9902    1.9013 C   0  0  0  0  0  0  0  0  0  0  0  0
   -4.1345    1.4155    0.5225 C   0  0  0  0  0  0  0  0  0  0  0  0
   -4.0695    2.5031   -0.5525 C   0  0  0  0  0  0  0  0  0  0  0  0
   -3.2401    0.2362    0.1773 C   0  0  0  0  0  0  0  0  0  0  0  0
   -3.8175   -1.0349   -0.0362 C   0  0  0  0  0  0  0  0  0  0  0  0
   -3.0333   -2.1467   -0.3574 C   0  0  0  0  0  0  0  0  0  0  0  0
   -1.6640   -1.9801   -0.4513 C   0  0  0  0  0  0  0  0  0  0  0  0
   -0.6352   -3.0051   -0.8118 C   0  0  0  0  0  0  0  0  0  0  0  0
    0.6505   -2.3222   -0.3255 C   0  0  0  0  0  0  0  0  0  0  0  0
    0.4131   -0.8052   -0.4567 C   0  0  0  0  0  0  0  0  0  0  0  0
    1.1325   -0.0556    0.5589 N   0  0  0  0  0  0  0  0  0  0  0  0
    2.4940    0.0262    0.5650 C   0  0  0  0  0  0  0  0  0  0  0  0
    3.1480   -0.2945    1.6468 N   0  0  0  0  0  0  0  0  0  0  0  0
    4.5402   -0.2142    1.6737 C   0  0  0  0  0  0  0  0  0  0  0  0
    5.2125   -0.5357    2.6455 O   0  0  0  0  0  0  0  0  0  0  0  0
    5.1547    0.2850    0.4631 C   0  0  0  0  0  0  0  0  0  0  0  0
    4.3874    0.6098   -0.6169 C   0  0  0  0  0  0  0  0  0  0  0  0
    5.2124    1.0731   -1.5871 N   0  0  0  0  0  0  0  0  0  0  0  0
    6.5097    1.0501   -1.2019 N   0  0  0  0  0  0  0  0  0  0  0  0
    6.4641    0.5690    0.0527 C   0  0  0  0  0  0  0  0  0  0  0  0
    3.0549    0.4707   -0.6108 N   0  0  0  0  0  0  0  0  0  0  0  0
   -1.0737   -0.7291   -0.2442 C   0  0  0  0  0  0  0  0  0  0  0  0
   -1.8476    0.3823    0.0620 C   0  0  0  0  0  0  0  0  0  0  0  0
   -3.8569    1.2143    2.6730 H   0  0  0  0  0  0  0  0  0  0  0  0
   -4.5076    2.7823    2.1697 H   0  0  0  0  0  0  0  0  0  0  0  0
   -2.7930    2.4198    1.9335 H   0  0  0  0  0  0  0  0  0  0  0  0
   -5.1743    1.0649    0.5638 H   0  0  0  0  0  0  0  0  0  0  0  0
   -4.3206    2.0950   -1.5379 H   0  0  0  0  0  0  0  0  0  0  0  0
   -3.0727    2.9523   -0.6216 H   0  0  0  0  0  0  0  0  0  0  0  0
   -4.7810    3.3060   -0.3311 H   0  0  0  0  0  0  0  0  0  0  0  0
   -4.8954   -1.1638    0.0454 H   0  0  0  0  0  0  0  0  0  0  0  0
   -3.4948   -3.1147   -0.5262 H   0  0  0  0  0  0  0  0  0  0  0  0
   -0.7973   -3.9589   -0.3021 H   0  0  0  0  0  0  0  0  0  0  0  0
   -0.6178   -3.1566   -1.8960 H   0  0  0  0  0  0  0  0  0  0  0  0
    1.5304   -2.6531   -0.8875 H   0  0  0  0  0  0  0  0  0  0  0  0
    0.8251   -2.5973    0.7248 H   0  0  0  0  0  0  0  0  0  0  0  0
    0.6423   -0.4553   -1.4701 H   0  0  0  0  0  0  0  0  0  0  0  0
    0.8144   -0.3327    1.4872 H   0  0  0  0  0  0  0  0  0  0  0  0
    4.9893    1.4070   -2.5181 H   0  0  0  0  0  0  0  0  0  0  0  0
    7.3855    0.4532    0.6100 H   0  0  0  0  0  0  0  0  0  0  0  0
    2.4381    0.9021   -1.2877 H   0  0  0  0  0  0  0  0  0  0  0  0
   -1.3719    1.3476    0.2123 H   0  0  0  0  0  0  0  0  0  0  0  0
  1  2  1  0
  2  3  1  0
  2  4  1  0
  4  5  1  0
  5  6  2  0
  6  7  1  0
  7  8  1  0
  8  9  1  0
  9 10  1  0
 10 11  1  0
 11 12  1  0
 12 13  2  0
 13 14  1  0
 14 15  2  0
 14 16  1  0
 16 17  2  0
 17 18  1  0
 18 19  1  0
 19 20  2  0
 17 21  1  0
 10 22  1  0
 22 23  1  0
 23  4  2  0
 22  7  2  0
 21 12  1  0
 20 16  1  0
  1 24  1  0
  1 25  1  0
  1 26  1  0
  2 27  1  0
  3 28  1  0
  3 29  1  0
  3 30  1  0
  5 31  1  0
  6 32  1  0
  8 33  1  0
  8 34  1  0
  9 35  1  0
  9 36  1  0
 10 37  1  0
 11 38  1  0
 18 39  1  0
 20 40  1  0
 21 41  1  0
 23 42  1  0
M  END
$$$$
OCNT-2318536
     RDKit          3D

 42 44  0  0  0  0  0  0  0  0999 V2000
   -4.8629   -3.1955   -2.0034 C   0  0  0  0  0  0  0  0  0  0  0  0
   -3.2606   -3.3723   -1.2617 S   0  0  0  0  0  0  0  0  0  0  0  0
   -3.3827   -4.2529   -0.1153 O   0  0  0  0  0  0  0  0  0  0  0  0
   -2.3005   -3.6497   -2.3135 O   0  0  0  0  0  0  0  0  0  0  0  0
   -2.9109   -1.7437   -0.6376 C   0  0  0  0  0  0  0  0  0  0  0  0
   -2.2205   -0.8321   -1.4405 C   0  0  0  0  0  0  0  0  0  0  0  0
   -1.9038    0.4376   -0.9399 C   0  0  0  0  0  0  0  0  0  0  0  0
   -1.1123    1.4176   -1.7709 C   0  0  0  0  0  0  0  0  0  0  0  0
    0.3041    1.2048   -1.6036 N   0  0  0  0  0  0  0  0  0  0  0  0
    1.0073    1.8209   -0.6007 C   0  0  0  0  0  0  0  0  0  0  0  0
    0.5549    2.6607    0.1622 O   0  0  0  0  0  0  0  0  0  0  0  0
    2.4186    1.3837   -0.5005 C   0  0  2  0  0  0  0  0  0  0  0  0
    2.7637   -0.0634   -0.2456 C   0  0  0  0  0  0  0  0  0  0  0  0
    2.9610    0.9537    0.8475 C   0  0  1  0  0  0  0  0  0  0  0  0
    4.4125    1.3605    1.2472 C   0  0  0  0  0  0  0  0  0  0  0  0
    5.3782    0.4602    1.6395 C   0  0  0  0  0  0  0  0  0  0  0  0
    6.6104    1.1171    1.9421 C   0  0  0  0  0  0  0  0  0  0  0  0
    6.5005    2.4760    1.7749 C   0  0  0  0  0  0  0  0  0  0  0  0
    7.7368    3.6431    2.0163 Cl  0  0  0  0  0  0  0  0  0  0  0  0
    4.9585    2.9744    1.2829 S   0  0  0  0  0  0  0  0  0  0  0  0
   -2.2718    0.7631    0.3768 C   0  0  0  0  0  0  0  0  0  0  0  0
   -2.9622   -0.1511    1.1904 C   0  0  0  0  0  0  0  0  0  0  0  0
   -3.3142    0.2055    2.6157 C   0  0  0  0  0  0  0  0  0  0  0  0
   -3.5970    1.5262    2.7816 F   0  0  0  0  0  0  0  0  0  0  0  0
   -2.3095   -0.0814    3.4870 F   0  0  0  0  0  0  0  0  0  0  0  0
   -4.4107   -0.4652    3.0681 F   0  0  0  0  0  0  0  0  0  0  0  0
   -3.2723   -1.4173    0.6730 C   0  0  0  0  0  0  0  0  0  0  0  0
   -4.8006   -2.4739   -2.8219 H   0  0  0  0  0  0  0  0  0  0  0  0
   -5.5741   -2.8624   -1.2441 H   0  0  0  0  0  0  0  0  0  0  0  0
   -5.1639   -4.1706   -2.3922 H   0  0  0  0  0  0  0  0  0  0  0  0
   -1.9115   -1.1130   -2.4461 H   0  0  0  0  0  0  0  0  0  0  0  0
   -1.3450    1.2902   -2.8337 H   0  0  0  0  0  0  0  0  0  0  0  0
   -1.3748    2.4466   -1.5020 H   0  0  0  0  0  0  0  0  0  0  0  0
    0.7460    0.4523   -2.1123 H   0  0  0  0  0  0  0  0  0  0  0  0
    3.0899    1.9555   -1.1334 H   0  0  0  0  0  0  0  0  0  0  0  0
    1.9614   -0.7802   -0.1100 H   0  0  0  0  0  0  0  0  0  0  0  0
    3.6352   -0.4642   -0.7498 H   0  0  0  0  0  0  0  0  0  0  0  0
    2.2626    0.9417    1.6804 H   0  0  0  0  0  0  0  0  0  0  0  0
    5.2196   -0.6101    1.7045 H   0  0  0  0  0  0  0  0  0  0  0  0
    7.5164    0.6175    2.2615 H   0  0  0  0  0  0  0  0  0  0  0  0
   -1.9951    1.7390    0.7824 H   0  0  0  0  0  0  0  0  0  0  0  0
   -3.7803   -2.1491    1.3028 H   0  0  0  0  0  0  0  0  0  0  0  0
  1  2  1  0
  2  3  2  0
  2  4  2  0
  2  5  1  0
  5  6  1  0
  6  7  2  0
  7  8  1  0
  8  9  1  0
  9 10  1  0
 10 11  2  0
 10 12  1  0
 12 13  1  0
 13 14  1  0
 14 15  1  0
 15 16  2  0
 16 17  1  0
 17 18  2  0
 18 19  1  0
 18 20  1  0
  7 21  1  0
 21 22  2  0
 22 23  1  0
 23 24  1  0
 23 25  1  0
 23 26  1  0
 22 27  1  0
 27  5  2  0
 14 12  1  0
 20 15  1  0
  1 28  1  0
  1 29  1  0
  1 30  1  0
  6 31  1  0
  8 32  1  0
  8 33  1  0
  9 34  1  0
 12 35  1  6
 13 36  1  0
 13 37  1  0
 14 38  1  1
 16 39  1  0
 17 40  1  0
 21 41  1  0
 27 42  1  0
M  END
$$$$
OCNT-2318541
     RDKit          3D

 49 54  0  0  0  0  0  0  0  0999 V2000
   -1.4901    0.2297    2.1226 O   0  0  0  0  0  0  0  0  0  0  0  0
   -1.1057    0.1813    0.9637 C   0  0  0  0  0  0  0  0  0  0  0  0
   -0.0228    0.8542    0.4622 N   0  0  0  0  0  0  0  0  0  0  0  0
    0.8174    1.6972    1.2940 C   0  0  0  0  0  0  0  0  0  0  0  0
    2.2011    1.1467    1.3196 C   0  0  0  0  0  0  0  0  0  0  0  0
    2.9433    0.8090    2.3589 N   0  0  0  0  0  0  0  0  0  0  0  0
    4.1055    0.3492    1.7940 C   0  0  0  0  0  0  0  0  0  0  0  0
    5.2744   -0.1595    2.3748 C   0  0  0  0  0  0  0  0  0  0  0  0
    6.3146   -0.5622    1.5233 C   0  0  0  0  0  0  0  0  0  0  0  0
    6.1932   -0.4582    0.1311 C   0  0  0  0  0  0  0  0  0  0  0  0
    5.0314    0.0509   -0.4636 C   0  0  0  0  0  0  0  0  0  0  0  0
    4.0247    0.4357    0.4138 C   0  0  0  0  0  0  0  0  0  0  0  0
    2.8018    0.9533    0.0972 O   0  0  0  0  0  0  0  0  0  0  0  0
   -1.8039   -0.6929    0.0127 C   0  0  0  0  0  0  0  0  0  0  0  0
   -2.0124   -2.0299    0.3695 C   0  0  0  0  0  0  0  0  0  0  0  0
   -2.6160   -2.9170   -0.5242 C   0  0  0  0  0  0  0  0  0  0  0  0
   -2.8545   -4.3799   -0.1873 C   0  0  0  0  0  0  0  0  0  0  0  0
   -3.1795   -4.8417    1.2147 C   0  0  0  0  0  0  0  0  0  0  0  0
   -1.8501   -5.1863    0.6034 C   0  0  0  0  0  0  0  0  0  0  0  0
   -3.0145   -2.5226   -1.7558 N   0  0  0  0  0  0  0  0  0  0  0  0
   -2.8279   -1.2233   -2.0420 C   0  0  0  0  0  0  0  0  0  0  0  0
   -2.2627   -0.2530   -1.2334 C   0  0  0  0  0  0  0  0  0  0  0  0
   -2.3647    0.9445   -2.0007 C   0  0  0  0  0  0  0  0  0  0  0  0
   -2.0052    2.3089   -1.6328 C   0  0  0  0  0  0  0  0  0  0  0  0
   -2.4804    2.8783   -0.4441 C   0  0  0  0  0  0  0  0  0  0  0  0
   -2.1153    4.1792   -0.0896 C   0  0  0  0  0  0  0  0  0  0  0  0
   -1.2822    4.9216   -0.9242 C   0  0  0  0  0  0  0  0  0  0  0  0
   -0.8179    4.3691   -2.1169 C   0  0  0  0  0  0  0  0  0  0  0  0
   -1.1798    3.0682   -2.4730 C   0  0  0  0  0  0  0  0  0  0  0  0
   -2.8771    0.6883   -3.2158 N   0  0  0  0  0  0  0  0  0  0  0  0
   -3.1765   -0.6608   -3.2290 O   0  0  0  0  0  0  0  0  0  0  0  0
    0.2885    0.6999   -0.4884 H   0  0  0  0  0  0  0  0  0  0  0  0
    0.4157    1.7726    2.3094 H   0  0  0  0  0  0  0  0  0  0  0  0
    0.8245    2.6952    0.8461 H   0  0  0  0  0  0  0  0  0  0  0  0
    5.3645   -0.2395    3.4525 H   0  0  0  0  0  0  0  0  0  0  0  0
    7.2304   -0.9635    1.9549 H   0  0  0  0  0  0  0  0  0  0  0  0
    7.0189   -0.7804   -0.5017 H   0  0  0  0  0  0  0  0  0  0  0  0
    4.9201    0.1394   -1.5365 H   0  0  0  0  0  0  0  0  0  0  0  0
   -1.6859   -2.3719    1.3477 H   0  0  0  0  0  0  0  0  0  0  0  0
   -3.3643   -4.9290   -0.9777 H   0  0  0  0  0  0  0  0  0  0  0  0
   -3.2032   -4.1220    2.0230 H   0  0  0  0  0  0  0  0  0  0  0  0
   -3.9089   -5.6370    1.3245 H   0  0  0  0  0  0  0  0  0  0  0  0
   -1.6830   -6.2144    0.3002 H   0  0  0  0  0  0  0  0  0  0  0  0
   -0.9654   -4.7032    0.9990 H   0  0  0  0  0  0  0  0  0  0  0  0
   -3.1396    2.3211    0.2199 H   0  0  0  0  0  0  0  0  0  0  0  0
   -2.4853    4.6132    0.8370 H   0  0  0  0  0  0  0  0  0  0  0  0
   -1.0033    5.9361   -0.6495 H   0  0  0  0  0  0  0  0  0  0  0  0
   -0.1787    4.9534   -2.7738 H   0  0  0  0  0  0  0  0  0  0  0  0
   -0.8138    2.6522   -3.4100 H   0  0  0  0  0  0  0  0  0  0  0  0
  1  2  2  0
  2  3  1  0
  3  4  1  0
  4  5  1  0
  5  6  2  0
  6  7  1  0
  7  8  2  0
  8  9  1  0
  9 10  2  0
 10 11  1  0
 11 12  2  0
 12 13  1  0
  2 14  1  0
 14 15  1  0
 15 16  2  0
 16 17  1  0
 17 18  1  0
 18 19  1  0
 16 20  1  0
 20 21  2  0
 21 22  1  0
 22 23  1  0
 23 24  1  0
 24 25  2  0
 25 26  1  0
 26 27  2  0
 27 28  1  0
 28 29  2  0
 23 30  2  0
 30 31  1  0
 13  5  1  0
 22 14  2  0
 29 24  1  0
 12  7  1  0
 19 17  1  0
 31 21  1  0
  3 32  1  0
  4 33  1  0
  4 34  1  0
  8 35  1  0
  9 36  1  0
 10 37  1  0
 11 38  1  0
 15 39  1  0
 17 40  1  0
 18 41  1  0
 18 42  1  0
 19 43  1  0
 19 44  1  0
 25 45  1  0
 26 46  1  0
 27 47  1  0
 28 48  1  0
 29 49  1  0
M  END
$$$$
OCNT-2318543
     RDKit          3D

 50 54  0  0  0  0  0  0  0  0999 V2000
   -6.3378    1.5612    2.6271 C   0  0  0  0  0  0  0  0  0  0  0  0
   -5.8504    0.8861    1.3779 C   0  0  0  0  0  0  0  0  0  0  0  0
   -6.4482    1.1790    0.1339 C   0  0  0  0  0  0  0  0  0  0  0  0
   -6.0236    0.5428   -1.0358 C   0  0  0  0  0  0  0  0  0  0  0  0
   -5.0182   -0.3942   -0.9321 C   0  0  0  0  0  0  0  0  0  0  0  0
   -4.4946   -1.0840   -1.9947 O   0  0  0  0  0  0  0  0  0  0  0  0
   -3.7108   -2.1335   -1.3652 C   0  0  0  0  0  0  0  0  0  0  0  0
   -3.3390   -1.6888    0.0644 C   0  0  0  0  0  0  0  0  0  0  0  0
   -2.0406   -1.0448    0.1553 N   0  0  0  0  0  0  0  0  0  0  0  0
   -0.9065   -1.8077    0.0778 C   0  0  0  0  0  0  0  0  0  0  0  0
   -0.9614   -3.0282   -0.0481 O   0  0  0  0  0  0  0  0  0  0  0  0
    0.2827   -1.1004    0.1506 N   0  0  0  0  0  0  0  0  0  0  0  0
    1.5278   -1.8929    0.1302 C   0  0  0  0  0  0  0  0  0  0  0  0
    2.7098   -1.1466   -0.5268 C   0  0  0  0  0  0  0  0  0  0  0  0
    2.7590    0.2462   -0.0117 C   0  0  0  0  0  0  0  0  0  0  0  0
    1.6845    0.8454    0.6150 C   0  0  0  0  0  0  0  0  0  0  0  0
    0.3495    0.2148    0.8266 C   0  0  0  0  0  0  0  0  0  0  0  0
    2.0173    2.0828    1.0769 N   0  0  0  0  0  0  0  0  0  0  0  0
    3.2745    2.2421    0.7224 C   0  0  0  0  0  0  0  0  0  0  0  0
    3.7951    1.1605    0.0280 N   0  0  0  0  0  0  0  0  0  0  0  0
    5.1150    1.0751   -0.5064 C   0  0  0  0  0  0  0  0  0  0  0  0
    5.4309    0.1723   -1.5292 C   0  0  0  0  0  0  0  0  0  0  0  0
    6.7298    0.1085   -2.0446 C   0  0  0  0  0  0  0  0  0  0  0  0
    7.7244    0.9459   -1.5486 C   0  0  0  0  0  0  0  0  0  0  0  0
    7.4215    1.8541   -0.5390 C   0  0  0  0  0  0  0  0  0  0  0  0
    6.1244    1.9235   -0.0214 C   0  0  0  0  0  0  0  0  0  0  0  0
   -4.4250   -0.7009    0.2825 C   0  0  0  0  0  0  0  0  0  0  0  0
   -4.8284   -0.0726    1.4501 C   0  0  0  0  0  0  0  0  0  0  0  0
   -6.7641    2.5443    2.4015 H   0  0  0  0  0  0  0  0  0  0  0  0
   -5.5134    1.7184    3.3305 H   0  0  0  0  0  0  0  0  0  0  0  0
   -7.1041    0.9466    3.1092 H   0  0  0  0  0  0  0  0  0  0  0  0
   -7.2492    1.9131    0.0739 H   0  0  0  0  0  0  0  0  0  0  0  0
   -6.4733    0.7729   -1.9950 H   0  0  0  0  0  0  0  0  0  0  0  0
   -2.8396   -2.3452   -1.9935 H   0  0  0  0  0  0  0  0  0  0  0  0
   -4.3405   -3.0324   -1.3402 H   0  0  0  0  0  0  0  0  0  0  0  0
   -3.3788   -2.5354    0.7582 H   0  0  0  0  0  0  0  0  0  0  0  0
   -1.9844   -0.1503   -0.3094 H   0  0  0  0  0  0  0  0  0  0  0  0
    1.3739   -2.8391   -0.4004 H   0  0  0  0  0  0  0  0  0  0  0  0
    1.7636   -2.1420    1.1732 H   0  0  0  0  0  0  0  0  0  0  0  0
    2.5513   -1.1228   -1.6113 H   0  0  0  0  0  0  0  0  0  0  0  0
    3.6331   -1.6945   -0.3150 H   0  0  0  0  0  0  0  0  0  0  0  0
    0.1747    0.0488    1.8956 H   0  0  0  0  0  0  0  0  0  0  0  0
   -0.4297    0.8810    0.4472 H   0  0  0  0  0  0  0  0  0  0  0  0
    3.8436    3.1406    0.9147 H   0  0  0  0  0  0  0  0  0  0  0  0
    4.6869   -0.4673   -1.9883 H   0  0  0  0  0  0  0  0  0  0  0  0
    6.9613   -0.5910   -2.8447 H   0  0  0  0  0  0  0  0  0  0  0  0
    8.7324    0.8943   -1.9520 H   0  0  0  0  0  0  0  0  0  0  0  0
    8.1972    2.5086   -0.1488 H   0  0  0  0  0  0  0  0  0  0  0  0
    5.9485    2.6315    0.7836 H   0  0  0  0  0  0  0  0  0  0  0  0
   -4.3513   -0.3130    2.3961 H   0  0  0  0  0  0  0  0  0  0  0  0
  1  2  1  0
  2  3  1  0
  3  4  2  0
  4  5  1  0
  5  6  1  0
  6  7  1  0
  7  8  1  0
  8  9  1  0
  9 10  1  0
 10 11  2  0
 10 12  1  0
 12 13  1  0
 13 14  1  0
 14 15  1  0
 15 16  2  0
 16 17  1  0
 16 18  1  0
 18 19  2  0
 19 20  1  0
 20 21  1  0
 21 22  2  0
 22 23  1  0
 23 24  2  0
 24 25  1  0
 25 26  2  0
  8 27  1  0
 27 28  1  0
 28  2  2  0
 27  5  2  0
 17 12  1  0
 26 21  1  0
 20 15  1  0
  1 29  1  0
  1 30  1  0
  1 31  1  0
  3 32  1  0
  4 33  1  0
  7 34  1  0
  7 35  1  0
  8 36  1  0
  9 37  1  0
 13 38  1  0
 13 39  1  0
 14 40  1  0
 14 41  1  0
 17 42  1  0
 17 43  1  0
 19 44  1  0
 22 45  1  0
 23 46  1  0
 24 47  1  0
 25 48  1  0
 26 49  1  0
 28 50  1  0
M  END
$$$$
OCNT-2318555
     RDKit          3D

 40 42  0  0  0  0  0  0  0  0999 V2000
    5.2655    3.4283   -0.9581 C   0  0  0  0  0  0  0  0  0  0  0  0
    3.9680    2.6474   -0.8493 C   0  0  0  0  0  0  0  0  0  0  0  0
    4.2972    1.2626   -0.7312 O   0  0  0  0  0  0  0  0  0  0  0  0
    3.1912    0.4405   -0.6443 C   0  0  0  0  0  0  0  0  0  0  0  0
    3.4486   -0.9197   -0.5708 C   0  0  0  0  0  0  0  0  0  0  0  0
    2.3695   -1.7904   -0.4661 C   0  0  0  0  0  0  0  0  0  0  0  0
    1.0788   -1.2720   -0.4490 C   0  0  0  0  0  0  0  0  0  0  0  0
    0.9318    0.1013   -0.5568 C   0  0  0  0  0  0  0  0  0  0  0  0
   -0.3073    0.7753   -0.4898 N   0  0  0  0  0  0  0  0  0  0  0  0
   -1.4498    0.3896   -1.6534 S   0  0  0  0  0  0  0  0  0  0  0  0
   -2.4745    1.4075   -1.6028 O   0  0  0  0  0  0  0  0  0  0  0  0
   -0.7896    0.0461   -2.8925 O   0  0  0  0  0  0  0  0  0  0  0  0
   -2.2778   -1.0783   -1.1694 C   0  0  0  0  0  0  0  0  0  0  0  0
   -2.5124   -2.2635   -1.8494 C   0  0  0  0  0  0  0  0  0  0  0  0
   -3.1973   -3.0854   -0.9484 C   0  0  0  0  0  0  0  0  0  0  0  0
   -3.3889   -2.4882    0.2253 N   0  0  0  0  0  0  0  0  0  0  0  0
   -2.8685   -1.2499    0.0603 N   0  0  0  0  0  0  0  0  0  0  0  0
   -2.8893   -0.2501    1.1567 C   0  0  0  0  0  0  0  0  0  0  0  0
   -1.8646   -0.5642    2.2759 C   0  0  0  0  0  0  0  0  0  0  0  0
   -2.9337   -0.0839    3.2805 C   0  0  0  0  0  0  0  0  0  0  0  0
   -3.9934   -0.4684    2.2255 C   0  0  0  0  0  0  0  0  0  0  0  0
    1.9512    0.9738   -0.6232 N   0  0  0  0  0  0  0  0  0  0  0  0
    5.8927    3.2585   -0.0767 H   0  0  0  0  0  0  0  0  0  0  0  0
    5.8423    3.0981   -1.8284 H   0  0  0  0  0  0  0  0  0  0  0  0
    5.0688    4.5001   -1.0505 H   0  0  0  0  0  0  0  0  0  0  0  0
    3.4198    2.9868    0.0378 H   0  0  0  0  0  0  0  0  0  0  0  0
    3.3681    2.8231   -1.7504 H   0  0  0  0  0  0  0  0  0  0  0  0
    4.4681   -1.2889   -0.5874 H   0  0  0  0  0  0  0  0  0  0  0  0
    2.5345   -2.8617   -0.3913 H   0  0  0  0  0  0  0  0  0  0  0  0
    0.2343   -1.9387   -0.3370 H   0  0  0  0  0  0  0  0  0  0  0  0
   -0.1159    1.7771   -0.5302 H   0  0  0  0  0  0  0  0  0  0  0  0
   -2.2096   -2.4853   -2.8640 H   0  0  0  0  0  0  0  0  0  0  0  0
   -3.5581   -4.0967   -1.0909 H   0  0  0  0  0  0  0  0  0  0  0  0
   -2.8666    0.7901    0.8155 H   0  0  0  0  0  0  0  0  0  0  0  0
   -0.9450    0.0264    2.2632 H   0  0  0  0  0  0  0  0  0  0  0  0
   -1.6022   -1.6227    2.3906 H   0  0  0  0  0  0  0  0  0  0  0  0
   -2.9801   -0.6322    4.2245 H   0  0  0  0  0  0  0  0  0  0  0  0
   -2.8900    0.9908    3.4915 H   0  0  0  0  0  0  0  0  0  0  0  0
   -4.3654   -1.4907    2.3541 H   0  0  0  0  0  0  0  0  0  0  0  0
   -4.8507    0.2075    2.1597 H   0  0  0  0  0  0  0  0  0  0  0  0
  1  2  1  0
  2  3  1  0
  3  4  1  0
  4  5  1  0
  5  6  2  0
  6  7  1  0
  7  8  2  0
  8  9  1  0
  9 10  1  0
 10 11  2  0
 10 12  2  0
 10 13  1  0
 13 14  2  0
 14 15  1  0
 15 16  2  0
 16 17  1  0
 17 18  1  0
 18 19  1  0
 19 20  1  0
 20 21  1  0
  8 22  1  0
 22  4  2  0
 17 13  1  0
 21 18  1  0
  1 23  1  0
  1 24  1  0
  1 25  1  0
  2 26  1  0
  2 27  1  0
  5 28  1  0
  6 29  1  0
  7 30  1  0
  9 31  1  0
 14 32  1  0
 15 33  1  0
 18 34  1  0
 19 35  1  0
 19 36  1  0
 20 37  1  0
 20 38  1  0
 21 39  1  0
 21 40  1  0
M  END
$$$$
OCNT-2318566
     RDKit          3D

 35 37  0  0  0  0  0  0  0  0999 V2000
    0.6386    0.2848   -1.3776 O   0  0  0  0  0  0  0  0  0  0  0  0
   -0.0853   -0.5612   -0.8662 C   0  0  0  0  0  0  0  0  0  0  0  0
   -1.5429   -0.6683   -1.2704 C   0  0  0  0  0  0  0  0  0  0  0  0
   -2.3461    0.4824   -0.7399 C   0  0  0  0  0  0  0  0  0  0  0  0
   -2.3724    1.6970   -1.4147 C   0  0  0  0  0  0  0  0  0  0  0  0
   -3.1176    2.7422   -0.8921 C   0  0  0  0  0  0  0  0  0  0  0  0
   -3.8062    2.5540    0.2977 C   0  0  0  0  0  0  0  0  0  0  0  0
   -3.7317    1.3175    0.9383 C   0  0  0  0  0  0  0  0  0  0  0  0
   -4.4902    1.1264    2.2434 C   0  0  0  0  0  0  0  0  0  0  0  0
   -4.2234   -0.0467    2.8846 F   0  0  0  0  0  0  0  0  0  0  0  0
   -4.2221    2.1111    3.1526 F   0  0  0  0  0  0  0  0  0  0  0  0
   -5.8454    1.1531    2.0688 F   0  0  0  0  0  0  0  0  0  0  0  0
   -3.0130    0.2812    0.4196 N   0  0  0  0  0  0  0  0  0  0  0  0
    0.2656   -1.4875    0.0830 N   0  0  0  0  0  0  0  0  0  0  0  0
    1.4869   -1.7164    0.6664 C   0  0  0  0  0  0  0  0  0  0  0  0
    1.5075   -2.6820    1.5985 N   0  0  0  0  0  0  0  0  0  0  0  0
    2.7713   -2.6952    2.0435 N   0  0  0  0  0  0  0  0  0  0  0  0
    3.5770   -1.7919    1.4229 C   0  0  0  0  0  0  0  0  0  0  0  0
    2.7768   -1.1566    0.5042 C   0  0  0  0  0  0  0  0  0  0  0  0
    3.2628   -0.0328   -0.4358 C   0  0  0  0  0  0  0  0  0  0  0  0
    3.5466   -0.3587   -1.8802 C   0  0  0  0  0  0  0  0  0  0  0  0
    4.6795   -0.0284   -0.9579 C   0  0  0  0  0  0  0  0  0  0  0  0
   -1.5939   -0.7079   -2.3633 H   0  0  0  0  0  0  0  0  0  0  0  0
   -1.9788   -1.6092   -0.9163 H   0  0  0  0  0  0  0  0  0  0  0  0
   -1.8143    1.8316   -2.3325 H   0  0  0  0  0  0  0  0  0  0  0  0
   -3.1565    3.6943   -1.4141 H   0  0  0  0  0  0  0  0  0  0  0  0
   -4.3906    3.3645    0.7206 H   0  0  0  0  0  0  0  0  0  0  0  0
   -0.4421   -2.0930    0.4721 H   0  0  0  0  0  0  0  0  0  0  0  0
    3.0124   -3.3504    2.7786 H   0  0  0  0  0  0  0  0  0  0  0  0
    4.6196   -1.6855    1.6811 H   0  0  0  0  0  0  0  0  0  0  0  0
    2.8285    0.9389   -0.2211 H   0  0  0  0  0  0  0  0  0  0  0  0
    3.2465    0.3777   -2.6160 H   0  0  0  0  0  0  0  0  0  0  0  0
    3.4351   -1.3842   -2.2103 H   0  0  0  0  0  0  0  0  0  0  0  0
    5.3505   -0.8328   -0.6894 H   0  0  0  0  0  0  0  0  0  0  0  0
    5.1674    0.9321   -1.0793 H   0  0  0  0  0  0  0  0  0  0  0  0
  1  2  2  0
  2  3  1  0
  3  4  1  0
  4  5  2  0
  5  6  1  0
  6  7  2  0
  7  8  1  0
  8  9  1  0
  9 10  1  0
  9 11  1  0
  9 12  1  0
  8 13  2  0
  2 14  1  0
 14 15  1  0
 15 16  2  0
 16 17  1  0
 17 18  1  0
 18 19  2  0
 19 20  1  0
 20 21  1  0
 21 22  1  0
 13  4  1  0
 19 15  1  0
 22 20  1  0
  3 23  1  0
  3 24  1  0
  5 25  1  0
  6 26  1  0
  7 27  1  0
 14 28  1  0
 17 29  1  0
 18 30  1  0
 20 31  1  0
 21 32  1  0
 21 33  1  0
 22 34  1  0
 22 35  1  0
M  END
$$$$
OCNT-2318569
     RDKit          3D

 49 53  0  0  0  0  0  0  0  0999 V2000
   -2.6781   -0.2528   -3.7919 C   0  0  0  0  0  0  0  0  0  0  0  0
   -2.0498   -1.2527   -2.8223 C   0  0  0  0  0  0  0  0  0  0  0  0
   -2.8083   -1.3315   -1.4984 C   0  0  0  0  0  0  0  0  0  0  0  0
   -2.2276   -0.1800   -0.6431 C   0  0  0  0  0  0  0  0  0  0  0  0
   -2.1555   -0.5642    0.8174 C   0  0  0  0  0  0  0  0  0  0  0  0
   -1.3097   -1.5681    1.3052 C   0  0  0  0  0  0  0  0  0  0  0  0
   -1.2989   -1.8728    2.6631 C   0  0  0  0  0  0  0  0  0  0  0  0
   -2.1486   -1.1697    3.4987 C   0  0  0  0  0  0  0  0  0  0  0  0
   -2.9892   -0.2040    3.0723 N   0  0  0  0  0  0  0  0  0  0  0  0
   -2.9681    0.0777    1.7492 C   0  0  0  0  0  0  0  0  0  0  0  0
   -0.9414    0.1549   -1.3012 N   0  0  0  0  0  0  0  0  0  0  0  0
    0.1407    0.6274   -0.5637 C   0  0  0  0  0  0  0  0  0  0  0  0
    1.2439   -0.1460   -0.5365 N   0  0  0  0  0  0  0  0  0  0  0  0
    2.2641    0.2368    0.2467 C   0  0  0  0  0  0  0  0  0  0  0  0
    3.4503   -0.6382    0.2999 C   0  0  0  0  0  0  0  0  0  0  0  0
    3.5422   -1.7997   -0.4822 C   0  0  0  0  0  0  0  0  0  0  0  0
    4.6758   -2.5929   -0.3969 C   0  0  0  0  0  0  0  0  0  0  0  0
    5.7228   -2.3204    0.4065 N   0  0  0  0  0  0  0  0  0  0  0  0
    5.6314   -1.2031    1.1551 C   0  0  0  0  0  0  0  0  0  0  0  0
    4.5395   -0.3495    1.1361 C   0  0  0  0  0  0  0  0  0  0  0  0
    2.2755    1.3492    0.9951 N   0  0  0  0  0  0  0  0  0  0  0  0
    1.2056    2.1431    0.9256 C   0  0  0  0  0  0  0  0  0  0  0  0
    1.2155    3.3193    1.6661 C   0  0  0  0  0  0  0  0  0  0  0  0
    0.1560    4.2285    1.6275 C   0  0  0  0  0  0  0  0  0  0  0  0
   -0.9400    3.9690    0.8193 C   0  0  0  0  0  0  0  0  0  0  0  0
   -0.9726    2.7933    0.0727 C   0  0  0  0  0  0  0  0  0  0  0  0
    0.0870    1.8500    0.1349 C   0  0  0  0  0  0  0  0  0  0  0  0
   -0.6579   -0.8181   -2.3577 C   0  0  0  0  0  0  0  0  0  0  0  0
   -2.0848   -0.1857   -4.7098 H   0  0  0  0  0  0  0  0  0  0  0  0
   -3.6889   -0.5712   -4.0678 H   0  0  0  0  0  0  0  0  0  0  0  0
   -2.7486    0.7527   -3.3644 H   0  0  0  0  0  0  0  0  0  0  0  0
   -2.0093   -2.2321   -3.3119 H   0  0  0  0  0  0  0  0  0  0  0  0
   -2.6201   -2.3107   -1.0404 H   0  0  0  0  0  0  0  0  0  0  0  0
   -3.8936   -1.2403   -1.6182 H   0  0  0  0  0  0  0  0  0  0  0  0
   -2.8927    0.6837   -0.7637 H   0  0  0  0  0  0  0  0  0  0  0  0
   -0.6417   -2.1014    0.6329 H   0  0  0  0  0  0  0  0  0  0  0  0
   -0.6390   -2.6363    3.0587 H   0  0  0  0  0  0  0  0  0  0  0  0
   -2.1753   -1.3695    4.5659 H   0  0  0  0  0  0  0  0  0  0  0  0
   -3.6530    0.8684    1.4534 H   0  0  0  0  0  0  0  0  0  0  0  0
    2.7399   -2.0865   -1.1552 H   0  0  0  0  0  0  0  0  0  0  0  0
    4.7714   -3.4959   -0.9929 H   0  0  0  0  0  0  0  0  0  0  0  0
    6.4861   -1.0012    1.7943 H   0  0  0  0  0  0  0  0  0  0  0  0
    4.5406    0.5321    1.7705 H   0  0  0  0  0  0  0  0  0  0  0  0
    2.0795    3.5402    2.2892 H   0  0  0  0  0  0  0  0  0  0  0  0
    0.1997    5.1393    2.2188 H   0  0  0  0  0  0  0  0  0  0  0  0
   -1.7618    4.6779    0.7636 H   0  0  0  0  0  0  0  0  0  0  0  0
   -1.8195    2.6204   -0.5844 H   0  0  0  0  0  0  0  0  0  0  0  0
   -0.1228   -1.6929   -1.9659 H   0  0  0  0  0  0  0  0  0  0  0  0
   -0.0708   -0.3761   -3.1702 H   0  0  0  0  0  0  0  0  0  0  0  0
  1  2  1  0
  2  3  1  0
  3  4  1  0
  4  5  1  0
  5  6  1  0
  6  7  2  0
  7  8  1  0
  8  9  2  0
  9 10  1  0
  4 11  1  0
 11 12  1  0
 12 13  1  0
 13 14  2  0
 14 15  1  0
 15 16  2  0
 16 17  1  0
 17 18  2  0
 18 19  1  0
 19 20  2  0
 14 21  1  0
 21 22  2  0
 22 23  1  0
 23 24  2  0
 24 25  1  0
 25 26  2  0
 26 27  1  0
 11 28  1  0
 28  2  1  0
 10  5  2  0
 27 12  2  0
 20 15  1  0
 27 22  1  0
  1 29  1  0
  1 30  1  0
  1 31  1  0
  2 32  1  0
  3 33  1  0
  3 34  1  0
  4 35  1  0
  6 36  1  0
  7 37  1  0
  8 38  1  0
 10 39  1  0
 16 40  1  0
 17 41  1  0
 19 42  1  0
 20 43  1  0
 23 44  1  0
 24 45  1  0
 25 46  1  0
 26 47  1  0
 28 48  1  0
 28 49  1  0
M  END
$$$$
OCNT-2318570
     RDKit          3D

 41 44  0  0  0  0  0  0  0  0999 V2000
    3.1504   -1.9666    1.1701 C   0  0  0  0  0  0  0  0  0  0  0  0
    3.9038   -0.7361    1.0902 N   0  0  0  0  0  0  0  0  0  0  0  0
    4.8530   -0.4905    2.0167 N   0  0  0  0  0  0  0  0  0  0  0  0
    5.3263    0.7095    1.6814 C   0  0  0  0  0  0  0  0  0  0  0  0
    4.6915    1.2348    0.5442 C   0  0  0  0  0  0  0  0  0  0  0  0
    3.7678    0.2776    0.1725 C   0  0  0  0  0  0  0  0  0  0  0  0
    2.7998    0.2547   -0.9609 C   0  0  0  0  0  0  0  0  0  0  0  0
    1.4237    0.1656   -0.4744 N   0  0  0  0  0  0  0  0  0  0  0  0
    0.9443    1.4591    0.0559 C   0  0  0  0  0  0  0  0  0  0  0  0
   -0.4287    1.2253   -0.6931 C   0  0  0  0  0  0  0  0  0  0  0  0
   -0.9161    2.4190   -1.3781 O   0  0  0  0  0  0  0  0  0  0  0  0
   -1.6518    0.4766    0.0947 C   0  0  0  0  0  0  0  0  0  0  0  0
   -1.6415    0.3440    1.5032 C   0  0  0  0  0  0  0  0  0  0  0  0
   -2.6495   -0.3149    2.2040 C   0  0  0  0  0  0  0  0  0  0  0  0
   -3.7199   -0.8676    1.5170 C   0  0  0  0  0  0  0  0  0  0  0  0
   -3.8025   -0.7566    0.1264 C   0  0  0  0  0  0  0  0  0  0  0  0
   -4.9005   -1.3138   -0.5505 C   0  0  0  0  0  0  0  0  0  0  0  0
   -5.0192   -1.2085   -1.9339 C   0  0  0  0  0  0  0  0  0  0  0  0
   -4.0424   -0.5386   -2.6555 C   0  0  0  0  0  0  0  0  0  0  0  0
   -2.9439    0.0179   -1.9935 C   0  0  0  0  0  0  0  0  0  0  0  0
   -2.7814   -0.0786   -0.5941 C   0  0  0  0  0  0  0  0  0  0  0  0
    0.4611    0.2730   -1.5904 C   0  0  0  0  0  0  0  0  0  0  0  0
    2.2066   -1.7564    1.6786 H   0  0  0  0  0  0  0  0  0  0  0  0
    2.9747   -2.3489    0.1623 H   0  0  0  0  0  0  0  0  0  0  0  0
    3.7261   -2.7031    1.7375 H   0  0  0  0  0  0  0  0  0  0  0  0
    6.1140    1.1489    2.2796 H   0  0  0  0  0  0  0  0  0  0  0  0
    4.8809    2.1820    0.0602 H   0  0  0  0  0  0  0  0  0  0  0  0
    3.0188   -0.6195   -1.5875 H   0  0  0  0  0  0  0  0  0  0  0  0
    2.9593    1.1355   -1.5979 H   0  0  0  0  0  0  0  0  0  0  0  0
    1.4824    2.3497   -0.2986 H   0  0  0  0  0  0  0  0  0  0  0  0
    0.9229    1.5172    1.1465 H   0  0  0  0  0  0  0  0  0  0  0  0
   -0.1341    2.8172   -1.7934 H   0  0  0  0  0  0  0  0  0  0  0  0
   -0.8223    0.7604    2.0829 H   0  0  0  0  0  0  0  0  0  0  0  0
   -2.5952   -0.3964    3.2864 H   0  0  0  0  0  0  0  0  0  0  0  0
   -4.4964   -1.3806    2.0796 H   0  0  0  0  0  0  0  0  0  0  0  0
   -5.6803   -1.8345    0.0013 H   0  0  0  0  0  0  0  0  0  0  0  0
   -5.8762   -1.6409   -2.4425 H   0  0  0  0  0  0  0  0  0  0  0  0
   -4.1325   -0.4387   -3.7338 H   0  0  0  0  0  0  0  0  0  0  0  0
   -2.2158    0.5515   -2.5984 H   0  0  0  0  0  0  0  0  0  0  0  0
    0.0105   -0.6834   -1.8740 H   0  0  0  0  0  0  0  0  0  0  0  0
    0.8325    0.7548   -2.5047 H   0  0  0  0  0  0  0  0  0  0  0  0
  1  2  1  0
  2  3  1  0
  3  4  2  0
  4  5  1  0
  5  6  2  0
  6  7  1  0
  7  8  1  0
  8  9  1  0
  9 10  1  0
 10 11  1  0
 10 12  1  0
 12 13  2  0
 13 14  1  0
 14 15  2  0
 15 16  1  0
 16 17  2  0
 17 18  1  0
 18 19  2  0
 19 20  1  0
 20 21  2  0
 10 22  1  0
  6  2  1  0
 22  8  1  0
 21 12  1  0
 21 16  1  0
  1 23  1  0
  1 24  1  0
  1 25  1  0
  4 26  1  0
  5 27  1  0
  7 28  1  0
  7 29  1  0
  9 30  1  0
  9 31  1  0
 11 32  1  0
 13 33  1  0
 14 34  1  0
 15 35  1  0
 17 36  1  0
 18 37  1  0
 19 38  1  0
 20 39  1  0
 22 40  1  0
 22 41  1  0
M  END
$$$$
OCNT-2318576
     RDKit          3D

 63 65  0  0  0  0  0  0  0  0999 V2000
   -2.3712   -3.1185    1.0450 O   0  0  0  0  0  0  0  0  0  0  0  0
   -1.5152   -2.3288    1.4167 C   0  0  0  0  0  0  0  0  0  0  0  0
   -0.3028   -2.6710    1.9494 N   0  0  0  0  0  0  0  0  0  0  0  0
    0.1220   -4.0503    2.0735 C   0  0  0  0  0  0  0  0  0  0  0  0
    1.3513   -4.4208    1.2157 C   0  0  0  0  0  0  0  0  0  0  0  0
    1.0724   -4.3969   -0.2924 C   0  0  0  0  0  0  0  0  0  0  0  0
    1.0119   -2.9877   -0.8986 C   0  0  0  0  0  0  0  0  0  0  0  0
    1.6870   -1.9659   -0.0799 N   0  0  0  0  0  0  0  0  0  0  0  0
    1.9139   -0.7300   -0.8598 C   0  0  0  0  0  0  0  0  0  0  0  0
    2.0562    0.5249    0.0500 C   0  0  0  0  0  0  0  0  0  0  0  0
    0.9671    0.5458    0.9902 O   0  0  0  0  0  0  0  0  0  0  0  0
    2.0970    1.8672   -0.6600 C   0  0  0  0  0  0  0  0  0  0  0  0
    1.9564    3.0430    0.0997 C   0  0  0  0  0  0  0  0  0  0  0  0
    2.0092    4.3025   -0.4991 C   0  0  0  0  0  0  0  0  0  0  0  0
    2.2075    4.4119   -1.8713 C   0  0  0  0  0  0  0  0  0  0  0  0
    2.3605    3.2626   -2.6414 C   0  0  0  0  0  0  0  0  0  0  0  0
    2.3118    2.0005   -2.0409 C   0  0  0  0  0  0  0  0  0  0  0  0
    2.9207   -2.5020    0.4985 C   0  0  0  0  0  0  0  0  0  0  0  0
    2.5897   -3.5653    1.5545 C   0  0  0  0  0  0  0  0  0  0  0  0
   -1.6462   -0.9668    1.3397 N   0  0  0  0  0  0  0  0  0  0  0  0
   -2.8929   -0.3689    0.8793 C   0  0  0  0  0  0  0  0  0  0  0  0
   -4.0112   -0.5015    1.9454 C   0  0  0  0  0  0  0  0  0  0  0  0
   -5.2702   -0.0188    1.4776 O   0  0  0  0  0  0  0  0  0  0  0  0
   -2.5955    1.0462    0.4004 C   0  0  0  0  0  0  0  0  0  0  0  0
   -2.0279    1.2232   -0.8745 C   0  0  0  0  0  0  0  0  0  0  0  0
   -1.7091    2.4976   -1.3521 C   0  0  0  0  0  0  0  0  0  0  0  0
   -1.9466    3.6306   -0.5644 C   0  0  0  0  0  0  0  0  0  0  0  0
   -1.6383    5.0175   -1.0696 C   0  0  0  0  0  0  0  0  0  0  0  0
   -1.0269    5.0410   -2.2876 F   0  0  0  0  0  0  0  0  0  0  0  0
   -2.7639    5.7743   -1.2118 F   0  0  0  0  0  0  0  0  0  0  0  0
   -0.8285    5.7217   -0.2291 F   0  0  0  0  0  0  0  0  0  0  0  0
   -2.4997    3.4588    0.7123 C   0  0  0  0  0  0  0  0  0  0  0  0
   -2.8153    2.1830    1.1906 C   0  0  0  0  0  0  0  0  0  0  0  0
    0.4356   -2.0033    1.7482 H   0  0  0  0  0  0  0  0  0  0  0  0
    0.3692   -4.1951    3.1310 H   0  0  0  0  0  0  0  0  0  0  0  0
   -0.7094   -4.7256    1.8432 H   0  0  0  0  0  0  0  0  0  0  0  0
    1.5884   -5.4593    1.4854 H   0  0  0  0  0  0  0  0  0  0  0  0
    0.1497   -4.9424   -0.5231 H   0  0  0  0  0  0  0  0  0  0  0  0
    1.8839   -4.9455   -0.7892 H   0  0  0  0  0  0  0  0  0  0  0  0
   -0.0373   -2.6970   -1.0284 H   0  0  0  0  0  0  0  0  0  0  0  0
    1.4472   -3.0330   -1.9063 H   0  0  0  0  0  0  0  0  0  0  0  0
    1.0360   -0.5656   -1.5002 H   0  0  0  0  0  0  0  0  0  0  0  0
    2.7804   -0.8402   -1.5235 H   0  0  0  0  0  0  0  0  0  0  0  0
    2.9786    0.4444    0.6361 H   0  0  0  0  0  0  0  0  0  0  0  0
    0.2627    0.0065    0.5834 H   0  0  0  0  0  0  0  0  0  0  0  0
    1.7936    2.9765    1.1750 H   0  0  0  0  0  0  0  0  0  0  0  0
    1.8854    5.1969    0.1064 H   0  0  0  0  0  0  0  0  0  0  0  0
    2.2392    5.3925   -2.3387 H   0  0  0  0  0  0  0  0  0  0  0  0
    2.5190    3.3482   -3.7136 H   0  0  0  0  0  0  0  0  0  0  0  0
    2.4466    1.1333   -2.6808 H   0  0  0  0  0  0  0  0  0  0  0  0
    3.5101   -1.7194    0.9894 H   0  0  0  0  0  0  0  0  0  0  0  0
    3.5614   -2.9304   -0.2841 H   0  0  0  0  0  0  0  0  0  0  0  0
    2.4652   -3.0874    2.5346 H   0  0  0  0  0  0  0  0  0  0  0  0
    3.4619   -4.2246    1.6534 H   0  0  0  0  0  0  0  0  0  0  0  0
   -1.1360   -0.4515    2.0476 H   0  0  0  0  0  0  0  0  0  0  0  0
   -3.2356   -0.9366    0.0024 H   0  0  0  0  0  0  0  0  0  0  0  0
   -4.1529   -1.5488    2.2332 H   0  0  0  0  0  0  0  0  0  0  0  0
   -3.7574    0.0383    2.8634 H   0  0  0  0  0  0  0  0  0  0  0  0
   -5.5275   -0.5768    0.7224 H   0  0  0  0  0  0  0  0  0  0  0  0
   -1.8267    0.3588   -1.5058 H   0  0  0  0  0  0  0  0  0  0  0  0
   -1.2668    2.6001   -2.3420 H   0  0  0  0  0  0  0  0  0  0  0  0
   -2.6922    4.3255    1.3441 H   0  0  0  0  0  0  0  0  0  0  0  0
   -3.2459    2.1027    2.1856 H   0  0  0  0  0  0  0  0  0  0  0  0
  1  2  2  0
  2  3  1  0
  3  4  1  0
  4  5  1  0
  5  6  1  0
  6  7  1  0
  7  8  1  0
  8  9  1  0
  9 10  1  0
 10 11  1  0
 10 12  1  0
 12 13  2  0
 13 14  1  0
 14 15  2  0
 15 16  1  0
 16 17  2  0
  8 18  1  0
 18 19  1  0
  2 20  1  0
 20 21  1  0
 21 22  1  0
 22 23  1  0
 21 24  1  0
 24 25  1  0
 25 26  2  0
 26 27  1  0
 27 28  1  0
 28 29  1  0
 28 30  1  0
 28 31  1  0
 27 32  2  0
 32 33  1  0
 19  5  1  0
 33 24  2  0
 17 12  1  0
  3 34  1  0
  4 35  1  0
  4 36  1  0
  5 37  1  0
  6 38  1  0
  6 39  1  0
  7 40  1  0
  7 41  1  0
  9 42  1  0
  9 43  1  0
 10 44  1  0
 11 45  1  0
 13 46  1  0
 14 47  1  0
 15 48  1  0
 16 49  1  0
 17 50  1  0
 18 51  1  0
 18 52  1  0
 19 53  1  0
 19 54  1  0
 20 55  1  0
 21 56  1  0
 22 57  1  0
 22 58  1  0
 23 59  1  0
 25 60  1  0
 26 61  1  0
 32 62  1  0
 33 63  1  0
M  END
$$$$
OCNT-2318584
     RDKit          3D

 56 58  0  0  0  0  0  0  0  0999 V2000
   -5.2394    0.1301    2.2544 C   0  0  0  0  0  0  0  0  0  0  0  0
   -4.0666   -0.3843    2.8722 O   0  0  0  0  0  0  0  0  0  0  0  0
   -2.9475   -0.4803    2.0899 C   0  0  0  0  0  0  0  0  0  0  0  0
   -1.8469   -1.0635    2.7174 C   0  0  0  0  0  0  0  0  0  0  0  0
   -0.6461   -1.2290    2.0291 C   0  0  0  0  0  0  0  0  0  0  0  0
   -0.5341   -0.7992    0.7061 C   0  0  0  0  0  0  0  0  0  0  0  0
   -1.6157   -0.1841    0.0587 C   0  0  0  0  0  0  0  0  0  0  0  0
   -1.5429    0.3071   -1.3926 C   0  0  0  0  0  0  0  0  0  0  0  0
   -0.1623    0.9217   -1.7935 C   0  0  0  0  0  0  0  0  0  0  0  0
    0.1890    2.0735   -0.9308 N   0  0  0  0  0  0  0  0  0  0  0  0
    1.7214    2.7295   -1.0818 S   0  0  0  0  0  0  0  0  0  0  0  0
    2.1378    2.5591   -2.4562 O   0  0  0  0  0  0  0  0  0  0  0  0
    1.6547    4.0407   -0.4768 O   0  0  0  0  0  0  0  0  0  0  0  0
    2.7173    1.6688   -0.0411 C   0  0  0  0  0  0  0  0  0  0  0  0
    2.2975    1.7156    1.4231 C   0  0  0  0  0  0  0  0  0  0  0  0
    3.0390    0.7099    2.3037 C   0  0  0  0  0  0  0  0  0  0  0  0
    4.5454    0.9353    2.4140 C   0  0  0  0  0  0  0  0  0  0  0  0
    5.1418   -0.1923    1.6056 C   0  0  0  0  0  0  0  0  0  0  0  0
    4.1138   -1.2843    1.7791 C   0  0  0  0  0  0  0  0  0  0  0  0
    2.8472   -0.6162    1.7772 O   0  0  0  0  0  0  0  0  0  0  0  0
   -2.0830   -0.7280   -2.2937 N   0  0  0  0  0  0  0  0  0  0  0  0
   -1.2300   -1.8892   -2.5242 C   0  0  0  0  0  0  0  0  0  0  0  0
   -1.9459   -2.6163   -3.6548 C   0  0  0  0  0  0  0  0  0  0  0  0
   -2.7655   -1.5451   -4.3671 C   0  0  0  0  0  0  0  0  0  0  0  0
   -2.4674   -0.2530   -3.6201 C   0  0  0  0  0  0  0  0  0  0  0  0
   -2.8304   -0.0493    0.7651 C   0  0  0  0  0  0  0  0  0  0  0  0
   -5.5611   -0.5074    1.4236 H   0  0  0  0  0  0  0  0  0  0  0  0
   -6.0377    0.1300    3.0018 H   0  0  0  0  0  0  0  0  0  0  0  0
   -5.0935    1.1644    1.9263 H   0  0  0  0  0  0  0  0  0  0  0  0
   -1.9278   -1.3987    3.7486 H   0  0  0  0  0  0  0  0  0  0  0  0
    0.2064   -1.6894    2.5229 H   0  0  0  0  0  0  0  0  0  0  0  0
    0.4140   -0.9548    0.1994 H   0  0  0  0  0  0  0  0  0  0  0  0
   -2.2481    1.1520   -1.4355 H   0  0  0  0  0  0  0  0  0  0  0  0
    0.6332    0.1722   -1.7435 H   0  0  0  0  0  0  0  0  0  0  0  0
   -0.2180    1.2907   -2.8237 H   0  0  0  0  0  0  0  0  0  0  0  0
   -0.5240    2.7919   -0.8013 H   0  0  0  0  0  0  0  0  0  0  0  0
    2.6515    0.6602   -0.4590 H   0  0  0  0  0  0  0  0  0  0  0  0
    3.7469    2.0181   -0.1617 H   0  0  0  0  0  0  0  0  0  0  0  0
    2.4377    2.7271    1.8207 H   0  0  0  0  0  0  0  0  0  0  0  0
    1.2259    1.5018    1.4923 H   0  0  0  0  0  0  0  0  0  0  0  0
    2.5925    0.7364    3.3060 H   0  0  0  0  0  0  0  0  0  0  0  0
    4.8486    0.8298    3.4639 H   0  0  0  0  0  0  0  0  0  0  0  0
    4.8745    1.9251    2.0835 H   0  0  0  0  0  0  0  0  0  0  0  0
    5.2054    0.0989    0.5506 H   0  0  0  0  0  0  0  0  0  0  0  0
    6.1406   -0.4881    1.9388 H   0  0  0  0  0  0  0  0  0  0  0  0
    4.1414   -2.0241    0.9748 H   0  0  0  0  0  0  0  0  0  0  0  0
    4.2291   -1.7983    2.7401 H   0  0  0  0  0  0  0  0  0  0  0  0
   -0.2275   -1.6071   -2.8590 H   0  0  0  0  0  0  0  0  0  0  0  0
   -1.1385   -2.5311   -1.6455 H   0  0  0  0  0  0  0  0  0  0  0  0
   -1.2338   -3.0985   -4.3326 H   0  0  0  0  0  0  0  0  0  0  0  0
   -2.6127   -3.3912   -3.2585 H   0  0  0  0  0  0  0  0  0  0  0  0
   -2.4989   -1.4684   -5.4264 H   0  0  0  0  0  0  0  0  0  0  0  0
   -3.8323   -1.7926   -4.3066 H   0  0  0  0  0  0  0  0  0  0  0  0
   -1.6539    0.2784   -4.1272 H   0  0  0  0  0  0  0  0  0  0  0  0
   -3.3459    0.4000   -3.5891 H   0  0  0  0  0  0  0  0  0  0  0  0
   -3.6751    0.3955    0.2476 H   0  0  0  0  0  0  0  0  0  0  0  0
  1  2  1  0
  2  3  1  0
  3  4  1  0
  4  5  2  0
  5  6  1  0
  6  7  2  0
  7  8  1  0
  8  9  1  0
  9 10  1  0
 10 11  1  0
 11 12  2  0
 11 13  2  0
 11 14  1  0
 14 15  1  0
 15 16  1  0
 16 17  1  0
 17 18  1  0
 18 19  1  0
 19 20  1  0
  8 21  1  0
 21 22  1  0
 22 23  1  0
 23 24  1  0
 24 25  1  0
  7 26  1  0
 26  3  2  0
 20 16  1  0
 25 21  1  0
  1 27  1  0
  1 28  1  0
  1 29  1  0
  4 30  1  0
  5 31  1  0
  6 32  1  0
  8 33  1  0
  9 34  1  0
  9 35  1  0
 10 36  1  0
 14 37  1  0
 14 38  1  0
 15 39  1  0
 15 40  1  0
 16 41  1  0
 17 42  1  0
 17 43  1  0
 18 44  1  0
 18 45  1  0
 19 46  1  0
 19 47  1  0
 22 48  1  0
 22 49  1  0
 23 50  1  0
 23 51  1  0
 24 52  1  0
 24 53  1  0
 25 54  1  0
 25 55  1  0
 26 56  1  0
M  END
$$$$
OCNT-2318585
     RDKit          3D

 41 44  0  0  0  0  0  0  0  0999 V2000
    5.1202   -1.9134   -1.1861 C   0  0  0  0  0  0  0  0  0  0  0  0
    3.7759   -1.2546   -1.0149 C   0  0  0  0  0  0  0  0  0  0  0  0
    2.7894   -1.5726   -1.9651 C   0  0  0  0  0  0  0  0  0  0  0  0
    1.5064   -1.0220   -1.9038 C   0  0  0  0  0  0  0  0  0  0  0  0
    1.1466   -0.1570   -0.8746 C   0  0  0  0  0  0  0  0  0  0  0  0
   -0.0938    0.4756   -0.7934 N   0  0  0  0  0  0  0  0  0  0  0  0
   -1.2403   -0.0589   -1.5176 C   0  0  0  0  0  0  0  0  0  0  0  0
   -2.4994    0.6467   -1.0540 C   0  0  0  0  0  0  0  0  0  0  0  0
   -2.9487    1.7490   -1.8046 C   0  0  0  0  0  0  0  0  0  0  0  0
   -4.0917    2.4466   -1.4321 C   0  0  0  0  0  0  0  0  0  0  0  0
   -4.7986    2.0602   -0.2975 C   0  0  0  0  0  0  0  0  0  0  0  0
   -4.3697    0.9792    0.4863 C   0  0  0  0  0  0  0  0  0  0  0  0
   -5.0917    0.6173    1.6356 C   0  0  0  0  0  0  0  0  0  0  0  0
   -4.6806   -0.4453    2.4378 C   0  0  0  0  0  0  0  0  0  0  0  0
   -3.5392   -1.1593    2.1014 C   0  0  0  0  0  0  0  0  0  0  0  0
   -2.8111   -0.8131    0.9602 C   0  0  0  0  0  0  0  0  0  0  0  0
   -3.2048    0.2564    0.1211 C   0  0  0  0  0  0  0  0  0  0  0  0
    2.1404    0.1996    0.0507 C   0  0  0  0  0  0  0  0  0  0  0  0
    3.4471   -0.3395    0.0094 C   0  0  0  0  0  0  0  0  0  0  0  0
    4.3807    0.0731    1.0058 N   0  0  0  0  0  0  0  0  0  0  0  0
    4.2081    0.9619    2.0446 C   0  0  0  0  0  0  0  0  0  0  0  0
    5.3176    1.0549    2.7407 N   0  0  0  0  0  0  0  0  0  0  0  0
    6.2044    0.2148    2.1311 N   0  0  0  0  0  0  0  0  0  0  0  0
    5.6522   -0.3810    1.0853 N   0  0  0  0  0  0  0  0  0  0  0  0
    5.3655   -2.5238   -0.3117 H   0  0  0  0  0  0  0  0  0  0  0  0
    5.8970   -1.1645   -1.3685 H   0  0  0  0  0  0  0  0  0  0  0  0
    5.1295   -2.5897   -2.0487 H   0  0  0  0  0  0  0  0  0  0  0  0
    3.0158   -2.2562   -2.7825 H   0  0  0  0  0  0  0  0  0  0  0  0
    0.8023   -1.2903   -2.6858 H   0  0  0  0  0  0  0  0  0  0  0  0
   -0.3361    0.7695    0.1498 H   0  0  0  0  0  0  0  0  0  0  0  0
   -1.3460   -1.1409   -1.3758 H   0  0  0  0  0  0  0  0  0  0  0  0
   -1.1097    0.1001   -2.5956 H   0  0  0  0  0  0  0  0  0  0  0  0
   -2.3985    2.0709   -2.6871 H   0  0  0  0  0  0  0  0  0  0  0  0
   -4.4304    3.2940   -2.0225 H   0  0  0  0  0  0  0  0  0  0  0  0
   -5.6904    2.6199   -0.0227 H   0  0  0  0  0  0  0  0  0  0  0  0
   -5.9870    1.1674    1.9182 H   0  0  0  0  0  0  0  0  0  0  0  0
   -5.2509   -0.7112    3.3238 H   0  0  0  0  0  0  0  0  0  0  0  0
   -3.2114   -1.9876    2.7244 H   0  0  0  0  0  0  0  0  0  0  0  0
   -1.9213   -1.3982    0.7406 H   0  0  0  0  0  0  0  0  0  0  0  0
    1.8548    0.9227    0.8094 H   0  0  0  0  0  0  0  0  0  0  0  0
    3.2972    1.4990    2.2500 H   0  0  0  0  0  0  0  0  0  0  0  0
  1  2  1  0
  2  3  1  0
  3  4  2  0
  4  5  1  0
  5  6  1  0
  6  7  1  0
  7  8  1  0
  8  9  2  0
  9 10  1  0
 10 11  2  0
 11 12  1  0
 12 13  2  0
 13 14  1  0
 14 15  2  0
 15 16  1  0
 16 17  2  0
  5 18  2  0
 18 19  1  0
 19 20  1  0
 20 21  1  0
 21 22  2  0
 22 23  1  0
 23 24  2  0
 19  2  2  0
 24 20  1  0
 17  8  1  0
 17 12  1  0
  1 25  1  0
  1 26  1  0
  1 27  1  0
  3 28  1  0
  4 29  1  0
  6 30  1  0
  7 31  1  0
  7 32  1  0
  9 33  1  0
 10 34  1  0
 11 35  1  0
 13 36  1  0
 14 37  1  0
 15 38  1  0
 16 39  1  0
 18 40  1  0
 21 41  1  0
M  END
$$$$
OCNT-2318618
     RDKit          3D

 52 56  0  0  0  0  0  0  0  0999 V2000
    6.6284    0.0568    2.1281 C   0  0  0  0  0  0  0  0  0  0  0  0
    6.0131    1.1290    1.4265 O   0  0  0  0  0  0  0  0  0  0  0  0
    4.9045    0.8343    0.6756 C   0  0  0  0  0  0  0  0  0  0  0  0
    4.4001   -0.4525    0.4656 C   0  0  0  0  0  0  0  0  0  0  0  0
    3.2596   -0.6596   -0.3285 C   0  0  0  0  0  0  0  0  0  0  0  0
    2.5930    0.4360   -0.8986 C   0  0  0  0  0  0  0  0  0  0  0  0
    3.1102    1.7246   -0.6938 C   0  0  0  0  0  0  0  0  0  0  0  0
    4.2591    1.9334    0.0857 C   0  0  0  0  0  0  0  0  0  0  0  0
    4.7826    3.3294    0.2846 C   0  0  0  0  0  0  0  0  0  0  0  0
    1.3608    0.2674   -1.7675 C   0  0  0  0  0  0  0  0  0  0  0  0
    0.7869   -1.0887   -1.7328 N   0  0  0  0  0  0  0  0  0  0  0  0
   -0.3024   -1.3064   -0.9372 C   0  0  0  0  0  0  0  0  0  0  0  0
   -0.4526   -2.1987    0.0176 N   0  0  0  0  0  0  0  0  0  0  0  0
   -1.7080   -2.0610    0.5474 N   0  0  0  0  0  0  0  0  0  0  0  0
   -2.3395   -1.1000   -0.1049 C   0  0  0  0  0  0  0  0  0  0  0  0
   -3.7000   -0.6744    0.1899 C   0  0  0  0  0  0  0  0  0  0  0  0
   -4.6525   -1.5789    0.6866 C   0  0  0  0  0  0  0  0  0  0  0  0
   -5.9424   -1.1404    0.9977 C   0  0  0  0  0  0  0  0  0  0  0  0
   -6.9419   -2.1313    1.5247 C   0  0  0  0  0  0  0  0  0  0  0  0
   -6.3685    0.1400    0.8633 N   0  0  0  0  0  0  0  0  0  0  0  0
   -5.4105    0.9650    0.4114 C   0  0  0  0  0  0  0  0  0  0  0  0
   -4.1000    0.6638    0.0616 C   0  0  0  0  0  0  0  0  0  0  0  0
   -3.4473    1.8091   -0.3521 N   0  0  0  0  0  0  0  0  0  0  0  0
   -4.3366    2.7733   -0.2437 C   0  0  0  0  0  0  0  0  0  0  0  0
   -5.5383    2.3077    0.2101 N   0  0  0  0  0  0  0  0  0  0  0  0
   -1.5082   -0.6611   -1.1147 N   0  0  0  0  0  0  0  0  0  0  0  0
   -1.8765    0.1268   -2.2635 C   0  0  0  0  0  0  0  0  0  0  0  0
    1.8051   -2.1509   -1.7368 C   0  0  0  0  0  0  0  0  0  0  0  0
    2.7221   -2.0568   -0.5153 C   0  0  0  0  0  0  0  0  0  0  0  0
    7.4517    0.4722    2.7170 H   0  0  0  0  0  0  0  0  0  0  0  0
    5.9282   -0.4163    2.8245 H   0  0  0  0  0  0  0  0  0  0  0  0
    7.0532   -0.6751    1.4334 H   0  0  0  0  0  0  0  0  0  0  0  0
    4.8757   -1.3212    0.9097 H   0  0  0  0  0  0  0  0  0  0  0  0
    2.6086    2.5792   -1.1446 H   0  0  0  0  0  0  0  0  0  0  0  0
    5.7982    3.4133   -0.1158 H   0  0  0  0  0  0  0  0  0  0  0  0
    4.1615    4.0693   -0.2305 H   0  0  0  0  0  0  0  0  0  0  0  0
    4.7878    3.5855    1.3489 H   0  0  0  0  0  0  0  0  0  0  0  0
    0.6243    1.0232   -1.4718 H   0  0  0  0  0  0  0  0  0  0  0  0
    1.6475    0.4836   -2.8043 H   0  0  0  0  0  0  0  0  0  0  0  0
   -4.3791   -2.6215    0.8338 H   0  0  0  0  0  0  0  0  0  0  0  0
   -7.9028   -1.6464    1.7249 H   0  0  0  0  0  0  0  0  0  0  0  0
   -7.1076   -2.9268    0.7916 H   0  0  0  0  0  0  0  0  0  0  0  0
   -6.5807   -2.5709    2.4595 H   0  0  0  0  0  0  0  0  0  0  0  0
   -4.1710    3.8177   -0.4740 H   0  0  0  0  0  0  0  0  0  0  0  0
   -6.3758    2.8416    0.3851 H   0  0  0  0  0  0  0  0  0  0  0  0
   -1.3216   -0.2228   -3.1386 H   0  0  0  0  0  0  0  0  0  0  0  0
   -2.9418    0.0055   -2.4732 H   0  0  0  0  0  0  0  0  0  0  0  0
   -1.6347    1.1727   -2.0664 H   0  0  0  0  0  0  0  0  0  0  0  0
    1.3407   -3.1439   -1.7889 H   0  0  0  0  0  0  0  0  0  0  0  0
    2.4025   -2.0499   -2.6530 H   0  0  0  0  0  0  0  0  0  0  0  0
    3.5514   -2.7623   -0.6449 H   0  0  0  0  0  0  0  0  0  0  0  0
    2.1835   -2.3425    0.3954 H   0  0  0  0  0  0  0  0  0  0  0  0
  1  2  1  0
  2  3  1  0
  3  4  2  0
  4  5  1  0
  5  6  2  0
  6  7  1  0
  7  8  2  0
  8  9  1  0
  6 10  1  0
 10 11  1  0
 11 12  1  0
 12 13  2  0
 13 14  1  0
 14 15  2  0
 15 16  1  0
 16 17  1  0
 17 18  2  0
 18 19  1  0
 18 20  1  0
 20 21  2  0
 21 22  1  0
 22 23  1  0
 23 24  2  0
 24 25  1  0
 15 26  1  0
 26 27  1  0
 11 28  1  0
 28 29  1  0
  8  3  1  0
 26 12  1  0
 29  5  1  0
 22 16  2  0
 25 21  1  0
  1 30  1  0
  1 31  1  0
  1 32  1  0
  4 33  1  0
  7 34  1  0
  9 35  1  0
  9 36  1  0
  9 37  1  0
 10 38  1  0
 10 39  1  0
 17 40  1  0
 19 41  1  0
 19 42  1  0
 19 43  1  0
 24 44  1  0
 25 45  1  0
 27 46  1  0
 27 47  1  0
 27 48  1  0
 28 49  1  0
 28 50  1  0
 29 51  1  0
 29 52  1  0
M  END
$$$$
OCNT-2318623
     RDKit          3D

 52 56  0  0  0  0  0  0  0  0999 V2000
    4.8960   -3.5619    3.1829 C   0  0  0  0  0  0  0  0  0  0  0  0
    4.0512   -3.8860    2.0884 O   0  0  0  0  0  0  0  0  0  0  0  0
    3.0560   -2.9931    1.7746 C   0  0  0  0  0  0  0  0  0  0  0  0
    2.6440   -1.9490    2.6076 C   0  0  0  0  0  0  0  0  0  0  0  0
    1.6033   -1.0909    2.2202 C   0  0  0  0  0  0  0  0  0  0  0  0
    0.9785   -1.2470    0.9764 C   0  0  0  0  0  0  0  0  0  0  0  0
    1.3837   -2.3180    0.1550 C   0  0  0  0  0  0  0  0  0  0  0  0
    2.4132   -3.1868    0.5397 C   0  0  0  0  0  0  0  0  0  0  0  0
    2.8639   -4.2430   -0.2170 O   0  0  0  0  0  0  0  0  0  0  0  0
    2.2920   -4.4230   -1.5031 C   0  0  0  0  0  0  0  0  0  0  0  0
   -0.1419   -0.2961    0.5040 C   0  0  0  0  0  0  0  0  0  0  0  0
    0.2998    0.4071   -0.7745 C   0  0  0  0  0  0  0  0  0  0  0  0
    1.2676    1.3867   -0.9247 C   0  0  0  0  0  0  0  0  0  0  0  0
    1.4004    1.8242   -2.2721 C   0  0  0  0  0  0  0  0  0  0  0  0
    0.5354    1.1638   -3.1139 C   0  0  0  0  0  0  0  0  0  0  0  0
   -0.4105    0.0019   -2.2886 S   0  0  0  0  0  0  0  0  0  0  0  0
   -0.5679    0.7339    1.5056 N   0  0  0  0  0  0  0  0  0  0  0  0
   -2.0012    1.0829    1.3583 C   0  0  0  0  0  0  0  0  0  0  0  0
   -2.3138    1.9505    0.1966 C   0  0  0  0  0  0  0  0  0  0  0  0
   -1.8448    3.1535   -0.2778 C   0  0  0  0  0  0  0  0  0  0  0  0
   -2.5580    3.5316   -1.3864 N   0  0  0  0  0  0  0  0  0  0  0  0
   -3.4243    2.5520   -1.5579 C   0  0  0  0  0  0  0  0  0  0  0  0
   -4.4771    2.5234   -2.7073 C   0  0  0  0  0  0  0  0  0  0  0  0
   -5.3454    3.7362   -2.9296 C   0  0  0  0  0  0  0  0  0  0  0  0
   -4.2817    3.3814   -3.9307 C   0  0  0  0  0  0  0  0  0  0  0  0
   -3.3358    1.5561   -0.6220 O   0  0  0  0  0  0  0  0  0  0  0  0
   -0.3339    0.2934    2.8884 C   0  0  0  0  0  0  0  0  0  0  0  0
    1.1465    0.0092    3.1327 C   0  0  0  0  0  0  0  0  0  0  0  0
    5.3439   -2.5702    3.0615 H   0  0  0  0  0  0  0  0  0  0  0  0
    4.3557   -3.6388    4.1332 H   0  0  0  0  0  0  0  0  0  0  0  0
    5.7086   -4.2920    3.2048 H   0  0  0  0  0  0  0  0  0  0  0  0
    3.1046   -1.7926    3.5784 H   0  0  0  0  0  0  0  0  0  0  0  0
    0.8810   -2.4516   -0.7976 H   0  0  0  0  0  0  0  0  0  0  0  0
    2.7901   -5.2760   -1.9718 H   0  0  0  0  0  0  0  0  0  0  0  0
    1.2265   -4.6593   -1.4304 H   0  0  0  0  0  0  0  0  0  0  0  0
    2.4619   -3.5482   -2.1401 H   0  0  0  0  0  0  0  0  0  0  0  0
   -0.9986   -0.9600    0.3016 H   0  0  0  0  0  0  0  0  0  0  0  0
    1.8426    1.7778   -0.0936 H   0  0  0  0  0  0  0  0  0  0  0  0
    2.0891    2.5911   -2.6064 H   0  0  0  0  0  0  0  0  0  0  0  0
    0.4231    1.3002   -4.1821 H   0  0  0  0  0  0  0  0  0  0  0  0
   -2.3269    1.6534    2.2396 H   0  0  0  0  0  0  0  0  0  0  0  0
   -2.6240    0.1775    1.3453 H   0  0  0  0  0  0  0  0  0  0  0  0
   -1.0452    3.7572    0.1222 H   0  0  0  0  0  0  0  0  0  0  0  0
   -4.9334    1.5511   -2.8530 H   0  0  0  0  0  0  0  0  0  0  0  0
   -6.3800    3.5735   -3.2018 H   0  0  0  0  0  0  0  0  0  0  0  0
   -5.1792    4.6100   -2.3101 H   0  0  0  0  0  0  0  0  0  0  0  0
   -4.5956    2.9781   -4.8855 H   0  0  0  0  0  0  0  0  0  0  0  0
   -3.4002    4.0126   -3.9824 H   0  0  0  0  0  0  0  0  0  0  0  0
   -0.6325    1.0858    3.5854 H   0  0  0  0  0  0  0  0  0  0  0  0
   -0.9397   -0.5931    3.1237 H   0  0  0  0  0  0  0  0  0  0  0  0
    1.2795   -0.2857    4.1797 H   0  0  0  0  0  0  0  0  0  0  0  0
    1.7535    0.9064    2.9548 H   0  0  0  0  0  0  0  0  0  0  0  0
  1  2  1  0
  2  3  1  0
  3  4  2  0
  4  5  1  0
  5  6  2  0
  6  7  1  0
  7  8  2  0
  8  9  1  0
  9 10  1  0
  6 11  1  0
 11 12  1  0
 12 13  2  0
 13 14  1  0
 14 15  2  0
 15 16  1  0
 11 17  1  0
 17 18  1  0
 18 19  1  0
 19 20  2  0
 20 21  1  0
 21 22  2  0
 22 23  1  0
 23 24  1  0
 24 25  1  0
 22 26  1  0
 17 27  1  0
 27 28  1  0
  8  3  1  0
 16 12  1  0
 26 19  1  0
 28  5  1  0
 25 23  1  0
  1 29  1  0
  1 30  1  0
  1 31  1  0
  4 32  1  0
  7 33  1  0
 10 34  1  0
 10 35  1  0
 10 36  1  0
 11 37  1  0
 13 38  1  0
 14 39  1  0
 15 40  1  0
 18 41  1  0
 18 42  1  0
 20 43  1  0
 23 44  1  0
 24 45  1  0
 24 46  1  0
 25 47  1  0
 25 48  1  0
 27 49  1  0
 27 50  1  0
 28 51  1  0
 28 52  1  0
M  END
$$$$
OCNT-2318634
     RDKit          3D

 42 44  0  0  0  0  0  0  0  0999 V2000
    1.7217    1.1672    1.2741 C   0  0  0  0  0  0  0  0  0  0  0  0
    2.7098    0.7786    0.1787 C   0  0  0  0  0  0  0  0  0  0  0  0
    2.0705    0.0362   -1.0022 C   0  0  0  0  0  0  0  0  0  0  0  0
    1.5259   -1.2717   -0.6022 N   0  0  0  0  0  0  0  0  0  0  0  0
    0.1339   -1.3270   -0.3539 C   0  0  0  0  0  0  0  0  0  0  0  0
   -0.5810   -0.1952   -0.4352 N   0  0  0  0  0  0  0  0  0  0  0  0
   -1.8996   -0.2643   -0.1941 C   0  0  0  0  0  0  0  0  0  0  0  0
   -2.6775    0.9847   -0.2925 C   0  0  0  0  0  0  0  0  0  0  0  0
   -4.0493    1.0205   -0.0006 C   0  0  0  0  0  0  0  0  0  0  0  0
   -4.7385    2.2189   -0.1040 C   0  0  0  0  0  0  0  0  0  0  0  0
   -4.1683    3.3823   -0.4751 N   0  0  0  0  0  0  0  0  0  0  0  0
   -2.8508    3.3436   -0.7574 C   0  0  0  0  0  0  0  0  0  0  0  0
   -2.0801    2.1939   -0.6819 C   0  0  0  0  0  0  0  0  0  0  0  0
   -2.5543   -1.3897    0.1323 N   0  0  0  0  0  0  0  0  0  0  0  0
   -1.8364   -2.5111    0.2336 C   0  0  0  0  0  0  0  0  0  0  0  0
   -2.4886   -3.6876    0.5836 C   0  0  0  0  0  0  0  0  0  0  0  0
   -1.8063   -4.8992    0.7233 C   0  0  0  0  0  0  0  0  0  0  0  0
   -0.4353   -4.9448    0.5142 C   0  0  0  0  0  0  0  0  0  0  0  0
    0.2401   -3.7791    0.1601 C   0  0  0  0  0  0  0  0  0  0  0  0
   -0.4552   -2.5516    0.0071 C   0  0  0  0  0  0  0  0  0  0  0  0
    3.5433    2.2309   -0.4890 S   0  0  0  0  0  0  0  0  0  0  0  0
    4.3775    2.9584    0.9026 C   0  0  0  0  0  0  0  0  0  0  0  0
    4.5770    1.7653   -1.3960 O   0  0  0  0  0  0  0  0  0  0  0  0
    2.5401    3.1739   -0.9454 O   0  0  0  0  0  0  0  0  0  0  0  0
    1.2497    0.2854    1.7170 H   0  0  0  0  0  0  0  0  0  0  0  0
    2.2221    1.6931    2.0922 H   0  0  0  0  0  0  0  0  0  0  0  0
    0.9369    1.8274    0.8920 H   0  0  0  0  0  0  0  0  0  0  0  0
    3.4984    0.1529    0.6145 H   0  0  0  0  0  0  0  0  0  0  0  0
    2.8529   -0.1756   -1.7425 H   0  0  0  0  0  0  0  0  0  0  0  0
    1.3454    0.6615   -1.5377 H   0  0  0  0  0  0  0  0  0  0  0  0
    1.7326   -1.9775   -1.3080 H   0  0  0  0  0  0  0  0  0  0  0  0
   -4.5812    0.1246    0.3061 H   0  0  0  0  0  0  0  0  0  0  0  0
   -5.8007    2.2726    0.1169 H   0  0  0  0  0  0  0  0  0  0  0  0
   -2.4108    4.2908   -1.0571 H   0  0  0  0  0  0  0  0  0  0  0  0
   -1.0233    2.2475   -0.9282 H   0  0  0  0  0  0  0  0  0  0  0  0
   -3.5625   -3.6613    0.7572 H   0  0  0  0  0  0  0  0  0  0  0  0
   -2.3495   -5.7991    1.0008 H   0  0  0  0  0  0  0  0  0  0  0  0
    0.1071   -5.8797    0.6300 H   0  0  0  0  0  0  0  0  0  0  0  0
    1.3171   -3.8227    0.0155 H   0  0  0  0  0  0  0  0  0  0  0  0
    5.0210    3.7578    0.5281 H   0  0  0  0  0  0  0  0  0  0  0  0
    4.9839    2.1931    1.3901 H   0  0  0  0  0  0  0  0  0  0  0  0
    3.6425    3.3762    1.5911 H   0  0  0  0  0  0  0  0  0  0  0  0
  1  2  1  0
  2  3  1  0
  3  4  1  0
  4  5  1  0
  5  6  1  0
  6  7  2  0
  7  8  1  0
  8  9  2  0
  9 10  1  0
 10 11  2  0
 11 12  1  0
 12 13  2  0
  7 14  1  0
 14 15  2  0
 15 16  1  0
 16 17  2  0
 17 18  1  0
 18 19  2  0
 19 20  1  0
  2 21  1  0
 21 22  1  0
 21 23  2  0
 21 24  2  0
 20  5  2  0
 13  8  1  0
 20 15  1  0
  1 25  1  0
  1 26  1  0
  1 27  1  0
  2 28  1  0
  3 29  1  0
  3 30  1  0
  4 31  1  0
  9 32  1  0
 10 33  1  0
 12 34  1  0
 13 35  1  0
 16 36  1  0
 17 37  1  0
 18 38  1  0
 19 39  1  0
 22 40  1  0
 22 41  1  0
 22 42  1  0
M  END
$$$$
OCNT-2318636
     RDKit          3D

 48 50  0  0  0  0  0  0  0  0999 V2000
   -5.8842   -0.4551    1.4917 C   0  0  0  0  0  0  0  0  0  0  0  0
   -5.4613    0.2354    0.1939 C   0  0  0  0  0  0  0  0  0  0  0  0
   -6.6390    0.3234   -0.7763 C   0  0  0  0  0  0  0  0  0  0  0  0
   -4.3133   -0.4932   -0.4484 C   0  0  0  0  0  0  0  0  0  0  0  0
   -4.2319   -1.8033   -0.5942 N   0  0  0  0  0  0  0  0  0  0  0  0
   -3.0534   -2.0444   -1.2451 C   0  0  0  0  0  0  0  0  0  0  0  0
   -2.3959   -0.8687   -1.5031 C   0  0  0  0  0  0  0  0  0  0  0  0
   -3.1987    0.1136   -0.9859 N   0  0  0  0  0  0  0  0  0  0  0  0
   -2.8969    1.5335   -1.0322 C   0  0  0  0  0  0  0  0  0  0  0  0
   -2.2512    2.0373    0.2606 C   0  0  0  0  0  0  0  0  0  0  0  0
   -0.9329    1.4790    0.5036 N   0  0  0  0  0  0  0  0  0  0  0  0
    0.1713    1.8991   -0.2042 C   0  0  0  0  0  0  0  0  0  0  0  0
    0.1115    2.8086   -1.0265 O   0  0  0  0  0  0  0  0  0  0  0  0
    1.4617    1.1980    0.0424 C   0  0  0  0  0  0  0  0  0  0  0  0
    2.6005    1.6389   -0.6438 C   0  0  0  0  0  0  0  0  0  0  0  0
    3.8366    1.0100   -0.4491 C   0  0  0  0  0  0  0  0  0  0  0  0
    3.9687   -0.0741    0.4341 C   0  0  0  0  0  0  0  0  0  0  0  0
    5.2682   -0.7355    0.6371 C   0  0  0  0  0  0  0  0  0  0  0  0
    6.0167   -1.2102   -0.4560 C   0  0  0  0  0  0  0  0  0  0  0  0
    7.2498   -1.8391   -0.2642 C   0  0  0  0  0  0  0  0  0  0  0  0
    7.7447   -1.9974    1.0231 C   0  0  0  0  0  0  0  0  0  0  0  0
    8.9266   -2.5995    1.2074 F   0  0  0  0  0  0  0  0  0  0  0  0
    7.0304   -1.5396    2.1219 C   0  0  0  0  0  0  0  0  0  0  0  0
    5.7969   -0.9116    1.9293 C   0  0  0  0  0  0  0  0  0  0  0  0
    2.8217   -0.5073    1.1160 C   0  0  0  0  0  0  0  0  0  0  0  0
    1.5906    0.1218    0.9193 C   0  0  0  0  0  0  0  0  0  0  0  0
    0.5331   -0.3484    1.5993 F   0  0  0  0  0  0  0  0  0  0  0  0
   -6.2431   -1.4746    1.3102 H   0  0  0  0  0  0  0  0  0  0  0  0
   -6.6899    0.1019    1.9818 H   0  0  0  0  0  0  0  0  0  0  0  0
   -5.0441   -0.5176    2.1926 H   0  0  0  0  0  0  0  0  0  0  0  0
   -5.1610    1.2555    0.4563 H   0  0  0  0  0  0  0  0  0  0  0  0
   -6.3508    0.8444   -1.6962 H   0  0  0  0  0  0  0  0  0  0  0  0
   -7.0027   -0.6712   -1.0589 H   0  0  0  0  0  0  0  0  0  0  0  0
   -7.4728    0.8730   -0.3266 H   0  0  0  0  0  0  0  0  0  0  0  0
   -2.7436   -3.0505   -1.4952 H   0  0  0  0  0  0  0  0  0  0  0  0
   -1.4561   -0.6556   -1.9930 H   0  0  0  0  0  0  0  0  0  0  0  0
   -3.8339    2.0652   -1.2282 H   0  0  0  0  0  0  0  0  0  0  0  0
   -2.2448    1.7035   -1.8966 H   0  0  0  0  0  0  0  0  0  0  0  0
   -2.1543    3.1277    0.2129 H   0  0  0  0  0  0  0  0  0  0  0  0
   -2.8650    1.7915    1.1334 H   0  0  0  0  0  0  0  0  0  0  0  0
   -0.8648    0.6495    1.0871 H   0  0  0  0  0  0  0  0  0  0  0  0
    2.5345    2.4790   -1.3338 H   0  0  0  0  0  0  0  0  0  0  0  0
    4.7046    1.3859   -0.9896 H   0  0  0  0  0  0  0  0  0  0  0  0
    5.6361   -1.1032   -1.4702 H   0  0  0  0  0  0  0  0  0  0  0  0
    7.8226   -2.2069   -1.1095 H   0  0  0  0  0  0  0  0  0  0  0  0
    7.4366   -1.6706    3.1198 H   0  0  0  0  0  0  0  0  0  0  0  0
    5.2541   -0.5475    2.7996 H   0  0  0  0  0  0  0  0  0  0  0  0
    2.8681   -1.3507    1.8010 H   0  0  0  0  0  0  0  0  0  0  0  0
  1  2  1  0
  2  3  1  0
  2  4  1  0
  4  5  2  0
  5  6  1  0
  6  7  2  0
  7  8  1  0
  8  9  1  0
  9 10  1  0
 10 11  1  0
 11 12  1  0
 12 13  2  0
 12 14  1  0
 14 15  1  0
 15 16  2  0
 16 17  1  0
 17 18  1  0
 18 19  1  0
 19 20  2  0
 20 21  1  0
 21 22  1  0
 21 23  2  0
 23 24  1  0
 17 25  2  0
 25 26  1  0
 26 27  1  0
  8  4  1  0
 26 14  2  0
 24 18  2  0
  1 28  1  0
  1 29  1  0
  1 30  1  0
  2 31  1  0
  3 32  1  0
  3 33  1  0
  3 34  1  0
  6 35  1  0
  7 36  1  0
  9 37  1  0
  9 38  1  0
 10 39  1  0
 10 40  1  0
 11 41  1  0
 15 42  1  0
 16 43  1  0
 19 44  1  0
 20 45  1  0
 23 46  1  0
 24 47  1  0
 25 48  1  0
M  END
$$$$
OCNT-2318651
     RDKit          3D

 52 56  0  0  0  0  0  0  0  0999 V2000
   -3.7786   -2.9243    0.5187 C   0  0  0  0  0  0  0  0  0  0  0  0
   -2.7795   -1.9697   -0.1414 C   0  0  0  0  0  0  0  0  0  0  0  0
   -1.3512   -2.3682    0.3038 C   0  0  0  0  0  0  0  0  0  0  0  0
   -0.3309   -1.4075   -0.1127 N   0  0  0  0  0  0  0  0  0  0  0  0
    0.9759   -1.8581   -0.2695 C   0  0  0  0  0  0  0  0  0  0  0  0
    1.3243   -3.0117   -0.0322 O   0  0  0  0  0  0  0  0  0  0  0  0
    2.0052   -0.9041   -0.7400 C   0  0  0  0  0  0  0  0  0  0  0  0
    1.8445   -0.2213   -1.9474 C   0  0  0  0  0  0  0  0  0  0  0  0
    2.8309    0.6660   -2.3678 C   0  0  0  0  0  0  0  0  0  0  0  0
    3.9767    0.8577   -1.5885 C   0  0  0  0  0  0  0  0  0  0  0  0
    4.1703    0.1605   -0.3809 C   0  0  0  0  0  0  0  0  0  0  0  0
    5.3864    0.3623    0.4286 C   0  0  0  0  0  0  0  0  0  0  0  0
    6.1512   -0.7165    0.8978 C   0  0  0  0  0  0  0  0  0  0  0  0
    5.7948   -1.9763    0.6032 F   0  0  0  0  0  0  0  0  0  0  0  0
    7.3031   -0.5325    1.6666 C   0  0  0  0  0  0  0  0  0  0  0  0
    7.7255    0.7535    1.9903 C   0  0  0  0  0  0  0  0  0  0  0  0
    6.9900    1.8460    1.5405 C   0  0  0  0  0  0  0  0  0  0  0  0
    5.8405    1.6450    0.7724 C   0  0  0  0  0  0  0  0  0  0  0  0
    5.1608    2.7318    0.3730 F   0  0  0  0  0  0  0  0  0  0  0  0
    3.1653   -0.7334    0.0257 C   0  0  0  0  0  0  0  0  0  0  0  0
   -0.7127    0.0072   -0.0394 C   0  0  0  0  0  0  0  0  0  0  0  0
   -2.0088    0.2400    0.7572 C   0  0  0  0  0  0  0  0  0  0  0  0
   -3.1115   -0.5632    0.2055 N   0  0  0  0  0  0  0  0  0  0  0  0
   -4.2761    0.0369   -0.2837 C   0  0  0  0  0  0  0  0  0  0  0  0
   -4.9232   -0.5576   -1.2733 N   0  0  0  0  0  0  0  0  0  0  0  0
   -6.0784    0.0008   -1.7877 C   0  0  0  0  0  0  0  0  0  0  0  0
   -6.6240    1.1431   -1.3427 C   0  0  0  0  0  0  0  0  0  0  0  0
   -5.9853    1.7868   -0.3083 N   0  0  0  0  0  0  0  0  0  0  0  0
   -6.2448    2.9285    0.3876 C   0  0  0  0  0  0  0  0  0  0  0  0
   -5.3205    3.1055    1.3084 N   0  0  0  0  0  0  0  0  0  0  0  0
   -4.4318    2.0502    1.2213 N   0  0  0  0  0  0  0  0  0  0  0  0
   -4.8386    1.2798    0.2350 C   0  0  0  0  0  0  0  0  0  0  0  0
   -3.7776   -2.8035    1.6079 H   0  0  0  0  0  0  0  0  0  0  0  0
   -4.8017   -2.7503    0.1725 H   0  0  0  0  0  0  0  0  0  0  0  0
   -3.5286   -3.9661    0.2914 H   0  0  0  0  0  0  0  0  0  0  0  0
   -2.8263   -2.0816   -1.2323 H   0  0  0  0  0  0  0  0  0  0  0  0
   -1.2909   -2.4321    1.3982 H   0  0  0  0  0  0  0  0  0  0  0  0
   -1.1043   -3.3620   -0.0884 H   0  0  0  0  0  0  0  0  0  0  0  0
    0.9658   -0.3885   -2.5642 H   0  0  0  0  0  0  0  0  0  0  0  0
    2.7173    1.2049   -3.3052 H   0  0  0  0  0  0  0  0  0  0  0  0
    4.7344    1.5554   -1.9432 H   0  0  0  0  0  0  0  0  0  0  0  0
    7.8615   -1.4012    2.0037 H   0  0  0  0  0  0  0  0  0  0  0  0
    8.6207    0.9026    2.5886 H   0  0  0  0  0  0  0  0  0  0  0  0
    7.2985    2.8589    1.7826 H   0  0  0  0  0  0  0  0  0  0  0  0
    3.2747   -1.3037    0.9471 H   0  0  0  0  0  0  0  0  0  0  0  0
   -0.8550    0.3524   -1.0698 H   0  0  0  0  0  0  0  0  0  0  0  0
    0.1019    0.5858    0.4083 H   0  0  0  0  0  0  0  0  0  0  0  0
   -1.8642   -0.0337    1.8089 H   0  0  0  0  0  0  0  0  0  0  0  0
   -2.2140    1.3125    0.7249 H   0  0  0  0  0  0  0  0  0  0  0  0
   -6.5431   -0.5514   -2.6011 H   0  0  0  0  0  0  0  0  0  0  0  0
   -7.5291    1.5761   -1.7456 H   0  0  0  0  0  0  0  0  0  0  0  0
   -7.0898    3.5729    0.1958 H   0  0  0  0  0  0  0  0  0  0  0  0
  1  2  1  0
  2  3  1  0
  3  4  1  0
  4  5  1  0
  5  6  2  0
  5  7  1  0
  7  8  1  0
  8  9  2  0
  9 10  1  0
 10 11  2  0
 11 12  1  0
 12 13  2  0
 13 14  1  0
 13 15  1  0
 15 16  2  0
 16 17  1  0
 17 18  2  0
 18 19  1  0
 11 20  1  0
  4 21  1  0
 21 22  1  0
 22 23  1  0
 23 24  1  0
 24 25  2  0
 25 26  1  0
 26 27  2  0
 27 28  1  0
 28 29  1  0
 29 30  2  0
 30 31  1  0
 31 32  2  0
 23  2  1  0
 32 24  1  0
 20  7  2  0
 32 28  1  0
 18 12  1  0
  1 33  1  0
  1 34  1  0
  1 35  1  0
  2 36  1  0
  3 37  1  0
  3 38  1  0
  8 39  1  0
  9 40  1  0
 10 41  1  0
 15 42  1  0
 16 43  1  0
 17 44  1  0
 20 45  1  0
 21 46  1  0
 21 47  1  0
 22 48  1  0
 22 49  1  0
 26 50  1  0
 27 51  1  0
 29 52  1  0
M  END
$$$$
OCNT-2318658
     RDKit          3D

 38 41  0  0  0  0  0  0  0  0999 V2000
    7.1532   -2.0866    1.5395 Cl  0  0  0  0  0  0  0  0  0  0  0  0
    5.7631   -1.1081    1.2778 C   0  0  0  0  0  0  0  0  0  0  0  0
    5.1770   -1.0616    0.0141 C   0  0  0  0  0  0  0  0  0  0  0  0
    4.0459   -0.2677   -0.2058 C   0  0  0  0  0  0  0  0  0  0  0  0
    3.5009    0.4825    0.8466 C   0  0  0  0  0  0  0  0  0  0  0  0
    2.3540    1.2949    0.6486 N   0  0  0  0  0  0  0  0  0  0  0  0
    1.6243    1.4953   -0.4988 C   0  0  0  0  0  0  0  0  0  0  0  0
    0.6132    2.3581   -0.1341 C   0  0  0  0  0  0  0  0  0  0  0  0
   -0.5016    2.9231   -0.9402 C   0  0  0  0  0  0  0  0  0  0  0  0
   -1.0093    2.0165   -1.9283 O   0  0  0  0  0  0  0  0  0  0  0  0
   -1.9102    1.0646   -1.5307 C   0  0  0  0  0  0  0  0  0  0  0  0
   -2.4530    0.3096   -2.5883 C   0  0  0  0  0  0  0  0  0  0  0  0
   -3.3850   -0.7053   -2.3535 C   0  0  0  0  0  0  0  0  0  0  0  0
   -3.7509   -0.9582   -1.0459 C   0  0  0  0  0  0  0  0  0  0  0  0
   -4.7268   -1.9474   -0.5046 C   0  0  0  0  0  0  0  0  0  0  0  0
   -4.4940   -1.9705    0.9624 N   0  0  0  0  0  0  0  0  0  0  0  0
   -3.8126   -0.6909    1.2887 C   0  0  0  0  0  0  0  0  0  0  0  0
   -3.2157   -0.2197    0.0050 C   0  0  0  0  0  0  0  0  0  0  0  0
   -2.2985    0.7973   -0.2152 C   0  0  0  0  0  0  0  0  0  0  0  0
    0.7513    2.6692    1.1889 N   0  0  0  0  0  0  0  0  0  0  0  0
    1.8093    2.0220    1.6562 N   0  0  0  0  0  0  0  0  0  0  0  0
    4.0992    0.4281    2.1164 C   0  0  0  0  0  0  0  0  0  0  0  0
    5.2292   -0.3671    2.3290 C   0  0  0  0  0  0  0  0  0  0  0  0
    5.5955   -1.6418   -0.8048 H   0  0  0  0  0  0  0  0  0  0  0  0
    3.6185   -0.2603   -1.2043 H   0  0  0  0  0  0  0  0  0  0  0  0
    1.8503    1.0243   -1.4418 H   0  0  0  0  0  0  0  0  0  0  0  0
   -1.3101    3.3154   -0.3116 H   0  0  0  0  0  0  0  0  0  0  0  0
   -0.1100    3.7863   -1.4916 H   0  0  0  0  0  0  0  0  0  0  0  0
   -2.1462    0.5254   -3.6094 H   0  0  0  0  0  0  0  0  0  0  0  0
   -3.8051   -1.2724   -3.1775 H   0  0  0  0  0  0  0  0  0  0  0  0
   -5.7517   -1.6206   -0.7093 H   0  0  0  0  0  0  0  0  0  0  0  0
   -4.5706   -2.9446   -0.9274 H   0  0  0  0  0  0  0  0  0  0  0  0
   -3.8124   -2.7100    1.1342 H   0  0  0  0  0  0  0  0  0  0  0  0
   -3.0487   -0.8547    2.0552 H   0  0  0  0  0  0  0  0  0  0  0  0
   -4.5472    0.0341    1.6543 H   0  0  0  0  0  0  0  0  0  0  0  0
   -1.9096    1.3429    0.6365 H   0  0  0  0  0  0  0  0  0  0  0  0
    3.6999    0.9985    2.9540 H   0  0  0  0  0  0  0  0  0  0  0  0
    5.6845   -0.4020    3.3156 H   0  0  0  0  0  0  0  0  0  0  0  0
  1  2  1  0
  2  3  1  0
  3  4  2  0
  4  5  1  0
  5  6  1  0
  6  7  1  0
  7  8  2  0
  8  9  1  0
  9 10  1  0
 10 11  1  0
 11 12  1  0
 12 13  2  0
 13 14  1  0
 14 15  1  0
 15 16  1  0
 16 17  1  0
 17 18  1  0
 18 19  1  0
  8 20  1  0
 20 21  2  0
  5 22  2  0
 22 23  1  0
 23  2  2  0
 21  6  1  0
 19 11  2  0
 18 14  2  0
  3 24  1  0
  4 25  1  0
  7 26  1  0
  9 27  1  0
  9 28  1  0
 12 29  1  0
 13 30  1  0
 15 31  1  0
 15 32  1  0
 16 33  1  0
 17 34  1  0
 17 35  1  0
 19 36  1  0
 22 37  1  0
 23 38  1  0
M  END
$$$$
OCNT-2318671
     RDKit          3D

 43 46  0  0  0  0  0  0  0  0999 V2000
   -8.0040    0.0997   -1.5450 C   0  0  0  0  0  0  0  0  0  0  0  0
   -7.4636    0.5355   -0.3037 O   0  0  0  0  0  0  0  0  0  0  0  0
   -6.1043    0.4530   -0.1578 C   0  0  0  0  0  0  0  0  0  0  0  0
   -5.2106   -0.0418   -1.1042 C   0  0  0  0  0  0  0  0  0  0  0  0
   -3.8288   -0.0787   -0.8449 C   0  0  0  0  0  0  0  0  0  0  0  0
   -3.3257    0.3941    0.3839 C   0  0  0  0  0  0  0  0  0  0  0  0
   -4.2521    0.8702    1.3095 C   0  0  0  0  0  0  0  0  0  0  0  0
   -5.6315    0.9170    1.0736 C   0  0  0  0  0  0  0  0  0  0  0  0
   -3.5196    1.2372    2.4006 N   0  0  0  0  0  0  0  0  0  0  0  0
   -2.2027    1.0291    2.2754 N   0  0  0  0  0  0  0  0  0  0  0  0
   -2.0629    0.5373    1.0378 C   0  0  0  0  0  0  0  0  0  0  0  0
   -0.7694    0.2559    0.6622 N   0  0  0  0  0  0  0  0  0  0  0  0
   -0.3003   -0.1199   -0.5691 C   0  0  0  0  0  0  0  0  0  0  0  0
   -0.9366   -0.2145   -1.6099 O   0  0  0  0  0  0  0  0  0  0  0  0
    1.1659   -0.3904   -0.6183 C   0  0  0  0  0  0  0  0  0  0  0  0
    1.8490   -0.9641    0.4606 C   0  0  0  0  0  0  0  0  0  0  0  0
    3.2229   -1.2067    0.3693 C   0  0  0  0  0  0  0  0  0  0  0  0
    3.9314   -0.8851   -0.7993 C   0  0  0  0  0  0  0  0  0  0  0  0
    5.4145   -1.1476   -0.8985 C   0  0  0  0  0  0  0  0  0  0  0  0
    6.1748   -0.2987    0.0019 N   0  0  0  0  0  0  0  0  0  0  0  0
    6.8501   -0.7006    1.1216 C   0  0  0  0  0  0  0  0  0  0  0  0
    7.4424    0.4424    1.6062 C   0  0  0  0  0  0  0  0  0  0  0  0
    7.1521    1.5175    0.8069 N   0  0  0  0  0  0  0  0  0  0  0  0
    6.3894    1.0418   -0.1517 C   0  0  0  0  0  0  0  0  0  0  0  0
    3.2361   -0.3269   -1.8816 C   0  0  0  0  0  0  0  0  0  0  0  0
    1.8626   -0.0864   -1.7935 C   0  0  0  0  0  0  0  0  0  0  0  0
   -7.8139   -0.9667   -1.7053 H   0  0  0  0  0  0  0  0  0  0  0  0
   -7.6202    0.7005   -2.3761 H   0  0  0  0  0  0  0  0  0  0  0  0
   -9.0884    0.2415   -1.5052 H   0  0  0  0  0  0  0  0  0  0  0  0
   -5.5453   -0.4150   -2.0668 H   0  0  0  0  0  0  0  0  0  0  0  0
   -3.1697   -0.4811   -1.6066 H   0  0  0  0  0  0  0  0  0  0  0  0
   -6.3220    1.2986    1.8192 H   0  0  0  0  0  0  0  0  0  0  0  0
   -3.8651    1.6290    3.2691 H   0  0  0  0  0  0  0  0  0  0  0  0
   -0.1200    0.4728    1.4048 H   0  0  0  0  0  0  0  0  0  0  0  0
    1.3263   -1.2515    1.3694 H   0  0  0  0  0  0  0  0  0  0  0  0
    3.7374   -1.6516    1.2199 H   0  0  0  0  0  0  0  0  0  0  0  0
    5.7920   -0.9617   -1.9108 H   0  0  0  0  0  0  0  0  0  0  0  0
    5.6284   -2.1948   -0.6553 H   0  0  0  0  0  0  0  0  0  0  0  0
    6.8568   -1.7233    1.4707 H   0  0  0  0  0  0  0  0  0  0  0  0
    8.0654    0.5482    2.4850 H   0  0  0  0  0  0  0  0  0  0  0  0
    5.9708    1.6173   -0.9673 H   0  0  0  0  0  0  0  0  0  0  0  0
    3.7533   -0.0747   -2.8056 H   0  0  0  0  0  0  0  0  0  0  0  0
    1.3351    0.3433   -2.6437 H   0  0  0  0  0  0  0  0  0  0  0  0
  1  2  1  0
  2  3  1  0
  3  4  2  0
  4  5  1  0
  5  6  2  0
  6  7  1  0
  7  8  2  0
  7  9  1  0
  9 10  1  0
 10 11  2  0
 11 12  1  0
 12 13  1  0
 13 14  2  0
 13 15  1  0
 15 16  1  0
 16 17  2  0
 17 18  1  0
 18 19  1  0
 19 20  1  0
 20 21  1  0
 21 22  2  0
 22 23  1  0
 23 24  2  0
 18 25  2  0
 25 26  1  0
  8  3  1  0
 26 15  2  0
 11  6  1  0
 24 20  1  0
  1 27  1  0
  1 28  1  0
  1 29  1  0
  4 30  1  0
  5 31  1  0
  8 32  1  0
  9 33  1  0
 12 34  1  0
 16 35  1  0
 17 36  1  0
 19 37  1  0
 19 38  1  0
 21 39  1  0
 22 40  1  0
 24 41  1  0
 25 42  1  0
 26 43  1  0
M  END
$$$$
OCNT-2318673
     RDKit          3D

 49 52  0  0  0  0  0  0  0  0999 V2000
   -5.8833   -1.2840   -0.6205 C   0  0  0  0  0  0  0  0  0  0  0  0
   -4.8941   -0.2948   -0.3503 O   0  0  0  0  0  0  0  0  0  0  0  0
   -5.3052    0.8943    0.2014 C   0  0  0  0  0  0  0  0  0  0  0  0
   -6.6566    1.2086    0.4205 C   0  0  0  0  0  0  0  0  0  0  0  0
   -7.0288    2.4310    0.9853 C   0  0  0  0  0  0  0  0  0  0  0  0
   -6.0583    3.3581    1.3390 C   0  0  0  0  0  0  0  0  0  0  0  0
   -4.7127    3.0631    1.1248 C   0  0  0  0  0  0  0  0  0  0  0  0
   -4.3139    1.8372    0.5546 C   0  0  0  0  0  0  0  0  0  0  0  0
   -2.8270    1.6453    0.3749 C   0  0  0  0  0  0  0  0  0  0  0  0
   -2.0732    2.5285    0.7756 O   0  0  0  0  0  0  0  0  0  0  0  0
   -2.4240    0.4768   -0.2392 N   0  0  0  0  0  0  0  0  0  0  0  0
   -1.1149    0.0468   -0.5319 C   0  0  0  0  0  0  0  0  0  0  0  0
   -0.9817   -1.2000   -1.1604 C   0  0  0  0  0  0  0  0  0  0  0  0
    0.2798   -1.7051   -1.4849 C   0  0  0  0  0  0  0  0  0  0  0  0
    1.4172   -0.9696   -1.1653 C   0  0  0  0  0  0  0  0  0  0  0  0
    2.6625   -1.4313   -1.5152 O   0  0  0  0  0  0  0  0  0  0  0  0
    3.2438   -2.2580   -0.5633 C   0  0  0  0  0  0  0  0  0  0  0  0
    2.6529   -3.4594   -0.3645 N   0  0  0  0  0  0  0  0  0  0  0  0
    3.2462   -4.2498    0.5353 C   0  0  0  0  0  0  0  0  0  0  0  0
    4.3593   -3.9625    1.2228 N   0  0  0  0  0  0  0  0  0  0  0  0
    4.9138   -2.7586    0.9622 C   0  0  0  0  0  0  0  0  0  0  0  0
    4.4108   -1.8349    0.0615 C   0  0  0  0  0  0  0  0  0  0  0  0
    5.0667   -0.5437   -0.1733 C   0  0  0  0  0  0  0  0  0  0  0  0
    5.2951    0.3503    0.8873 C   0  0  0  0  0  0  0  0  0  0  0  0
    5.9191    1.5813    0.6693 C   0  0  0  0  0  0  0  0  0  0  0  0
    6.3271    1.9388   -0.6129 C   0  0  0  0  0  0  0  0  0  0  0  0
    6.1111    1.0676   -1.6770 C   0  0  0  0  0  0  0  0  0  0  0  0
    5.4869   -0.1633   -1.4585 C   0  0  0  0  0  0  0  0  0  0  0  0
    1.3006    0.2811   -0.5632 C   0  0  0  0  0  0  0  0  0  0  0  0
    0.0355    0.7837   -0.2407 C   0  0  0  0  0  0  0  0  0  0  0  0
   -5.3696   -2.1704   -1.0059 H   0  0  0  0  0  0  0  0  0  0  0  0
   -6.4106   -1.5770    0.2936 H   0  0  0  0  0  0  0  0  0  0  0  0
   -6.5797   -0.9420   -1.3933 H   0  0  0  0  0  0  0  0  0  0  0  0
   -7.4557    0.5217    0.1598 H   0  0  0  0  0  0  0  0  0  0  0  0
   -8.0801    2.6573    1.1481 H   0  0  0  0  0  0  0  0  0  0  0  0
   -6.3424    4.3107    1.7795 H   0  0  0  0  0  0  0  0  0  0  0  0
   -3.9658    3.8041    1.4073 H   0  0  0  0  0  0  0  0  0  0  0  0
   -3.1706   -0.1565   -0.5062 H   0  0  0  0  0  0  0  0  0  0  0  0
   -1.8577   -1.7940   -1.4064 H   0  0  0  0  0  0  0  0  0  0  0  0
    0.3752   -2.6705   -1.9738 H   0  0  0  0  0  0  0  0  0  0  0  0
    2.7861   -5.2134    0.7246 H   0  0  0  0  0  0  0  0  0  0  0  0
    5.8246   -2.5560    1.5212 H   0  0  0  0  0  0  0  0  0  0  0  0
    4.9732    0.1011    1.8972 H   0  0  0  0  0  0  0  0  0  0  0  0
    6.0821    2.2622    1.5009 H   0  0  0  0  0  0  0  0  0  0  0  0
    6.8106    2.8974   -0.7835 H   0  0  0  0  0  0  0  0  0  0  0  0
    6.4262    1.3450   -2.6797 H   0  0  0  0  0  0  0  0  0  0  0  0
    5.3313   -0.8277   -2.3070 H   0  0  0  0  0  0  0  0  0  0  0  0
    2.1855    0.8725   -0.3452 H   0  0  0  0  0  0  0  0  0  0  0  0
   -0.0171    1.7583    0.2335 H   0  0  0  0  0  0  0  0  0  0  0  0
  1  2  1  0
  2  3  1  0
  3  4  2  0
  4  5  1  0
  5  6  2  0
  6  7  1  0
  7  8  2  0
  8  9  1  0
  9 10  2  0
  9 11  1  0
 11 12  1  0
 12 13  1  0
 13 14  2  0
 14 15  1  0
 15 16  1  0
 16 17  1  0
 17 18  2  0
 18 19  1  0
 19 20  2  0
 20 21  1  0
 21 22  2  0
 22 23  1  0
 23 24  2  0
 24 25  1  0
 25 26  2  0
 26 27  1  0
 27 28  2  0
 15 29  2  0
 29 30  1  0
  8  3  1  0
 30 12  2  0
 22 17  1  0
 28 23  1  0
  1 31  1  0
  1 32  1  0
  1 33  1  0
  4 34  1  0
  5 35  1  0
  6 36  1  0
  7 37  1  0
 11 38  1  0
 13 39  1  0
 14 40  1  0
 19 41  1  0
 21 42  1  0
 24 43  1  0
 25 44  1  0
 26 45  1  0
 27 46  1  0
 28 47  1  0
 29 48  1  0
 30 49  1  0
M  END
$$$$
OCNT-2318675
     RDKit          3D

 52 57  0  0  0  0  0  0  0  0999 V2000
    5.0377   -1.2805   -0.7078 C   0  0  0  0  0  0  0  0  0  0  0  0
    4.9044   -0.3325    0.3686 N   0  0  0  0  0  0  0  0  0  0  0  0
    5.9505    0.1942    1.0957 C   0  0  0  0  0  0  0  0  0  0  0  0
    7.3409    0.0186    1.0579 C   0  0  0  0  0  0  0  0  0  0  0  0
    8.1040    0.7456    1.9800 C   0  0  0  0  0  0  0  0  0  0  0  0
    7.5035    1.6081    2.8973 C   0  0  0  0  0  0  0  0  0  0  0  0
    6.1140    1.7698    2.9195 C   0  0  0  0  0  0  0  0  0  0  0  0
    5.3342    1.0494    2.0028 C   0  0  0  0  0  0  0  0  0  0  0  0
    3.9768    1.0433    1.8369 N   0  0  0  0  0  0  0  0  0  0  0  0
    3.7283    0.2052    0.8486 C   0  0  0  0  0  0  0  0  0  0  0  0
    2.2634   -0.0706    0.3659 C   0  0  0  0  0  0  0  0  0  0  0  0
    1.8298   -0.9101   -0.6325 C   0  0  0  0  0  0  0  0  0  0  0  0
    0.4565   -0.7755   -0.6384 N   0  0  0  0  0  0  0  0  0  0  0  0
   -0.4982   -1.4253   -1.4646 C   0  0  0  0  0  0  0  0  0  0  0  0
   -0.0912   -2.3713   -2.4279 C   0  0  0  0  0  0  0  0  0  0  0  0
   -1.0293   -3.0192   -3.2558 C   0  0  0  0  0  0  0  0  0  0  0  0
   -2.3883   -2.7393   -3.1424 C   0  0  0  0  0  0  0  0  0  0  0  0
   -2.7681   -1.8121   -2.1908 C   0  0  0  0  0  0  0  0  0  0  0  0
   -1.8616   -1.1528   -1.3548 C   0  0  0  0  0  0  0  0  0  0  0  0
   -2.6159   -0.2043   -0.4723 C   0  0  0  0  0  0  0  0  0  0  0  0
   -4.0070   -0.4564   -0.8278 N   0  0  0  0  0  0  0  0  0  0  0  0
   -5.1015    0.4229   -0.4340 C   0  0  0  0  0  0  0  0  0  0  0  0
   -5.1506    0.6585    1.0726 C   0  0  0  0  0  0  0  0  0  0  0  0
   -6.3652    1.5091    1.4114 C   0  0  0  0  0  0  0  0  0  0  0  0
   -6.3589    2.8082    0.6398 C   0  0  0  0  0  0  0  0  0  0  0  0
   -6.8256    3.8464    1.0989 O   0  0  0  0  0  0  0  0  0  0  0  0
   -5.8317    2.7692   -0.6262 N   0  0  0  0  0  0  0  0  0  0  0  0
   -5.0315    1.7809   -1.1541 C   0  0  0  0  0  0  0  0  0  0  0  0
   -4.3339    2.0095   -2.1399 O   0  0  0  0  0  0  0  0  0  0  0  0
   -4.1223   -1.3393   -1.8861 C   0  0  0  0  0  0  0  0  0  0  0  0
   -5.1297   -1.6791   -2.4758 O   0  0  0  0  0  0  0  0  0  0  0  0
    0.0909    0.1099    0.3142 N   0  0  0  0  0  0  0  0  0  0  0  0
    1.1804    0.5405    0.9319 N   0  0  0  0  0  0  0  0  0  0  0  0
    4.5023   -2.1937   -0.4366 H   0  0  0  0  0  0  0  0  0  0  0  0
    4.6290   -0.8351   -1.6180 H   0  0  0  0  0  0  0  0  0  0  0  0
    6.0883   -1.5245   -0.8759 H   0  0  0  0  0  0  0  0  0  0  0  0
    7.8225   -0.6475    0.3509 H   0  0  0  0  0  0  0  0  0  0  0  0
    9.1868    0.6359    1.9809 H   0  0  0  0  0  0  0  0  0  0  0  0
    8.1178    2.1620    3.6032 H   0  0  0  0  0  0  0  0  0  0  0  0
    5.6372    2.4377    3.6284 H   0  0  0  0  0  0  0  0  0  0  0  0
    2.3447   -1.5633   -1.3131 H   0  0  0  0  0  0  0  0  0  0  0  0
    0.9530   -2.6361   -2.5699 H   0  0  0  0  0  0  0  0  0  0  0  0
   -0.6900   -3.7433   -3.9941 H   0  0  0  0  0  0  0  0  0  0  0  0
   -3.1265   -3.2223   -3.7746 H   0  0  0  0  0  0  0  0  0  0  0  0
   -2.3634    0.8350   -0.6994 H   0  0  0  0  0  0  0  0  0  0  0  0
   -2.4885   -0.4342    0.5888 H   0  0  0  0  0  0  0  0  0  0  0  0
   -6.0383   -0.0471   -0.7614 H   0  0  0  0  0  0  0  0  0  0  0  0
   -5.2033   -0.2963    1.6085 H   0  0  0  0  0  0  0  0  0  0  0  0
   -4.2412    1.1715    1.4117 H   0  0  0  0  0  0  0  0  0  0  0  0
   -7.2952    0.9781    1.1803 H   0  0  0  0  0  0  0  0  0  0  0  0
   -6.3602    1.7399    2.4822 H   0  0  0  0  0  0  0  0  0  0  0  0
   -5.7799    3.6623   -1.0977 H   0  0  0  0  0  0  0  0  0  0  0  0
  1  2  1  0
  2  3  1  0
  3  4  2  0
  4  5  1  0
  5  6  2  0
  6  7  1  0
  7  8  2  0
  8  9  1  0
  9 10  2  0
 10 11  1  0
 11 12  2  0
 12 13  1  0
 13 14  1  0
 14 15  2  0
 15 16  1  0
 16 17  2  0
 17 18  1  0
 18 19  2  0
 19 20  1  0
 20 21  1  0
 21 22  1  0
 22 23  1  0
 23 24  1  0
 24 25  1  0
 25 26  2  0
 25 27  1  0
 27 28  1  0
 28 29  2  0
 21 30  1  0
 30 31  2  0
 13 32  1  0
 32 33  2  0
 10  2  1  0
 33 11  1  0
  8  3  1  0
 19 14  1  0
 28 22  1  0
 30 18  1  0
  1 34  1  0
  1 35  1  0
  1 36  1  0
  4 37  1  0
  5 38  1  0
  6 39  1  0
  7 40  1  0
 12 41  1  0
 15 42  1  0
 16 43  1  0
 17 44  1  0
 20 45  1  0
 20 46  1  0
 22 47  1  0
 23 48  1  0
 23 49  1  0
 24 50  1  0
 24 51  1  0
 27 52  1  0
M  END
$$$$
OCNT-2318678
     RDKit          3D

 42 45  0  0  0  0  0  0  0  0999 V2000
   -3.6268    2.9009   -1.9303 C   0  0  0  0  0  0  0  0  0  0  0  0
   -3.1063    1.7356   -1.2591 N   0  0  0  0  0  0  0  0  0  0  0  0
   -1.9296    1.6370   -0.5800 C   0  0  0  0  0  0  0  0  0  0  0  0
   -1.8437    0.3344   -0.1211 C   0  0  0  0  0  0  0  0  0  0  0  0
   -0.7590   -0.2962    0.6806 C   0  0  0  0  0  0  0  0  0  0  0  0
    0.5321    0.0919    0.1140 N   0  0  0  0  0  0  0  0  0  0  0  0
    1.6473   -0.5279    0.8336 C   0  0  1  0  0  0  0  0  0  0  0  0
    2.9223   -0.3997    0.0353 C   0  0  0  0  0  0  0  0  0  0  0  0
    3.2893   -1.1144   -1.0973 C   0  0  0  0  0  0  0  0  0  0  0  0
    4.5162   -0.8261   -1.6991 C   0  0  0  0  0  0  0  0  0  0  0  0
    5.3539    0.1682   -1.1715 C   0  0  0  0  0  0  0  0  0  0  0  0
    4.9772    0.8861   -0.0348 C   0  0  0  0  0  0  0  0  0  0  0  0
    3.7632    0.5861    0.5623 C   0  0  0  0  0  0  0  0  0  0  0  0
    3.1459    1.2425    1.7595 C   0  0  0  0  0  0  0  0  0  0  0  0
    2.0393    0.2402    2.1374 C   0  0  2  0  0  0  0  0  0  0  0  0
    2.5335   -0.6660    3.1381 O   0  0  0  0  0  0  0  0  0  0  0  0
   -3.0533   -0.2500   -0.5712 C   0  0  0  0  0  0  0  0  0  0  0  0
   -3.4746   -1.7231   -0.3137 C   0  0  0  0  0  0  0  0  0  0  0  0
   -3.8016   -2.1615    1.0916 C   0  0  0  0  0  0  0  0  0  0  0  0
   -4.8989   -2.0239    0.0783 C   0  0  0  0  0  0  0  0  0  0  0  0
   -3.8144    0.5938   -1.2705 N   0  0  0  0  0  0  0  0  0  0  0  0
   -4.5870    3.1599   -1.4771 H   0  0  0  0  0  0  0  0  0  0  0  0
   -3.7530    2.6614   -2.9891 H   0  0  0  0  0  0  0  0  0  0  0  0
   -2.9249    3.7307   -1.8167 H   0  0  0  0  0  0  0  0  0  0  0  0
   -1.2492    2.4718   -0.4830 H   0  0  0  0  0  0  0  0  0  0  0  0
   -0.8622   -1.3871    0.6660 H   0  0  0  0  0  0  0  0  0  0  0  0
   -0.8502    0.0398    1.7194 H   0  0  0  0  0  0  0  0  0  0  0  0
    0.5562   -0.2095   -0.8598 H   0  0  0  0  0  0  0  0  0  0  0  0
    1.4660   -1.5909    1.0358 H   0  0  0  0  0  0  0  0  0  0  0  0
    2.6420   -1.8808   -1.5105 H   0  0  0  0  0  0  0  0  0  0  0  0
    4.8254   -1.3736   -2.5859 H   0  0  0  0  0  0  0  0  0  0  0  0
    6.3041    0.3828   -1.6542 H   0  0  0  0  0  0  0  0  0  0  0  0
    5.6232    1.6587    0.3696 H   0  0  0  0  0  0  0  0  0  0  0  0
    2.7188    2.2053    1.4604 H   0  0  0  0  0  0  0  0  0  0  0  0
    3.8747    1.3777    2.5640 H   0  0  0  0  0  0  0  0  0  0  0  0
    1.1929    0.7590    2.5998 H   0  0  0  0  0  0  0  0  0  0  0  0
    1.8160   -1.2866    3.3484 H   0  0  0  0  0  0  0  0  0  0  0  0
   -2.9895   -2.4400   -0.9672 H   0  0  0  0  0  0  0  0  0  0  0  0
   -3.5117   -3.1616    1.3906 H   0  0  0  0  0  0  0  0  0  0  0  0
   -3.7664   -1.4282    1.8891 H   0  0  0  0  0  0  0  0  0  0  0  0
   -5.5879   -1.1920    0.1771 H   0  0  0  0  0  0  0  0  0  0  0  0
   -5.3494   -2.9249   -0.3200 H   0  0  0  0  0  0  0  0  0  0  0  0
  1  2  1  0
  2  3  1  0
  3  4  2  0
  4  5  1  0
  5  6  1  0
  6  7  1  0
  7  8  1  0
  8  9  2  0
  9 10  1  0
 10 11  2  0
 11 12  1  0
 12 13  2  0
 13 14  1  0
 14 15  1  0
 15 16  1  0
  4 17  1  0
 17 18  1  0
 18 19  1  0
 19 20  1  0
 17 21  2  0
 21  2  1  0
 15  7  1  0
 20 18  1  0
 13  8  1  0
  1 22  1  0
  1 23  1  0
  1 24  1  0
  3 25  1  0
  5 26  1  0
  5 27  1  0
  6 28  1  0
  7 29  1  1
  9 30  1  0
 10 31  1  0
 11 32  1  0
 12 33  1  0
 14 34  1  0
 14 35  1  0
 15 36  1  1
 16 37  1  0
 18 38  1  0
 19 39  1  0
 19 40  1  0
 20 41  1  0
 20 42  1  0
M  END
$$$$
OCNT-2318684
     RDKit          3D

 47 50  0  0  0  0  0  0  0  0999 V2000
    7.6421   -1.8095    1.0307 C   0  0  0  0  0  0  0  0  0  0  0  0
    6.3005   -1.5296    1.1377 C   0  0  0  0  0  0  0  0  0  0  0  0
    5.9918   -0.6985    0.0799 N   0  0  0  0  0  0  0  0  0  0  0  0
    4.7224   -0.1323   -0.2375 C   0  0  0  0  0  0  0  0  0  0  0  0
    3.6025   -0.4026    0.5622 C   0  0  0  0  0  0  0  0  0  0  0  0
    2.3573    0.1538    0.2497 C   0  0  0  0  0  0  0  0  0  0  0  0
    2.2078    0.9961   -0.8581 C   0  0  0  0  0  0  0  0  0  0  0  0
    0.8554    1.5764   -1.2001 C   0  0  0  0  0  0  0  0  0  0  0  0
    0.1439    0.7005   -2.1283 N   0  0  0  0  0  0  0  0  0  0  0  0
   -1.2251    1.1695   -2.3728 C   0  0  0  0  0  0  0  0  0  0  0  0
   -2.1070    0.8675   -1.1991 C   0  0  0  0  0  0  0  0  0  0  0  0
   -3.1987    1.5728   -0.7333 C   0  0  0  0  0  0  0  0  0  0  0  0
   -3.6365    0.8730    0.3506 N   0  0  0  0  0  0  0  0  0  0  0  0
   -4.7582    1.1847    1.2065 C   0  0  0  0  0  0  0  0  0  0  0  0
   -5.8731    0.1321    1.2148 C   0  0  0  0  0  0  0  0  0  0  0  0
   -5.5144   -1.2773    0.7330 C   0  0  0  0  0  0  0  0  0  0  0  0
   -4.3573   -1.9805    1.4538 C   0  0  0  0  0  0  0  0  0  0  0  0
   -3.0504   -1.1982    1.6137 C   0  0  0  0  0  0  0  0  0  0  0  0
   -2.8192   -0.2176    0.5189 C   0  0  0  0  0  0  0  0  0  0  0  0
   -1.8830   -0.2448   -0.4044 N   0  0  0  0  0  0  0  0  0  0  0  0
    3.3218    1.2523   -1.6643 C   0  0  0  0  0  0  0  0  0  0  0  0
    4.5700    0.6988   -1.3569 C   0  0  0  0  0  0  0  0  0  0  0  0
    7.1799   -0.5322   -0.6027 C   0  0  0  0  0  0  0  0  0  0  0  0
    8.1820   -1.1846   -0.0539 N   0  0  0  0  0  0  0  0  0  0  0  0
    8.2438   -2.4306    1.6819 H   0  0  0  0  0  0  0  0  0  0  0  0
    5.5760   -1.8544    1.8673 H   0  0  0  0  0  0  0  0  0  0  0  0
    3.6532   -1.0469    1.4340 H   0  0  0  0  0  0  0  0  0  0  0  0
    1.4955   -0.0803    0.8729 H   0  0  0  0  0  0  0  0  0  0  0  0
    0.9964    2.5679   -1.6485 H   0  0  0  0  0  0  0  0  0  0  0  0
    0.2970    1.7326   -0.2687 H   0  0  0  0  0  0  0  0  0  0  0  0
    0.0452   -0.2143   -1.6762 H   0  0  0  0  0  0  0  0  0  0  0  0
   -1.6213    0.6342   -3.2431 H   0  0  0  0  0  0  0  0  0  0  0  0
   -1.2397    2.2376   -2.6182 H   0  0  0  0  0  0  0  0  0  0  0  0
   -3.6751    2.4790   -1.0801 H   0  0  0  0  0  0  0  0  0  0  0  0
   -5.1628    2.1580    0.9057 H   0  0  0  0  0  0  0  0  0  0  0  0
   -4.3546    1.3150    2.2180 H   0  0  0  0  0  0  0  0  0  0  0  0
   -6.6875    0.4971    0.5749 H   0  0  0  0  0  0  0  0  0  0  0  0
   -6.2967    0.0778    2.2254 H   0  0  0  0  0  0  0  0  0  0  0  0
   -6.4070   -1.9095    0.8258 H   0  0  0  0  0  0  0  0  0  0  0  0
   -5.2984   -1.2426   -0.3430 H   0  0  0  0  0  0  0  0  0  0  0  0
   -4.1415   -2.9035    0.8991 H   0  0  0  0  0  0  0  0  0  0  0  0
   -4.6914   -2.3047    2.4474 H   0  0  0  0  0  0  0  0  0  0  0  0
   -3.0570   -0.6689    2.5748 H   0  0  0  0  0  0  0  0  0  0  0  0
   -2.2109   -1.9016    1.6669 H   0  0  0  0  0  0  0  0  0  0  0  0
    3.2176    1.8796   -2.5475 H   0  0  0  0  0  0  0  0  0  0  0  0
    5.3927    0.9371   -2.0236 H   0  0  0  0  0  0  0  0  0  0  0  0
    7.2717    0.0715   -1.4938 H   0  0  0  0  0  0  0  0  0  0  0  0
  1  2  2  0
  2  3  1  0
  3  4  1  0
  4  5  1  0
  5  6  2  0
  6  7  1  0
  7  8  1  0
  8  9  1  0
  9 10  1  0
 10 11  1  0
 11 12  2  0
 12 13  1  0
 13 14  1  0
 14 15  1  0
 15 16  1  0
 16 17  1  0
 17 18  1  0
 18 19  1  0
 19 20  2  0
  7 21  2  0
 21 22  1  0
  3 23  1  0
 23 24  2  0
 24  1  1  0
 22  4  2  0
 20 11  1  0
 19 13  1  0
  1 25  1  0
  2 26  1  0
  5 27  1  0
  6 28  1  0
  8 29  1  0
  8 30  1  0
  9 31  1  0
 10 32  1  0
 10 33  1  0
 12 34  1  0
 14 35  1  0
 14 36  1  0
 15 37  1  0
 15 38  1  0
 16 39  1  0
 16 40  1  0
 17 41  1  0
 17 42  1  0
 18 43  1  0
 18 44  1  0
 21 45  1  0
 22 46  1  0
 23 47  1  0
M  END
$$$$
OCNT-2328318
     RDKit          3D

 31 33  0  0  0  0  0  0  0  0999 V2000
   -2.9098    1.9116    1.3461 C   0  0  0  0  0  0  0  0  0  0  0  0
   -3.1300    1.0774    0.2520 C   0  0  0  0  0  0  0  0  0  0  0  0
   -2.1312    0.1947   -0.1905 C   0  0  0  0  0  0  0  0  0  0  0  0
   -0.8792    0.1764    0.4575 C   0  0  0  0  0  0  0  0  0  0  0  0
   -0.6831    1.0119    1.5718 C   0  0  0  0  0  0  0  0  0  0  0  0
   -1.6879    1.8758    2.0084 C   0  0  0  0  0  0  0  0  0  0  0  0
    0.2146   -0.7924    0.0271 C   0  0  0  0  0  0  0  0  0  0  0  0
    1.6120   -0.1846    0.0623 C   0  0  0  0  0  0  0  0  0  0  0  0
    2.0135    0.7186   -0.7984 N   0  0  0  0  0  0  0  0  0  0  0  0
    3.4129    1.0228   -0.3897 C   0  0  0  0  0  0  0  0  0  0  0  0
    3.8258   -0.0809    0.5874 C   0  0  0  0  0  0  0  0  0  0  0  0
    2.5367   -0.5798    1.0030 N   0  0  0  0  0  0  0  0  0  0  0  0
   -0.0274   -1.4027   -1.3620 C   0  0  0  0  0  0  0  0  0  0  0  0
   -1.4706   -1.8649   -1.5029 C   0  0  0  0  0  0  0  0  0  0  0  0
   -2.4150   -0.6725   -1.3923 C   0  0  0  0  0  0  0  0  0  0  0  0
   -3.6908    2.5891    1.6797 H   0  0  0  0  0  0  0  0  0  0  0  0
   -4.0893    1.1170   -0.2592 H   0  0  0  0  0  0  0  0  0  0  0  0
    0.2634    1.0021    2.1083 H   0  0  0  0  0  0  0  0  0  0  0  0
   -1.5124    2.5228    2.8635 H   0  0  0  0  0  0  0  0  0  0  0  0
    0.1936   -1.6135    0.7579 H   0  0  0  0  0  0  0  0  0  0  0  0
    4.0721    1.0476   -1.2627 H   0  0  0  0  0  0  0  0  0  0  0  0
    3.4348    2.0065    0.0926 H   0  0  0  0  0  0  0  0  0  0  0  0
    4.4156    0.3007    1.4248 H   0  0  0  0  0  0  0  0  0  0  0  0
    4.3875   -0.8676    0.0731 H   0  0  0  0  0  0  0  0  0  0  0  0
    2.4832   -1.5307    1.3475 H   0  0  0  0  0  0  0  0  0  0  0  0
    0.6532   -2.2491   -1.5162 H   0  0  0  0  0  0  0  0  0  0  0  0
    0.1956   -0.6777   -2.1558 H   0  0  0  0  0  0  0  0  0  0  0  0
   -1.7009   -2.6027   -0.7240 H   0  0  0  0  0  0  0  0  0  0  0  0
   -1.6154   -2.3608   -2.4692 H   0  0  0  0  0  0  0  0  0  0  0  0
   -3.4453   -1.0454   -1.3487 H   0  0  0  0  0  0  0  0  0  0  0  0
   -2.3260   -0.0498   -2.2914 H   0  0  0  0  0  0  0  0  0  0  0  0
  1  2  1  0
  2  3  2  0
  3  4  1  0
  4  5  2  0
  5  6  1  0
  4  7  1  0
  7  8  1  0
  8  9  2  0
  9 10  1  0
 10 11  1  0
 11 12  1  0
  7 13  1  0
 13 14  1  0
 14 15  1  0
  6  1  2  0
 12  8  1  0
 15  3  1  0
  1 16  1  0
  2 17  1  0
  5 18  1  0
  6 19  1  0
  7 20  1  0
 10 21  1  0
 10 22  1  0
 11 23  1  0
 11 24  1  0
 12 25  1  0
 13 26  1  0
 13 27  1  0
 14 28  1  0
 14 29  1  0
 15 30  1  0
 15 31  1  0
M  END
$$$$
OCNT-2328323
     RDKit          3D

 37 37  0  0  0  0  0  0  0  0999 V2000
   -2.7221    2.5016   -0.6668 C   0  0  0  0  0  0  0  0  0  0  0  0
   -2.7538    0.9780   -0.8999 C   0  0  0  0  0  0  0  0  0  0  0  0
   -3.5133    0.3294    0.2670 C   0  0  0  0  0  0  0  0  0  0  0  0
   -3.4922    0.7070   -2.2234 C   0  0  0  0  0  0  0  0  0  0  0  0
   -1.3412    0.5544   -0.9806 N   0  0  0  0  0  0  0  0  0  0  0  0
   -1.0893   -0.8909   -1.0319 C   0  0  0  0  0  0  0  0  0  0  0  0
   -0.6767   -1.5075    0.3217 C   0  0  0  0  0  0  0  0  0  0  0  0
   -0.4303   -2.9108    0.1299 O   0  0  0  0  0  0  0  0  0  0  0  0
    0.5740   -0.8578    0.9317 C   0  0  0  0  0  0  0  0  0  0  0  0
    1.6709   -1.0247    0.0129 O   0  0  0  0  0  0  0  0  0  0  0  0
    2.8547   -0.6349    0.5842 C   0  0  0  0  0  0  0  0  0  0  0  0
    3.1241    0.7256    0.7538 C   0  0  0  0  0  0  0  0  0  0  0  0
    4.3450    1.1187    1.2988 C   0  0  0  0  0  0  0  0  0  0  0  0
    4.6804    2.7919    1.5216 Cl  0  0  0  0  0  0  0  0  0  0  0  0
    5.2995    0.1671    1.6626 C   0  0  0  0  0  0  0  0  0  0  0  0
    5.0367   -1.1926    1.4701 C   0  0  0  0  0  0  0  0  0  0  0  0
    3.8163   -1.5943    0.9235 C   0  0  0  0  0  0  0  0  0  0  0  0
    3.5226   -3.2795    0.6919 Cl  0  0  0  0  0  0  0  0  0  0  0  0
   -2.2044    2.7522    0.2673 H   0  0  0  0  0  0  0  0  0  0  0  0
   -2.2089    3.0239   -1.4834 H   0  0  0  0  0  0  0  0  0  0  0  0
   -3.7362    2.9128   -0.6022 H   0  0  0  0  0  0  0  0  0  0  0  0
   -2.9997    0.4992    1.2204 H   0  0  0  0  0  0  0  0  0  0  0  0
   -4.5205    0.7529    0.3607 H   0  0  0  0  0  0  0  0  0  0  0  0
   -3.6330   -0.7507    0.1289 H   0  0  0  0  0  0  0  0  0  0  0  0
   -4.5021    1.1330   -2.2010 H   0  0  0  0  0  0  0  0  0  0  0  0
   -3.5986   -0.3641   -2.4248 H   0  0  0  0  0  0  0  0  0  0  0  0
   -2.9667    1.1567   -3.0739 H   0  0  0  0  0  0  0  0  0  0  0  0
   -0.9297    0.9796   -1.8141 H   0  0  0  0  0  0  0  0  0  0  0  0
   -0.2745   -1.0648   -1.7477 H   0  0  0  0  0  0  0  0  0  0  0  0
   -1.9303   -1.4530   -1.4538 H   0  0  0  0  0  0  0  0  0  0  0  0
   -1.4990   -1.4315    1.0387 H   0  0  0  0  0  0  0  0  0  0  0  0
    0.4577   -2.9800   -0.2721 H   0  0  0  0  0  0  0  0  0  0  0  0
    0.8146   -1.3676    1.8743 H   0  0  0  0  0  0  0  0  0  0  0  0
    0.3962    0.2054    1.1313 H   0  0  0  0  0  0  0  0  0  0  0  0
    2.3909    1.4693    0.4530 H   0  0  0  0  0  0  0  0  0  0  0  0
    6.2517    0.4768    2.0866 H   0  0  0  0  0  0  0  0  0  0  0  0
    5.7870   -1.9308    1.7447 H   0  0  0  0  0  0  0  0  0  0  0  0
  1  2  1  0
  2  3  1  0
  2  4  1  0
  2  5  1  0
  5  6  1  0
  6  7  1  0
  7  8  1  0
  7  9  1  0
  9 10  1  0
 10 11  1  0
 11 12  1  0
 12 13  2  0
 13 14  1  0
 13 15  1  0
 15 16  2  0
 16 17  1  0
 17 18  1  0
 17 11  2  0
  1 19  1  0
  1 20  1  0
  1 21  1  0
  3 22  1  0
  3 23  1  0
  3 24  1  0
  4 25  1  0
  4 26  1  0
  4 27  1  0
  5 28  1  0
  6 29  1  0
  6 30  1  0
  7 31  1  0
  8 32  1  0
  9 33  1  0
  9 34  1  0
 12 35  1  0
 15 36  1  0
 16 37  1  0
M  END
$$$$
OCNT-2328329
     RDKit          3D

 40 41  0  0  0  0  0  0  0  0999 V2000
   -3.9993    2.2819    2.9298 C   0  0  0  0  0  0  0  0  0  0  0  0
   -2.7032    1.6976    2.9073 O   0  0  0  0  0  0  0  0  0  0  0  0
   -2.3833    0.9336    1.8190 C   0  0  0  0  0  0  0  0  0  0  0  0
   -1.1183    0.3481    1.8679 C   0  0  0  0  0  0  0  0  0  0  0  0
   -0.6458   -0.4536    0.8176 C   0  0  0  0  0  0  0  0  0  0  0  0
    0.6262   -1.0864    0.8869 N   0  0  0  0  0  0  0  0  0  0  0  0
    1.7704   -0.2638    1.2901 C   0  0  0  0  0  0  0  0  0  0  0  0
    2.3124   -0.8237    2.6069 C   0  0  0  0  0  0  0  0  0  0  0  0
    2.8718   -0.3074    0.2126 C   0  0  0  0  0  0  0  0  0  0  0  0
    2.4625    0.4140   -1.0791 C   0  0  0  0  0  0  0  0  0  0  0  0
    3.6145    0.5766   -2.0732 C   0  0  0  0  0  0  0  0  0  0  0  0
    4.1024   -0.7009   -2.5772 N   0  0  0  0  0  0  0  0  0  0  0  0
   -1.4686   -0.7114   -0.2955 C   0  0  0  0  0  0  0  0  0  0  0  0
   -1.0151   -1.4990   -1.2990 N   0  0  0  0  0  0  0  0  0  0  0  0
   -1.8202   -1.7162   -2.3603 C   0  0  0  0  0  0  0  0  0  0  0  0
   -3.0849   -1.1784   -2.4876 C   0  0  0  0  0  0  0  0  0  0  0  0
   -3.5530   -0.3667   -1.4621 C   0  0  0  0  0  0  0  0  0  0  0  0
   -2.7478   -0.1165   -0.3415 C   0  0  0  0  0  0  0  0  0  0  0  0
   -3.1944    0.7038    0.7111 C   0  0  0  0  0  0  0  0  0  0  0  0
   -4.7796    1.5138    2.9134 H   0  0  0  0  0  0  0  0  0  0  0  0
   -4.1254    2.9922    2.1060 H   0  0  0  0  0  0  0  0  0  0  0  0
   -4.0991    2.8380    3.8669 H   0  0  0  0  0  0  0  0  0  0  0  0
   -0.5040    0.5061    2.7497 H   0  0  0  0  0  0  0  0  0  0  0  0
    0.7613   -1.5653   -0.0124 H   0  0  0  0  0  0  0  0  0  0  0  0
    1.4913    0.7855    1.4485 H   0  0  0  0  0  0  0  0  0  0  0  0
    3.1676   -0.2367    2.9580 H   0  0  0  0  0  0  0  0  0  0  0  0
    2.6369   -1.8644    2.4937 H   0  0  0  0  0  0  0  0  0  0  0  0
    1.5460   -0.8015    3.3890 H   0  0  0  0  0  0  0  0  0  0  0  0
    3.7760    0.1715    0.6095 H   0  0  0  0  0  0  0  0  0  0  0  0
    3.1324   -1.3498   -0.0087 H   0  0  0  0  0  0  0  0  0  0  0  0
    1.6373   -0.1191   -1.5653 H   0  0  0  0  0  0  0  0  0  0  0  0
    2.0866    1.4138   -0.8286 H   0  0  0  0  0  0  0  0  0  0  0  0
    3.2669    1.1753   -2.9223 H   0  0  0  0  0  0  0  0  0  0  0  0
    4.4403    1.1248   -1.6062 H   0  0  0  0  0  0  0  0  0  0  0  0
    4.4969   -1.2507   -1.8161 H   0  0  0  0  0  0  0  0  0  0  0  0
    4.8645   -0.5370   -3.2335 H   0  0  0  0  0  0  0  0  0  0  0  0
   -1.4026   -2.3571   -3.1317 H   0  0  0  0  0  0  0  0  0  0  0  0
   -3.6907   -1.3853   -3.3622 H   0  0  0  0  0  0  0  0  0  0  0  0
   -4.5461    0.0682   -1.5412 H   0  0  0  0  0  0  0  0  0  0  0  0
   -4.1829    1.1458    0.6421 H   0  0  0  0  0  0  0  0  0  0  0  0
  1  2  1  0
  2  3  1  0
  3  4  2  0
  4  5  1  0
  5  6  1  0
  6  7  1  0
  7  8  1  0
  7  9  1  0
  9 10  1  0
 10 11  1  0
 11 12  1  0
  5 13  2  0
 13 14  1  0
 14 15  2  0
 15 16  1  0
 16 17  2  0
 17 18  1  0
 18 19  2  0
 19  3  1  0
 18 13  1  0
  1 20  1  0
  1 21  1  0
  1 22  1  0
  4 23  1  0
  6 24  1  0
  7 25  1  0
  8 26  1  0
  8 27  1  0
  8 28  1  0
  9 29  1  0
  9 30  1  0
 10 31  1  0
 10 32  1  0
 11 33  1  0
 11 34  1  0
 12 35  1  0
 12 36  1  0
 15 37  1  0
 16 38  1  0
 17 39  1  0
 19 40  1  0
M  END
$$$$
OCNT-2328331
     RDKit          3D

 23 24  0  0  0  0  0  0  0  0999 V2000
   -0.1358   -0.5571   -2.6655 Cl  0  0  0  0  0  0  0  0  0  0  0  0
   -1.3315   -0.3038   -1.4368 C   0  0  0  0  0  0  0  0  0  0  0  0
   -2.5739    0.1958   -1.8481 C   0  0  0  0  0  0  0  0  0  0  0  0
   -3.6087    0.3558   -0.9281 C   0  0  0  0  0  0  0  0  0  0  0  0
   -3.4070    0.0083    0.4052 C   0  0  0  0  0  0  0  0  0  0  0  0
   -2.1669   -0.4895    0.8171 C   0  0  0  0  0  0  0  0  0  0  0  0
   -1.9742   -0.9101    2.4864 Cl  0  0  0  0  0  0  0  0  0  0  0  0
   -1.1028   -0.6556   -0.0918 C   0  0  0  0  0  0  0  0  0  0  0  0
    0.1683   -1.0935    0.3717 N   0  0  0  0  0  0  0  0  0  0  0  0
    1.2325   -0.2407    0.3937 C   0  0  0  0  0  0  0  0  0  0  0  0
    1.3057    0.9907   -0.0212 N   0  0  0  0  0  0  0  0  0  0  0  0
    2.7033    1.3963    0.2803 C   0  0  0  0  0  0  0  0  0  0  0  0
    3.4540    0.1110    0.6323 C   0  0  0  0  0  0  0  0  0  0  0  0
    2.3608   -0.7928    0.9301 N   0  0  0  0  0  0  0  0  0  0  0  0
   -2.7386    0.4579   -2.8907 H   0  0  0  0  0  0  0  0  0  0  0  0
   -4.5701    0.7472   -1.2519 H   0  0  0  0  0  0  0  0  0  0  0  0
   -4.2156    0.1324    1.1214 H   0  0  0  0  0  0  0  0  0  0  0  0
    0.0823   -1.5772    1.2605 H   0  0  0  0  0  0  0  0  0  0  0  0
    2.6974    2.0943    1.1249 H   0  0  0  0  0  0  0  0  0  0  0  0
    3.1542    1.8970   -0.5820 H   0  0  0  0  0  0  0  0  0  0  0  0
    4.1271    0.2397    1.4840 H   0  0  0  0  0  0  0  0  0  0  0  0
    4.0237   -0.2556   -0.2284 H   0  0  0  0  0  0  0  0  0  0  0  0
    2.5159   -1.7506    0.6370 H   0  0  0  0  0  0  0  0  0  0  0  0
  1  2  1  0
  2  3  1  0
  3  4  2  0
  4  5  1  0
  5  6  2  0
  6  7  1  0
  6  8  1  0
  8  9  1  0
  9 10  1  0
 10 11  2  0
 11 12  1  0
 12 13  1  0
 13 14  1  0
  8  2  2  0
 14 10  1  0
  3 15  1  0
  4 16  1  0
  5 17  1  0
  9 18  1  0
 12 19  1  0
 12 20  1  0
 13 21  1  0
 13 22  1  0
 14 23  1  0
M  END
$$$$
OCNT-2328333
     RDKit          3D

 40 40  0  0  0  0  0  0  0  0999 V2000
    3.7467    3.2076    2.9274 C   0  0  0  0  0  0  0  0  0  0  0  0
    3.9742    2.1611    1.8770 C   0  0  0  0  0  0  0  0  0  0  0  0
    5.1582    1.4116    1.8644 C   0  0  0  0  0  0  0  0  0  0  0  0
    5.3597    0.4191    0.9002 C   0  0  0  0  0  0  0  0  0  0  0  0
    4.3723    0.1569   -0.0503 C   0  0  0  0  0  0  0  0  0  0  0  0
    4.6583   -1.0709   -1.2278 Cl  0  0  0  0  0  0  0  0  0  0  0  0
    3.1780    0.8798   -0.0229 C   0  0  0  0  0  0  0  0  0  0  0  0
    2.1918    0.6762   -0.9511 O   0  0  0  0  0  0  0  0  0  0  0  0
    1.2445   -0.3027   -0.4881 C   0  0  0  0  0  0  0  0  0  0  0  0
   -0.1715    0.2115   -0.7673 C   0  0  0  0  0  0  0  0  0  0  0  0
   -0.5103    1.2405    0.1791 O   0  0  0  0  0  0  0  0  0  0  0  0
   -1.2117   -0.9202   -0.6437 C   0  0  0  0  0  0  0  0  0  0  0  0
   -2.5604   -0.3473   -0.8045 N   0  0  0  0  0  0  0  0  0  0  0  0
   -3.6832   -1.2935   -0.6462 C   0  0  0  0  0  0  0  0  0  0  0  0
   -4.9688   -0.4637   -0.8296 C   0  0  0  0  0  0  0  0  0  0  0  0
   -3.7111   -1.9221    0.7563 C   0  0  0  0  0  0  0  0  0  0  0  0
   -3.6583   -2.3970   -1.7164 C   0  0  0  0  0  0  0  0  0  0  0  0
    2.9818    1.8838    0.9287 C   0  0  0  0  0  0  0  0  0  0  0  0
    4.6906    3.6827    3.2146 H   0  0  0  0  0  0  0  0  0  0  0  0
    3.0851    3.9976    2.5562 H   0  0  0  0  0  0  0  0  0  0  0  0
    3.2931    2.7545    3.8144 H   0  0  0  0  0  0  0  0  0  0  0  0
    5.9348    1.6008    2.6028 H   0  0  0  0  0  0  0  0  0  0  0  0
    6.2891   -0.1441    0.8967 H   0  0  0  0  0  0  0  0  0  0  0  0
    1.4312   -1.2221   -1.0543 H   0  0  0  0  0  0  0  0  0  0  0  0
    1.3596   -0.5213    0.5826 H   0  0  0  0  0  0  0  0  0  0  0  0
   -0.2176    0.6679   -1.7633 H   0  0  0  0  0  0  0  0  0  0  0  0
   -1.4901    1.2499    0.1895 H   0  0  0  0  0  0  0  0  0  0  0  0
   -1.0094   -1.6845   -1.4006 H   0  0  0  0  0  0  0  0  0  0  0  0
   -1.1158   -1.3682    0.3507 H   0  0  0  0  0  0  0  0  0  0  0  0
   -2.6236    0.0863   -1.7286 H   0  0  0  0  0  0  0  0  0  0  0  0
   -5.8623   -1.0895   -0.7203 H   0  0  0  0  0  0  0  0  0  0  0  0
   -5.0119   -0.0023   -1.8235 H   0  0  0  0  0  0  0  0  0  0  0  0
   -5.0363    0.3388   -0.0853 H   0  0  0  0  0  0  0  0  0  0  0  0
   -3.6702   -1.1544    1.5376 H   0  0  0  0  0  0  0  0  0  0  0  0
   -4.6323   -2.4968    0.9090 H   0  0  0  0  0  0  0  0  0  0  0  0
   -2.8753   -2.6116    0.9149 H   0  0  0  0  0  0  0  0  0  0  0  0
   -3.6031   -1.9730   -2.7257 H   0  0  0  0  0  0  0  0  0  0  0  0
   -2.8065   -3.0732   -1.5874 H   0  0  0  0  0  0  0  0  0  0  0  0
   -4.5661   -3.0098   -1.6672 H   0  0  0  0  0  0  0  0  0  0  0  0
    2.0470    2.4419    0.9244 H   0  0  0  0  0  0  0  0  0  0  0  0
  1  2  1  0
  2  3  1  0
  3  4  2  0
  4  5  1  0
  5  6  1  0
  5  7  2  0
  7  8  1  0
  8  9  1  0
  9 10  1  0
 10 11  1  0
 10 12  1  0
 12 13  1  0
 13 14  1  0
 14 15  1  0
 14 16  1  0
 14 17  1  0
  7 18  1  0
 18  2  2  0
  1 19  1  0
  1 20  1  0
  1 21  1  0
  3 22  1  0
  4 23  1  0
  9 24  1  0
  9 25  1  0
 10 26  1  0
 11 27  1  0
 12 28  1  0
 12 29  1  0
 13 30  1  0
 15 31  1  0
 15 32  1  0
 15 33  1  0
 16 34  1  0
 16 35  1  0
 16 36  1  0
 17 37  1  0
 17 38  1  0
 17 39  1  0
 18 40  1  0
M  END
$$$$
OCNT-2328337
     RDKit          3D

 54 54  0  0  0  0  0  0  0  0999 V2000
   -7.2403    0.2835    1.1159 C   0  0  0  0  0  0  0  0  0  0  0  0
   -6.1619    1.1755    0.8430 O   0  0  0  0  0  0  0  0  0  0  0  0
   -5.0020    0.4970    0.4799 C   0  0  0  0  0  0  0  0  0  0  0  0
   -3.9038    0.6065    1.2392 C   0  0  0  0  0  0  0  0  0  0  0  0
   -3.9593    1.3077    2.4404 O   0  0  0  0  0  0  0  0  0  0  0  0
   -3.1495    2.4809    2.4015 C   0  0  0  0  0  0  0  0  0  0  0  0
   -2.6452   -0.1025    0.8739 C   0  0  0  0  0  0  0  0  0  0  0  0
   -1.6556   -0.0536    1.5993 O   0  0  0  0  0  0  0  0  0  0  0  0
   -2.6098   -0.8740   -0.4048 C   0  0  0  0  0  0  0  0  0  0  0  0
   -1.2937   -1.5666   -0.6908 C   0  0  0  0  0  0  0  0  0  0  0  0
   -0.2992   -0.6276   -1.3813 C   0  0  0  0  0  0  0  0  0  0  0  0
    1.0171   -1.3118   -1.7637 C   0  0  0  0  0  0  0  0  0  0  0  0
    1.8272   -1.8915   -0.5995 C   0  0  0  0  0  0  0  0  0  0  0  0
    2.1875   -0.9038    0.5147 C   0  0  0  0  0  0  0  0  0  0  0  0
    2.9698    0.3381    0.0753 C   0  0  0  0  0  0  0  0  0  0  0  0
    4.3244    0.0068   -0.5587 C   0  0  0  0  0  0  0  0  0  0  0  0
    5.1559    1.2560   -0.8729 C   0  0  0  0  0  0  0  0  0  0  0  0
    6.2067    1.6031    0.1841 C   0  0  0  0  0  0  0  0  0  0  0  0
    5.6378    1.9699    1.5468 C   0  0  0  0  0  0  0  0  0  0  0  0
    6.6871    2.4175    2.3970 O   0  0  0  0  0  0  0  0  0  0  0  0
   -3.6986   -0.9397   -1.1934 C   0  0  0  0  0  0  0  0  0  0  0  0
   -3.7723   -1.6525   -2.5166 C   0  0  0  0  0  0  0  0  0  0  0  0
   -4.9686   -0.2594   -0.8034 C   0  0  0  0  0  0  0  0  0  0  0  0
   -5.9554   -0.3291   -1.5308 O   0  0  0  0  0  0  0  0  0  0  0  0
   -8.0039    0.8422    1.6655 H   0  0  0  0  0  0  0  0  0  0  0  0
   -6.9198   -0.5567    1.7422 H   0  0  0  0  0  0  0  0  0  0  0  0
   -7.6966   -0.0804    0.1915 H   0  0  0  0  0  0  0  0  0  0  0  0
   -3.3991    3.0878    3.2770 H   0  0  0  0  0  0  0  0  0  0  0  0
   -2.0857    2.2349    2.4584 H   0  0  0  0  0  0  0  0  0  0  0  0
   -3.3558    3.0776    1.5059 H   0  0  0  0  0  0  0  0  0  0  0  0
   -1.4484   -2.4597   -1.3065 H   0  0  0  0  0  0  0  0  0  0  0  0
   -0.8728   -1.9517    0.2454 H   0  0  0  0  0  0  0  0  0  0  0  0
   -0.7531   -0.2343   -2.3003 H   0  0  0  0  0  0  0  0  0  0  0  0
   -0.0961    0.2435   -0.7476 H   0  0  0  0  0  0  0  0  0  0  0  0
    1.6360   -0.5930   -2.3137 H   0  0  0  0  0  0  0  0  0  0  0  0
    0.8013   -2.1234   -2.4701 H   0  0  0  0  0  0  0  0  0  0  0  0
    2.7459   -2.3339   -1.0034 H   0  0  0  0  0  0  0  0  0  0  0  0
    1.2744   -2.7277   -0.1548 H   0  0  0  0  0  0  0  0  0  0  0  0
    2.7735   -1.4395    1.2723 H   0  0  0  0  0  0  0  0  0  0  0  0
    1.2716   -0.5778    1.0215 H   0  0  0  0  0  0  0  0  0  0  0  0
    2.3711    0.9306   -0.6259 H   0  0  0  0  0  0  0  0  0  0  0  0
    3.1143    0.9702    0.9574 H   0  0  0  0  0  0  0  0  0  0  0  0
    4.1430   -0.5184   -1.5041 H   0  0  0  0  0  0  0  0  0  0  0  0
    4.8905   -0.6815    0.0795 H   0  0  0  0  0  0  0  0  0  0  0  0
    5.6957    1.0732   -1.8112 H   0  0  0  0  0  0  0  0  0  0  0  0
    4.5066    2.1201   -1.0569 H   0  0  0  0  0  0  0  0  0  0  0  0
    6.8116    2.4419   -0.1838 H   0  0  0  0  0  0  0  0  0  0  0  0
    6.9105    0.7687    0.2975 H   0  0  0  0  0  0  0  0  0  0  0  0
    4.9071    2.7796    1.4612 H   0  0  0  0  0  0  0  0  0  0  0  0
    5.1576    1.1134    2.0284 H   0  0  0  0  0  0  0  0  0  0  0  0
    7.3202    1.6852    2.4899 H   0  0  0  0  0  0  0  0  0  0  0  0
   -4.4270   -2.5268   -2.4393 H   0  0  0  0  0  0  0  0  0  0  0  0
   -2.8001   -1.9926   -2.8808 H   0  0  0  0  0  0  0  0  0  0  0  0
   -4.1713   -0.9869   -3.2904 H   0  0  0  0  0  0  0  0  0  0  0  0
  1  2  1  0
  2  3  1  0
  3  4  2  0
  4  5  1  0
  5  6  1  0
  4  7  1  0
  7  8  2  0
  7  9  1  0
  9 10  1  0
 10 11  1  0
 11 12  1  0
 12 13  1  0
 13 14  1  0
 14 15  1  0
 15 16  1  0
 16 17  1  0
 17 18  1  0
 18 19  1  0
 19 20  1  0
  9 21  2  0
 21 22  1  0
 21 23  1  0
 23 24  2  0
 23  3  1  0
  1 25  1  0
  1 26  1  0
  1 27  1  0
  6 28  1  0
  6 29  1  0
  6 30  1  0
 10 31  1  0
 10 32  1  0
 11 33  1  0
 11 34  1  0
 12 35  1  0
 12 36  1  0
 13 37  1  0
 13 38  1  0
 14 39  1  0
 14 40  1  0
 15 41  1  0
 15 42  1  0
 16 43  1  0
 16 44  1  0
 17 45  1  0
 17 46  1  0
 18 47  1  0
 18 48  1  0
 19 49  1  0
 19 50  1  0
 20 51  1  0
 22 52  1  0
 22 53  1  0
 22 54  1  0
M  END
$$$$
OCNT-2328344
     RDKit          3D

 42 42  0  0  0  0  0  0  0  0999 V2000
    5.3158   -1.5992    0.1680 C   0  0  0  0  0  0  0  0  0  0  0  0
    3.9210   -1.2813    0.7006 C   0  0  0  0  0  0  0  0  0  0  0  0
    3.4086    0.0096    0.1941 N   0  0  0  0  0  0  0  0  0  0  0  0
    4.0472    1.1348    0.9061 C   0  0  0  0  0  0  0  0  0  0  0  0
    3.9221    2.4483    0.1389 C   0  0  0  0  0  0  0  0  0  0  0  0
    1.9348    0.0665    0.3547 C   0  0  0  0  0  0  0  0  0  0  0  0
    1.1776   -0.7721   -0.6949 C   0  0  0  0  0  0  0  0  0  0  0  0
   -0.2572   -0.5603   -0.6378 N   0  0  0  0  0  0  0  0  0  0  0  0
   -1.0441   -1.1112    0.3448 C   0  0  0  0  0  0  0  0  0  0  0  0
   -0.5877   -1.8590    1.2051 O   0  0  0  0  0  0  0  0  0  0  0  0
   -2.5074   -0.7770    0.3378 C   0  0  0  0  0  0  0  0  0  0  0  0
   -3.3056   -1.5069    1.2356 C   0  0  0  0  0  0  0  0  0  0  0  0
   -4.6795   -1.2855    1.3062 C   0  0  0  0  0  0  0  0  0  0  0  0
   -5.6085   -2.2073    2.4368 Cl  0  0  0  0  0  0  0  0  0  0  0  0
   -5.3021   -0.3602    0.4567 C   0  0  0  0  0  0  0  0  0  0  0  0
   -6.6645   -0.0333    0.5857 N   0  0  0  0  0  0  0  0  0  0  0  0
   -4.4966    0.4073   -0.3959 C   0  0  0  0  0  0  0  0  0  0  0  0
   -3.1075    0.2061   -0.4771 C   0  0  0  0  0  0  0  0  0  0  0  0
   -2.2928    0.9296   -1.3131 O   0  0  0  0  0  0  0  0  0  0  0  0
   -2.8640    2.0213   -2.0269 C   0  0  0  0  0  0  0  0  0  0  0  0
    5.3391   -1.5510   -0.9259 H   0  0  0  0  0  0  0  0  0  0  0  0
    6.0768   -0.9193    0.5601 H   0  0  0  0  0  0  0  0  0  0  0  0
    5.6028   -2.6143    0.4628 H   0  0  0  0  0  0  0  0  0  0  0  0
    3.2789   -2.1052    0.3712 H   0  0  0  0  0  0  0  0  0  0  0  0
    3.9194   -1.3053    1.7978 H   0  0  0  0  0  0  0  0  0  0  0  0
    3.6396    1.2467    1.9189 H   0  0  0  0  0  0  0  0  0  0  0  0
    5.1214    0.9565    1.0228 H   0  0  0  0  0  0  0  0  0  0  0  0
    4.3098    2.3456   -0.8801 H   0  0  0  0  0  0  0  0  0  0  0  0
    4.5056    3.2275    0.6408 H   0  0  0  0  0  0  0  0  0  0  0  0
    2.8890    2.8016    0.0808 H   0  0  0  0  0  0  0  0  0  0  0  0
    1.6432   -0.2304    1.3706 H   0  0  0  0  0  0  0  0  0  0  0  0
    1.5822    1.0974    0.2335 H   0  0  0  0  0  0  0  0  0  0  0  0
    1.3626   -1.8422   -0.5611 H   0  0  0  0  0  0  0  0  0  0  0  0
    1.4969   -0.4938   -1.7053 H   0  0  0  0  0  0  0  0  0  0  0  0
   -0.6757    0.1203   -1.2635 H   0  0  0  0  0  0  0  0  0  0  0  0
   -2.8506   -2.2519    1.8866 H   0  0  0  0  0  0  0  0  0  0  0  0
   -7.2033   -0.7708    1.0380 H   0  0  0  0  0  0  0  0  0  0  0  0
   -7.1040    0.3065   -0.2627 H   0  0  0  0  0  0  0  0  0  0  0  0
   -4.9866    1.1698   -0.9927 H   0  0  0  0  0  0  0  0  0  0  0  0
   -2.0587    2.5135   -2.5805 H   0  0  0  0  0  0  0  0  0  0  0  0
   -3.2967    2.7590   -1.3436 H   0  0  0  0  0  0  0  0  0  0  0  0
   -3.6013    1.6698   -2.7557 H   0  0  0  0  0  0  0  0  0  0  0  0
  1  2  1  0
  2  3  1  0
  3  4  1  0
  4  5  1  0
  3  6  1  0
  6  7  1  0
  7  8  1  0
  8  9  1  0
  9 10  2  0
  9 11  1  0
 11 12  1  0
 12 13  2  0
 13 14  1  0
 13 15  1  0
 15 16  1  0
 15 17  2  0
 17 18  1  0
 18 19  1  0
 19 20  1  0
 18 11  2  0
  1 21  1  0
  1 22  1  0
  1 23  1  0
  2 24  1  0
  2 25  1  0
  4 26  1  0
  4 27  1  0
  5 28  1  0
  5 29  1  0
  5 30  1  0
  6 31  1  0
  6 32  1  0
  7 33  1  0
  7 34  1  0
  8 35  1  0
 12 36  1  0
 16 37  1  0
 16 38  1  0
 17 39  1  0
 20 40  1  0
 20 41  1  0
 20 42  1  0
M  END
$$$$
OCNT-2328345
     RDKit          3D

 44 47  0  0  0  0  0  0  0  0999 V2000
    4.6473    0.0095    1.4733 C   0  0  0  0  0  0  0  0  0  0  0  0
    4.5999    0.5633    0.1258 N   0  0  0  0  0  0  0  0  0  0  0  0
    3.5531   -0.0425   -0.7000 C   0  0  0  0  0  0  0  0  0  0  0  0
    2.1343    0.3399   -0.2574 C   0  0  0  0  0  0  0  0  0  0  0  0
    1.0921   -0.1954   -1.2606 C   0  0  0  0  0  0  0  0  0  0  0  0
   -0.3930   -0.1817   -0.8113 C   0  0  0  0  0  0  0  0  0  0  0  0
   -1.2834   -0.7461   -1.9846 C   0  0  0  0  0  0  0  0  0  0  0  0
   -2.7934   -0.7729   -1.5839 C   0  0  0  0  0  0  0  0  0  0  0  0
   -2.9744   -0.2377   -0.1397 C   0  0  0  0  0  0  0  0  0  0  0  0
   -2.3814    1.1610   -0.1469 C   0  0  0  0  0  0  0  0  0  0  0  0
   -1.0162    1.2130   -0.5399 C   0  0  0  0  0  0  0  0  0  0  0  0
   -0.4212    2.4600   -0.7106 C   0  0  0  0  0  0  0  0  0  0  0  0
   -1.1460    3.6225   -0.4239 C   0  0  0  0  0  0  0  0  0  0  0  0
   -2.4735    3.5516    0.0088 C   0  0  0  0  0  0  0  0  0  0  0  0
   -3.1031    2.3169    0.1391 C   0  0  0  0  0  0  0  0  0  0  0  0
   -2.1058   -1.1241    0.7353 C   0  0  0  0  0  0  0  0  0  0  0  0
   -0.7326   -1.1327    0.3717 C   0  0  0  0  0  0  0  0  0  0  0  0
    0.1277   -2.0064    1.0342 C   0  0  0  0  0  0  0  0  0  0  0  0
   -0.3582   -2.8037    2.0762 C   0  0  0  0  0  0  0  0  0  0  0  0
   -1.7047   -2.7523    2.4494 C   0  0  0  0  0  0  0  0  0  0  0  0
   -2.5894   -1.9167    1.7726 C   0  0  0  0  0  0  0  0  0  0  0  0
    3.7540    0.2650    2.0501 H   0  0  0  0  0  0  0  0  0  0  0  0
    4.7704   -1.0782    1.4585 H   0  0  0  0  0  0  0  0  0  0  0  0
    5.5035    0.4346    2.0069 H   0  0  0  0  0  0  0  0  0  0  0  0
    5.5022    0.4013   -0.3220 H   0  0  0  0  0  0  0  0  0  0  0  0
    3.6688   -1.1330   -0.7223 H   0  0  0  0  0  0  0  0  0  0  0  0
    3.7027    0.3089   -1.7281 H   0  0  0  0  0  0  0  0  0  0  0  0
    2.0785    1.4286   -0.1841 H   0  0  0  0  0  0  0  0  0  0  0  0
    1.9410   -0.0399    0.7477 H   0  0  0  0  0  0  0  0  0  0  0  0
    1.3632   -1.2274   -1.5236 H   0  0  0  0  0  0  0  0  0  0  0  0
    1.1941    0.3814   -2.1902 H   0  0  0  0  0  0  0  0  0  0  0  0
   -0.9685   -1.7635   -2.2536 H   0  0  0  0  0  0  0  0  0  0  0  0
   -1.1651   -0.1330   -2.8882 H   0  0  0  0  0  0  0  0  0  0  0  0
   -3.3681   -0.1656   -2.2948 H   0  0  0  0  0  0  0  0  0  0  0  0
   -3.1719   -1.7999   -1.6646 H   0  0  0  0  0  0  0  0  0  0  0  0
   -4.0244   -0.2452    0.1691 H   0  0  0  0  0  0  0  0  0  0  0  0
    0.5909    2.5681   -1.0816 H   0  0  0  0  0  0  0  0  0  0  0  0
   -0.6721    4.5937   -0.5462 H   0  0  0  0  0  0  0  0  0  0  0  0
   -3.0202    4.4654    0.2262 H   0  0  0  0  0  0  0  0  0  0  0  0
   -4.1432    2.2640    0.4458 H   0  0  0  0  0  0  0  0  0  0  0  0
    1.1725   -2.0995    0.7596 H   0  0  0  0  0  0  0  0  0  0  0  0
    0.3182   -3.4754    2.5995 H   0  0  0  0  0  0  0  0  0  0  0  0
   -2.0645   -3.3788    3.2614 H   0  0  0  0  0  0  0  0  0  0  0  0
   -3.6399   -1.8970    2.0464 H   0  0  0  0  0  0  0  0  0  0  0  0
  1  2  1  0
  2  3  1  0
  3  4  1  0
  4  5  1  0
  5  6  1  0
  6  7  1  0
  7  8  1  0
  8  9  1  0
  9 10  1  0
 10 11  1  0
 11 12  2  0
 12 13  1  0
 13 14  2  0
 14 15  1  0
  9 16  1  0
 16 17  1  0
 17 18  2  0
 18 19  1  0
 19 20  2  0
 20 21  1  0
 11  6  1  0
 21 16  2  0
 17  6  1  0
 15 10  2  0
  1 22  1  0
  1 23  1  0
  1 24  1  0
  2 25  1  0
  3 26  1  0
  3 27  1  0
  4 28  1  0
  4 29  1  0
  5 30  1  0
  5 31  1  0
  7 32  1  0
  7 33  1  0
  8 34  1  0
  8 35  1  0
  9 36  1  0
 12 37  1  0
 13 38  1  0
 14 39  1  0
 15 40  1  0
 18 41  1  0
 19 42  1  0
 20 43  1  0
 21 44  1  0
M  END
$$$$
OCNT-2328368
     RDKit          3D

 43 44  0  0  0  0  0  0  0  0999 V2000
    0.2415    2.6187   -0.3293 C   0  0  0  0  0  0  0  0  0  0  0  0
    0.2067    1.0982   -0.5569 C   0  0  0  0  0  0  0  0  0  0  0  0
    1.5497    0.4410   -0.1455 C   0  0  0  0  0  0  0  0  0  0  0  0
    2.6067    0.9980   -0.9473 O   0  0  0  0  0  0  0  0  0  0  0  0
    3.7972    0.4017   -0.6343 C   0  0  0  0  0  0  0  0  0  0  0  0
    4.2394   -0.6781   -1.3948 C   0  0  0  0  0  0  0  0  0  0  0  0
    5.4676   -1.2694   -1.1000 C   0  0  0  0  0  0  0  0  0  0  0  0
    6.2512   -0.7682   -0.0587 C   0  0  0  0  0  0  0  0  0  0  0  0
    5.8109    0.3284    0.6851 C   0  0  0  0  0  0  0  0  0  0  0  0
    4.5826    0.9208    0.3927 C   0  0  0  0  0  0  0  0  0  0  0  0
   -0.9532    0.4062    0.0642 N   0  0  0  0  0  0  0  0  0  0  0  0
   -1.0871    0.6488    1.5174 C   0  0  0  0  0  0  0  0  0  0  0  0
   -1.4882   -0.5838    2.3431 C   0  0  0  0  0  0  0  0  0  0  0  0
   -0.2519   -1.8676    2.2658 Cl  0  0  0  0  0  0  0  0  0  0  0  0
   -2.1988    0.6993   -0.6750 C   0  0  0  0  0  0  0  0  0  0  0  0
   -3.3137   -0.2898   -0.4175 C   0  0  0  0  0  0  0  0  0  0  0  0
   -4.5439    0.1364    0.1038 C   0  0  0  0  0  0  0  0  0  0  0  0
   -5.5715   -0.7811    0.3305 C   0  0  0  0  0  0  0  0  0  0  0  0
   -5.3822   -2.1303    0.0355 C   0  0  0  0  0  0  0  0  0  0  0  0
   -4.1665   -2.5648   -0.4890 C   0  0  0  0  0  0  0  0  0  0  0  0
   -3.1388   -1.6497   -0.7182 C   0  0  0  0  0  0  0  0  0  0  0  0
    1.0481    3.0779   -0.9115 H   0  0  0  0  0  0  0  0  0  0  0  0
   -0.6905    3.0945   -0.6499 H   0  0  0  0  0  0  0  0  0  0  0  0
    0.4106    2.8737    0.7214 H   0  0  0  0  0  0  0  0  0  0  0  0
    0.1445    0.9529   -1.6447 H   0  0  0  0  0  0  0  0  0  0  0  0
    1.4902   -0.6411   -0.3220 H   0  0  0  0  0  0  0  0  0  0  0  0
    1.7611    0.6179    0.9157 H   0  0  0  0  0  0  0  0  0  0  0  0
    3.6308   -1.0575   -2.2099 H   0  0  0  0  0  0  0  0  0  0  0  0
    5.8151   -2.1179   -1.6830 H   0  0  0  0  0  0  0  0  0  0  0  0
    7.2084   -1.2298    0.1695 H   0  0  0  0  0  0  0  0  0  0  0  0
    6.4270    0.7228    1.4887 H   0  0  0  0  0  0  0  0  0  0  0  0
    4.2416    1.7810    0.9605 H   0  0  0  0  0  0  0  0  0  0  0  0
   -1.8026    1.4590    1.7085 H   0  0  0  0  0  0  0  0  0  0  0  0
   -0.1413    1.0036    1.9431 H   0  0  0  0  0  0  0  0  0  0  0  0
   -2.4416   -1.0142    2.0363 H   0  0  0  0  0  0  0  0  0  0  0  0
   -1.5818   -0.3006    3.3963 H   0  0  0  0  0  0  0  0  0  0  0  0
   -2.5430    1.7208   -0.4682 H   0  0  0  0  0  0  0  0  0  0  0  0
   -2.0148    0.6592   -1.7574 H   0  0  0  0  0  0  0  0  0  0  0  0
   -4.7104    1.1855    0.3366 H   0  0  0  0  0  0  0  0  0  0  0  0
   -6.5217   -0.4432    0.7357 H   0  0  0  0  0  0  0  0  0  0  0  0
   -6.1823   -2.8438    0.2131 H   0  0  0  0  0  0  0  0  0  0  0  0
   -4.0159   -3.6165   -0.7177 H   0  0  0  0  0  0  0  0  0  0  0  0
   -2.1889   -1.9989   -1.1191 H   0  0  0  0  0  0  0  0  0  0  0  0
  1  2  1  0
  2  3  1  0
  3  4  1  0
  4  5  1  0
  5  6  2  0
  6  7  1  0
  7  8  2  0
  8  9  1  0
  9 10  2  0
  2 11  1  0
 11 12  1  0
 12 13  1  0
 13 14  1  0
 11 15  1  0
 15 16  1  0
 16 17  2  0
 17 18  1  0
 18 19  2  0
 19 20  1  0
 20 21  2  0
 10  5  1  0
 21 16  1  0
  1 22  1  0
  1 23  1  0
  1 24  1  0
  2 25  1  0
  3 26  1  0
  3 27  1  0
  6 28  1  0
  7 29  1  0
  8 30  1  0
  9 31  1  0
 10 32  1  0
 12 33  1  0
 12 34  1  0
 13 35  1  0
 13 36  1  0
 15 37  1  0
 15 38  1  0
 17 39  1  0
 18 40  1  0
 19 41  1  0
 20 42  1  0
 21 43  1  0
M  END
$$$$
OCNT-2328369
     RDKit          3D

 74 77  0  0  0  0  0  0  0  0999 V2000
   -4.5141    1.1256   -3.1225 C   0  0  0  0  0  0  0  0  0  0  0  0
   -4.0029    0.6340   -1.7941 C   0  0  0  0  0  0  0  0  0  0  0  0
   -2.6037    0.5547   -1.6097 C   0  0  0  0  0  0  0  0  0  0  0  0
   -2.0357    0.0831   -0.4234 C   0  0  0  0  0  0  0  0  0  0  0  0
   -0.6557   -0.0218   -0.2059 N   0  0  0  0  0  0  0  0  0  0  0  0
    0.4725    0.3776   -0.9064 C   0  0  0  0  0  0  0  0  0  0  0  0
    0.3920    1.1697   -1.9827 N   0  0  0  0  0  0  0  0  0  0  0  0
    1.5520    1.5466   -2.5584 C   0  0  0  0  0  0  0  0  0  0  0  0
    2.7921    1.1528   -2.1167 C   0  0  0  0  0  0  0  0  0  0  0  0
    4.1989    1.7513   -2.9026 Cl  0  0  0  0  0  0  0  0  0  0  0  0
    2.7876    0.3092   -1.0169 C   0  0  0  0  0  0  0  0  0  0  0  0
    3.9537   -0.2013   -0.4163 N   0  0  0  0  0  0  0  0  0  0  0  0
    5.0285   -0.8811   -1.0387 C   0  0  0  0  0  0  0  0  0  0  0  0
    4.8149   -1.6362   -2.2052 C   0  0  0  0  0  0  0  0  0  0  0  0
    5.8354   -2.4022   -2.7710 C   0  0  0  0  0  0  0  0  0  0  0  0
    7.0828   -2.4567   -2.1604 C   0  0  0  0  0  0  0  0  0  0  0  0
    7.3155   -1.7390   -0.9875 C   0  0  0  0  0  0  0  0  0  0  0  0
    6.3001   -0.9457   -0.4327 C   0  0  0  0  0  0  0  0  0  0  0  0
    6.5835   -0.0229    1.0705 S   0  0  0  0  0  0  0  0  0  0  0  0
    6.1530    1.3441    0.8378 O   0  0  0  0  0  0  0  0  0  0  0  0
    5.9761   -0.8248    2.1199 O   0  0  0  0  0  0  0  0  0  0  0  0
    8.3481    0.0475    1.3879 C   0  0  0  0  0  0  0  0  0  0  0  0
    9.0865    0.8909    0.3504 C   0  0  0  0  0  0  0  0  0  0  0  0
    8.6022    0.6195    2.7848 C   0  0  0  0  0  0  0  0  0  0  0  0
    1.6396   -0.0614   -0.4061 N   0  0  0  0  0  0  0  0  0  0  0  0
   -2.9171   -0.2533    0.6162 C   0  0  0  0  0  0  0  0  0  0  0  0
   -2.4372   -0.7073    1.8249 O   0  0  0  0  0  0  0  0  0  0  0  0
   -2.0460    0.3814    2.6853 C   0  0  0  0  0  0  0  0  0  0  0  0
   -3.2169    0.7900    3.5776 C   0  0  0  0  0  0  0  0  0  0  0  0
   -0.8875   -0.1258    3.5400 C   0  0  0  0  0  0  0  0  0  0  0  0
   -4.3025   -0.2100    0.4481 C   0  0  0  0  0  0  0  0  0  0  0  0
   -4.8719    0.2514   -0.7496 C   0  0  0  0  0  0  0  0  0  0  0  0
   -6.3904    0.2859   -0.9018 C   0  0  0  0  0  0  0  0  0  0  0  0
   -6.9293   -1.1268   -1.1867 C   0  0  0  0  0  0  0  0  0  0  0  0
   -8.4455   -1.1702   -1.0234 C   0  0  0  0  0  0  0  0  0  0  0  0
   -8.9179   -0.7737    0.3039 N   0  0  0  0  0  0  0  0  0  0  0  0
   -7.9281   -0.0575    1.1062 C   0  0  0  0  0  0  0  0  0  0  0  0
   -7.1294    0.9499    0.2820 C   0  0  0  0  0  0  0  0  0  0  0  0
   -5.0531    2.0703   -2.9984 H   0  0  0  0  0  0  0  0  0  0  0  0
   -3.6970    1.3034   -3.8301 H   0  0  0  0  0  0  0  0  0  0  0  0
   -5.1756    0.3797   -3.5755 H   0  0  0  0  0  0  0  0  0  0  0  0
   -1.9576    0.8457   -2.4341 H   0  0  0  0  0  0  0  0  0  0  0  0
   -0.3984   -0.6054    0.5796 H   0  0  0  0  0  0  0  0  0  0  0  0
    1.4408    2.2078   -3.4137 H   0  0  0  0  0  0  0  0  0  0  0  0
    3.6324   -0.7408    0.3898 H   0  0  0  0  0  0  0  0  0  0  0  0
    3.8376   -1.6519   -2.6816 H   0  0  0  0  0  0  0  0  0  0  0  0
    5.6472   -2.9727   -3.6776 H   0  0  0  0  0  0  0  0  0  0  0  0
    7.8707   -3.0723   -2.5909 H   0  0  0  0  0  0  0  0  0  0  0  0
    8.2929   -1.8369   -0.5301 H   0  0  0  0  0  0  0  0  0  0  0  0
    8.7230   -0.9802    1.3841 H   0  0  0  0  0  0  0  0  0  0  0  0
    8.9177    0.5350   -0.6689 H   0  0  0  0  0  0  0  0  0  0  0  0
    8.7658    1.9381    0.3858 H   0  0  0  0  0  0  0  0  0  0  0  0
   10.1659    0.8671    0.5359 H   0  0  0  0  0  0  0  0  0  0  0  0
    9.6755    0.6592    2.9990 H   0  0  0  0  0  0  0  0  0  0  0  0
    8.1969    1.6321    2.8829 H   0  0  0  0  0  0  0  0  0  0  0  0
    8.1323   -0.0010    3.5545 H   0  0  0  0  0  0  0  0  0  0  0  0
   -1.7039    1.2544    2.1149 H   0  0  0  0  0  0  0  0  0  0  0  0
   -3.6562   -0.0786    4.0846 H   0  0  0  0  0  0  0  0  0  0  0  0
   -2.9051    1.5209    4.3301 H   0  0  0  0  0  0  0  0  0  0  0  0
   -4.0181    1.2429    2.9833 H   0  0  0  0  0  0  0  0  0  0  0  0
   -0.0544   -0.4548    2.9091 H   0  0  0  0  0  0  0  0  0  0  0  0
   -0.5228    0.6519    4.2197 H   0  0  0  0  0  0  0  0  0  0  0  0
   -1.1978   -0.9937    4.1359 H   0  0  0  0  0  0  0  0  0  0  0  0
   -4.9314   -0.5384    1.2700 H   0  0  0  0  0  0  0  0  0  0  0  0
   -6.6362    0.9116   -1.7685 H   0  0  0  0  0  0  0  0  0  0  0  0
   -6.4735   -1.8696   -0.5182 H   0  0  0  0  0  0  0  0  0  0  0  0
   -6.6574   -1.4290   -2.2053 H   0  0  0  0  0  0  0  0  0  0  0  0
   -8.9080   -0.5037   -1.7621 H   0  0  0  0  0  0  0  0  0  0  0  0
   -8.8107   -2.1797   -1.2489 H   0  0  0  0  0  0  0  0  0  0  0  0
   -9.2383   -1.5939    0.8203 H   0  0  0  0  0  0  0  0  0  0  0  0
   -8.4525    0.4668    1.9116 H   0  0  0  0  0  0  0  0  0  0  0  0
   -7.2546   -0.7759    1.5871 H   0  0  0  0  0  0  0  0  0  0  0  0
   -7.8321    1.6938   -0.1205 H   0  0  0  0  0  0  0  0  0  0  0  0
   -6.4469    1.5133    0.9294 H   0  0  0  0  0  0  0  0  0  0  0  0
  1  2  1  0
  2  3  1  0
  3  4  2  0
  4  5  1  0
  5  6  1  0
  6  7  2  0
  7  8  1  0
  8  9  2  0
  9 10  1  0
  9 11  1  0
 11 12  1  0
 12 13  1  0
 13 14  2  0
 14 15  1  0
 15 16  2  0
 16 17  1  0
 17 18  2  0
 18 19  1  0
 19 20  2  0
 19 21  2  0
 19 22  1  0
 22 23  1  0
 22 24  1  0
 11 25  2  0
  4 26  1  0
 26 27  1  0
 27 28  1  0
 28 29  1  0
 28 30  1  0
 26 31  2  0
 31 32  1  0
 32 33  1  0
 33 34  1  0
 34 35  1  0
 35 36  1  0
 36 37  1  0
 37 38  1  0
 32  2  2  0
 38 33  1  0
 25  6  1  0
 18 13  1  0
  1 39  1  0
  1 40  1  0
  1 41  1  0
  3 42  1  0
  5 43  1  0
  8 44  1  0
 12 45  1  0
 14 46  1  0
 15 47  1  0
 16 48  1  0
 17 49  1  0
 22 50  1  0
 23 51  1  0
 23 52  1  0
 23 53  1  0
 24 54  1  0
 24 55  1  0
 24 56  1  0
 28 57  1  0
 29 58  1  0
 29 59  1  0
 29 60  1  0
 30 61  1  0
 30 62  1  0
 30 63  1  0
 31 64  1  0
 33 65  1  0
 34 66  1  0
 34 67  1  0
 35 68  1  0
 35 69  1  0
 36 70  1  0
 37 71  1  0
 37 72  1  0
 38 73  1  0
 38 74  1  0
M  END
$$$$
OCNT-2328376
     RDKit          3D

 31 31  0  0  0  0  0  0  0  0999 V2000
    4.4725    0.3161   -0.2821 C   0  0  0  0  0  0  0  0  0  0  0  0
    3.5565    0.8088    0.8223 C   0  0  0  0  0  0  0  0  0  0  0  0
    2.1886    0.5416    0.4836 O   0  0  0  0  0  0  0  0  0  0  0  0
    1.7103   -0.6890    0.8417 C   0  0  0  0  0  0  0  0  0  0  0  0
    2.3831   -1.5576    1.3855 O   0  0  0  0  0  0  0  0  0  0  0  0
    0.2333   -0.8466    0.4255 C   0  0  0  0  0  0  0  0  0  0  0  0
    0.2146   -0.9882   -1.1041 C   0  0  0  0  0  0  0  0  0  0  0  0
   -0.3302   -2.1101    1.0899 C   0  0  0  0  0  0  0  0  0  0  0  0
   -0.4290    0.3324    0.9389 O   0  0  0  0  0  0  0  0  0  0  0  0
   -1.6571    0.6186    0.4198 C   0  0  0  0  0  0  0  0  0  0  0  0
   -1.7525    1.5581   -0.6068 C   0  0  0  0  0  0  0  0  0  0  0  0
   -3.0050    1.9083   -1.1139 C   0  0  0  0  0  0  0  0  0  0  0  0
   -4.1545    1.3363   -0.5699 C   0  0  0  0  0  0  0  0  0  0  0  0
   -5.6994    1.7674   -1.1921 Cl  0  0  0  0  0  0  0  0  0  0  0  0
   -4.0617    0.4283    0.4848 C   0  0  0  0  0  0  0  0  0  0  0  0
   -2.8078    0.0790    0.9907 C   0  0  0  0  0  0  0  0  0  0  0  0
    4.1952    0.7666   -1.2408 H   0  0  0  0  0  0  0  0  0  0  0  0
    5.5142    0.5662   -0.0626 H   0  0  0  0  0  0  0  0  0  0  0  0
    4.3918   -0.7685   -0.4053 H   0  0  0  0  0  0  0  0  0  0  0  0
    3.6545    1.8945    0.9245 H   0  0  0  0  0  0  0  0  0  0  0  0
    3.8217    0.3695    1.7907 H   0  0  0  0  0  0  0  0  0  0  0  0
    0.8606   -1.8103   -1.4330 H   0  0  0  0  0  0  0  0  0  0  0  0
   -0.7949   -1.1891   -1.4787 H   0  0  0  0  0  0  0  0  0  0  0  0
    0.5664   -0.0737   -1.5946 H   0  0  0  0  0  0  0  0  0  0  0  0
   -0.3635   -1.9963    2.1796 H   0  0  0  0  0  0  0  0  0  0  0  0
   -1.3516   -2.3181    0.7560 H   0  0  0  0  0  0  0  0  0  0  0  0
    0.2734   -2.9945    0.8576 H   0  0  0  0  0  0  0  0  0  0  0  0
   -0.8548    2.0193   -1.0095 H   0  0  0  0  0  0  0  0  0  0  0  0
   -3.0776    2.6314   -1.9215 H   0  0  0  0  0  0  0  0  0  0  0  0
   -4.9589    0.0003    0.9238 H   0  0  0  0  0  0  0  0  0  0  0  0
   -2.7380   -0.6006    1.8350 H   0  0  0  0  0  0  0  0  0  0  0  0
  1  2  1  0
  2  3  1  0
  3  4  1  0
  4  5  2  0
  4  6  1  0
  6  7  1  0
  6  8  1  0
  6  9  1  0
  9 10  1  0
 10 11  1  0
 11 12  2  0
 12 13  1  0
 13 14  1  0
 13 15  2  0
 15 16  1  0
 16 10  2  0
  1 17  1  0
  1 18  1  0
  1 19  1  0
  2 20  1  0
  2 21  1  0
  7 22  1  0
  7 23  1  0
  7 24  1  0
  8 25  1  0
  8 26  1  0
  8 27  1  0
 11 28  1  0
 12 29  1  0
 15 30  1  0
 16 31  1  0
M  END
$$$$
OCNT-2328378
     RDKit          3D

 42 44  0  0  0  0  0  0  0  0999 V2000
    4.9919    0.5067   -0.6917 C   0  0  0  0  0  0  0  0  0  0  0  0
    3.6945    0.4698   -0.0221 N   0  0  0  0  0  0  0  0  0  0  0  0
    3.0801   -0.8639   -0.1450 C   0  0  0  0  0  0  0  0  0  0  0  0
    1.6752   -0.9183    0.4981 C   0  0  0  0  0  0  0  0  0  0  0  0
    0.7395    0.0785   -0.0847 N   0  0  0  0  0  0  0  0  0  0  0  0
   -0.5831    0.0437    0.6124 C   0  0  0  0  0  0  0  0  0  0  0  0
   -1.5714    1.1047    0.1060 C   0  0  0  0  0  0  0  0  0  0  0  0
   -2.3005    1.8775    1.0262 C   0  0  0  0  0  0  0  0  0  0  0  0
   -3.2161    2.8357    0.5860 C   0  0  0  0  0  0  0  0  0  0  0  0
   -3.4204    3.0321   -0.7781 C   0  0  0  0  0  0  0  0  0  0  0  0
   -2.7116    2.2703   -1.7042 C   0  0  0  0  0  0  0  0  0  0  0  0
   -1.7962    1.3118   -1.2662 C   0  0  0  0  0  0  0  0  0  0  0  0
   -1.2583   -1.3354    0.5781 C   0  0  0  0  0  0  0  0  0  0  0  0
   -1.8198   -1.8689    1.7511 C   0  0  0  0  0  0  0  0  0  0  0  0
   -2.4527   -3.1137    1.7370 C   0  0  0  0  0  0  0  0  0  0  0  0
   -2.5385   -3.8405    0.5516 C   0  0  0  0  0  0  0  0  0  0  0  0
   -1.9938   -3.3241   -0.6218 C   0  0  0  0  0  0  0  0  0  0  0  0
   -1.3610   -2.0799   -0.6100 C   0  0  0  0  0  0  0  0  0  0  0  0
    1.3757    1.4152    0.0467 C   0  0  0  0  0  0  0  0  0  0  0  0
    2.7804    1.4724   -0.5969 C   0  0  0  0  0  0  0  0  0  0  0  0
    5.4566    1.4917   -0.5728 H   0  0  0  0  0  0  0  0  0  0  0  0
    5.6763   -0.2208   -0.2416 H   0  0  0  0  0  0  0  0  0  0  0  0
    4.9150    0.2896   -1.7633 H   0  0  0  0  0  0  0  0  0  0  0  0
    3.7148   -1.6046    0.3566 H   0  0  0  0  0  0  0  0  0  0  0  0
    3.0024   -1.1608   -1.1999 H   0  0  0  0  0  0  0  0  0  0  0  0
    1.2992   -1.9355    0.3465 H   0  0  0  0  0  0  0  0  0  0  0  0
    1.7727   -0.7653    1.5818 H   0  0  0  0  0  0  0  0  0  0  0  0
   -0.3786    0.2743    1.6690 H   0  0  0  0  0  0  0  0  0  0  0  0
   -2.1618    1.7347    2.0953 H   0  0  0  0  0  0  0  0  0  0  0  0
   -3.7734    3.4261    1.3085 H   0  0  0  0  0  0  0  0  0  0  0  0
   -4.1348    3.7762   -1.1197 H   0  0  0  0  0  0  0  0  0  0  0  0
   -2.8716    2.4195   -2.7686 H   0  0  0  0  0  0  0  0  0  0  0  0
   -1.2466    0.7275   -2.0006 H   0  0  0  0  0  0  0  0  0  0  0  0
   -1.7705   -1.3144    2.6852 H   0  0  0  0  0  0  0  0  0  0  0  0
   -2.8828   -3.5141    2.6512 H   0  0  0  0  0  0  0  0  0  0  0  0
   -3.0333   -4.8079    0.5411 H   0  0  0  0  0  0  0  0  0  0  0  0
   -2.0623   -3.8878   -1.5483 H   0  0  0  0  0  0  0  0  0  0  0  0
   -0.9363   -1.6912   -1.5327 H   0  0  0  0  0  0  0  0  0  0  0  0
    0.7710    2.1811   -0.4500 H   0  0  0  0  0  0  0  0  0  0  0  0
    1.4564    1.6995    1.1049 H   0  0  0  0  0  0  0  0  0  0  0  0
    3.1912    2.4760   -0.4328 H   0  0  0  0  0  0  0  0  0  0  0  0
    2.6825    1.3327   -1.6822 H   0  0  0  0  0  0  0  0  0  0  0  0
  1  2  1  0
  2  3  1  0
  3  4  1  0
  4  5  1  0
  5  6  1  0
  6  7  1  0
  7  8  2  0
  8  9  1  0
  9 10  2  0
 10 11  1  0
 11 12  2  0
  6 13  1  0
 13 14  2  0
 14 15  1  0
 15 16  2  0
 16 17  1  0
 17 18  2  0
  5 19  1  0
 19 20  1  0
 20  2  1  0
 12  7  1  0
 18 13  1  0
  1 21  1  0
  1 22  1  0
  1 23  1  0
  3 24  1  0
  3 25  1  0
  4 26  1  0
  4 27  1  0
  6 28  1  0
  8 29  1  0
  9 30  1  0
 10 31  1  0
 11 32  1  0
 12 33  1  0
 14 34  1  0
 15 35  1  0
 16 36  1  0
 17 37  1  0
 18 38  1  0
 19 39  1  0
 19 40  1  0
 20 41  1  0
 20 42  1  0
M  END
$$$$
OCNT-2328381
     RDKit          3D

 50 50  0  0  0  0  0  0  0  0999 V2000
    4.6639   -0.3675   -4.1020 C   0  0  0  0  0  0  0  0  0  0  0  0
    4.1846   -1.4382   -3.1401 C   0  0  0  0  0  0  0  0  0  0  0  0
    3.1033   -0.9367   -2.3412 O   0  0  0  0  0  0  0  0  0  0  0  0
    3.4601   -0.2844   -1.2070 C   0  0  0  0  0  0  0  0  0  0  0  0
    4.6050   -0.0786   -0.8326 O   0  0  0  0  0  0  0  0  0  0  0  0
    2.2645    0.1848   -0.4476 C   0  0  0  0  0  0  0  0  0  0  0  0
    1.0043   -0.0905   -0.8356 C   0  0  0  0  0  0  0  0  0  0  0  0
   -0.2212    0.3350   -0.0720 C   0  0  1  0  0  0  0  0  0  0  0  0
   -1.0679   -0.8153    0.0425 O   0  0  0  0  0  0  0  0  0  0  0  0
   -2.1194   -0.8903   -0.9222 C   0  0  0  0  0  0  0  0  0  0  0  0
   -3.3222   -0.0261   -0.5003 C   0  0  0  0  0  0  0  0  0  0  0  0
   -3.9701   -0.4054    0.8221 C   0  0  0  0  0  0  0  0  0  0  0  0
   -2.4732   -2.3677   -1.1745 C   0  0  0  0  0  0  0  0  0  0  0  0
   -2.3754   -3.2947    0.0307 C   0  0  0  0  0  0  0  0  0  0  0  0
    0.1077    0.8465    1.3576 C   0  0  2  0  0  0  0  0  0  0  0  0
   -1.0538    1.5117    1.9699 N   0  0  0  0  0  0  0  0  0  0  0  0
   -1.2445    1.4994    3.3336 C   0  0  0  0  0  0  0  0  0  0  0  0
   -2.4142    2.3258    3.7945 C   0  0  0  0  0  0  0  0  0  0  0  0
   -0.5234    0.8917    4.1192 O   0  0  0  0  0  0  0  0  0  0  0  0
    1.3453    1.7878    1.2973 C   0  0  1  0  0  0  0  0  0  0  0  0
    1.6379    2.4609    2.5753 N   0  0  0  0  0  0  0  0  0  0  0  0
    2.5669    0.9994    0.7851 C   0  0  0  0  0  0  0  0  0  0  0  0
    5.4488   -0.7571   -4.7563 H   0  0  0  0  0  0  0  0  0  0  0  0
    5.0579    0.4988   -3.5611 H   0  0  0  0  0  0  0  0  0  0  0  0
    3.8350   -0.0071   -4.7199 H   0  0  0  0  0  0  0  0  0  0  0  0
    5.0036   -1.8120   -2.5148 H   0  0  0  0  0  0  0  0  0  0  0  0
    3.7958   -2.2923   -3.7043 H   0  0  0  0  0  0  0  0  0  0  0  0
    0.8166   -0.6675   -1.7377 H   0  0  0  0  0  0  0  0  0  0  0  0
   -0.7219    1.1330   -0.6351 H   0  0  0  0  0  0  0  0  0  0  0  0
   -1.7589   -0.4928   -1.8812 H   0  0  0  0  0  0  0  0  0  0  0  0
   -4.0837   -0.0511   -1.2890 H   0  0  0  0  0  0  0  0  0  0  0  0
   -2.9965    1.0173   -0.4160 H   0  0  0  0  0  0  0  0  0  0  0  0
   -3.2318   -0.5109    1.6218 H   0  0  0  0  0  0  0  0  0  0  0  0
   -4.5299   -1.3404    0.7320 H   0  0  0  0  0  0  0  0  0  0  0  0
   -4.6835    0.3690    1.1232 H   0  0  0  0  0  0  0  0  0  0  0  0
   -3.4655   -2.4468   -1.6333 H   0  0  0  0  0  0  0  0  0  0  0  0
   -1.7636   -2.7538   -1.9186 H   0  0  0  0  0  0  0  0  0  0  0  0
   -3.0376   -2.9924    0.8438 H   0  0  0  0  0  0  0  0  0  0  0  0
   -1.3525   -3.3350    0.4185 H   0  0  0  0  0  0  0  0  0  0  0  0
   -2.6539   -4.3125   -0.2620 H   0  0  0  0  0  0  0  0  0  0  0  0
    0.3462   -0.0181    1.9937 H   0  0  0  0  0  0  0  0  0  0  0  0
   -1.4935    2.2573    1.4483 H   0  0  0  0  0  0  0  0  0  0  0  0
   -2.9511    1.7820    4.5767 H   0  0  0  0  0  0  0  0  0  0  0  0
   -3.1125    2.5215    2.9758 H   0  0  0  0  0  0  0  0  0  0  0  0
   -2.0480    3.2766    4.1901 H   0  0  0  0  0  0  0  0  0  0  0  0
    1.1296    2.5920    0.5805 H   0  0  0  0  0  0  0  0  0  0  0  0
    1.3474    1.8511    3.3500 H   0  0  0  0  0  0  0  0  0  0  0  0
    2.6394    2.6067    2.6914 H   0  0  0  0  0  0  0  0  0  0  0  0
    2.9339    0.3222    1.5677 H   0  0  0  0  0  0  0  0  0  0  0  0
    3.3720    1.7144    0.5712 H   0  0  0  0  0  0  0  0  0  0  0  0
  1  2  1  0
  2  3  1  0
  3  4  1  0
  4  5  2  0
  4  6  1  0
  6  7  2  0
  7  8  1  0
  8  9  1  0
  9 10  1  0
 10 11  1  0
 11 12  1  0
 10 13  1  0
 13 14  1  0
  8 15  1  0
 15 16  1  0
 16 17  1  0
 17 18  1  0
 17 19  2  0
 15 20  1  0
 20 21  1  0
 20 22  1  0
 22  6  1  0
  1 23  1  0
  1 24  1  0
  1 25  1  0
  2 26  1  0
  2 27  1  0
  7 28  1  0
  8 29  1  6
 10 30  1  0
 11 31  1  0
 11 32  1  0
 12 33  1  0
 12 34  1  0
 12 35  1  0
 13 36  1  0
 13 37  1  0
 14 38  1  0
 14 39  1  0
 14 40  1  0
 15 41  1  1
 16 42  1  0
 18 43  1  0
 18 44  1  0
 18 45  1  0
 20 46  1  6
 21 47  1  0
 21 48  1  0
 22 49  1  0
 22 50  1  0
M  END
$$$$
OCNT-2328382
     RDKit          3D

 38 39  0  0  0  0  0  0  0  0999 V2000
    0.2828   -2.6375   -1.1262 C   0  0  0  0  0  0  0  0  0  0  0  0
   -0.2075   -1.5054   -0.3403 N   0  0  0  0  0  0  0  0  0  0  0  0
   -1.1958   -0.7361   -1.1261 C   0  0  0  0  0  0  0  0  0  0  0  0
   -2.0461    0.2029   -0.2856 C   0  0  0  0  0  0  0  0  0  0  0  0
   -2.7218   -0.3472    0.8266 C   0  0  0  0  0  0  0  0  0  0  0  0
   -3.5762    0.4284    1.6047 C   0  0  0  0  0  0  0  0  0  0  0  0
   -4.4561   -0.3427    3.0889 Br  0  0  0  0  0  0  0  0  0  0  0  0
   -3.7982    1.7600    1.2858 C   0  0  0  0  0  0  0  0  0  0  0  0
   -3.1436    2.3142    0.1843 C   0  0  0  0  0  0  0  0  0  0  0  0
   -3.4982    4.1430   -0.2171 Br  0  0  0  0  0  0  0  0  0  0  0  0
   -2.2285    1.5674   -0.5941 C   0  0  0  0  0  0  0  0  0  0  0  0
   -1.6756    2.1326   -1.7618 N   0  0  0  0  0  0  0  0  0  0  0  0
    0.8556   -0.6654    0.2558 C   0  0  0  0  0  0  0  0  0  0  0  0
    1.7688    0.0719   -0.7515 C   0  0  0  0  0  0  0  0  0  0  0  0
    3.1085    0.5160   -0.1522 C   0  0  0  0  0  0  0  0  0  0  0  0
    3.0182    0.7575    1.3472 C   0  0  0  0  0  0  0  0  0  0  0  0
    2.5975   -0.5049    2.1006 C   0  0  0  0  0  0  0  0  0  0  0  0
    1.7035   -1.4418    1.2797 C   0  0  0  0  0  0  0  0  0  0  0  0
   -0.5535   -3.2830   -1.4198 H   0  0  0  0  0  0  0  0  0  0  0  0
    0.7983   -2.3287   -2.0409 H   0  0  0  0  0  0  0  0  0  0  0  0
    0.9542   -3.2763   -0.5451 H   0  0  0  0  0  0  0  0  0  0  0  0
   -0.7011   -0.2248   -1.9571 H   0  0  0  0  0  0  0  0  0  0  0  0
   -1.9087   -1.4291   -1.5953 H   0  0  0  0  0  0  0  0  0  0  0  0
   -2.5724   -1.3984    1.0707 H   0  0  0  0  0  0  0  0  0  0  0  0
   -4.4796    2.3606    1.8813 H   0  0  0  0  0  0  0  0  0  0  0  0
   -0.7420    1.8076   -1.9849 H   0  0  0  0  0  0  0  0  0  0  0  0
   -1.7240    3.1502   -1.7567 H   0  0  0  0  0  0  0  0  0  0  0  0
    0.3487    0.1096    0.8472 H   0  0  0  0  0  0  0  0  0  0  0  0
    1.9875   -0.5418   -1.6315 H   0  0  0  0  0  0  0  0  0  0  0  0
    1.2391    0.9567   -1.1243 H   0  0  0  0  0  0  0  0  0  0  0  0
    3.8632   -0.2572   -0.3446 H   0  0  0  0  0  0  0  0  0  0  0  0
    3.4555    1.4218   -0.6623 H   0  0  0  0  0  0  0  0  0  0  0  0
    2.2915    1.5569    1.5398 H   0  0  0  0  0  0  0  0  0  0  0  0
    3.9801    1.1127    1.7340 H   0  0  0  0  0  0  0  0  0  0  0  0
    2.0774   -0.2078    3.0194 H   0  0  0  0  0  0  0  0  0  0  0  0
    3.4873   -1.0607    2.4206 H   0  0  0  0  0  0  0  0  0  0  0  0
    1.0651   -2.0140    1.9639 H   0  0  0  0  0  0  0  0  0  0  0  0
    2.3462   -2.1674    0.7656 H   0  0  0  0  0  0  0  0  0  0  0  0
  1  2  1  0
  2  3  1  0
  3  4  1  0
  4  5  2  0
  5  6  1  0
  6  7  1  0
  6  8  2  0
  8  9  1  0
  9 10  1  0
  9 11  2  0
 11 12  1  0
  2 13  1  0
 13 14  1  0
 14 15  1  0
 15 16  1  0
 16 17  1  0
 17 18  1  0
 11  4  1  0
 18 13  1  0
  1 19  1  0
  1 20  1  0
  1 21  1  0
  3 22  1  0
  3 23  1  0
  5 24  1  0
  8 25  1  0
 12 26  1  0
 12 27  1  0
 13 28  1  0
 14 29  1  0
 14 30  1  0
 15 31  1  0
 15 32  1  0
 16 33  1  0
 16 34  1  0
 17 35  1  0
 17 36  1  0
 18 37  1  0
 18 38  1  0
M  END
$$$$
OCNT-2328385
     RDKit          3D

 62 62  0  0  0  0  0  0  0  0999 V2000
    9.3296    1.0210    0.4049 C   0  0  0  0  0  0  0  0  0  0  0  0
    8.2123    0.3521   -0.3801 C   0  0  0  0  0  0  0  0  0  0  0  0
    6.8359    0.7591    0.1471 C   0  0  0  0  0  0  0  0  0  0  0  0
    5.7162    0.0706   -0.6365 C   0  0  0  0  0  0  0  0  0  0  0  0
    4.3138    0.5369   -0.2335 C   0  0  0  0  0  0  0  0  0  0  0  0
    3.9427    0.1684    1.2069 C   0  0  0  0  0  0  0  0  0  0  0  0
    2.5003    0.5554    1.5663 C   0  0  0  0  0  0  0  0  0  0  0  0
    1.4423   -0.1207    0.7820 N   0  0  0  0  0  0  0  0  0  0  0  0
    1.3971   -1.5669    1.0823 C   0  0  0  0  0  0  0  0  0  0  0  0
    2.0133   -2.3850   -0.0468 C   0  0  0  0  0  0  0  0  0  0  0  0
    0.1401    0.5251    1.0587 C   0  0  0  0  0  0  0  0  0  0  0  0
   -0.7779    0.6043   -0.1746 C   0  0  0  0  0  0  0  0  0  0  0  0
   -1.4363   -0.6884   -0.6781 C   0  0  0  0  0  0  0  0  0  0  0  0
   -2.6636   -1.1826    0.1109 C   0  0  0  0  0  0  0  0  0  0  0  0
   -2.3116   -1.3230    1.4874 O   0  0  0  0  0  0  0  0  0  0  0  0
   -3.9605   -0.3930   -0.0060 C   0  0  0  0  0  0  0  0  0  0  0  0
   -5.0509   -0.7663    0.8036 C   0  0  0  0  0  0  0  0  0  0  0  0
   -6.2739   -0.0933    0.7316 C   0  0  0  0  0  0  0  0  0  0  0  0
   -6.4384    0.9560   -0.1691 C   0  0  0  0  0  0  0  0  0  0  0  0
   -7.6985    1.6149   -0.2287 N   0  0  0  0  0  0  0  0  0  0  0  0
   -8.5614    1.6571   -1.6730 S   0  0  0  0  0  0  0  0  0  0  0  0
   -8.7925   -0.0727   -2.0349 C   0  0  0  0  0  0  0  0  0  0  0  0
   -7.7518    2.2438   -2.7166 O   0  0  0  0  0  0  0  0  0  0  0  0
   -9.8580    2.2048   -1.3339 O   0  0  0  0  0  0  0  0  0  0  0  0
   -5.3752    1.3360   -0.9830 C   0  0  0  0  0  0  0  0  0  0  0  0
   -4.1504    0.6613   -0.9093 C   0  0  0  0  0  0  0  0  0  0  0  0
    9.3022    0.7230    1.4574 H   0  0  0  0  0  0  0  0  0  0  0  0
   10.3034    0.7334   -0.0033 H   0  0  0  0  0  0  0  0  0  0  0  0
    9.2476    2.1110    0.3540 H   0  0  0  0  0  0  0  0  0  0  0  0
    8.3023    0.6269   -1.4373 H   0  0  0  0  0  0  0  0  0  0  0  0
    8.3293   -0.7358   -0.3162 H   0  0  0  0  0  0  0  0  0  0  0  0
    6.7220    1.8475    0.0723 H   0  0  0  0  0  0  0  0  0  0  0  0
    6.7685    0.4973    1.2089 H   0  0  0  0  0  0  0  0  0  0  0  0
    5.8488    0.2759   -1.7061 H   0  0  0  0  0  0  0  0  0  0  0  0
    5.7915   -1.0167   -0.5131 H   0  0  0  0  0  0  0  0  0  0  0  0
    3.5970    0.0872   -0.9298 H   0  0  0  0  0  0  0  0  0  0  0  0
    4.2367    1.6231   -0.3653 H   0  0  0  0  0  0  0  0  0  0  0  0
    4.1151   -0.8974    1.3884 H   0  0  0  0  0  0  0  0  0  0  0  0
    4.6061    0.7035    1.8968 H   0  0  0  0  0  0  0  0  0  0  0  0
    2.4279    1.6399    1.4084 H   0  0  0  0  0  0  0  0  0  0  0  0
    2.3397    0.3889    2.6399 H   0  0  0  0  0  0  0  0  0  0  0  0
    1.8975   -1.8055    2.0288 H   0  0  0  0  0  0  0  0  0  0  0  0
    0.3680   -1.9194    1.2117 H   0  0  0  0  0  0  0  0  0  0  0  0
    1.5335   -2.1663   -1.0058 H   0  0  0  0  0  0  0  0  0  0  0  0
    3.0843   -2.2017   -0.1559 H   0  0  0  0  0  0  0  0  0  0  0  0
    1.8819   -3.4538    0.1539 H   0  0  0  0  0  0  0  0  0  0  0  0
   -0.3568    0.0875    1.9304 H   0  0  0  0  0  0  0  0  0  0  0  0
    0.3091    1.5747    1.3373 H   0  0  0  0  0  0  0  0  0  0  0  0
   -0.1892    1.0220   -1.0030 H   0  0  0  0  0  0  0  0  0  0  0  0
   -1.5537    1.3500    0.0345 H   0  0  0  0  0  0  0  0  0  0  0  0
   -0.6904   -1.4866   -0.6905 H   0  0  0  0  0  0  0  0  0  0  0  0
   -1.7196   -0.5500   -1.7289 H   0  0  0  0  0  0  0  0  0  0  0  0
   -2.8881   -2.1920   -0.2583 H   0  0  0  0  0  0  0  0  0  0  0  0
   -2.6372   -0.5324    1.9513 H   0  0  0  0  0  0  0  0  0  0  0  0
   -4.9473   -1.5970    1.5018 H   0  0  0  0  0  0  0  0  0  0  0  0
   -7.0876   -0.4077    1.3794 H   0  0  0  0  0  0  0  0  0  0  0  0
   -8.3103    1.5327    0.5822 H   0  0  0  0  0  0  0  0  0  0  0  0
   -9.2683   -0.5533   -1.1783 H   0  0  0  0  0  0  0  0  0  0  0  0
   -7.8277   -0.5296   -2.2603 H   0  0  0  0  0  0  0  0  0  0  0  0
   -9.4452   -0.1459   -2.9077 H   0  0  0  0  0  0  0  0  0  0  0  0
   -5.4768    2.1667   -1.6781 H   0  0  0  0  0  0  0  0  0  0  0  0
   -3.3566    0.9884   -1.5767 H   0  0  0  0  0  0  0  0  0  0  0  0
  1  2  1  0
  2  3  1  0
  3  4  1  0
  4  5  1  0
  5  6  1  0
  6  7  1  0
  7  8  1  0
  8  9  1  0
  9 10  1  0
  8 11  1  0
 11 12  1  0
 12 13  1  0
 13 14  1  0
 14 15  1  0
 14 16  1  0
 16 17  1  0
 17 18  2  0
 18 19  1  0
 19 20  1  0
 20 21  1  0
 21 22  1  0
 21 23  2  0
 21 24  2  0
 19 25  2  0
 25 26  1  0
 26 16  2  0
  1 27  1  0
  1 28  1  0
  1 29  1  0
  2 30  1  0
  2 31  1  0
  3 32  1  0
  3 33  1  0
  4 34  1  0
  4 35  1  0
  5 36  1  0
  5 37  1  0
  6 38  1  0
  6 39  1  0
  7 40  1  0
  7 41  1  0
  9 42  1  0
  9 43  1  0
 10 44  1  0
 10 45  1  0
 10 46  1  0
 11 47  1  0
 11 48  1  0
 12 49  1  0
 12 50  1  0
 13 51  1  0
 13 52  1  0
 14 53  1  0
 15 54  1  0
 17 55  1  0
 18 56  1  0
 20 57  1  0
 22 58  1  0
 22 59  1  0
 22 60  1  0
 25 61  1  0
 26 62  1  0
M  END
$$$$
OCNT-2328395
     RDKit          3D

 22 22  0  0  0  0  0  0  0  0999 V2000
   -2.7217   -0.3704   -1.3468 N   0  0  0  0  0  0  0  0  0  0  0  0
   -3.0164   -0.8533   -0.1894 C   0  0  0  0  0  0  0  0  0  0  0  0
   -4.2765   -1.2728    0.0900 N   0  0  0  0  0  0  0  0  0  0  0  0
   -2.1462   -1.0270    0.8593 N   0  0  0  0  0  0  0  0  0  0  0  0
   -0.9293   -0.4267    1.0376 N   0  0  0  0  0  0  0  0  0  0  0  0
   -0.1123   -0.5044    0.0347 C   0  0  0  0  0  0  0  0  0  0  0  0
    1.2201    0.1362    0.0540 C   0  0  0  0  0  0  0  0  0  0  0  0
    2.0085    0.1971    1.2149 C   0  0  0  0  0  0  0  0  0  0  0  0
    1.5709   -0.5401    2.7184 Cl  0  0  0  0  0  0  0  0  0  0  0  0
    3.2605    0.8283    1.1840 C   0  0  0  0  0  0  0  0  0  0  0  0
    3.7409    1.3928    0.0052 C   0  0  0  0  0  0  0  0  0  0  0  0
    2.9726    1.3220   -1.1529 C   0  0  0  0  0  0  0  0  0  0  0  0
    1.7196    0.6958   -1.1341 C   0  0  0  0  0  0  0  0  0  0  0  0
    0.8427    0.6845   -2.6263 Cl  0  0  0  0  0  0  0  0  0  0  0  0
   -3.5398   -0.3816   -1.9533 H   0  0  0  0  0  0  0  0  0  0  0  0
   -4.9716   -0.9925   -0.5899 H   0  0  0  0  0  0  0  0  0  0  0  0
   -4.5936   -1.0531    1.0262 H   0  0  0  0  0  0  0  0  0  0  0  0
   -2.5872   -1.3002    1.7297 H   0  0  0  0  0  0  0  0  0  0  0  0
   -0.3792   -1.0510   -0.8865 H   0  0  0  0  0  0  0  0  0  0  0  0
    3.8729    0.8734    2.0828 H   0  0  0  0  0  0  0  0  0  0  0  0
    4.7128    1.8805   -0.0113 H   0  0  0  0  0  0  0  0  0  0  0  0
    3.3524    1.7625   -2.0728 H   0  0  0  0  0  0  0  0  0  0  0  0
  1  2  2  3
  2  3  1  0
  2  4  1  0
  4  5  1  0
  5  6  2  3
  6  7  1  0
  7  8  2  0
  8  9  1  0
  8 10  1  0
 10 11  2  0
 11 12  1  0
 12 13  2  0
 13 14  1  0
 13  7  1  0
  1 15  1  0
  3 16  1  0
  3 17  1  0
  4 18  1  0
  6 19  1  0
 10 20  1  0
 11 21  1  0
 12 22  1  0
M  END
$$$$
OCNT-2328398
     RDKit          3D

 23 23  0  0  0  0  0  0  0  0999 V2000
    3.1883   -0.0873    1.0046 C   0  0  0  0  0  0  0  0  0  0  0  0
    1.8648    0.6559    0.9300 C   0  0  0  0  0  0  0  0  0  0  0  0
    1.0312   -0.0236   -0.0129 O   0  0  0  0  0  0  0  0  0  0  0  0
   -0.2961    0.3300   -0.0493 C   0  0  0  0  0  0  0  0  0  0  0  0
   -0.7731    1.5459    0.4678 C   0  0  0  0  0  0  0  0  0  0  0  0
   -2.1323    1.8651    0.4119 C   0  0  0  0  0  0  0  0  0  0  0  0
   -3.0348    0.9793   -0.1658 C   0  0  0  0  0  0  0  0  0  0  0  0
   -2.5750   -0.2244   -0.6980 C   0  0  0  0  0  0  0  0  0  0  0  0
   -1.2083   -0.5602   -0.6560 C   0  0  0  0  0  0  0  0  0  0  0  0
   -0.8393   -1.8755   -1.2694 C   0  0  0  0  0  0  0  0  0  0  0  0
    0.4828   -2.1846   -1.3981 N   0  0  0  0  0  0  0  0  0  0  0  0
   -1.6916   -2.6662   -1.6608 O   0  0  0  0  0  0  0  0  0  0  0  0
    3.8702    0.4021    1.7062 H   0  0  0  0  0  0  0  0  0  0  0  0
    3.6667   -0.1331    0.0199 H   0  0  0  0  0  0  0  0  0  0  0  0
    3.0301   -1.1215    1.3281 H   0  0  0  0  0  0  0  0  0  0  0  0
    2.0527    1.6803    0.5904 H   0  0  0  0  0  0  0  0  0  0  0  0
    1.4007    0.6602    1.9241 H   0  0  0  0  0  0  0  0  0  0  0  0
   -0.1058    2.2774    0.9149 H   0  0  0  0  0  0  0  0  0  0  0  0
   -2.4853    2.8085    0.8186 H   0  0  0  0  0  0  0  0  0  0  0  0
   -4.0934    1.2243   -0.2113 H   0  0  0  0  0  0  0  0  0  0  0  0
   -3.2915   -0.9071   -1.1545 H   0  0  0  0  0  0  0  0  0  0  0  0
    1.2039   -1.5661   -1.0469 H   0  0  0  0  0  0  0  0  0  0  0  0
    0.7349   -3.0791   -1.7934 H   0  0  0  0  0  0  0  0  0  0  0  0
  1  2  1  0
  2  3  1  0
  3  4  1  0
  4  5  2  0
  5  6  1  0
  6  7  2  0
  7  8  1  0
  8  9  2  0
  9 10  1  0
 10 11  1  0
 10 12  2  0
  9  4  1  0
  1 13  1  0
  1 14  1  0
  1 15  1  0
  2 16  1  0
  2 17  1  0
  5 18  1  0
  6 19  1  0
  7 20  1  0
  8 21  1  0
 11 22  1  0
 11 23  1  0
M  END
$$$$
OCNT-2328411
     RDKit          3D

 22 22  0  0  0  0  0  0  0  0999 V2000
   -2.1437   -0.8600    0.7281 C   0  0  0  0  0  0  0  0  0  0  0  0
   -1.7949    0.5658    0.3137 C   0  0  0  0  0  0  0  0  0  0  0  0
   -0.4141    0.7101   -0.3345 C   0  0  0  0  0  0  0  0  0  0  0  0
   -0.1701    2.1304   -0.8359 C   0  0  0  0  0  0  0  0  0  0  0  0
   -0.2743   -0.1936   -1.4405 O   0  0  0  0  0  0  0  0  0  0  0  0
    0.8355   -0.9643   -1.2469 C   0  0  0  0  0  0  0  0  0  0  0  0
    1.1858   -1.8333   -2.0292 O   0  0  0  0  0  0  0  0  0  0  0  0
    1.4392   -0.6364   -0.0845 N   0  0  0  0  0  0  0  0  0  0  0  0
    2.5835   -1.3240    0.4559 C   0  0  0  0  0  0  0  0  0  0  0  0
    0.7100    0.2897    0.5847 C   0  0  0  0  0  0  0  0  0  0  0  0
    0.9113    0.7110    1.7134 O   0  0  0  0  0  0  0  0  0  0  0  0
   -1.4395   -1.2443    1.4722 H   0  0  0  0  0  0  0  0  0  0  0  0
   -2.1436   -1.5370   -0.1316 H   0  0  0  0  0  0  0  0  0  0  0  0
   -3.1443   -0.8853    1.1719 H   0  0  0  0  0  0  0  0  0  0  0  0
   -1.8670    1.2169    1.1933 H   0  0  0  0  0  0  0  0  0  0  0  0
   -2.5620    0.8961   -0.3981 H   0  0  0  0  0  0  0  0  0  0  0  0
   -0.2326    2.8599   -0.0216 H   0  0  0  0  0  0  0  0  0  0  0  0
    0.8209    2.2231   -1.2956 H   0  0  0  0  0  0  0  0  0  0  0  0
   -0.8994    2.4015   -1.6073 H   0  0  0  0  0  0  0  0  0  0  0  0
    3.2542   -1.6297   -0.3519 H   0  0  0  0  0  0  0  0  0  0  0  0
    3.1131   -0.6797    1.1629 H   0  0  0  0  0  0  0  0  0  0  0  0
    2.2321   -2.2170    0.9815 H   0  0  0  0  0  0  0  0  0  0  0  0
  1  2  1  0
  2  3  1  0
  3  4  1  0
  3  5  1  0
  5  6  1  0
  6  7  2  0
  6  8  1  0
  8  9  1  0
  8 10  1  0
 10 11  2  0
 10  3  1  0
  1 12  1  0
  1 13  1  0
  1 14  1  0
  2 15  1  0
  2 16  1  0
  4 17  1  0
  4 18  1  0
  4 19  1  0
  9 20  1  0
  9 21  1  0
  9 22  1  0
M  END
$$$$
OCNT-2328418
     RDKit          3D

 48 49  0  0  0  0  0  0  0  0999 V2000
   -0.8876    1.0795    2.0062 O   0  0  0  0  0  0  0  0  0  0  0  0
   -0.3466    0.1526    1.4082 C   0  0  0  0  0  0  0  0  0  0  0  0
   -0.8753   -1.1153    1.3765 N   0  0  0  0  0  0  0  0  0  0  0  0
   -2.1547   -1.4611    1.9756 C   0  0  0  0  0  0  0  0  0  0  0  0
   -3.3864   -1.0810    1.1105 C   0  0  0  0  0  0  0  0  0  0  0  0
   -3.3318   -1.7629   -0.2683 C   0  0  0  0  0  0  0  0  0  0  0  0
   -4.5470   -1.4045   -1.1214 C   0  0  0  0  0  0  0  0  0  0  0  0
   -4.9396    0.0665   -0.9899 C   0  0  0  0  0  0  0  0  0  0  0  0
   -3.8632    0.8916   -0.2928 C   0  0  0  0  0  0  0  0  0  0  0  0
   -3.5870    0.3765    1.0401 N   0  0  0  0  0  0  0  0  0  0  0  0
    0.9401    0.3788    0.6773 C   0  0  0  0  0  0  0  0  0  0  0  0
    1.4093   -0.4314   -0.3757 C   0  0  0  0  0  0  0  0  0  0  0  0
    0.6389   -1.5024   -0.7442 O   0  0  0  0  0  0  0  0  0  0  0  0
    0.8747   -2.1483   -2.0063 C   0  0  0  0  0  0  0  0  0  0  0  0
    1.7332   -3.4005   -1.8740 C   0  0  0  0  0  0  0  0  0  0  0  0
    2.9982   -3.1076   -1.5008 F   0  0  0  0  0  0  0  0  0  0  0  0
    1.2194   -4.2613   -0.9675 F   0  0  0  0  0  0  0  0  0  0  0  0
    1.8027   -4.0522   -3.0596 F   0  0  0  0  0  0  0  0  0  0  0  0
    2.6362   -0.1133   -0.9704 C   0  0  0  0  0  0  0  0  0  0  0  0
    3.3816    0.9963   -0.5457 C   0  0  0  0  0  0  0  0  0  0  0  0
    2.9144    1.8036    0.4850 C   0  0  0  0  0  0  0  0  0  0  0  0
    3.5404    2.9064    0.9923 O   0  0  0  0  0  0  0  0  0  0  0  0
    4.8703    3.1760    0.5362 C   0  0  0  0  0  0  0  0  0  0  0  0
    5.4625    4.3559    1.2888 C   0  0  0  0  0  0  0  0  0  0  0  0
    4.7545    5.4885    1.0848 F   0  0  0  0  0  0  0  0  0  0  0  0
    6.7290    4.5877    0.8623 F   0  0  0  0  0  0  0  0  0  0  0  0
    5.5210    4.1290    2.6176 F   0  0  0  0  0  0  0  0  0  0  0  0
    1.6932    1.4962    1.0836 C   0  0  0  0  0  0  0  0  0  0  0  0
   -0.4301   -1.7978    0.7741 H   0  0  0  0  0  0  0  0  0  0  0  0
   -2.2225   -0.9777    2.9567 H   0  0  0  0  0  0  0  0  0  0  0  0
   -2.1398   -2.5431    2.1416 H   0  0  0  0  0  0  0  0  0  0  0  0
   -4.2668   -1.4772    1.6350 H   0  0  0  0  0  0  0  0  0  0  0  0
   -3.2776   -2.8527   -0.1538 H   0  0  0  0  0  0  0  0  0  0  0  0
   -2.4230   -1.4623   -0.8069 H   0  0  0  0  0  0  0  0  0  0  0  0
   -4.3296   -1.6385   -2.1710 H   0  0  0  0  0  0  0  0  0  0  0  0
   -5.4014   -2.0294   -0.8366 H   0  0  0  0  0  0  0  0  0  0  0  0
   -5.1510    0.4850   -1.9806 H   0  0  0  0  0  0  0  0  0  0  0  0
   -5.8760    0.1367   -0.4227 H   0  0  0  0  0  0  0  0  0  0  0  0
   -2.9449    0.9078   -0.8916 H   0  0  0  0  0  0  0  0  0  0  0  0
   -4.1987    1.9302   -0.2109 H   0  0  0  0  0  0  0  0  0  0  0  0
   -2.7695    0.8629    1.4360 H   0  0  0  0  0  0  0  0  0  0  0  0
    1.2662   -1.4599   -2.7641 H   0  0  0  0  0  0  0  0  0  0  0  0
   -0.1130   -2.4573   -2.3715 H   0  0  0  0  0  0  0  0  0  0  0  0
    3.0659   -0.7130   -1.7663 H   0  0  0  0  0  0  0  0  0  0  0  0
    4.3240    1.1947   -1.0469 H   0  0  0  0  0  0  0  0  0  0  0  0
    5.5090    2.3008    0.7034 H   0  0  0  0  0  0  0  0  0  0  0  0
    4.8503    3.4176   -0.5321 H   0  0  0  0  0  0  0  0  0  0  0  0
    1.3280    2.1301    1.8924 H   0  0  0  0  0  0  0  0  0  0  0  0
  1  2  2  0
  2  3  1  0
  3  4  1  0
  4  5  1  0
  5  6  1  0
  6  7  1  0
  7  8  1  0
  8  9  1  0
  9 10  1  0
  2 11  1  0
 11 12  2  0
 12 13  1  0
 13 14  1  0
 14 15  1  0
 15 16  1  0
 15 17  1  0
 15 18  1  0
 12 19  1  0
 19 20  2  0
 20 21  1  0
 21 22  1  0
 22 23  1  0
 23 24  1  0
 24 25  1  0
 24 26  1  0
 24 27  1  0
 21 28  2  0
 10  5  1  0
 28 11  1  0
  3 29  1  0
  4 30  1  0
  4 31  1  0
  5 32  1  0
  6 33  1  0
  6 34  1  0
  7 35  1  0
  7 36  1  0
  8 37  1  0
  8 38  1  0
  9 39  1  0
  9 40  1  0
 10 41  1  0
 14 42  1  0
 14 43  1  0
 19 44  1  0
 20 45  1  0
 23 46  1  0
 23 47  1  0
 28 48  1  0
M  END
$$$$
OCNT-2328420
     RDKit          3D

 28 29  0  0  0  0  0  0  0  0999 V2000
   -3.3793    0.7316   -1.0625 C   0  0  0  0  0  0  0  0  0  0  0  0
   -2.3029    0.0207   -0.2851 C   0  0  0  0  0  0  0  0  0  0  0  0
   -2.6267   -0.4807    0.9863 C   0  0  0  0  0  0  0  0  0  0  0  0
   -1.6811   -1.1555    1.7495 C   0  0  0  0  0  0  0  0  0  0  0  0
   -0.3980   -1.3422    1.2496 C   0  0  0  0  0  0  0  0  0  0  0  0
   -0.0310   -0.8485   -0.0178 C   0  0  0  0  0  0  0  0  0  0  0  0
    1.3832   -1.1180   -0.4982 C   0  0  0  0  0  0  0  0  0  0  0  0
    2.2821   -0.2129    0.2755 C   0  0  0  0  0  0  0  0  0  0  0  0
    2.4424    1.1563    0.1910 C   0  0  0  0  0  0  0  0  0  0  0  0
    3.3915    1.4699    1.1229 N   0  0  0  0  0  0  0  0  0  0  0  0
    3.7869    0.3066    1.7164 C   0  0  0  0  0  0  0  0  0  0  0  0
    3.1447   -0.7266    1.2241 N   0  0  0  0  0  0  0  0  0  0  0  0
   -0.9902   -0.1447   -0.7924 C   0  0  0  0  0  0  0  0  0  0  0  0
   -0.6224    0.3753   -2.1608 C   0  0  0  0  0  0  0  0  0  0  0  0
   -3.1233    1.7888   -1.1840 H   0  0  0  0  0  0  0  0  0  0  0  0
   -3.5125    0.2660   -2.0443 H   0  0  0  0  0  0  0  0  0  0  0  0
   -4.3463    0.6832   -0.5501 H   0  0  0  0  0  0  0  0  0  0  0  0
   -3.6280   -0.3499    1.3909 H   0  0  0  0  0  0  0  0  0  0  0  0
   -1.9429   -1.5392    2.7315 H   0  0  0  0  0  0  0  0  0  0  0  0
    0.3348   -1.8737    1.8562 H   0  0  0  0  0  0  0  0  0  0  0  0
    1.6377   -2.1690   -0.3145 H   0  0  0  0  0  0  0  0  0  0  0  0
    1.5067   -0.9565   -1.5725 H   0  0  0  0  0  0  0  0  0  0  0  0
    1.9638    1.9078   -0.4201 H   0  0  0  0  0  0  0  0  0  0  0  0
    3.7404    2.3932    1.3387 H   0  0  0  0  0  0  0  0  0  0  0  0
    4.5388    0.2749    2.4933 H   0  0  0  0  0  0  0  0  0  0  0  0
    0.3282    0.9161   -2.1282 H   0  0  0  0  0  0  0  0  0  0  0  0
   -0.5442   -0.4579   -2.8663 H   0  0  0  0  0  0  0  0  0  0  0  0
   -1.3525    1.0848   -2.5580 H   0  0  0  0  0  0  0  0  0  0  0  0
  1  2  1  0
  2  3  1  0
  3  4  2  0
  4  5  1  0
  5  6  2  0
  6  7  1  0
  7  8  1  0
  8  9  2  0
  9 10  1  0
 10 11  1  0
 11 12  2  0
  6 13  1  0
 13 14  1  0
 13  2  2  0
 12  8  1  0
  1 15  1  0
  1 16  1  0
  1 17  1  0
  3 18  1  0
  4 19  1  0
  5 20  1  0
  7 21  1  0
  7 22  1  0
  9 23  1  0
 10 24  1  0
 11 25  1  0
 14 26  1  0
 14 27  1  0
 14 28  1  0
M  END
$$$$
OCNT-2328421
     RDKit          3D

 57 61  0  0  0  0  0  0  0  0999 V2000
    6.2658    4.2439    0.7264 C   0  0  0  0  0  0  0  0  0  0  0  0
    6.3438    2.9101    0.6332 C   0  0  0  0  0  0  0  0  0  0  0  0
    5.1688    2.0643    0.9706 C   0  0  0  0  0  0  0  0  0  0  0  0
    4.3077    2.4819    1.7409 O   0  0  0  0  0  0  0  0  0  0  0  0
    5.1226    0.8001    0.3974 N   0  0  0  0  0  0  0  0  0  0  0  0
    5.7575    0.4439   -0.8729 C   0  0  0  0  0  0  0  0  0  0  0  0
    4.7342    0.5315   -2.0081 C   0  0  0  0  0  0  0  0  0  0  0  0
    3.4946   -0.3214   -1.7139 C   0  0  0  0  0  0  0  0  0  0  0  0
    2.8994    0.0112   -0.3318 C   0  0  1  0  0  0  0  0  0  0  0  0
    1.7370   -0.8111   -0.0303 N   0  0  0  0  0  0  0  0  0  0  0  0
    0.5057   -0.2619   -0.1120 N   0  0  0  0  0  0  0  0  0  0  0  0
   -0.3274   -1.2525    0.2518 C   0  0  0  0  0  0  0  0  0  0  0  0
   -1.7643   -1.0086    0.3395 C   0  0  0  0  0  0  0  0  0  0  0  0
   -2.4854   -1.3757    1.4830 C   0  0  0  0  0  0  0  0  0  0  0  0
   -3.8636   -1.1547    1.5486 C   0  0  0  0  0  0  0  0  0  0  0  0
   -4.5250   -0.5461    0.4819 C   0  0  0  0  0  0  0  0  0  0  0  0
   -5.8889   -0.4038    0.6027 O   0  0  0  0  0  0  0  0  0  0  0  0
   -6.4494    0.7688    0.1502 C   0  0  0  0  0  0  0  0  0  0  0  0
   -5.9781    2.0246    0.5411 C   0  0  0  0  0  0  0  0  0  0  0  0
   -6.6150    3.1771    0.0780 C   0  0  0  0  0  0  0  0  0  0  0  0
   -7.7274    3.0727   -0.7585 C   0  0  0  0  0  0  0  0  0  0  0  0
   -8.2103    1.8162   -1.1282 C   0  0  0  0  0  0  0  0  0  0  0  0
   -7.5755    0.6625   -0.6672 C   0  0  0  0  0  0  0  0  0  0  0  0
   -3.8163   -0.1801   -0.6645 C   0  0  0  0  0  0  0  0  0  0  0  0
   -2.4376   -0.3997   -0.7285 C   0  0  0  0  0  0  0  0  0  0  0  0
    0.3817   -2.4680    0.4816 C   0  0  0  0  0  0  0  0  0  0  0  0
    0.1047   -3.8010    0.8112 C   0  0  0  0  0  0  0  0  0  0  0  0
   -1.1655   -4.3235    1.0039 N   0  0  0  0  0  0  0  0  0  0  0  0
    1.1338   -4.6657    0.9317 N   0  0  0  0  0  0  0  0  0  0  0  0
    2.3842   -4.2134    0.7226 C   0  0  0  0  0  0  0  0  0  0  0  0
    2.7674   -2.9712    0.3878 N   0  0  0  0  0  0  0  0  0  0  0  0
    1.7136   -2.1420    0.2872 C   0  0  0  0  0  0  0  0  0  0  0  0
    3.9877   -0.0618    0.7514 C   0  0  0  0  0  0  0  0  0  0  0  0
    7.1266    4.8688    0.5163 H   0  0  0  0  0  0  0  0  0  0  0  0
    5.3447    4.7381    1.0263 H   0  0  0  0  0  0  0  0  0  0  0  0
    7.2749    2.4271    0.3715 H   0  0  0  0  0  0  0  0  0  0  0  0
    6.6064    1.0887   -1.1060 H   0  0  0  0  0  0  0  0  0  0  0  0
    6.1376   -0.5796   -0.7801 H   0  0  0  0  0  0  0  0  0  0  0  0
    4.4253    1.5754   -2.1406 H   0  0  0  0  0  0  0  0  0  0  0  0
    5.1927    0.2058   -2.9482 H   0  0  0  0  0  0  0  0  0  0  0  0
    2.7439   -0.1607   -2.4970 H   0  0  0  0  0  0  0  0  0  0  0  0
    3.7735   -1.3818   -1.7625 H   0  0  0  0  0  0  0  0  0  0  0  0
    2.5365    1.0487   -0.3693 H   0  0  0  0  0  0  0  0  0  0  0  0
   -1.9823   -1.8338    2.3326 H   0  0  0  0  0  0  0  0  0  0  0  0
   -4.4190   -1.4499    2.4350 H   0  0  0  0  0  0  0  0  0  0  0  0
   -5.1241    2.1126    1.2072 H   0  0  0  0  0  0  0  0  0  0  0  0
   -6.2483    4.1567    0.3757 H   0  0  0  0  0  0  0  0  0  0  0  0
   -8.2237    3.9719   -1.1157 H   0  0  0  0  0  0  0  0  0  0  0  0
   -9.0837    1.7365   -1.7700 H   0  0  0  0  0  0  0  0  0  0  0  0
   -7.9539   -0.3173   -0.9462 H   0  0  0  0  0  0  0  0  0  0  0  0
   -4.3236    0.2722   -1.5119 H   0  0  0  0  0  0  0  0  0  0  0  0
   -1.8886   -0.0974   -1.6181 H   0  0  0  0  0  0  0  0  0  0  0  0
   -1.8992   -3.8873    0.4605 H   0  0  0  0  0  0  0  0  0  0  0  0
   -1.1444   -5.3375    0.9821 H   0  0  0  0  0  0  0  0  0  0  0  0
    3.1781   -4.9460    0.8349 H   0  0  0  0  0  0  0  0  0  0  0  0
    4.3919   -1.0741    0.8545 H   0  0  0  0  0  0  0  0  0  0  0  0
    3.5780    0.2161    1.7292 H   0  0  0  0  0  0  0  0  0  0  0  0
  1  2  2  0
  2  3  1  0
  3  4  2  0
  3  5  1  0
  5  6  1  0
  6  7  1  0
  7  8  1  0
  8  9  1  0
  9 10  1  0
 10 11  1  0
 11 12  2  0
 12 13  1  0
 13 14  1  0
 14 15  2  0
 15 16  1  0
 16 17  1  0
 17 18  1  0
 18 19  2  0
 19 20  1  0
 20 21  2  0
 21 22  1  0
 22 23  2  0
 16 24  2  0
 24 25  1  0
 12 26  1  0
 26 27  2  0
 27 28  1  0
 27 29  1  0
 29 30  2  0
 30 31  1  0
 31 32  2  0
  9 33  1  0
 33  5  1  0
 32 10  1  0
 25 13  2  0
 32 26  1  0
 23 18  1  0
  1 34  1  0
  1 35  1  0
  2 36  1  0
  6 37  1  0
  6 38  1  0
  7 39  1  0
  7 40  1  0
  8 41  1  0
  8 42  1  0
  9 43  1  6
 14 44  1  0
 15 45  1  0
 19 46  1  0
 20 47  1  0
 21 48  1  0
 22 49  1  0
 23 50  1  0
 24 51  1  0
 25 52  1  0
 28 53  1  0
 28 54  1  0
 30 55  1  0
 33 56  1  0
 33 57  1  0
M  END
$$$$
OCNT-2328426
     RDKit          3D

 50 52  0  0  0  0  0  0  0  0999 V2000
   -1.6057   -0.5486   -1.8344 O   0  0  0  0  0  0  0  0  0  0  0  0
   -1.6563   -0.1995   -0.4358 C   0  0  0  0  0  0  0  0  0  0  0  0
   -0.1791   -0.1955    0.0530 C   0  0  0  0  0  0  0  0  0  0  0  0
    0.6239   -1.4551   -0.3238 C   0  0  0  0  0  0  0  0  0  0  0  0
    1.9981   -1.5113    0.3627 C   0  0  0  0  0  0  0  0  0  0  0  0
    2.8613   -0.3583    0.0819 N   0  0  0  0  0  0  0  0  0  0  0  0
    4.0593   -0.3625    0.9223 C   0  0  0  0  0  0  0  0  0  0  0  0
    4.7804    0.9873    0.8276 C   0  0  0  0  0  0  0  0  0  0  0  0
    4.7629    1.5848   -0.5807 C   0  0  0  0  0  0  0  0  0  0  0  0
    4.5099    0.5084   -1.6248 C   0  0  0  0  0  0  0  0  0  0  0  0
    3.1997   -0.2431   -1.3481 C   0  0  0  0  0  0  0  0  0  0  0  0
   -2.2094    1.2313   -0.2948 C   0  0  0  0  0  0  0  0  0  0  0  0
   -2.4859    1.7702    0.9767 C   0  0  0  0  0  0  0  0  0  0  0  0
   -2.9783    3.0699    1.1177 C   0  0  0  0  0  0  0  0  0  0  0  0
   -3.1996    3.8580   -0.0082 C   0  0  0  0  0  0  0  0  0  0  0  0
   -2.9275    3.3482   -1.2747 C   0  0  0  0  0  0  0  0  0  0  0  0
   -2.4357    2.0481   -1.4167 C   0  0  0  0  0  0  0  0  0  0  0  0
   -2.5906   -1.2162    0.2471 C   0  0  0  0  0  0  0  0  0  0  0  0
   -2.2696   -1.8800    1.4430 C   0  0  0  0  0  0  0  0  0  0  0  0
   -3.1611   -2.7864    2.0258 C   0  0  0  0  0  0  0  0  0  0  0  0
   -4.3946   -3.0389    1.4320 C   0  0  0  0  0  0  0  0  0  0  0  0
   -4.7438   -2.3805    0.2577 C   0  0  0  0  0  0  0  0  0  0  0  0
   -3.8539   -1.4763   -0.3250 C   0  0  0  0  0  0  0  0  0  0  0  0
   -1.7114   -1.5130   -1.8872 H   0  0  0  0  0  0  0  0  0  0  0  0
    0.3337    0.6598   -0.4097 H   0  0  0  0  0  0  0  0  0  0  0  0
   -0.1257   -0.0230    1.1352 H   0  0  0  0  0  0  0  0  0  0  0  0
    0.7486   -1.5070   -1.4117 H   0  0  0  0  0  0  0  0  0  0  0  0
    0.0726   -2.3573   -0.0379 H   0  0  0  0  0  0  0  0  0  0  0  0
    2.5018   -2.4449    0.0801 H   0  0  0  0  0  0  0  0  0  0  0  0
    1.8169   -1.5708    1.4440 H   0  0  0  0  0  0  0  0  0  0  0  0
    3.7991   -0.5279    1.9752 H   0  0  0  0  0  0  0  0  0  0  0  0
    4.7349   -1.1781    0.6326 H   0  0  0  0  0  0  0  0  0  0  0  0
    4.3254    1.7064    1.5201 H   0  0  0  0  0  0  0  0  0  0  0  0
    5.8177    0.8531    1.1574 H   0  0  0  0  0  0  0  0  0  0  0  0
    5.7072    2.1031   -0.7809 H   0  0  0  0  0  0  0  0  0  0  0  0
    3.9704    2.3412   -0.6440 H   0  0  0  0  0  0  0  0  0  0  0  0
    5.3477   -0.2007   -1.6188 H   0  0  0  0  0  0  0  0  0  0  0  0
    4.4775    0.9525   -2.6260 H   0  0  0  0  0  0  0  0  0  0  0  0
    3.2805   -1.2305   -1.8209 H   0  0  0  0  0  0  0  0  0  0  0  0
    2.3826    0.2868   -1.8517 H   0  0  0  0  0  0  0  0  0  0  0  0
   -2.3224    1.1763    1.8733 H   0  0  0  0  0  0  0  0  0  0  0  0
   -3.1886    3.4653    2.1078 H   0  0  0  0  0  0  0  0  0  0  0  0
   -3.5818    4.8691    0.1009 H   0  0  0  0  0  0  0  0  0  0  0  0
   -3.0949    3.9613   -2.1561 H   0  0  0  0  0  0  0  0  0  0  0  0
   -2.2249    1.6767   -2.4176 H   0  0  0  0  0  0  0  0  0  0  0  0
   -1.3261   -1.7034    1.9518 H   0  0  0  0  0  0  0  0  0  0  0  0
   -2.8926   -3.2912    2.9506 H   0  0  0  0  0  0  0  0  0  0  0  0
   -5.0871   -3.7401    1.8899 H   0  0  0  0  0  0  0  0  0  0  0  0
   -5.7115   -2.5617   -0.2026 H   0  0  0  0  0  0  0  0  0  0  0  0
   -4.1543   -0.9560   -1.2344 H   0  0  0  0  0  0  0  0  0  0  0  0
  1  2  1  0
  2  3  1  0
  3  4  1  0
  4  5  1  0
  5  6  1  0
  6  7  1  0
  7  8  1  0
  8  9  1  0
  9 10  1  0
 10 11  1  0
  2 12  1  0
 12 13  2  0
 13 14  1  0
 14 15  2  0
 15 16  1  0
 16 17  2  0
  2 18  1  0
 18 19  2  0
 19 20  1  0
 20 21  2  0
 21 22  1  0
 22 23  2  0
 11  6  1  0
 17 12  1  0
 23 18  1  0
  1 24  1  0
  3 25  1  0
  3 26  1  0
  4 27  1  0
  4 28  1  0
  5 29  1  0
  5 30  1  0
  7 31  1  0
  7 32  1  0
  8 33  1  0
  8 34  1  0
  9 35  1  0
  9 36  1  0
 10 37  1  0
 10 38  1  0
 11 39  1  0
 11 40  1  0
 13 41  1  0
 14 42  1  0
 15 43  1  0
 16 44  1  0
 17 45  1  0
 19 46  1  0
 20 47  1  0
 21 48  1  0
 22 49  1  0
 23 50  1  0
M  END
$$$$
OCNT-2328429
     RDKit          3D

 42 44  0  0  0  0  0  0  0  0999 V2000
    4.8366   -0.1441    0.2731 C   0  0  0  0  0  0  0  0  0  0  0  0
    3.6529   -0.4710   -0.5254 N   0  0  0  0  0  0  0  0  0  0  0  0
    4.0631   -1.0585   -1.8019 C   0  0  0  0  0  0  0  0  0  0  0  0
    2.8226    0.7360   -0.7141 C   0  0  0  0  0  0  0  0  0  0  0  0
    1.4374    0.4888   -1.3432 C   0  0  0  0  0  0  0  0  0  0  0  0
    0.5861   -0.4583   -0.5409 C   0  0  0  0  0  0  0  0  0  0  0  0
   -0.5447   -0.1667    0.1175 C   0  0  0  0  0  0  0  0  0  0  0  0
   -1.3693   -1.2803    0.8396 C   0  0  0  0  0  0  0  0  0  0  0  0
   -2.6551   -1.5974    0.3750 C   0  0  0  0  0  0  0  0  0  0  0  0
   -3.4234   -2.5360    1.0710 C   0  0  0  0  0  0  0  0  0  0  0  0
   -2.9147   -3.1493    2.2183 C   0  0  0  0  0  0  0  0  0  0  0  0
   -1.6371   -2.8282    2.6773 C   0  0  0  0  0  0  0  0  0  0  0  0
   -0.8652   -1.8894    1.9929 C   0  0  0  0  0  0  0  0  0  0  0  0
   -3.2479   -0.9700   -0.9359 C   0  0  0  0  0  0  0  0  0  0  0  0
   -3.1610    0.3222   -1.2856 C   0  0  0  0  0  0  0  0  0  0  0  0
   -2.4564    1.4413   -0.4423 C   0  0  0  0  0  0  0  0  0  0  0  0
   -1.2094    1.2423    0.1688 C   0  0  0  0  0  0  0  0  0  0  0  0
   -0.6173    2.2695    0.9110 C   0  0  0  0  0  0  0  0  0  0  0  0
   -1.2519    3.5069    1.0180 C   0  0  0  0  0  0  0  0  0  0  0  0
   -2.4849    3.7139    0.3999 C   0  0  0  0  0  0  0  0  0  0  0  0
   -3.0877    2.6838   -0.3257 C   0  0  0  0  0  0  0  0  0  0  0  0
    4.5445    0.2416    1.2563 H   0  0  0  0  0  0  0  0  0  0  0  0
    5.4371   -1.0419    0.4582 H   0  0  0  0  0  0  0  0  0  0  0  0
    5.4726    0.6023   -0.2165 H   0  0  0  0  0  0  0  0  0  0  0  0
    4.6172   -0.3475   -2.4252 H   0  0  0  0  0  0  0  0  0  0  0  0
    3.1998   -1.4199   -2.3689 H   0  0  0  0  0  0  0  0  0  0  0  0
    4.7004   -1.9345   -1.6341 H   0  0  0  0  0  0  0  0  0  0  0  0
    2.6541    1.2060    0.2644 H   0  0  0  0  0  0  0  0  0  0  0  0
    3.3603    1.4738   -1.3245 H   0  0  0  0  0  0  0  0  0  0  0  0
    0.9415    1.4579   -1.4672 H   0  0  0  0  0  0  0  0  0  0  0  0
    1.5427    0.0874   -2.3576 H   0  0  0  0  0  0  0  0  0  0  0  0
    0.9432   -1.4871   -0.5258 H   0  0  0  0  0  0  0  0  0  0  0  0
   -4.4200   -2.7957    0.7242 H   0  0  0  0  0  0  0  0  0  0  0  0
   -3.5168   -3.8775    2.7554 H   0  0  0  0  0  0  0  0  0  0  0  0
   -1.2452   -3.3026    3.5730 H   0  0  0  0  0  0  0  0  0  0  0  0
    0.1227   -1.6275    2.3626 H   0  0  0  0  0  0  0  0  0  0  0  0
   -3.7413   -1.6498   -1.6268 H   0  0  0  0  0  0  0  0  0  0  0  0
   -3.5898    0.6194   -2.2398 H   0  0  0  0  0  0  0  0  0  0  0  0
    0.3307    2.1028    1.4151 H   0  0  0  0  0  0  0  0  0  0  0  0
   -0.7910    4.3053    1.5935 H   0  0  0  0  0  0  0  0  0  0  0  0
   -2.9823    4.6762    0.4894 H   0  0  0  0  0  0  0  0  0  0  0  0
   -4.0528    2.8556   -0.7950 H   0  0  0  0  0  0  0  0  0  0  0  0
  1  2  1  0
  2  3  1  0
  2  4  1  0
  4  5  1  0
  5  6  1  0
  6  7  2  3
  7  8  1  0
  8  9  1  0
  9 10  2  0
 10 11  1  0
 11 12  2  0
 12 13  1  0
  9 14  1  0
 14 15  2  0
 15 16  1  0
 16 17  1  0
 17 18  2  0
 18 19  1  0
 19 20  2  0
 20 21  1  0
 17  7  1  0
 13  8  2  0
 21 16  2  0
  1 22  1  0
  1 23  1  0
  1 24  1  0
  3 25  1  0
  3 26  1  0
  3 27  1  0
  4 28  1  0
  4 29  1  0
  5 30  1  0
  5 31  1  0
  6 32  1  0
 10 33  1  0
 11 34  1  0
 12 35  1  0
 13 36  1  0
 14 37  1  0
 15 38  1  0
 18 39  1  0
 19 40  1  0
 20 41  1  0
 21 42  1  0
M  END
$$$$
OCNT-2328441
     RDKit          3D

 42 43  0  0  0  0  0  0  0  0999 V2000
    1.1970    2.2108    1.6671 C   0  0  0  0  0  0  0  0  0  0  0  0
    0.3708    1.3685    0.7286 C   0  0  0  0  0  0  0  0  0  0  0  0
   -0.9513    1.0580    1.1042 C   0  0  0  0  0  0  0  0  0  0  0  0
   -1.7955    0.2846    0.2962 C   0  0  0  0  0  0  0  0  0  0  0  0
   -3.2410   -0.0646    0.6927 C   0  0  0  0  0  0  0  0  0  0  0  0
   -3.6724    0.5105    2.0610 C   0  0  0  0  0  0  0  0  0  0  0  0
   -4.2189    0.4935   -0.3640 C   0  0  0  0  0  0  0  0  0  0  0  0
   -3.4011   -1.5984    0.7736 C   0  0  0  0  0  0  0  0  0  0  0  0
   -1.2676   -0.1727   -0.9231 C   0  0  0  0  0  0  0  0  0  0  0  0
    0.0443    0.1234   -1.3355 C   0  0  0  0  0  0  0  0  0  0  0  0
    0.5175   -0.4182   -2.6606 C   0  0  0  0  0  0  0  0  0  0  0  0
    0.8787    0.9057   -0.5064 C   0  0  0  0  0  0  0  0  0  0  0  0
    2.3100    1.2019   -0.9235 C   0  0  0  0  0  0  0  0  0  0  0  0
    3.2461    0.0342   -0.6996 C   0  0  0  0  0  0  0  0  0  0  0  0
    4.1197   -0.3183   -1.6105 N   0  0  0  0  0  0  0  0  0  0  0  0
    4.8228   -1.4855   -1.0049 C   0  0  0  0  0  0  0  0  0  0  0  0
    3.9870   -1.9136    0.2047 C   0  0  0  0  0  0  0  0  0  0  0  0
    3.2311   -0.7106    0.4579 N   0  0  0  0  0  0  0  0  0  0  0  0
    0.6744    2.3943    2.6121 H   0  0  0  0  0  0  0  0  0  0  0  0
    1.4087    3.1841    1.2134 H   0  0  0  0  0  0  0  0  0  0  0  0
    2.1354    1.7052    1.9145 H   0  0  0  0  0  0  0  0  0  0  0  0
   -1.3091    1.4425    2.0563 H   0  0  0  0  0  0  0  0  0  0  0  0
   -3.0437    0.1308    2.8748 H   0  0  0  0  0  0  0  0  0  0  0  0
   -3.6226    1.6056    2.0725 H   0  0  0  0  0  0  0  0  0  0  0  0
   -4.7068    0.2334    2.2977 H   0  0  0  0  0  0  0  0  0  0  0  0
   -5.2596    0.2888   -0.0867 H   0  0  0  0  0  0  0  0  0  0  0  0
   -4.0587    0.0503   -1.3529 H   0  0  0  0  0  0  0  0  0  0  0  0
   -4.1089    1.5794   -0.4684 H   0  0  0  0  0  0  0  0  0  0  0  0
   -3.2239   -2.0858   -0.1913 H   0  0  0  0  0  0  0  0  0  0  0  0
   -4.4141   -1.8740    1.0897 H   0  0  0  0  0  0  0  0  0  0  0  0
   -2.6974   -2.0308    1.4948 H   0  0  0  0  0  0  0  0  0  0  0  0
   -1.8914   -0.7763   -1.5807 H   0  0  0  0  0  0  0  0  0  0  0  0
    0.8332    0.3971   -3.3186 H   0  0  0  0  0  0  0  0  0  0  0  0
    1.3441   -1.1194   -2.5144 H   0  0  0  0  0  0  0  0  0  0  0  0
   -0.2797   -0.9598   -3.1815 H   0  0  0  0  0  0  0  0  0  0  0  0
    2.7200    2.0597   -0.3812 H   0  0  0  0  0  0  0  0  0  0  0  0
    2.3386    1.4961   -1.9789 H   0  0  0  0  0  0  0  0  0  0  0  0
    5.8280   -1.1731   -0.7004 H   0  0  0  0  0  0  0  0  0  0  0  0
    4.9149   -2.2981   -1.7320 H   0  0  0  0  0  0  0  0  0  0  0  0
    4.6043   -2.2068    1.0577 H   0  0  0  0  0  0  0  0  0  0  0  0
    3.3127   -2.7355   -0.0584 H   0  0  0  0  0  0  0  0  0  0  0  0
    2.3246   -0.8164    0.9041 H   0  0  0  0  0  0  0  0  0  0  0  0
  1  2  1  0
  2  3  2  0
  3  4  1  0
  4  5  1  0
  5  6  1  0
  5  7  1  0
  5  8  1  0
  4  9  2  0
  9 10  1  0
 10 11  1  0
 10 12  2  0
 12 13  1  0
 13 14  1  0
 14 15  2  0
 15 16  1  0
 16 17  1  0
 17 18  1  0
 12  2  1  0
 18 14  1  0
  1 19  1  0
  1 20  1  0
  1 21  1  0
  3 22  1  0
  6 23  1  0
  6 24  1  0
  6 25  1  0
  7 26  1  0
  7 27  1  0
  7 28  1  0
  8 29  1  0
  8 30  1  0
  8 31  1  0
  9 32  1  0
 11 33  1  0
 11 34  1  0
 11 35  1  0
 13 36  1  0
 13 37  1  0
 16 38  1  0
 16 39  1  0
 17 40  1  0
 17 41  1  0
 18 42  1  0
M  END
$$$$
OCNT-2328446
     RDKit          3D

 30 30  0  0  0  0  0  0  0  0999 V2000
   -4.0060   -1.2241    0.2276 C   0  0  0  0  0  0  0  0  0  0  0  0
   -2.8261   -0.3288    0.6113 C   0  0  0  0  0  0  0  0  0  0  0  0
   -3.2593    1.1381    0.5892 C   0  0  0  0  0  0  0  0  0  0  0  0
   -1.7306   -0.6075   -0.3270 N   0  0  0  0  0  0  0  0  0  0  0  0
   -0.4448   -0.0199    0.1016 C   0  0  0  0  0  0  0  0  0  0  0  0
    0.6921   -0.5309   -0.8199 C   0  0  0  0  0  0  0  0  0  0  0  0
    0.6657   -1.9573   -0.8977 O   0  0  0  0  0  0  0  0  0  0  0  0
    2.0669   -0.0392   -0.4199 C   0  0  0  0  0  0  0  0  0  0  0  0
    2.6843    0.9295   -1.2387 C   0  0  0  0  0  0  0  0  0  0  0  0
    3.9464    1.4434   -0.9327 C   0  0  0  0  0  0  0  0  0  0  0  0
    4.6201    1.0009    0.1994 C   0  0  0  0  0  0  0  0  0  0  0  0
    4.0300    0.0446    1.0234 C   0  0  0  0  0  0  0  0  0  0  0  0
    2.7638   -0.4744    0.7211 C   0  0  0  0  0  0  0  0  0  0  0  0
    2.1294   -1.6467    1.8224 Cl  0  0  0  0  0  0  0  0  0  0  0  0
   -3.7225   -2.2822    0.2596 H   0  0  0  0  0  0  0  0  0  0  0  0
   -4.3712   -1.0013   -0.7815 H   0  0  0  0  0  0  0  0  0  0  0  0
   -4.8395   -1.0849    0.9247 H   0  0  0  0  0  0  0  0  0  0  0  0
   -2.5217   -0.6013    1.6293 H   0  0  0  0  0  0  0  0  0  0  0  0
   -3.5395    1.4587   -0.4204 H   0  0  0  0  0  0  0  0  0  0  0  0
   -4.1263    1.2931    1.2409 H   0  0  0  0  0  0  0  0  0  0  0  0
   -2.4632    1.7983    0.9471 H   0  0  0  0  0  0  0  0  0  0  0  0
   -1.9756   -0.2540   -1.2533 H   0  0  0  0  0  0  0  0  0  0  0  0
   -0.4785    1.0746    0.0666 H   0  0  0  0  0  0  0  0  0  0  0  0
   -0.2547   -0.3196    1.1366 H   0  0  0  0  0  0  0  0  0  0  0  0
    0.4746   -0.1868   -1.8394 H   0  0  0  0  0  0  0  0  0  0  0  0
   -0.2695   -2.1931   -0.7318 H   0  0  0  0  0  0  0  0  0  0  0  0
    2.1833    1.2898   -2.1358 H   0  0  0  0  0  0  0  0  0  0  0  0
    4.4036    2.1855   -1.5828 H   0  0  0  0  0  0  0  0  0  0  0  0
    5.6041    1.3947    0.4399 H   0  0  0  0  0  0  0  0  0  0  0  0
    4.5648   -0.2992    1.9058 H   0  0  0  0  0  0  0  0  0  0  0  0
  1  2  1  0
  2  3  1  0
  2  4  1  0
  4  5  1  0
  5  6  1  0
  6  7  1  0
  6  8  1  0
  8  9  2  0
  9 10  1  0
 10 11  2  0
 11 12  1  0
 12 13  2  0
 13 14  1  0
 13  8  1  0
  1 15  1  0
  1 16  1  0
  1 17  1  0
  2 18  1  0
  3 19  1  0
  3 20  1  0
  3 21  1  0
  4 22  1  0
  5 23  1  0
  5 24  1  0
  6 25  1  0
  7 26  1  0
  9 27  1  0
 10 28  1  0
 11 29  1  0
 12 30  1  0
M  END
$$$$
OCNT-2328447
     RDKit          3D

 42 45  0  0  0  0  0  0  0  0999 V2000
    6.2923    1.3470   -1.2625 C   0  0  0  0  0  0  0  0  0  0  0  0
    5.3353    1.9926   -2.0412 C   0  0  0  0  0  0  0  0  0  0  0  0
    3.9796    1.6992   -1.8697 C   0  0  0  0  0  0  0  0  0  0  0  0
    3.5566    0.7571   -0.9170 C   0  0  0  0  0  0  0  0  0  0  0  0
    2.1285    0.4489   -0.7368 C   0  0  0  0  0  0  0  0  0  0  0  0
    1.5233    0.5311    0.5258 C   0  0  0  0  0  0  0  0  0  0  0  0
    0.1661    0.2374    0.7014 C   0  0  0  0  0  0  0  0  0  0  0  0
   -0.6334   -0.1434   -0.3870 C   0  0  0  0  0  0  0  0  0  0  0  0
   -2.1139   -0.4912   -0.2390 C   0  0  0  0  0  0  0  0  0  0  0  0
   -2.8525    0.2552    0.8727 C   0  0  0  0  0  0  0  0  0  0  0  0
   -3.2349    1.5922    0.6520 C   0  0  0  0  0  0  0  0  0  0  0  0
   -3.8943    2.3233    1.6418 C   0  0  0  0  0  0  0  0  0  0  0  0
   -4.1784    1.7339    2.8703 C   0  0  0  0  0  0  0  0  0  0  0  0
   -3.7998    0.4159    3.1117 C   0  0  0  0  0  0  0  0  0  0  0  0
   -3.1384   -0.3179    2.1240 C   0  0  0  0  0  0  0  0  0  0  0  0
   -2.3417   -1.9454   -0.1983 N   0  0  0  0  0  0  0  0  0  0  0  0
   -1.5293   -2.9257    0.3100 C   0  0  0  0  0  0  0  0  0  0  0  0
   -2.1994   -4.1042    0.0801 C   0  0  0  0  0  0  0  0  0  0  0  0
   -3.3950   -3.8707   -0.5456 N   0  0  0  0  0  0  0  0  0  0  0  0
   -3.4568   -2.5675   -0.6985 C   0  0  0  0  0  0  0  0  0  0  0  0
   -0.0276   -0.2353   -1.6513 C   0  0  0  0  0  0  0  0  0  0  0  0
    1.3295    0.0591   -1.8214 C   0  0  0  0  0  0  0  0  0  0  0  0
    4.5388    0.1180   -0.1418 C   0  0  0  0  0  0  0  0  0  0  0  0
    5.8950    0.4094   -0.3129 C   0  0  0  0  0  0  0  0  0  0  0  0
    7.3467    1.5741   -1.3958 H   0  0  0  0  0  0  0  0  0  0  0  0
    5.6416    2.7270   -2.7815 H   0  0  0  0  0  0  0  0  0  0  0  0
    3.2480    2.2235   -2.4811 H   0  0  0  0  0  0  0  0  0  0  0  0
    2.1085    0.8381    1.3911 H   0  0  0  0  0  0  0  0  0  0  0  0
   -0.2513    0.3147    1.7034 H   0  0  0  0  0  0  0  0  0  0  0  0
   -2.6001   -0.1792   -1.1770 H   0  0  0  0  0  0  0  0  0  0  0  0
   -3.0141    2.0783   -0.2970 H   0  0  0  0  0  0  0  0  0  0  0  0
   -4.1836    3.3544    1.4546 H   0  0  0  0  0  0  0  0  0  0  0  0
   -4.6925    2.3020    3.6413 H   0  0  0  0  0  0  0  0  0  0  0  0
   -4.0194   -0.0445    4.0722 H   0  0  0  0  0  0  0  0  0  0  0  0
   -2.8532   -1.3430    2.3524 H   0  0  0  0  0  0  0  0  0  0  0  0
   -0.5738   -2.7196    0.7717 H   0  0  0  0  0  0  0  0  0  0  0  0
   -1.8831   -5.1080    0.3324 H   0  0  0  0  0  0  0  0  0  0  0  0
   -4.2761   -2.0264   -1.1545 H   0  0  0  0  0  0  0  0  0  0  0  0
   -0.6053   -0.5492   -2.5192 H   0  0  0  0  0  0  0  0  0  0  0  0
    1.7672   -0.0354   -2.8137 H   0  0  0  0  0  0  0  0  0  0  0  0
    4.2515   -0.6266    0.5978 H   0  0  0  0  0  0  0  0  0  0  0  0
    6.6393   -0.0991    0.2944 H   0  0  0  0  0  0  0  0  0  0  0  0
  1  2  2  0
  2  3  1  0
  3  4  2  0
  4  5  1  0
  5  6  1  0
  6  7  2  0
  7  8  1  0
  8  9  1  0
  9 10  1  0
 10 11  2  0
 11 12  1  0
 12 13  2  0
 13 14  1  0
 14 15  2  0
  9 16  1  0
 16 17  1  0
 17 18  2  0
 18 19  1  0
 19 20  2  0
  8 21  2  0
 21 22  1  0
  4 23  1  0
 23 24  2  0
 24  1  1  0
 22  5  2  0
 15 10  1  0
 20 16  1  0
  1 25  1  0
  2 26  1  0
  3 27  1  0
  6 28  1  0
  7 29  1  0
  9 30  1  0
 11 31  1  0
 12 32  1  0
 13 33  1  0
 14 34  1  0
 15 35  1  0
 17 36  1  0
 18 37  1  0
 20 38  1  0
 21 39  1  0
 22 40  1  0
 23 41  1  0
 24 42  1  0
M  END
$$$$
OCNT-2328450
     RDKit          3D

 57 60  0  0  0  0  0  0  0  0999 V2000
    5.6583    0.7144    3.0595 C   0  0  0  0  0  0  0  0  0  0  0  0
    4.5147    0.4423    2.1401 C   0  0  0  0  0  0  0  0  0  0  0  0
    3.1780    0.3795    2.4769 C   0  0  0  0  0  0  0  0  0  0  0  0
    2.4303    0.2223    1.2915 C   0  0  0  0  0  0  0  0  0  0  0  0
    1.0042    0.1385    1.2636 C   0  0  0  0  0  0  0  0  0  0  0  0
    0.2075    0.5178    0.2511 C   0  0  0  0  0  0  0  0  0  0  0  0
   -1.2544    0.4454    0.3384 C   0  0  0  0  0  0  0  0  0  0  0  0
   -1.9680   -0.4250   -0.4322 N   0  0  0  0  0  0  0  0  0  0  0  0
   -1.2663   -1.3916   -1.3104 C   0  0  0  0  0  0  0  0  0  0  0  0
   -3.3416   -0.4346   -0.3895 C   0  0  0  0  0  0  0  0  0  0  0  0
   -4.0198    0.4421    0.4876 C   0  0  0  0  0  0  0  0  0  0  0  0
   -3.2891    1.3150    1.2873 C   0  0  0  0  0  0  0  0  0  0  0  0
   -1.9084    1.3212    1.2067 C   0  0  0  0  0  0  0  0  0  0  0  0
   -5.4286    0.4388    0.5480 C   0  0  0  0  0  0  0  0  0  0  0  0
   -6.2265   -0.4109   -0.2357 C   0  0  0  0  0  0  0  0  0  0  0  0
   -7.6169   -0.3828   -0.1805 N   0  0  0  0  0  0  0  0  0  0  0  0
   -8.2968    0.3083    0.9175 C   0  0  0  0  0  0  0  0  0  0  0  0
   -8.4036   -1.4192   -0.8528 C   0  0  0  0  0  0  0  0  0  0  0  0
   -5.5316   -1.2570   -1.1095 C   0  0  0  0  0  0  0  0  0  0  0  0
   -4.1291   -1.2757   -1.1876 C   0  0  0  0  0  0  0  0  0  0  0  0
    3.3293    0.1181    0.2404 C   0  0  0  0  0  0  0  0  0  0  0  0
    3.0896   -0.2416   -1.1910 C   0  0  0  0  0  0  0  0  0  0  0  0
    4.6185    0.3099    0.7588 N   0  0  0  0  0  0  0  0  0  0  0  0
    5.8249    0.3667    0.0011 C   0  0  0  0  0  0  0  0  0  0  0  0
    6.9555   -0.3455    0.4183 C   0  0  0  0  0  0  0  0  0  0  0  0
    8.1332   -0.2838   -0.3294 C   0  0  0  0  0  0  0  0  0  0  0  0
    8.1875    0.4889   -1.4886 C   0  0  0  0  0  0  0  0  0  0  0  0
    7.0645    1.2020   -1.9053 C   0  0  0  0  0  0  0  0  0  0  0  0
    5.8824    1.1422   -1.1645 C   0  0  0  0  0  0  0  0  0  0  0  0
    6.1779   -0.2128    3.3176 H   0  0  0  0  0  0  0  0  0  0  0  0
    6.3698    1.4228    2.6249 H   0  0  0  0  0  0  0  0  0  0  0  0
    5.2979    1.1573    3.9947 H   0  0  0  0  0  0  0  0  0  0  0  0
    2.7935    0.4792    3.4853 H   0  0  0  0  0  0  0  0  0  0  0  0
    0.5480   -0.2239    2.1862 H   0  0  0  0  0  0  0  0  0  0  0  0
    0.6116    0.9311   -0.6681 H   0  0  0  0  0  0  0  0  0  0  0  0
   -1.4753   -1.1122   -2.3465 H   0  0  0  0  0  0  0  0  0  0  0  0
   -1.6355   -2.3948   -1.0794 H   0  0  0  0  0  0  0  0  0  0  0  0
   -0.1900   -1.3961   -1.1476 H   0  0  0  0  0  0  0  0  0  0  0  0
   -3.7867    2.0052    1.9683 H   0  0  0  0  0  0  0  0  0  0  0  0
   -1.3423    2.0228    1.8188 H   0  0  0  0  0  0  0  0  0  0  0  0
   -5.9070    1.1378    1.2318 H   0  0  0  0  0  0  0  0  0  0  0  0
   -9.3863    0.2339    0.8283 H   0  0  0  0  0  0  0  0  0  0  0  0
   -8.0152   -0.1235    1.8842 H   0  0  0  0  0  0  0  0  0  0  0  0
   -8.0656    1.3789    0.9116 H   0  0  0  0  0  0  0  0  0  0  0  0
   -8.2117   -1.4219   -1.9313 H   0  0  0  0  0  0  0  0  0  0  0  0
   -8.1819   -2.4083   -0.4373 H   0  0  0  0  0  0  0  0  0  0  0  0
   -9.4795   -1.2457   -0.7387 H   0  0  0  0  0  0  0  0  0  0  0  0
   -6.0708   -1.9345   -1.7685 H   0  0  0  0  0  0  0  0  0  0  0  0
   -3.6994   -1.9686   -1.9051 H   0  0  0  0  0  0  0  0  0  0  0  0
    2.9140    0.6568   -1.7899 H   0  0  0  0  0  0  0  0  0  0  0  0
    2.2138   -0.8905   -1.2867 H   0  0  0  0  0  0  0  0  0  0  0  0
    3.9238   -0.8024   -1.6230 H   0  0  0  0  0  0  0  0  0  0  0  0
    6.9312   -0.9852    1.2958 H   0  0  0  0  0  0  0  0  0  0  0  0
    9.0094   -0.8436   -0.0104 H   0  0  0  0  0  0  0  0  0  0  0  0
    9.1080    0.5377   -2.0657 H   0  0  0  0  0  0  0  0  0  0  0  0
    7.1154    1.8144   -2.8022 H   0  0  0  0  0  0  0  0  0  0  0  0
    5.0349    1.7403   -1.4871 H   0  0  0  0  0  0  0  0  0  0  0  0
  1  2  1  0
  2  3  2  0
  3  4  1  0
  4  5  1  0
  5  6  2  0
  6  7  1  0
  7  8  2  0
  8  9  1  0
  8 10  1  0
 10 11  1  0
 11 12  1  0
 12 13  2  0
 11 14  2  0
 14 15  1  0
 15 16  1  0
 16 17  1  0
 16 18  1  0
 15 19  2  0
 19 20  1  0
  4 21  2  0
 21 22  1  0
 21 23  1  0
 23 24  1  0
 24 25  2  0
 25 26  1  0
 26 27  2  0
 27 28  1  0
 28 29  2  0
 23  2  1  0
 29 24  1  0
 13  7  1  0
 20 10  2  0
  1 30  1  0
  1 31  1  0
  1 32  1  0
  3 33  1  0
  5 34  1  0
  6 35  1  0
  9 36  1  0
  9 37  1  0
  9 38  1  0
 12 39  1  0
 13 40  1  0
 14 41  1  0
 17 42  1  0
 17 43  1  0
 17 44  1  0
 18 45  1  0
 18 46  1  0
 18 47  1  0
 19 48  1  0
 20 49  1  0
 22 50  1  0
 22 51  1  0
 22 52  1  0
 25 53  1  0
 26 54  1  0
 27 55  1  0
 28 56  1  0
 29 57  1  0
M  CHG  1   8   1
M  END
$$$$
OCNT-2328456
     RDKit          3D

 20 20  0  0  0  0  0  0  0  0999 V2000
    3.2368    0.2194    0.7197 N   0  0  0  0  0  0  0  0  0  0  0  0
    2.2900   -0.7622    0.6531 C   0  0  0  0  0  0  0  0  0  0  0  0
    2.5759   -1.9316    0.8704 O   0  0  0  0  0  0  0  0  0  0  0  0
    0.9061   -0.3699    0.2780 C   0  0  0  0  0  0  0  0  0  0  0  0
    0.4323    0.9362    0.4527 C   0  0  0  0  0  0  0  0  0  0  0  0
   -0.8892    1.2471    0.0951 C   0  0  0  0  0  0  0  0  0  0  0  0
   -1.3784    2.6211    0.2735 N   0  0  0  0  0  0  0  0  0  0  0  0
   -2.5838    2.8296    0.0888 O   0  0  0  0  0  0  0  0  0  0  0  0
   -0.5497    3.4846    0.5918 O   0  0  0  0  0  0  0  0  0  0  0  0
   -1.7461    0.2696   -0.4271 C   0  0  0  0  0  0  0  0  0  0  0  0
   -1.2625   -1.0357   -0.5850 C   0  0  0  0  0  0  0  0  0  0  0  0
   -2.1464   -2.0757   -1.1289 N   0  0  0  0  0  0  0  0  0  0  0  0
   -3.3363   -1.7802   -1.3006 O   0  0  0  0  0  0  0  0  0  0  0  0
   -1.6471   -3.1779   -1.3875 O   0  0  0  0  0  0  0  0  0  0  0  0
    0.0549   -1.3607   -0.2332 C   0  0  0  0  0  0  0  0  0  0  0  0
    4.1875   -0.0935    0.8808 H   0  0  0  0  0  0  0  0  0  0  0  0
    3.1225    1.1407    0.3226 H   0  0  0  0  0  0  0  0  0  0  0  0
    1.0738    1.6986    0.8891 H   0  0  0  0  0  0  0  0  0  0  0  0
   -2.7703    0.5190   -0.7030 H   0  0  0  0  0  0  0  0  0  0  0  0
    0.4301   -2.3784   -0.3502 H   0  0  0  0  0  0  0  0  0  0  0  0
  1  2  1  0
  2  3  2  0
  2  4  1  0
  4  5  2  0
  5  6  1  0
  6  7  1  0
  7  8  2  0
  7  9  1  0
  6 10  2  0
 10 11  1  0
 11 12  1  0
 12 13  2  0
 12 14  1  0
 11 15  2  0
 15  4  1  0
  1 16  1  0
  1 17  1  0
  5 18  1  0
 10 19  1  0
 15 20  1  0
M  CHG  4   7   1   9  -1  12   1  14  -1
M  END
$$$$
OCNT-2328469
     RDKit          3D

 58 60  0  0  0  0  0  0  0  0999 V2000
    6.3081   -1.0104    1.3161 C   0  0  0  0  0  0  0  0  0  0  0  0
    5.5637   -1.1118    0.0633 N   0  0  0  0  0  0  0  0  0  0  0  0
    6.3539   -1.0607   -1.1643 C   0  0  0  0  0  0  0  0  0  0  0  0
    4.2013   -0.8147    0.0313 C   0  0  0  0  0  0  0  0  0  0  0  0
    3.4470   -0.6374    1.2052 C   0  0  0  0  0  0  0  0  0  0  0  0
    2.0727   -0.3576    1.1809 C   0  0  0  0  0  0  0  0  0  0  0  0
    1.3981   -0.2477   -0.0339 C   0  0  0  0  0  0  0  0  0  0  0  0
   -0.0570    0.0523   -0.0677 C   0  0  0  0  0  0  0  0  0  0  0  0
   -1.0155   -1.0832   -0.0376 C   0  0  0  0  0  0  0  0  0  0  0  0
   -1.5008   -1.5711    1.1746 C   0  0  0  0  0  0  0  0  0  0  0  0
   -2.4221   -2.6283    1.1945 C   0  0  0  0  0  0  0  0  0  0  0  0
   -2.8841   -3.2485    0.0190 C   0  0  0  0  0  0  0  0  0  0  0  0
   -3.8236   -4.2873    0.0483 N   0  0  0  0  0  0  0  0  0  0  0  0
   -4.0629   -5.0604   -1.1714 C   0  0  0  0  0  0  0  0  0  0  0  0
   -4.0089   -5.0293    1.2971 C   0  0  0  0  0  0  0  0  0  0  0  0
   -2.3791   -2.7282   -1.1866 C   0  0  0  0  0  0  0  0  0  0  0  0
   -1.4566   -1.6721   -1.2215 C   0  0  0  0  0  0  0  0  0  0  0  0
   -0.5052    1.3421   -0.1245 C   0  0  0  0  0  0  0  0  0  0  0  0
    0.4182    2.4795   -0.1525 C   0  0  0  0  0  0  0  0  0  0  0  0
   -0.0022    3.7512   -0.2095 C   0  0  0  0  0  0  0  0  0  0  0  0
   -1.4627    4.0913   -0.2462 C   0  0  0  0  0  0  0  0  0  0  0  0
   -1.8912    5.3211   -0.3015 N   0  0  0  0  0  0  0  0  0  0  0  0
   -0.9660    6.4891   -0.4430 C   0  0  0  0  0  0  0  0  0  0  0  0
   -3.3454    5.6691   -0.2282 C   0  0  0  0  0  0  0  0  0  0  0  0
   -2.3958    2.9180   -0.2149 C   0  0  0  0  0  0  0  0  0  0  0  0
   -1.9354    1.6604   -0.1600 C   0  0  0  0  0  0  0  0  0  0  0  0
    2.1130   -0.4344   -1.2161 C   0  0  0  0  0  0  0  0  0  0  0  0
    3.4871   -0.7135   -1.1762 C   0  0  0  0  0  0  0  0  0  0  0  0
    7.3590   -1.2912    1.1844 H   0  0  0  0  0  0  0  0  0  0  0  0
    6.2877    0.0150    1.7010 H   0  0  0  0  0  0  0  0  0  0  0  0
    5.9051   -1.6939    2.0713 H   0  0  0  0  0  0  0  0  0  0  0  0
    5.9878   -1.7854   -1.8996 H   0  0  0  0  0  0  0  0  0  0  0  0
    7.4025   -1.3200   -0.9801 H   0  0  0  0  0  0  0  0  0  0  0  0
    6.3361   -0.0553   -1.5991 H   0  0  0  0  0  0  0  0  0  0  0  0
    3.9115   -0.7241    2.1830 H   0  0  0  0  0  0  0  0  0  0  0  0
    1.5420   -0.2383    2.1218 H   0  0  0  0  0  0  0  0  0  0  0  0
   -1.1740   -1.1383    2.1166 H   0  0  0  0  0  0  0  0  0  0  0  0
   -2.7708   -2.9536    2.1702 H   0  0  0  0  0  0  0  0  0  0  0  0
   -4.8237   -5.8323   -1.0083 H   0  0  0  0  0  0  0  0  0  0  0  0
   -4.4515   -4.4239   -1.9738 H   0  0  0  0  0  0  0  0  0  0  0  0
   -3.1481   -5.5617   -1.5069 H   0  0  0  0  0  0  0  0  0  0  0  0
   -4.4042   -4.3828    2.0879 H   0  0  0  0  0  0  0  0  0  0  0  0
   -4.7424   -5.8345    1.1757 H   0  0  0  0  0  0  0  0  0  0  0  0
   -3.0690   -5.4856    1.6275 H   0  0  0  0  0  0  0  0  0  0  0  0
   -2.6877   -3.1376   -2.1438 H   0  0  0  0  0  0  0  0  0  0  0  0
   -1.0929   -1.3211   -2.1836 H   0  0  0  0  0  0  0  0  0  0  0  0
    1.4899    2.2944   -0.1211 H   0  0  0  0  0  0  0  0  0  0  0  0
    0.7466    4.5353   -0.2132 H   0  0  0  0  0  0  0  0  0  0  0  0
   -1.5370    7.3830   -0.7080 H   0  0  0  0  0  0  0  0  0  0  0  0
   -0.4583    6.6402    0.5129 H   0  0  0  0  0  0  0  0  0  0  0  0
   -0.2566    6.2864   -1.2499 H   0  0  0  0  0  0  0  0  0  0  0  0
   -3.8110    5.3919   -1.1773 H   0  0  0  0  0  0  0  0  0  0  0  0
   -3.7969    5.1380    0.6142 H   0  0  0  0  0  0  0  0  0  0  0  0
   -3.4603    6.7426   -0.0556 H   0  0  0  0  0  0  0  0  0  0  0  0
   -3.4694    3.0654   -0.2515 H   0  0  0  0  0  0  0  0  0  0  0  0
   -2.6613    0.8498   -0.1462 H   0  0  0  0  0  0  0  0  0  0  0  0
    1.6142   -0.3764   -2.1800 H   0  0  0  0  0  0  0  0  0  0  0  0
    3.9841   -0.8635   -2.1302 H   0  0  0  0  0  0  0  0  0  0  0  0
  1  2  1  0
  2  3  1  0
  2  4  1  0
  4  5  1  0
  5  6  2  0
  6  7  1  0
  7  8  1  0
  8  9  1  0
  9 10  1  0
 10 11  2  0
 11 12  1  0
 12 13  1  0
 13 14  1  0
 13 15  1  0
 12 16  2  0
 16 17  1  0
  8 18  2  3
 18 19  1  0
 19 20  2  0
 20 21  1  0
 21 22  2  3
 22 23  1  0
 22 24  1  0
 21 25  1  0
 25 26  2  0
  7 27  2  0
 27 28  1  0
 28  4  2  0
 17  9  2  0
 26 18  1  0
  1 29  1  0
  1 30  1  0
  1 31  1  0
  3 32  1  0
  3 33  1  0
  3 34  1  0
  5 35  1  0
  6 36  1  0
 10 37  1  0
 11 38  1  0
 14 39  1  0
 14 40  1  0
 14 41  1  0
 15 42  1  0
 15 43  1  0
 15 44  1  0
 16 45  1  0
 17 46  1  0
 19 47  1  0
 20 48  1  0
 23 49  1  0
 23 50  1  0
 23 51  1  0
 24 52  1  0
 24 53  1  0
 24 54  1  0
 25 55  1  0
 26 56  1  0
 27 57  1  0
 28 58  1  0
M  CHG  1  22   1
M  END
$$$$
OCNT-2328472
     RDKit          3D

 83 85  0  0  0  0  0  0  0  0999 V2000
   -5.4930    2.0732    2.8616 C   0  0  0  0  0  0  0  0  0  0  0  0
   -5.8451    3.5402    2.6679 C   0  0  0  0  0  0  0  0  0  0  0  0
   -5.2575    4.1680    1.3985 C   0  0  0  0  0  0  0  0  0  0  0  0
   -6.0324    3.8825    0.1083 C   0  0  0  0  0  0  0  0  0  0  0  0
   -5.8886    2.4903   -0.3945 C   0  0  0  0  0  0  0  0  0  0  0  0
   -4.8245    1.7487   -0.8875 C   0  0  0  0  0  0  0  0  0  0  0  0
   -3.4682    2.2562   -1.0232 C   0  0  0  0  0  0  0  0  0  0  0  0
   -3.2346    3.4174   -1.3473 O   0  0  0  0  0  0  0  0  0  0  0  0
   -2.3210    1.3498   -0.7474 C   0  0  0  0  0  0  0  0  0  0  0  0
   -2.3796    0.3630    0.2426 C   0  0  0  0  0  0  0  0  0  0  0  0
   -1.2761   -0.4643    0.4639 C   0  0  0  0  0  0  0  0  0  0  0  0
   -0.0975   -0.2984   -0.2689 C   0  0  0  0  0  0  0  0  0  0  0  0
    0.8986   -1.1743    0.0544 O   0  0  0  0  0  0  0  0  0  0  0  0
    2.2455   -0.8440   -0.3027 C   0  0  0  0  0  0  0  0  0  0  0  0
    2.8283    0.1687    0.6827 C   0  0  0  0  0  0  0  0  0  0  0  0
    4.2406    0.6241    0.3062 C   0  0  0  0  0  0  0  0  0  0  0  0
    5.2455   -0.4493    0.3102 N   0  0  0  0  0  0  0  0  0  0  0  0
    6.4597   -0.0672   -0.4358 C   0  0  0  0  0  0  0  0  0  0  0  0
    7.2086    1.1773    0.0701 C   0  0  0  0  0  0  0  0  0  0  0  0
    8.4729    1.4268   -0.7555 C   0  0  0  0  0  0  0  0  0  0  0  0
    9.2267    2.6532   -0.2675 C   0  0  0  0  0  0  0  0  0  0  0  0
    5.5584   -0.9428    1.6601 C   0  0  0  0  0  0  0  0  0  0  0  0
    5.0438   -2.3688    1.9106 C   0  0  0  0  0  0  0  0  0  0  0  0
    5.7644   -3.4601    1.1113 C   0  0  0  0  0  0  0  0  0  0  0  0
    5.1983   -3.6923   -0.2815 C   0  0  0  0  0  0  0  0  0  0  0  0
   -0.0325    0.6985   -1.2413 C   0  0  0  0  0  0  0  0  0  0  0  0
   -1.1387    1.5238   -1.4759 C   0  0  0  0  0  0  0  0  0  0  0  0
   -5.3666    0.4630   -1.2226 C   0  0  0  0  0  0  0  0  0  0  0  0
   -6.7094    0.5154   -0.8695 C   0  0  0  0  0  0  0  0  0  0  0  0
   -7.6007   -0.5446   -1.0074 C   0  0  0  0  0  0  0  0  0  0  0  0
   -7.0855   -1.7304   -1.5399 C   0  0  0  0  0  0  0  0  0  0  0  0
   -5.7473   -1.8272   -1.9244 C   0  0  0  0  0  0  0  0  0  0  0  0
   -5.2263   -3.0472   -2.4416 N   0  0  0  0  0  0  0  0  0  0  0  0
   -5.1599   -4.4091   -1.4480 S   0  0  0  0  0  0  0  0  0  0  0  0
   -4.0406   -3.8869   -0.1616 C   0  0  0  0  0  0  0  0  0  0  0  0
   -4.4806   -5.4256   -2.2224 O   0  0  0  0  0  0  0  0  0  0  0  0
   -6.4605   -4.6529   -0.8651 O   0  0  0  0  0  0  0  0  0  0  0  0
   -4.8770   -0.7355   -1.7875 C   0  0  0  0  0  0  0  0  0  0  0  0
   -7.0244    1.7389   -0.3754 O   0  0  0  0  0  0  0  0  0  0  0  0
   -6.0138    1.4324    2.1456 H   0  0  0  0  0  0  0  0  0  0  0  0
   -5.7936    1.7477    3.8623 H   0  0  0  0  0  0  0  0  0  0  0  0
   -4.4148    1.9063    2.7631 H   0  0  0  0  0  0  0  0  0  0  0  0
   -6.9334    3.6669    2.6897 H   0  0  0  0  0  0  0  0  0  0  0  0
   -5.4483    4.0921    3.5290 H   0  0  0  0  0  0  0  0  0  0  0  0
   -5.2723    5.2562    1.5423 H   0  0  0  0  0  0  0  0  0  0  0  0
   -4.2034    3.8877    1.2964 H   0  0  0  0  0  0  0  0  0  0  0  0
   -7.0925    4.1199    0.2586 H   0  0  0  0  0  0  0  0  0  0  0  0
   -5.6777    4.5662   -0.6725 H   0  0  0  0  0  0  0  0  0  0  0  0
   -3.2654    0.2314    0.8587 H   0  0  0  0  0  0  0  0  0  0  0  0
   -1.3232   -1.2327    1.2326 H   0  0  0  0  0  0  0  0  0  0  0  0
    2.8092   -1.7796   -0.2402 H   0  0  0  0  0  0  0  0  0  0  0  0
    2.3302   -0.5213   -1.3452 H   0  0  0  0  0  0  0  0  0  0  0  0
    2.1839    1.0560    0.7225 H   0  0  0  0  0  0  0  0  0  0  0  0
    2.8010   -0.2463    1.6984 H   0  0  0  0  0  0  0  0  0  0  0  0
    4.5387    1.4374    0.9816 H   0  0  0  0  0  0  0  0  0  0  0  0
    4.1798    1.0637   -0.6993 H   0  0  0  0  0  0  0  0  0  0  0  0
    6.1802    0.0902   -1.4860 H   0  0  0  0  0  0  0  0  0  0  0  0
    7.1464   -0.9246   -0.4521 H   0  0  0  0  0  0  0  0  0  0  0  0
    6.5639    2.0608    0.0021 H   0  0  0  0  0  0  0  0  0  0  0  0
    7.4832    1.0575    1.1241 H   0  0  0  0  0  0  0  0  0  0  0  0
    9.1329    0.5533   -0.6987 H   0  0  0  0  0  0  0  0  0  0  0  0
    8.2081    1.5643   -1.8107 H   0  0  0  0  0  0  0  0  0  0  0  0
   10.1241    2.8120   -0.8736 H   0  0  0  0  0  0  0  0  0  0  0  0
    9.5387    2.5328    0.7742 H   0  0  0  0  0  0  0  0  0  0  0  0
    8.6048    3.5504   -0.3394 H   0  0  0  0  0  0  0  0  0  0  0  0
    6.6402   -0.9497    1.8466 H   0  0  0  0  0  0  0  0  0  0  0  0
    5.1432   -0.2786    2.4304 H   0  0  0  0  0  0  0  0  0  0  0  0
    3.9620   -2.4307    1.7542 H   0  0  0  0  0  0  0  0  0  0  0  0
    5.2067   -2.5805    2.9751 H   0  0  0  0  0  0  0  0  0  0  0  0
    6.8357   -3.2397    1.0447 H   0  0  0  0  0  0  0  0  0  0  0  0
    5.6739   -4.4038    1.6640 H   0  0  0  0  0  0  0  0  0  0  0  0
    5.2816   -2.8075   -0.9161 H   0  0  0  0  0  0  0  0  0  0  0  0
    4.1449   -3.9835   -0.2280 H   0  0  0  0  0  0  0  0  0  0  0  0
    5.7453   -4.5026   -0.7729 H   0  0  0  0  0  0  0  0  0  0  0  0
    0.8571    0.8640   -1.8393 H   0  0  0  0  0  0  0  0  0  0  0  0
   -1.0723    2.3045   -2.2328 H   0  0  0  0  0  0  0  0  0  0  0  0
   -8.6399   -0.4510   -0.7157 H   0  0  0  0  0  0  0  0  0  0  0  0
   -7.7541   -2.5804   -1.6647 H   0  0  0  0  0  0  0  0  0  0  0  0
   -4.4326   -2.9913   -3.0796 H   0  0  0  0  0  0  0  0  0  0  0  0
   -3.1035   -3.5619   -0.6175 H   0  0  0  0  0  0  0  0  0  0  0  0
   -3.8571   -4.7483    0.4865 H   0  0  0  0  0  0  0  0  0  0  0  0
   -4.5002   -3.0832    0.4163 H   0  0  0  0  0  0  0  0  0  0  0  0
   -3.8408   -0.8149   -2.0990 H   0  0  0  0  0  0  0  0  0  0  0  0
  1  2  1  0
  2  3  1  0
  3  4  1  0
  4  5  1  0
  5  6  2  0
  6  7  1  0
  7  8  2  0
  7  9  1  0
  9 10  1  0
 10 11  2  0
 11 12  1  0
 12 13  1  0
 13 14  1  0
 14 15  1  0
 15 16  1  0
 16 17  1  0
 17 18  1  0
 18 19  1  0
 19 20  1  0
 20 21  1  0
 17 22  1  0
 22 23  1  0
 23 24  1  0
 24 25  1  0
 12 26  2  0
 26 27  1  0
  6 28  1  0
 28 29  1  0
 29 30  2  0
 30 31  1  0
 31 32  2  0
 32 33  1  0
 33 34  1  0
 34 35  1  0
 34 36  2  0
 34 37  2  0
 32 38  1  0
 29 39  1  0
 39  5  1  0
 27  9  2  0
 38 28  2  0
  1 40  1  0
  1 41  1  0
  1 42  1  0
  2 43  1  0
  2 44  1  0
  3 45  1  0
  3 46  1  0
  4 47  1  0
  4 48  1  0
 10 49  1  0
 11 50  1  0
 14 51  1  0
 14 52  1  0
 15 53  1  0
 15 54  1  0
 16 55  1  0
 16 56  1  0
 18 57  1  0
 18 58  1  0
 19 59  1  0
 19 60  1  0
 20 61  1  0
 20 62  1  0
 21 63  1  0
 21 64  1  0
 21 65  1  0
 22 66  1  0
 22 67  1  0
 23 68  1  0
 23 69  1  0
 24 70  1  0
 24 71  1  0
 25 72  1  0
 25 73  1  0
 25 74  1  0
 26 75  1  0
 27 76  1  0
 30 77  1  0
 31 78  1  0
 33 79  1  0
 35 80  1  0
 35 81  1  0
 35 82  1  0
 38 83  1  0
M  END
$$$$
OCNT-2328475
     RDKit          3D

 30 31  0  0  0  0  0  0  0  0999 V2000
    4.9673    0.3237    1.2075 N   0  0  0  0  0  0  0  0  0  0  0  0
    3.7071    0.1022    0.7258 C   0  0  0  0  0  0  0  0  0  0  0  0
    2.7241    0.2586    1.5538 N   0  0  0  0  0  0  0  0  0  0  0  0
    1.4306    0.0641    1.1320 C   0  0  0  0  0  0  0  0  0  0  0  0
    0.4950    0.2686    1.9006 O   0  0  0  0  0  0  0  0  0  0  0  0
    1.2137   -0.3910   -0.1710 N   0  0  0  0  0  0  0  0  0  0  0  0
   -0.1470   -0.5768   -0.6662 C   0  0  2  0  0  0  0  0  0  0  0  0
   -0.6921    0.7064   -1.0283 O   0  0  0  0  0  0  0  0  0  0  0  0
   -2.0863    0.6675   -0.6901 C   0  0  2  0  0  0  0  0  0  0  0  0
   -2.6511    2.0668   -0.4588 C   0  0  0  0  0  0  0  0  0  0  0  0
   -4.0612    2.0373   -0.2569 O   0  0  0  0  0  0  0  0  0  0  0  0
   -2.1845   -0.2095    0.5530 C   0  0  1  0  0  0  0  0  0  0  0  0
   -3.5027   -0.7189    0.7436 O   0  0  0  0  0  0  0  0  0  0  0  0
   -1.1622   -1.2980    0.2564 C   0  0  1  0  0  0  0  0  0  0  0  0
   -1.8403   -2.3644   -0.4490 O   0  0  0  0  0  0  0  0  0  0  0  0
    2.2641   -0.5191   -1.0573 C   0  0  0  0  0  0  0  0  0  0  0  0
    3.5207   -0.2887   -0.6827 C   0  0  0  0  0  0  0  0  0  0  0  0
    5.6330    0.7391    0.5676 H   0  0  0  0  0  0  0  0  0  0  0  0
    4.9462    0.7948    2.1080 H   0  0  0  0  0  0  0  0  0  0  0  0
   -0.0841   -1.1533   -1.5990 H   0  0  0  0  0  0  0  0  0  0  0  0
   -2.6342    0.2028   -1.5212 H   0  0  0  0  0  0  0  0  0  0  0  0
   -2.4436    2.7055   -1.3237 H   0  0  0  0  0  0  0  0  0  0  0  0
   -2.1797    2.5467    0.4058 H   0  0  0  0  0  0  0  0  0  0  0  0
   -4.2551    1.3043    0.3625 H   0  0  0  0  0  0  0  0  0  0  0  0
   -1.9022    0.3572    1.4452 H   0  0  0  0  0  0  0  0  0  0  0  0
   -3.5176   -1.5727    0.2603 H   0  0  0  0  0  0  0  0  0  0  0  0
   -0.7371   -1.7475    1.1577 H   0  0  0  0  0  0  0  0  0  0  0  0
   -1.2242   -3.1199   -0.4763 H   0  0  0  0  0  0  0  0  0  0  0  0
    2.0329   -0.8048   -2.0792 H   0  0  0  0  0  0  0  0  0  0  0  0
    4.3704   -0.3812   -1.3427 H   0  0  0  0  0  0  0  0  0  0  0  0
  1  2  1  0
  2  3  2  0
  3  4  1  0
  4  5  2  0
  4  6  1  0
  6  7  1  0
  7  8  1  0
  8  9  1  0
  9 10  1  0
 10 11  1  0
  9 12  1  0
 12 13  1  0
 12 14  1  0
 14 15  1  0
  6 16  1  0
 16 17  2  0
 17  2  1  0
 14  7  1  0
  1 18  1  0
  1 19  1  0
  7 20  1  6
  9 21  1  6
 10 22  1  0
 10 23  1  0
 11 24  1  0
 12 25  1  1
 13 26  1  0
 14 27  1  1
 15 28  1  0
 16 29  1  0
 17 30  1  0
M  END
$$$$
OCNT-2328485
     RDKit          3D

 39 41  0  0  0  0  0  0  0  0999 V2000
    4.4147   -2.1095    0.9601 C   0  0  0  0  0  0  0  0  0  0  0  0
    3.5869   -1.2348    1.6606 C   0  0  0  0  0  0  0  0  0  0  0  0
    2.6433   -0.4678    0.9760 C   0  0  0  0  0  0  0  0  0  0  0  0
    2.5100   -0.5741   -0.4171 C   0  0  0  0  0  0  0  0  0  0  0  0
    1.5044    0.2760   -1.1675 C   0  0  0  0  0  0  0  0  0  0  0  0
    0.1606    0.1965   -0.5535 N   0  0  0  0  0  0  0  0  0  0  0  0
   -0.5130   -1.1124   -0.7777 C   0  0  0  0  0  0  0  0  0  0  0  0
   -1.6486   -1.3162    0.2185 C   0  0  0  0  0  0  0  0  0  0  0  0
   -2.7868   -1.8705   -0.1246 N   0  0  0  0  0  0  0  0  0  0  0  0
   -3.5942   -1.8072    1.1302 C   0  0  0  0  0  0  0  0  0  0  0  0
   -2.8656   -0.8351    2.0656 C   0  0  0  0  0  0  0  0  0  0  0  0
   -1.5312   -0.8887    1.5243 N   0  0  0  0  0  0  0  0  0  0  0  0
   -0.5899    1.3741   -0.7479 C   0  0  0  0  0  0  0  0  0  0  0  0
   -0.1386    2.5733   -0.1656 C   0  0  0  0  0  0  0  0  0  0  0  0
   -0.8469    3.7709   -0.3017 C   0  0  0  0  0  0  0  0  0  0  0  0
   -2.0353    3.7951   -1.0218 C   0  0  0  0  0  0  0  0  0  0  0  0
   -2.5118    2.6221   -1.5975 C   0  0  0  0  0  0  0  0  0  0  0  0
   -1.7978    1.4256   -1.4579 C   0  0  0  0  0  0  0  0  0  0  0  0
    3.3564   -1.4513   -1.1112 C   0  0  0  0  0  0  0  0  0  0  0  0
    4.3009   -2.2170   -0.4247 C   0  0  0  0  0  0  0  0  0  0  0  0
    5.1485   -2.7076    1.4937 H   0  0  0  0  0  0  0  0  0  0  0  0
    3.6734   -1.1507    2.7406 H   0  0  0  0  0  0  0  0  0  0  0  0
    1.9988    0.2092    1.5324 H   0  0  0  0  0  0  0  0  0  0  0  0
    1.9084    1.2963   -1.1824 H   0  0  0  0  0  0  0  0  0  0  0  0
    1.4381   -0.0443   -2.2159 H   0  0  0  0  0  0  0  0  0  0  0  0
   -0.8728   -1.2162   -1.8072 H   0  0  0  0  0  0  0  0  0  0  0  0
    0.1884   -1.9355   -0.5982 H   0  0  0  0  0  0  0  0  0  0  0  0
   -4.6109   -1.4643    0.9153 H   0  0  0  0  0  0  0  0  0  0  0  0
   -3.6473   -2.8113    1.5658 H   0  0  0  0  0  0  0  0  0  0  0  0
   -3.2732    0.1770    1.9706 H   0  0  0  0  0  0  0  0  0  0  0  0
   -2.9076   -1.1496    3.1115 H   0  0  0  0  0  0  0  0  0  0  0  0
   -0.9501   -0.0560    1.6037 H   0  0  0  0  0  0  0  0  0  0  0  0
    0.7751    2.5769    0.4246 H   0  0  0  0  0  0  0  0  0  0  0  0
   -0.4701    4.6791    0.1606 H   0  0  0  0  0  0  0  0  0  0  0  0
   -2.5911    4.7222   -1.1307 H   0  0  0  0  0  0  0  0  0  0  0  0
   -3.4430    2.6301   -2.1582 H   0  0  0  0  0  0  0  0  0  0  0  0
   -2.2155    0.5406   -1.9296 H   0  0  0  0  0  0  0  0  0  0  0  0
    3.2846   -1.5470   -2.1923 H   0  0  0  0  0  0  0  0  0  0  0  0
    4.9485   -2.8981   -0.9707 H   0  0  0  0  0  0  0  0  0  0  0  0
  1  2  2  0
  2  3  1  0
  3  4  2  0
  4  5  1  0
  5  6  1  0
  6  7  1  0
  7  8  1  0
  8  9  2  0
  9 10  1  0
 10 11  1  0
 11 12  1  0
  6 13  1  0
 13 14  2  0
 14 15  1  0
 15 16  2  0
 16 17  1  0
 17 18  2  0
  4 19  1  0
 19 20  2  0
 20  1  1  0
 12  8  1  0
 18 13  1  0
  1 21  1  0
  2 22  1  0
  3 23  1  0
  5 24  1  0
  5 25  1  0
  7 26  1  0
  7 27  1  0
 10 28  1  0
 10 29  1  0
 11 30  1  0
 11 31  1  0
 12 32  1  0
 14 33  1  0
 15 34  1  0
 16 35  1  0
 17 36  1  0
 18 37  1  0
 19 38  1  0
 20 39  1  0
M  END
$$$$
OCNT-2328488
     RDKit          3D

 36 38  0  0  0  0  0  0  0  0999 V2000
   -4.9071   -3.6310   -0.7564 Cl  0  0  0  0  0  0  0  0  0  0  0  0
   -3.6680   -2.4518   -0.5783 C   0  0  0  0  0  0  0  0  0  0  0  0
   -3.2237   -1.7446   -1.6898 C   0  0  0  0  0  0  0  0  0  0  0  0
   -2.2171   -0.7873   -1.5459 C   0  0  0  0  0  0  0  0  0  0  0  0
   -1.6384   -0.5232   -0.2873 C   0  0  0  0  0  0  0  0  0  0  0  0
   -0.5360    0.5264   -0.2194 C   0  0  0  0  0  0  0  0  0  0  0  0
   -0.9911    1.7788    0.5503 C   0  0  0  0  0  0  0  0  0  0  0  0
   -0.2033    2.9429    0.1750 N   0  0  0  0  0  0  0  0  0  0  0  0
    1.0107    3.3003    0.6899 C   0  0  0  0  0  0  0  0  0  0  0  0
    1.3587    4.4442    0.0109 C   0  0  0  0  0  0  0  0  0  0  0  0
    0.3876    4.7857   -0.8957 N   0  0  0  0  0  0  0  0  0  0  0  0
   -0.5471    3.8720   -0.7641 C   0  0  0  0  0  0  0  0  0  0  0  0
    0.6306   -0.0150    0.4099 O   0  0  0  0  0  0  0  0  0  0  0  0
    1.4558   -0.7674   -0.4774 C   0  0  0  0  0  0  0  0  0  0  0  0
    2.4424   -1.5724    0.3035 C   0  0  0  0  0  0  0  0  0  0  0  0
    2.2452   -2.8520    0.7752 C   0  0  0  0  0  0  0  0  0  0  0  0
    0.8425   -3.8329    0.5806 Cl  0  0  0  0  0  0  0  0  0  0  0  0
    3.5634   -3.4828    1.6321 S   0  0  0  0  0  0  0  0  0  0  0  0
    4.4554   -2.0396    1.4129 C   0  0  0  0  0  0  0  0  0  0  0  0
    3.7451   -1.1031    0.6922 C   0  0  0  0  0  0  0  0  0  0  0  0
   -2.1110   -1.2484    0.8235 C   0  0  0  0  0  0  0  0  0  0  0  0
   -1.4998   -1.0115    2.4217 Cl  0  0  0  0  0  0  0  0  0  0  0  0
   -3.1186   -2.2080    0.6756 C   0  0  0  0  0  0  0  0  0  0  0  0
   -3.6530   -1.9354   -2.6707 H   0  0  0  0  0  0  0  0  0  0  0  0
   -1.8838   -0.2519   -2.4341 H   0  0  0  0  0  0  0  0  0  0  0  0
   -0.2641    0.8301   -1.2405 H   0  0  0  0  0  0  0  0  0  0  0  0
   -2.0376    2.0266    0.3353 H   0  0  0  0  0  0  0  0  0  0  0  0
   -0.8782    1.6691    1.6340 H   0  0  0  0  0  0  0  0  0  0  0  0
    1.5101    2.7300    1.4615 H   0  0  0  0  0  0  0  0  0  0  0  0
    2.2557    5.0390    0.1253 H   0  0  0  0  0  0  0  0  0  0  0  0
   -1.4746    3.8389   -1.3211 H   0  0  0  0  0  0  0  0  0  0  0  0
    1.9827   -0.0682   -1.1378 H   0  0  0  0  0  0  0  0  0  0  0  0
    0.8519   -1.4258   -1.1122 H   0  0  0  0  0  0  0  0  0  0  0  0
    5.4509   -1.9455    1.8251 H   0  0  0  0  0  0  0  0  0  0  0  0
    4.1356   -0.1196    0.4568 H   0  0  0  0  0  0  0  0  0  0  0  0
   -3.4715   -2.7668    1.5391 H   0  0  0  0  0  0  0  0  0  0  0  0
  1  2  1  0
  2  3  1  0
  3  4  2  0
  4  5  1  0
  5  6  1  0
  6  7  1  0
  7  8  1  0
  8  9  1  0
  9 10  2  0
 10 11  1  0
 11 12  2  0
  6 13  1  0
 13 14  1  0
 14 15  1  0
 15 16  2  0
 16 17  1  0
 16 18  1  0
 18 19  1  0
 19 20  2  0
  5 21  2  0
 21 22  1  0
 21 23  1  0
 23  2  2  0
 12  8  1  0
 20 15  1  0
  3 24  1  0
  4 25  1  0
  6 26  1  0
  7 27  1  0
  7 28  1  0
  9 29  1  0
 10 30  1  0
 12 31  1  0
 14 32  1  0
 14 33  1  0
 19 34  1  0
 20 35  1  0
 23 36  1  0
M  END
$$$$
OCNT-2328499
     RDKit          3D

 31 33  0  0  0  0  0  0  0  0999 V2000
    4.1494   -3.1310   -1.0583 O   0  0  0  0  0  0  0  0  0  0  0  0
    3.6824   -2.0036   -0.9339 C   0  0  0  0  0  0  0  0  0  0  0  0
    4.3150   -0.8871   -1.4634 N   0  0  0  0  0  0  0  0  0  0  0  0
    3.8185    0.3998   -1.3572 C   0  0  0  0  0  0  0  0  0  0  0  0
    2.7158    0.7329   -0.7559 N   0  0  0  0  0  0  0  0  0  0  0  0
    2.0781   -0.3347   -0.2179 C   0  0  0  0  0  0  0  0  0  0  0  0
    2.4508   -1.6608   -0.2521 C   0  0  0  0  0  0  0  0  0  0  0  0
    1.5379   -2.4537    0.3925 N   0  0  0  0  0  0  0  0  0  0  0  0
    0.6212   -1.6106    0.8281 C   0  0  0  0  0  0  0  0  0  0  0  0
    0.9010   -0.3132    0.4781 N   0  0  0  0  0  0  0  0  0  0  0  0
    0.1151    0.8757    0.7644 C   0  0  2  0  0  0  0  0  0  0  0  0
   -0.8637    0.5632    1.7912 O   0  0  0  0  0  0  0  0  0  0  0  0
   -2.1730    0.8198    1.2405 C   0  0  2  0  0  0  0  0  0  0  0  0
   -3.1923   -0.1596    1.8199 C   0  0  0  0  0  0  0  0  0  0  0  0
   -2.9825   -1.4740    1.3093 O   0  0  0  0  0  0  0  0  0  0  0  0
   -2.0112    0.7348   -0.2742 C   0  0  1  0  0  0  0  0  0  0  0  0
   -3.0201    1.4415   -0.9910 O   0  0  0  0  0  0  0  0  0  0  0  0
   -0.6540    1.3929   -0.4565 C   0  0  1  0  0  0  0  0  0  0  0  0
   -0.8158    2.8228   -0.4013 O   0  0  0  0  0  0  0  0  0  0  0  0
    5.1799   -1.0695   -1.9487 H   0  0  0  0  0  0  0  0  0  0  0  0
    4.4551    1.1564   -1.8434 H   0  0  0  0  0  0  0  0  0  0  0  0
   -0.2591   -1.8848    1.3968 H   0  0  0  0  0  0  0  0  0  0  0  0
    0.7966    1.6270    1.1786 H   0  0  0  0  0  0  0  0  0  0  0  0
   -2.4625    1.8325    1.5490 H   0  0  0  0  0  0  0  0  0  0  0  0
   -3.0981   -0.2019    2.9099 H   0  0  0  0  0  0  0  0  0  0  0  0
   -4.2101    0.1432    1.5559 H   0  0  0  0  0  0  0  0  0  0  0  0
   -3.4888   -2.0853    1.8740 H   0  0  0  0  0  0  0  0  0  0  0  0
   -1.9627   -0.2985   -0.6360 H   0  0  0  0  0  0  0  0  0  0  0  0
   -3.8039    0.8618   -1.0171 H   0  0  0  0  0  0  0  0  0  0  0  0
   -0.1947    1.1606   -1.4218 H   0  0  0  0  0  0  0  0  0  0  0  0
   -1.6243    3.0034   -0.9247 H   0  0  0  0  0  0  0  0  0  0  0  0
  1  2  2  0
  2  3  1  0
  3  4  1  0
  4  5  2  0
  5  6  1  0
  6  7  2  0
  7  8  1  0
  8  9  2  0
  9 10  1  0
 10 11  1  0
 11 12  1  0
 12 13  1  0
 13 14  1  0
 14 15  1  0
 13 16  1  0
 16 17  1  0
 16 18  1  0
 18 19  1  0
  7  2  1  0
 18 11  1  0
 10  6  1  0
  3 20  1  0
  4 21  1  0
  9 22  1  0
 11 23  1  1
 13 24  1  6
 14 25  1  0
 14 26  1  0
 15 27  1  0
 16 28  1  6
 17 29  1  0
 18 30  1  6
 19 31  1  0
M  END
$$$$
OCNT-2328509
     RDKit          3D

 34 37  0  0  0  0  0  0  0  0999 V2000
   -2.5446   -0.8566    1.8283 N   0  0  0  0  0  0  0  0  0  0  0  0
   -1.8140   -1.3960    0.8289 C   0  0  0  0  0  0  0  0  0  0  0  0
   -1.6571   -2.6935    0.7382 N   0  0  0  0  0  0  0  0  0  0  0  0
   -0.7823   -2.8306   -0.4646 C   0  0  0  0  0  0  0  0  0  0  0  0
   -0.1397   -1.4434   -0.7047 C   0  0  0  0  0  0  0  0  0  0  0  0
    1.2142   -1.1695   -0.0706 C   0  0  0  0  0  0  0  0  0  0  0  0
    1.8216    0.0732   -0.3508 C   0  0  0  0  0  0  0  0  0  0  0  0
    3.0548    0.3968    0.2367 C   0  0  0  0  0  0  0  0  0  0  0  0
    3.6795   -0.4940    1.1065 C   0  0  0  0  0  0  0  0  0  0  0  0
    3.0749   -1.7106    1.4035 C   0  0  0  0  0  0  0  0  0  0  0  0
    1.8481   -2.0439    0.8262 C   0  0  0  0  0  0  0  0  0  0  0  0
    1.1533    1.0434   -1.2986 C   0  0  0  0  0  0  0  0  0  0  0  0
   -0.2183    1.5614   -0.8936 C   0  0  0  0  0  0  0  0  0  0  0  0
   -1.2598    0.7663   -0.3466 C   0  0  0  0  0  0  0  0  0  0  0  0
   -2.4979    1.4080   -0.1167 C   0  0  0  0  0  0  0  0  0  0  0  0
   -2.7096    2.7640   -0.3770 C   0  0  0  0  0  0  0  0  0  0  0  0
   -1.6819    3.5306   -0.8954 C   0  0  0  0  0  0  0  0  0  0  0  0
   -0.4542    2.9329   -1.1606 C   0  0  0  0  0  0  0  0  0  0  0  0
   -1.1275   -0.5983   -0.0477 N   0  0  0  0  0  0  0  0  0  0  0  0
   -2.7604   -1.5568    2.5292 H   0  0  0  0  0  0  0  0  0  0  0  0
   -2.0991   -0.0425    2.2354 H   0  0  0  0  0  0  0  0  0  0  0  0
   -1.4300   -3.0968   -1.3102 H   0  0  0  0  0  0  0  0  0  0  0  0
   -0.0618   -3.6429   -0.3401 H   0  0  0  0  0  0  0  0  0  0  0  0
   -0.0883   -1.2905   -1.7900 H   0  0  0  0  0  0  0  0  0  0  0  0
    3.5348    1.3496    0.0249 H   0  0  0  0  0  0  0  0  0  0  0  0
    4.6316   -0.2341    1.5613 H   0  0  0  0  0  0  0  0  0  0  0  0
    3.5511   -2.3989    2.0973 H   0  0  0  0  0  0  0  0  0  0  0  0
    1.3910   -2.9868    1.1154 H   0  0  0  0  0  0  0  0  0  0  0  0
    1.0763    0.5840   -2.2928 H   0  0  0  0  0  0  0  0  0  0  0  0
    1.8308    1.8971   -1.4364 H   0  0  0  0  0  0  0  0  0  0  0  0
   -3.3500    0.8356    0.2455 H   0  0  0  0  0  0  0  0  0  0  0  0
   -3.6827    3.2071   -0.1838 H   0  0  0  0  0  0  0  0  0  0  0  0
   -1.8365    4.5848   -1.1080 H   0  0  0  0  0  0  0  0  0  0  0  0
    0.3335    3.5508   -1.5891 H   0  0  0  0  0  0  0  0  0  0  0  0
  1  2  1  0
  2  3  2  0
  3  4  1  0
  4  5  1  0
  5  6  1  0
  6  7  1  0
  7  8  2  0
  8  9  1  0
  9 10  2  0
 10 11  1  0
  7 12  1  0
 12 13  1  0
 13 14  1  0
 14 15  2  0
 15 16  1  0
 16 17  2  0
 17 18  1  0
 14 19  1  0
 19  2  1  0
 19  5  1  0
 11  6  2  0
 18 13  2  0
  1 20  1  0
  1 21  1  0
  4 22  1  0
  4 23  1  0
  5 24  1  0
  8 25  1  0
  9 26  1  0
 10 27  1  0
 11 28  1  0
 12 29  1  0
 12 30  1  0
 15 31  1  0
 16 32  1  0
 17 33  1  0
 18 34  1  0
M  END
$$$$
OCNT-2328518
     RDKit          3D

 55 56  0  0  0  0  0  0  0  0999 V2000
    3.6222    3.0774   -2.3459 C   0  0  0  0  0  0  0  0  0  0  0  0
    3.0421    2.4629   -1.1065 C   0  0  0  0  0  0  0  0  0  0  0  0
    2.4276    1.2038   -1.1605 C   0  0  0  0  0  0  0  0  0  0  0  0
    1.8433    0.6174   -0.0193 C   0  0  0  0  0  0  0  0  0  0  0  0
    1.2011   -0.7620   -0.1529 C   0  0  2  0  0  0  0  0  0  0  0  0
   -0.3160   -0.7795    0.1766 C   0  0  0  0  0  0  0  0  0  0  0  0
   -1.1321    0.0798   -0.8108 C   0  0  0  0  0  0  0  0  0  0  0  0
   -2.5901    0.1228   -0.6039 N   0  0  0  0  0  0  0  0  0  0  0  0
   -3.0840    1.0962    0.3988 C   0  0  0  0  0  0  0  0  0  0  0  0
   -4.0313    2.0701   -0.3230 C   0  0  0  0  0  0  0  0  0  0  0  0
   -2.0643    1.9553    1.1682 C   0  0  0  0  0  0  0  0  0  0  0  0
   -3.2589   -1.2038   -0.5750 C   0  0  0  0  0  0  0  0  0  0  0  0
   -2.8623   -2.0904   -1.7728 C   0  0  0  0  0  0  0  0  0  0  0  0
   -4.7978   -1.1313   -0.5876 C   0  0  0  0  0  0  0  0  0  0  0  0
    2.0161   -1.8502    0.5509 C   0  0  0  0  0  0  0  0  0  0  0  0
    1.6864   -2.3409    1.8231 C   0  0  0  0  0  0  0  0  0  0  0  0
    2.4587   -3.3345    2.4305 C   0  0  0  0  0  0  0  0  0  0  0  0
    3.5764   -3.8489    1.7785 C   0  0  0  0  0  0  0  0  0  0  0  0
    3.9270   -3.3665    0.5207 C   0  0  0  0  0  0  0  0  0  0  0  0
    3.1554   -2.3736   -0.0867 C   0  0  0  0  0  0  0  0  0  0  0  0
    1.8927    1.3349    1.1819 C   0  0  0  0  0  0  0  0  0  0  0  0
    1.3431    0.8025    2.3133 O   0  0  0  0  0  0  0  0  0  0  0  0
    2.4885    2.5958    1.2463 C   0  0  0  0  0  0  0  0  0  0  0  0
    3.0554    3.1598    0.1037 C   0  0  0  0  0  0  0  0  0  0  0  0
    4.0299    2.3071   -3.0089 H   0  0  0  0  0  0  0  0  0  0  0  0
    2.8496    3.6356   -2.8834 H   0  0  0  0  0  0  0  0  0  0  0  0
    4.4428    3.7589   -2.0978 H   0  0  0  0  0  0  0  0  0  0  0  0
    2.4037    0.6712   -2.1100 H   0  0  0  0  0  0  0  0  0  0  0  0
    1.2425   -1.0396   -1.2179 H   0  0  0  0  0  0  0  0  0  0  0  0
   -0.5045   -0.4636    1.2044 H   0  0  0  0  0  0  0  0  0  0  0  0
   -0.6592   -1.8195    0.1213 H   0  0  0  0  0  0  0  0  0  0  0  0
   -0.7361    1.0991   -0.8551 H   0  0  0  0  0  0  0  0  0  0  0  0
   -0.9462   -0.2927   -1.8264 H   0  0  0  0  0  0  0  0  0  0  0  0
   -3.6477    0.5689    1.1775 H   0  0  0  0  0  0  0  0  0  0  0  0
   -4.4812    2.7715    0.3887 H   0  0  0  0  0  0  0  0  0  0  0  0
   -4.8548    1.5585   -0.8273 H   0  0  0  0  0  0  0  0  0  0  0  0
   -3.4939    2.6576   -1.0767 H   0  0  0  0  0  0  0  0  0  0  0  0
   -2.5867    2.6293    1.8582 H   0  0  0  0  0  0  0  0  0  0  0  0
   -1.4013    1.3459    1.7837 H   0  0  0  0  0  0  0  0  0  0  0  0
   -1.4629    2.5864    0.5064 H   0  0  0  0  0  0  0  0  0  0  0  0
   -2.9705   -1.7253    0.3465 H   0  0  0  0  0  0  0  0  0  0  0  0
   -1.8045   -2.3665   -1.7604 H   0  0  0  0  0  0  0  0  0  0  0  0
   -3.4249   -3.0312   -1.7631 H   0  0  0  0  0  0  0  0  0  0  0  0
   -3.0731   -1.5869   -2.7231 H   0  0  0  0  0  0  0  0  0  0  0  0
   -5.1649   -0.6277   -1.4884 H   0  0  0  0  0  0  0  0  0  0  0  0
   -5.2030   -0.6189    0.2891 H   0  0  0  0  0  0  0  0  0  0  0  0
   -5.2288   -2.1394   -0.5783 H   0  0  0  0  0  0  0  0  0  0  0  0
    0.8312   -1.9450    2.3647 H   0  0  0  0  0  0  0  0  0  0  0  0
    2.1881   -3.7011    3.4170 H   0  0  0  0  0  0  0  0  0  0  0  0
    4.1771   -4.6196    2.2534 H   0  0  0  0  0  0  0  0  0  0  0  0
    4.8034   -3.7590    0.0123 H   0  0  0  0  0  0  0  0  0  0  0  0
    3.4514   -2.0042   -1.0661 H   0  0  0  0  0  0  0  0  0  0  0  0
    1.6021    1.3501    3.0717 H   0  0  0  0  0  0  0  0  0  0  0  0
    2.5143    3.1566    2.1755 H   0  0  0  0  0  0  0  0  0  0  0  0
    3.5089    4.1463    0.1651 H   0  0  0  0  0  0  0  0  0  0  0  0
  1  2  1  0
  2  3  2  0
  3  4  1  0
  4  5  1  0
  5  6  1  0
  6  7  1  0
  7  8  1  0
  8  9  1  0
  9 10  1  0
  9 11  1  0
  8 12  1  0
 12 13  1  0
 12 14  1  0
  5 15  1  0
 15 16  2  0
 16 17  1  0
 17 18  2  0
 18 19  1  0
 19 20  2  0
  4 21  2  0
 21 22  1  0
 21 23  1  0
 23 24  2  0
 24  2  1  0
 20 15  1  0
  1 25  1  0
  1 26  1  0
  1 27  1  0
  3 28  1  0
  5 29  1  6
  6 30  1  0
  6 31  1  0
  7 32  1  0
  7 33  1  0
  9 34  1  0
 10 35  1  0
 10 36  1  0
 10 37  1  0
 11 38  1  0
 11 39  1  0
 11 40  1  0
 12 41  1  0
 13 42  1  0
 13 43  1  0
 13 44  1  0
 14 45  1  0
 14 46  1  0
 14 47  1  0
 16 48  1  0
 17 49  1  0
 18 50  1  0
 19 51  1  0
 20 52  1  0
 22 53  1  0
 23 54  1  0
 24 55  1  0
M  END
$$$$
OCNT-2328527
     RDKit          3D

 31 32  0  0  0  0  0  0  0  0999 V2000
   -1.4842   -1.1361    1.1823 C   0  0  0  0  0  0  0  0  0  0  0  0
   -1.3449   -0.3281   -0.1249 C   0  0  0  0  0  0  0  0  0  0  0  0
   -1.3886   -1.2959   -1.3227 C   0  0  0  0  0  0  0  0  0  0  0  0
   -2.5851    0.4460   -0.2362 N   0  0  0  0  0  0  0  0  0  0  0  0
   -2.5321    1.7027    0.0164 C   0  0  0  0  0  0  0  0  0  0  0  0
   -3.6772    2.4237   -0.0524 N   0  0  0  0  0  0  0  0  0  0  0  0
   -1.4185    2.3830    0.3780 N   0  0  0  0  0  0  0  0  0  0  0  0
   -0.2813    1.7777    0.2716 C   0  0  0  0  0  0  0  0  0  0  0  0
    0.8381    2.5040    0.5482 N   0  0  0  0  0  0  0  0  0  0  0  0
   -0.1067    0.4779   -0.1320 N   0  0  0  0  0  0  0  0  0  0  0  0
    1.1174   -0.2134    0.0147 C   0  0  0  0  0  0  0  0  0  0  0  0
    1.7688   -0.7403   -1.1109 C   0  0  0  0  0  0  0  0  0  0  0  0
    2.9885   -1.4125   -0.9875 C   0  0  0  0  0  0  0  0  0  0  0  0
    3.5757   -1.5545    0.2668 C   0  0  0  0  0  0  0  0  0  0  0  0
    5.0770   -2.3795    0.4201 Cl  0  0  0  0  0  0  0  0  0  0  0  0
    2.9579   -1.0246    1.3958 C   0  0  0  0  0  0  0  0  0  0  0  0
    1.7387   -0.3534    1.2672 C   0  0  0  0  0  0  0  0  0  0  0  0
   -1.4350   -0.4797    2.0590 H   0  0  0  0  0  0  0  0  0  0  0  0
   -0.7022   -1.8956    1.2847 H   0  0  0  0  0  0  0  0  0  0  0  0
   -2.4481   -1.6579    1.2221 H   0  0  0  0  0  0  0  0  0  0  0  0
   -2.3601   -1.8017   -1.3864 H   0  0  0  0  0  0  0  0  0  0  0  0
   -0.6279   -2.0798   -1.2532 H   0  0  0  0  0  0  0  0  0  0  0  0
   -1.2419   -0.7579   -2.2666 H   0  0  0  0  0  0  0  0  0  0  0  0
   -4.4977    1.8439    0.0572 H   0  0  0  0  0  0  0  0  0  0  0  0
   -3.6516    3.2345    0.5504 H   0  0  0  0  0  0  0  0  0  0  0  0
    1.6072    2.3144   -0.0825 H   0  0  0  0  0  0  0  0  0  0  0  0
    0.6243    3.4937    0.5973 H   0  0  0  0  0  0  0  0  0  0  0  0
    1.3309   -0.6175   -2.0991 H   0  0  0  0  0  0  0  0  0  0  0  0
    3.4733   -1.8156   -1.8726 H   0  0  0  0  0  0  0  0  0  0  0  0
    3.4166   -1.1242    2.3757 H   0  0  0  0  0  0  0  0  0  0  0  0
    1.2687    0.0671    2.1544 H   0  0  0  0  0  0  0  0  0  0  0  0
  1  2  1  0
  2  3  1  0
  2  4  1  0
  4  5  2  0
  5  6  1  0
  5  7  1  0
  7  8  2  0
  8  9  1  0
  8 10  1  0
 10 11  1  0
 11 12  1  0
 12 13  2  0
 13 14  1  0
 14 15  1  0
 14 16  2  0
 16 17  1  0
 10  2  1  0
 17 11  2  0
  1 18  1  0
  1 19  1  0
  1 20  1  0
  3 21  1  0
  3 22  1  0
  3 23  1  0
  6 24  1  0
  6 25  1  0
  9 26  1  0
  9 27  1  0
 12 28  1  0
 13 29  1  0
 16 30  1  0
 17 31  1  0
M  END
$$$$
OCNT-2328533
     RDKit          3D

 43 45  0  0  0  0  0  0  0  0999 V2000
    3.3415   -4.0817   -0.4666 C   0  0  0  0  0  0  0  0  0  0  0  0
    2.6729   -2.7428   -0.3648 C   0  0  0  0  0  0  0  0  0  0  0  0
    3.0798   -1.6831   -1.1845 C   0  0  0  0  0  0  0  0  0  0  0  0
    2.4351   -0.4455   -1.1148 C   0  0  0  0  0  0  0  0  0  0  0  0
    1.3661   -0.2540   -0.2318 C   0  0  0  0  0  0  0  0  0  0  0  0
    0.6996    1.0681   -0.1496 C   0  0  0  0  0  0  0  0  0  0  0  0
   -0.5568    1.1931   -0.6391 C   0  0  0  0  0  0  0  0  0  0  0  0
   -1.4009    0.1604   -1.3336 C   0  0  0  0  0  0  0  0  0  0  0  0
   -2.4942   -0.3146   -0.4824 N   0  0  0  0  0  0  0  0  0  0  0  0
   -3.1984   -1.4457   -1.0883 C   0  0  0  0  0  0  0  0  0  0  0  0
   -4.4639   -1.5467   -0.2523 C   0  0  0  0  0  0  0  0  0  0  0  0
   -4.7044   -0.1359    0.2725 C   0  0  0  0  0  0  0  0  0  0  0  0
   -3.5341    0.6888   -0.2454 C   0  0  0  0  0  0  0  0  0  0  0  0
    1.3565    2.2715    0.4517 C   0  0  0  0  0  0  0  0  0  0  0  0
    0.8854    3.4920    0.0836 N   0  0  0  0  0  0  0  0  0  0  0  0
    1.4820    4.5831    0.6115 C   0  0  0  0  0  0  0  0  0  0  0  0
    2.5417    4.5300    1.4987 C   0  0  0  0  0  0  0  0  0  0  0  0
    3.0196    3.2809    1.8689 C   0  0  0  0  0  0  0  0  0  0  0  0
    2.4233    2.1372    1.3405 C   0  0  0  0  0  0  0  0  0  0  0  0
    0.9502   -1.3172    0.5794 C   0  0  0  0  0  0  0  0  0  0  0  0
    1.5947   -2.5543    0.5078 C   0  0  0  0  0  0  0  0  0  0  0  0
    3.3117   -4.6072    0.4937 H   0  0  0  0  0  0  0  0  0  0  0  0
    2.8389   -4.6944   -1.2213 H   0  0  0  0  0  0  0  0  0  0  0  0
    4.3953   -3.9721   -0.7437 H   0  0  0  0  0  0  0  0  0  0  0  0
    3.9019   -1.8140   -1.8845 H   0  0  0  0  0  0  0  0  0  0  0  0
    2.7668    0.3673   -1.7572 H   0  0  0  0  0  0  0  0  0  0  0  0
   -1.0450    2.1639   -0.5637 H   0  0  0  0  0  0  0  0  0  0  0  0
   -0.7871   -0.6923   -1.6445 H   0  0  0  0  0  0  0  0  0  0  0  0
   -1.7872    0.5956   -2.2651 H   0  0  0  0  0  0  0  0  0  0  0  0
   -2.6128   -2.3694   -1.0427 H   0  0  0  0  0  0  0  0  0  0  0  0
   -3.4591   -1.2471   -2.1359 H   0  0  0  0  0  0  0  0  0  0  0  0
   -5.3103   -1.9116   -0.8426 H   0  0  0  0  0  0  0  0  0  0  0  0
   -4.3191   -2.2349    0.5890 H   0  0  0  0  0  0  0  0  0  0  0  0
   -5.6610    0.2671   -0.0755 H   0  0  0  0  0  0  0  0  0  0  0  0
   -4.7221   -0.1451    1.3686 H   0  0  0  0  0  0  0  0  0  0  0  0
   -3.8252    1.1990   -1.1726 H   0  0  0  0  0  0  0  0  0  0  0  0
   -3.2304    1.4433    0.4872 H   0  0  0  0  0  0  0  0  0  0  0  0
    1.0696    5.5348    0.2892 H   0  0  0  0  0  0  0  0  0  0  0  0
    2.9822    5.4390    1.8917 H   0  0  0  0  0  0  0  0  0  0  0  0
    3.8490    3.1923    2.5645 H   0  0  0  0  0  0  0  0  0  0  0  0
    2.7914    1.1591    1.6331 H   0  0  0  0  0  0  0  0  0  0  0  0
    0.1114   -1.1874    1.2610 H   0  0  0  0  0  0  0  0  0  0  0  0
    1.2456   -3.3698    1.1372 H   0  0  0  0  0  0  0  0  0  0  0  0
  1  2  1  0
  2  3  1  0
  3  4  2  0
  4  5  1  0
  5  6  1  0
  6  7  2  0
  7  8  1  0
  8  9  1  0
  9 10  1  0
 10 11  1  0
 11 12  1  0
 12 13  1  0
  6 14  1  0
 14 15  1  0
 15 16  2  0
 16 17  1  0
 17 18  2  0
 18 19  1  0
  5 20  2  0
 20 21  1  0
 21  2  2  0
 13  9  1  0
 19 14  2  0
  1 22  1  0
  1 23  1  0
  1 24  1  0
  3 25  1  0
  4 26  1  0
  7 27  1  0
  8 28  1  0
  8 29  1  0
 10 30  1  0
 10 31  1  0
 11 32  1  0
 11 33  1  0
 12 34  1  0
 12 35  1  0
 13 36  1  0
 13 37  1  0
 16 38  1  0
 17 39  1  0
 18 40  1  0
 19 41  1  0
 20 42  1  0
 21 43  1  0
M  END
$$$$
OCNT-2328534
     RDKit          3D

 36 38  0  0  0  0  0  0  0  0999 V2000
   -1.3938    3.2213    0.1073 C   0  0  0  0  0  0  0  0  0  0  0  0
   -0.9219    1.8401    0.0477 N   0  0  0  0  0  0  0  0  0  0  0  0
   -1.9695    0.9590   -0.4982 C   0  0  0  0  0  0  0  0  0  0  0  0
   -1.5292   -0.4757   -0.7308 C   0  0  0  0  0  0  0  0  0  0  0  0
   -2.4822   -1.5094   -0.8709 C   0  0  0  0  0  0  0  0  0  0  0  0
   -3.8672   -1.2567   -0.8754 N   0  0  0  0  0  0  0  0  0  0  0  0
   -2.0490   -2.7923   -1.2377 C   0  0  0  0  0  0  0  0  0  0  0  0
   -0.6948   -3.0871   -1.3726 C   0  0  0  0  0  0  0  0  0  0  0  0
    0.2494   -2.0849   -1.1917 C   0  0  0  0  0  0  0  0  0  0  0  0
   -0.1536   -0.7737   -0.8899 C   0  0  0  0  0  0  0  0  0  0  0  0
    0.9057    0.3132   -0.7499 C   0  0  0  0  0  0  0  0  0  0  0  0
    1.8228    0.1039    0.4532 C   0  0  0  0  0  0  0  0  0  0  0  0
    1.3170    0.0447    1.7611 C   0  0  0  0  0  0  0  0  0  0  0  0
    2.1713   -0.1445    2.8488 C   0  0  0  0  0  0  0  0  0  0  0  0
    3.5428   -0.2767    2.6449 C   0  0  0  0  0  0  0  0  0  0  0  0
    4.0614   -0.2196    1.3533 C   0  0  0  0  0  0  0  0  0  0  0  0
    3.2082   -0.0303    0.2640 C   0  0  0  0  0  0  0  0  0  0  0  0
    0.2947    1.7373   -0.7730 C   0  0  0  0  0  0  0  0  0  0  0  0
   -0.6337    3.8671    0.5607 H   0  0  0  0  0  0  0  0  0  0  0  0
   -2.2858    3.2964    0.7392 H   0  0  0  0  0  0  0  0  0  0  0  0
   -1.6384    3.6209   -0.8836 H   0  0  0  0  0  0  0  0  0  0  0  0
   -2.3488    1.3501   -1.4519 H   0  0  0  0  0  0  0  0  0  0  0  0
   -2.7921    0.9629    0.2256 H   0  0  0  0  0  0  0  0  0  0  0  0
   -4.1538   -0.5078   -0.2555 H   0  0  0  0  0  0  0  0  0  0  0  0
   -4.4229   -2.0923   -0.7170 H   0  0  0  0  0  0  0  0  0  0  0  0
   -2.7739   -3.5818   -1.4189 H   0  0  0  0  0  0  0  0  0  0  0  0
   -0.3793   -4.0937   -1.6316 H   0  0  0  0  0  0  0  0  0  0  0  0
    1.3054   -2.3225   -1.3011 H   0  0  0  0  0  0  0  0  0  0  0  0
    1.5253    0.2475   -1.6567 H   0  0  0  0  0  0  0  0  0  0  0  0
    0.2481    0.1456    1.9391 H   0  0  0  0  0  0  0  0  0  0  0  0
    1.7625   -0.1887    3.8545 H   0  0  0  0  0  0  0  0  0  0  0  0
    4.2063   -0.4244    3.4925 H   0  0  0  0  0  0  0  0  0  0  0  0
    5.1312   -0.3230    1.1933 H   0  0  0  0  0  0  0  0  0  0  0  0
    3.6347    0.0106   -0.7355 H   0  0  0  0  0  0  0  0  0  0  0  0
    1.0473    2.4600   -0.4306 H   0  0  0  0  0  0  0  0  0  0  0  0
    0.0558    2.0045   -1.8127 H   0  0  0  0  0  0  0  0  0  0  0  0
  1  2  1  0
  2  3  1  0
  3  4  1  0
  4  5  2  0
  5  6  1  0
  5  7  1  0
  7  8  2  0
  8  9  1  0
  9 10  2  0
 10 11  1  0
 11 12  1  0
 12 13  2  0
 13 14  1  0
 14 15  2  0
 15 16  1  0
 16 17  2  0
 11 18  1  0
 18  2  1  0
 10  4  1  0
 17 12  1  0
  1 19  1  0
  1 20  1  0
  1 21  1  0
  3 22  1  0
  3 23  1  0
  6 24  1  0
  6 25  1  0
  7 26  1  0
  8 27  1  0
  9 28  1  0
 11 29  1  0
 13 30  1  0
 14 31  1  0
 15 32  1  0
 16 33  1  0
 17 34  1  0
 18 35  1  0
 18 36  1  0
M  END
$$$$
OCNT-2328540
     RDKit          3D

 59 60  0  0  0  0  0  0  0  0999 V2000
    4.6108   -0.6937    2.4409 C   0  0  0  0  0  0  0  0  0  0  0  0
    3.5800   -1.5672    1.7322 C   0  0  0  0  0  0  0  0  0  0  0  0
    3.2301   -1.1037    0.2899 N   0  0  0  0  0  0  0  0  0  0  0  0
    4.4534   -1.3559   -0.6117 C   0  0  0  0  0  0  0  0  0  0  0  0
    2.0628   -2.0087   -0.1824 C   0  0  0  0  0  0  0  0  0  0  0  0
    1.6043   -1.7510   -1.6072 C   0  0  0  0  0  0  0  0  0  0  0  0
    2.8813    0.4111    0.1936 C   0  0  0  0  0  0  0  0  0  0  0  0
    1.7388    0.8794    1.1107 C   0  0  0  0  0  0  0  0  0  0  0  0
    0.4138    0.6195    0.6107 O   0  0  0  0  0  0  0  0  0  0  0  0
   -0.0245    1.5287   -0.3080 C   0  0  0  0  0  0  0  0  0  0  0  0
    0.7578    2.1857   -0.9943 O   0  0  0  0  0  0  0  0  0  0  0  0
   -1.5716    1.6675   -0.4169 C   0  0  0  0  0  0  0  0  0  0  0  0
   -1.7464    2.7787   -1.3452 O   0  0  0  0  0  0  0  0  0  0  0  0
   -2.2395    2.1131    0.8982 C   0  0  0  0  0  0  0  0  0  0  0  0
   -1.9908    1.4857    2.1329 C   0  0  0  0  0  0  0  0  0  0  0  0
   -2.6063    1.9227    3.3117 C   0  0  0  0  0  0  0  0  0  0  0  0
   -3.4972    2.9913    3.2847 C   0  0  0  0  0  0  0  0  0  0  0  0
   -3.7834    3.6129    2.0768 C   0  0  0  0  0  0  0  0  0  0  0  0
   -3.1682    3.1745    0.9005 C   0  0  0  0  0  0  0  0  0  0  0  0
   -2.2937    0.4457   -1.0720 C   0  0  0  0  0  0  0  0  0  0  0  0
   -2.1523   -0.8849   -0.3074 C   0  0  0  0  0  0  0  0  0  0  0  0
   -2.9245   -2.0200   -0.9789 C   0  0  0  0  0  0  0  0  0  0  0  0
   -2.5190   -2.2013   -2.4342 C   0  0  0  0  0  0  0  0  0  0  0  0
   -2.6530   -0.9009   -3.2122 C   0  0  0  0  0  0  0  0  0  0  0  0
   -1.8962    0.2489   -2.5549 C   0  0  0  0  0  0  0  0  0  0  0  0
    4.8448   -1.1282    3.4231 H   0  0  0  0  0  0  0  0  0  0  0  0
    4.2380    0.3184    2.6227 H   0  0  0  0  0  0  0  0  0  0  0  0
    5.5485   -0.6173    1.8886 H   0  0  0  0  0  0  0  0  0  0  0  0
    3.9537   -2.5977    1.6545 H   0  0  0  0  0  0  0  0  0  0  0  0
    2.6442   -1.5947    2.3057 H   0  0  0  0  0  0  0  0  0  0  0  0
    5.3056   -0.7880   -0.2271 H   0  0  0  0  0  0  0  0  0  0  0  0
    4.2285   -1.0039   -1.6234 H   0  0  0  0  0  0  0  0  0  0  0  0
    4.6700   -2.4293   -0.6084 H   0  0  0  0  0  0  0  0  0  0  0  0
    1.2311   -1.8587    0.5154 H   0  0  0  0  0  0  0  0  0  0  0  0
    2.4064   -3.0464   -0.0848 H   0  0  0  0  0  0  0  0  0  0  0  0
    1.1467   -0.7662   -1.7114 H   0  0  0  0  0  0  0  0  0  0  0  0
    2.4033   -1.8248   -2.3426 H   0  0  0  0  0  0  0  0  0  0  0  0
    0.8440   -2.4896   -1.8847 H   0  0  0  0  0  0  0  0  0  0  0  0
    3.7990    0.9444    0.4577 H   0  0  0  0  0  0  0  0  0  0  0  0
    2.6756    0.6145   -0.8580 H   0  0  0  0  0  0  0  0  0  0  0  0
    1.8421    1.9586    1.2828 H   0  0  0  0  0  0  0  0  0  0  0  0
    1.7974    0.4221    2.1004 H   0  0  0  0  0  0  0  0  0  0  0  0
   -0.9502    2.8221   -1.9130 H   0  0  0  0  0  0  0  0  0  0  0  0
   -1.3244    0.6329    2.2167 H   0  0  0  0  0  0  0  0  0  0  0  0
   -2.3992    1.4223    4.2543 H   0  0  0  0  0  0  0  0  0  0  0  0
   -3.9745    3.3338    4.2012 H   0  0  0  0  0  0  0  0  0  0  0  0
   -4.4869    4.4410    2.0431 H   0  0  0  0  0  0  0  0  0  0  0  0
   -3.4283    3.6876   -0.0258 H   0  0  0  0  0  0  0  0  0  0  0  0
   -3.3682    0.6882   -1.0886 H   0  0  0  0  0  0  0  0  0  0  0  0
   -2.5241   -0.7884    0.7174 H   0  0  0  0  0  0  0  0  0  0  0  0
   -1.0999   -1.1769   -0.2432 H   0  0  0  0  0  0  0  0  0  0  0  0
   -2.7496   -2.9509   -0.4296 H   0  0  0  0  0  0  0  0  0  0  0  0
   -3.9990   -1.8146   -0.9200 H   0  0  0  0  0  0  0  0  0  0  0  0
   -3.1411   -2.9734   -2.8996 H   0  0  0  0  0  0  0  0  0  0  0  0
   -1.4844   -2.5536   -2.4856 H   0  0  0  0  0  0  0  0  0  0  0  0
   -3.7120   -0.6370   -3.2967 H   0  0  0  0  0  0  0  0  0  0  0  0
   -2.2824   -1.0441   -4.2318 H   0  0  0  0  0  0  0  0  0  0  0  0
   -0.8199    0.0620   -2.6347 H   0  0  0  0  0  0  0  0  0  0  0  0
   -2.1016    1.1579   -3.1320 H   0  0  0  0  0  0  0  0  0  0  0  0
  1  2  1  0
  2  3  1  0
  3  4  1  0
  3  5  1  0
  5  6  1  0
  3  7  1  0
  7  8  1  0
  8  9  1  0
  9 10  1  0
 10 11  2  0
 10 12  1  0
 12 13  1  0
 12 14  1  0
 14 15  2  0
 15 16  1  0
 16 17  2  0
 17 18  1  0
 18 19  2  0
 12 20  1  0
 20 21  1  0
 21 22  1  0
 22 23  1  0
 23 24  1  0
 24 25  1  0
 19 14  1  0
 25 20  1  0
  1 26  1  0
  1 27  1  0
  1 28  1  0
  2 29  1  0
  2 30  1  0
  4 31  1  0
  4 32  1  0
  4 33  1  0
  5 34  1  0
  5 35  1  0
  6 36  1  0
  6 37  1  0
  6 38  1  0
  7 39  1  0
  7 40  1  0
  8 41  1  0
  8 42  1  0
 13 43  1  0
 15 44  1  0
 16 45  1  0
 17 46  1  0
 18 47  1  0
 19 48  1  0
 20 49  1  0
 21 50  1  0
 21 51  1  0
 22 52  1  0
 22 53  1  0
 23 54  1  0
 23 55  1  0
 24 56  1  0
 24 57  1  0
 25 58  1  0
 25 59  1  0
M  CHG  1   3   1
M  END
$$$$
OCNT-2328544
     RDKit          3D

 43 44  0  0  0  0  0  0  0  0999 V2000
   -5.1206   -0.6969    0.4747 C   0  0  0  0  0  0  0  0  0  0  0  0
   -4.0412    0.0176   -0.2130 N   0  0  0  0  0  0  0  0  0  0  0  0
   -4.1282    1.4481    0.0903 C   0  0  0  0  0  0  0  0  0  0  0  0
   -2.7371   -0.5459    0.1863 C   0  0  0  0  0  0  0  0  0  0  0  0
   -1.5523   -0.0533   -0.6603 C   0  0  0  0  0  0  0  0  0  0  0  0
   -0.3797   -0.7578   -0.2402 O   0  0  0  0  0  0  0  0  0  0  0  0
    0.8880   -0.2339   -0.7043 C   0  0  0  0  0  0  0  0  0  0  0  0
    0.8720   -0.0985   -2.2437 C   0  0  0  0  0  0  0  0  0  0  0  0
    1.1589    1.0723    0.0667 C   0  0  0  0  0  0  0  0  0  0  0  0
    1.5148    2.2757   -0.5659 C   0  0  0  0  0  0  0  0  0  0  0  0
    1.7525    3.4350    0.1789 C   0  0  0  0  0  0  0  0  0  0  0  0
    1.6411    3.4135    1.5667 C   0  0  0  0  0  0  0  0  0  0  0  0
    1.2925    2.2330    2.2150 C   0  0  0  0  0  0  0  0  0  0  0  0
    1.0545    1.0750    1.4731 C   0  0  0  0  0  0  0  0  0  0  0  0
    1.9677   -1.2987   -0.3806 C   0  0  0  0  0  0  0  0  0  0  0  0
    1.6187   -2.6345   -0.1046 C   0  0  0  0  0  0  0  0  0  0  0  0
    2.5967   -3.5966    0.1647 C   0  0  0  0  0  0  0  0  0  0  0  0
    3.9409   -3.2375    0.1546 C   0  0  0  0  0  0  0  0  0  0  0  0
    5.2638   -4.5374    0.5191 Br  0  0  0  0  0  0  0  0  0  0  0  0
    4.3170   -1.9276   -0.1258 C   0  0  0  0  0  0  0  0  0  0  0  0
    3.3378   -0.9671   -0.3956 C   0  0  0  0  0  0  0  0  0  0  0  0
   -5.0494   -0.6048    1.5646 H   0  0  0  0  0  0  0  0  0  0  0  0
   -5.1048   -1.7615    0.2155 H   0  0  0  0  0  0  0  0  0  0  0  0
   -6.0980   -0.3152    0.1586 H   0  0  0  0  0  0  0  0  0  0  0  0
   -3.9586    1.6572    1.1528 H   0  0  0  0  0  0  0  0  0  0  0  0
   -3.4057    2.0225   -0.4976 H   0  0  0  0  0  0  0  0  0  0  0  0
   -5.1157    1.8387   -0.1816 H   0  0  0  0  0  0  0  0  0  0  0  0
   -2.5311   -0.3572    1.2488 H   0  0  0  0  0  0  0  0  0  0  0  0
   -2.7679   -1.6395    0.0835 H   0  0  0  0  0  0  0  0  0  0  0  0
   -1.7462   -0.2733   -1.7155 H   0  0  0  0  0  0  0  0  0  0  0  0
   -1.4159    1.0244   -0.5355 H   0  0  0  0  0  0  0  0  0  0  0  0
    1.8547    0.1709   -2.6481 H   0  0  0  0  0  0  0  0  0  0  0  0
    0.1618    0.6643   -2.5823 H   0  0  0  0  0  0  0  0  0  0  0  0
    0.5645   -1.0407   -2.7142 H   0  0  0  0  0  0  0  0  0  0  0  0
    1.6170    2.3374   -1.6459 H   0  0  0  0  0  0  0  0  0  0  0  0
    2.0270    4.3572   -0.3274 H   0  0  0  0  0  0  0  0  0  0  0  0
    1.8280    4.3159    2.1427 H   0  0  0  0  0  0  0  0  0  0  0  0
    1.2069    2.2095    3.2982 H   0  0  0  0  0  0  0  0  0  0  0  0
    0.7839    0.1584    1.9960 H   0  0  0  0  0  0  0  0  0  0  0  0
    0.5739   -2.9397   -0.0967 H   0  0  0  0  0  0  0  0  0  0  0  0
    2.2957   -4.6185    0.3790 H   0  0  0  0  0  0  0  0  0  0  0  0
    5.3651   -1.6410   -0.1370 H   0  0  0  0  0  0  0  0  0  0  0  0
    3.6569    0.0504   -0.6139 H   0  0  0  0  0  0  0  0  0  0  0  0
  1  2  1  0
  2  3  1  0
  2  4  1  0
  4  5  1  0
  5  6  1  0
  6  7  1  0
  7  8  1  0
  7  9  1  0
  9 10  2  0
 10 11  1  0
 11 12  2  0
 12 13  1  0
 13 14  2  0
  7 15  1  0
 15 16  1  0
 16 17  2  0
 17 18  1  0
 18 19  1  0
 18 20  2  0
 20 21  1  0
 14  9  1  0
 21 15  2  0
  1 22  1  0
  1 23  1  0
  1 24  1  0
  3 25  1  0
  3 26  1  0
  3 27  1  0
  4 28  1  0
  4 29  1  0
  5 30  1  0
  5 31  1  0
  8 32  1  0
  8 33  1  0
  8 34  1  0
 10 35  1  0
 11 36  1  0
 12 37  1  0
 13 38  1  0
 14 39  1  0
 16 40  1  0
 17 41  1  0
 20 42  1  0
 21 43  1  0
M  END
$$$$
OCNT-2328546
     RDKit          3D

 56 59  0  0  0  0  0  0  0  0999 V2000
    7.7182   -0.0161   -3.3383 C   0  0  0  0  0  0  0  0  0  0  0  0
    6.4188    0.1211   -2.7840 O   0  0  0  0  0  0  0  0  0  0  0  0
    6.3165    0.6699   -1.5288 C   0  0  0  0  0  0  0  0  0  0  0  0
    7.4058    1.1095   -0.7674 C   0  0  0  0  0  0  0  0  0  0  0  0
    7.2048    1.6524    0.5033 C   0  0  0  0  0  0  0  0  0  0  0  0
    5.9171    1.7648    1.0173 C   0  0  0  0  0  0  0  0  0  0  0  0
    4.8226    1.3308    0.2659 C   0  0  0  0  0  0  0  0  0  0  0  0
    5.0110    0.7747   -1.0043 C   0  0  0  0  0  0  0  0  0  0  0  0
    4.0029    0.3131   -1.8138 O   0  0  0  0  0  0  0  0  0  0  0  0
    2.6816    0.1833   -1.2884 C   0  0  0  0  0  0  0  0  0  0  0  0
    2.5458   -1.0708   -0.4097 C   0  0  0  0  0  0  0  0  0  0  0  0
    1.1768   -1.3632    0.0370 N   0  0  0  0  0  0  0  0  0  0  0  0
    0.6552   -0.3505    0.9676 C   0  0  0  0  0  0  0  0  0  0  0  0
   -0.6235   -0.8372    1.6735 C   0  0  0  0  0  0  0  0  0  0  0  0
   -0.3138   -2.0158    2.4372 O   0  0  0  0  0  0  0  0  0  0  0  0
   -1.7662   -1.1413    0.6981 C   0  0  0  0  0  0  0  0  0  0  0  0
   -2.9248   -1.4655    1.4942 O   0  0  0  0  0  0  0  0  0  0  0  0
   -3.9969   -1.7080    0.6611 C   0  0  0  0  0  0  0  0  0  0  0  0
   -4.1980   -3.0146    0.2013 C   0  0  0  0  0  0  0  0  0  0  0  0
   -5.2691   -3.3063   -0.6384 C   0  0  0  0  0  0  0  0  0  0  0  0
   -6.1680   -2.3095   -1.0303 C   0  0  0  0  0  0  0  0  0  0  0  0
   -5.9656   -1.0145   -0.5348 C   0  0  0  0  0  0  0  0  0  0  0  0
   -4.9090   -0.6857    0.3159 C   0  0  0  0  0  0  0  0  0  0  0  0
   -5.0374    0.7064    0.6345 C   0  0  0  0  0  0  0  0  0  0  0  0
   -4.3076    1.6028    1.4441 C   0  0  0  0  0  0  0  0  0  0  0  0
   -4.7122    2.9394    1.5353 C   0  0  0  0  0  0  0  0  0  0  0  0
   -5.8272    3.3917    0.8348 C   0  0  0  0  0  0  0  0  0  0  0  0
   -6.5719    2.5247    0.0295 C   0  0  0  0  0  0  0  0  0  0  0  0
   -6.1537    1.1908   -0.0476 C   0  0  0  0  0  0  0  0  0  0  0  0
   -6.6915    0.1343   -0.7419 N   0  0  0  0  0  0  0  0  0  0  0  0
    8.3402   -0.6826   -2.7317 H   0  0  0  0  0  0  0  0  0  0  0  0
    8.1961    0.9596   -3.4756 H   0  0  0  0  0  0  0  0  0  0  0  0
    7.6130   -0.4734   -4.3269 H   0  0  0  0  0  0  0  0  0  0  0  0
    8.4247    1.0412   -1.1335 H   0  0  0  0  0  0  0  0  0  0  0  0
    8.0559    1.9879    1.0909 H   0  0  0  0  0  0  0  0  0  0  0  0
    5.7621    2.1906    2.0060 H   0  0  0  0  0  0  0  0  0  0  0  0
    3.8381    1.4415    0.7045 H   0  0  0  0  0  0  0  0  0  0  0  0
    2.0227    0.0707   -2.1558 H   0  0  0  0  0  0  0  0  0  0  0  0
    2.3602    1.1026   -0.7884 H   0  0  0  0  0  0  0  0  0  0  0  0
    2.9008   -1.9305   -0.9920 H   0  0  0  0  0  0  0  0  0  0  0  0
    3.2173   -1.0175    0.4548 H   0  0  0  0  0  0  0  0  0  0  0  0
    1.1882   -2.2542    0.5463 H   0  0  0  0  0  0  0  0  0  0  0  0
    1.4088   -0.1424    1.7364 H   0  0  0  0  0  0  0  0  0  0  0  0
    0.4388    0.5793    0.4321 H   0  0  0  0  0  0  0  0  0  0  0  0
   -0.9479   -0.0783    2.3950 H   0  0  0  0  0  0  0  0  0  0  0  0
   -1.1741   -2.3560    2.7506 H   0  0  0  0  0  0  0  0  0  0  0  0
   -1.5117   -2.0039    0.0702 H   0  0  0  0  0  0  0  0  0  0  0  0
   -1.9691   -0.2658    0.0698 H   0  0  0  0  0  0  0  0  0  0  0  0
   -3.5120   -3.8029    0.4966 H   0  0  0  0  0  0  0  0  0  0  0  0
   -5.4092   -4.3241   -0.9955 H   0  0  0  0  0  0  0  0  0  0  0  0
   -7.0011   -2.5422   -1.6869 H   0  0  0  0  0  0  0  0  0  0  0  0
   -3.4426    1.2568    2.0016 H   0  0  0  0  0  0  0  0  0  0  0  0
   -4.1515    3.6278    2.1624 H   0  0  0  0  0  0  0  0  0  0  0  0
   -6.1290    4.4328    0.9190 H   0  0  0  0  0  0  0  0  0  0  0  0
   -7.4436    2.8791   -0.5100 H   0  0  0  0  0  0  0  0  0  0  0  0
   -7.5161    0.1934   -1.3216 H   0  0  0  0  0  0  0  0  0  0  0  0
  1  2  1  0
  2  3  1  0
  3  4  2  0
  4  5  1  0
  5  6  2  0
  6  7  1  0
  7  8  2  0
  8  9  1  0
  9 10  1  0
 10 11  1  0
 11 12  1  0
 12 13  1  0
 13 14  1  0
 14 15  1  0
 14 16  1  0
 16 17  1  0
 17 18  1  0
 18 19  1  0
 19 20  2  0
 20 21  1  0
 21 22  2  0
 22 23  1  0
 23 24  1  0
 24 25  2  0
 25 26  1  0
 26 27  2  0
 27 28  1  0
 28 29  2  0
 29 30  1  0
  8  3  1  0
 23 18  2  0
 29 24  1  0
 30 22  1  0
  1 31  1  0
  1 32  1  0
  1 33  1  0
  4 34  1  0
  5 35  1  0
  6 36  1  0
  7 37  1  0
 10 38  1  0
 10 39  1  0
 11 40  1  0
 11 41  1  0
 12 42  1  0
 13 43  1  0
 13 44  1  0
 14 45  1  0
 15 46  1  0
 16 47  1  0
 16 48  1  0
 19 49  1  0
 20 50  1  0
 21 51  1  0
 25 52  1  0
 26 53  1  0
 27 54  1  0
 28 55  1  0
 30 56  1  0
M  END
$$$$
OCNT-2328552
     RDKit          3D

 36 39  0  0  0  0  0  0  0  0999 V2000
    4.1632   -0.6135   -0.2546 C   0  0  0  0  0  0  0  0  0  0  0  0
    2.8940   -0.3334    0.3969 N   0  0  0  0  0  0  0  0  0  0  0  0
    2.2017    0.8429   -0.1577 C   0  0  0  0  0  0  0  0  0  0  0  0
    0.7140    0.4524   -0.2942 C   0  0  2  0  0  0  0  0  0  0  0  0
   -0.2862    1.5686   -0.0770 C   0  0  0  0  0  0  0  0  0  0  0  0
   -1.4660    1.4331    0.6752 C   0  0  0  0  0  0  0  0  0  0  0  0
   -2.3374    2.5205    0.8338 C   0  0  0  0  0  0  0  0  0  0  0  0
   -2.0789    3.7372    0.2086 C   0  0  0  0  0  0  0  0  0  0  0  0
   -0.9411    3.8760   -0.5758 C   0  0  0  0  0  0  0  0  0  0  0  0
   -0.0581    2.8034   -0.7195 C   0  0  0  0  0  0  0  0  0  0  0  0
   -1.8478    0.3075    1.3731 O   0  0  0  0  0  0  0  0  0  0  0  0
   -1.8597   -0.8856    0.6884 C   0  0  0  0  0  0  0  0  0  0  0  0
   -0.6595   -1.5268    0.3464 C   0  0  0  0  0  0  0  0  0  0  0  0
   -0.7241   -2.7968   -0.2406 C   0  0  0  0  0  0  0  0  0  0  0  0
   -1.9641   -3.3977   -0.4765 C   0  0  0  0  0  0  0  0  0  0  0  0
   -2.0281   -4.9563   -1.2051 Cl  0  0  0  0  0  0  0  0  0  0  0  0
   -3.1489   -2.7525   -0.1262 C   0  0  0  0  0  0  0  0  0  0  0  0
   -3.0962   -1.4941    0.4700 C   0  0  0  0  0  0  0  0  0  0  0  0
    0.6168   -0.7782    0.6178 C   0  0  1  0  0  0  0  0  0  0  0  0
    1.9550   -1.4578    0.3284 C   0  0  0  0  0  0  0  0  0  0  0  0
    4.6515   -1.4751    0.2136 H   0  0  0  0  0  0  0  0  0  0  0  0
    4.0438   -0.8250   -1.3232 H   0  0  0  0  0  0  0  0  0  0  0  0
    4.8442    0.2376   -0.1462 H   0  0  0  0  0  0  0  0  0  0  0  0
    2.5949    1.1443   -1.1367 H   0  0  0  0  0  0  0  0  0  0  0  0
    2.3419    1.6826    0.5327 H   0  0  0  0  0  0  0  0  0  0  0  0
    0.5574    0.1155   -1.3325 H   0  0  0  0  0  0  0  0  0  0  0  0
   -3.2289    2.4111    1.4465 H   0  0  0  0  0  0  0  0  0  0  0  0
   -2.7652    4.5705    0.3313 H   0  0  0  0  0  0  0  0  0  0  0  0
   -0.7363    4.8192   -1.0759 H   0  0  0  0  0  0  0  0  0  0  0  0
    0.8200    2.9440   -1.3470 H   0  0  0  0  0  0  0  0  0  0  0  0
    0.1781   -3.3322   -0.5208 H   0  0  0  0  0  0  0  0  0  0  0  0
   -4.1101   -3.2269   -0.3034 H   0  0  0  0  0  0  0  0  0  0  0  0
   -4.0113   -0.9914    0.7699 H   0  0  0  0  0  0  0  0  0  0  0  0
    0.6163   -0.4785    1.6777 H   0  0  0  0  0  0  0  0  0  0  0  0
    2.1904   -2.2273    1.0709 H   0  0  0  0  0  0  0  0  0  0  0  0
    1.9646   -1.9172   -0.6685 H   0  0  0  0  0  0  0  0  0  0  0  0
  1  2  1  0
  2  3  1  0
  3  4  1  0
  4  5  1  0
  5  6  1  0
  6  7  2  0
  7  8  1  0
  8  9  2  0
  9 10  1  0
  6 11  1  0
 11 12  1  0
 12 13  2  0
 13 14  1  0
 14 15  2  0
 15 16  1  0
 15 17  1  0
 17 18  2  0
 13 19  1  0
 19 20  1  0
 20  2  1  0
 19  4  1  0
 10  5  2  0
 18 12  1  0
  1 21  1  0
  1 22  1  0
  1 23  1  0
  3 24  1  0
  3 25  1  0
  4 26  1  6
  7 27  1  0
  8 28  1  0
  9 29  1  0
 10 30  1  0
 14 31  1  0
 17 32  1  0
 18 33  1  0
 19 34  1  1
 20 35  1  0
 20 36  1  0
M  END
$$$$
OCNT-2328558
     RDKit          3D

 67 70  0  0  0  0  0  0  0  0999 V2000
   -3.7117   -3.5128   -0.6672 C   0  0  0  0  0  0  0  0  0  0  0  0
   -3.2873   -2.2711   -0.0310 N   0  0  0  0  0  0  0  0  0  0  0  0
   -3.3519   -2.2978    1.4247 C   0  0  0  0  0  0  0  0  0  0  0  0
   -2.9698   -1.1826   -0.8515 C   0  0  0  0  0  0  0  0  0  0  0  0
   -2.9105   -1.3719   -2.0755 O   0  0  0  0  0  0  0  0  0  0  0  0
   -2.5853    0.2419   -0.2488 C   0  0  0  0  0  0  0  0  0  0  0  0
   -1.1112    0.0410    0.2780 C   0  0  0  0  0  0  0  0  0  0  0  0
   -0.0990   -0.3903   -0.8071 C   0  0  0  0  0  0  0  0  0  0  0  0
    1.2644   -0.5515   -0.2508 N   0  0  0  0  0  0  0  0  0  0  0  0
    2.0799   -1.3557   -1.1795 C   0  0  0  0  0  0  0  0  0  0  0  0
    3.4664   -1.6216   -0.5911 C   0  0  0  0  0  0  0  0  0  0  0  0
    4.2151   -0.3155   -0.2749 C   0  0  0  0  0  0  0  0  0  0  0  0
    4.4591    0.3444   -1.5305 O   0  0  0  0  0  0  0  0  0  0  0  0
    5.5796   -0.4967    0.4018 C   0  0  0  0  0  0  0  0  0  0  0  0
    6.0286   -1.7258    0.9125 C   0  0  0  0  0  0  0  0  0  0  0  0
    7.2827   -1.8378    1.5250 C   0  0  0  0  0  0  0  0  0  0  0  0
    8.1076   -0.7227    1.6344 C   0  0  0  0  0  0  0  0  0  0  0  0
    9.6469   -0.8656    2.3878 Cl  0  0  0  0  0  0  0  0  0  0  0  0
    7.6910    0.5058    1.1356 C   0  0  0  0  0  0  0  0  0  0  0  0
    6.4384    0.6160    0.5258 C   0  0  0  0  0  0  0  0  0  0  0  0
    3.3082    0.5882    0.5759 C   0  0  0  0  0  0  0  0  0  0  0  0
    1.9167    0.7533   -0.0406 C   0  0  0  0  0  0  0  0  0  0  0  0
   -3.6000    0.6823    0.8497 C   0  0  0  0  0  0  0  0  0  0  0  0
   -4.9859    0.5588    0.6131 C   0  0  0  0  0  0  0  0  0  0  0  0
   -5.9240    0.9608    1.5663 C   0  0  0  0  0  0  0  0  0  0  0  0
   -5.5004    1.5079    2.7725 C   0  0  0  0  0  0  0  0  0  0  0  0
   -4.1400    1.6608    3.0213 C   0  0  0  0  0  0  0  0  0  0  0  0
   -3.1985    1.2600    2.0682 C   0  0  0  0  0  0  0  0  0  0  0  0
   -2.6166    1.4025   -1.3141 C   0  0  0  0  0  0  0  0  0  0  0  0
   -3.4914    1.3825   -2.4181 C   0  0  0  0  0  0  0  0  0  0  0  0
   -3.5438    2.4393   -3.3332 C   0  0  0  0  0  0  0  0  0  0  0  0
   -2.7425    3.5601   -3.1550 C   0  0  0  0  0  0  0  0  0  0  0  0
   -1.8991    3.6302   -2.0530 C   0  0  0  0  0  0  0  0  0  0  0  0
   -1.8462    2.5723   -1.1391 C   0  0  0  0  0  0  0  0  0  0  0  0
   -4.7338   -3.7376   -0.3467 H   0  0  0  0  0  0  0  0  0  0  0  0
   -3.6965   -3.4665   -1.7586 H   0  0  0  0  0  0  0  0  0  0  0  0
   -3.0450   -4.3181   -0.3440 H   0  0  0  0  0  0  0  0  0  0  0  0
   -4.4021   -2.2579    1.7273 H   0  0  0  0  0  0  0  0  0  0  0  0
   -2.8076   -1.4890    1.8998 H   0  0  0  0  0  0  0  0  0  0  0  0
   -2.9161   -3.2370    1.7806 H   0  0  0  0  0  0  0  0  0  0  0  0
   -0.7517    0.9512    0.7634 H   0  0  0  0  0  0  0  0  0  0  0  0
   -1.0853   -0.7206    1.0650 H   0  0  0  0  0  0  0  0  0  0  0  0
   -0.0882    0.3051   -1.6540 H   0  0  0  0  0  0  0  0  0  0  0  0
   -0.4229   -1.3615   -1.1973 H   0  0  0  0  0  0  0  0  0  0  0  0
    1.6003   -2.3289   -1.3440 H   0  0  0  0  0  0  0  0  0  0  0  0
    2.1641   -0.8685   -2.1598 H   0  0  0  0  0  0  0  0  0  0  0  0
    4.0374   -2.2240   -1.3090 H   0  0  0  0  0  0  0  0  0  0  0  0
    3.3374   -2.2251    0.3164 H   0  0  0  0  0  0  0  0  0  0  0  0
    5.2572   -0.0583   -1.9148 H   0  0  0  0  0  0  0  0  0  0  0  0
    5.4185   -2.6232    0.8528 H   0  0  0  0  0  0  0  0  0  0  0  0
    7.6048   -2.7993    1.9166 H   0  0  0  0  0  0  0  0  0  0  0  0
    8.3302    1.3808    1.2171 H   0  0  0  0  0  0  0  0  0  0  0  0
    6.1293    1.5869    0.1386 H   0  0  0  0  0  0  0  0  0  0  0  0
    3.2091    0.1748    1.5888 H   0  0  0  0  0  0  0  0  0  0  0  0
    3.7444    1.5894    0.6810 H   0  0  0  0  0  0  0  0  0  0  0  0
    1.9870    1.3146   -0.9818 H   0  0  0  0  0  0  0  0  0  0  0  0
    1.3317    1.3674    0.6517 H   0  0  0  0  0  0  0  0  0  0  0  0
   -5.3514    0.1460   -0.3255 H   0  0  0  0  0  0  0  0  0  0  0  0
   -6.9860    0.8540    1.3607 H   0  0  0  0  0  0  0  0  0  0  0  0
   -6.2298    1.8261    3.5121 H   0  0  0  0  0  0  0  0  0  0  0  0
   -3.8068    2.1018    3.9575 H   0  0  0  0  0  0  0  0  0  0  0  0
   -2.1502    1.4132    2.3063 H   0  0  0  0  0  0  0  0  0  0  0  0
   -4.1578    0.5412   -2.5931 H   0  0  0  0  0  0  0  0  0  0  0  0
   -4.2188    2.3824   -4.1832 H   0  0  0  0  0  0  0  0  0  0  0  0
   -2.7866    4.3810   -3.8648 H   0  0  0  0  0  0  0  0  0  0  0  0
   -1.2868    4.5136   -1.8937 H   0  0  0  0  0  0  0  0  0  0  0  0
   -1.1976    2.6976   -0.2772 H   0  0  0  0  0  0  0  0  0  0  0  0
  1  2  1  0
  2  3  1  0
  2  4  1  0
  4  5  2  0
  4  6  1  0
  6  7  1  0
  7  8  1  0
  8  9  1  0
  9 10  1  0
 10 11  1  0
 11 12  1  0
 12 13  1  0
 12 14  1  0
 14 15  1  0
 15 16  2  0
 16 17  1  0
 17 18  1  0
 17 19  2  0
 19 20  1  0
 12 21  1  0
 21 22  1  0
  6 23  1  0
 23 24  2  0
 24 25  1  0
 25 26  2  0
 26 27  1  0
 27 28  2  0
  6 29  1  0
 29 30  2  0
 30 31  1  0
 31 32  2  0
 32 33  1  0
 33 34  2  0
 22  9  1  0
 28 23  1  0
 34 29  1  0
 20 14  2  0
  1 35  1  0
  1 36  1  0
  1 37  1  0
  3 38  1  0
  3 39  1  0
  3 40  1  0
  7 41  1  0
  7 42  1  0
  8 43  1  0
  8 44  1  0
 10 45  1  0
 10 46  1  0
 11 47  1  0
 11 48  1  0
 13 49  1  0
 15 50  1  0
 16 51  1  0
 19 52  1  0
 20 53  1  0
 21 54  1  0
 21 55  1  0
 22 56  1  0
 22 57  1  0
 24 58  1  0
 25 59  1  0
 26 60  1  0
 27 61  1  0
 28 62  1  0
 30 63  1  0
 31 64  1  0
 32 65  1  0
 33 66  1  0
 34 67  1  0
M  END
$$$$
OCNT-2328559
     RDKit          3D

 48 50  0  0  0  0  0  0  0  0999 V2000
   -0.7454   -0.2189    1.6272 C   0  0  0  0  0  0  0  0  0  0  0  0
   -1.2995    0.4805    0.3805 C   0  0  1  0  0  0  0  0  0  0  0  0
   -0.3056    0.5415   -0.7119 N   0  0  0  0  0  0  0  0  0  0  0  0
    0.7997    1.4607   -0.4355 C   0  0  0  0  0  0  0  0  0  0  0  0
    1.7735    1.5192   -1.6197 C   0  0  0  0  0  0  0  0  0  0  0  0
    2.4383    0.1820   -1.9698 C   0  0  0  0  0  0  0  0  0  0  0  0
    3.3495   -0.3418   -0.8861 C   0  0  0  0  0  0  0  0  0  0  0  0
    4.6388    0.1835   -0.7213 C   0  0  0  0  0  0  0  0  0  0  0  0
    5.4849   -0.2859    0.2974 C   0  0  0  0  0  0  0  0  0  0  0  0
    6.8782    0.2707    0.4493 C   0  0  0  0  0  0  0  0  0  0  0  0
    7.7861   -0.3813   -0.3285 F   0  0  0  0  0  0  0  0  0  0  0  0
    7.3532    0.1910    1.7243 F   0  0  0  0  0  0  0  0  0  0  0  0
    6.9683    1.5865    0.1044 F   0  0  0  0  0  0  0  0  0  0  0  0
    5.0255   -1.3034    1.1466 C   0  0  0  0  0  0  0  0  0  0  0  0
    3.7429   -1.8283    0.9913 C   0  0  0  0  0  0  0  0  0  0  0  0
    2.9096   -1.3488   -0.0184 C   0  0  0  0  0  0  0  0  0  0  0  0
   -2.5688   -0.2501   -0.0757 C   0  0  0  0  0  0  0  0  0  0  0  0
   -2.4286   -1.4045   -0.8764 C   0  0  0  0  0  0  0  0  0  0  0  0
   -3.5369   -2.1122   -1.3249 C   0  0  0  0  0  0  0  0  0  0  0  0
   -4.8126   -1.6884   -0.9728 C   0  0  0  0  0  0  0  0  0  0  0  0
   -4.9989   -0.5635   -0.1578 C   0  0  0  0  0  0  0  0  0  0  0  0
   -6.3028   -0.1752    0.1929 C   0  0  0  0  0  0  0  0  0  0  0  0
   -6.5298    0.9258    1.0144 C   0  0  0  0  0  0  0  0  0  0  0  0
   -5.4523    1.6509    1.4997 C   0  0  0  0  0  0  0  0  0  0  0  0
   -4.1488    1.2787    1.1573 C   0  0  0  0  0  0  0  0  0  0  0  0
   -3.8784    0.1717    0.3148 C   0  0  0  0  0  0  0  0  0  0  0  0
    0.0841    0.3398    2.0713 H   0  0  0  0  0  0  0  0  0  0  0  0
   -1.5173   -0.3129    2.3999 H   0  0  0  0  0  0  0  0  0  0  0  0
   -0.3869   -1.2292    1.3981 H   0  0  0  0  0  0  0  0  0  0  0  0
   -1.5531    1.5148    0.6291 H   0  0  0  0  0  0  0  0  0  0  0  0
   -0.7923    0.8629   -1.5505 H   0  0  0  0  0  0  0  0  0  0  0  0
    1.3470    1.1664    0.4647 H   0  0  0  0  0  0  0  0  0  0  0  0
    0.4082    2.4707   -0.2635 H   0  0  0  0  0  0  0  0  0  0  0  0
    1.2374    1.8825   -2.5061 H   0  0  0  0  0  0  0  0  0  0  0  0
    2.5444    2.2681   -1.3984 H   0  0  0  0  0  0  0  0  0  0  0  0
    3.0320    0.3110   -2.8844 H   0  0  0  0  0  0  0  0  0  0  0  0
    1.6818   -0.5713   -2.2218 H   0  0  0  0  0  0  0  0  0  0  0  0
    4.9900    0.9672   -1.3922 H   0  0  0  0  0  0  0  0  0  0  0  0
    5.6670   -1.6900    1.9371 H   0  0  0  0  0  0  0  0  0  0  0  0
    3.3899   -2.6118    1.6574 H   0  0  0  0  0  0  0  0  0  0  0  0
    1.9069   -1.7601   -0.1232 H   0  0  0  0  0  0  0  0  0  0  0  0
   -1.4363   -1.7561   -1.1555 H   0  0  0  0  0  0  0  0  0  0  0  0
   -3.4057   -2.9934   -1.9467 H   0  0  0  0  0  0  0  0  0  0  0  0
   -5.6679   -2.2551   -1.3347 H   0  0  0  0  0  0  0  0  0  0  0  0
   -7.1604   -0.7369   -0.1722 H   0  0  0  0  0  0  0  0  0  0  0  0
   -7.5449    1.2103    1.2772 H   0  0  0  0  0  0  0  0  0  0  0  0
   -5.6195    2.5070    2.1482 H   0  0  0  0  0  0  0  0  0  0  0  0
   -3.3448    1.8758    1.5771 H   0  0  0  0  0  0  0  0  0  0  0  0
  1  2  1  0
  2  3  1  0
  3  4  1  0
  4  5  1  0
  5  6  1  0
  6  7  1  0
  7  8  1  0
  8  9  2  0
  9 10  1  0
 10 11  1  0
 10 12  1  0
 10 13  1  0
  9 14  1  0
 14 15  2  0
 15 16  1  0
  2 17  1  0
 17 18  2  0
 18 19  1  0
 19 20  2  0
 20 21  1  0
 21 22  2  0
 22 23  1  0
 23 24  2  0
 24 25  1  0
 25 26  2  0
 16  7  2  0
 26 17  1  0
 26 21  1  0
  1 27  1  0
  1 28  1  0
  1 29  1  0
  2 30  1  1
  3 31  1  0
  4 32  1  0
  4 33  1  0
  5 34  1  0
  5 35  1  0
  6 36  1  0
  6 37  1  0
  8 38  1  0
 14 39  1  0
 15 40  1  0
 16 41  1  0
 18 42  1  0
 19 43  1  0
 20 44  1  0
 22 45  1  0
 23 46  1  0
 24 47  1  0
 25 48  1  0
M  END
$$$$
OCNT-2328568
     RDKit          3D

 63 65  0  0  0  0  0  0  0  0999 V2000
    3.0867    3.3409    2.2556 C   0  0  0  0  0  0  0  0  0  0  0  0
    2.1089    3.2948    1.0920 C   0  0  0  0  0  0  0  0  0  0  0  0
    2.5721    2.4102   -0.0701 C   0  0  0  0  0  0  0  0  0  0  0  0
    2.6539    0.9215    0.3015 C   0  0  0  0  0  0  0  0  0  0  0  0
    3.0452    0.0646   -0.8290 N   0  0  0  0  0  0  0  0  0  0  0  0
    3.4559   -1.2806   -0.3826 C   0  0  0  0  0  0  0  0  0  0  0  0
    4.9000   -1.2889    0.1418 C   0  0  0  0  0  0  0  0  0  0  0  0
    5.3495   -2.6646    0.6447 C   0  0  0  0  0  0  0  0  0  0  0  0
    5.4512   -3.7138   -0.4514 C   0  0  0  0  0  0  0  0  0  0  0  0
    2.0518   -0.0040   -1.9217 C   0  0  0  0  0  0  0  0  0  0  0  0
    0.6822   -0.6384   -1.6018 C   0  0  0  0  0  0  0  0  0  0  0  0
   -0.4182    0.3975   -1.3102 C   0  0  0  0  0  0  0  0  0  0  0  0
   -0.6911    1.1076   -2.5202 O   0  0  0  0  0  0  0  0  0  0  0  0
   -1.7315   -0.1346   -0.7315 C   0  0  0  0  0  0  0  0  0  0  0  0
   -2.0864   -1.4791   -0.9304 C   0  0  0  0  0  0  0  0  0  0  0  0
   -3.2626   -2.0539   -0.4116 C   0  0  0  0  0  0  0  0  0  0  0  0
   -3.5899   -3.4256   -0.6097 C   0  0  0  0  0  0  0  0  0  0  0  0
   -2.5674   -4.5017   -1.5122 Cl  0  0  0  0  0  0  0  0  0  0  0  0
   -4.7515   -3.9865   -0.0856 C   0  0  0  0  0  0  0  0  0  0  0  0
   -5.6071   -3.1883    0.6462 C   0  0  0  0  0  0  0  0  0  0  0  0
   -7.0477   -3.8585    1.3066 Cl  0  0  0  0  0  0  0  0  0  0  0  0
   -5.3108   -1.8406    0.8526 C   0  0  0  0  0  0  0  0  0  0  0  0
   -4.1390   -1.2264    0.3342 C   0  0  0  0  0  0  0  0  0  0  0  0
   -3.8217    0.1689    0.5257 C   0  0  0  0  0  0  0  0  0  0  0  0
   -4.6673    1.0589    1.2452 C   0  0  0  0  0  0  0  0  0  0  0  0
   -4.3825    2.4224    1.4298 C   0  0  0  0  0  0  0  0  0  0  0  0
   -5.3403    3.3073    2.1886 C   0  0  0  0  0  0  0  0  0  0  0  0
   -5.8597    2.6971    3.2903 F   0  0  0  0  0  0  0  0  0  0  0  0
   -6.4072    3.6816    1.4306 F   0  0  0  0  0  0  0  0  0  0  0  0
   -4.7725    4.4619    2.6354 F   0  0  0  0  0  0  0  0  0  0  0  0
   -3.2242    2.9354    0.8642 C   0  0  0  0  0  0  0  0  0  0  0  0
   -2.3668    2.0948    0.1557 C   0  0  0  0  0  0  0  0  0  0  0  0
   -2.6240    0.7115   -0.0212 C   0  0  0  0  0  0  0  0  0  0  0  0
    2.7499    4.0704    2.9992 H   0  0  0  0  0  0  0  0  0  0  0  0
    3.1622    2.3714    2.7561 H   0  0  0  0  0  0  0  0  0  0  0  0
    4.0851    3.6370    1.9189 H   0  0  0  0  0  0  0  0  0  0  0  0
    1.9709    4.3155    0.7150 H   0  0  0  0  0  0  0  0  0  0  0  0
    1.1299    2.9556    1.4500 H   0  0  0  0  0  0  0  0  0  0  0  0
    1.8654    2.5640   -0.8920 H   0  0  0  0  0  0  0  0  0  0  0  0
    3.5504    2.7556   -0.4273 H   0  0  0  0  0  0  0  0  0  0  0  0
    1.7113    0.5806    0.7449 H   0  0  0  0  0  0  0  0  0  0  0  0
    3.4039    0.8329    1.0936 H   0  0  0  0  0  0  0  0  0  0  0  0
    3.4112   -1.9747   -1.2302 H   0  0  0  0  0  0  0  0  0  0  0  0
    2.7703   -1.6702    0.3802 H   0  0  0  0  0  0  0  0  0  0  0  0
    5.5815   -0.9481   -0.6480 H   0  0  0  0  0  0  0  0  0  0  0  0
    5.0079   -0.5848    0.9742 H   0  0  0  0  0  0  0  0  0  0  0  0
    6.3356   -2.5558    1.1118 H   0  0  0  0  0  0  0  0  0  0  0  0
    4.6667   -3.0175    1.4262 H   0  0  0  0  0  0  0  0  0  0  0  0
    4.4697   -3.9577   -0.8676 H   0  0  0  0  0  0  0  0  0  0  0  0
    6.0981   -3.3712   -1.2648 H   0  0  0  0  0  0  0  0  0  0  0  0
    5.8764   -4.6381   -0.0471 H   0  0  0  0  0  0  0  0  0  0  0  0
    1.9241    0.9859   -2.3732 H   0  0  0  0  0  0  0  0  0  0  0  0
    2.5082   -0.5937   -2.7292 H   0  0  0  0  0  0  0  0  0  0  0  0
    0.3925   -1.2215   -2.4865 H   0  0  0  0  0  0  0  0  0  0  0  0
    0.7724   -1.3476   -0.7718 H   0  0  0  0  0  0  0  0  0  0  0  0
   -0.0028    1.1100   -0.5958 H   0  0  0  0  0  0  0  0  0  0  0  0
   -1.6484    1.0706   -2.6896 H   0  0  0  0  0  0  0  0  0  0  0  0
   -1.4175   -2.1082   -1.5138 H   0  0  0  0  0  0  0  0  0  0  0  0
   -4.9823   -5.0357   -0.2475 H   0  0  0  0  0  0  0  0  0  0  0  0
   -6.0275   -1.2709    1.4371 H   0  0  0  0  0  0  0  0  0  0  0  0
   -5.5948    0.7011    1.6884 H   0  0  0  0  0  0  0  0  0  0  0  0
   -2.9754    3.9907    0.9664 H   0  0  0  0  0  0  0  0  0  0  0  0
   -1.4825    2.5631   -0.2739 H   0  0  0  0  0  0  0  0  0  0  0  0
  1  2  1  0
  2  3  1  0
  3  4  1  0
  4  5  1  0
  5  6  1  0
  6  7  1  0
  7  8  1  0
  8  9  1  0
  5 10  1  0
 10 11  1  0
 11 12  1  0
 12 13  1  0
 12 14  1  0
 14 15  2  0
 15 16  1  0
 16 17  2  0
 17 18  1  0
 17 19  1  0
 19 20  2  0
 20 21  1  0
 20 22  1  0
 22 23  2  0
 23 24  1  0
 24 25  2  0
 25 26  1  0
 26 27  1  0
 27 28  1  0
 27 29  1  0
 27 30  1  0
 26 31  2  0
 31 32  1  0
 32 33  2  0
 33 14  1  0
 23 16  1  0
 33 24  1  0
  1 34  1  0
  1 35  1  0
  1 36  1  0
  2 37  1  0
  2 38  1  0
  3 39  1  0
  3 40  1  0
  4 41  1  0
  4 42  1  0
  6 43  1  0
  6 44  1  0
  7 45  1  0
  7 46  1  0
  8 47  1  0
  8 48  1  0
  9 49  1  0
  9 50  1  0
  9 51  1  0
 10 52  1  0
 10 53  1  0
 11 54  1  0
 11 55  1  0
 12 56  1  0
 13 57  1  0
 15 58  1  0
 19 59  1  0
 22 60  1  0
 25 61  1  0
 31 62  1  0
 32 63  1  0
M  END
$$$$
OCNT-2328587
     RDKit          3D

 53 56  0  0  0  0  0  0  0  0999 V2000
   -1.8520   -2.6330   -1.4961 C   0  0  0  0  0  0  0  0  0  0  0  0
   -1.6751   -1.2183   -1.8516 N   0  0  0  0  0  0  0  0  0  0  0  0
   -2.6898   -0.8358   -2.8369 C   0  0  0  0  0  0  0  0  0  0  0  0
   -1.6027   -0.3169   -0.6700 C   0  0  2  0  0  0  0  0  0  0  0  0
   -2.8765   -0.1163    0.1663 C   0  0  0  0  0  0  0  0  0  0  0  0
   -3.6688   -1.2578    0.2691 O   0  0  0  0  0  0  0  0  0  0  0  0
   -3.1995    1.0379    0.7968 C   0  0  0  0  0  0  0  0  0  0  0  0
   -4.4702    1.1100    1.5837 C   0  0  0  0  0  0  0  0  0  0  0  0
   -4.7750    2.2886    2.1786 N   0  0  0  0  0  0  0  0  0  0  0  0
   -5.2206    0.1423    1.6950 O   0  0  0  0  0  0  0  0  0  0  0  0
   -2.2691    2.1991    0.7073 C   0  0  0  0  0  0  0  0  0  0  0  0
   -2.6132    3.3172    1.1117 O   0  0  0  0  0  0  0  0  0  0  0  0
   -0.8715    1.9871    0.1025 C   0  0  1  0  0  0  0  0  0  0  0  0
   -0.4118    3.2717   -0.3535 O   0  0  0  0  0  0  0  0  0  0  0  0
    0.1622    1.4987    1.0918 C   0  0  0  0  0  0  0  0  0  0  0  0
   -0.1240    1.7371    2.4231 O   0  0  0  0  0  0  0  0  0  0  0  0
    1.2779    0.8663    0.6652 C   0  0  0  0  0  0  0  0  0  0  0  0
    2.2846    0.3773    1.6499 C   0  0  0  0  0  0  0  0  0  0  0  0
    2.1979    0.6723    2.8428 O   0  0  0  0  0  0  0  0  0  0  0  0
    3.4161   -0.4535    1.1640 C   0  0  0  0  0  0  0  0  0  0  0  0
    3.4107   -0.9813   -0.1438 C   0  0  0  0  0  0  0  0  0  0  0  0
    4.4993   -1.7785   -0.5462 C   0  0  0  0  0  0  0  0  0  0  0  0
    4.5847   -2.4940   -2.1186 Cl  0  0  0  0  0  0  0  0  0  0  0  0
    5.5692   -2.0258    0.3203 C   0  0  0  0  0  0  0  0  0  0  0  0
    5.5656   -1.4971    1.6074 C   0  0  0  0  0  0  0  0  0  0  0  0
    4.4914   -0.7220    2.0285 C   0  0  0  0  0  0  0  0  0  0  0  0
    4.5627   -0.2551    3.3135 O   0  0  0  0  0  0  0  0  0  0  0  0
    2.2261   -0.7369   -1.0442 C   0  0  1  0  0  0  0  0  0  0  0  0
    1.2987   -1.7823   -0.7915 O   0  0  0  0  0  0  0  0  0  0  0  0
    1.5964    0.6501   -0.7982 C   0  0  1  0  0  0  0  0  0  0  0  0
    0.4184    0.9240   -1.7671 C   0  0  0  0  0  0  0  0  0  0  0  0
   -0.9723    1.0463   -1.1001 C   0  0  1  0  0  0  0  0  0  0  0  0
   -1.5591   -3.2581   -2.3477 H   0  0  0  0  0  0  0  0  0  0  0  0
   -2.8831   -2.8966   -1.2442 H   0  0  0  0  0  0  0  0  0  0  0  0
   -1.2064   -2.9277   -0.6624 H   0  0  0  0  0  0  0  0  0  0  0  0
   -2.5023    0.1621   -3.2431 H   0  0  0  0  0  0  0  0  0  0  0  0
   -3.7068   -0.8602   -2.4315 H   0  0  0  0  0  0  0  0  0  0  0  0
   -2.6563   -1.5155   -3.6966 H   0  0  0  0  0  0  0  0  0  0  0  0
   -0.9015   -0.7934    0.0259 H   0  0  0  0  0  0  0  0  0  0  0  0
   -4.4621   -1.0667    0.8217 H   0  0  0  0  0  0  0  0  0  0  0  0
   -5.6258    2.3655    2.7172 H   0  0  0  0  0  0  0  0  0  0  0  0
   -4.1770    3.1083    2.0848 H   0  0  0  0  0  0  0  0  0  0  0  0
   -0.6832    3.9055    0.3428 H   0  0  0  0  0  0  0  0  0  0  0  0
    0.6444    1.4434    2.9651 H   0  0  0  0  0  0  0  0  0  0  0  0
    6.4082   -2.6397    0.0000 H   0  0  0  0  0  0  0  0  0  0  0  0
    6.3921   -1.6962    2.2849 H   0  0  0  0  0  0  0  0  0  0  0  0
    3.7167    0.1964    3.5267 H   0  0  0  0  0  0  0  0  0  0  0  0
    2.5240   -0.7855   -2.0975 H   0  0  0  0  0  0  0  0  0  0  0  0
    0.6333   -1.7683   -1.5071 H   0  0  0  0  0  0  0  0  0  0  0  0
    2.3757    1.3874   -1.0477 H   0  0  0  0  0  0  0  0  0  0  0  0
    0.4010    0.2057   -2.5940 H   0  0  0  0  0  0  0  0  0  0  0  0
    0.6283    1.8853   -2.2586 H   0  0  0  0  0  0  0  0  0  0  0  0
   -1.6300    1.5270   -1.8383 H   0  0  0  0  0  0  0  0  0  0  0  0
  1  2  1  0
  2  3  1  0
  2  4  1  0
  4  5  1  0
  5  6  1  0
  5  7  2  0
  7  8  1  0
  8  9  1  0
  8 10  2  0
  7 11  1  0
 11 12  2  0
 11 13  1  0
 13 14  1  6
 13 15  1  0
 15 16  1  0
 15 17  2  0
 17 18  1  0
 18 19  2  0
 18 20  1  0
 20 21  1  0
 21 22  2  0
 22 23  1  0
 22 24  1  0
 24 25  2  0
 25 26  1  0
 26 27  1  0
 21 28  1  0
 28 29  1  0
 28 30  1  0
 30 31  1  0
 31 32  1  0
 32  4  1  0
 32 13  1  0
 30 17  1  0
 26 20  2  0
  1 33  1  0
  1 34  1  0
  1 35  1  0
  3 36  1  0
  3 37  1  0
  3 38  1  0
  4 39  1  1
  6 40  1  0
  9 41  1  0
  9 42  1  0
 14 43  1  0
 16 44  1  0
 24 45  1  0
 25 46  1  0
 27 47  1  0
 28 48  1  6
 29 49  1  0
 30 50  1  6
 31 51  1  0
 31 52  1  0
 32 53  1  6
M  END
$$$$
OCNT-2328597
     RDKit          3D

 29 29  0  0  0  0  0  0  0  0999 V2000
    0.0414   -2.1651    0.0803 O   0  0  0  0  0  0  0  0  0  0  0  0
    0.1995   -0.6838   -0.0556 P   0  0  0  0  0  0  0  0  0  0  0  0
   -1.1308    0.2079    0.2626 N   0  0  0  0  0  0  0  0  0  0  0  0
   -1.3360    1.4909   -0.4174 C   0  0  0  0  0  0  0  0  0  0  0  0
   -2.0318    1.3387   -1.7752 C   0  0  0  0  0  0  0  0  0  0  0  0
   -3.7299    0.8280   -1.5880 Cl  0  0  0  0  0  0  0  0  0  0  0  0
   -1.7712    0.1738    1.5824 C   0  0  0  0  0  0  0  0  0  0  0  0
   -1.9332   -1.2311    2.1757 C   0  0  0  0  0  0  0  0  0  0  0  0
   -2.8287   -1.1422    3.7183 Cl  0  0  0  0  0  0  0  0  0  0  0  0
    1.3780   -0.0324    0.8719 N   0  0  0  0  0  0  0  0  0  0  0  0
    2.6544    0.2523    0.2315 C   0  0  0  0  0  0  0  0  0  0  0  0
    2.9680   -0.7976   -0.8292 C   0  0  0  0  0  0  0  0  0  0  0  0
    1.9377   -0.7883   -1.9601 C   0  0  0  0  0  0  0  0  0  0  0  0
    0.6723   -0.2930   -1.5478 O   0  0  0  0  0  0  0  0  0  0  0  0
   -1.9109    2.1953    0.1982 H   0  0  0  0  0  0  0  0  0  0  0  0
   -0.3641    1.9764   -0.5688 H   0  0  0  0  0  0  0  0  0  0  0  0
   -1.5345    0.6101   -2.4203 H   0  0  0  0  0  0  0  0  0  0  0  0
   -2.0421    2.3006   -2.2968 H   0  0  0  0  0  0  0  0  0  0  0  0
   -1.1953    0.7969    2.2779 H   0  0  0  0  0  0  0  0  0  0  0  0
   -2.7734    0.6159    1.5090 H   0  0  0  0  0  0  0  0  0  0  0  0
   -0.9670   -1.6879    2.4030 H   0  0  0  0  0  0  0  0  0  0  0  0
   -2.4958   -1.8858    1.5036 H   0  0  0  0  0  0  0  0  0  0  0  0
    1.0760    0.7721    1.4048 H   0  0  0  0  0  0  0  0  0  0  0  0
    2.6236    1.2462   -0.2295 H   0  0  0  0  0  0  0  0  0  0  0  0
    3.4425    0.2639    0.9910 H   0  0  0  0  0  0  0  0  0  0  0  0
    3.9714   -0.6466   -1.2428 H   0  0  0  0  0  0  0  0  0  0  0  0
    2.9787   -1.7908   -0.3613 H   0  0  0  0  0  0  0  0  0  0  0  0
    2.2872   -0.1337   -2.7652 H   0  0  0  0  0  0  0  0  0  0  0  0
    1.8138   -1.7905   -2.3830 H   0  0  0  0  0  0  0  0  0  0  0  0
  1  2  2  0
  2  3  1  0
  3  4  1  0
  4  5  1  0
  5  6  1  0
  3  7  1  0
  7  8  1  0
  8  9  1  0
  2 10  1  0
 10 11  1  0
 11 12  1  0
 12 13  1  0
 13 14  1  0
 14  2  1  0
  4 15  1  0
  4 16  1  0
  5 17  1  0
  5 18  1  0
  7 19  1  0
  7 20  1  0
  8 21  1  0
  8 22  1  0
 10 23  1  0
 11 24  1  0
 11 25  1  0
 12 26  1  0
 12 27  1  0
 13 28  1  0
 13 29  1  0
M  END
$$$$
OCNT-2328599
     RDKit          3D

 30 32  0  0  0  0  0  0  0  0999 V2000
   -3.4235   -1.7348   -0.6059 C   0  0  0  0  0  0  0  0  0  0  0  0
   -2.3667   -2.3275    0.0699 C   0  0  0  0  0  0  0  0  0  0  0  0
   -1.3309   -1.5375    0.5754 C   0  0  0  0  0  0  0  0  0  0  0  0
   -1.3205   -0.1308    0.4199 C   0  0  0  0  0  0  0  0  0  0  0  0
   -2.4085    0.4553   -0.2778 C   0  0  0  0  0  0  0  0  0  0  0  0
   -3.4433   -0.3525   -0.7781 C   0  0  0  0  0  0  0  0  0  0  0  0
   -2.4513    1.8433   -0.4737 C   0  0  0  0  0  0  0  0  0  0  0  0
   -1.4338    2.6644    0.0015 C   0  0  0  0  0  0  0  0  0  0  0  0
   -0.3599    2.1070    0.6846 C   0  0  0  0  0  0  0  0  0  0  0  0
   -0.2892    0.7200    0.9119 C   0  0  0  0  0  0  0  0  0  0  0  0
    0.9341    0.2029    1.6438 C   0  0  0  0  0  0  0  0  0  0  0  0
    2.1002   -0.0426    0.7131 C   0  0  0  0  0  0  0  0  0  0  0  0
    3.2452    0.5706    0.8833 N   0  0  0  0  0  0  0  0  0  0  0  0
    4.0977    0.0606   -0.2283 C   0  0  0  0  0  0  0  0  0  0  0  0
    3.1551   -0.6465   -1.2061 C   0  0  0  0  0  0  0  0  0  0  0  0
    2.0154   -0.9041   -0.3571 N   0  0  0  0  0  0  0  0  0  0  0  0
   -4.2330   -2.3444   -0.9982 H   0  0  0  0  0  0  0  0  0  0  0  0
   -2.3447   -3.4053    0.2098 H   0  0  0  0  0  0  0  0  0  0  0  0
   -0.5256   -2.0493    1.0964 H   0  0  0  0  0  0  0  0  0  0  0  0
   -4.2804    0.0942   -1.3108 H   0  0  0  0  0  0  0  0  0  0  0  0
   -3.2835    2.2993   -1.0059 H   0  0  0  0  0  0  0  0  0  0  0  0
   -1.4774    3.7378   -0.1621 H   0  0  0  0  0  0  0  0  0  0  0  0
    0.4347    2.7602    1.0434 H   0  0  0  0  0  0  0  0  0  0  0  0
    1.2362    0.9313    2.4075 H   0  0  0  0  0  0  0  0  0  0  0  0
    0.7208   -0.7180    2.1941 H   0  0  0  0  0  0  0  0  0  0  0  0
    4.8357   -0.6367    0.1837 H   0  0  0  0  0  0  0  0  0  0  0  0
    4.6292    0.8846   -0.7142 H   0  0  0  0  0  0  0  0  0  0  0  0
    3.5868   -1.5638   -1.6147 H   0  0  0  0  0  0  0  0  0  0  0  0
    2.8719    0.0211   -2.0267 H   0  0  0  0  0  0  0  0  0  0  0  0
    1.1093   -0.9591   -0.8130 H   0  0  0  0  0  0  0  0  0  0  0  0
  1  2  2  0
  2  3  1  0
  3  4  2  0
  4  5  1  0
  5  6  2  0
  5  7  1  0
  7  8  2  0
  8  9  1  0
  9 10  2  0
 10 11  1  0
 11 12  1  0
 12 13  2  0
 13 14  1  0
 14 15  1  0
 15 16  1  0
  6  1  1  0
 16 12  1  0
 10  4  1  0
  1 17  1  0
  2 18  1  0
  3 19  1  0
  6 20  1  0
  7 21  1  0
  8 22  1  0
  9 23  1  0
 11 24  1  0
 11 25  1  0
 14 26  1  0
 14 27  1  0
 15 28  1  0
 15 29  1  0
 16 30  1  0
M  END
$$$$
OCNT-2328617
     RDKit          3D

 31 32  0  0  0  0  0  0  0  0999 V2000
   -3.7520    0.1243    0.9566 C   0  0  0  0  0  0  0  0  0  0  0  0
   -2.4869   -0.3679    0.3040 C   0  0  0  0  0  0  0  0  0  0  0  0
   -1.3541    0.4658    0.1232 C   0  0  0  0  0  0  0  0  0  0  0  0
   -1.3775    1.9041    0.5828 C   0  0  0  0  0  0  0  0  0  0  0  0
   -0.1890   -0.0616   -0.5007 C   0  0  0  0  0  0  0  0  0  0  0  0
    1.0631    0.7847   -0.7423 C   0  0  2  0  0  0  0  0  0  0  0  0
    1.4056    0.9129   -2.2278 C   0  0  0  0  0  0  0  0  0  0  0  0
    2.1521    0.1576    0.0852 C   0  0  0  0  0  0  0  0  0  0  0  0
    2.3563    0.2454    1.4495 C   0  0  0  0  0  0  0  0  0  0  0  0
    3.4716   -0.5023    1.7011 N   0  0  0  0  0  0  0  0  0  0  0  0
    3.9144   -0.9962    0.5088 C   0  0  0  0  0  0  0  0  0  0  0  0
    3.1473   -0.6134   -0.4847 N   0  0  0  0  0  0  0  0  0  0  0  0
   -0.1980   -1.4063   -0.9277 C   0  0  0  0  0  0  0  0  0  0  0  0
   -1.3127   -2.2168   -0.7463 C   0  0  0  0  0  0  0  0  0  0  0  0
   -2.4483   -1.7006   -0.1354 C   0  0  0  0  0  0  0  0  0  0  0  0
   -4.1802    0.9511    0.3809 H   0  0  0  0  0  0  0  0  0  0  0  0
   -4.5124   -0.6625    1.0098 H   0  0  0  0  0  0  0  0  0  0  0  0
   -3.5496    0.4493    1.9821 H   0  0  0  0  0  0  0  0  0  0  0  0
   -1.2261    2.5732   -0.2707 H   0  0  0  0  0  0  0  0  0  0  0  0
   -0.5950    2.0730    1.3298 H   0  0  0  0  0  0  0  0  0  0  0  0
   -2.3218    2.1972    1.0470 H   0  0  0  0  0  0  0  0  0  0  0  0
    0.9277    1.8042   -0.3676 H   0  0  0  0  0  0  0  0  0  0  0  0
    0.5757    1.3699   -2.7781 H   0  0  0  0  0  0  0  0  0  0  0  0
    1.6216   -0.0534   -2.6968 H   0  0  0  0  0  0  0  0  0  0  0  0
    2.2903    1.5449   -2.3653 H   0  0  0  0  0  0  0  0  0  0  0  0
    1.8071    0.7470    2.2333 H   0  0  0  0  0  0  0  0  0  0  0  0
    3.8951   -0.6657    2.6037 H   0  0  0  0  0  0  0  0  0  0  0  0
    4.7921   -1.6231    0.4274 H   0  0  0  0  0  0  0  0  0  0  0  0
    0.6863   -1.8342   -1.3992 H   0  0  0  0  0  0  0  0  0  0  0  0
   -1.2922   -3.2504   -1.0799 H   0  0  0  0  0  0  0  0  0  0  0  0
   -3.3108   -2.3500   -0.0024 H   0  0  0  0  0  0  0  0  0  0  0  0
  1  2  1  0
  2  3  2  0
  3  4  1  0
  3  5  1  0
  5  6  1  0
  6  7  1  0
  6  8  1  0
  8  9  2  0
  9 10  1  0
 10 11  1  0
 11 12  2  0
  5 13  2  0
 13 14  1  0
 14 15  2  0
 15  2  1  0
 12  8  1  0
  1 16  1  0
  1 17  1  0
  1 18  1  0
  4 19  1  0
  4 20  1  0
  4 21  1  0
  6 22  1  1
  7 23  1  0
  7 24  1  0
  7 25  1  0
  9 26  1  0
 10 27  1  0
 11 28  1  0
 13 29  1  0
 14 30  1  0
 15 31  1  0
M  END
$$$$
OCNT-2328630
     RDKit          3D

 62 61  0  0  0  0  0  0  0  0999 V2000
    7.2259    0.9295   -1.2602 C   0  0  0  0  0  0  0  0  0  0  0  0
    6.9890   -0.5240   -0.8767 C   0  0  0  0  0  0  0  0  0  0  0  0
    7.1813   -0.8009    0.6166 C   0  0  0  0  0  0  0  0  0  0  0  0
    6.1684   -0.1355    1.5569 C   0  0  0  0  0  0  0  0  0  0  0  0
    4.9573   -1.0054    1.9145 C   0  0  0  0  0  0  0  0  0  0  0  0
    3.9698   -1.2993    0.7839 C   0  0  0  0  0  0  0  0  0  0  0  0
    3.3336   -0.0713    0.1245 C   0  0  0  0  0  0  0  0  0  0  0  0
    2.5679    0.8631    1.0667 C   0  0  0  0  0  0  0  0  0  0  0  0
    1.4247    0.2175    1.8565 C   0  0  0  0  0  0  0  0  0  0  0  0
    0.3456   -0.4810    1.0215 C   0  0  0  0  0  0  0  0  0  0  0  0
   -0.3929    0.4644    0.0706 C   0  0  0  0  0  0  0  0  0  0  0  0
   -1.4679   -0.2337   -0.7708 C   0  0  0  0  0  0  0  0  0  0  0  0
   -2.6619   -0.7250    0.0523 C   0  0  0  0  0  0  0  0  0  0  0  0
   -3.7419   -1.4083   -0.7931 C   0  0  0  0  0  0  0  0  0  0  0  0
   -4.4046   -0.5441   -1.8674 C   0  0  0  0  0  0  0  0  0  0  0  0
   -4.9846    0.8151   -1.4597 C   0  0  0  0  0  0  0  0  0  0  0  0
   -6.2675    0.7966   -0.6057 N   0  0  0  0  0  0  0  0  0  0  0  0
   -6.8990    2.1957   -0.7022 C   0  0  0  0  0  0  0  0  0  0  0  0
   -7.2891   -0.2125   -1.1124 C   0  0  0  0  0  0  0  0  0  0  0  0
   -5.9772    0.5367    0.8671 C   0  0  0  0  0  0  0  0  0  0  0  0
    7.1763    1.0422   -2.3480 H   0  0  0  0  0  0  0  0  0  0  0  0
    6.4723    1.5917   -0.8255 H   0  0  0  0  0  0  0  0  0  0  0  0
    8.2139    1.2669   -0.9313 H   0  0  0  0  0  0  0  0  0  0  0  0
    5.9946   -0.8310   -1.2100 H   0  0  0  0  0  0  0  0  0  0  0  0
    7.7049   -1.1426   -1.4320 H   0  0  0  0  0  0  0  0  0  0  0  0
    7.1825   -1.8851    0.7818 H   0  0  0  0  0  0  0  0  0  0  0  0
    8.1847   -0.4524    0.8944 H   0  0  0  0  0  0  0  0  0  0  0  0
    6.6923    0.0656    2.5013 H   0  0  0  0  0  0  0  0  0  0  0  0
    5.8486    0.8422    1.1863 H   0  0  0  0  0  0  0  0  0  0  0  0
    5.3156   -1.9619    2.3162 H   0  0  0  0  0  0  0  0  0  0  0  0
    4.4210   -0.5234    2.7409 H   0  0  0  0  0  0  0  0  0  0  0  0
    3.1765   -1.9442    1.1812 H   0  0  0  0  0  0  0  0  0  0  0  0
    4.4669   -1.8986    0.0134 H   0  0  0  0  0  0  0  0  0  0  0  0
    2.6614   -0.4148   -0.6708 H   0  0  0  0  0  0  0  0  0  0  0  0
    4.1086    0.5146   -0.3819 H   0  0  0  0  0  0  0  0  0  0  0  0
    3.2691    1.3137    1.7794 H   0  0  0  0  0  0  0  0  0  0  0  0
    2.1745    1.7008    0.4786 H   0  0  0  0  0  0  0  0  0  0  0  0
    0.9490    0.9942    2.4687 H   0  0  0  0  0  0  0  0  0  0  0  0
    1.8397   -0.5093    2.5648 H   0  0  0  0  0  0  0  0  0  0  0  0
    0.7838   -1.3105    0.4555 H   0  0  0  0  0  0  0  0  0  0  0  0
   -0.3687   -0.9286    1.7216 H   0  0  0  0  0  0  0  0  0  0  0  0
   -0.8461    1.2853    0.6394 H   0  0  0  0  0  0  0  0  0  0  0  0
    0.3244    0.9173   -0.6231 H   0  0  0  0  0  0  0  0  0  0  0  0
   -1.0210   -1.0737   -1.3160 H   0  0  0  0  0  0  0  0  0  0  0  0
   -1.8141    0.4844   -1.5227 H   0  0  0  0  0  0  0  0  0  0  0  0
   -2.3194   -1.4547    0.7945 H   0  0  0  0  0  0  0  0  0  0  0  0
   -3.0904    0.1097    0.6160 H   0  0  0  0  0  0  0  0  0  0  0  0
   -3.2907   -2.2765   -1.2918 H   0  0  0  0  0  0  0  0  0  0  0  0
   -4.5061   -1.8276   -0.1322 H   0  0  0  0  0  0  0  0  0  0  0  0
   -5.1650   -1.1438   -2.3803 H   0  0  0  0  0  0  0  0  0  0  0  0
   -3.6505   -0.3465   -2.6410 H   0  0  0  0  0  0  0  0  0  0  0  0
   -4.2503    1.4350   -0.9339 H   0  0  0  0  0  0  0  0  0  0  0  0
   -5.2503    1.3429   -2.3846 H   0  0  0  0  0  0  0  0  0  0  0  0
   -7.1644    2.3850   -1.7467 H   0  0  0  0  0  0  0  0  0  0  0  0
   -6.1660    2.9279   -0.3504 H   0  0  0  0  0  0  0  0  0  0  0  0
   -7.7955    2.2185   -0.0750 H   0  0  0  0  0  0  0  0  0  0  0  0
   -6.9095   -1.2216   -0.9324 H   0  0  0  0  0  0  0  0  0  0  0  0
   -8.2222   -0.0689   -0.5587 H   0  0  0  0  0  0  0  0  0  0  0  0
   -7.4486   -0.0370   -2.1801 H   0  0  0  0  0  0  0  0  0  0  0  0
   -5.2156    1.2458    1.2033 H   0  0  0  0  0  0  0  0  0  0  0  0
   -6.9032    0.6823    1.4327 H   0  0  0  0  0  0  0  0  0  0  0  0
   -5.6397   -0.4905    0.9944 H   0  0  0  0  0  0  0  0  0  0  0  0
  1  2  1  0
  2  3  1  0
  3  4  1  0
  4  5  1  0
  5  6  1  0
  6  7  1  0
  7  8  1  0
  8  9  1  0
  9 10  1  0
 10 11  1  0
 11 12  1  0
 12 13  1  0
 13 14  1  0
 14 15  1  0
 15 16  1  0
 16 17  1  0
 17 18  1  0
 17 19  1  0
 17 20  1  0
  1 21  1  0
  1 22  1  0
  1 23  1  0
  2 24  1  0
  2 25  1  0
  3 26  1  0
  3 27  1  0
  4 28  1  0
  4 29  1  0
  5 30  1  0
  5 31  1  0
  6 32  1  0
  6 33  1  0
  7 34  1  0
  7 35  1  0
  8 36  1  0
  8 37  1  0
  9 38  1  0
  9 39  1  0
 10 40  1  0
 10 41  1  0
 11 42  1  0
 11 43  1  0
 12 44  1  0
 12 45  1  0
 13 46  1  0
 13 47  1  0
 14 48  1  0
 14 49  1  0
 15 50  1  0
 15 51  1  0
 16 52  1  0
 16 53  1  0
 18 54  1  0
 18 55  1  0
 18 56  1  0
 19 57  1  0
 19 58  1  0
 19 59  1  0
 20 60  1  0
 20 61  1  0
 20 62  1  0
M  CHG  1  17   1
M  END
$$$$
OCNT-2328635
     RDKit          3D

 33 33  0  0  0  0  0  0  0  0999 V2000
   -4.3820    0.1691   -0.5384 C   0  0  0  0  0  0  0  0  0  0  0  0
   -3.5729   -0.4108    0.6146 C   0  0  0  0  0  0  0  0  0  0  0  0
   -3.7757   -1.9084    0.8076 C   0  0  0  0  0  0  0  0  0  0  0  0
   -2.1650   -0.0192    0.5353 N   0  0  0  0  0  0  0  0  0  0  0  0
   -1.3058   -0.5049   -0.2806 C   0  0  0  0  0  0  0  0  0  0  0  0
   -1.5154   -1.4352   -1.2447 N   0  0  0  0  0  0  0  0  0  0  0  0
   -0.0125   -0.0753   -0.2200 N   0  0  0  0  0  0  0  0  0  0  0  0
    0.3524    1.0277    0.3454 C   0  0  0  0  0  0  0  0  0  0  0  0
   -0.4716    1.9442    0.9401 N   0  0  0  0  0  0  0  0  0  0  0  0
    1.6379    1.4984    0.4207 N   0  0  0  0  0  0  0  0  0  0  0  0
    2.8286    0.8835   -0.0076 C   0  0  0  0  0  0  0  0  0  0  0  0
    3.9623    1.6856   -0.2256 C   0  0  0  0  0  0  0  0  0  0  0  0
    5.1808    1.1279   -0.6278 C   0  0  0  0  0  0  0  0  0  0  0  0
    5.2843   -0.2476   -0.8047 C   0  0  0  0  0  0  0  0  0  0  0  0
    6.7800   -0.9387   -1.2974 Cl  0  0  0  0  0  0  0  0  0  0  0  0
    4.1832   -1.0652   -0.5761 C   0  0  0  0  0  0  0  0  0  0  0  0
    2.9669   -0.5001   -0.1744 C   0  0  0  0  0  0  0  0  0  0  0  0
   -5.4528    0.0083   -0.3739 H   0  0  0  0  0  0  0  0  0  0  0  0
   -4.2125    1.2479   -0.6250 H   0  0  0  0  0  0  0  0  0  0  0  0
   -4.1267   -0.2820   -1.5003 H   0  0  0  0  0  0  0  0  0  0  0  0
   -3.9525    0.0649    1.5283 H   0  0  0  0  0  0  0  0  0  0  0  0
   -4.8104   -2.1152    1.1024 H   0  0  0  0  0  0  0  0  0  0  0  0
   -3.1182   -2.2937    1.5941 H   0  0  0  0  0  0  0  0  0  0  0  0
   -3.5840   -2.4808   -0.1038 H   0  0  0  0  0  0  0  0  0  0  0  0
   -0.7466   -1.4325   -1.9042 H   0  0  0  0  0  0  0  0  0  0  0  0
   -2.4134   -1.3787   -1.6962 H   0  0  0  0  0  0  0  0  0  0  0  0
   -1.4108    1.5342    1.0054 H   0  0  0  0  0  0  0  0  0  0  0  0
   -0.1657    2.1654    1.8802 H   0  0  0  0  0  0  0  0  0  0  0  0
    1.6828    2.5066    0.4684 H   0  0  0  0  0  0  0  0  0  0  0  0
    3.9065    2.7631   -0.0900 H   0  0  0  0  0  0  0  0  0  0  0  0
    6.0392    1.7718   -0.7977 H   0  0  0  0  0  0  0  0  0  0  0  0
    4.2577   -2.1421   -0.6997 H   0  0  0  0  0  0  0  0  0  0  0  0
    2.1320   -1.1681    0.0205 H   0  0  0  0  0  0  0  0  0  0  0  0
  1  2  1  0
  2  3  1  0
  2  4  1  0
  4  5  2  3
  5  6  1  0
  5  7  1  0
  7  8  2  3
  8  9  1  0
  8 10  1  0
 10 11  1  0
 11 12  1  0
 12 13  2  0
 13 14  1  0
 14 15  1  0
 14 16  2  0
 16 17  1  0
 17 11  2  0
  1 18  1  0
  1 19  1  0
  1 20  1  0
  2 21  1  0
  3 22  1  0
  3 23  1  0
  3 24  1  0
  6 25  1  0
  6 26  1  0
  9 27  1  0
  9 28  1  0
 10 29  1  0
 12 30  1  0
 13 31  1  0
 16 32  1  0
 17 33  1  0
M  END
$$$$
OCNT-2328651
     RDKit          3D

 49 50  0  0  0  0  0  0  0  0999 V2000
    3.5963    1.8994    1.2804 C   0  0  0  0  0  0  0  0  0  0  0  0
    3.4284    0.7172    2.2211 C   0  0  0  0  0  0  0  0  0  0  0  0
    3.5016   -0.6544    1.5417 C   0  0  0  0  0  0  0  0  0  0  0  0
    2.2567   -1.0501    0.7288 C   0  0  0  0  0  0  0  0  0  0  0  0
    2.0490   -0.2432   -0.4862 N   0  0  0  0  0  0  0  0  0  0  0  0
    2.9905   -0.5920   -1.5639 C   0  0  0  0  0  0  0  0  0  0  0  0
    2.7199   -1.9563   -2.2078 C   0  0  0  0  0  0  0  0  0  0  0  0
    1.2666   -2.0996   -2.6492 C   0  0  0  0  0  0  0  0  0  0  0  0
    0.2922   -1.6753   -1.5506 C   0  0  0  0  0  0  0  0  0  0  0  0
    0.6553   -0.2813   -1.0104 C   0  0  1  0  0  0  0  0  0  0  0  0
   -0.3993    0.2925   -0.0132 C   0  0  0  0  0  0  0  0  0  0  0  0
   -0.1109    0.8053    1.0647 O   0  0  0  0  0  0  0  0  0  0  0  0
   -1.6913    0.2477   -0.5330 N   0  0  0  0  0  0  0  0  0  0  0  0
   -2.8741    0.6294    0.1496 C   0  0  0  0  0  0  0  0  0  0  0  0
   -3.8624    1.3240   -0.5927 C   0  0  0  0  0  0  0  0  0  0  0  0
   -3.6807    1.6811   -2.0453 C   0  0  0  0  0  0  0  0  0  0  0  0
   -5.0478    1.7350    0.0395 C   0  0  0  0  0  0  0  0  0  0  0  0
   -5.2672    1.4608    1.3833 C   0  0  0  0  0  0  0  0  0  0  0  0
   -4.3181    0.7440    2.1031 C   0  0  0  0  0  0  0  0  0  0  0  0
   -3.1310    0.2910    1.4965 C   0  0  0  0  0  0  0  0  0  0  0  0
   -2.2339   -0.5716    2.3442 C   0  0  0  0  0  0  0  0  0  0  0  0
    3.7163    2.8214    1.8590 H   0  0  0  0  0  0  0  0  0  0  0  0
    4.4819    1.7806    0.6485 H   0  0  0  0  0  0  0  0  0  0  0  0
    2.7225    2.0345    0.6384 H   0  0  0  0  0  0  0  0  0  0  0  0
    4.2325    0.7654    2.9661 H   0  0  0  0  0  0  0  0  0  0  0  0
    2.4865    0.8158    2.7730 H   0  0  0  0  0  0  0  0  0  0  0  0
    4.4120   -0.7268    0.9371 H   0  0  0  0  0  0  0  0  0  0  0  0
    3.6154   -1.4045    2.3358 H   0  0  0  0  0  0  0  0  0  0  0  0
    2.3281   -2.1167    0.4875 H   0  0  0  0  0  0  0  0  0  0  0  0
    1.4036   -0.9763    1.4102 H   0  0  0  0  0  0  0  0  0  0  0  0
    4.0266   -0.5515   -1.2118 H   0  0  0  0  0  0  0  0  0  0  0  0
    2.9274    0.1828   -2.3397 H   0  0  0  0  0  0  0  0  0  0  0  0
    3.3775   -2.0869   -3.0752 H   0  0  0  0  0  0  0  0  0  0  0  0
    2.9702   -2.7625   -1.5089 H   0  0  0  0  0  0  0  0  0  0  0  0
    1.0991   -1.4746   -3.5354 H   0  0  0  0  0  0  0  0  0  0  0  0
    1.0666   -3.1343   -2.9492 H   0  0  0  0  0  0  0  0  0  0  0  0
    0.2925   -2.4137   -0.7395 H   0  0  0  0  0  0  0  0  0  0  0  0
   -0.7213   -1.6868   -1.9670 H   0  0  0  0  0  0  0  0  0  0  0  0
    0.6189    0.4287   -1.8511 H   0  0  0  0  0  0  0  0  0  0  0  0
   -1.7295    0.2971   -1.5409 H   0  0  0  0  0  0  0  0  0  0  0  0
   -2.7756    2.2821   -2.1801 H   0  0  0  0  0  0  0  0  0  0  0  0
   -4.5215    2.2707   -2.4263 H   0  0  0  0  0  0  0  0  0  0  0  0
   -3.6156    0.7731   -2.6534 H   0  0  0  0  0  0  0  0  0  0  0  0
   -5.8062    2.2862   -0.5125 H   0  0  0  0  0  0  0  0  0  0  0  0
   -6.1811    1.7936    1.8677 H   0  0  0  0  0  0  0  0  0  0  0  0
   -4.5158    0.5161    3.1491 H   0  0  0  0  0  0  0  0  0  0  0  0
   -1.6687   -1.2887    1.7421 H   0  0  0  0  0  0  0  0  0  0  0  0
   -1.5525    0.0461    2.9359 H   0  0  0  0  0  0  0  0  0  0  0  0
   -2.8296   -1.1746    3.0399 H   0  0  0  0  0  0  0  0  0  0  0  0
  1  2  1  0
  2  3  1  0
  3  4  1  0
  4  5  1  0
  5  6  1  0
  6  7  1  0
  7  8  1  0
  8  9  1  0
  9 10  1  0
 10 11  1  0
 11 12  2  0
 11 13  1  0
 13 14  1  0
 14 15  2  0
 15 16  1  0
 15 17  1  0
 17 18  2  0
 18 19  1  0
 19 20  2  0
 20 21  1  0
 10  5  1  0
 20 14  1  0
  1 22  1  0
  1 23  1  0
  1 24  1  0
  2 25  1  0
  2 26  1  0
  3 27  1  0
  3 28  1  0
  4 29  1  0
  4 30  1  0
  6 31  1  0
  6 32  1  0
  7 33  1  0
  7 34  1  0
  8 35  1  0
  8 36  1  0
  9 37  1  0
  9 38  1  0
 10 39  1  6
 13 40  1  0
 16 41  1  0
 16 42  1  0
 16 43  1  0
 17 44  1  0
 18 45  1  0
 19 46  1  0
 21 47  1  0
 21 48  1  0
 21 49  1  0
M  END
$$$$
OCNT-2328652
     RDKit          3D

 50 52  0  0  0  0  0  0  0  0999 V2000
   -3.2687   -0.5287    0.8172 C   0  0  0  0  0  0  0  0  0  0  0  0
   -3.5808   -1.3171   -0.4583 C   0  0  0  0  0  0  0  0  0  0  0  0
   -5.0981   -1.3430   -0.6731 C   0  0  0  0  0  0  0  0  0  0  0  0
   -3.1630   -2.6787   -0.2668 O   0  0  0  0  0  0  0  0  0  0  0  0
   -2.8938   -0.7331   -1.7226 C   0  0  0  0  0  0  0  0  0  0  0  0
   -1.4797   -1.0755   -1.8202 N   0  0  0  0  0  0  0  0  0  0  0  0
   -0.5501   -0.3402   -1.1233 C   0  0  0  0  0  0  0  0  0  0  0  0
    0.5801   -0.9643   -0.8317 N   0  0  0  0  0  0  0  0  0  0  0  0
    1.4930   -0.2657   -0.1679 C   0  0  0  0  0  0  0  0  0  0  0  0
    2.7192   -0.8257    0.1918 N   0  0  0  0  0  0  0  0  0  0  0  0
    3.3551   -2.0348   -0.1148 C   0  0  0  0  0  0  0  0  0  0  0  0
    2.8374   -2.9878   -0.9876 C   0  0  0  0  0  0  0  0  0  0  0  0
    3.5334   -4.1680   -1.1940 C   0  0  0  0  0  0  0  0  0  0  0  0
    4.6997   -4.4695   -0.5890 N   0  0  0  0  0  0  0  0  0  0  0  0
    5.2136   -3.5501    0.2713 C   0  0  0  0  0  0  0  0  0  0  0  0
    6.5136   -3.8493    1.0050 C   0  0  0  0  0  0  0  0  0  0  0  0
    7.3535   -2.7705    1.0349 F   0  0  0  0  0  0  0  0  0  0  0  0
    6.3086   -4.1805    2.3134 F   0  0  0  0  0  0  0  0  0  0  0  0
    7.2448   -4.8668    0.4698 F   0  0  0  0  0  0  0  0  0  0  0  0
    4.5606   -2.3405    0.5295 C   0  0  0  0  0  0  0  0  0  0  0  0
    1.3159    0.9884    0.2304 N   0  0  0  0  0  0  0  0  0  0  0  0
    0.1396    1.5333   -0.0933 C   0  0  0  0  0  0  0  0  0  0  0  0
   -0.1301    2.9242    0.3531 C   0  0  0  0  0  0  0  0  0  0  0  0
    0.8644    3.7318    0.9070 C   0  0  0  0  0  0  0  0  0  0  0  0
    0.5544    5.0283    1.3102 C   0  0  0  0  0  0  0  0  0  0  0  0
   -0.7444    5.4985    1.1583 C   0  0  0  0  0  0  0  0  0  0  0  0
   -1.7091    4.6552    0.6103 C   0  0  0  0  0  0  0  0  0  0  0  0
   -3.1287    5.1765    0.4256 C   0  0  0  0  0  0  0  0  0  0  0  0
   -3.5536    5.9223    1.4896 F   0  0  0  0  0  0  0  0  0  0  0  0
   -3.2473    5.9948   -0.6599 F   0  0  0  0  0  0  0  0  0  0  0  0
   -4.0678    4.2014    0.2664 F   0  0  0  0  0  0  0  0  0  0  0  0
   -1.4055    3.3876    0.2080 N   0  0  0  0  0  0  0  0  0  0  0  0
   -0.8163    0.9034   -0.7734 N   0  0  0  0  0  0  0  0  0  0  0  0
   -2.2177   -0.6225    1.1065 H   0  0  0  0  0  0  0  0  0  0  0  0
   -3.8415   -0.9240    1.6645 H   0  0  0  0  0  0  0  0  0  0  0  0
   -3.5126    0.5327    0.7051 H   0  0  0  0  0  0  0  0  0  0  0  0
   -5.6079   -1.7908    0.1879 H   0  0  0  0  0  0  0  0  0  0  0  0
   -5.3607   -1.9622   -1.5386 H   0  0  0  0  0  0  0  0  0  0  0  0
   -5.4997   -0.3366   -0.8301 H   0  0  0  0  0  0  0  0  0  0  0  0
   -2.2458   -2.6485    0.0576 H   0  0  0  0  0  0  0  0  0  0  0  0
   -3.3612   -1.1847   -2.6069 H   0  0  0  0  0  0  0  0  0  0  0  0
   -3.0703    0.3461   -1.8111 H   0  0  0  0  0  0  0  0  0  0  0  0
   -1.2575   -2.0621   -1.8138 H   0  0  0  0  0  0  0  0  0  0  0  0
    3.2606   -0.1398    0.6988 H   0  0  0  0  0  0  0  0  0  0  0  0
    1.9093   -2.8351   -1.5248 H   0  0  0  0  0  0  0  0  0  0  0  0
    3.1539   -4.9253   -1.8751 H   0  0  0  0  0  0  0  0  0  0  0  0
    4.9986   -1.6416    1.2380 H   0  0  0  0  0  0  0  0  0  0  0  0
    1.8794    3.3622    1.0227 H   0  0  0  0  0  0  0  0  0  0  0  0
    1.3233    5.6667    1.7380 H   0  0  0  0  0  0  0  0  0  0  0  0
   -0.9999    6.5095    1.4655 H   0  0  0  0  0  0  0  0  0  0  0  0
  1  2  1  0
  2  3  1  0
  2  4  1  0
  2  5  1  0
  5  6  1  0
  6  7  1  0
  7  8  1  0
  8  9  2  0
  9 10  1  0
 10 11  1  0
 11 12  2  0
 12 13  1  0
 13 14  2  0
 14 15  1  0
 15 16  1  0
 16 17  1  0
 16 18  1  0
 16 19  1  0
 15 20  2  0
  9 21  1  0
 21 22  2  0
 22 23  1  0
 23 24  1  0
 24 25  2  0
 25 26  1  0
 26 27  2  0
 27 28  1  0
 28 29  1  0
 28 30  1  0
 28 31  1  0
 27 32  1  0
 22 33  1  0
 33  7  2  0
 20 11  1  0
 32 23  2  0
  1 34  1  0
  1 35  1  0
  1 36  1  0
  3 37  1  0
  3 38  1  0
  3 39  1  0
  4 40  1  0
  5 41  1  0
  5 42  1  0
  6 43  1  0
 10 44  1  0
 12 45  1  0
 13 46  1  0
 20 47  1  0
 24 48  1  0
 25 49  1  0
 26 50  1  0
M  END
$$$$
OCNT-2328659
     RDKit          3D

 42 44  0  0  0  0  0  0  0  0999 V2000
    4.7204   -0.0937    0.7137 C   0  0  0  0  0  0  0  0  0  0  0  0
    3.6067   -0.4534   -0.1673 N   0  0  0  0  0  0  0  0  0  0  0  0
    4.1189   -1.1200   -1.3659 C   0  0  0  0  0  0  0  0  0  0  0  0
    2.8180    0.7510   -0.5002 C   0  0  0  0  0  0  0  0  0  0  0  0
    1.4900    0.4852   -1.2368 C   0  0  0  0  0  0  0  0  0  0  0  0
    0.5562   -0.4151   -0.4647 C   0  0  0  0  0  0  0  0  0  0  0  0
   -0.6413   -0.1204    0.0931 C   0  0  0  0  0  0  0  0  0  0  0  0
   -1.4299   -1.2371    0.6885 C   0  0  0  0  0  0  0  0  0  0  0  0
   -2.8118   -1.3863    0.4439 C   0  0  0  0  0  0  0  0  0  0  0  0
   -3.5004   -2.4570    1.0555 C   0  0  0  0  0  0  0  0  0  0  0  0
   -2.8438   -3.3629    1.8872 C   0  0  0  0  0  0  0  0  0  0  0  0
   -1.4884   -3.2061    2.1406 C   0  0  0  0  0  0  0  0  0  0  0  0
   -0.7915   -2.1496    1.5535 C   0  0  0  0  0  0  0  0  0  0  0  0
   -3.6508   -0.4177   -0.3752 C   0  0  0  0  0  0  0  0  0  0  0  0
   -2.9809    0.3600   -1.3771 O   0  0  0  0  0  0  0  0  0  0  0  0
   -2.3568    1.4323   -0.7933 C   0  0  0  0  0  0  0  0  0  0  0  0
   -1.1984    1.2421   -0.0336 C   0  0  0  0  0  0  0  0  0  0  0  0
   -0.6102    2.3485    0.5908 C   0  0  0  0  0  0  0  0  0  0  0  0
   -1.1475    3.6259    0.4091 C   0  0  0  0  0  0  0  0  0  0  0  0
   -2.2748    3.8052   -0.3951 C   0  0  0  0  0  0  0  0  0  0  0  0
   -2.8814    2.7061   -1.0023 C   0  0  0  0  0  0  0  0  0  0  0  0
    4.3489    0.3534    1.6425 H   0  0  0  0  0  0  0  0  0  0  0  0
    5.4101    0.6146    0.2403 H   0  0  0  0  0  0  0  0  0  0  0  0
    5.2865   -0.9860    1.0037 H   0  0  0  0  0  0  0  0  0  0  0  0
    4.7384   -0.4536   -1.9768 H   0  0  0  0  0  0  0  0  0  0  0  0
    3.3034   -1.5038   -1.9865 H   0  0  0  0  0  0  0  0  0  0  0  0
    4.7235   -1.9921   -1.0912 H   0  0  0  0  0  0  0  0  0  0  0  0
    2.5721    1.2800    0.4303 H   0  0  0  0  0  0  0  0  0  0  0  0
    3.4215    1.4442   -1.1013 H   0  0  0  0  0  0  0  0  0  0  0  0
    1.0258    1.4493   -1.4678 H   0  0  0  0  0  0  0  0  0  0  0  0
    1.6820    0.0241   -2.2127 H   0  0  0  0  0  0  0  0  0  0  0  0
    0.9210   -1.4414   -0.4194 H   0  0  0  0  0  0  0  0  0  0  0  0
   -4.5686   -2.5846    0.8880 H   0  0  0  0  0  0  0  0  0  0  0  0
   -3.3936   -4.1807    2.3452 H   0  0  0  0  0  0  0  0  0  0  0  0
   -0.9703   -3.8984    2.7986 H   0  0  0  0  0  0  0  0  0  0  0  0
    0.2661   -2.0360    1.7861 H   0  0  0  0  0  0  0  0  0  0  0  0
   -4.3966   -1.0024   -0.9283 H   0  0  0  0  0  0  0  0  0  0  0  0
   -4.2160    0.2354    0.3055 H   0  0  0  0  0  0  0  0  0  0  0  0
    0.2708    2.2192    1.2142 H   0  0  0  0  0  0  0  0  0  0  0  0
   -0.6818    4.4823    0.8901 H   0  0  0  0  0  0  0  0  0  0  0  0
   -2.6836    4.8013   -0.5438 H   0  0  0  0  0  0  0  0  0  0  0  0
   -3.7623    2.8379   -1.6230 H   0  0  0  0  0  0  0  0  0  0  0  0
  1  2  1  0
  2  3  1  0
  2  4  1  0
  4  5  1  0
  5  6  1  0
  6  7  2  3
  7  8  1  0
  8  9  1  0
  9 10  2  0
 10 11  1  0
 11 12  2  0
 12 13  1  0
  9 14  1  0
 14 15  1  0
 15 16  1  0
 16 17  1  0
 17 18  2  0
 18 19  1  0
 19 20  2  0
 20 21  1  0
 17  7  1  0
 13  8  2  0
 21 16  2  0
  1 22  1  0
  1 23  1  0
  1 24  1  0
  3 25  1  0
  3 26  1  0
  3 27  1  0
  4 28  1  0
  4 29  1  0
  5 30  1  0
  5 31  1  0
  6 32  1  0
 10 33  1  0
 11 34  1  0
 12 35  1  0
 13 36  1  0
 14 37  1  0
 14 38  1  0
 18 39  1  0
 19 40  1  0
 20 41  1  0
 21 42  1  0
M  END
$$$$
OCNT-2328663
     RDKit          3D

 54 57  0  0  0  0  0  0  0  0999 V2000
    4.3951   -0.7851   -2.7993 C   0  0  0  0  0  0  0  0  0  0  0  0
    3.4229   -1.1252   -1.7089 C   0  0  0  0  0  0  0  0  0  0  0  0
    2.7627   -0.2699   -0.9044 C   0  0  0  0  0  0  0  0  0  0  0  0
    2.8719    1.1941   -1.0185 C   0  0  0  0  0  0  0  0  0  0  0  0
    2.3808    1.8685   -2.1445 C   0  0  0  0  0  0  0  0  0  0  0  0
    2.4742    3.2591   -2.2347 C   0  0  0  0  0  0  0  0  0  0  0  0
    3.0498    3.9867   -1.1939 C   0  0  0  0  0  0  0  0  0  0  0  0
    3.5235    3.3267   -0.0614 C   0  0  0  0  0  0  0  0  0  0  0  0
    3.4318    1.9365    0.0303 C   0  0  0  0  0  0  0  0  0  0  0  0
    1.9200   -0.6436    0.1245 O   0  0  0  0  0  0  0  0  0  0  0  0
    1.6991   -1.9727    0.3659 C   0  0  0  0  0  0  0  0  0  0  0  0
    2.2760   -2.9667   -0.4165 C   0  0  0  0  0  0  0  0  0  0  0  0
    1.9971   -4.3189   -0.1762 C   0  0  0  0  0  0  0  0  0  0  0  0
    1.1310   -4.6792    0.8556 C   0  0  0  0  0  0  0  0  0  0  0  0
    0.5544   -3.6900    1.6505 C   0  0  0  0  0  0  0  0  0  0  0  0
    0.8423   -2.3364    1.4111 C   0  0  0  0  0  0  0  0  0  0  0  0
    0.2687   -1.2962    2.2925 C   0  0  0  0  0  0  0  0  0  0  0  0
    0.8938   -0.3454    2.7352 O   0  0  0  0  0  0  0  0  0  0  0  0
   -1.0423   -1.5700    2.4987 O   0  0  0  0  0  0  0  0  0  0  0  0
   -1.7689   -0.5686    3.2332 C   0  0  0  0  0  0  0  0  0  0  0  0
   -2.0644    0.6772    2.3745 C   0  0  0  0  0  0  0  0  0  0  0  0
   -2.8432    0.3817    1.1575 N   0  0  0  0  0  0  0  0  0  0  0  0
   -2.6582    1.4348    0.1505 C   0  0  0  0  0  0  0  0  0  0  0  0
   -3.6278    1.2695   -1.0200 C   0  0  0  0  0  0  0  0  0  0  0  0
   -5.0839    1.3575   -0.5688 C   0  0  0  0  0  0  0  0  0  0  0  0
   -5.2447    1.1018    0.9285 C   0  0  0  0  0  0  0  0  0  0  0  0
   -4.2494    0.0556    1.4319 C   0  0  0  0  0  0  0  0  0  0  0  0
    3.1876   -2.5777   -1.5038 C   0  0  0  0  0  0  0  0  0  0  0  0
    3.7233   -3.4252   -2.2105 O   0  0  0  0  0  0  0  0  0  0  0  0
    4.0418   -1.1705   -3.7637 H   0  0  0  0  0  0  0  0  0  0  0  0
    5.3721   -1.2355   -2.5843 H   0  0  0  0  0  0  0  0  0  0  0  0
    4.5607    0.2901   -2.9159 H   0  0  0  0  0  0  0  0  0  0  0  0
    1.9185    1.3148   -2.9600 H   0  0  0  0  0  0  0  0  0  0  0  0
    2.0949    3.7739   -3.1122 H   0  0  0  0  0  0  0  0  0  0  0  0
    3.1204    5.0688   -1.2625 H   0  0  0  0  0  0  0  0  0  0  0  0
    3.9583    3.8930    0.7561 H   0  0  0  0  0  0  0  0  0  0  0  0
    3.7941    1.4350    0.9266 H   0  0  0  0  0  0  0  0  0  0  0  0
    2.4508   -5.0896   -0.7955 H   0  0  0  0  0  0  0  0  0  0  0  0
    0.9098   -5.7285    1.0410 H   0  0  0  0  0  0  0  0  0  0  0  0
   -0.1136   -3.9755    2.4588 H   0  0  0  0  0  0  0  0  0  0  0  0
   -1.2094   -0.2889    4.1333 H   0  0  0  0  0  0  0  0  0  0  0  0
   -2.6954   -1.0367    3.5792 H   0  0  0  0  0  0  0  0  0  0  0  0
   -2.5778    1.4324    2.9828 H   0  0  0  0  0  0  0  0  0  0  0  0
   -1.1031    1.1133    2.0779 H   0  0  0  0  0  0  0  0  0  0  0  0
   -1.6318    1.3834   -0.2376 H   0  0  0  0  0  0  0  0  0  0  0  0
   -2.7912    2.4331    0.5936 H   0  0  0  0  0  0  0  0  0  0  0  0
   -3.4508    0.2962   -1.5009 H   0  0  0  0  0  0  0  0  0  0  0  0
   -3.4339    2.0298   -1.7851 H   0  0  0  0  0  0  0  0  0  0  0  0
   -5.4948    2.3443   -0.8088 H   0  0  0  0  0  0  0  0  0  0  0  0
   -5.6748    0.6313   -1.1388 H   0  0  0  0  0  0  0  0  0  0  0  0
   -6.2712    0.7795    1.1378 H   0  0  0  0  0  0  0  0  0  0  0  0
   -5.0965    2.0400    1.4794 H   0  0  0  0  0  0  0  0  0  0  0  0
   -4.4321   -0.1139    2.4973 H   0  0  0  0  0  0  0  0  0  0  0  0
   -4.4683   -0.8988    0.9370 H   0  0  0  0  0  0  0  0  0  0  0  0
  1  2  1  0
  2  3  2  0
  3  4  1  0
  4  5  2  0
  5  6  1  0
  6  7  2  0
  7  8  1  0
  8  9  2  0
  3 10  1  0
 10 11  1  0
 11 12  1  0
 12 13  2  0
 13 14  1  0
 14 15  2  0
 15 16  1  0
 16 17  1  0
 17 18  2  0
 17 19  1  0
 19 20  1  0
 20 21  1  0
 21 22  1  0
 22 23  1  0
 23 24  1  0
 24 25  1  0
 25 26  1  0
 26 27  1  0
 12 28  1  0
 28 29  2  0
 28  2  1  0
  9  4  1  0
 16 11  2  0
 27 22  1  0
  1 30  1  0
  1 31  1  0
  1 32  1  0
  5 33  1  0
  6 34  1  0
  7 35  1  0
  8 36  1  0
  9 37  1  0
 13 38  1  0
 14 39  1  0
 15 40  1  0
 20 41  1  0
 20 42  1  0
 21 43  1  0
 21 44  1  0
 23 45  1  0
 23 46  1  0
 24 47  1  0
 24 48  1  0
 25 49  1  0
 25 50  1  0
 26 51  1  0
 26 52  1  0
 27 53  1  0
 27 54  1  0
M  END
$$$$
OCNT-2328666
     RDKit          3D

 42 45  0  0  0  0  0  0  0  0999 V2000
   -4.3211   -5.5794    0.3521 Cl  0  0  0  0  0  0  0  0  0  0  0  0
   -3.5257   -4.0547    0.3665 C   0  0  0  0  0  0  0  0  0  0  0  0
   -2.4809   -3.8122   -0.5192 C   0  0  0  0  0  0  0  0  0  0  0  0
   -1.8354   -2.5739   -0.5080 C   0  0  0  0  0  0  0  0  0  0  0  0
   -2.2193   -1.5637    0.3957 C   0  0  0  0  0  0  0  0  0  0  0  0
   -1.5110   -0.2157    0.3791 C   0  0  0  0  0  0  0  0  0  0  0  0
   -2.2151    0.7349   -0.6023 C   0  0  0  0  0  0  0  0  0  0  0  0
   -1.7481    2.1008   -0.4406 N   0  0  0  0  0  0  0  0  0  0  0  0
   -2.2900    3.0505    0.3786 C   0  0  0  0  0  0  0  0  0  0  0  0
   -1.4869    4.1553    0.2146 C   0  0  0  0  0  0  0  0  0  0  0  0
   -0.4797    3.8967   -0.6794 N   0  0  0  0  0  0  0  0  0  0  0  0
   -0.6727    2.6571   -1.0707 C   0  0  0  0  0  0  0  0  0  0  0  0
   -0.1527   -0.3803   -0.0627 O   0  0  0  0  0  0  0  0  0  0  0  0
    0.7552   -0.6159    1.0153 C   0  0  0  0  0  0  0  0  0  0  0  0
    2.1414   -0.8099    0.4823 C   0  0  0  0  0  0  0  0  0  0  0  0
    2.7358   -2.0436    0.3163 C   0  0  0  0  0  0  0  0  0  0  0  0
    4.3108   -1.9397   -0.3119 S   0  0  0  0  0  0  0  0  0  0  0  0
    4.2543   -0.2164   -0.4010 C   0  0  0  0  0  0  0  0  0  0  0  0
    5.2533    0.6714   -0.8613 C   0  0  0  0  0  0  0  0  0  0  0  0
    6.7808    0.1088   -1.4362 Cl  0  0  0  0  0  0  0  0  0  0  0  0
    5.0088    2.0474   -0.8587 C   0  0  0  0  0  0  0  0  0  0  0  0
    3.7967    2.5437   -0.4066 C   0  0  0  0  0  0  0  0  0  0  0  0
    2.8106    1.6685    0.0534 C   0  0  0  0  0  0  0  0  0  0  0  0
    3.0207    0.2640    0.0631 C   0  0  0  0  0  0  0  0  0  0  0  0
   -3.2887   -1.8301    1.2710 C   0  0  0  0  0  0  0  0  0  0  0  0
   -3.8681   -0.6442    2.3870 Cl  0  0  0  0  0  0  0  0  0  0  0  0
   -3.9351   -3.0696    1.2598 C   0  0  0  0  0  0  0  0  0  0  0  0
   -2.1635   -4.5793   -1.2218 H   0  0  0  0  0  0  0  0  0  0  0  0
   -1.0218   -2.4029   -1.2134 H   0  0  0  0  0  0  0  0  0  0  0  0
   -1.4978    0.2275    1.3821 H   0  0  0  0  0  0  0  0  0  0  0  0
   -3.3008    0.7508   -0.4509 H   0  0  0  0  0  0  0  0  0  0  0  0
   -2.0233    0.4515   -1.6446 H   0  0  0  0  0  0  0  0  0  0  0  0
   -3.1641    2.8748    0.9902 H   0  0  0  0  0  0  0  0  0  0  0  0
   -1.5793    5.1219    0.6928 H   0  0  0  0  0  0  0  0  0  0  0  0
   -0.0617    2.1165   -1.7834 H   0  0  0  0  0  0  0  0  0  0  0  0
    0.7394    0.2383    1.7027 H   0  0  0  0  0  0  0  0  0  0  0  0
    0.4397   -1.5047    1.5752 H   0  0  0  0  0  0  0  0  0  0  0  0
    2.3124   -3.0143    0.5366 H   0  0  0  0  0  0  0  0  0  0  0  0
    5.7700    2.7373   -1.2151 H   0  0  0  0  0  0  0  0  0  0  0  0
    3.6052    3.6147   -0.4115 H   0  0  0  0  0  0  0  0  0  0  0  0
    1.8659    2.0835    0.4003 H   0  0  0  0  0  0  0  0  0  0  0  0
   -4.7580   -3.2655    1.9427 H   0  0  0  0  0  0  0  0  0  0  0  0
  1  2  1  0
  2  3  1  0
  3  4  2  0
  4  5  1  0
  5  6  1  0
  6  7  1  0
  7  8  1  0
  8  9  1  0
  9 10  2  0
 10 11  1  0
 11 12  2  0
  6 13  1  0
 13 14  1  0
 14 15  1  0
 15 16  2  0
 16 17  1  0
 17 18  1  0
 18 19  2  0
 19 20  1  0
 19 21  1  0
 21 22  2  0
 22 23  1  0
 23 24  2  0
  5 25  2  0
 25 26  1  0
 25 27  1  0
 27  2  2  0
 12  8  1  0
 24 15  1  0
 24 18  1  0
  3 28  1  0
  4 29  1  0
  6 30  1  0
  7 31  1  0
  7 32  1  0
  9 33  1  0
 10 34  1  0
 12 35  1  0
 14 36  1  0
 14 37  1  0
 16 38  1  0
 21 39  1  0
 22 40  1  0
 23 41  1  0
 27 42  1  0
M  END
$$$$
OCNT-2328670
     RDKit          3D

 29 30  0  0  0  0  0  0  0  0999 V2000
   -0.1447   -1.4019   -0.4655 N   0  0  0  0  0  0  0  0  0  0  0  0
    0.0289   -0.1275   -0.3587 C   0  0  0  0  0  0  0  0  0  0  0  0
   -0.9594    0.7983   -0.5642 N   0  0  0  0  0  0  0  0  0  0  0  0
   -2.3455    0.6605   -0.3797 C   0  0  0  0  0  0  0  0  0  0  0  0
   -3.2199    1.4587   -1.1318 C   0  0  0  0  0  0  0  0  0  0  0  0
   -4.6055    1.3356   -0.9948 C   0  0  0  0  0  0  0  0  0  0  0  0
   -5.1378    0.4092   -0.1024 C   0  0  0  0  0  0  0  0  0  0  0  0
   -4.2853   -0.3920    0.6519 C   0  0  0  0  0  0  0  0  0  0  0  0
   -2.9002   -0.2671    0.5117 C   0  0  0  0  0  0  0  0  0  0  0  0
    1.2099    0.4998   -0.0566 N   0  0  0  0  0  0  0  0  0  0  0  0
    2.4862   -0.0630    0.1532 C   0  0  0  0  0  0  0  0  0  0  0  0
    3.4847    0.7388    0.7349 C   0  0  0  0  0  0  0  0  0  0  0  0
    4.7841    0.2592    0.9291 C   0  0  0  0  0  0  0  0  0  0  0  0
    5.1152   -1.0305    0.5278 C   0  0  0  0  0  0  0  0  0  0  0  0
    4.1496   -1.8319   -0.0728 C   0  0  0  0  0  0  0  0  0  0  0  0
    2.8509   -1.3467   -0.2652 C   0  0  0  0  0  0  0  0  0  0  0  0
   -1.1106   -1.5719   -0.7563 H   0  0  0  0  0  0  0  0  0  0  0  0
   -0.6723    1.6433   -1.0382 H   0  0  0  0  0  0  0  0  0  0  0  0
   -2.8306    2.1812   -1.8448 H   0  0  0  0  0  0  0  0  0  0  0  0
   -5.2679    1.9604   -1.5884 H   0  0  0  0  0  0  0  0  0  0  0  0
   -6.2149    0.3111    0.0054 H   0  0  0  0  0  0  0  0  0  0  0  0
   -4.6946   -1.1144    1.3537 H   0  0  0  0  0  0  0  0  0  0  0  0
   -2.2571   -0.8916    1.1291 H   0  0  0  0  0  0  0  0  0  0  0  0
    1.0889    1.3774    0.4286 H   0  0  0  0  0  0  0  0  0  0  0  0
    3.2593    1.7542    1.0506 H   0  0  0  0  0  0  0  0  0  0  0  0
    5.5351    0.8948    1.3903 H   0  0  0  0  0  0  0  0  0  0  0  0
    6.1228   -1.4090    0.6758 H   0  0  0  0  0  0  0  0  0  0  0  0
    4.3998   -2.8379   -0.3995 H   0  0  0  0  0  0  0  0  0  0  0  0
    2.1310   -1.9972   -0.7540 H   0  0  0  0  0  0  0  0  0  0  0  0
  1  2  2  3
  2  3  1  0
  3  4  1  0
  4  5  2  0
  5  6  1  0
  6  7  2  0
  7  8  1  0
  8  9  2  0
  2 10  1  0
 10 11  1  0
 11 12  2  0
 12 13  1  0
 13 14  2  0
 14 15  1  0
 15 16  2  0
  9  4  1  0
 16 11  1  0
  1 17  1  0
  3 18  1  0
  5 19  1  0
  6 20  1  0
  7 21  1  0
  8 22  1  0
  9 23  1  0
 10 24  1  0
 12 25  1  0
 13 26  1  0
 14 27  1  0
 15 28  1  0
 16 29  1  0
M  END
$$$$
OCNT-2328671
     RDKit          3D

 42 44  0  0  0  0  0  0  0  0999 V2000
   -1.0149    0.2328    2.9953 O   0  0  0  0  0  0  0  0  0  0  0  0
   -0.8356   -0.4646    1.7464 C   0  0  2  0  0  0  0  0  0  0  0  0
    0.4096    0.0630    1.0431 C   0  0  0  0  0  0  0  0  0  0  0  0
    0.5710    1.4540    0.9422 C   0  0  0  0  0  0  0  0  0  0  0  0
    1.6857    1.9816    0.3094 C   0  0  0  0  0  0  0  0  0  0  0  0
    1.8236    3.4944    0.1874 C   0  0  0  0  0  0  0  0  0  0  0  0
    1.0326    4.0177   -0.7931 F   0  0  0  0  0  0  0  0  0  0  0  0
    3.0901    3.9175   -0.0866 F   0  0  0  0  0  0  0  0  0  0  0  0
    1.4631    4.1458    1.3340 F   0  0  0  0  0  0  0  0  0  0  0  0
    2.6388    1.1743   -0.2264 N   0  0  0  0  0  0  0  0  0  0  0  0
    2.5131   -0.1602   -0.1596 C   0  0  0  0  0  0  0  0  0  0  0  0
    3.5089   -0.9517   -0.7312 C   0  0  0  0  0  0  0  0  0  0  0  0
    4.6890   -0.2887   -1.3929 C   0  0  0  0  0  0  0  0  0  0  0  0
    5.4299    0.4783   -0.5452 F   0  0  0  0  0  0  0  0  0  0  0  0
    4.3520    0.5031   -2.4488 F   0  0  0  0  0  0  0  0  0  0  0  0
    5.5762   -1.1966   -1.9067 F   0  0  0  0  0  0  0  0  0  0  0  0
    3.4242   -2.3547   -0.6978 C   0  0  0  0  0  0  0  0  0  0  0  0
    2.3429   -2.9746   -0.0952 C   0  0  0  0  0  0  0  0  0  0  0  0
    1.3432   -2.1962    0.4806 C   0  0  0  0  0  0  0  0  0  0  0  0
    1.4018   -0.7809    0.4687 C   0  0  0  0  0  0  0  0  0  0  0  0
   -2.1695   -0.3762    0.9356 C   0  0  2  0  0  0  0  0  0  0  0  0
   -2.0989   -1.1217   -0.4054 C   0  0  0  0  0  0  0  0  0  0  0  0
   -3.4326   -1.0522   -1.1463 C   0  0  0  0  0  0  0  0  0  0  0  0
   -3.9046    0.3927   -1.2713 C   0  0  0  0  0  0  0  0  0  0  0  0
   -3.9198    1.0898    0.0868 C   0  0  0  0  0  0  0  0  0  0  0  0
   -2.6103    1.0230    0.7330 N   0  0  0  0  0  0  0  0  0  0  0  0
   -0.1318    0.3450    3.3877 H   0  0  0  0  0  0  0  0  0  0  0  0
   -0.6942   -1.5057    2.0458 H   0  0  0  0  0  0  0  0  0  0  0  0
   -0.1824    2.1261    1.3501 H   0  0  0  0  0  0  0  0  0  0  0  0
    4.2061   -2.9651   -1.1482 H   0  0  0  0  0  0  0  0  0  0  0  0
    2.2745   -4.0599   -0.0736 H   0  0  0  0  0  0  0  0  0  0  0  0
    0.5117   -2.7286    0.9331 H   0  0  0  0  0  0  0  0  0  0  0  0
   -2.9342   -0.8579    1.5625 H   0  0  0  0  0  0  0  0  0  0  0  0
   -1.3200   -0.6901   -1.0459 H   0  0  0  0  0  0  0  0  0  0  0  0
   -1.8348   -2.1723   -0.2383 H   0  0  0  0  0  0  0  0  0  0  0  0
   -3.3331   -1.5020   -2.1403 H   0  0  0  0  0  0  0  0  0  0  0  0
   -4.1842   -1.6371   -0.6018 H   0  0  0  0  0  0  0  0  0  0  0  0
   -3.2408    0.9354   -1.9563 H   0  0  0  0  0  0  0  0  0  0  0  0
   -4.9077    0.4171   -1.7118 H   0  0  0  0  0  0  0  0  0  0  0  0
   -4.1925    2.1415   -0.0521 H   0  0  0  0  0  0  0  0  0  0  0  0
   -4.6845    0.6436    0.7342 H   0  0  0  0  0  0  0  0  0  0  0  0
   -2.6619    1.4603    1.6572 H   0  0  0  0  0  0  0  0  0  0  0  0
  1  2  1  0
  2  3  1  0
  3  4  2  0
  4  5  1  0
  5  6  1  0
  6  7  1  0
  6  8  1  0
  6  9  1  0
  5 10  2  0
 10 11  1  0
 11 12  2  0
 12 13  1  0
 13 14  1  0
 13 15  1  0
 13 16  1  0
 12 17  1  0
 17 18  2  0
 18 19  1  0
 19 20  2  0
  2 21  1  0
 21 22  1  0
 22 23  1  0
 23 24  1  0
 24 25  1  0
 25 26  1  0
 20  3  1  0
 26 21  1  0
 20 11  1  0
  1 27  1  0
  2 28  1  1
  4 29  1  0
 17 30  1  0
 18 31  1  0
 19 32  1  0
 21 33  1  1
 22 34  1  0
 22 35  1  0
 23 36  1  0
 23 37  1  0
 24 38  1  0
 24 39  1  0
 25 40  1  0
 25 41  1  0
 26 42  1  0
M  END
$$$$
OCNT-2328676
     RDKit          3D

 23 23  0  0  0  0  0  0  0  0999 V2000
   -2.3216    1.1695   -0.7476 C   0  0  0  0  0  0  0  0  0  0  0  0
   -1.9891    0.7299    0.6029 N   0  0  0  0  0  0  0  0  0  0  0  0
   -3.1095    0.4481    1.4848 C   0  0  0  0  0  0  0  0  0  0  0  0
   -0.9127   -0.0999    0.8014 N   0  0  0  0  0  0  0  0  0  0  0  0
    0.0125    0.0873   -0.0115 N   0  0  0  0  0  0  0  0  0  0  0  0
    1.0988   -0.7156    0.1230 C   0  0  0  0  0  0  0  0  0  0  0  0
    2.3724   -0.6845   -0.4365 C   0  0  0  0  0  0  0  0  0  0  0  0
    2.9157    0.3088   -1.3667 C   0  0  0  0  0  0  0  0  0  0  0  0
    2.1095    1.3778   -1.6577 N   0  0  0  0  0  0  0  0  0  0  0  0
    4.0316    0.2409   -1.8749 O   0  0  0  0  0  0  0  0  0  0  0  0
    3.1149   -1.7689    0.0178 N   0  0  0  0  0  0  0  0  0  0  0  0
    2.3249   -2.4316    0.8261 C   0  0  0  0  0  0  0  0  0  0  0  0
    1.1049   -1.8372    0.9209 N   0  0  0  0  0  0  0  0  0  0  0  0
   -2.6893    0.3155   -1.3235 H   0  0  0  0  0  0  0  0  0  0  0  0
   -1.4490    1.6106   -1.2368 H   0  0  0  0  0  0  0  0  0  0  0  0
   -3.0990    1.9373   -0.6914 H   0  0  0  0  0  0  0  0  0  0  0  0
   -3.7731    1.3168    1.5134 H   0  0  0  0  0  0  0  0  0  0  0  0
   -3.6521   -0.4256    1.1127 H   0  0  0  0  0  0  0  0  0  0  0  0
   -2.7396    0.2539    2.4960 H   0  0  0  0  0  0  0  0  0  0  0  0
    2.5087    2.1136   -2.2218 H   0  0  0  0  0  0  0  0  0  0  0  0
    1.2392    1.5381   -1.1691 H   0  0  0  0  0  0  0  0  0  0  0  0
    2.5802   -3.3362    1.3623 H   0  0  0  0  0  0  0  0  0  0  0  0
    0.3220   -2.1487    1.4761 H   0  0  0  0  0  0  0  0  0  0  0  0
  1  2  1  0
  2  3  1  0
  2  4  1  0
  4  5  2  3
  5  6  1  0
  6  7  2  0
  7  8  1  0
  8  9  1  0
  8 10  2  0
  7 11  1  0
 11 12  2  0
 12 13  1  0
 13  6  1  0
  1 14  1  0
  1 15  1  0
  1 16  1  0
  3 17  1  0
  3 18  1  0
  3 19  1  0
  9 20  1  0
  9 21  1  0
 12 22  1  0
 13 23  1  0
M  END
$$$$
OCNT-2328688
     RDKit          3D

 25 27  0  0  0  0  0  0  0  0999 V2000
    0.3289    2.3527   -0.8803 N   0  0  0  0  0  0  0  0  0  0  0  0
    0.1356    1.0743   -0.2774 C   0  0  0  0  0  0  0  0  0  0  0  0
    1.2772    0.3020    0.0517 C   0  0  0  0  0  0  0  0  0  0  0  0
    2.6030    0.7863   -0.0532 C   0  0  0  0  0  0  0  0  0  0  0  0
    3.6928   -0.0082    0.2981 C   0  0  0  0  0  0  0  0  0  0  0  0
    3.4735   -1.2967    0.7625 C   0  0  0  0  0  0  0  0  0  0  0  0
    2.1668   -1.7782    0.8715 C   0  0  0  0  0  0  0  0  0  0  0  0
    1.0657   -1.0050    0.5246 C   0  0  0  0  0  0  0  0  0  0  0  0
   -0.1550   -1.5441    0.6489 N   0  0  0  0  0  0  0  0  0  0  0  0
   -1.2310   -0.8310    0.2890 C   0  0  0  0  0  0  0  0  0  0  0  0
   -2.4740   -1.4405    0.3988 C   0  0  0  0  0  0  0  0  0  0  0  0
   -3.6528   -0.7934    0.0257 C   0  0  0  0  0  0  0  0  0  0  0  0
   -3.5943    0.4977   -0.4746 C   0  0  0  0  0  0  0  0  0  0  0  0
   -2.3582    1.1334   -0.5907 C   0  0  0  0  0  0  0  0  0  0  0  0
   -1.1553    0.4871   -0.2045 C   0  0  0  0  0  0  0  0  0  0  0  0
    0.5285    2.2357   -1.8727 H   0  0  0  0  0  0  0  0  0  0  0  0
   -0.4670    2.9692   -0.7578 H   0  0  0  0  0  0  0  0  0  0  0  0
    2.7843    1.8013   -0.4009 H   0  0  0  0  0  0  0  0  0  0  0  0
    4.7033    0.3822    0.2140 H   0  0  0  0  0  0  0  0  0  0  0  0
    4.3108   -1.9297    1.0435 H   0  0  0  0  0  0  0  0  0  0  0  0
    2.0011   -2.7892    1.2369 H   0  0  0  0  0  0  0  0  0  0  0  0
   -2.5249   -2.4571    0.7833 H   0  0  0  0  0  0  0  0  0  0  0  0
   -4.6072   -1.3036    0.1243 H   0  0  0  0  0  0  0  0  0  0  0  0
   -4.5046    1.0113   -0.7729 H   0  0  0  0  0  0  0  0  0  0  0  0
   -2.3473    2.1437   -0.9877 H   0  0  0  0  0  0  0  0  0  0  0  0
  1  2  1  0
  2  3  2  0
  3  4  1  0
  4  5  2  0
  5  6  1  0
  6  7  2  0
  7  8  1  0
  8  9  2  0
  9 10  1  0
 10 11  2  0
 11 12  1  0
 12 13  2  0
 13 14  1  0
 14 15  2  0
 15  2  1  0
  8  3  1  0
 15 10  1  0
  1 16  1  0
  1 17  1  0
  4 18  1  0
  5 19  1  0
  6 20  1  0
  7 21  1  0
 11 22  1  0
 12 23  1  0
 13 24  1  0
 14 25  1  0
M  END
$$$$
OCNT-2328691
     RDKit          3D

 24 24  0  0  0  0  0  0  0  0999 V2000
   -3.3344    0.6737    0.5066 C   0  0  0  0  0  0  0  0  0  0  0  0
   -1.9328    0.0659    0.5251 C   0  0  0  0  0  0  0  0  0  0  0  0
   -2.0356   -1.3552    0.1689 N   0  0  0  0  0  0  0  0  0  0  0  0
   -1.0027    0.8303   -0.4407 C   0  0  0  0  0  0  0  0  0  0  0  0
    0.4486    0.4174   -0.3328 C   0  0  0  0  0  0  0  0  0  0  0  0
    1.0116   -0.4537   -1.2771 C   0  0  0  0  0  0  0  0  0  0  0  0
    2.3473   -0.8477   -1.1725 C   0  0  0  0  0  0  0  0  0  0  0  0
    3.1204   -0.3697   -0.1198 C   0  0  0  0  0  0  0  0  0  0  0  0
    4.4283   -0.7287    0.0212 O   0  0  0  0  0  0  0  0  0  0  0  0
    2.5799    0.4924    0.8262 C   0  0  0  0  0  0  0  0  0  0  0  0
    1.2452    0.8863    0.7214 C   0  0  0  0  0  0  0  0  0  0  0  0
   -3.9991    0.1538    1.2056 H   0  0  0  0  0  0  0  0  0  0  0  0
   -3.7833    0.6193   -0.4917 H   0  0  0  0  0  0  0  0  0  0  0  0
   -3.3024    1.7273    0.8043 H   0  0  0  0  0  0  0  0  0  0  0  0
   -1.5396    0.1360    1.5467 H   0  0  0  0  0  0  0  0  0  0  0  0
   -2.5977   -1.8401    0.8674 H   0  0  0  0  0  0  0  0  0  0  0  0
   -1.1053   -1.7738    0.2190 H   0  0  0  0  0  0  0  0  0  0  0  0
   -1.3473    0.7080   -1.4765 H   0  0  0  0  0  0  0  0  0  0  0  0
   -1.0638    1.9081   -0.2380 H   0  0  0  0  0  0  0  0  0  0  0  0
    0.4061   -0.8330   -2.0982 H   0  0  0  0  0  0  0  0  0  0  0  0
    2.7605   -1.5224   -1.9152 H   0  0  0  0  0  0  0  0  0  0  0  0
    4.6674   -1.3146   -0.7154 H   0  0  0  0  0  0  0  0  0  0  0  0
    3.1962    0.8579    1.6425 H   0  0  0  0  0  0  0  0  0  0  0  0
    0.8323    1.5624    1.4663 H   0  0  0  0  0  0  0  0  0  0  0  0
  1  2  1  0
  2  3  1  0
  2  4  1  0
  4  5  1  0
  5  6  1  0
  6  7  2  0
  7  8  1  0
  8  9  1  0
  8 10  2  0
 10 11  1  0
 11  5  2  0
  1 12  1  0
  1 13  1  0
  1 14  1  0
  2 15  1  0
  3 16  1  0
  3 17  1  0
  4 18  1  0
  4 19  1  0
  6 20  1  0
  7 21  1  0
  9 22  1  0
 10 23  1  0
 11 24  1  0
M  END
$$$$
OCNT-2328703
     RDKit          3D

 48 51  0  0  0  0  0  0  0  0999 V2000
    4.8582   -0.3062    1.3513 C   0  0  0  0  0  0  0  0  0  0  0  0
    3.5020   -0.3309    0.8085 N   0  0  0  0  0  0  0  0  0  0  0  0
    3.4575   -0.7552   -0.6047 C   0  0  2  0  0  0  0  0  0  0  0  0
    3.8844    0.4867   -1.3953 C   0  0  0  0  0  0  0  0  0  0  0  0
    3.4959    1.6584   -0.5032 C   0  0  0  0  0  0  0  0  0  0  0  0
    2.8859    1.0078    0.7437 C   0  0  1  0  0  0  0  0  0  0  0  0
    1.3647    0.8217    0.5800 C   0  0  0  0  0  0  0  0  0  0  0  0
    0.9759   -0.5673    0.0430 C   0  0  1  0  0  0  0  0  0  0  0  0
   -0.2958   -0.5472   -0.6151 O   0  0  0  0  0  0  0  0  0  0  0  0
   -1.4193   -0.3804    0.2658 C   0  0  0  0  0  0  0  0  0  0  0  0
   -2.0233    0.9974    0.0400 C   0  0  0  0  0  0  0  0  0  0  0  0
   -2.2626    1.4811   -1.2565 C   0  0  0  0  0  0  0  0  0  0  0  0
   -2.8235    2.7436   -1.4544 C   0  0  0  0  0  0  0  0  0  0  0  0
   -3.1551    3.5385   -0.3594 C   0  0  0  0  0  0  0  0  0  0  0  0
   -2.9272    3.0721    0.9338 C   0  0  0  0  0  0  0  0  0  0  0  0
   -2.3661    1.8092    1.1335 C   0  0  0  0  0  0  0  0  0  0  0  0
   -2.4285   -1.5013    0.0422 C   0  0  0  0  0  0  0  0  0  0  0  0
   -2.4674   -2.2387   -1.1520 C   0  0  0  0  0  0  0  0  0  0  0  0
   -3.4071   -3.2552   -1.3349 C   0  0  0  0  0  0  0  0  0  0  0  0
   -4.3253   -3.5464   -0.3291 C   0  0  0  0  0  0  0  0  0  0  0  0
   -4.3066   -2.8207    0.8594 C   0  0  0  0  0  0  0  0  0  0  0  0
   -3.3667   -1.8047    1.0440 C   0  0  0  0  0  0  0  0  0  0  0  0
    2.0053   -1.1445   -0.9419 C   0  0  0  0  0  0  0  0  0  0  0  0
    5.5472    0.3434    0.8019 H   0  0  0  0  0  0  0  0  0  0  0  0
    5.2780   -1.3179    1.3553 H   0  0  0  0  0  0  0  0  0  0  0  0
    4.8370    0.0293    2.3939 H   0  0  0  0  0  0  0  0  0  0  0  0
    4.1150   -1.6046   -0.8224 H   0  0  0  0  0  0  0  0  0  0  0  0
    4.9699    0.4900   -1.5519 H   0  0  0  0  0  0  0  0  0  0  0  0
    3.4144    0.5553   -2.3815 H   0  0  0  0  0  0  0  0  0  0  0  0
    2.8110    2.3444   -1.0113 H   0  0  0  0  0  0  0  0  0  0  0  0
    4.3937    2.2303   -0.2398 H   0  0  0  0  0  0  0  0  0  0  0  0
    3.0765    1.6158    1.6357 H   0  0  0  0  0  0  0  0  0  0  0  0
    0.8909    0.9428    1.5632 H   0  0  0  0  0  0  0  0  0  0  0  0
    0.9381    1.6117   -0.0493 H   0  0  0  0  0  0  0  0  0  0  0  0
    0.9168   -1.2687    0.8880 H   0  0  0  0  0  0  0  0  0  0  0  0
   -1.0783   -0.4611    1.3068 H   0  0  0  0  0  0  0  0  0  0  0  0
   -2.0069    0.8685   -2.1187 H   0  0  0  0  0  0  0  0  0  0  0  0
   -3.0027    3.1037   -2.4638 H   0  0  0  0  0  0  0  0  0  0  0  0
   -3.5936    4.5206   -0.5144 H   0  0  0  0  0  0  0  0  0  0  0  0
   -3.1889    3.6915    1.7877 H   0  0  0  0  0  0  0  0  0  0  0  0
   -2.1980    1.4623    2.1503 H   0  0  0  0  0  0  0  0  0  0  0  0
   -1.7599   -2.0237   -1.9499 H   0  0  0  0  0  0  0  0  0  0  0  0
   -3.4207   -3.8186   -2.2635 H   0  0  0  0  0  0  0  0  0  0  0  0
   -5.0568   -4.3368   -0.4730 H   0  0  0  0  0  0  0  0  0  0  0  0
   -5.0257   -3.0442    1.6429 H   0  0  0  0  0  0  0  0  0  0  0  0
   -3.3726   -1.2454    1.9767 H   0  0  0  0  0  0  0  0  0  0  0  0
    1.9112   -2.2383   -0.9089 H   0  0  0  0  0  0  0  0  0  0  0  0
    1.7490   -0.8680   -1.9720 H   0  0  0  0  0  0  0  0  0  0  0  0
  1  2  1  0
  2  3  1  0
  3  4  1  0
  4  5  1  0
  5  6  1  0
  6  7  1  0
  7  8  1  0
  8  9  1  0
  9 10  1  0
 10 11  1  0
 11 12  2  0
 12 13  1  0
 13 14  2  0
 14 15  1  0
 15 16  2  0
 10 17  1  0
 17 18  2  0
 18 19  1  0
 19 20  2  0
 20 21  1  0
 21 22  2  0
  8 23  1  0
  6  2  1  0
 16 11  1  0
 22 17  1  0
 23  3  1  0
  1 24  1  0
  1 25  1  0
  1 26  1  0
  3 27  1  1
  4 28  1  0
  4 29  1  0
  5 30  1  0
  5 31  1  0
  6 32  1  1
  7 33  1  0
  7 34  1  0
  8 35  1  1
 10 36  1  0
 12 37  1  0
 13 38  1  0
 14 39  1  0
 15 40  1  0
 16 41  1  0
 18 42  1  0
 19 43  1  0
 20 44  1  0
 21 45  1  0
 22 46  1  0
 23 47  1  0
 23 48  1  0
M  END
$$$$
OCNT-2328704
     RDKit          3D

 45 46  0  0  0  0  0  0  0  0999 V2000
    6.4348    2.4557    0.8921 C   0  0  0  0  0  0  0  0  0  0  0  0
    6.0026    0.9986    0.8280 C   0  0  0  0  0  0  0  0  0  0  0  0
    4.9827    0.7688   -0.2877 C   0  0  0  0  0  0  0  0  0  0  0  0
    4.6048   -0.7053   -0.4772 C   0  0  0  0  0  0  0  0  0  0  0  0
    3.9417   -1.3659    0.7331 C   0  0  0  0  0  0  0  0  0  0  0  0
    2.7259   -0.6718    1.1288 N   0  0  0  0  0  0  0  0  0  0  0  0
    1.5447   -0.8641    0.4785 C   0  0  0  0  0  0  0  0  0  0  0  0
    1.4143   -1.5829   -0.5843 N   0  0  0  0  0  0  0  0  0  0  0  0
    0.5045   -0.2069    1.0917 N   0  0  0  0  0  0  0  0  0  0  0  0
   -0.8011   -0.2760    0.6687 N   0  0  0  0  0  0  0  0  0  0  0  0
   -1.3780   -1.4053    0.9363 C   0  0  0  0  0  0  0  0  0  0  0  0
   -2.7531   -1.6338    0.5430 C   0  0  0  0  0  0  0  0  0  0  0  0
   -3.4242   -2.8204    0.7803 C   0  0  0  0  0  0  0  0  0  0  0  0
   -4.6939   -2.7067    0.2830 N   0  0  0  0  0  0  0  0  0  0  0  0
   -4.8750   -1.4646   -0.2767 C   0  0  0  0  0  0  0  0  0  0  0  0
   -6.0019   -0.9137   -0.8965 C   0  0  0  0  0  0  0  0  0  0  0  0
   -5.9063    0.3951   -1.3866 C   0  0  0  0  0  0  0  0  0  0  0  0
   -4.7267    1.1263   -1.2622 C   0  0  0  0  0  0  0  0  0  0  0  0
   -4.5276    2.4076   -1.7035 O   0  0  0  0  0  0  0  0  0  0  0  0
   -5.6125    3.0357   -2.3732 C   0  0  0  0  0  0  0  0  0  0  0  0
   -3.6120    0.5506   -0.6365 C   0  0  0  0  0  0  0  0  0  0  0  0
   -3.6751   -0.7664   -0.1311 C   0  0  0  0  0  0  0  0  0  0  0  0
    5.5786    3.1104    1.0839 H   0  0  0  0  0  0  0  0  0  0  0  0
    6.9035    2.7681   -0.0465 H   0  0  0  0  0  0  0  0  0  0  0  0
    7.1607    2.6005    1.6984 H   0  0  0  0  0  0  0  0  0  0  0  0
    6.8845    0.3691    0.6630 H   0  0  0  0  0  0  0  0  0  0  0  0
    5.5766    0.7182    1.7971 H   0  0  0  0  0  0  0  0  0  0  0  0
    5.3996    1.1352   -1.2344 H   0  0  0  0  0  0  0  0  0  0  0  0
    4.0826    1.3647   -0.0952 H   0  0  0  0  0  0  0  0  0  0  0  0
    3.9394   -0.7768   -1.3459 H   0  0  0  0  0  0  0  0  0  0  0  0
    5.5069   -1.2744   -0.7337 H   0  0  0  0  0  0  0  0  0  0  0  0
    4.6361   -1.3690    1.5803 H   0  0  0  0  0  0  0  0  0  0  0  0
    3.7272   -2.4192    0.5157 H   0  0  0  0  0  0  0  0  0  0  0  0
    2.6216   -0.5942    2.1332 H   0  0  0  0  0  0  0  0  0  0  0  0
    0.4324   -1.4816   -0.8683 H   0  0  0  0  0  0  0  0  0  0  0  0
    0.7924    0.7392    1.3384 H   0  0  0  0  0  0  0  0  0  0  0  0
   -0.8552   -2.2242    1.4634 H   0  0  0  0  0  0  0  0  0  0  0  0
   -3.1038   -3.7371    1.2579 H   0  0  0  0  0  0  0  0  0  0  0  0
   -5.4017   -3.4276    0.3167 H   0  0  0  0  0  0  0  0  0  0  0  0
   -6.9246   -1.4759   -0.9990 H   0  0  0  0  0  0  0  0  0  0  0  0
   -6.7850    0.8152   -1.8653 H   0  0  0  0  0  0  0  0  0  0  0  0
   -5.8838    2.4914   -3.2838 H   0  0  0  0  0  0  0  0  0  0  0  0
   -5.2874    4.0377   -2.6696 H   0  0  0  0  0  0  0  0  0  0  0  0
   -6.4745    3.1493   -1.7077 H   0  0  0  0  0  0  0  0  0  0  0  0
   -2.6947    1.1263   -0.5441 H   0  0  0  0  0  0  0  0  0  0  0  0
  1  2  1  0
  2  3  1  0
  3  4  1  0
  4  5  1  0
  5  6  1  0
  6  7  1  0
  7  8  2  3
  7  9  1  0
  9 10  1  0
 10 11  2  3
 11 12  1  0
 12 13  2  0
 13 14  1  0
 14 15  1  0
 15 16  2  0
 16 17  1  0
 17 18  2  0
 18 19  1  0
 19 20  1  0
 18 21  1  0
 21 22  2  0
 22 12  1  0
 22 15  1  0
  1 23  1  0
  1 24  1  0
  1 25  1  0
  2 26  1  0
  2 27  1  0
  3 28  1  0
  3 29  1  0
  4 30  1  0
  4 31  1  0
  5 32  1  0
  5 33  1  0
  6 34  1  0
  8 35  1  0
  9 36  1  0
 11 37  1  0
 13 38  1  0
 14 39  1  0
 16 40  1  0
 17 41  1  0
 20 42  1  0
 20 43  1  0
 20 44  1  0
 21 45  1  0
M  END
$$$$
OCNT-2328714
     RDKit          3D

 43 44  0  0  0  0  0  0  0  0999 V2000
   -2.7098   -0.7878   -1.4549 C   0  0  0  0  0  0  0  0  0  0  0  0
   -1.9504   -1.3597   -0.2879 C   0  0  0  0  0  0  0  0  0  0  0  0
   -0.8415   -0.6991    0.2958 C   0  0  0  0  0  0  0  0  0  0  0  0
   -0.3207    0.6395   -0.2389 C   0  0  0  0  0  0  0  0  0  0  0  0
    0.9446    0.9939    0.3427 O   0  0  0  0  0  0  0  0  0  0  0  0
    2.0109    1.1148   -0.5988 C   0  0  0  0  0  0  0  0  0  0  0  0
    2.5361   -0.2439   -1.1110 C   0  0  0  0  0  0  0  0  0  0  0  0
    3.0231   -1.1632   -0.0639 N   0  0  0  0  0  0  0  0  0  0  0  0
    3.2926   -2.4844   -0.6317 C   0  0  0  0  0  0  0  0  0  0  0  0
    4.2105   -0.6527    0.6180 C   0  0  0  0  0  0  0  0  0  0  0  0
   -1.2504    1.8144    0.0326 C   0  0  0  0  0  0  0  0  0  0  0  0
   -1.6633    2.6495   -1.0191 C   0  0  0  0  0  0  0  0  0  0  0  0
   -2.5083    3.7348   -0.7775 C   0  0  0  0  0  0  0  0  0  0  0  0
   -2.9441    4.0055    0.5179 C   0  0  0  0  0  0  0  0  0  0  0  0
   -2.5319    3.1957    1.5738 C   0  0  0  0  0  0  0  0  0  0  0  0
   -1.6873    2.1105    1.3341 C   0  0  0  0  0  0  0  0  0  0  0  0
   -0.2103   -1.3064    1.4003 C   0  0  0  0  0  0  0  0  0  0  0  0
   -0.6590   -2.5202    1.9210 C   0  0  0  0  0  0  0  0  0  0  0  0
   -1.7557   -3.1536    1.3525 C   0  0  0  0  0  0  0  0  0  0  0  0
   -2.3985   -2.5761    0.2594 C   0  0  0  0  0  0  0  0  0  0  0  0
   -3.3506   -1.5451   -1.9203 H   0  0  0  0  0  0  0  0  0  0  0  0
   -3.3515    0.0336   -1.1231 H   0  0  0  0  0  0  0  0  0  0  0  0
   -2.0296   -0.4358   -2.2357 H   0  0  0  0  0  0  0  0  0  0  0  0
   -0.2004    0.5220   -1.3232 H   0  0  0  0  0  0  0  0  0  0  0  0
    1.6888    1.7370   -1.4431 H   0  0  0  0  0  0  0  0  0  0  0  0
    2.8157    1.6691   -0.1057 H   0  0  0  0  0  0  0  0  0  0  0  0
    1.7131   -0.7368   -1.6424 H   0  0  0  0  0  0  0  0  0  0  0  0
    3.3254   -0.0596   -1.8513 H   0  0  0  0  0  0  0  0  0  0  0  0
    3.6008   -3.1860    0.1516 H   0  0  0  0  0  0  0  0  0  0  0  0
    4.0777   -2.4525   -1.3958 H   0  0  0  0  0  0  0  0  0  0  0  0
    2.3864   -2.9032   -1.0835 H   0  0  0  0  0  0  0  0  0  0  0  0
    3.9891    0.2686    1.1652 H   0  0  0  0  0  0  0  0  0  0  0  0
    4.5615   -1.3700    1.3689 H   0  0  0  0  0  0  0  0  0  0  0  0
    5.0339   -0.4571   -0.0782 H   0  0  0  0  0  0  0  0  0  0  0  0
   -1.3296    2.4587   -2.0361 H   0  0  0  0  0  0  0  0  0  0  0  0
   -2.8242    4.3713   -1.5997 H   0  0  0  0  0  0  0  0  0  0  0  0
   -3.6003    4.8508    0.7065 H   0  0  0  0  0  0  0  0  0  0  0  0
   -2.8633    3.4088    2.5865 H   0  0  0  0  0  0  0  0  0  0  0  0
   -1.3631    1.4928    2.1695 H   0  0  0  0  0  0  0  0  0  0  0  0
    0.6543   -0.8329    1.8635 H   0  0  0  0  0  0  0  0  0  0  0  0
   -0.1480   -2.9647    2.7704 H   0  0  0  0  0  0  0  0  0  0  0  0
   -2.1121   -4.0957    1.7592 H   0  0  0  0  0  0  0  0  0  0  0  0
   -3.2603   -3.0848   -0.1678 H   0  0  0  0  0  0  0  0  0  0  0  0
  1  2  1  0
  2  3  1  0
  3  4  1  0
  4  5  1  0
  5  6  1  0
  6  7  1  0
  7  8  1  0
  8  9  1  0
  8 10  1  0
  4 11  1  0
 11 12  2  0
 12 13  1  0
 13 14  2  0
 14 15  1  0
 15 16  2  0
  3 17  2  0
 17 18  1  0
 18 19  2  0
 19 20  1  0
 20  2  2  0
 16 11  1  0
  1 21  1  0
  1 22  1  0
  1 23  1  0
  4 24  1  0
  6 25  1  0
  6 26  1  0
  7 27  1  0
  7 28  1  0
  9 29  1  0
  9 30  1  0
  9 31  1  0
 10 32  1  0
 10 33  1  0
 10 34  1  0
 12 35  1  0
 13 36  1  0
 14 37  1  0
 15 38  1  0
 16 39  1  0
 17 40  1  0
 18 41  1  0
 19 42  1  0
 20 43  1  0
M  END
$$$$
OCNT-2328727
     RDKit          3D

 53 55  0  0  0  0  0  0  0  0999 V2000
    7.7676   -1.8989    1.8565 O   0  0  0  0  0  0  0  0  0  0  0  0
    6.5978   -1.1280    1.6090 C   0  0  0  0  0  0  0  0  0  0  0  0
    6.5414   -0.6741    0.1515 C   0  0  0  0  0  0  0  0  0  0  0  0
    5.4523    0.2117   -0.0999 O   0  0  0  0  0  0  0  0  0  0  0  0
    4.2029   -0.4695   -0.2593 C   0  0  0  0  0  0  0  0  0  0  0  0
    3.1234    0.5631   -0.6244 C   0  0  0  0  0  0  0  0  0  0  0  0
    1.7976   -0.0192   -0.8943 N   0  0  0  0  0  0  0  0  0  0  0  0
    0.8615    0.9959   -1.4217 C   0  0  0  0  0  0  0  0  0  0  0  0
   -0.1751    1.5435   -0.4131 C   0  0  0  0  0  0  0  0  0  0  0  0
   -0.9239    0.5081    0.3050 N   0  0  0  0  0  0  0  0  0  0  0  0
   -2.3908    0.6038    0.2404 C   0  0  0  0  0  0  0  0  0  0  0  0
   -3.0458    0.6546   -1.1476 C   0  0  0  0  0  0  0  0  0  0  0  0
   -4.1916    1.4585   -1.3179 C   0  0  0  0  0  0  0  0  0  0  0  0
   -4.8476    1.5362   -2.5484 C   0  0  0  0  0  0  0  0  0  0  0  0
   -4.3760    0.8061   -3.6342 C   0  0  0  0  0  0  0  0  0  0  0  0
   -3.2538   -0.0036   -3.4866 C   0  0  0  0  0  0  0  0  0  0  0  0
   -2.5983   -0.0822   -2.2540 C   0  0  0  0  0  0  0  0  0  0  0  0
   -3.0871   -0.3481    1.2233 C   0  0  0  0  0  0  0  0  0  0  0  0
   -3.1030   -0.0263    2.5942 C   0  0  0  0  0  0  0  0  0  0  0  0
   -3.7068   -0.8758    3.5245 C   0  0  0  0  0  0  0  0  0  0  0  0
   -4.2956   -2.0617    3.0957 C   0  0  0  0  0  0  0  0  0  0  0  0
   -5.0385   -3.1104    4.2397 Cl  0  0  0  0  0  0  0  0  0  0  0  0
   -4.2816   -2.4071    1.7471 C   0  0  0  0  0  0  0  0  0  0  0  0
   -3.6763   -1.5576    0.8163 C   0  0  0  0  0  0  0  0  0  0  0  0
   -0.2979   -0.8123    0.2897 C   0  0  0  0  0  0  0  0  0  0  0  0
    1.2442   -0.7019    0.2936 C   0  0  0  0  0  0  0  0  0  0  0  0
    8.5318   -1.3032    1.7668 H   0  0  0  0  0  0  0  0  0  0  0  0
    6.5847   -0.2685    2.2876 H   0  0  0  0  0  0  0  0  0  0  0  0
    5.7302   -1.7457    1.8584 H   0  0  0  0  0  0  0  0  0  0  0  0
    7.4621   -0.1283   -0.0845 H   0  0  0  0  0  0  0  0  0  0  0  0
    6.5176   -1.5324   -0.5309 H   0  0  0  0  0  0  0  0  0  0  0  0
    3.9474   -0.9768    0.6758 H   0  0  0  0  0  0  0  0  0  0  0  0
    4.2917   -1.2131   -1.0600 H   0  0  0  0  0  0  0  0  0  0  0  0
    3.0660    1.3267    0.1630 H   0  0  0  0  0  0  0  0  0  0  0  0
    3.4783    1.0889   -1.5211 H   0  0  0  0  0  0  0  0  0  0  0  0
    1.3961    1.8383   -1.8785 H   0  0  0  0  0  0  0  0  0  0  0  0
    0.3195    0.5234   -2.2496 H   0  0  0  0  0  0  0  0  0  0  0  0
   -0.8352    2.2463   -0.9351 H   0  0  0  0  0  0  0  0  0  0  0  0
    0.3586    2.1415    0.3366 H   0  0  0  0  0  0  0  0  0  0  0  0
   -2.5964    1.6043    0.6542 H   0  0  0  0  0  0  0  0  0  0  0  0
   -4.5865    2.0311   -0.4802 H   0  0  0  0  0  0  0  0  0  0  0  0
   -5.7283    2.1641   -2.6557 H   0  0  0  0  0  0  0  0  0  0  0  0
   -4.8846    0.8638   -4.5927 H   0  0  0  0  0  0  0  0  0  0  0  0
   -2.8862   -0.5801   -4.3319 H   0  0  0  0  0  0  0  0  0  0  0  0
   -1.7342   -0.7323   -2.1821 H   0  0  0  0  0  0  0  0  0  0  0  0
   -2.6313    0.8910    2.9423 H   0  0  0  0  0  0  0  0  0  0  0  0
   -3.7088   -0.6080    4.5774 H   0  0  0  0  0  0  0  0  0  0  0  0
   -4.7367   -3.3349    1.4113 H   0  0  0  0  0  0  0  0  0  0  0  0
   -3.6716   -1.8537   -0.2302 H   0  0  0  0  0  0  0  0  0  0  0  0
   -0.5846   -1.3738    1.1860 H   0  0  0  0  0  0  0  0  0  0  0  0
   -0.6046   -1.4095   -0.5732 H   0  0  0  0  0  0  0  0  0  0  0  0
    1.5414   -0.1805    1.2143 H   0  0  0  0  0  0  0  0  0  0  0  0
    1.6643   -1.7131    0.3466 H   0  0  0  0  0  0  0  0  0  0  0  0
  1  2  1  0
  2  3  1  0
  3  4  1  0
  4  5  1  0
  5  6  1  0
  6  7  1  0
  7  8  1  0
  8  9  1  0
  9 10  1  0
 10 11  1  0
 11 12  1  0
 12 13  2  0
 13 14  1  0
 14 15  2  0
 15 16  1  0
 16 17  2  0
 11 18  1  0
 18 19  1  0
 19 20  2  0
 20 21  1  0
 21 22  1  0
 21 23  2  0
 23 24  1  0
 10 25  1  0
 25 26  1  0
 26  7  1  0
 17 12  1  0
 24 18  2  0
  1 27  1  0
  2 28  1  0
  2 29  1  0
  3 30  1  0
  3 31  1  0
  5 32  1  0
  5 33  1  0
  6 34  1  0
  6 35  1  0
  8 36  1  0
  8 37  1  0
  9 38  1  0
  9 39  1  0
 11 40  1  0
 13 41  1  0
 14 42  1  0
 15 43  1  0
 16 44  1  0
 17 45  1  0
 19 46  1  0
 20 47  1  0
 23 48  1  0
 24 49  1  0
 25 50  1  0
 25 51  1  0
 26 52  1  0
 26 53  1  0
M  END
$$$$
OCNT-2328729
     RDKit          3D

 32 32  0  0  0  0  0  0  0  0999 V2000
   -4.2435    0.4461    1.2954 C   0  0  0  0  0  0  0  0  0  0  0  0
   -3.3315   -0.3852    0.4059 C   0  0  0  0  0  0  0  0  0  0  0  0
   -1.9336   -0.5178    1.0108 C   0  0  0  0  0  0  0  0  0  0  0  0
   -1.0102   -1.4497    0.2201 C   0  0  0  0  0  0  0  0  0  0  0  0
   -0.7368   -1.0437   -1.2330 C   0  0  0  0  0  0  0  0  0  0  0  0
   -0.0347    0.3089   -1.4136 C   0  0  0  0  0  0  0  0  0  0  0  0
    1.3778    0.3449   -0.8754 C   0  0  0  0  0  0  0  0  0  0  0  0
    2.3755   -0.4279   -1.4948 C   0  0  0  0  0  0  0  0  0  0  0  0
    3.6893   -0.4188   -1.0202 C   0  0  0  0  0  0  0  0  0  0  0  0
    4.0115    0.3698    0.0779 C   0  0  0  0  0  0  0  0  0  0  0  0
    5.2809    0.4096    0.5757 O   0  0  0  0  0  0  0  0  0  0  0  0
    3.0465    1.1484    0.7047 C   0  0  0  0  0  0  0  0  0  0  0  0
    1.7369    1.1341    0.2243 C   0  0  0  0  0  0  0  0  0  0  0  0
    0.7852    1.9037    0.8321 O   0  0  0  0  0  0  0  0  0  0  0  0
   -4.3585   -0.0159    2.2811 H   0  0  0  0  0  0  0  0  0  0  0  0
   -3.8429    1.4556    1.4330 H   0  0  0  0  0  0  0  0  0  0  0  0
   -5.2367    0.5332    0.8436 H   0  0  0  0  0  0  0  0  0  0  0  0
   -3.2763    0.0913   -0.5787 H   0  0  0  0  0  0  0  0  0  0  0  0
   -3.7737   -1.3782    0.2657 H   0  0  0  0  0  0  0  0  0  0  0  0
   -2.0218   -0.9160    2.0296 H   0  0  0  0  0  0  0  0  0  0  0  0
   -1.4798    0.4734    1.1086 H   0  0  0  0  0  0  0  0  0  0  0  0
   -0.0596   -1.5404    0.7592 H   0  0  0  0  0  0  0  0  0  0  0  0
   -1.4511   -2.4547    0.2158 H   0  0  0  0  0  0  0  0  0  0  0  0
   -1.6812   -1.0238   -1.7891 H   0  0  0  0  0  0  0  0  0  0  0  0
   -0.1371   -1.8353   -1.6997 H   0  0  0  0  0  0  0  0  0  0  0  0
   -0.6464    1.1103   -0.9860 H   0  0  0  0  0  0  0  0  0  0  0  0
    0.0164    0.5344   -2.4874 H   0  0  0  0  0  0  0  0  0  0  0  0
    2.1299   -1.0432   -2.3579 H   0  0  0  0  0  0  0  0  0  0  0  0
    4.4373   -1.0273   -1.5181 H   0  0  0  0  0  0  0  0  0  0  0  0
    5.8402   -0.1792    0.0425 H   0  0  0  0  0  0  0  0  0  0  0  0
    3.3306    1.7558    1.5574 H   0  0  0  0  0  0  0  0  0  0  0  0
    1.1976    2.3810    1.5705 H   0  0  0  0  0  0  0  0  0  0  0  0
  1  2  1  0
  2  3  1  0
  3  4  1  0
  4  5  1  0
  5  6  1  0
  6  7  1  0
  7  8  1  0
  8  9  2  0
  9 10  1  0
 10 11  1  0
 10 12  2  0
 12 13  1  0
 13 14  1  0
 13  7  2  0
  1 15  1  0
  1 16  1  0
  1 17  1  0
  2 18  1  0
  2 19  1  0
  3 20  1  0
  3 21  1  0
  4 22  1  0
  4 23  1  0
  5 24  1  0
  5 25  1  0
  6 26  1  0
  6 27  1  0
  8 28  1  0
  9 29  1  0
 11 30  1  0
 12 31  1  0
 14 32  1  0
M  END
$$$$
OCNT-2328731
     RDKit          3D

 64 66  0  0  0  0  0  0  0  0999 V2000
   -6.8037    0.6088   -1.8337 C   0  0  0  0  0  0  0  0  0  0  0  0
   -5.9081   -0.3113   -1.2094 O   0  0  0  0  0  0  0  0  0  0  0  0
   -4.6037   -0.0993   -1.5175 C   0  0  0  0  0  0  0  0  0  0  0  0
   -4.1705    0.7840   -2.2450 O   0  0  0  0  0  0  0  0  0  0  0  0
   -3.7310   -1.0322   -0.7710 C   0  0  0  0  0  0  0  0  0  0  0  0
   -3.9456   -2.3648   -0.6842 C   0  0  0  0  0  0  0  0  0  0  0  0
   -5.0731   -3.0917   -1.3689 C   0  0  0  0  0  0  0  0  0  0  0  0
   -3.0500   -3.1558    0.0213 N   0  0  0  0  0  0  0  0  0  0  0  0
   -1.8410   -2.7041    0.5323 C   0  0  0  0  0  0  0  0  0  0  0  0
   -0.9153   -3.7581    1.0850 C   0  0  0  0  0  0  0  0  0  0  0  0
   -1.5421   -1.3867    0.4815 C   0  0  0  0  0  0  0  0  0  0  0  0
   -0.2540   -0.8662    0.9987 C   0  0  0  0  0  0  0  0  0  0  0  0
    0.3373   -1.3052    1.9736 O   0  0  0  0  0  0  0  0  0  0  0  0
    0.1867    0.1324    0.1955 O   0  0  0  0  0  0  0  0  0  0  0  0
    1.4673    0.6941    0.5372 C   0  0  0  0  0  0  0  0  0  0  0  0
    2.6052   -0.2311    0.0746 C   0  0  0  0  0  0  0  0  0  0  0  0
    3.9332    0.4081    0.0481 N   0  0  0  0  0  0  0  0  0  0  0  0
    4.3733    0.7881    1.3940 C   0  0  0  0  0  0  0  0  0  0  0  0
    4.9092   -0.5051   -0.5799 C   0  0  0  0  0  0  0  0  0  0  0  0
    6.1968    0.1818   -0.9790 C   0  0  0  0  0  0  0  0  0  0  0  0
    7.4319   -0.2934   -0.5187 C   0  0  0  0  0  0  0  0  0  0  0  0
    8.6179    0.3329   -0.9031 C   0  0  0  0  0  0  0  0  0  0  0  0
    8.5829    1.4385   -1.7511 C   0  0  0  0  0  0  0  0  0  0  0  0
    7.3612    1.9189   -2.2169 C   0  0  0  0  0  0  0  0  0  0  0  0
    6.1743    1.2938   -1.8353 C   0  0  0  0  0  0  0  0  0  0  0  0
   -2.5148   -0.3786   -0.1237 C   0  0  0  0  0  0  0  0  0  0  0  0
   -2.9479    0.6702    0.9071 C   0  0  0  0  0  0  0  0  0  0  0  0
   -2.6814    2.0300    0.6806 C   0  0  0  0  0  0  0  0  0  0  0  0
   -3.1307    2.9726    1.6096 C   0  0  0  0  0  0  0  0  0  0  0  0
   -2.8776    4.3766    1.3634 N   0  0  0  0  0  0  0  0  0  0  0  0
   -3.8647    5.1049    1.1908 O   0  0  0  0  0  0  0  0  0  0  0  0
   -1.6947    4.7441    1.3506 O   0  0  0  0  0  0  0  0  0  0  0  0
   -3.8336    2.6087    2.7600 C   0  0  0  0  0  0  0  0  0  0  0  0
   -4.0845    1.2589    2.9921 C   0  0  0  0  0  0  0  0  0  0  0  0
   -3.6472    0.2980    2.0739 C   0  0  0  0  0  0  0  0  0  0  0  0
   -6.7534    0.5140   -2.9237 H   0  0  0  0  0  0  0  0  0  0  0  0
   -6.5846    1.6321   -1.5164 H   0  0  0  0  0  0  0  0  0  0  0  0
   -7.8199    0.3593   -1.5134 H   0  0  0  0  0  0  0  0  0  0  0  0
   -5.4351   -2.5694   -2.2614 H   0  0  0  0  0  0  0  0  0  0  0  0
   -4.7433   -4.0827   -1.7082 H   0  0  0  0  0  0  0  0  0  0  0  0
   -5.9079   -3.2353   -0.6744 H   0  0  0  0  0  0  0  0  0  0  0  0
   -3.1915   -4.1619   -0.0162 H   0  0  0  0  0  0  0  0  0  0  0  0
    0.1274   -3.5816    0.7972 H   0  0  0  0  0  0  0  0  0  0  0  0
   -1.1720   -4.7507    0.6979 H   0  0  0  0  0  0  0  0  0  0  0  0
   -0.9905   -3.7970    2.1765 H   0  0  0  0  0  0  0  0  0  0  0  0
    1.5307    1.6536    0.0126 H   0  0  0  0  0  0  0  0  0  0  0  0
    1.5116    0.9068    1.6110 H   0  0  0  0  0  0  0  0  0  0  0  0
    2.6242   -1.1425    0.6868 H   0  0  0  0  0  0  0  0  0  0  0  0
    2.3473   -0.5615   -0.9420 H   0  0  0  0  0  0  0  0  0  0  0  0
    5.3679    1.2465    1.3751 H   0  0  0  0  0  0  0  0  0  0  0  0
    4.4046   -0.0695    2.0738 H   0  0  0  0  0  0  0  0  0  0  0  0
    3.7125    1.5456    1.8252 H   0  0  0  0  0  0  0  0  0  0  0  0
    5.1130   -1.3620    0.0763 H   0  0  0  0  0  0  0  0  0  0  0  0
    4.4944   -0.9265   -1.5062 H   0  0  0  0  0  0  0  0  0  0  0  0
    7.4776   -1.1530    0.1458 H   0  0  0  0  0  0  0  0  0  0  0  0
    9.5708   -0.0421   -0.5392 H   0  0  0  0  0  0  0  0  0  0  0  0
    9.5072    1.9237   -2.0470 H   0  0  0  0  0  0  0  0  0  0  0  0
    7.3299    2.7826   -2.8764 H   0  0  0  0  0  0  0  0  0  0  0  0
    5.2233    1.6797   -2.1976 H   0  0  0  0  0  0  0  0  0  0  0  0
   -1.9779    0.1258   -0.9404 H   0  0  0  0  0  0  0  0  0  0  0  0
   -2.1525    2.3519   -0.2146 H   0  0  0  0  0  0  0  0  0  0  0  0
   -4.1823    3.3585    3.4674 H   0  0  0  0  0  0  0  0  0  0  0  0
   -4.6272    0.9464    3.8823 H   0  0  0  0  0  0  0  0  0  0  0  0
   -3.8664   -0.7529    2.2696 H   0  0  0  0  0  0  0  0  0  0  0  0
  1  2  1  0
  2  3  1  0
  3  4  2  0
  3  5  1  0
  5  6  2  0
  6  7  1  0
  6  8  1  0
  8  9  1  0
  9 10  1  0
  9 11  2  0
 11 12  1  0
 12 13  2  0
 12 14  1  0
 14 15  1  0
 15 16  1  0
 16 17  1  0
 17 18  1  0
 17 19  1  0
 19 20  1  0
 20 21  2  0
 21 22  1  0
 22 23  2  0
 23 24  1  0
 24 25  2  0
 11 26  1  0
 26 27  1  0
 27 28  1  0
 28 29  2  0
 29 30  1  0
 30 31  2  0
 30 32  1  0
 29 33  1  0
 33 34  2  0
 34 35  1  0
 26  5  1  0
 35 27  2  0
 25 20  1  0
  1 36  1  0
  1 37  1  0
  1 38  1  0
  7 39  1  0
  7 40  1  0
  7 41  1  0
  8 42  1  0
 10 43  1  0
 10 44  1  0
 10 45  1  0
 15 46  1  0
 15 47  1  0
 16 48  1  0
 16 49  1  0
 18 50  1  0
 18 51  1  0
 18 52  1  0
 19 53  1  0
 19 54  1  0
 21 55  1  0
 22 56  1  0
 23 57  1  0
 24 58  1  0
 25 59  1  0
 26 60  1  0
 28 61  1  0
 33 62  1  0
 34 63  1  0
 35 64  1  0
M  CHG  2  30   1  32  -1
M  END
$$$$
OCNT-2328732
     RDKit          3D

 16 15  0  0  0  0  0  0  0  0999 V2000
    2.2355    0.1785    1.2942 O   0  0  0  0  0  0  0  0  0  0  0  0
    1.8866    0.0688    0.1290 C   0  0  0  0  0  0  0  0  0  0  0  0
    2.7858    0.2234   -0.8659 O   0  0  0  0  0  0  0  0  0  0  0  0
    0.4917   -0.2458   -0.3766 C   0  0  1  0  0  0  0  0  0  0  0  0
    0.4361   -2.0678   -0.6779 S   0  0  0  0  0  0  0  0  0  0  0  0
   -0.5659    0.2111    0.6389 C   0  0  1  0  0  0  0  0  0  0  0  0
   -0.5327    2.0390    0.9159 S   0  0  0  0  0  0  0  0  0  0  0  0
   -1.9791   -0.1382    0.2138 C   0  0  0  0  0  0  0  0  0  0  0  0
   -2.8875   -0.4764    0.9571 O   0  0  0  0  0  0  0  0  0  0  0  0
   -2.2169    0.0058   -1.1066 O   0  0  0  0  0  0  0  0  0  0  0  0
    3.6401    0.3744   -0.4088 H   0  0  0  0  0  0  0  0  0  0  0  0
    0.3487    0.2593   -1.3393 H   0  0  0  0  0  0  0  0  0  0  0  0
   -0.6394   -2.0515   -1.4808 H   0  0  0  0  0  0  0  0  0  0  0  0
   -0.3904   -0.2653    1.6113 H   0  0  0  0  0  0  0  0  0  0  0  0
    0.5686    2.0478    1.6864 H   0  0  0  0  0  0  0  0  0  0  0  0
   -3.1811   -0.1629   -1.1905 H   0  0  0  0  0  0  0  0  0  0  0  0
  1  2  2  0
  2  3  1  0
  2  4  1  0
  4  5  1  0
  4  6  1  0
  6  7  1  0
  6  8  1  0
  8  9  2  0
  8 10  1  0
  3 11  1  0
  4 12  1  6
  5 13  1  0
  6 14  1  1
  7 15  1  0
 10 16  1  0
M  END
$$$$
OCNT-2328745
     RDKit          3D

 28 28  0  0  0  0  0  0  0  0999 V2000
    2.4641   -0.2818   -3.0321 C   0  0  0  0  0  0  0  0  0  0  0  0
    1.3478   -0.2540   -2.1159 N   0  0  0  0  0  0  0  0  0  0  0  0
    1.4578    0.1486   -0.9074 C   0  0  0  0  0  0  0  0  0  0  0  0
    2.4993    0.6575   -0.1829 N   0  0  0  0  0  0  0  0  0  0  0  0
    3.7185    1.2034   -0.7269 C   0  0  0  0  0  0  0  0  0  0  0  0
    0.3810    0.1039   -0.0634 N   0  0  0  0  0  0  0  0  0  0  0  0
   -0.8689   -0.4993   -0.4944 C   0  0  0  0  0  0  0  0  0  0  0  0
   -1.8672   -0.4302    0.6375 C   0  0  0  0  0  0  0  0  0  0  0  0
   -2.1411   -1.5604    1.4213 C   0  0  0  0  0  0  0  0  0  0  0  0
   -3.0511   -1.4846    2.4773 C   0  0  0  0  0  0  0  0  0  0  0  0
   -3.6896   -0.2793    2.7645 C   0  0  0  0  0  0  0  0  0  0  0  0
   -3.4179    0.8530    1.9986 C   0  0  0  0  0  0  0  0  0  0  0  0
   -2.5093    0.7794    0.9420 C   0  0  0  0  0  0  0  0  0  0  0  0
    2.1418   -0.7535   -3.9663 H   0  0  0  0  0  0  0  0  0  0  0  0
    2.8057    0.7246   -3.2889 H   0  0  0  0  0  0  0  0  0  0  0  0
    3.2922   -0.8843   -2.6479 H   0  0  0  0  0  0  0  0  0  0  0  0
    2.1465    1.2368    0.5713 H   0  0  0  0  0  0  0  0  0  0  0  0
    4.3386    0.4270   -1.1809 H   0  0  0  0  0  0  0  0  0  0  0  0
    3.5086    1.9919   -1.4553 H   0  0  0  0  0  0  0  0  0  0  0  0
    4.3071    1.6488    0.0818 H   0  0  0  0  0  0  0  0  0  0  0  0
    0.6366   -0.2005    0.8679 H   0  0  0  0  0  0  0  0  0  0  0  0
   -1.2757    0.0282   -1.3659 H   0  0  0  0  0  0  0  0  0  0  0  0
   -0.7090   -1.5439   -0.7882 H   0  0  0  0  0  0  0  0  0  0  0  0
   -1.6482   -2.5075    1.2120 H   0  0  0  0  0  0  0  0  0  0  0  0
   -3.2615   -2.3666    3.0767 H   0  0  0  0  0  0  0  0  0  0  0  0
   -4.3978   -0.2218    3.5870 H   0  0  0  0  0  0  0  0  0  0  0  0
   -3.9120    1.7942    2.2245 H   0  0  0  0  0  0  0  0  0  0  0  0
   -2.2963    1.6701    0.3541 H   0  0  0  0  0  0  0  0  0  0  0  0
  1  2  1  0
  2  3  2  3
  3  4  1  0
  4  5  1  0
  3  6  1  0
  6  7  1  0
  7  8  1  0
  8  9  2  0
  9 10  1  0
 10 11  2  0
 11 12  1  0
 12 13  2  0
 13  8  1  0
  1 14  1  0
  1 15  1  0
  1 16  1  0
  4 17  1  0
  5 18  1  0
  5 19  1  0
  5 20  1  0
  6 21  1  0
  7 22  1  0
  7 23  1  0
  9 24  1  0
 10 25  1  0
 11 26  1  0
 12 27  1  0
 13 28  1  0
M  END
$$$$
OCNT-2328750
     RDKit          3D

 30 29  0  0  0  0  0  0  0  0999 V2000
   -4.6756    0.9623    0.6201 C   0  0  0  0  0  0  0  0  0  0  0  0
   -3.4698    0.2308    1.0042 N   0  0  0  0  0  0  0  0  0  0  0  0
   -2.2988    0.7602    0.2732 C   0  0  0  0  0  0  0  0  0  0  0  0
   -1.1379   -0.2545    0.3211 C   0  0  2  0  0  0  0  0  0  0  0  0
   -0.9157   -0.6723    1.6835 O   0  0  0  0  0  0  0  0  0  0  0  0
    0.1650    0.3260   -0.2698 C   0  0  1  0  0  0  0  0  0  0  0  0
    0.5201    1.5194    0.4512 O   0  0  0  0  0  0  0  0  0  0  0  0
    1.3335   -0.6834   -0.1590 C   0  0  2  0  0  0  0  0  0  0  0  0
    1.6957   -0.8477    1.2227 O   0  0  0  0  0  0  0  0  0  0  0  0
    2.5583   -0.2175   -0.9605 C   0  0  2  0  0  0  0  0  0  0  0  0
    2.2401   -0.1898   -2.3612 O   0  0  0  0  0  0  0  0  0  0  0  0
    3.7661   -1.1407   -0.7618 C   0  0  0  0  0  0  0  0  0  0  0  0
    4.8422   -0.6702   -1.5842 O   0  0  0  0  0  0  0  0  0  0  0  0
   -4.9059    0.8139   -0.4398 H   0  0  0  0  0  0  0  0  0  0  0  0
   -4.5759    2.0340    0.8211 H   0  0  0  0  0  0  0  0  0  0  0  0
   -5.5264    0.5876    1.1975 H   0  0  0  0  0  0  0  0  0  0  0  0
   -3.3187    0.4035    2.0005 H   0  0  0  0  0  0  0  0  0  0  0  0
   -2.5443    0.9563   -0.7775 H   0  0  0  0  0  0  0  0  0  0  0  0
   -2.0089    1.7092    0.7387 H   0  0  0  0  0  0  0  0  0  0  0  0
   -1.4165   -1.1538   -0.2425 H   0  0  0  0  0  0  0  0  0  0  0  0
   -1.7937   -0.9962    1.9711 H   0  0  0  0  0  0  0  0  0  0  0  0
   -0.0116    0.6070   -1.3136 H   0  0  0  0  0  0  0  0  0  0  0  0
    0.8179    1.2090    1.3298 H   0  0  0  0  0  0  0  0  0  0  0  0
    1.0047   -1.6568   -0.5435 H   0  0  0  0  0  0  0  0  0  0  0  0
    0.8545   -1.0289    1.7003 H   0  0  0  0  0  0  0  0  0  0  0  0
    2.8483    0.8006   -0.6753 H   0  0  0  0  0  0  0  0  0  0  0  0
    3.1051   -0.1961   -2.8204 H   0  0  0  0  0  0  0  0  0  0  0  0
    4.1064   -1.1727    0.2774 H   0  0  0  0  0  0  0  0  0  0  0  0
    3.5353   -2.1579   -1.0937 H   0  0  0  0  0  0  0  0  0  0  0  0
    5.2067    0.1188   -1.1440 H   0  0  0  0  0  0  0  0  0  0  0  0
  1  2  1  0
  2  3  1  0
  3  4  1  0
  4  5  1  0
  4  6  1  0
  6  7  1  0
  6  8  1  0
  8  9  1  0
  8 10  1  0
 10 11  1  0
 10 12  1  0
 12 13  1  0
  1 14  1  0
  1 15  1  0
  1 16  1  0
  2 17  1  0
  3 18  1  0
  3 19  1  0
  4 20  1  6
  5 21  1  0
  6 22  1  6
  7 23  1  0
  8 24  1  6
  9 25  1  0
 10 26  1  1
 11 27  1  0
 12 28  1  0
 12 29  1  0
 13 30  1  0
M  END
$$$$
OCNT-2328763
     RDKit          3D

 47 49  0  0  0  0  0  0  0  0999 V2000
   -5.8357    4.6568    1.4193 Cl  0  0  0  0  0  0  0  0  0  0  0  0
   -4.5997    3.5070    1.0889 C   0  0  0  0  0  0  0  0  0  0  0  0
   -3.9276    3.5460   -0.1309 C   0  0  0  0  0  0  0  0  0  0  0  0
   -2.9227    2.6134   -0.4010 C   0  0  0  0  0  0  0  0  0  0  0  0
   -2.5804    1.6350    0.5484 C   0  0  0  0  0  0  0  0  0  0  0  0
   -1.4937    0.6137    0.2397 C   0  0  0  0  0  0  0  0  0  0  0  0
   -0.6265    0.5210    1.3812 O   0  0  0  0  0  0  0  0  0  0  0  0
    0.7589    0.7150    1.0784 C   0  0  0  0  0  0  0  0  0  0  0  0
    1.3696   -0.4989    0.3511 C   0  0  0  0  0  0  0  0  0  0  0  0
    2.8342   -0.4205    0.1812 N   0  0  0  0  0  0  0  0  0  0  0  0
    3.3572   -1.7343   -0.2347 C   0  0  0  0  0  0  0  0  0  0  0  0
    4.8810   -1.7176   -0.3608 C   0  0  0  0  0  0  0  0  0  0  0  0
    5.3470   -0.6278   -1.3184 C   0  0  0  0  0  0  0  0  0  0  0  0
    4.7402    0.7144   -0.9290 C   0  0  0  0  0  0  0  0  0  0  0  0
    3.2194    0.6209   -0.7853 C   0  0  0  0  0  0  0  0  0  0  0  0
   -2.0640   -0.7530   -0.1166 C   0  0  0  0  0  0  0  0  0  0  0  0
   -2.1702   -1.7816    0.8346 C   0  0  0  0  0  0  0  0  0  0  0  0
   -2.6980   -3.0267    0.4852 C   0  0  0  0  0  0  0  0  0  0  0  0
   -3.1354   -3.2589   -0.8173 C   0  0  0  0  0  0  0  0  0  0  0  0
   -3.0467   -2.2469   -1.7712 C   0  0  0  0  0  0  0  0  0  0  0  0
   -2.5174   -1.0017   -1.4239 C   0  0  0  0  0  0  0  0  0  0  0  0
   -3.2737    1.6113    1.7711 C   0  0  0  0  0  0  0  0  0  0  0  0
   -4.2777    2.5435    2.0413 C   0  0  0  0  0  0  0  0  0  0  0  0
   -4.1816    4.2968   -0.8744 H   0  0  0  0  0  0  0  0  0  0  0  0
   -2.4093    2.6565   -1.3589 H   0  0  0  0  0  0  0  0  0  0  0  0
   -0.9159    0.9756   -0.6224 H   0  0  0  0  0  0  0  0  0  0  0  0
    0.8798    1.6472    0.5154 H   0  0  0  0  0  0  0  0  0  0  0  0
    1.2691    0.8507    2.0390 H   0  0  0  0  0  0  0  0  0  0  0  0
    1.1183   -1.3839    0.9523 H   0  0  0  0  0  0  0  0  0  0  0  0
    0.8786   -0.6502   -0.6183 H   0  0  0  0  0  0  0  0  0  0  0  0
    3.0913   -2.4937    0.5113 H   0  0  0  0  0  0  0  0  0  0  0  0
    2.9116   -2.0447   -1.1887 H   0  0  0  0  0  0  0  0  0  0  0  0
    5.2339   -2.6937   -0.7129 H   0  0  0  0  0  0  0  0  0  0  0  0
    5.3290   -1.5535    0.6272 H   0  0  0  0  0  0  0  0  0  0  0  0
    6.4410   -0.5620   -1.3112 H   0  0  0  0  0  0  0  0  0  0  0  0
    5.0454   -0.8848   -2.3414 H   0  0  0  0  0  0  0  0  0  0  0  0
    4.9948    1.4678   -1.6834 H   0  0  0  0  0  0  0  0  0  0  0  0
    5.1775    1.0521    0.0192 H   0  0  0  0  0  0  0  0  0  0  0  0
    2.7679    0.4259   -1.7669 H   0  0  0  0  0  0  0  0  0  0  0  0
    2.8638    1.6024   -0.4530 H   0  0  0  0  0  0  0  0  0  0  0  0
   -1.8374   -1.6172    1.8580 H   0  0  0  0  0  0  0  0  0  0  0  0
   -2.7708   -3.8132    1.2330 H   0  0  0  0  0  0  0  0  0  0  0  0
   -3.5478   -4.2278   -1.0870 H   0  0  0  0  0  0  0  0  0  0  0  0
   -3.3913   -2.4267   -2.7860 H   0  0  0  0  0  0  0  0  0  0  0  0
   -2.4588   -0.2260   -2.1837 H   0  0  0  0  0  0  0  0  0  0  0  0
   -3.0266    0.8620    2.5215 H   0  0  0  0  0  0  0  0  0  0  0  0
   -4.8005    2.5102    2.9932 H   0  0  0  0  0  0  0  0  0  0  0  0
  1  2  1  0
  2  3  1  0
  3  4  2  0
  4  5  1  0
  5  6  1  0
  6  7  1  0
  7  8  1  0
  8  9  1  0
  9 10  1  0
 10 11  1  0
 11 12  1  0
 12 13  1  0
 13 14  1  0
 14 15  1  0
  6 16  1  0
 16 17  2  0
 17 18  1  0
 18 19  2  0
 19 20  1  0
 20 21  2  0
  5 22  2  0
 22 23  1  0
 23  2  2  0
 15 10  1  0
 21 16  1  0
  3 24  1  0
  4 25  1  0
  6 26  1  0
  8 27  1  0
  8 28  1  0
  9 29  1  0
  9 30  1  0
 11 31  1  0
 11 32  1  0
 12 33  1  0
 12 34  1  0
 13 35  1  0
 13 36  1  0
 14 37  1  0
 14 38  1  0
 15 39  1  0
 15 40  1  0
 17 41  1  0
 18 42  1  0
 19 43  1  0
 20 44  1  0
 21 45  1  0
 22 46  1  0
 23 47  1  0
M  END
$$$$
OCNT-2328764
     RDKit          3D

 25 25  0  0  0  0  0  0  0  0999 V2000
    3.7842   -0.6400    0.0907 C   0  0  0  0  0  0  0  0  0  0  0  0
    2.3017   -0.3963    0.0737 C   0  0  0  0  0  0  0  0  0  0  0  0
    1.5352   -0.7052    1.2073 C   0  0  0  0  0  0  0  0  0  0  0  0
    0.1541   -0.4866    1.2135 C   0  0  0  0  0  0  0  0  0  0  0  0
   -0.5702   -0.7959    2.3305 O   0  0  0  0  0  0  0  0  0  0  0  0
   -0.5060    0.0435    0.0985 C   0  0  0  0  0  0  0  0  0  0  0  0
   -2.0080    0.2828    0.1012 C   0  0  0  0  0  0  0  0  0  0  0  0
   -2.3402    1.7674   -0.0758 C   0  0  0  0  0  0  0  0  0  0  0  0
   -2.7131   -0.5634   -0.9631 C   0  0  0  0  0  0  0  0  0  0  0  0
    0.2675    0.3509   -1.0342 C   0  0  0  0  0  0  0  0  0  0  0  0
    1.6503    0.1347   -1.0476 C   0  0  0  0  0  0  0  0  0  0  0  0
    2.5172    0.5435   -2.4857 Cl  0  0  0  0  0  0  0  0  0  0  0  0
    4.1115   -1.0572    1.0491 H   0  0  0  0  0  0  0  0  0  0  0  0
    4.3273    0.2985   -0.0600 H   0  0  0  0  0  0  0  0  0  0  0  0
    4.0627   -1.3555   -0.6897 H   0  0  0  0  0  0  0  0  0  0  0  0
    2.0247   -1.1179    2.0855 H   0  0  0  0  0  0  0  0  0  0  0  0
    0.0265   -1.1499    3.0096 H   0  0  0  0  0  0  0  0  0  0  0  0
   -2.4262   -0.0187    1.0689 H   0  0  0  0  0  0  0  0  0  0  0  0
   -3.4195    1.9328    0.0121 H   0  0  0  0  0  0  0  0  0  0  0  0
   -1.8449    2.3730    0.6915 H   0  0  0  0  0  0  0  0  0  0  0  0
   -2.0259    2.1457   -1.0545 H   0  0  0  0  0  0  0  0  0  0  0  0
   -2.4142   -0.2808   -1.9782 H   0  0  0  0  0  0  0  0  0  0  0  0
   -2.4849   -1.6270   -0.8312 H   0  0  0  0  0  0  0  0  0  0  0  0
   -3.7996   -0.4427   -0.8922 H   0  0  0  0  0  0  0  0  0  0  0  0
   -0.2101    0.7644   -1.9198 H   0  0  0  0  0  0  0  0  0  0  0  0
  1  2  1  0
  2  3  1  0
  3  4  2  0
  4  5  1  0
  4  6  1  0
  6  7  1  0
  7  8  1  0
  7  9  1  0
  6 10  2  0
 10 11  1  0
 11 12  1  0
 11  2  2  0
  1 13  1  0
  1 14  1  0
  1 15  1  0
  3 16  1  0
  5 17  1  0
  7 18  1  0
  8 19  1  0
  8 20  1  0
  8 21  1  0
  9 22  1  0
  9 23  1  0
  9 24  1  0
 10 25  1  0
M  END
$$$$
OCNT-2328781
     RDKit          3D

 39 41  0  0  0  0  0  0  0  0999 V2000
    1.6484    0.9638   -0.9489 C   0  0  0  0  0  0  0  0  0  0  0  0
    2.0777    0.0684    0.1840 C   0  0  0  0  0  0  0  0  0  0  0  0
    3.4472   -0.1367    0.4429 C   0  0  0  0  0  0  0  0  0  0  0  0
    4.3176    0.4900   -0.4112 O   0  0  0  0  0  0  0  0  0  0  0  0
    5.7210    0.2911   -0.2075 C   0  0  0  0  0  0  0  0  0  0  0  0
    6.5226    1.0474   -1.2563 C   0  0  0  0  0  0  0  0  0  0  0  0
    6.2964    2.3780   -1.1986 F   0  0  0  0  0  0  0  0  0  0  0  0
    7.8493    0.8554   -1.0583 F   0  0  0  0  0  0  0  0  0  0  0  0
    6.2379    0.6259   -2.5076 F   0  0  0  0  0  0  0  0  0  0  0  0
    3.8361   -0.9294    1.5180 C   0  0  0  0  0  0  0  0  0  0  0  0
    2.8508   -1.4752    2.3161 C   0  0  0  0  0  0  0  0  0  0  0  0
    1.5347   -1.2807    2.1178 N   0  0  0  0  0  0  0  0  0  0  0  0
    1.1500   -0.5200    1.0603 C   0  0  0  0  0  0  0  0  0  0  0  0
   -0.3409   -0.3497    0.9059 C   0  0  0  0  0  0  0  0  0  0  0  0
   -1.0302   -1.5161   -0.3093 S   0  0  0  0  0  0  0  0  0  0  0  0
   -1.2429   -2.8566    0.3371 O   0  0  0  0  0  0  0  0  0  0  0  0
   -2.6711   -0.7779   -0.3822 C   0  0  0  0  0  0  0  0  0  0  0  0
   -2.9222    0.4862   -0.6429 N   0  0  0  0  0  0  0  0  0  0  0  0
   -4.2926    0.5903   -0.5951 C   0  0  0  0  0  0  0  0  0  0  0  0
   -5.1133    1.7097   -0.7947 C   0  0  0  0  0  0  0  0  0  0  0  0
   -6.5012    1.5528   -0.6862 C   0  0  0  0  0  0  0  0  0  0  0  0
   -7.0601    0.3079   -0.3850 C   0  0  0  0  0  0  0  0  0  0  0  0
   -6.2579   -0.8212   -0.1826 C   0  0  0  0  0  0  0  0  0  0  0  0
   -4.8790   -0.6369   -0.2976 C   0  0  0  0  0  0  0  0  0  0  0  0
   -3.8176   -1.4927   -0.1690 N   0  0  0  0  0  0  0  0  0  0  0  0
    1.5494    1.9929   -0.5897 H   0  0  0  0  0  0  0  0  0  0  0  0
    2.3676    0.9475   -1.7742 H   0  0  0  0  0  0  0  0  0  0  0  0
    0.6966    0.6489   -1.3837 H   0  0  0  0  0  0  0  0  0  0  0  0
    6.0079    0.6616    0.7833 H   0  0  0  0  0  0  0  0  0  0  0  0
    5.9606   -0.7754   -0.2886 H   0  0  0  0  0  0  0  0  0  0  0  0
    4.8692   -1.1338    1.7645 H   0  0  0  0  0  0  0  0  0  0  0  0
    3.1011   -2.1008    3.1684 H   0  0  0  0  0  0  0  0  0  0  0  0
   -0.8406   -0.5299    1.8648 H   0  0  0  0  0  0  0  0  0  0  0  0
   -0.5690    0.6798    0.6121 H   0  0  0  0  0  0  0  0  0  0  0  0
   -4.6750    2.6736   -1.0278 H   0  0  0  0  0  0  0  0  0  0  0  0
   -7.1498    2.4125   -0.8385 H   0  0  0  0  0  0  0  0  0  0  0  0
   -8.1417    0.2138   -0.3063 H   0  0  0  0  0  0  0  0  0  0  0  0
   -6.6929   -1.7870    0.0510 H   0  0  0  0  0  0  0  0  0  0  0  0
   -3.8442   -2.4773    0.0582 H   0  0  0  0  0  0  0  0  0  0  0  0
  1  2  1  0
  2  3  1  0
  3  4  1  0
  4  5  1  0
  5  6  1  0
  6  7  1  0
  6  8  1  0
  6  9  1  0
  3 10  2  0
 10 11  1  0
 11 12  2  0
 12 13  1  0
 13 14  1  0
 14 15  1  0
 15 16  2  0
 15 17  1  0
 17 18  2  0
 18 19  1  0
 19 20  2  0
 20 21  1  0
 21 22  2  0
 22 23  1  0
 23 24  2  0
 24 25  1  0
 13  2  2  0
 25 17  1  0
 24 19  1  0
  1 26  1  0
  1 27  1  0
  1 28  1  0
  5 29  1  0
  5 30  1  0
 10 31  1  0
 11 32  1  0
 14 33  1  0
 14 34  1  0
 20 35  1  0
 21 36  1  0
 22 37  1  0
 23 38  1  0
 25 39  1  0
M  END
$$$$
OCNT-2328787
     RDKit          3D

 60 60  0  0  0  0  0  0  0  0999 V2000
   -8.7588    0.2494   -0.1483 C   0  0  0  0  0  0  0  0  0  0  0  0
   -7.6008   -0.0284   -1.0945 C   0  0  0  0  0  0  0  0  0  0  0  0
   -6.2488   -0.1600   -0.3881 C   0  0  0  0  0  0  0  0  0  0  0  0
   -5.7687    1.1469    0.2487 C   0  0  0  0  0  0  0  0  0  0  0  0
   -4.4215    1.0123    0.9679 C   0  0  0  0  0  0  0  0  0  0  0  0
   -3.2548    0.7137    0.0226 C   0  0  0  0  0  0  0  0  0  0  0  0
   -1.8840    0.8097    0.7016 C   0  0  0  0  0  0  0  0  0  0  0  0
   -1.6816   -0.2321    1.8068 C   0  0  0  0  0  0  0  0  0  0  0  0
   -0.2586   -0.2239    2.3777 C   0  0  0  0  0  0  0  0  0  0  0  0
    0.6664   -1.3011    1.8000 C   0  0  0  0  0  0  0  0  0  0  0  0
    0.9406   -1.1553    0.3031 C   0  0  0  0  0  0  0  0  0  0  0  0
    1.9889   -2.1674   -0.1666 C   0  0  0  0  0  0  0  0  0  0  0  0
    2.2572   -2.1069   -1.6708 C   0  0  0  0  0  0  0  0  0  0  0  0
    2.8329   -0.7928   -2.2110 C   0  0  0  0  0  0  0  0  0  0  0  0
    4.2305   -0.4441   -1.6899 C   0  0  0  0  0  0  0  0  0  0  0  0
    4.2085    0.4998   -0.4919 C   0  0  0  0  0  0  0  0  0  0  0  0
    5.6032    0.8113   -0.0931 N   0  0  0  0  0  0  0  0  0  0  0  0
    6.2361    0.0166    0.8021 C   0  0  0  0  0  0  0  0  0  0  0  0
    7.5404    0.2922    1.1950 C   0  0  0  0  0  0  0  0  0  0  0  0
    8.1939    1.3951    0.6610 C   0  0  0  0  0  0  0  0  0  0  0  0
    7.5323    2.2017   -0.2555 C   0  0  0  0  0  0  0  0  0  0  0  0
    6.2279    1.8903   -0.6212 C   0  0  0  0  0  0  0  0  0  0  0  0
   -8.6711    1.2360    0.3156 H   0  0  0  0  0  0  0  0  0  0  0  0
   -8.8088   -0.5038    0.6442 H   0  0  0  0  0  0  0  0  0  0  0  0
   -9.7058    0.2260   -0.6975 H   0  0  0  0  0  0  0  0  0  0  0  0
   -7.8057   -0.9655   -1.6263 H   0  0  0  0  0  0  0  0  0  0  0  0
   -7.5507    0.7615   -1.8530 H   0  0  0  0  0  0  0  0  0  0  0  0
   -5.5175   -0.4952   -1.1322 H   0  0  0  0  0  0  0  0  0  0  0  0
   -6.3081   -0.9452    0.3753 H   0  0  0  0  0  0  0  0  0  0  0  0
   -5.7007    1.9297   -0.5164 H   0  0  0  0  0  0  0  0  0  0  0  0
   -6.5042    1.4878    0.9860 H   0  0  0  0  0  0  0  0  0  0  0  0
   -4.2221    1.9529    1.4962 H   0  0  0  0  0  0  0  0  0  0  0  0
   -4.5000    0.2293    1.7307 H   0  0  0  0  0  0  0  0  0  0  0  0
   -3.2745    1.4279   -0.8098 H   0  0  0  0  0  0  0  0  0  0  0  0
   -3.3667   -0.2856   -0.4130 H   0  0  0  0  0  0  0  0  0  0  0  0
   -1.1167    0.6933   -0.0705 H   0  0  0  0  0  0  0  0  0  0  0  0
   -1.7530    1.8157    1.1191 H   0  0  0  0  0  0  0  0  0  0  0  0
   -2.3711   -0.0006    2.6276 H   0  0  0  0  0  0  0  0  0  0  0  0
   -1.9464   -1.2331    1.4469 H   0  0  0  0  0  0  0  0  0  0  0  0
   -0.3279   -0.4095    3.4575 H   0  0  0  0  0  0  0  0  0  0  0  0
    0.2003    0.7656    2.2660 H   0  0  0  0  0  0  0  0  0  0  0  0
    1.6178   -1.2560    2.3450 H   0  0  0  0  0  0  0  0  0  0  0  0
    0.2395   -2.2918    1.9994 H   0  0  0  0  0  0  0  0  0  0  0  0
    1.2790   -0.1347    0.0973 H   0  0  0  0  0  0  0  0  0  0  0  0
    0.0157   -1.3169   -0.2615 H   0  0  0  0  0  0  0  0  0  0  0  0
    1.6337   -3.1779    0.0729 H   0  0  0  0  0  0  0  0  0  0  0  0
    2.9238   -2.0369    0.3884 H   0  0  0  0  0  0  0  0  0  0  0  0
    2.9413   -2.9242   -1.9325 H   0  0  0  0  0  0  0  0  0  0  0  0
    1.3200   -2.3148   -2.2028 H   0  0  0  0  0  0  0  0  0  0  0  0
    2.9076   -0.9093   -3.3004 H   0  0  0  0  0  0  0  0  0  0  0  0
    2.1354    0.0362   -2.0480 H   0  0  0  0  0  0  0  0  0  0  0  0
    4.7940   -1.3548   -1.4550 H   0  0  0  0  0  0  0  0  0  0  0  0
    4.7826    0.0498   -2.5001 H   0  0  0  0  0  0  0  0  0  0  0  0
    3.7084    1.4453   -0.7305 H   0  0  0  0  0  0  0  0  0  0  0  0
    3.7096    0.0712    0.3810 H   0  0  0  0  0  0  0  0  0  0  0  0
    5.6903   -0.8373    1.1936 H   0  0  0  0  0  0  0  0  0  0  0  0
    8.0460   -0.3496    1.9135 H   0  0  0  0  0  0  0  0  0  0  0  0
    9.2166    1.6251    0.9581 H   0  0  0  0  0  0  0  0  0  0  0  0
    8.0315    3.0688   -0.6832 H   0  0  0  0  0  0  0  0  0  0  0  0
    5.6764    2.4937   -1.3366 H   0  0  0  0  0  0  0  0  0  0  0  0
  1  2  1  0
  2  3  1  0
  3  4  1  0
  4  5  1  0
  5  6  1  0
  6  7  1  0
  7  8  1  0
  8  9  1  0
  9 10  1  0
 10 11  1  0
 11 12  1  0
 12 13  1  0
 13 14  1  0
 14 15  1  0
 15 16  1  0
 16 17  1  0
 17 18  2  0
 18 19  1  0
 19 20  2  0
 20 21  1  0
 21 22  2  0
 22 17  1  0
  1 23  1  0
  1 24  1  0
  1 25  1  0
  2 26  1  0
  2 27  1  0
  3 28  1  0
  3 29  1  0
  4 30  1  0
  4 31  1  0
  5 32  1  0
  5 33  1  0
  6 34  1  0
  6 35  1  0
  7 36  1  0
  7 37  1  0
  8 38  1  0
  8 39  1  0
  9 40  1  0
  9 41  1  0
 10 42  1  0
 10 43  1  0
 11 44  1  0
 11 45  1  0
 12 46  1  0
 12 47  1  0
 13 48  1  0
 13 49  1  0
 14 50  1  0
 14 51  1  0
 15 52  1  0
 15 53  1  0
 16 54  1  0
 16 55  1  0
 18 56  1  0
 19 57  1  0
 20 58  1  0
 21 59  1  0
 22 60  1  0
M  CHG  1  17   1
M  END
$$$$
OCNT-2328788
     RDKit          3D

 37 39  0  0  0  0  0  0  0  0999 V2000
   -4.0888    2.2787    0.2378 C   0  0  0  0  0  0  0  0  0  0  0  0
   -3.5970    0.9201    0.0471 N   0  0  0  0  0  0  0  0  0  0  0  0
   -2.1326    0.8398   -0.0967 C   0  0  1  0  0  0  0  0  0  0  0  0
   -1.3860    1.4052    1.1260 C   0  0  0  0  0  0  0  0  0  0  0  0
    0.1337    1.1673    1.1125 C   0  0  0  0  0  0  0  0  0  0  0  0
    0.6607    0.4406   -0.1448 C   0  0  1  0  0  0  0  0  0  0  0  0
    2.1596    0.1747   -0.0298 C   0  0  0  0  0  0  0  0  0  0  0  0
    2.7059   -0.5443    1.0488 C   0  0  0  0  0  0  0  0  0  0  0  0
    4.0833   -0.7803    1.1336 C   0  0  0  0  0  0  0  0  0  0  0  0
    4.6629   -1.6753    2.4935 Cl  0  0  0  0  0  0  0  0  0  0  0  0
    4.9346   -0.3003    0.1347 C   0  0  0  0  0  0  0  0  0  0  0  0
    6.6434   -0.5519    0.1700 Cl  0  0  0  0  0  0  0  0  0  0  0  0
    4.4038    0.4091   -0.9450 C   0  0  0  0  0  0  0  0  0  0  0  0
    3.0284    0.6429   -1.0278 C   0  0  0  0  0  0  0  0  0  0  0  0
   -0.2220   -0.7678   -0.4416 C   0  0  0  0  0  0  0  0  0  0  0  0
   -1.6261   -0.5774   -0.3729 C   0  0  0  0  0  0  0  0  0  0  0  0
   -2.4747   -1.6717   -0.6050 C   0  0  0  0  0  0  0  0  0  0  0  0
   -1.9523   -2.9230   -0.9322 C   0  0  0  0  0  0  0  0  0  0  0  0
   -0.5774   -3.0965   -1.0431 C   0  0  0  0  0  0  0  0  0  0  0  0
    0.2836   -2.0258   -0.8049 C   0  0  0  0  0  0  0  0  0  0  0  0
   -5.1827    2.2737    0.1928 H   0  0  0  0  0  0  0  0  0  0  0  0
   -3.8157    2.6752    1.2199 H   0  0  0  0  0  0  0  0  0  0  0  0
   -3.7270    2.9549   -0.5434 H   0  0  0  0  0  0  0  0  0  0  0  0
   -4.0101    0.5612   -0.8137 H   0  0  0  0  0  0  0  0  0  0  0  0
   -1.8629    1.4346   -0.9812 H   0  0  0  0  0  0  0  0  0  0  0  0
   -1.7924    0.9611    2.0455 H   0  0  0  0  0  0  0  0  0  0  0  0
   -1.5588    2.4851    1.2092 H   0  0  0  0  0  0  0  0  0  0  0  0
    0.3780    0.5979    2.0188 H   0  0  0  0  0  0  0  0  0  0  0  0
    0.6520    2.1289    1.2251 H   0  0  0  0  0  0  0  0  0  0  0  0
    0.5229    1.1249   -0.9952 H   0  0  0  0  0  0  0  0  0  0  0  0
    2.0519   -0.9396    1.8243 H   0  0  0  0  0  0  0  0  0  0  0  0
    5.0571    0.7832   -1.7300 H   0  0  0  0  0  0  0  0  0  0  0  0
    2.6409    1.1943   -1.8831 H   0  0  0  0  0  0  0  0  0  0  0  0
   -3.5539   -1.5709   -0.5273 H   0  0  0  0  0  0  0  0  0  0  0  0
   -2.6222   -3.7609   -1.1068 H   0  0  0  0  0  0  0  0  0  0  0  0
   -0.1725   -4.0692   -1.3105 H   0  0  0  0  0  0  0  0  0  0  0  0
    1.3520   -2.1984   -0.9049 H   0  0  0  0  0  0  0  0  0  0  0  0
  1  2  1  0
  2  3  1  0
  3  4  1  0
  4  5  1  0
  5  6  1  0
  6  7  1  0
  7  8  2  0
  8  9  1  0
  9 10  1  0
  9 11  2  0
 11 12  1  0
 11 13  1  0
 13 14  2  0
  6 15  1  0
 15 16  1  0
 16 17  2  0
 17 18  1  0
 18 19  2  0
 19 20  1  0
 16  3  1  0
 14  7  1  0
 20 15  2  0
  1 21  1  0
  1 22  1  0
  1 23  1  0
  2 24  1  0
  3 25  1  6
  4 26  1  0
  4 27  1  0
  5 28  1  0
  5 29  1  0
  6 30  1  6
  8 31  1  0
 13 32  1  0
 14 33  1  0
 17 34  1  0
 18 35  1  0
 19 36  1  0
 20 37  1  0
M  END
$$$$
OCNT-2328791
     RDKit          3D

 72 73  0  0  0  0  0  0  0  0999 V2000
    5.3925   -2.5343   -2.1422 C   0  0  0  0  0  0  0  0  0  0  0  0
    5.8938   -1.4018   -1.2096 C   0  0  0  0  0  0  0  0  0  0  0  0
    6.9241   -0.5821   -1.9941 C   0  0  0  0  0  0  0  0  0  0  0  0
    6.5836   -2.0847   -0.0141 C   0  0  0  0  0  0  0  0  0  0  0  0
    4.6350   -0.5822   -0.7782 C   0  0  0  0  0  0  0  0  0  0  0  0
    4.7021    0.8056   -0.0506 C   0  0  0  0  0  0  0  0  0  0  0  0
    5.6969    0.8067    1.1264 C   0  0  0  0  0  0  0  0  0  0  0  0
    5.1530    1.9368   -1.0086 C   0  0  0  0  0  0  0  0  0  0  0  0
    3.2504    1.1116    0.4247 C   0  0  0  0  0  0  0  0  0  0  0  0
    2.2587    1.4882   -0.4988 C   0  0  0  0  0  0  0  0  0  0  0  0
    0.9492    1.7622   -0.0898 C   0  0  0  0  0  0  0  0  0  0  0  0
    0.5829    1.6601    1.2509 C   0  0  0  0  0  0  0  0  0  0  0  0
   -0.7270    1.9486    1.5061 O   0  0  0  0  0  0  0  0  0  0  0  0
   -1.1606    2.0251    2.8671 C   0  0  0  0  0  0  0  0  0  0  0  0
   -1.6282    0.6611    3.3933 C   0  0  0  0  0  0  0  0  0  0  0  0
   -2.4470   -0.0746    2.4744 O   0  0  0  0  0  0  0  0  0  0  0  0
   -3.6950    0.5393    2.1710 C   0  0  0  0  0  0  0  0  0  0  0  0
   -4.4727   -0.3278    1.1633 C   0  0  0  0  0  0  0  0  0  0  0  0
   -3.8493   -0.4109   -0.2581 N   0  0  0  0  0  0  0  0  0  0  0  0
   -3.7927    0.9605   -0.9099 C   0  0  0  0  0  0  0  0  0  0  0  0
   -2.4252   -0.9771   -0.1969 C   0  0  0  0  0  0  0  0  0  0  0  0
   -4.6789   -1.3910   -1.1259 C   0  0  0  0  0  0  0  0  0  0  0  0
   -6.1373   -1.0582   -1.3266 C   0  0  0  0  0  0  0  0  0  0  0  0
   -7.1166   -1.5972   -0.4758 C   0  0  0  0  0  0  0  0  0  0  0  0
   -8.4646   -1.2822   -0.6548 C   0  0  0  0  0  0  0  0  0  0  0  0
   -8.8515   -0.4334   -1.6882 C   0  0  0  0  0  0  0  0  0  0  0  0
   -7.8937    0.0960   -2.5495 C   0  0  0  0  0  0  0  0  0  0  0  0
   -6.5448   -0.2164   -2.3738 C   0  0  0  0  0  0  0  0  0  0  0  0
    1.5422    1.2684    2.1774 C   0  0  0  0  0  0  0  0  0  0  0  0
    2.8561    0.9934    1.7680 C   0  0  0  0  0  0  0  0  0  0  0  0
    4.6598   -3.1707   -1.6325 H   0  0  0  0  0  0  0  0  0  0  0  0
    6.2173   -3.1770   -2.4711 H   0  0  0  0  0  0  0  0  0  0  0  0
    4.9157   -2.1268   -3.0413 H   0  0  0  0  0  0  0  0  0  0  0  0
    6.4524   -0.0310   -2.8147 H   0  0  0  0  0  0  0  0  0  0  0  0
    7.4531    0.1279   -1.3532 H   0  0  0  0  0  0  0  0  0  0  0  0
    7.6907   -1.2312   -2.4342 H   0  0  0  0  0  0  0  0  0  0  0  0
    7.3186   -2.8237   -0.3553 H   0  0  0  0  0  0  0  0  0  0  0  0
    7.1290   -1.3791    0.6157 H   0  0  0  0  0  0  0  0  0  0  0  0
    5.8581   -2.6117    0.6156 H   0  0  0  0  0  0  0  0  0  0  0  0
    4.0304   -1.2554   -0.1502 H   0  0  0  0  0  0  0  0  0  0  0  0
    4.0259   -0.4347   -1.6832 H   0  0  0  0  0  0  0  0  0  0  0  0
    5.5331   -0.0406    1.8010 H   0  0  0  0  0  0  0  0  0  0  0  0
    5.6127    1.7266    1.7180 H   0  0  0  0  0  0  0  0  0  0  0  0
    6.7342    0.7620    0.7815 H   0  0  0  0  0  0  0  0  0  0  0  0
    4.6571    1.8780   -1.9832 H   0  0  0  0  0  0  0  0  0  0  0  0
    6.2291    1.9173   -1.1991 H   0  0  0  0  0  0  0  0  0  0  0  0
    4.9319    2.9236   -0.5833 H   0  0  0  0  0  0  0  0  0  0  0  0
    2.4914    1.5777   -1.5573 H   0  0  0  0  0  0  0  0  0  0  0  0
    0.2176    2.0715   -0.8308 H   0  0  0  0  0  0  0  0  0  0  0  0
   -0.4144    2.4864    3.5243 H   0  0  0  0  0  0  0  0  0  0  0  0
   -2.0113    2.7156    2.8679 H   0  0  0  0  0  0  0  0  0  0  0  0
   -0.7577    0.0265    3.5847 H   0  0  0  0  0  0  0  0  0  0  0  0
   -2.1582    0.7761    4.3455 H   0  0  0  0  0  0  0  0  0  0  0  0
   -3.5561    1.5482    1.7758 H   0  0  0  0  0  0  0  0  0  0  0  0
   -4.2791    0.6130    3.0955 H   0  0  0  0  0  0  0  0  0  0  0  0
   -5.4774    0.0896    1.0470 H   0  0  0  0  0  0  0  0  0  0  0  0
   -4.5400   -1.3593    1.5276 H   0  0  0  0  0  0  0  0  0  0  0  0
   -3.0476    1.5713   -0.3933 H   0  0  0  0  0  0  0  0  0  0  0  0
   -4.7759    1.4318   -0.8333 H   0  0  0  0  0  0  0  0  0  0  0  0
   -3.4991    0.8362   -1.9567 H   0  0  0  0  0  0  0  0  0  0  0  0
   -2.4378   -1.8876    0.4085 H   0  0  0  0  0  0  0  0  0  0  0  0
   -1.7530   -0.2253    0.2166 H   0  0  0  0  0  0  0  0  0  0  0  0
   -2.1037   -1.2060   -1.2181 H   0  0  0  0  0  0  0  0  0  0  0  0
   -4.1818   -1.4531   -2.1031 H   0  0  0  0  0  0  0  0  0  0  0  0
   -4.5833   -2.3803   -0.6592 H   0  0  0  0  0  0  0  0  0  0  0  0
   -6.8474   -2.2785    0.3293 H   0  0  0  0  0  0  0  0  0  0  0  0
   -9.2191   -1.7072    0.0042 H   0  0  0  0  0  0  0  0  0  0  0  0
   -9.9035   -0.1951   -1.8316 H   0  0  0  0  0  0  0  0  0  0  0  0
   -8.2037    0.7443   -3.3665 H   0  0  0  0  0  0  0  0  0  0  0  0
   -5.8235    0.1963   -3.0765 H   0  0  0  0  0  0  0  0  0  0  0  0
    1.3191    1.1598    3.2329 H   0  0  0  0  0  0  0  0  0  0  0  0
    3.5608    0.6849    2.5364 H   0  0  0  0  0  0  0  0  0  0  0  0
  1  2  1  0
  2  3  1  0
  2  4  1  0
  2  5  1  0
  5  6  1  0
  6  7  1  0
  6  8  1  0
  6  9  1  0
  9 10  1  0
 10 11  2  0
 11 12  1  0
 12 13  1  0
 13 14  1  0
 14 15  1  0
 15 16  1  0
 16 17  1  0
 17 18  1  0
 18 19  1  0
 19 20  1  0
 19 21  1  0
 19 22  1  0
 22 23  1  0
 23 24  2  0
 24 25  1  0
 25 26  2  0
 26 27  1  0
 27 28  2  0
 12 29  2  0
 29 30  1  0
 30  9  2  0
 28 23  1  0
  1 31  1  0
  1 32  1  0
  1 33  1  0
  3 34  1  0
  3 35  1  0
  3 36  1  0
  4 37  1  0
  4 38  1  0
  4 39  1  0
  5 40  1  0
  5 41  1  0
  7 42  1  0
  7 43  1  0
  7 44  1  0
  8 45  1  0
  8 46  1  0
  8 47  1  0
 10 48  1  0
 11 49  1  0
 14 50  1  0
 14 51  1  0
 15 52  1  0
 15 53  1  0
 17 54  1  0
 17 55  1  0
 18 56  1  0
 18 57  1  0
 20 58  1  0
 20 59  1  0
 20 60  1  0
 21 61  1  0
 21 62  1  0
 21 63  1  0
 22 64  1  0
 22 65  1  0
 24 66  1  0
 25 67  1  0
 26 68  1  0
 27 69  1  0
 28 70  1  0
 29 71  1  0
 30 72  1  0
M  CHG  1  19   1
M  END
$$$$
OCNT-2328803
     RDKit          3D

 43 44  0  0  0  0  0  0  0  0999 V2000
   -3.6103    2.5486    0.3892 C   0  0  0  0  0  0  0  0  0  0  0  0
   -2.4123    2.8187   -0.5100 C   0  0  0  0  0  0  0  0  0  0  0  0
   -2.1128    1.6670   -1.4806 C   0  0  0  0  0  0  0  0  0  0  0  0
   -1.8548    0.3578   -0.8530 N   0  0  0  0  0  0  0  0  0  0  0  0
   -1.7891   -0.6894   -1.8891 C   0  0  0  0  0  0  0  0  0  0  0  0
   -1.7200   -2.1166   -1.3312 C   0  0  0  0  0  0  0  0  0  0  0  0
   -1.8194   -3.1501   -2.4443 C   0  0  0  0  0  0  0  0  0  0  0  0
   -0.7099    0.3588    0.0778 C   0  0  0  0  0  0  0  0  0  0  0  0
    0.6769    0.6329   -0.5316 C   0  0  0  0  0  0  0  0  0  0  0  0
    1.7570    0.6385    0.5207 C   0  0  0  0  0  0  0  0  0  0  0  0
    2.0839    1.8235    1.2038 C   0  0  0  0  0  0  0  0  0  0  0  0
    3.0780    1.8447    2.2009 C   0  0  0  0  0  0  0  0  0  0  0  0
    3.7685    0.6823    2.5445 C   0  0  0  0  0  0  0  0  0  0  0  0
    3.4324   -0.4714    1.8712 C   0  0  0  0  0  0  0  0  0  0  0  0
    2.4497   -0.5102    0.8806 C   0  0  0  0  0  0  0  0  0  0  0  0
    2.3354   -1.9168    0.3643 C   0  0  0  0  0  0  0  0  0  0  0  0
    3.3885   -2.6581    1.1932 C   0  0  0  0  0  0  0  0  0  0  0  0
    3.6672   -3.8435    1.1248 O   0  0  0  0  0  0  0  0  0  0  0  0
    3.9762   -1.7335    2.0457 N   0  0  0  0  0  0  0  0  0  0  0  0
   -3.4301    1.6999    1.0560 H   0  0  0  0  0  0  0  0  0  0  0  0
   -3.8174    3.4246    1.0121 H   0  0  0  0  0  0  0  0  0  0  0  0
   -4.5052    2.3367   -0.2047 H   0  0  0  0  0  0  0  0  0  0  0  0
   -1.5344    3.0531    0.1016 H   0  0  0  0  0  0  0  0  0  0  0  0
   -2.6189    3.7195   -1.1012 H   0  0  0  0  0  0  0  0  0  0  0  0
   -1.2772    1.9575   -2.1292 H   0  0  0  0  0  0  0  0  0  0  0  0
   -2.9882    1.5754   -2.1376 H   0  0  0  0  0  0  0  0  0  0  0  0
   -2.6987   -0.6269   -2.5014 H   0  0  0  0  0  0  0  0  0  0  0  0
   -0.9462   -0.5156   -2.5695 H   0  0  0  0  0  0  0  0  0  0  0  0
   -0.7770   -2.2800   -0.7999 H   0  0  0  0  0  0  0  0  0  0  0  0
   -2.5353   -2.2802   -0.6166 H   0  0  0  0  0  0  0  0  0  0  0  0
   -1.7593   -4.1608   -2.0287 H   0  0  0  0  0  0  0  0  0  0  0  0
   -2.7693   -3.0601   -2.9809 H   0  0  0  0  0  0  0  0  0  0  0  0
   -1.0039   -3.0294   -3.1646 H   0  0  0  0  0  0  0  0  0  0  0  0
   -0.6877   -0.5976    0.6148 H   0  0  0  0  0  0  0  0  0  0  0  0
   -0.9017    1.0831    0.8790 H   0  0  0  0  0  0  0  0  0  0  0  0
    0.6890    1.6010   -1.0462 H   0  0  0  0  0  0  0  0  0  0  0  0
    0.9230   -0.1154   -1.2933 H   0  0  0  0  0  0  0  0  0  0  0  0
    1.5631    2.7501    0.9659 H   0  0  0  0  0  0  0  0  0  0  0  0
    3.3074    2.7791    2.7083 H   0  0  0  0  0  0  0  0  0  0  0  0
    4.5340    0.6948    3.3113 H   0  0  0  0  0  0  0  0  0  0  0  0
    1.3486   -2.3376    0.5708 H   0  0  0  0  0  0  0  0  0  0  0  0
    2.5964   -1.9758   -0.6952 H   0  0  0  0  0  0  0  0  0  0  0  0
    4.7038   -1.9782    2.6997 H   0  0  0  0  0  0  0  0  0  0  0  0
  1  2  1  0
  2  3  1  0
  3  4  1  0
  4  5  1  0
  5  6  1  0
  6  7  1  0
  4  8  1  0
  8  9  1  0
  9 10  1  0
 10 11  2  0
 11 12  1  0
 12 13  2  0
 13 14  1  0
 14 15  2  0
 15 16  1  0
 16 17  1  0
 17 18  2  0
 17 19  1  0
 15 10  1  0
 19 14  1  0
  1 20  1  0
  1 21  1  0
  1 22  1  0
  2 23  1  0
  2 24  1  0
  3 25  1  0
  3 26  1  0
  5 27  1  0
  5 28  1  0
  6 29  1  0
  6 30  1  0
  7 31  1  0
  7 32  1  0
  7 33  1  0
  8 34  1  0
  8 35  1  0
  9 36  1  0
  9 37  1  0
 11 38  1  0
 12 39  1  0
 13 40  1  0
 16 41  1  0
 16 42  1  0
 19 43  1  0
M  END
$$$$
OCNT-2328805
     RDKit          3D

 59 63  0  0  0  0  0  0  0  0999 V2000
   -1.2858    0.0194   -3.0143 O   0  0  0  0  0  0  0  0  0  0  0  0
   -1.4980   -0.1934   -1.8228 C   0  0  0  0  0  0  0  0  0  0  0  0
   -0.4965   -0.4408   -0.9206 O   0  0  0  0  0  0  0  0  0  0  0  0
    0.8285   -0.6433   -1.4579 C   0  0  1  0  0  0  0  0  0  0  0  0
    1.5767    0.6954   -1.4681 C   0  0  0  0  0  0  0  0  0  0  0  0
    2.2717    1.0307   -0.1374 C   0  0  1  0  0  0  0  0  0  0  0  0
    1.2931    1.0151    1.0454 C   0  0  0  0  0  0  0  0  0  0  0  0
    1.2876   -0.4295    1.5551 C   0  0  0  0  0  0  0  0  0  0  0  0
    2.2425   -1.1948    0.6258 C   0  0  1  0  0  0  0  0  0  0  0  0
    1.5021   -1.7299   -0.6088 C   0  0  0  0  0  0  0  0  0  0  0  0
    3.2531   -0.0960    0.2217 N   0  0  0  0  0  0  0  0  0  0  0  0
    4.2602   -0.4527   -0.8821 C   0  0  0  0  0  0  0  0  0  0  0  0
    5.4946   -0.9066   -0.1386 C   0  0  0  0  0  0  0  0  0  0  0  0
    5.5971    0.1269    0.9552 C   0  0  0  0  0  0  0  0  0  0  0  0
    4.1679    0.2866    1.4388 C   0  0  0  0  0  0  0  0  0  0  0  0
   -2.9087   -0.1609   -1.1577 C   0  0  0  0  0  0  0  0  0  0  0  0
   -3.8085   -0.7008   -2.1503 O   0  0  0  0  0  0  0  0  0  0  0  0
   -2.9601   -1.0864    0.0706 C   0  0  0  0  0  0  0  0  0  0  0  0
   -2.7993   -0.5989    1.3808 C   0  0  0  0  0  0  0  0  0  0  0  0
   -2.8114   -1.4648    2.4787 C   0  0  0  0  0  0  0  0  0  0  0  0
   -2.9712   -2.8334    2.2882 C   0  0  0  0  0  0  0  0  0  0  0  0
   -3.1206   -3.3385    1.0015 C   0  0  0  0  0  0  0  0  0  0  0  0
   -3.1133   -2.4751   -0.0967 C   0  0  0  0  0  0  0  0  0  0  0  0
   -3.4008    1.2715   -0.8855 C   0  0  0  0  0  0  0  0  0  0  0  0
   -4.7586    1.4796   -0.5567 C   0  0  0  0  0  0  0  0  0  0  0  0
   -5.2508    2.7583   -0.2901 C   0  0  0  0  0  0  0  0  0  0  0  0
   -4.3966    3.8558   -0.3482 C   0  0  0  0  0  0  0  0  0  0  0  0
   -3.0523    3.6764   -0.6727 C   0  0  0  0  0  0  0  0  0  0  0  0
   -2.5560    2.3965   -0.9368 C   0  0  0  0  0  0  0  0  0  0  0  0
    0.7459   -1.0269   -2.4830 H   0  0  0  0  0  0  0  0  0  0  0  0
    0.8831    1.5094   -1.7130 H   0  0  0  0  0  0  0  0  0  0  0  0
    2.3179    0.6779   -2.2752 H   0  0  0  0  0  0  0  0  0  0  0  0
    2.8309    1.9696   -0.2112 H   0  0  0  0  0  0  0  0  0  0  0  0
    0.2947    1.3670    0.7714 H   0  0  0  0  0  0  0  0  0  0  0  0
    1.6443    1.6800    1.8421 H   0  0  0  0  0  0  0  0  0  0  0  0
    1.6538   -0.4548    2.5880 H   0  0  0  0  0  0  0  0  0  0  0  0
    0.2830   -0.8596    1.5763 H   0  0  0  0  0  0  0  0  0  0  0  0
    2.7817   -1.9994    1.1370 H   0  0  0  0  0  0  0  0  0  0  0  0
    0.7473   -2.4538   -0.2758 H   0  0  0  0  0  0  0  0  0  0  0  0
    2.1950   -2.3019   -1.2334 H   0  0  0  0  0  0  0  0  0  0  0  0
    3.8644   -1.2070   -1.5592 H   0  0  0  0  0  0  0  0  0  0  0  0
    4.4690    0.4682   -1.4389 H   0  0  0  0  0  0  0  0  0  0  0  0
    5.3505   -1.9088    0.2811 H   0  0  0  0  0  0  0  0  0  0  0  0
    6.3832   -0.9232   -0.7765 H   0  0  0  0  0  0  0  0  0  0  0  0
    6.2714   -0.1784    1.7599 H   0  0  0  0  0  0  0  0  0  0  0  0
    5.9675    1.0781    0.5529 H   0  0  0  0  0  0  0  0  0  0  0  0
    3.9586   -0.4088    2.2576 H   0  0  0  0  0  0  0  0  0  0  0  0
    3.9547    1.3150    1.7487 H   0  0  0  0  0  0  0  0  0  0  0  0
   -3.8660   -0.0355   -2.8618 H   0  0  0  0  0  0  0  0  0  0  0  0
   -2.6790    0.4648    1.5699 H   0  0  0  0  0  0  0  0  0  0  0  0
   -2.7114   -1.0664    3.4851 H   0  0  0  0  0  0  0  0  0  0  0  0
   -2.9981   -3.5078    3.1408 H   0  0  0  0  0  0  0  0  0  0  0  0
   -3.2608   -4.4059    0.8514 H   0  0  0  0  0  0  0  0  0  0  0  0
   -3.2473   -2.8952   -1.0925 H   0  0  0  0  0  0  0  0  0  0  0  0
   -5.4437    0.6324   -0.5067 H   0  0  0  0  0  0  0  0  0  0  0  0
   -6.3017    2.8982   -0.0408 H   0  0  0  0  0  0  0  0  0  0  0  0
   -4.7797    4.8535   -0.1467 H   0  0  0  0  0  0  0  0  0  0  0  0
   -2.3934    4.5420   -0.7283 H   0  0  0  0  0  0  0  0  0  0  0  0
   -1.5022    2.3110   -1.1935 H   0  0  0  0  0  0  0  0  0  0  0  0
  1  2  2  0
  2  3  1  0
  3  4  1  0
  4  5  1  0
  5  6  1  0
  6  7  1  0
  7  8  1  0
  8  9  1  0
  9 10  1  0
  9 11  1  0
 11 12  1  0
 12 13  1  0
 13 14  1  0
 14 15  1  0
  2 16  1  0
 16 17  1  0
 16 18  1  0
 18 19  2  0
 19 20  1  0
 20 21  2  0
 21 22  1  0
 22 23  2  0
 16 24  1  0
 24 25  2  0
 25 26  1  0
 26 27  2  0
 27 28  1  0
 28 29  2  0
 10  4  1  0
 15 11  1  0
 23 18  1  0
 29 24  1  0
 11  6  1  0
  4 30  1  6
  5 31  1  0
  5 32  1  0
  6 33  1  6
  7 34  1  0
  7 35  1  0
  8 36  1  0
  8 37  1  0
  9 38  1  1
 10 39  1  0
 10 40  1  0
 12 41  1  0
 12 42  1  0
 13 43  1  0
 13 44  1  0
 14 45  1  0
 14 46  1  0
 15 47  1  0
 15 48  1  0
 17 49  1  0
 19 50  1  0
 20 51  1  0
 21 52  1  0
 22 53  1  0
 23 54  1  0
 25 55  1  0
 26 56  1  0
 27 57  1  0
 28 58  1  0
 29 59  1  0
M  CHG  1  11   1
M  END
$$$$
OCNT-2328814
     RDKit          3D

 31 33  0  0  0  0  0  0  0  0999 V2000
   -0.7009    2.5952   -0.9146 C   0  0  0  0  0  0  0  0  0  0  0  0
   -1.3287    1.3143   -0.5013 C   0  0  0  0  0  0  0  0  0  0  0  0
   -2.4596    0.8373   -0.9805 N   0  0  0  0  0  0  0  0  0  0  0  0
   -2.6659   -0.3569   -0.3409 C   0  0  0  0  0  0  0  0  0  0  0  0
   -1.6400   -0.6261    0.5599 C   0  0  0  0  0  0  0  0  0  0  0  0
   -1.6143   -1.7876    1.3441 C   0  0  0  0  0  0  0  0  0  0  0  0
   -2.6754   -2.6878    1.1893 C   0  0  0  0  0  0  0  0  0  0  0  0
   -3.7136   -2.4364    0.2916 C   0  0  0  0  0  0  0  0  0  0  0  0
   -3.7210   -1.2704   -0.4824 C   0  0  0  0  0  0  0  0  0  0  0  0
   -0.7936    0.4553    0.4371 N   0  0  0  0  0  0  0  0  0  0  0  0
    0.4209    0.6748    1.2098 C   0  0  0  0  0  0  0  0  0  0  0  0
    1.6790    0.4674    0.3986 C   0  0  0  0  0  0  0  0  0  0  0  0
    1.8963   -0.7167   -0.3248 C   0  0  0  0  0  0  0  0  0  0  0  0
    3.0752   -0.9007   -1.0521 C   0  0  0  0  0  0  0  0  0  0  0  0
    4.0509    0.0922   -1.0531 C   0  0  0  0  0  0  0  0  0  0  0  0
    5.5033   -0.1350   -1.9463 Cl  0  0  0  0  0  0  0  0  0  0  0  0
    3.8592    1.2671   -0.3307 C   0  0  0  0  0  0  0  0  0  0  0  0
    2.6801    1.4525    0.3959 C   0  0  0  0  0  0  0  0  0  0  0  0
   -1.3759    3.1545   -1.5705 H   0  0  0  0  0  0  0  0  0  0  0  0
   -0.4810    3.2260   -0.0484 H   0  0  0  0  0  0  0  0  0  0  0  0
    0.2253    2.4119   -1.4667 H   0  0  0  0  0  0  0  0  0  0  0  0
   -0.8118   -1.9964    2.0429 H   0  0  0  0  0  0  0  0  0  0  0  0
   -2.6907   -3.6015    1.7802 H   0  0  0  0  0  0  0  0  0  0  0  0
   -4.5267   -3.1509    0.1894 H   0  0  0  0  0  0  0  0  0  0  0  0
   -4.5230   -1.0656   -1.1826 H   0  0  0  0  0  0  0  0  0  0  0  0
    0.3622    1.6946    1.6075 H   0  0  0  0  0  0  0  0  0  0  0  0
    0.4255   -0.0016    2.0707 H   0  0  0  0  0  0  0  0  0  0  0  0
    1.1468   -1.5066   -0.3376 H   0  0  0  0  0  0  0  0  0  0  0  0
    3.2231   -1.8192   -1.6143 H   0  0  0  0  0  0  0  0  0  0  0  0
    4.6228    2.0406   -0.3280 H   0  0  0  0  0  0  0  0  0  0  0  0
    2.5513    2.3759    0.9576 H   0  0  0  0  0  0  0  0  0  0  0  0
  1  2  1  0
  2  3  2  0
  3  4  1  0
  4  5  1  0
  5  6  2  0
  6  7  1  0
  7  8  2  0
  8  9  1  0
  5 10  1  0
 10 11  1  0
 11 12  1  0
 12 13  1  0
 13 14  2  0
 14 15  1  0
 15 16  1  0
 15 17  2  0
 17 18  1  0
 10  2  1  0
 18 12  2  0
  9  4  2  0
  1 19  1  0
  1 20  1  0
  1 21  1  0
  6 22  1  0
  7 23  1  0
  8 24  1  0
  9 25  1  0
 11 26  1  0
 11 27  1  0
 13 28  1  0
 14 29  1  0
 17 30  1  0
 18 31  1  0
M  END
$$$$
OCNT-2328816
     RDKit          3D

 67 70  0  0  0  0  0  0  0  0999 V2000
   -5.1007   -3.2923   -0.7974 C   0  0  0  0  0  0  0  0  0  0  0  0
   -3.5908   -3.1555   -0.9200 C   0  0  0  0  0  0  0  0  0  0  0  0
   -3.1322   -1.7599   -1.3547 C   0  0  0  0  0  0  0  0  0  0  0  0
   -3.4474   -0.6720   -0.3191 C   0  0  0  0  0  0  0  0  0  0  0  0
   -2.9005    0.6294   -0.7184 N   0  0  0  0  0  0  0  0  0  0  0  0
   -3.6675    1.7675   -0.1935 C   0  0  0  0  0  0  0  0  0  0  0  0
   -4.8939    2.0463   -1.0762 C   0  0  0  0  0  0  0  0  0  0  0  0
   -5.6659    3.2994   -0.6526 C   0  0  0  0  0  0  0  0  0  0  0  0
   -6.3249    3.1716    0.7122 C   0  0  0  0  0  0  0  0  0  0  0  0
   -1.4376    0.7761   -0.5353 C   0  0  0  0  0  0  0  0  0  0  0  0
   -0.8178    0.5968    0.8821 C   0  0  0  0  0  0  0  0  0  0  0  0
   -1.4261    1.4894    1.8234 O   0  0  0  0  0  0  0  0  0  0  0  0
    0.6780    0.8585    0.8500 C   0  0  0  0  0  0  0  0  0  0  0  0
    1.1289    2.1803    1.0861 C   0  0  0  0  0  0  0  0  0  0  0  0
    2.4845    2.5189    1.0577 C   0  0  0  0  0  0  0  0  0  0  0  0
    2.9619    4.1455    1.3581 Cl  0  0  0  0  0  0  0  0  0  0  0  0
    3.4499    1.5610    0.7847 C   0  0  0  0  0  0  0  0  0  0  0  0
    3.0335    0.2613    0.5367 C   0  0  0  0  0  0  0  0  0  0  0  0
    1.6517   -0.1125    0.5596 C   0  0  0  0  0  0  0  0  0  0  0  0
    1.5580   -1.5516    0.2415 C   0  0  0  0  0  0  0  0  0  0  0  0
    0.4671   -2.4039    0.1220 C   0  0  0  0  0  0  0  0  0  0  0  0
    0.6696   -3.7531   -0.2005 C   0  0  0  0  0  0  0  0  0  0  0  0
    1.9600   -4.2506   -0.4034 C   0  0  0  0  0  0  0  0  0  0  0  0
    2.1773   -5.9117   -0.7977 Cl  0  0  0  0  0  0  0  0  0  0  0  0
    3.0688   -3.4185   -0.2914 C   0  0  0  0  0  0  0  0  0  0  0  0
    2.8553   -2.0821    0.0278 C   0  0  0  0  0  0  0  0  0  0  0  0
    3.8095   -0.9626    0.2078 C   0  0  0  0  0  0  0  0  0  0  0  0
    5.1378   -1.1305    0.0701 C   0  0  0  0  0  0  0  0  0  0  0  0
    6.1787   -0.1132    0.2134 C   0  0  0  0  0  0  0  0  0  0  0  0
    6.6038    0.6165   -0.9030 C   0  0  0  0  0  0  0  0  0  0  0  0
    7.5984    1.5881   -0.7673 C   0  0  0  0  0  0  0  0  0  0  0  0
    8.1680    1.8259    0.4826 C   0  0  0  0  0  0  0  0  0  0  0  0
    9.3912    3.0239    0.6491 Cl  0  0  0  0  0  0  0  0  0  0  0  0
    7.7534    1.1004    1.5985 C   0  0  0  0  0  0  0  0  0  0  0  0
    6.7591    0.1282    1.4641 C   0  0  0  0  0  0  0  0  0  0  0  0
   -5.3668   -4.3325   -0.5832 H   0  0  0  0  0  0  0  0  0  0  0  0
   -5.4948   -2.6771    0.0168 H   0  0  0  0  0  0  0  0  0  0  0  0
   -5.5996   -2.9991   -1.7268 H   0  0  0  0  0  0  0  0  0  0  0  0
   -3.2345   -3.8832   -1.6590 H   0  0  0  0  0  0  0  0  0  0  0  0
   -3.1220   -3.4203    0.0355 H   0  0  0  0  0  0  0  0  0  0  0  0
   -3.6021   -1.5025   -2.3127 H   0  0  0  0  0  0  0  0  0  0  0  0
   -2.0548   -1.8101   -1.5427 H   0  0  0  0  0  0  0  0  0  0  0  0
   -4.5382   -0.6055   -0.2405 H   0  0  0  0  0  0  0  0  0  0  0  0
   -3.0957   -0.9649    0.6759 H   0  0  0  0  0  0  0  0  0  0  0  0
   -3.9746    1.5853    0.8415 H   0  0  0  0  0  0  0  0  0  0  0  0
   -3.0540    2.6773   -0.1908 H   0  0  0  0  0  0  0  0  0  0  0  0
   -5.5774    1.1891   -1.0773 H   0  0  0  0  0  0  0  0  0  0  0  0
   -4.5630    2.1860   -2.1140 H   0  0  0  0  0  0  0  0  0  0  0  0
   -6.4459    3.4954   -1.3981 H   0  0  0  0  0  0  0  0  0  0  0  0
   -4.9987    4.1693   -0.6561 H   0  0  0  0  0  0  0  0  0  0  0  0
   -5.5817    3.0959    1.5110 H   0  0  0  0  0  0  0  0  0  0  0  0
   -6.9723    2.2900    0.7554 H   0  0  0  0  0  0  0  0  0  0  0  0
   -6.9403    4.0540    0.9159 H   0  0  0  0  0  0  0  0  0  0  0  0
   -0.9381    0.0845   -1.2244 H   0  0  0  0  0  0  0  0  0  0  0  0
   -1.1609    1.7701   -0.9152 H   0  0  0  0  0  0  0  0  0  0  0  0
   -0.9994   -0.3981    1.2876 H   0  0  0  0  0  0  0  0  0  0  0  0
   -2.3103    1.1301    2.0016 H   0  0  0  0  0  0  0  0  0  0  0  0
    0.4024    2.9640    1.3014 H   0  0  0  0  0  0  0  0  0  0  0  0
    4.4931    1.8459    0.7670 H   0  0  0  0  0  0  0  0  0  0  0  0
   -0.5506   -2.0732    0.2636 H   0  0  0  0  0  0  0  0  0  0  0  0
   -0.1893   -4.4137   -0.2936 H   0  0  0  0  0  0  0  0  0  0  0  0
    4.0654   -3.8121   -0.4528 H   0  0  0  0  0  0  0  0  0  0  0  0
    5.5490   -2.1060   -0.1780 H   0  0  0  0  0  0  0  0  0  0  0  0
    6.1605    0.4371   -1.8801 H   0  0  0  0  0  0  0  0  0  0  0  0
    7.9216    2.1548   -1.6364 H   0  0  0  0  0  0  0  0  0  0  0  0
    8.1968    1.2874    2.5726 H   0  0  0  0  0  0  0  0  0  0  0  0
    6.4371   -0.4328    2.3388 H   0  0  0  0  0  0  0  0  0  0  0  0
  1  2  1  0
  2  3  1  0
  3  4  1  0
  4  5  1  0
  5  6  1  0
  6  7  1  0
  7  8  1  0
  8  9  1  0
  5 10  1  0
 10 11  1  0
 11 12  1  0
 11 13  1  0
 13 14  2  0
 14 15  1  0
 15 16  1  0
 15 17  2  0
 17 18  1  0
 18 19  2  0
 19 20  1  0
 20 21  1  0
 21 22  2  0
 22 23  1  0
 23 24  1  0
 23 25  2  0
 25 26  1  0
 26 27  1  0
 27 28  2  0
 28 29  1  0
 29 30  1  0
 30 31  2  0
 31 32  1  0
 32 33  1  0
 32 34  2  0
 34 35  1  0
 19 13  1  0
 26 20  2  0
 35 29  2  0
 27 18  1  0
  1 36  1  0
  1 37  1  0
  1 38  1  0
  2 39  1  0
  2 40  1  0
  3 41  1  0
  3 42  1  0
  4 43  1  0
  4 44  1  0
  6 45  1  0
  6 46  1  0
  7 47  1  0
  7 48  1  0
  8 49  1  0
  8 50  1  0
  9 51  1  0
  9 52  1  0
  9 53  1  0
 10 54  1  0
 10 55  1  0
 11 56  1  0
 12 57  1  0
 14 58  1  0
 17 59  1  0
 21 60  1  0
 22 61  1  0
 25 62  1  0
 28 63  1  0
 30 64  1  0
 31 65  1  0
 34 66  1  0
 35 67  1  0
M  END
$$$$
OCNT-2328824
     RDKit          3D

 37 40  0  0  0  0  0  0  0  0999 V2000
    1.6676    2.0492    1.6199 O   0  0  0  0  0  0  0  0  0  0  0  0
    1.8953    0.8579    1.6355 C   0  0  0  0  0  0  0  0  0  0  0  0
    1.7170    0.0685    2.7044 O   0  0  0  0  0  0  0  0  0  0  0  0
    2.3448    0.0537    0.4928 C   0  0  0  0  0  0  0  0  0  0  0  0
    3.7006   -0.2844    0.3756 C   0  0  0  0  0  0  0  0  0  0  0  0
    4.8349    0.2638    1.5739 Cl  0  0  0  0  0  0  0  0  0  0  0  0
    4.1273   -1.0532   -0.7207 C   0  0  0  0  0  0  0  0  0  0  0  0
    5.8076   -1.4839   -0.8766 Cl  0  0  0  0  0  0  0  0  0  0  0  0
    3.1973   -1.4728   -1.6928 C   0  0  0  0  0  0  0  0  0  0  0  0
    3.7239   -2.4274   -3.0509 Cl  0  0  0  0  0  0  0  0  0  0  0  0
    1.8389   -1.1183   -1.5691 C   0  0  0  0  0  0  0  0  0  0  0  0
    0.6805   -1.6311   -2.7651 Cl  0  0  0  0  0  0  0  0  0  0  0  0
    1.3992   -0.3440   -0.4744 C   0  0  0  0  0  0  0  0  0  0  0  0
   -0.0452    0.0309   -0.3192 C   0  0  0  0  0  0  0  0  0  0  0  0
   -0.5216    1.1865   -0.8614 C   0  0  0  0  0  0  0  0  0  0  0  0
    0.3471    2.1051   -1.6045 C   0  0  0  0  0  0  0  0  0  0  0  0
   -0.1016    3.2473   -2.1463 C   0  0  0  0  0  0  0  0  0  0  0  0
    1.1749    4.4961   -3.1765 I   0  0  0  0  0  0  0  0  0  0  0  0
   -1.5402    3.6331   -2.0120 C   0  0  0  0  0  0  0  0  0  0  0  0
   -1.9718    4.6678   -2.5133 O   0  0  0  0  0  0  0  0  0  0  0  0
   -2.4268    2.6977   -1.2442 C   0  0  0  0  0  0  0  0  0  0  0  0
   -4.4279    3.2460   -1.0496 I   0  0  0  0  0  0  0  0  0  0  0  0
   -1.9375    1.5586   -0.7138 C   0  0  0  0  0  0  0  0  0  0  0  0
   -2.7901    0.7161   -0.0142 O   0  0  0  0  0  0  0  0  0  0  0  0
   -2.3375   -0.4492    0.5410 C   0  0  0  0  0  0  0  0  0  0  0  0
   -3.2600   -1.2506    1.2378 C   0  0  0  0  0  0  0  0  0  0  0  0
   -5.2798   -0.6574    1.4079 I   0  0  0  0  0  0  0  0  0  0  0  0
   -2.8450   -2.4502    1.8272 C   0  0  0  0  0  0  0  0  0  0  0  0
   -3.7212   -3.2486    2.5128 O   0  0  0  0  0  0  0  0  0  0  0  0
   -1.5112   -2.8418    1.7167 C   0  0  0  0  0  0  0  0  0  0  0  0
   -0.8007   -4.6172    2.5697 I   0  0  0  0  0  0  0  0  0  0  0  0
   -0.5983   -2.0410    1.0207 C   0  0  0  0  0  0  0  0  0  0  0  0
   -1.0014   -0.8340    0.4237 C   0  0  0  0  0  0  0  0  0  0  0  0
    1.4312    0.6692    3.4270 H   0  0  0  0  0  0  0  0  0  0  0  0
    1.3989    1.8673   -1.7199 H   0  0  0  0  0  0  0  0  0  0  0  0
   -4.6031   -2.8356    2.4826 H   0  0  0  0  0  0  0  0  0  0  0  0
    0.4341   -2.3739    0.9554 H   0  0  0  0  0  0  0  0  0  0  0  0
  1  2  2  0
  2  3  1  0
  2  4  1  0
  4  5  2  0
  5  6  1  0
  5  7  1  0
  7  8  1  0
  7  9  2  0
  9 10  1  0
  9 11  1  0
 11 12  1  0
 11 13  2  0
 13 14  1  0
 14 15  2  0
 15 16  1  0
 16 17  2  0
 17 18  1  0
 17 19  1  0
 19 20  2  0
 19 21  1  0
 21 22  1  0
 21 23  2  0
 23 24  1  0
 24 25  1  0
 25 26  1  0
 26 27  1  0
 26 28  2  0
 28 29  1  0
 28 30  1  0
 30 31  1  0
 30 32  2  0
 32 33  1  0
 13  4  1  0
 33 14  1  0
 23 15  1  0
 33 25  2  0
  3 34  1  0
 16 35  1  0
 29 36  1  0
 32 37  1  0
M  END
$$$$
OCNT-2328829
     RDKit          3D

 28 29  0  0  0  0  0  0  0  0999 V2000
    3.6218    0.1061   -1.6146 N   0  0  0  0  0  0  0  0  0  0  0  0
    3.6069    0.1223   -0.3359 C   0  0  0  0  0  0  0  0  0  0  0  0
    4.4913   -0.6286    0.3452 N   0  0  0  0  0  0  0  0  0  0  0  0
    2.7972    0.8140    0.4909 N   0  0  0  0  0  0  0  0  0  0  0  0
    1.5155    1.3904    0.1162 C   0  0  0  0  0  0  0  0  0  0  0  0
    0.3452    0.4061    0.2590 C   0  0  0  0  0  0  0  0  0  0  0  0
    0.3429   -0.6745   -0.8208 C   0  0  0  0  0  0  0  0  0  0  0  0
   -0.7404   -1.5943   -0.6188 O   0  0  0  0  0  0  0  0  0  0  0  0
   -1.9144   -0.9444   -0.3469 C   0  0  0  0  0  0  0  0  0  0  0  0
   -1.9753    0.4001    0.0254 C   0  0  0  0  0  0  0  0  0  0  0  0
   -3.2094    1.0060    0.2543 C   0  0  0  0  0  0  0  0  0  0  0  0
   -4.3830    0.2588    0.1401 C   0  0  0  0  0  0  0  0  0  0  0  0
   -4.3203   -1.0920   -0.2054 C   0  0  0  0  0  0  0  0  0  0  0  0
   -3.0847   -1.6943   -0.4478 C   0  0  0  0  0  0  0  0  0  0  0  0
   -0.8648    1.1874    0.1753 O   0  0  0  0  0  0  0  0  0  0  0  0
    2.9265    0.7519   -1.9863 H   0  0  0  0  0  0  0  0  0  0  0  0
    5.1392   -1.0486   -0.3167 H   0  0  0  0  0  0  0  0  0  0  0  0
    5.0120   -0.0923    1.0281 H   0  0  0  0  0  0  0  0  0  0  0  0
    2.8132    0.4593    1.4421 H   0  0  0  0  0  0  0  0  0  0  0  0
    1.3340    2.2430    0.7830 H   0  0  0  0  0  0  0  0  0  0  0  0
    1.5398    1.8250   -0.8899 H   0  0  0  0  0  0  0  0  0  0  0  0
    0.3707   -0.0547    1.2563 H   0  0  0  0  0  0  0  0  0  0  0  0
    1.2603   -1.2677   -0.7899 H   0  0  0  0  0  0  0  0  0  0  0  0
    0.2470   -0.2444   -1.8258 H   0  0  0  0  0  0  0  0  0  0  0  0
   -3.2576    2.0554    0.5308 H   0  0  0  0  0  0  0  0  0  0  0  0
   -5.3458    0.7287    0.3241 H   0  0  0  0  0  0  0  0  0  0  0  0
   -5.2336   -1.6752   -0.2908 H   0  0  0  0  0  0  0  0  0  0  0  0
   -3.0342   -2.7435   -0.7258 H   0  0  0  0  0  0  0  0  0  0  0  0
  1  2  2  3
  2  3  1  0
  2  4  1  0
  4  5  1  0
  5  6  1  0
  6  7  1  0
  7  8  1  0
  8  9  1  0
  9 10  1  0
 10 11  2  0
 11 12  1  0
 12 13  2  0
 13 14  1  0
 10 15  1  0
 15  6  1  0
 14  9  2  0
  1 16  1  0
  3 17  1  0
  3 18  1  0
  4 19  1  0
  5 20  1  0
  5 21  1  0
  6 22  1  0
  7 23  1  0
  7 24  1  0
 11 25  1  0
 12 26  1  0
 13 27  1  0
 14 28  1  0
M  END
$$$$
OCNT-2328835
     RDKit          3D

 51 54  0  0  0  0  0  0  0  0999 V2000
    5.9522   -0.7073    1.6641 C   0  0  0  0  0  0  0  0  0  0  0  0
    4.5303   -0.4616    1.4177 N   0  0  0  0  0  0  0  0  0  0  0  0
    3.8028   -1.7189    1.2245 C   0  0  0  0  0  0  0  0  0  0  0  0
    2.2788   -1.6112    1.4301 C   0  0  0  0  0  0  0  0  0  0  0  0
    1.7792   -0.2421    1.9037 C   0  0  0  0  0  0  0  0  0  0  0  0
    1.8740    0.8797    0.8447 C   0  0  0  0  0  0  0  0  0  0  0  0
    0.5698    1.1121    0.1818 N   0  0  0  0  0  0  0  0  0  0  0  0
   -0.0900   -0.0043   -0.2728 N   0  0  0  0  0  0  0  0  0  0  0  0
   -1.2144    0.1245   -0.9092 C   0  0  0  0  0  0  0  0  0  0  0  0
   -1.8960   -1.1602   -1.3631 C   0  0  0  0  0  0  0  0  0  0  0  0
   -3.0342   -1.5920   -0.4650 C   0  0  0  0  0  0  0  0  0  0  0  0
   -4.2575   -1.9955   -1.0210 C   0  0  0  0  0  0  0  0  0  0  0  0
   -5.3071   -2.4135   -0.1992 C   0  0  0  0  0  0  0  0  0  0  0  0
   -5.1360   -2.4432    1.1827 C   0  0  0  0  0  0  0  0  0  0  0  0
   -6.4296   -2.9582    2.1932 Cl  0  0  0  0  0  0  0  0  0  0  0  0
   -3.9219   -2.0654    1.7496 C   0  0  0  0  0  0  0  0  0  0  0  0
   -2.8722   -1.6480    0.9280 C   0  0  0  0  0  0  0  0  0  0  0  0
   -1.8342    1.4370   -1.1931 C   0  0  0  0  0  0  0  0  0  0  0  0
   -3.0668    1.5867   -1.8414 C   0  0  0  0  0  0  0  0  0  0  0  0
   -3.5814    2.8635   -2.0851 C   0  0  0  0  0  0  0  0  0  0  0  0
   -2.8707    3.9933   -1.6865 C   0  0  0  0  0  0  0  0  0  0  0  0
   -1.6446    3.8472   -1.0397 C   0  0  0  0  0  0  0  0  0  0  0  0
   -1.1294    2.5667   -0.7919 C   0  0  0  0  0  0  0  0  0  0  0  0
    0.1630    2.4155   -0.0993 C   0  0  0  0  0  0  0  0  0  0  0  0
    0.8038    3.4218    0.1965 O   0  0  0  0  0  0  0  0  0  0  0  0
    2.9499    0.6664   -0.2302 C   0  0  0  0  0  0  0  0  0  0  0  0
    4.3676    0.4941    0.3150 C   0  0  0  0  0  0  0  0  0  0  0  0
    6.0882   -1.3233    2.5600 H   0  0  0  0  0  0  0  0  0  0  0  0
    6.4345   -1.2136    0.8202 H   0  0  0  0  0  0  0  0  0  0  0  0
    6.4809    0.2341    1.8516 H   0  0  0  0  0  0  0  0  0  0  0  0
    4.0199   -2.1552    0.2406 H   0  0  0  0  0  0  0  0  0  0  0  0
    4.1586   -2.4560    1.9573 H   0  0  0  0  0  0  0  0  0  0  0  0
    1.9837   -2.3545    2.1821 H   0  0  0  0  0  0  0  0  0  0  0  0
    1.7636   -1.9005    0.5068 H   0  0  0  0  0  0  0  0  0  0  0  0
    2.3532    0.0544    2.7917 H   0  0  0  0  0  0  0  0  0  0  0  0
    0.7444   -0.3399    2.2567 H   0  0  0  0  0  0  0  0  0  0  0  0
    2.1209    1.8007    1.3888 H   0  0  0  0  0  0  0  0  0  0  0  0
   -1.1532   -1.9683   -1.3849 H   0  0  0  0  0  0  0  0  0  0  0  0
   -2.2336   -1.0354   -2.3984 H   0  0  0  0  0  0  0  0  0  0  0  0
   -4.4040   -1.9914   -2.0991 H   0  0  0  0  0  0  0  0  0  0  0  0
   -6.2512   -2.7193   -0.6422 H   0  0  0  0  0  0  0  0  0  0  0  0
   -3.7819   -2.0974    2.8268 H   0  0  0  0  0  0  0  0  0  0  0  0
   -1.9239   -1.3702    1.3870 H   0  0  0  0  0  0  0  0  0  0  0  0
   -3.6531    0.7328   -2.1640 H   0  0  0  0  0  0  0  0  0  0  0  0
   -4.5409    2.9766   -2.5856 H   0  0  0  0  0  0  0  0  0  0  0  0
   -3.2708    4.9869   -1.8750 H   0  0  0  0  0  0  0  0  0  0  0  0
   -1.0921    4.7309   -0.7252 H   0  0  0  0  0  0  0  0  0  0  0  0
    2.6909   -0.1928   -0.8625 H   0  0  0  0  0  0  0  0  0  0  0  0
    2.9518    1.5276   -0.9122 H   0  0  0  0  0  0  0  0  0  0  0  0
    4.7189    1.4747    0.6609 H   0  0  0  0  0  0  0  0  0  0  0  0
    5.0097    0.2119   -0.5303 H   0  0  0  0  0  0  0  0  0  0  0  0
  1  2  1  0
  2  3  1  0
  3  4  1  0
  4  5  1  0
  5  6  1  0
  6  7  1  0
  7  8  1  0
  8  9  2  0
  9 10  1  0
 10 11  1  0
 11 12  1  0
 12 13  2  0
 13 14  1  0
 14 15  1  0
 14 16  2  0
 16 17  1  0
  9 18  1  0
 18 19  2  0
 19 20  1  0
 20 21  2  0
 21 22  1  0
 22 23  2  0
 23 24  1  0
 24 25  2  0
  6 26  1  0
 26 27  1  0
 27  2  1  0
 24  7  1  0
 17 11  2  0
 23 18  1  0
  1 28  1  0
  1 29  1  0
  1 30  1  0
  3 31  1  0
  3 32  1  0
  4 33  1  0
  4 34  1  0
  5 35  1  0
  5 36  1  0
  6 37  1  0
 10 38  1  0
 10 39  1  0
 12 40  1  0
 13 41  1  0
 16 42  1  0
 17 43  1  0
 19 44  1  0
 20 45  1  0
 21 46  1  0
 22 47  1  0
 26 48  1  0
 26 49  1  0
 27 50  1  0
 27 51  1  0
M  END
$$$$
OCNT-2328839
     RDKit          3D

 45 47  0  0  0  0  0  0  0  0999 V2000
    3.9948   -1.1133    1.4018 C   0  0  0  0  0  0  0  0  0  0  0  0
    3.9773    0.1557    0.6710 N   0  0  0  0  0  0  0  0  0  0  0  0
    5.3243    0.4521    0.1736 C   0  0  0  0  0  0  0  0  0  0  0  0
    3.0211    0.1400   -0.4488 C   0  0  0  0  0  0  0  0  0  0  0  0
    1.5580    0.1507    0.0217 C   0  0  0  0  0  0  0  0  0  0  0  0
    0.6045    0.2338   -1.1773 C   0  0  0  0  0  0  0  0  0  0  0  0
   -0.9082    0.3272   -0.8566 C   0  0  1  0  0  0  0  0  0  0  0  0
   -1.2401    1.5060    0.0674 C   0  0  0  0  0  0  0  0  0  0  0  0
   -1.6328    1.3350    1.4078 C   0  0  0  0  0  0  0  0  0  0  0  0
   -1.9071    2.4377    2.2227 C   0  0  0  0  0  0  0  0  0  0  0  0
   -1.7876    3.7214    1.7089 C   0  0  0  0  0  0  0  0  0  0  0  0
   -2.0520    4.7746    2.4929 F   0  0  0  0  0  0  0  0  0  0  0  0
   -1.3972    3.9265    0.3943 C   0  0  0  0  0  0  0  0  0  0  0  0
   -1.1232    2.8258   -0.4200 C   0  0  0  0  0  0  0  0  0  0  0  0
   -1.5351    0.6318   -2.1552 O   0  0  0  0  0  0  0  0  0  0  0  0
   -2.8171   -0.0154   -2.2478 C   0  0  0  0  0  0  0  0  0  0  0  0
   -2.6758   -1.1770   -1.3406 C   0  0  0  0  0  0  0  0  0  0  0  0
   -1.5643   -0.9936   -0.5210 C   0  0  0  0  0  0  0  0  0  0  0  0
   -1.2373   -1.9605    0.4216 C   0  0  0  0  0  0  0  0  0  0  0  0
   -2.0386   -3.1035    0.5306 C   0  0  0  0  0  0  0  0  0  0  0  0
   -3.1612   -3.2744   -0.2971 C   0  0  0  0  0  0  0  0  0  0  0  0
   -3.9727   -4.4495   -0.1690 C   0  0  0  0  0  0  0  0  0  0  0  0
   -4.6295   -5.4007   -0.0649 N   0  0  0  0  0  0  0  0  0  0  0  0
   -3.4880   -2.2980   -1.2425 C   0  0  0  0  0  0  0  0  0  0  0  0
    3.0340   -1.3066    1.8884 H   0  0  0  0  0  0  0  0  0  0  0  0
    4.2329   -1.9621    0.7507 H   0  0  0  0  0  0  0  0  0  0  0  0
    4.7375   -1.0822    2.2075 H   0  0  0  0  0  0  0  0  0  0  0  0
    5.3468    1.4294   -0.3215 H   0  0  0  0  0  0  0  0  0  0  0  0
    5.6779   -0.3042   -0.5368 H   0  0  0  0  0  0  0  0  0  0  0  0
    6.0384    0.5086    1.0029 H   0  0  0  0  0  0  0  0  0  0  0  0
    3.2017   -0.7215   -1.1049 H   0  0  0  0  0  0  0  0  0  0  0  0
    3.1742    1.0407   -1.0580 H   0  0  0  0  0  0  0  0  0  0  0  0
    1.4050    1.0072    0.6879 H   0  0  0  0  0  0  0  0  0  0  0  0
    1.3512   -0.7533    0.5949 H   0  0  0  0  0  0  0  0  0  0  0  0
    0.7799   -0.6281   -1.8367 H   0  0  0  0  0  0  0  0  0  0  0  0
    0.8899    1.1080   -1.7801 H   0  0  0  0  0  0  0  0  0  0  0  0
   -1.7326    0.3460    1.8454 H   0  0  0  0  0  0  0  0  0  0  0  0
   -2.2115    2.3008    3.2555 H   0  0  0  0  0  0  0  0  0  0  0  0
   -1.3075    4.9371    0.0096 H   0  0  0  0  0  0  0  0  0  0  0  0
   -0.8187    3.0002   -1.4513 H   0  0  0  0  0  0  0  0  0  0  0  0
   -2.9854   -0.3089   -3.2870 H   0  0  0  0  0  0  0  0  0  0  0  0
   -3.5967    0.6741   -1.9103 H   0  0  0  0  0  0  0  0  0  0  0  0
   -0.3901   -1.8448    1.0885 H   0  0  0  0  0  0  0  0  0  0  0  0
   -1.7853   -3.8609    1.2713 H   0  0  0  0  0  0  0  0  0  0  0  0
   -4.3538   -2.4117   -1.8900 H   0  0  0  0  0  0  0  0  0  0  0  0
  1  2  1  0
  2  3  1  0
  2  4  1  0
  4  5  1  0
  5  6  1  0
  7  6  1  6
  7  8  1  0
  8  9  1  0
  9 10  2  0
 10 11  1  0
 11 12  1  0
 11 13  2  0
 13 14  1  0
  7 15  1  0
 15 16  1  0
 16 17  1  0
 17 18  2  0
 18 19  1  0
 19 20  2  0
 20 21  1  0
 21 22  1  0
 22 23  3  0
 21 24  2  0
 18  7  1  0
 14  8  2  0
 24 17  1  0
  1 25  1  0
  1 26  1  0
  1 27  1  0
  3 28  1  0
  3 29  1  0
  3 30  1  0
  4 31  1  0
  4 32  1  0
  5 33  1  0
  5 34  1  0
  6 35  1  0
  6 36  1  0
  9 37  1  0
 10 38  1  0
 13 39  1  0
 14 40  1  0
 16 41  1  0
 16 42  1  0
 19 43  1  0
 20 44  1  0
 24 45  1  0
M  END
$$$$
OCNT-2328864
     RDKit          3D

 40 42  0  0  0  0  0  0  0  0999 V2000
    2.8514   -2.4539    1.0128 C   0  0  0  0  0  0  0  0  0  0  0  0
    1.6157   -2.4397    0.2500 N   0  0  0  0  0  0  0  0  0  0  0  0
    1.7367   -1.8036   -1.0601 C   0  0  0  0  0  0  0  0  0  0  0  0
    2.1650   -0.3310   -1.0810 C   0  0  0  0  0  0  0  0  0  0  0  0
    1.2478    0.6074   -0.2805 C   0  0  2  0  0  0  0  0  0  0  0  0
   -0.0731    0.5735   -0.8442 O   0  0  0  0  0  0  0  0  0  0  0  0
   -1.1122    0.4541    0.0498 C   0  0  0  0  0  0  0  0  0  0  0  0
   -1.1558    1.1826    1.2431 C   0  0  0  0  0  0  0  0  0  0  0  0
   -2.2303    1.0350    2.1162 C   0  0  0  0  0  0  0  0  0  0  0  0
   -3.2763    0.1726    1.7944 C   0  0  0  0  0  0  0  0  0  0  0  0
   -3.2735   -0.5405    0.5864 C   0  0  0  0  0  0  0  0  0  0  0  0
   -4.3408   -1.3925    0.2565 C   0  0  0  0  0  0  0  0  0  0  0  0
   -4.3511   -2.0951   -0.9484 C   0  0  0  0  0  0  0  0  0  0  0  0
   -3.2961   -1.9523   -1.8411 C   0  0  0  0  0  0  0  0  0  0  0  0
   -2.2278   -1.1106   -1.5261 C   0  0  0  0  0  0  0  0  0  0  0  0
   -2.1870   -0.3944   -0.3105 C   0  0  0  0  0  0  0  0  0  0  0  0
    1.7662    2.0311   -0.3376 C   0  0  0  0  0  0  0  0  0  0  0  0
    2.4610    2.7088    0.6492 C   0  0  0  0  0  0  0  0  0  0  0  0
    2.8050    4.0364    0.2643 C   0  0  0  0  0  0  0  0  0  0  0  0
    2.3688    4.3323   -1.0065 C   0  0  0  0  0  0  0  0  0  0  0  0
    1.5544    3.0160   -1.7291 S   0  0  0  0  0  0  0  0  0  0  0  0
    3.6656   -2.9147    0.4442 H   0  0  0  0  0  0  0  0  0  0  0  0
    2.7095   -3.0488    1.9205 H   0  0  0  0  0  0  0  0  0  0  0  0
    3.1534   -1.4489    1.3221 H   0  0  0  0  0  0  0  0  0  0  0  0
    0.8584   -2.0200    0.7887 H   0  0  0  0  0  0  0  0  0  0  0  0
    0.7730   -1.9052   -1.5702 H   0  0  0  0  0  0  0  0  0  0  0  0
    2.4454   -2.3808   -1.6673 H   0  0  0  0  0  0  0  0  0  0  0  0
    3.1979   -0.2403   -0.7218 H   0  0  0  0  0  0  0  0  0  0  0  0
    2.1790   -0.0201   -2.1343 H   0  0  0  0  0  0  0  0  0  0  0  0
    1.2478    0.2714    0.7650 H   0  0  0  0  0  0  0  0  0  0  0  0
   -0.3746    1.8900    1.5006 H   0  0  0  0  0  0  0  0  0  0  0  0
   -2.2599    1.6016    3.0433 H   0  0  0  0  0  0  0  0  0  0  0  0
   -4.1074    0.0733    2.4895 H   0  0  0  0  0  0  0  0  0  0  0  0
   -5.1793   -1.5133    0.9389 H   0  0  0  0  0  0  0  0  0  0  0  0
   -5.1846   -2.7493   -1.1898 H   0  0  0  0  0  0  0  0  0  0  0  0
   -3.3005   -2.4926   -2.7839 H   0  0  0  0  0  0  0  0  0  0  0  0
   -1.4176   -1.0089   -2.2451 H   0  0  0  0  0  0  0  0  0  0  0  0
    2.7109    2.2717    1.6088 H   0  0  0  0  0  0  0  0  0  0  0  0
    3.3454    4.7389    0.8869 H   0  0  0  0  0  0  0  0  0  0  0  0
    2.4895    5.2593   -1.5501 H   0  0  0  0  0  0  0  0  0  0  0  0
  1  2  1  0
  2  3  1  0
  3  4  1  0
  4  5  1  0
  5  6  1  0
  6  7  1  0
  7  8  2  0
  8  9  1  0
  9 10  2  0
 10 11  1  0
 11 12  2  0
 12 13  1  0
 13 14  2  0
 14 15  1  0
 15 16  2  0
  5 17  1  0
 17 18  2  0
 18 19  1  0
 19 20  2  0
 20 21  1  0
 16  7  1  0
 21 17  1  0
 16 11  1  0
  1 22  1  0
  1 23  1  0
  1 24  1  0
  2 25  1  0
  3 26  1  0
  3 27  1  0
  4 28  1  0
  4 29  1  0
  5 30  1  1
  8 31  1  0
  9 32  1  0
 10 33  1  0
 12 34  1  0
 13 35  1  0
 14 36  1  0
 15 37  1  0
 18 38  1  0
 19 39  1  0
 20 40  1  0
M  END
$$$$
OCNT-2328868
     RDKit          3D

 37 37  0  0  0  0  0  0  0  0999 V2000
   -2.9613   -1.5103   -2.0252 C   0  0  0  0  0  0  0  0  0  0  0  0
   -3.4741   -0.2990   -1.2510 C   0  0  0  0  0  0  0  0  0  0  0  0
   -3.0195   -0.2507    0.1491 N   0  0  0  0  0  0  0  0  0  0  0  0
   -3.6295    0.8672    0.8886 C   0  0  0  0  0  0  0  0  0  0  0  0
   -5.1124    0.6495    1.1733 C   0  0  0  0  0  0  0  0  0  0  0  0
   -1.5494   -0.2438    0.2912 C   0  0  0  0  0  0  0  0  0  0  0  0
   -0.7840    0.9357   -0.3329 C   0  0  0  0  0  0  0  0  0  0  0  0
    0.6184    0.8384   -0.0235 O   0  0  0  0  0  0  0  0  0  0  0  0
    1.3474    0.0713   -0.8678 C   0  0  0  0  0  0  0  0  0  0  0  0
    0.9320   -0.5807   -1.8105 O   0  0  0  0  0  0  0  0  0  0  0  0
    2.7455    0.0318   -0.4065 C   0  0  0  0  0  0  0  0  0  0  0  0
    3.3203   -1.2319   -0.2242 C   0  0  0  0  0  0  0  0  0  0  0  0
    4.6413   -1.3424    0.2170 C   0  0  0  0  0  0  0  0  0  0  0  0
    5.3924   -0.2019    0.5108 C   0  0  0  0  0  0  0  0  0  0  0  0
    6.7472   -0.3187    0.8350 N   0  0  0  0  0  0  0  0  0  0  0  0
    4.8363    1.0545    0.2501 C   0  0  0  0  0  0  0  0  0  0  0  0
    3.5132    1.1794   -0.1937 C   0  0  0  0  0  0  0  0  0  0  0  0
    2.9295    2.7734   -0.5193 Cl  0  0  0  0  0  0  0  0  0  0  0  0
   -1.8852   -1.4507   -2.2123 H   0  0  0  0  0  0  0  0  0  0  0  0
   -3.4582   -1.5658   -2.9997 H   0  0  0  0  0  0  0  0  0  0  0  0
   -3.1732   -2.4410   -1.4888 H   0  0  0  0  0  0  0  0  0  0  0  0
   -4.5672   -0.3651   -1.2751 H   0  0  0  0  0  0  0  0  0  0  0  0
   -3.2049    0.6179   -1.7887 H   0  0  0  0  0  0  0  0  0  0  0  0
   -3.1376    0.9703    1.8643 H   0  0  0  0  0  0  0  0  0  0  0  0
   -3.4918    1.8186    0.3606 H   0  0  0  0  0  0  0  0  0  0  0  0
   -5.2834   -0.3164    1.6602 H   0  0  0  0  0  0  0  0  0  0  0  0
   -5.4800    1.4320    1.8457 H   0  0  0  0  0  0  0  0  0  0  0  0
   -5.7170    0.6923    0.2629 H   0  0  0  0  0  0  0  0  0  0  0  0
   -1.1413   -1.1874   -0.0905 H   0  0  0  0  0  0  0  0  0  0  0  0
   -1.2992   -0.2881    1.3605 H   0  0  0  0  0  0  0  0  0  0  0  0
   -0.9318    1.0003   -1.4168 H   0  0  0  0  0  0  0  0  0  0  0  0
   -1.1255    1.8836    0.0950 H   0  0  0  0  0  0  0  0  0  0  0  0
    2.7457   -2.1320   -0.4351 H   0  0  0  0  0  0  0  0  0  0  0  0
    5.0803   -2.3313    0.3273 H   0  0  0  0  0  0  0  0  0  0  0  0
    6.9976   -1.1933    1.2868 H   0  0  0  0  0  0  0  0  0  0  0  0
    7.1378    0.4867    1.3151 H   0  0  0  0  0  0  0  0  0  0  0  0
    5.4420    1.9475    0.3845 H   0  0  0  0  0  0  0  0  0  0  0  0
  1  2  1  0
  2  3  1  0
  3  4  1  0
  4  5  1  0
  3  6  1  0
  6  7  1  0
  7  8  1  0
  8  9  1  0
  9 10  2  0
  9 11  1  0
 11 12  1  0
 12 13  2  0
 13 14  1  0
 14 15  1  0
 14 16  2  0
 16 17  1  0
 17 18  1  0
 17 11  2  0
  1 19  1  0
  1 20  1  0
  1 21  1  0
  2 22  1  0
  2 23  1  0
  4 24  1  0
  4 25  1  0
  5 26  1  0
  5 27  1  0
  5 28  1  0
  6 29  1  0
  6 30  1  0
  7 31  1  0
  7 32  1  0
 12 33  1  0
 13 34  1  0
 15 35  1  0
 15 36  1  0
 16 37  1  0
M  END
$$$$
OCNT-2328870
     RDKit          3D

 44 47  0  0  0  0  0  0  0  0999 V2000
    4.4098   -0.6901   -1.9336 C   0  0  0  0  0  0  0  0  0  0  0  0
    3.5988   -0.5468   -0.7263 N   0  0  0  0  0  0  0  0  0  0  0  0
    2.9707    0.7850   -0.6778 C   0  0  0  0  0  0  0  0  0  0  0  0
    2.1043    0.9807    0.5792 C   0  0  0  0  0  0  0  0  0  0  0  0
    1.0465   -0.1088    0.7058 C   0  0  0  0  0  0  0  0  0  0  0  0
   -0.2895    0.1123    0.8504 C   0  0  0  0  0  0  0  0  0  0  0  0
   -1.2226   -1.0397    0.8617 C   0  0  0  0  0  0  0  0  0  0  0  0
   -1.3241   -1.8826    1.9754 C   0  0  0  0  0  0  0  0  0  0  0  0
   -2.2144   -2.9559    1.9614 C   0  0  0  0  0  0  0  0  0  0  0  0
   -3.0130   -3.1842    0.8415 C   0  0  0  0  0  0  0  0  0  0  0  0
   -2.9326   -2.3351   -0.2639 C   0  0  0  0  0  0  0  0  0  0  0  0
   -2.0428   -1.2534   -0.2594 C   0  0  0  0  0  0  0  0  0  0  0  0
   -1.9745   -0.2921   -1.4201 C   0  0  0  0  0  0  0  0  0  0  0  0
   -2.5331    1.0900   -1.0576 C   0  0  0  0  0  0  0  0  0  0  0  0
   -1.8620    1.9202    0.0188 C   0  0  0  0  0  0  0  0  0  0  0  0
   -0.8516    1.4900    0.8915 C   0  0  0  0  0  0  0  0  0  0  0  0
   -0.3460    2.2806    1.8782 N   0  0  0  0  0  0  0  0  0  0  0  0
   -0.8278    3.5332    1.9974 C   0  0  0  0  0  0  0  0  0  0  0  0
   -1.8085    4.0546    1.1801 C   0  0  0  0  0  0  0  0  0  0  0  0
   -2.3306    3.2361    0.1860 C   0  0  0  0  0  0  0  0  0  0  0  0
    1.7009   -1.4810    0.5993 C   0  0  0  0  0  0  0  0  0  0  0  0
    2.5679   -1.5968   -0.6654 C   0  0  0  0  0  0  0  0  0  0  0  0
    5.2011    0.0674   -1.9571 H   0  0  0  0  0  0  0  0  0  0  0  0
    4.9086   -1.6655   -1.9478 H   0  0  0  0  0  0  0  0  0  0  0  0
    3.8139   -0.5945   -2.8484 H   0  0  0  0  0  0  0  0  0  0  0  0
    3.7522    1.5549   -0.6731 H   0  0  0  0  0  0  0  0  0  0  0  0
    2.3545    0.9542   -1.5717 H   0  0  0  0  0  0  0  0  0  0  0  0
    2.7402    0.9558    1.4736 H   0  0  0  0  0  0  0  0  0  0  0  0
    1.6831    1.9869    0.5218 H   0  0  0  0  0  0  0  0  0  0  0  0
   -0.7076   -1.7025    2.8531 H   0  0  0  0  0  0  0  0  0  0  0  0
   -2.2864   -3.6112    2.8253 H   0  0  0  0  0  0  0  0  0  0  0  0
   -3.7076   -4.0204    0.8335 H   0  0  0  0  0  0  0  0  0  0  0  0
   -3.5750   -2.5188   -1.1215 H   0  0  0  0  0  0  0  0  0  0  0  0
   -2.5549   -0.6931   -2.2609 H   0  0  0  0  0  0  0  0  0  0  0  0
   -0.9420   -0.2165   -1.7843 H   0  0  0  0  0  0  0  0  0  0  0  0
   -3.5855    0.9700   -0.7648 H   0  0  0  0  0  0  0  0  0  0  0  0
   -2.5269    1.6858   -1.9805 H   0  0  0  0  0  0  0  0  0  0  0  0
   -0.3892    4.1231    2.7967 H   0  0  0  0  0  0  0  0  0  0  0  0
   -2.1661    5.0683    1.3185 H   0  0  0  0  0  0  0  0  0  0  0  0
   -3.1180    3.6229   -0.4575 H   0  0  0  0  0  0  0  0  0  0  0  0
    0.9805   -2.3025    0.5796 H   0  0  0  0  0  0  0  0  0  0  0  0
    2.3244   -1.6385    1.4892 H   0  0  0  0  0  0  0  0  0  0  0  0
    1.9231   -1.5609   -1.5543 H   0  0  0  0  0  0  0  0  0  0  0  0
    3.0521   -2.5811   -0.6551 H   0  0  0  0  0  0  0  0  0  0  0  0
  1  2  1  0
  2  3  1  0
  3  4  1  0
  4  5  1  0
  5  6  2  3
  6  7  1  0
  7  8  2  0
  8  9  1  0
  9 10  2  0
 10 11  1  0
 11 12  2  0
 12 13  1  0
 13 14  1  0
 14 15  1  0
 15 16  2  0
 16 17  1  0
 17 18  2  0
 18 19  1  0
 19 20  2  0
  5 21  1  0
 21 22  1  0
 22  2  1  0
 16  6  1  0
 12  7  1  0
 20 15  1  0
  1 23  1  0
  1 24  1  0
  1 25  1  0
  3 26  1  0
  3 27  1  0
  4 28  1  0
  4 29  1  0
  8 30  1  0
  9 31  1  0
 10 32  1  0
 11 33  1  0
 13 34  1  0
 13 35  1  0
 14 36  1  0
 14 37  1  0
 18 38  1  0
 19 39  1  0
 20 40  1  0
 21 41  1  0
 21 42  1  0
 22 43  1  0
 22 44  1  0
M  END
$$$$
OCNT-2328890
     RDKit          3D

 22 22  0  0  0  0  0  0  0  0999 V2000
   -2.7189    0.9083   -1.3827 N   0  0  0  0  0  0  0  0  0  0  0  0
   -2.1946    0.8845   -0.0343 N   0  0  0  0  0  0  0  0  0  0  0  0
   -1.9758   -0.5108    0.3925 C   0  0  0  0  0  0  0  0  0  0  0  0
   -0.7872   -1.2153   -0.2849 C   0  0  0  0  0  0  0  0  0  0  0  0
    0.5509   -0.5846    0.0248 C   0  0  0  0  0  0  0  0  0  0  0  0
    1.1762   -0.8066    1.2590 C   0  0  0  0  0  0  0  0  0  0  0  0
    2.4045   -0.2091    1.5464 C   0  0  0  0  0  0  0  0  0  0  0  0
    3.0172    0.6161    0.6051 C   0  0  0  0  0  0  0  0  0  0  0  0
    2.4027    0.8451   -0.6245 C   0  0  0  0  0  0  0  0  0  0  0  0
    1.1750    0.2484   -0.9138 C   0  0  0  0  0  0  0  0  0  0  0  0
   -3.6667    0.5182   -1.4044 H   0  0  0  0  0  0  0  0  0  0  0  0
   -2.8378    1.8754   -1.7005 H   0  0  0  0  0  0  0  0  0  0  0  0
   -1.2922    1.3733    0.0267 H   0  0  0  0  0  0  0  0  0  0  0  0
   -2.8892   -1.0975    0.2309 H   0  0  0  0  0  0  0  0  0  0  0  0
   -1.8160   -0.4972    1.4776 H   0  0  0  0  0  0  0  0  0  0  0  0
   -0.9376   -1.2603   -1.3709 H   0  0  0  0  0  0  0  0  0  0  0  0
   -0.7594   -2.2612    0.0479 H   0  0  0  0  0  0  0  0  0  0  0  0
    0.7104   -1.4476    2.0040 H   0  0  0  0  0  0  0  0  0  0  0  0
    2.8836   -0.3877    2.5055 H   0  0  0  0  0  0  0  0  0  0  0  0
    3.9737    1.0805    0.8297 H   0  0  0  0  0  0  0  0  0  0  0  0
    2.8791    1.4889   -1.3591 H   0  0  0  0  0  0  0  0  0  0  0  0
    0.7022    0.4392   -1.8753 H   0  0  0  0  0  0  0  0  0  0  0  0
  1  2  1  0
  2  3  1  0
  3  4  1  0
  4  5  1  0
  5  6  2  0
  6  7  1  0
  7  8  2  0
  8  9  1  0
  9 10  2  0
 10  5  1  0
  1 11  1  0
  1 12  1  0
  2 13  1  0
  3 14  1  0
  3 15  1  0
  4 16  1  0
  4 17  1  0
  6 18  1  0
  7 19  1  0
  8 20  1  0
  9 21  1  0
 10 22  1  0
M  END
$$$$
OCNT-2328898
     RDKit          3D

 49 50  0  0  0  0  0  0  0  0999 V2000
   -5.4328   -1.8061   -0.2613 C   0  0  0  0  0  0  0  0  0  0  0  0
   -4.0536   -1.1694   -0.3983 C   0  0  0  0  0  0  0  0  0  0  0  0
   -3.8276   -0.0598    0.5292 N   0  0  0  0  0  0  0  0  0  0  0  0
   -4.7671    1.0651    0.4239 C   0  0  0  0  0  0  0  0  0  0  0  0
   -4.8090    1.8454   -0.8964 C   0  0  0  0  0  0  0  0  0  0  0  0
   -5.8538    2.8151   -0.8426 O   0  0  0  0  0  0  0  0  0  0  0  0
   -2.4216    0.3368    0.6677 C   0  0  0  0  0  0  0  0  0  0  0  0
   -1.6009    0.4668   -0.6223 C   0  0  0  0  0  0  0  0  0  0  0  0
   -0.1981    1.0575   -0.4091 C   0  0  0  0  0  0  0  0  0  0  0  0
    0.7401    0.1825    0.4553 C   0  0  0  0  0  0  0  0  0  0  0  0
    0.7816    0.6751    1.9049 C   0  0  0  0  0  0  0  0  0  0  0  0
    2.0862    0.2715   -0.1248 N   0  0  0  0  0  0  0  0  0  0  0  0
    3.1098   -0.6541    0.1375 C   0  0  0  0  0  0  0  0  0  0  0  0
    2.8685   -1.8648    0.7884 C   0  0  0  0  0  0  0  0  0  0  0  0
    3.9139   -2.7456    0.9920 C   0  0  0  0  0  0  0  0  0  0  0  0
    5.1741   -2.5271    0.5768 N   0  0  0  0  0  0  0  0  0  0  0  0
    5.4206   -1.3995   -0.1011 C   0  0  0  0  0  0  0  0  0  0  0  0
    6.7146   -1.2016   -0.5586 C   0  0  0  0  0  0  0  0  0  0  0  0
    7.0574   -0.0717   -1.2943 C   0  0  0  0  0  0  0  0  0  0  0  0
    8.6733    0.1350   -1.8476 Cl  0  0  0  0  0  0  0  0  0  0  0  0
    6.1001    0.8855   -1.5922 C   0  0  0  0  0  0  0  0  0  0  0  0
    4.7938    0.7077   -1.1367 C   0  0  0  0  0  0  0  0  0  0  0  0
    4.4248   -0.4273   -0.3708 C   0  0  0  0  0  0  0  0  0  0  0  0
   -6.2268   -1.1341   -0.6009 H   0  0  0  0  0  0  0  0  0  0  0  0
   -5.4869   -2.7121   -0.8741 H   0  0  0  0  0  0  0  0  0  0  0  0
   -5.6358   -2.0915    0.7762 H   0  0  0  0  0  0  0  0  0  0  0  0
   -3.3195   -1.9586   -0.1913 H   0  0  0  0  0  0  0  0  0  0  0  0
   -3.9035   -0.8607   -1.4391 H   0  0  0  0  0  0  0  0  0  0  0  0
   -4.5722    1.7758    1.2390 H   0  0  0  0  0  0  0  0  0  0  0  0
   -5.7808    0.7114    0.6512 H   0  0  0  0  0  0  0  0  0  0  0  0
   -3.8721    2.3814   -1.0661 H   0  0  0  0  0  0  0  0  0  0  0  0
   -5.0086    1.1847   -1.7446 H   0  0  0  0  0  0  0  0  0  0  0  0
   -5.8619    3.2715   -1.7013 H   0  0  0  0  0  0  0  0  0  0  0  0
   -2.3519    1.2665    1.2462 H   0  0  0  0  0  0  0  0  0  0  0  0
   -1.9479   -0.4289    1.2941 H   0  0  0  0  0  0  0  0  0  0  0  0
   -2.1221    1.1078   -1.3394 H   0  0  0  0  0  0  0  0  0  0  0  0
   -1.4959   -0.5136   -1.1027 H   0  0  0  0  0  0  0  0  0  0  0  0
   -0.2832    2.0672    0.0120 H   0  0  0  0  0  0  0  0  0  0  0  0
    0.2384    1.1860   -1.4092 H   0  0  0  0  0  0  0  0  0  0  0  0
    0.3777   -0.8497    0.4137 H   0  0  0  0  0  0  0  0  0  0  0  0
    1.1654    1.7001    1.9637 H   0  0  0  0  0  0  0  0  0  0  0  0
   -0.2088    0.6615    2.3663 H   0  0  0  0  0  0  0  0  0  0  0  0
    1.4369    0.0491    2.5192 H   0  0  0  0  0  0  0  0  0  0  0  0
    2.4365    1.2263   -0.1291 H   0  0  0  0  0  0  0  0  0  0  0  0
    1.8913   -2.1416    1.1613 H   0  0  0  0  0  0  0  0  0  0  0  0
    3.7563   -3.6855    1.5136 H   0  0  0  0  0  0  0  0  0  0  0  0
    7.4672   -1.9547   -0.3384 H   0  0  0  0  0  0  0  0  0  0  0  0
    6.3564    1.7639   -2.1781 H   0  0  0  0  0  0  0  0  0  0  0  0
    4.0576    1.4608   -1.4037 H   0  0  0  0  0  0  0  0  0  0  0  0
  1  2  1  0
  2  3  1  0
  3  4  1  0
  4  5  1  0
  5  6  1  0
  3  7  1  0
  7  8  1  0
  8  9  1  0
  9 10  1  0
 10 11  1  0
 10 12  1  0
 12 13  1  0
 13 14  2  0
 14 15  1  0
 15 16  2  0
 16 17  1  0
 17 18  2  0
 18 19  1  0
 19 20  1  0
 19 21  2  0
 21 22  1  0
 22 23  2  0
 23 13  1  0
 23 17  1  0
  1 24  1  0
  1 25  1  0
  1 26  1  0
  2 27  1  0
  2 28  1  0
  4 29  1  0
  4 30  1  0
  5 31  1  0
  5 32  1  0
  6 33  1  0
  7 34  1  0
  7 35  1  0
  8 36  1  0
  8 37  1  0
  9 38  1  0
  9 39  1  0
 10 40  1  0
 11 41  1  0
 11 42  1  0
 11 43  1  0
 12 44  1  0
 14 45  1  0
 15 46  1  0
 18 47  1  0
 21 48  1  0
 22 49  1  0
M  END
$$$$
OCNT-2328911
     RDKit          3D

 39 41  0  0  0  0  0  0  0  0999 V2000
   -2.2355   -2.2975    1.1050 C   0  0  0  0  0  0  0  0  0  0  0  0
   -1.5876   -0.9389    1.1564 C   0  0  0  0  0  0  0  0  0  0  0  0
   -2.3251    0.1841    0.7275 C   0  0  0  0  0  0  0  0  0  0  0  0
   -3.6042   -0.0736    0.3037 O   0  0  0  0  0  0  0  0  0  0  0  0
   -4.4034    1.0314   -0.1321 C   0  0  0  0  0  0  0  0  0  0  0  0
   -5.7862    0.5559   -0.5519 C   0  0  0  0  0  0  0  0  0  0  0  0
   -6.5369    1.6082   -0.9591 F   0  0  0  0  0  0  0  0  0  0  0  0
   -5.7275   -0.3171   -1.5808 F   0  0  0  0  0  0  0  0  0  0  0  0
   -6.4453   -0.0368    0.4673 F   0  0  0  0  0  0  0  0  0  0  0  0
   -1.7436    1.4471    0.7512 C   0  0  0  0  0  0  0  0  0  0  0  0
   -0.4439    1.5542    1.2001 C   0  0  0  0  0  0  0  0  0  0  0  0
    0.2916    0.5062    1.6124 N   0  0  0  0  0  0  0  0  0  0  0  0
   -0.2677   -0.7323    1.5848 C   0  0  0  0  0  0  0  0  0  0  0  0
    0.6474   -1.8404    2.0459 C   0  0  0  0  0  0  0  0  0  0  0  0
    1.4424   -2.7704    0.6985 S   0  0  0  0  0  4  0  0  0  0  0  0
    0.4304   -3.0589   -0.3752 O   0  0  0  0  0  0  0  0  0  0  0  0
    2.4680   -1.4343    0.0669 C   0  0  0  0  0  0  0  0  0  0  0  0
    3.5459   -0.9691    0.6590 N   0  0  0  0  0  0  0  0  0  0  0  0
    3.9933    0.0358   -0.1659 C   0  0  0  0  0  0  0  0  0  0  0  0
    5.1004    0.8848   -0.0238 C   0  0  0  0  0  0  0  0  0  0  0  0
    5.3477    1.8396   -1.0187 C   0  0  0  0  0  0  0  0  0  0  0  0
    4.5106    1.9470   -2.1325 C   0  0  0  0  0  0  0  0  0  0  0  0
    3.4007    1.1092   -2.2930 C   0  0  0  0  0  0  0  0  0  0  0  0
    3.1779    0.1673   -1.2869 C   0  0  0  0  0  0  0  0  0  0  0  0
    2.2159   -0.7915   -1.1133 N   0  0  0  0  0  0  0  0  0  0  0  0
   -3.1975   -2.2779    1.6290 H   0  0  0  0  0  0  0  0  0  0  0  0
   -1.6424   -3.0803    1.5811 H   0  0  0  0  0  0  0  0  0  0  0  0
   -2.4017   -2.5921    0.0635 H   0  0  0  0  0  0  0  0  0  0  0  0
   -4.5173    1.7523    0.6857 H   0  0  0  0  0  0  0  0  0  0  0  0
   -3.9269    1.5176   -0.9911 H   0  0  0  0  0  0  0  0  0  0  0  0
   -2.2567    2.3457    0.4368 H   0  0  0  0  0  0  0  0  0  0  0  0
    0.0606    2.5157    1.2408 H   0  0  0  0  0  0  0  0  0  0  0  0
    1.4444   -1.4292    2.6771 H   0  0  0  0  0  0  0  0  0  0  0  0
    0.1085   -2.5512    2.6794 H   0  0  0  0  0  0  0  0  0  0  0  0
    5.7459    0.7963    0.8427 H   0  0  0  0  0  0  0  0  0  0  0  0
    6.2033    2.5036   -0.9204 H   0  0  0  0  0  0  0  0  0  0  0  0
    4.7264    2.6965   -2.8915 H   0  0  0  0  0  0  0  0  0  0  0  0
    2.7518    1.1918   -3.1579 H   0  0  0  0  0  0  0  0  0  0  0  0
    1.4364   -0.9985   -1.7213 H   0  0  0  0  0  0  0  0  0  0  0  0
  1  2  1  0
  2  3  1  0
  3  4  1  0
  4  5  1  0
  5  6  1  0
  6  7  1  0
  6  8  1  0
  6  9  1  0
  3 10  2  0
 10 11  1  0
 11 12  2  0
 12 13  1  0
 13 14  1  0
 15 14  1  1
 15 16  2  0
 15 17  1  0
 17 18  2  0
 18 19  1  0
 19 20  2  0
 20 21  1  0
 21 22  2  0
 22 23  1  0
 23 24  2  0
 24 25  1  0
 13  2  2  0
 25 17  1  0
 24 19  1  0
  1 26  1  0
  1 27  1  0
  1 28  1  0
  5 29  1  0
  5 30  1  0
 10 31  1  0
 11 32  1  0
 14 33  1  0
 14 34  1  0
 20 35  1  0
 21 36  1  0
 22 37  1  0
 23 38  1  0
 25 39  1  0
M  END
$$$$
OCNT-2328914
     RDKit          3D

 52 54  0  0  0  0  0  0  0  0999 V2000
   -5.6472    2.7484   -1.6516 N   0  0  0  0  0  0  0  0  0  0  0  0
   -6.1718    1.5986   -1.2038 C   0  0  0  0  0  0  0  0  0  0  0  0
   -5.5602    0.4447   -1.3152 N   0  0  0  0  0  0  0  0  0  0  0  0
   -6.3475   -0.5701   -0.7780 C   0  0  0  0  0  0  0  0  0  0  0  0
   -5.8334   -1.9710   -0.8370 C   0  0  0  0  0  0  0  0  0  0  0  0
   -4.6703   -2.2105    0.1152 C   0  0  0  0  0  0  0  0  0  0  0  0
   -4.6550   -3.2078    0.8330 O   0  0  0  0  0  0  0  0  0  0  0  0
   -3.6756   -1.2541    0.0235 N   0  0  0  0  0  0  0  0  0  0  0  0
   -2.4361   -1.2198    0.6873 C   0  0  0  0  0  0  0  0  0  0  0  0
   -1.9673   -2.2347    1.5194 C   0  0  0  0  0  0  0  0  0  0  0  0
   -0.7050   -2.1352    2.1173 C   0  0  0  0  0  0  0  0  0  0  0  0
    0.1106   -1.0180    1.8944 C   0  0  0  0  0  0  0  0  0  0  0  0
    1.4788   -0.9266    2.5272 C   0  0  0  0  0  0  0  0  0  0  0  0
    2.5049   -1.9237    1.9602 C   0  0  0  0  0  0  0  0  0  0  0  0
    2.8272   -1.7778    0.5298 N   0  0  0  0  0  0  0  0  0  0  0  0
    3.9099   -0.8035    0.2647 C   0  0  0  0  0  0  0  0  0  0  0  0
    3.3792    0.6242   -0.0092 C   0  0  2  0  0  0  0  0  0  0  0  0
    2.2827    0.5275   -0.9267 O   0  0  0  0  0  0  0  0  0  0  0  0
    4.4627    1.5454   -0.5341 C   0  0  0  0  0  0  0  0  0  0  0  0
    4.4586    2.0196   -1.8565 C   0  0  0  0  0  0  0  0  0  0  0  0
    5.4727    2.8626   -2.3186 C   0  0  0  0  0  0  0  0  0  0  0  0
    6.5062    3.2440   -1.4658 C   0  0  0  0  0  0  0  0  0  0  0  0
    6.5233    2.7872   -0.1485 C   0  0  0  0  0  0  0  0  0  0  0  0
    5.5085    1.9461    0.3150 C   0  0  0  0  0  0  0  0  0  0  0  0
   -0.3715    0.0086    1.0771 C   0  0  0  0  0  0  0  0  0  0  0  0
   -1.6292   -0.0964    0.4740 C   0  0  0  0  0  0  0  0  0  0  0  0
   -7.5449   -0.1432   -0.2391 C   0  0  0  0  0  0  0  0  0  0  0  0
   -7.6974    1.5540   -0.4208 S   0  0  0  0  0  0  0  0  0  0  0  0
   -5.9651    3.6107   -1.2273 H   0  0  0  0  0  0  0  0  0  0  0  0
   -4.6553    2.7315   -1.8536 H   0  0  0  0  0  0  0  0  0  0  0  0
   -5.4949   -2.2002   -1.8538 H   0  0  0  0  0  0  0  0  0  0  0  0
   -6.6351   -2.6766   -0.5890 H   0  0  0  0  0  0  0  0  0  0  0  0
   -3.8895   -0.4595   -0.5805 H   0  0  0  0  0  0  0  0  0  0  0  0
   -2.5522   -3.1276    1.7136 H   0  0  0  0  0  0  0  0  0  0  0  0
   -0.3649   -2.9478    2.7554 H   0  0  0  0  0  0  0  0  0  0  0  0
    1.3621   -1.1215    3.6018 H   0  0  0  0  0  0  0  0  0  0  0  0
    1.8604    0.0966    2.4648 H   0  0  0  0  0  0  0  0  0  0  0  0
    2.1019   -2.9361    2.0922 H   0  0  0  0  0  0  0  0  0  0  0  0
    3.4192   -1.8953    2.5658 H   0  0  0  0  0  0  0  0  0  0  0  0
    3.1566   -2.6893    0.2023 H   0  0  0  0  0  0  0  0  0  0  0  0
    4.4119   -1.1528   -0.6473 H   0  0  0  0  0  0  0  0  0  0  0  0
    4.6729   -0.8130    1.0519 H   0  0  0  0  0  0  0  0  0  0  0  0
    2.9781    1.0691    0.9055 H   0  0  0  0  0  0  0  0  0  0  0  0
    1.8637   -0.3316   -0.7035 H   0  0  0  0  0  0  0  0  0  0  0  0
    3.6577    1.7363   -2.5367 H   0  0  0  0  0  0  0  0  0  0  0  0
    5.4529    3.2179   -3.3450 H   0  0  0  0  0  0  0  0  0  0  0  0
    7.2949    3.8988   -1.8277 H   0  0  0  0  0  0  0  0  0  0  0  0
    7.3276    3.0852    0.5168 H   0  0  0  0  0  0  0  0  0  0  0  0
    5.5397    1.6046    1.3470 H   0  0  0  0  0  0  0  0  0  0  0  0
    0.2291    0.8962    0.8895 H   0  0  0  0  0  0  0  0  0  0  0  0
   -1.9646    0.7144   -0.1685 H   0  0  0  0  0  0  0  0  0  0  0  0
   -8.3195   -0.7288    0.2363 H   0  0  0  0  0  0  0  0  0  0  0  0
  1  2  1  0
  2  3  2  0
  3  4  1  0
  4  5  1  0
  5  6  1  0
  6  7  2  0
  6  8  1  0
  8  9  1  0
  9 10  1  0
 10 11  2  0
 11 12  1  0
 12 13  1  0
 13 14  1  0
 14 15  1  0
 15 16  1  0
 16 17  1  0
 17 18  1  0
 17 19  1  0
 19 20  2  0
 20 21  1  0
 21 22  2  0
 22 23  1  0
 23 24  2  0
 12 25  2  0
 25 26  1  0
  4 27  2  0
 27 28  1  0
 28  2  1  0
 26  9  2  0
 24 19  1  0
  1 29  1  0
  1 30  1  0
  5 31  1  0
  5 32  1  0
  8 33  1  0
 10 34  1  0
 11 35  1  0
 13 36  1  0
 13 37  1  0
 14 38  1  0
 14 39  1  0
 15 40  1  0
 16 41  1  0
 16 42  1  0
 17 43  1  1
 18 44  1  0
 20 45  1  0
 21 46  1  0
 22 47  1  0
 23 48  1  0
 24 49  1  0
 25 50  1  0
 26 51  1  0
 27 52  1  0
M  END
$$$$
OCNT-2328916
     RDKit          3D

 51 53  0  0  0  0  0  0  0  0999 V2000
   -1.1065    1.9902   -0.6995 C   0  0  0  0  0  0  0  0  0  0  0  0
   -1.3594    1.2337    0.5234 N   0  0  0  0  0  0  0  0  0  0  0  0
   -0.2986    1.4039    1.5286 C   0  0  0  0  0  0  0  0  0  0  0  0
    1.0716    0.8618    1.1802 C   0  0  0  0  0  0  0  0  0  0  0  0
    2.0055    1.6519    0.5042 C   0  0  0  0  0  0  0  0  0  0  0  0
    3.2693    1.1460    0.1816 C   0  0  0  0  0  0  0  0  0  0  0  0
    3.6490   -0.1653    0.5247 C   0  0  0  0  0  0  0  0  0  0  0  0
    5.0474   -0.6874    0.1520 C   0  0  0  0  0  0  0  0  0  0  0  0
    5.3088   -2.1448    0.5951 C   0  0  0  0  0  0  0  0  0  0  0  0
    5.2287   -0.6375   -1.3806 C   0  0  0  0  0  0  0  0  0  0  0  0
    6.1255    0.1931    0.8200 C   0  0  0  0  0  0  0  0  0  0  0  0
    2.7048   -0.9456    1.2098 C   0  0  0  0  0  0  0  0  0  0  0  0
    1.4390   -0.4410    1.5337 C   0  0  0  0  0  0  0  0  0  0  0  0
   -1.6652   -0.1788    0.2572 C   0  0  0  0  0  0  0  0  0  0  0  0
   -2.9785   -0.3974   -0.4815 C   0  0  0  0  0  0  0  0  0  0  0  0
   -2.9146   -0.8507   -1.8133 C   0  0  0  0  0  0  0  0  0  0  0  0
   -4.0735   -1.0867   -2.5440 C   0  0  0  0  0  0  0  0  0  0  0  0
   -5.3168   -0.8755   -1.9560 C   0  0  0  0  0  0  0  0  0  0  0  0
   -5.4209   -0.4222   -0.6329 C   0  0  0  0  0  0  0  0  0  0  0  0
   -6.6871   -0.2157   -0.0597 C   0  0  0  0  0  0  0  0  0  0  0  0
   -6.8172    0.2372    1.2518 C   0  0  0  0  0  0  0  0  0  0  0  0
   -5.6809    0.4919    2.0068 C   0  0  0  0  0  0  0  0  0  0  0  0
   -4.4153    0.2902    1.4506 C   0  0  0  0  0  0  0  0  0  0  0  0
   -4.2478   -0.1720    0.1249 C   0  0  0  0  0  0  0  0  0  0  0  0
   -2.0052    2.0391   -1.3234 H   0  0  0  0  0  0  0  0  0  0  0  0
   -0.2996    1.5600   -1.3025 H   0  0  0  0  0  0  0  0  0  0  0  0
   -0.8489    3.0299   -0.4675 H   0  0  0  0  0  0  0  0  0  0  0  0
   -0.2038    2.4709    1.7730 H   0  0  0  0  0  0  0  0  0  0  0  0
   -0.6283    0.9490    2.4728 H   0  0  0  0  0  0  0  0  0  0  0  0
    1.7573    2.6724    0.2211 H   0  0  0  0  0  0  0  0  0  0  0  0
    3.9594    1.8003   -0.3469 H   0  0  0  0  0  0  0  0  0  0  0  0
    4.5997   -2.8407    0.1319 H   0  0  0  0  0  0  0  0  0  0  0  0
    5.2349   -2.2552    1.6832 H   0  0  0  0  0  0  0  0  0  0  0  0
    6.3153   -2.4710    0.3063 H   0  0  0  0  0  0  0  0  0  0  0  0
    6.2056   -1.0376   -1.6763 H   0  0  0  0  0  0  0  0  0  0  0  0
    4.4581   -1.2294   -1.8885 H   0  0  0  0  0  0  0  0  0  0  0  0
    5.1698    0.3840   -1.7721 H   0  0  0  0  0  0  0  0  0  0  0  0
    7.1327   -0.1787    0.5982 H   0  0  0  0  0  0  0  0  0  0  0  0
    6.0063    0.2037    1.9100 H   0  0  0  0  0  0  0  0  0  0  0  0
    6.0846    1.2320    0.4748 H   0  0  0  0  0  0  0  0  0  0  0  0
    2.9251   -1.9656    1.5121 H   0  0  0  0  0  0  0  0  0  0  0  0
    0.7401   -1.0804    2.0690 H   0  0  0  0  0  0  0  0  0  0  0  0
   -1.7361   -0.7397    1.1989 H   0  0  0  0  0  0  0  0  0  0  0  0
   -0.8476   -0.6526   -0.3022 H   0  0  0  0  0  0  0  0  0  0  0  0
   -1.9504   -1.0200   -2.2884 H   0  0  0  0  0  0  0  0  0  0  0  0
   -4.0093   -1.4355   -3.5711 H   0  0  0  0  0  0  0  0  0  0  0  0
   -6.2119   -1.0671   -2.5436 H   0  0  0  0  0  0  0  0  0  0  0  0
   -7.5890   -0.4065   -0.6372 H   0  0  0  0  0  0  0  0  0  0  0  0
   -7.8038    0.3939    1.6789 H   0  0  0  0  0  0  0  0  0  0  0  0
   -5.7723    0.8523    3.0278 H   0  0  0  0  0  0  0  0  0  0  0  0
   -3.5498    0.5134    2.0696 H   0  0  0  0  0  0  0  0  0  0  0  0
  1  2  1  0
  2  3  1  0
  3  4  1  0
  4  5  1  0
  5  6  2  0
  6  7  1  0
  7  8  1  0
  8  9  1  0
  8 10  1  0
  8 11  1  0
  7 12  2  0
 12 13  1  0
  2 14  1  0
 14 15  1  0
 15 16  2  0
 16 17  1  0
 17 18  2  0
 18 19  1  0
 19 20  2  0
 20 21  1  0
 21 22  2  0
 22 23  1  0
 23 24  2  0
 13  4  2  0
 24 15  1  0
 24 19  1  0
  1 25  1  0
  1 26  1  0
  1 27  1  0
  3 28  1  0
  3 29  1  0
  5 30  1  0
  6 31  1  0
  9 32  1  0
  9 33  1  0
  9 34  1  0
 10 35  1  0
 10 36  1  0
 10 37  1  0
 11 38  1  0
 11 39  1  0
 11 40  1  0
 12 41  1  0
 13 42  1  0
 14 43  1  0
 14 44  1  0
 16 45  1  0
 17 46  1  0
 18 47  1  0
 20 48  1  0
 21 49  1  0
 22 50  1  0
 23 51  1  0
M  END
$$$$
OCNT-2328919
     RDKit          3D

 87 92  0  0  0  0  0  0  0  0999 V2000
    5.1782    1.5722   -1.9123 O   0  0  0  0  0  0  0  0  0  0  0  0
    4.8588    1.9297   -0.7869 C   0  0  0  0  0  0  0  0  0  0  0  0
    3.6087    1.7229   -0.2385 N   0  0  0  0  0  0  0  0  0  0  0  0
    2.6069    0.8973   -0.9082 C   0  0  0  0  0  0  0  0  0  0  0  0
    1.2004    1.3496   -0.5001 C   0  0  0  0  0  0  0  0  0  0  0  0
    0.2217    0.1763   -0.4999 C   0  0  0  0  0  0  0  0  0  0  0  0
    0.5896   -0.8429    0.4993 N   0  0  0  0  0  0  0  0  0  0  0  0
   -0.1294   -2.1120    0.2942 C   0  0  0  0  0  0  0  0  0  0  0  0
   -1.4539   -2.2126    1.0687 C   0  0  0  0  0  0  0  0  0  0  0  0
   -2.5947   -1.3367    0.5463 C   0  0  0  0  0  0  0  0  0  0  0  0
   -3.9179   -1.6827    1.2523 C   0  0  0  0  0  0  0  0  0  0  0  0
   -5.1647   -0.8912    0.7788 C   0  0  0  0  0  0  0  0  0  0  0  0
   -6.4033   -1.2984    1.6260 C   0  0  0  0  0  0  0  0  0  0  0  0
   -6.3678   -2.1736    2.4906 O   0  0  0  0  0  0  0  0  0  0  0  0
   -7.5770   -0.6194    1.3512 N   0  0  0  0  0  0  0  0  0  0  0  0
   -8.8424   -1.0422    1.9477 C   0  0  0  0  0  0  0  0  0  0  0  0
   -9.5546   -2.1818    1.2137 C   0  0  0  0  0  0  0  0  0  0  0  0
   -9.8869   -1.7993   -0.0448 F   0  0  0  0  0  0  0  0  0  0  0  0
  -10.7036   -2.5117    1.8500 F   0  0  0  0  0  0  0  0  0  0  0  0
   -8.8023   -3.2991    1.1166 F   0  0  0  0  0  0  0  0  0  0  0  0
   -4.9478    0.6290    0.8242 C   0  0  0  0  0  0  0  0  0  0  0  0
   -4.6512    1.4273    1.9203 C   0  0  0  0  0  0  0  0  0  0  0  0
   -4.4990    2.7993    1.7127 C   0  0  0  0  0  0  0  0  0  0  0  0
   -4.6459    3.3519    0.4297 C   0  0  0  0  0  0  0  0  0  0  0  0
   -4.9491    2.5436   -0.6705 C   0  0  0  0  0  0  0  0  0  0  0  0
   -5.0985    1.1817   -0.4683 C   0  0  0  0  0  0  0  0  0  0  0  0
   -5.4126    0.1236   -1.4053 C   0  0  0  0  0  0  0  0  0  0  0  0
   -5.6628    0.1750   -2.7668 C   0  0  0  0  0  0  0  0  0  0  0  0
   -5.9606   -1.0176   -3.4345 C   0  0  0  0  0  0  0  0  0  0  0  0
   -6.0087   -2.2398   -2.7433 C   0  0  0  0  0  0  0  0  0  0  0  0
   -5.7576   -2.2938   -1.3717 C   0  0  0  0  0  0  0  0  0  0  0  0
   -5.4579   -1.1085   -0.7145 C   0  0  0  0  0  0  0  0  0  0  0  0
    2.0473   -1.0317    0.6130 C   0  0  0  0  0  0  0  0  0  0  0  0
    2.8340   -0.5933   -0.6206 C   0  0  0  0  0  0  0  0  0  0  0  0
    5.8166    2.6400    0.1047 C   0  0  0  0  0  0  0  0  0  0  0  0
    5.3805    3.8185    0.7369 C   0  0  0  0  0  0  0  0  0  0  0  0
    6.2374    4.5243    1.5794 C   0  0  0  0  0  0  0  0  0  0  0  0
    7.5316    4.0592    1.7932 C   0  0  0  0  0  0  0  0  0  0  0  0
    7.9717    2.8921    1.1628 C   0  0  0  0  0  0  0  0  0  0  0  0
    7.1263    2.1602    0.3074 C   0  0  0  0  0  0  0  0  0  0  0  0
    7.6405    0.9289   -0.3061 C   0  0  0  0  0  0  0  0  0  0  0  0
    8.3770    0.9822   -1.4993 C   0  0  0  0  0  0  0  0  0  0  0  0
    8.8743   -0.1845   -2.0876 C   0  0  0  0  0  0  0  0  0  0  0  0
    8.6419   -1.4344   -1.4957 C   0  0  0  0  0  0  0  0  0  0  0  0
    9.1815   -2.6983   -2.1199 C   0  0  0  0  0  0  0  0  0  0  0  0
    8.3046   -3.7406   -2.0543 F   0  0  0  0  0  0  0  0  0  0  0  0
   10.3178   -3.1319   -1.5073 F   0  0  0  0  0  0  0  0  0  0  0  0
    9.4994   -2.5634   -3.4382 F   0  0  0  0  0  0  0  0  0  0  0  0
    7.9179   -1.4885   -0.2948 C   0  0  0  0  0  0  0  0  0  0  0  0
    7.4211   -0.3204    0.2927 C   0  0  0  0  0  0  0  0  0  0  0  0
    3.4977    1.8803    0.7552 H   0  0  0  0  0  0  0  0  0  0  0  0
    2.7296    1.0514   -1.9884 H   0  0  0  0  0  0  0  0  0  0  0  0
    0.8530    2.1259   -1.1939 H   0  0  0  0  0  0  0  0  0  0  0  0
    1.2043    1.8160    0.4958 H   0  0  0  0  0  0  0  0  0  0  0  0
   -0.7726    0.5751   -0.2855 H   0  0  0  0  0  0  0  0  0  0  0  0
    0.1852   -0.2505   -1.5122 H   0  0  0  0  0  0  0  0  0  0  0  0
   -0.2841   -2.3261   -0.7709 H   0  0  0  0  0  0  0  0  0  0  0  0
    0.4755   -2.9492    0.6704 H   0  0  0  0  0  0  0  0  0  0  0  0
   -1.2762   -1.9846    2.1277 H   0  0  0  0  0  0  0  0  0  0  0  0
   -1.7747   -3.2627    1.0299 H   0  0  0  0  0  0  0  0  0  0  0  0
   -2.6912   -1.4739   -0.5362 H   0  0  0  0  0  0  0  0  0  0  0  0
   -2.3603   -0.2871    0.7370 H   0  0  0  0  0  0  0  0  0  0  0  0
   -3.7793   -1.5220    2.3308 H   0  0  0  0  0  0  0  0  0  0  0  0
   -4.1059   -2.7593    1.1325 H   0  0  0  0  0  0  0  0  0  0  0  0
   -7.6074   -0.0390    0.5177 H   0  0  0  0  0  0  0  0  0  0  0  0
   -8.6619   -1.3406    2.9847 H   0  0  0  0  0  0  0  0  0  0  0  0
   -9.4881   -0.1594    1.9637 H   0  0  0  0  0  0  0  0  0  0  0  0
   -4.5376    1.0033    2.9134 H   0  0  0  0  0  0  0  0  0  0  0  0
   -4.2639    3.4483    2.5534 H   0  0  0  0  0  0  0  0  0  0  0  0
   -4.5189    4.4231    0.2911 H   0  0  0  0  0  0  0  0  0  0  0  0
   -5.0591    2.9836   -1.6564 H   0  0  0  0  0  0  0  0  0  0  0  0
   -5.6330    1.1121   -3.3137 H   0  0  0  0  0  0  0  0  0  0  0  0
   -6.1605   -0.9984   -4.5032 H   0  0  0  0  0  0  0  0  0  0  0  0
   -6.2501   -3.1526   -3.2847 H   0  0  0  0  0  0  0  0  0  0  0  0
   -5.8044   -3.2394   -0.8390 H   0  0  0  0  0  0  0  0  0  0  0  0
    2.3177   -2.0630    0.8674 H   0  0  0  0  0  0  0  0  0  0  0  0
    2.3837   -0.4345    1.4709 H   0  0  0  0  0  0  0  0  0  0  0  0
    2.5026   -1.1881   -1.4822 H   0  0  0  0  0  0  0  0  0  0  0  0
    3.8996   -0.8140   -0.4843 H   0  0  0  0  0  0  0  0  0  0  0  0
    4.3786    4.2016    0.5572 H   0  0  0  0  0  0  0  0  0  0  0  0
    5.9005    5.4424    2.0579 H   0  0  0  0  0  0  0  0  0  0  0  0
    8.2049    4.6075    2.4479 H   0  0  0  0  0  0  0  0  0  0  0  0
    8.9889    2.5464    1.3454 H   0  0  0  0  0  0  0  0  0  0  0  0
    8.5510    1.9398   -1.9888 H   0  0  0  0  0  0  0  0  0  0  0  0
    9.4344   -0.1107   -3.0178 H   0  0  0  0  0  0  0  0  0  0  0  0
    7.7295   -2.4466    0.1869 H   0  0  0  0  0  0  0  0  0  0  0  0
    6.8574   -0.3897    1.2209 H   0  0  0  0  0  0  0  0  0  0  0  0
  1  2  2  0
  2  3  1  0
  3  4  1  0
  4  5  1  0
  5  6  1  0
  6  7  1  0
  7  8  1  0
  8  9  1  0
  9 10  1  0
 10 11  1  0
 11 12  1  0
 12 13  1  0
 13 14  2  0
 13 15  1  0
 15 16  1  0
 16 17  1  0
 17 18  1  0
 17 19  1  0
 17 20  1  0
 12 21  1  0
 21 22  2  0
 22 23  1  0
 23 24  2  0
 24 25  1  0
 25 26  2  0
 26 27  1  0
 27 28  2  0
 28 29  1  0
 29 30  2  0
 30 31  1  0
 31 32  2  0
  7 33  1  0
 33 34  1  0
  2 35  1  0
 35 36  2  0
 36 37  1  0
 37 38  2  0
 38 39  1  0
 39 40  2  0
 40 41  1  0
 41 42  1  0
 42 43  2  0
 43 44  1  0
 44 45  1  0
 45 46  1  0
 45 47  1  0
 45 48  1  0
 44 49  2  0
 49 50  1  0
 34  4  1  0
 40 35  1  0
 50 41  2  0
 32 12  1  0
 26 21  1  0
 32 27  1  0
  3 51  1  0
  4 52  1  0
  5 53  1  0
  5 54  1  0
  6 55  1  0
  6 56  1  0
  8 57  1  0
  8 58  1  0
  9 59  1  0
  9 60  1  0
 10 61  1  0
 10 62  1  0
 11 63  1  0
 11 64  1  0
 15 65  1  0
 16 66  1  0
 16 67  1  0
 22 68  1  0
 23 69  1  0
 24 70  1  0
 25 71  1  0
 28 72  1  0
 29 73  1  0
 30 74  1  0
 31 75  1  0
 33 76  1  0
 33 77  1  0
 34 78  1  0
 34 79  1  0
 36 80  1  0
 37 81  1  0
 38 82  1  0
 39 83  1  0
 42 84  1  0
 43 85  1  0
 49 86  1  0
 50 87  1  0
M  END
$$$$
OCNT-2328942
     RDKit          3D

119127  0  0  0  0  0  0  0  0999 V2000
  -11.6480   -1.5817   -4.0929 C   0  0  0  0  0  0  0  0  0  0  0  0
  -11.3939   -0.2406   -3.6989 O   0  0  0  0  0  0  0  0  0  0  0  0
  -10.0137    0.1154   -3.7545 C   0  0  0  0  0  0  0  0  0  0  0  0
   -9.2334   -0.4572   -2.5786 C   0  0  1  0  0  0  0  0  0  0  0  0
   -7.7526   -0.1127   -2.6011 C   0  0  0  0  0  0  0  0  0  0  0  0
   -7.3366   -0.3718   -1.1498 C   0  0  1  0  0  0  0  0  0  0  0  0
   -6.1318    0.4453   -0.8018 C   0  0  0  0  0  0  0  0  0  0  0  0
   -5.9014    1.7156   -1.0601 N   0  0  0  0  0  0  0  0  0  0  0  0
   -4.5978    1.9358   -0.6869 C   0  0  0  0  0  0  0  0  0  0  0  0
   -4.0046    0.7716   -0.2319 C   0  0  0  0  0  0  0  0  0  0  0  0
   -2.6335    0.4515    0.1301 C   0  0  0  0  0  0  0  0  0  0  0  0
   -1.8772    1.3058    0.9321 C   0  0  0  0  0  0  0  0  0  0  0  0
   -0.5352    1.0162    1.2156 C   0  0  0  0  0  0  0  0  0  0  0  0
    0.0830   -0.1306    0.6939 C   0  0  0  0  0  0  0  0  0  0  0  0
   -0.6855   -0.9802   -0.1191 C   0  0  0  0  0  0  0  0  0  0  0  0
   -2.0346   -0.7042   -0.3782 C   0  0  0  0  0  0  0  0  0  0  0  0
   -0.0227   -2.2195   -0.6601 C   0  0  0  0  0  0  0  0  0  0  0  0
    1.3592   -2.0264   -1.0029 O   0  0  0  0  0  0  0  0  0  0  0  0
    2.0852   -1.3932   -0.0201 C   0  0  0  0  0  0  0  0  0  0  0  0
    3.4484   -1.6751    0.0009 C   0  0  0  0  0  0  0  0  0  0  0  0
    4.2567   -1.0837    0.9820 C   0  0  0  0  0  0  0  0  0  0  0  0
    5.6418   -1.3450    1.0544 C   0  0  0  0  0  0  0  0  0  0  0  0
    6.4994   -2.0704    0.2756 N   0  0  0  0  0  0  0  0  0  0  0  0
    7.7553   -2.0240    0.8269 C   0  0  0  0  0  0  0  0  0  0  0  0
    8.8916   -2.7392    0.1755 C   0  0  2  0  0  0  0  0  0  0  0  0
    9.4887   -3.8480    1.0296 C   0  0  0  0  0  0  0  0  0  0  0  0
   10.7930   -4.0927    0.2846 C   0  0  0  0  0  0  0  0  0  0  0  0
   11.2496   -2.6730   -0.1282 C   0  0  2  0  0  0  0  0  0  0  0  0
   12.3891   -2.1922    0.7622 C   0  0  0  0  0  0  0  0  0  0  0  0
   10.0287   -1.8534   -0.0687 N   0  0  0  0  0  0  0  0  0  0  0  0
    9.8243   -0.8476   -1.0089 C   0  0  0  0  0  0  0  0  0  0  0  0
    9.0256   -1.0129   -1.9358 O   0  0  0  0  0  0  0  0  0  0  0  0
   10.6236    0.4753   -0.7964 C   0  0  1  0  0  0  0  0  0  0  0  0
   10.5450    1.2383   -2.0453 N   0  0  0  0  0  0  0  0  0  0  0  0
    9.4254    1.8935   -2.4697 C   0  0  0  0  0  0  0  0  0  0  0  0
    8.4159    2.1139   -1.8208 O   0  0  0  0  0  0  0  0  0  0  0  0
    9.6144    2.2712   -3.7616 O   0  0  0  0  0  0  0  0  0  0  0  0
    8.5241    3.0163   -4.3053 C   0  0  0  0  0  0  0  0  0  0  0  0
   10.2061    1.2649    0.4822 C   0  0  0  0  0  0  0  0  0  0  0  0
   10.7428    0.6318    1.7747 C   0  0  0  0  0  0  0  0  0  0  0  0
   10.6842    2.7247    0.4703 C   0  0  0  0  0  0  0  0  0  0  0  0
    7.7574   -1.2659    1.9100 N   0  0  0  0  0  0  0  0  0  0  0  0
    6.4625   -0.8128    2.0439 C   0  0  0  0  0  0  0  0  0  0  0  0
    5.9091    0.0442    3.0033 C   0  0  0  0  0  0  0  0  0  0  0  0
    4.5371    0.3433    2.9385 C   0  0  0  0  0  0  0  0  0  0  0  0
    3.7045   -0.2121    1.9455 C   0  0  0  0  0  0  0  0  0  0  0  0
    2.3283    0.0870    1.8686 C   0  0  0  0  0  0  0  0  0  0  0  0
    1.5038   -0.4736    0.8736 C   0  0  0  0  0  0  0  0  0  0  0  0
   -5.0389   -0.1296   -0.1955 N   0  0  0  0  0  0  0  0  0  0  0  0
   -8.5100   -0.0005   -0.3655 N   0  0  0  0  0  0  0  0  0  0  0  0
   -8.5153   -0.1654    1.0121 C   0  0  0  0  0  0  0  0  0  0  0  0
   -7.5581   -0.7332    1.5595 O   0  0  0  0  0  0  0  0  0  0  0  0
   -9.6087    0.5397    1.8879 C   0  0  2  0  0  0  0  0  0  0  0  0
  -10.9160    0.7466    1.2990 N   0  0  0  0  0  0  0  0  0  0  0  0
  -11.8909   -0.1938    1.3293 C   0  0  0  0  0  0  0  0  0  0  0  0
  -11.7807   -1.3103    1.8101 O   0  0  0  0  0  0  0  0  0  0  0  0
  -12.9914    0.2929    0.7115 O   0  0  0  0  0  0  0  0  0  0  0  0
  -14.0795   -0.6287    0.6474 C   0  0  0  0  0  0  0  0  0  0  0  0
   -9.1295    1.8752    2.4566 C   0  0  0  0  0  0  0  0  0  0  0  0
   -8.1708    2.6765    1.8161 C   0  0  0  0  0  0  0  0  0  0  0  0
   -7.7908    3.9072    2.3569 C   0  0  0  0  0  0  0  0  0  0  0  0
   -8.3752    4.3633    3.5367 C   0  0  0  0  0  0  0  0  0  0  0  0
   -9.3452    3.5976    4.1730 C   0  0  0  0  0  0  0  0  0  0  0  0
   -9.7191    2.3603    3.6388 C   0  0  0  0  0  0  0  0  0  0  0  0
   -9.6840    0.1017   -1.2295 C   0  0  0  0  0  0  0  0  0  0  0  0
  -11.2948   -2.2796   -3.3297 H   0  0  0  0  0  0  0  0  0  0  0  0
  -11.1760   -1.8047   -5.0536 H   0  0  0  0  0  0  0  0  0  0  0  0
  -12.7263   -1.7137   -4.1970 H   0  0  0  0  0  0  0  0  0  0  0  0
   -9.9670    1.2102   -3.7396 H   0  0  0  0  0  0  0  0  0  0  0  0
   -9.5819   -0.2052   -4.7082 H   0  0  0  0  0  0  0  0  0  0  0  0
   -9.3312   -1.5502   -2.5534 H   0  0  0  0  0  0  0  0  0  0  0  0
   -7.6182    0.9376   -2.8850 H   0  0  0  0  0  0  0  0  0  0  0  0
   -7.1865   -0.7236   -3.3112 H   0  0  0  0  0  0  0  0  0  0  0  0
   -7.1544   -1.4400   -0.9996 H   0  0  0  0  0  0  0  0  0  0  0  0
   -4.1317    2.9010   -0.8298 H   0  0  0  0  0  0  0  0  0  0  0  0
   -2.3169    2.2155    1.3351 H   0  0  0  0  0  0  0  0  0  0  0  0
    0.0212    1.7256    1.8222 H   0  0  0  0  0  0  0  0  0  0  0  0
   -2.5990   -1.3738   -1.0224 H   0  0  0  0  0  0  0  0  0  0  0  0
   -0.1012   -3.0376    0.0647 H   0  0  0  0  0  0  0  0  0  0  0  0
   -0.5202   -2.5437   -1.5776 H   0  0  0  0  0  0  0  0  0  0  0  0
    3.8560   -2.3604   -0.7355 H   0  0  0  0  0  0  0  0  0  0  0  0
    6.2539   -2.5586   -0.5771 H   0  0  0  0  0  0  0  0  0  0  0  0
    8.5615   -3.1630   -0.7863 H   0  0  0  0  0  0  0  0  0  0  0  0
    8.8525   -4.7367    1.0839 H   0  0  0  0  0  0  0  0  0  0  0  0
    9.6953   -3.5068    2.0498 H   0  0  0  0  0  0  0  0  0  0  0  0
   11.5198   -4.6544    0.8690 H   0  0  0  0  0  0  0  0  0  0  0  0
   10.5814   -4.6710   -0.6231 H   0  0  0  0  0  0  0  0  0  0  0  0
   11.6030   -2.7028   -1.1694 H   0  0  0  0  0  0  0  0  0  0  0  0
   12.7874   -1.2297    0.4346 H   0  0  0  0  0  0  0  0  0  0  0  0
   13.2218   -2.9078    0.7279 H   0  0  0  0  0  0  0  0  0  0  0  0
   12.0827   -2.0857    1.8101 H   0  0  0  0  0  0  0  0  0  0  0  0
   11.6826    0.2082   -0.7247 H   0  0  0  0  0  0  0  0  0  0  0  0
   11.1578    0.9754   -2.8014 H   0  0  0  0  0  0  0  0  0  0  0  0
    7.5964    2.4314   -4.2862 H   0  0  0  0  0  0  0  0  0  0  0  0
    8.7599    3.2450   -5.3482 H   0  0  0  0  0  0  0  0  0  0  0  0
    8.3996    3.9625   -3.7637 H   0  0  0  0  0  0  0  0  0  0  0  0
    9.1146    1.2643    0.5556 H   0  0  0  0  0  0  0  0  0  0  0  0
   11.8369    0.5881    1.7677 H   0  0  0  0  0  0  0  0  0  0  0  0
   10.3582   -0.3719    1.9347 H   0  0  0  0  0  0  0  0  0  0  0  0
   10.4460    1.2199    2.6491 H   0  0  0  0  0  0  0  0  0  0  0  0
   10.4394    3.2244    1.4174 H   0  0  0  0  0  0  0  0  0  0  0  0
   11.7710    2.7802    0.3381 H   0  0  0  0  0  0  0  0  0  0  0  0
   10.2133    3.3149   -0.3211 H   0  0  0  0  0  0  0  0  0  0  0  0
    6.5383    0.4739    3.7750 H   0  0  0  0  0  0  0  0  0  0  0  0
    4.1199    1.0193    3.6833 H   0  0  0  0  0  0  0  0  0  0  0  0
    1.9077    0.7719    2.6024 H   0  0  0  0  0  0  0  0  0  0  0  0
   -4.9949   -1.0680    0.1735 H   0  0  0  0  0  0  0  0  0  0  0  0
   -9.7442   -0.1460    2.7361 H   0  0  0  0  0  0  0  0  0  0  0  0
  -11.1211    1.6171    0.8271 H   0  0  0  0  0  0  0  0  0  0  0  0
  -14.8863   -0.1653    0.0723 H   0  0  0  0  0  0  0  0  0  0  0  0
  -13.7760   -1.5488    0.1363 H   0  0  0  0  0  0  0  0  0  0  0  0
  -14.4535   -0.8485    1.6535 H   0  0  0  0  0  0  0  0  0  0  0  0
   -7.7014    2.3626    0.8849 H   0  0  0  0  0  0  0  0  0  0  0  0
   -7.0380    4.5050    1.8507 H   0  0  0  0  0  0  0  0  0  0  0  0
   -8.0769    5.3239    3.9525 H   0  0  0  0  0  0  0  0  0  0  0  0
   -9.8136    3.9601    5.0819 H   0  0  0  0  0  0  0  0  0  0  0  0
  -10.4884    1.7809    4.1417 H   0  0  0  0  0  0  0  0  0  0  0  0
  -10.5078   -0.5006   -0.8422 H   0  0  0  0  0  0  0  0  0  0  0  0
   -9.9682    1.1581   -1.2867 H   0  0  0  0  0  0  0  0  0  0  0  0
  1  2  1  0
  2  3  1  0
  3  4  1  0
  4  5  1  0
  5  6  1  0
  6  7  1  0
  7  8  2  0
  8  9  1  0
  9 10  2  0
 10 11  1  0
 11 12  2  0
 12 13  1  0
 13 14  2  0
 14 15  1  0
 15 16  2  0
 15 17  1  0
 17 18  1  0
 18 19  1  0
 19 20  2  0
 20 21  1  0
 21 22  2  0
 22 23  1  0
 23 24  1  0
 24 25  1  0
 25 26  1  0
 26 27  1  0
 27 28  1  0
 28 29  1  0
 28 30  1  0
 30 31  1  0
 31 32  2  0
 31 33  1  0
 33 34  1  0
 34 35  1  0
 35 36  2  0
 35 37  1  0
 37 38  1  0
 33 39  1  0
 39 40  1  0
 39 41  1  0
 24 42  2  0
 42 43  1  0
 43 44  2  0
 44 45  1  0
 45 46  2  0
 46 47  1  0
 47 48  2  0
 10 49  1  0
  6 50  1  0
 50 51  1  0
 51 52  2  0
 51 53  1  0
 53 54  1  0
 54 55  1  0
 55 56  2  0
 55 57  1  0
 57 58  1  0
 53 59  1  0
 59 60  2  0
 60 61  1  0
 61 62  2  0
 62 63  1  0
 63 64  2  0
 50 65  1  0
 65  4  1  0
 49  7  1  0
 64 59  1  0
 16 11  1  0
 48 19  1  0
 48 14  1  0
 46 21  1  0
 43 22  1  0
 30 25  1  0
  1 66  1  0
  1 67  1  0
  1 68  1  0
  3 69  1  0
  3 70  1  0
  4 71  1  1
  5 72  1  0
  5 73  1  0
  6 74  1  6
  9 75  1  0
 12 76  1  0
 13 77  1  0
 16 78  1  0
 17 79  1  0
 17 80  1  0
 20 81  1  0
 23 82  1  0
 25 83  1  6
 26 84  1  0
 26 85  1  0
 27 86  1  0
 27 87  1  0
 28 88  1  6
 29 89  1  0
 29 90  1  0
 29 91  1  0
 33 92  1  1
 34 93  1  0
 38 94  1  0
 38 95  1  0
 38 96  1  0
 39 97  1  0
 40 98  1  0
 40 99  1  0
 40100  1  0
 41101  1  0
 41102  1  0
 41103  1  0
 44104  1  0
 45105  1  0
 47106  1  0
 49107  1  0
 53108  1  1
 54109  1  0
 58110  1  0
 58111  1  0
 58112  1  0
 60113  1  0
 61114  1  0
 62115  1  0
 63116  1  0
 64117  1  0
 65118  1  0
 65119  1  0
M  END
$$$$
OCNT-2328943
     RDKit          3D

 69 73  0  0  0  0  0  0  0  0999 V2000
   -6.5409   -0.5859   -1.2272 C   0  0  0  0  0  0  0  0  0  0  0  0
   -5.4668    0.4142   -0.9703 C   0  0  0  0  0  0  0  0  0  0  0  0
   -4.4315    0.2947   -0.0526 C   0  0  0  0  0  0  0  0  0  0  0  0
   -4.1527   -0.8067    0.8662 C   0  0  0  0  0  0  0  0  0  0  0  0
   -3.2781   -1.8332    0.4937 C   0  0  0  0  0  0  0  0  0  0  0  0
   -3.0067   -2.8787    1.3775 C   0  0  0  0  0  0  0  0  0  0  0  0
   -3.6196   -2.9012    2.6250 C   0  0  0  0  0  0  0  0  0  0  0  0
   -3.3262   -3.9400    3.4579 O   0  0  0  0  0  0  0  0  0  0  0  0
   -4.5027   -1.8951    3.0060 C   0  0  0  0  0  0  0  0  0  0  0  0
   -4.7702   -0.8469    2.1222 C   0  0  0  0  0  0  0  0  0  0  0  0
   -3.6582    1.4394   -0.1436 N   0  0  0  0  0  0  0  0  0  0  0  0
   -2.4884    1.7332    0.6860 C   0  0  0  0  0  0  0  0  0  0  0  0
   -1.2350    1.0376    0.2114 C   0  0  0  0  0  0  0  0  0  0  0  0
   -0.5070    0.2250    1.0928 C   0  0  0  0  0  0  0  0  0  0  0  0
    0.6657   -0.4191    0.6796 C   0  0  0  0  0  0  0  0  0  0  0  0
    1.1381   -0.2519   -0.6197 C   0  0  0  0  0  0  0  0  0  0  0  0
    2.2589   -0.8141   -1.1597 O   0  0  0  0  0  0  0  0  0  0  0  0
    3.0804   -1.6530   -0.3467 C   0  0  0  0  0  0  0  0  0  0  0  0
    4.0847   -0.8544    0.5111 C   0  0  0  0  0  0  0  0  0  0  0  0
    4.9975    0.0273   -0.2302 N   0  0  0  0  0  0  0  0  0  0  0  0
    5.7123    0.9872    0.6078 C   0  0  0  0  0  0  0  0  0  0  0  0
    6.4542    0.4556    1.8365 C   0  0  0  0  0  0  0  0  0  0  0  0
    7.3693   -0.7550    1.6529 C   0  0  0  0  0  0  0  0  0  0  0  0
    7.9286   -0.9734    0.2522 C   0  0  0  0  0  0  0  0  0  0  0  0
    6.9108   -1.5877   -0.7089 C   0  0  0  0  0  0  0  0  0  0  0  0
    5.8533   -0.6123   -1.2250 C   0  0  0  0  0  0  0  0  0  0  0  0
    0.4236    0.5653   -1.4980 C   0  0  0  0  0  0  0  0  0  0  0  0
   -0.7489    1.2073   -1.0905 C   0  0  0  0  0  0  0  0  0  0  0  0
   -4.1955    2.3070   -1.0808 C   0  0  0  0  0  0  0  0  0  0  0  0
   -3.7843    3.5832   -1.5097 C   0  0  0  0  0  0  0  0  0  0  0  0
   -4.5369    4.2306   -2.4946 C   0  0  0  0  0  0  0  0  0  0  0  0
   -5.6622    3.6198   -3.0286 C   0  0  0  0  0  0  0  0  0  0  0  0
   -6.4115    4.2344   -3.9906 O   0  0  0  0  0  0  0  0  0  0  0  0
   -6.0709    2.3570   -2.6050 C   0  0  0  0  0  0  0  0  0  0  0  0
   -5.3262    1.6830   -1.6135 C   0  0  0  0  0  0  0  0  0  0  0  0
   -7.3616   -0.4473   -0.5162 H   0  0  0  0  0  0  0  0  0  0  0  0
   -6.1640   -1.6085   -1.1253 H   0  0  0  0  0  0  0  0  0  0  0  0
   -6.9433   -0.4862   -2.2400 H   0  0  0  0  0  0  0  0  0  0  0  0
   -2.7973   -1.8166   -0.4822 H   0  0  0  0  0  0  0  0  0  0  0  0
   -2.3219   -3.6711    1.0902 H   0  0  0  0  0  0  0  0  0  0  0  0
   -3.8654   -3.8542    4.2611 H   0  0  0  0  0  0  0  0  0  0  0  0
   -4.9893   -1.9083    3.9758 H   0  0  0  0  0  0  0  0  0  0  0  0
   -5.4632   -0.0608    2.4130 H   0  0  0  0  0  0  0  0  0  0  0  0
   -2.7441    1.4482    1.7132 H   0  0  0  0  0  0  0  0  0  0  0  0
   -2.3249    2.8154    0.7024 H   0  0  0  0  0  0  0  0  0  0  0  0
   -0.8564    0.0695    2.1121 H   0  0  0  0  0  0  0  0  0  0  0  0
    1.1781   -1.0418    1.4037 H   0  0  0  0  0  0  0  0  0  0  0  0
    2.4780   -2.3256    0.2751 H   0  0  0  0  0  0  0  0  0  0  0  0
    3.6228   -2.3184   -1.0273 H   0  0  0  0  0  0  0  0  0  0  0  0
    4.6429   -1.5686    1.1253 H   0  0  0  0  0  0  0  0  0  0  0  0
    3.5061   -0.2296    1.2018 H   0  0  0  0  0  0  0  0  0  0  0  0
    6.4090    1.5718   -0.0077 H   0  0  0  0  0  0  0  0  0  0  0  0
    4.9834    1.7292    0.9609 H   0  0  0  0  0  0  0  0  0  0  0  0
    7.0594    1.2830    2.2313 H   0  0  0  0  0  0  0  0  0  0  0  0
    5.7326    0.2243    2.6309 H   0  0  0  0  0  0  0  0  0  0  0  0
    6.8404   -1.6607    1.9756 H   0  0  0  0  0  0  0  0  0  0  0  0
    8.2083   -0.6487    2.3529 H   0  0  0  0  0  0  0  0  0  0  0  0
    8.3439   -0.0442   -0.1546 H   0  0  0  0  0  0  0  0  0  0  0  0
    8.7671   -1.6766    0.3359 H   0  0  0  0  0  0  0  0  0  0  0  0
    7.4585   -1.9702   -1.5800 H   0  0  0  0  0  0  0  0  0  0  0  0
    6.4325   -2.4602   -0.2480 H   0  0  0  0  0  0  0  0  0  0  0  0
    5.2324   -1.1316   -1.9642 H   0  0  0  0  0  0  0  0  0  0  0  0
    6.3568    0.1688   -1.8110 H   0  0  0  0  0  0  0  0  0  0  0  0
    0.7852    0.7034   -2.5144 H   0  0  0  0  0  0  0  0  0  0  0  0
   -1.2779    1.8315   -1.8069 H   0  0  0  0  0  0  0  0  0  0  0  0
   -2.9021    4.0649   -1.1004 H   0  0  0  0  0  0  0  0  0  0  0  0
   -4.2228    5.2143   -2.8302 H   0  0  0  0  0  0  0  0  0  0  0  0
   -6.0045    5.0910   -4.1978 H   0  0  0  0  0  0  0  0  0  0  0  0
   -6.9554    1.9014   -3.0386 H   0  0  0  0  0  0  0  0  0  0  0  0
  1  2  1  0
  2  3  2  0
  3  4  1  0
  4  5  1  0
  5  6  2  0
  6  7  1  0
  7  8  1  0
  7  9  2  0
  9 10  1  0
  3 11  1  0
 11 12  1  0
 12 13  1  0
 13 14  1  0
 14 15  2  0
 15 16  1  0
 16 17  1  0
 17 18  1  0
 18 19  1  0
 19 20  1  0
 20 21  1  0
 21 22  1  0
 22 23  1  0
 23 24  1  0
 24 25  1  0
 25 26  1  0
 16 27  2  0
 27 28  1  0
 11 29  1  0
 29 30  2  0
 30 31  1  0
 31 32  2  0
 32 33  1  0
 32 34  1  0
 34 35  2  0
 35  2  1  0
 10  4  2  0
 28 13  2  0
 35 29  1  0
 26 20  1  0
  1 36  1  0
  1 37  1  0
  1 38  1  0
  5 39  1  0
  6 40  1  0
  8 41  1  0
  9 42  1  0
 10 43  1  0
 12 44  1  0
 12 45  1  0
 14 46  1  0
 15 47  1  0
 18 48  1  0
 18 49  1  0
 19 50  1  0
 19 51  1  0
 21 52  1  0
 21 53  1  0
 22 54  1  0
 22 55  1  0
 23 56  1  0
 23 57  1  0
 24 58  1  0
 24 59  1  0
 25 60  1  0
 25 61  1  0
 26 62  1  0
 26 63  1  0
 27 64  1  0
 28 65  1  0
 30 66  1  0
 31 67  1  0
 33 68  1  0
 34 69  1  0
M  END
$$$$
OCNT-2328949
     RDKit          3D

 51 53  0  0  0  0  0  0  0  0999 V2000
    7.9431    0.5985   -1.4397 C   0  0  0  0  0  0  0  0  0  0  0  0
    6.5546    0.3688   -1.6380 O   0  0  0  0  0  0  0  0  0  0  0  0
    5.8844    1.5435   -2.0884 C   0  0  0  0  0  0  0  0  0  0  0  0
    4.4029    1.2440   -2.3052 C   0  0  0  0  0  0  0  0  0  0  0  0
    3.7071    0.8319   -0.9998 C   0  0  0  0  0  0  0  0  0  0  0  0
    2.2738    0.5268   -1.1734 N   0  0  0  0  0  0  0  0  0  0  0  0
    1.7033   -0.0879    0.0380 C   0  0  0  0  0  0  0  0  0  0  0  0
    0.9273    0.8916    0.9140 C   0  0  0  0  0  0  0  0  0  0  0  0
   -0.2448    1.5155    0.1426 C   0  0  0  0  0  0  0  0  0  0  0  0
   -1.4961    0.8205    0.4193 N   0  0  0  0  0  0  0  0  0  0  0  0
   -2.2331    1.0526    1.5592 C   0  0  0  0  0  0  0  0  0  0  0  0
   -1.9587    1.9367    2.3644 O   0  0  0  0  0  0  0  0  0  0  0  0
   -3.4076    0.1664    1.8001 C   0  0  0  0  0  0  0  0  0  0  0  0
   -4.2399    0.4470    2.8929 C   0  0  0  0  0  0  0  0  0  0  0  0
   -5.3562   -0.3599    3.1683 C   0  0  0  0  0  0  0  0  0  0  0  0
   -6.3466    0.0543    4.5270 Cl  0  0  0  0  0  0  0  0  0  0  0  0
   -5.6541   -1.4991    2.3939 C   0  0  0  0  0  0  0  0  0  0  0  0
   -6.8207   -2.2518    2.5934 N   0  0  0  0  0  0  0  0  0  0  0  0
   -4.8509   -1.7256    1.2841 C   0  0  0  0  0  0  0  0  0  0  0  0
   -3.7473   -0.9195    1.0032 C   0  0  0  0  0  0  0  0  0  0  0  0
   -3.0605   -1.3364   -0.1161 O   0  0  0  0  0  0  0  0  0  0  0  0
   -3.9724   -2.2505   -0.7662 C   0  0  0  0  0  0  0  0  0  0  0  0
   -4.9261   -2.8151    0.2796 C   0  0  0  0  0  0  0  0  0  0  0  0
    0.0145    1.5505   -1.3675 C   0  0  0  0  0  0  0  0  0  0  0  0
    1.5066    1.6856   -1.6564 C   0  0  0  0  0  0  0  0  0  0  0  0
    8.4202    0.8961   -2.3784 H   0  0  0  0  0  0  0  0  0  0  0  0
    8.4005   -0.3328   -1.0952 H   0  0  0  0  0  0  0  0  0  0  0  0
    8.0989    1.3675   -0.6770 H   0  0  0  0  0  0  0  0  0  0  0  0
    6.0041    2.3436   -1.3485 H   0  0  0  0  0  0  0  0  0  0  0  0
    6.3282    1.8724   -3.0352 H   0  0  0  0  0  0  0  0  0  0  0  0
    4.2999    0.4315   -3.0350 H   0  0  0  0  0  0  0  0  0  0  0  0
    3.9348    2.1384   -2.7300 H   0  0  0  0  0  0  0  0  0  0  0  0
    3.8395    1.6153   -0.2424 H   0  0  0  0  0  0  0  0  0  0  0  0
    4.2132   -0.0659   -0.6232 H   0  0  0  0  0  0  0  0  0  0  0  0
    1.0245   -0.8891   -0.2821 H   0  0  0  0  0  0  0  0  0  0  0  0
    2.4733   -0.5879    0.6384 H   0  0  0  0  0  0  0  0  0  0  0  0
    0.5830    0.3860    1.8239 H   0  0  0  0  0  0  0  0  0  0  0  0
    1.6087    1.6878    1.2418 H   0  0  0  0  0  0  0  0  0  0  0  0
   -0.3646    2.5452    0.5036 H   0  0  0  0  0  0  0  0  0  0  0  0
   -1.7146   -0.0133   -0.1195 H   0  0  0  0  0  0  0  0  0  0  0  0
   -4.0240    1.3021    3.5312 H   0  0  0  0  0  0  0  0  0  0  0  0
   -7.1947   -2.1548    3.5365 H   0  0  0  0  0  0  0  0  0  0  0  0
   -6.7603   -3.2193    2.2953 H   0  0  0  0  0  0  0  0  0  0  0  0
   -4.5145   -1.6898   -1.5386 H   0  0  0  0  0  0  0  0  0  0  0  0
   -3.4007   -3.0419   -1.2617 H   0  0  0  0  0  0  0  0  0  0  0  0
   -5.9260   -2.9763   -0.1311 H   0  0  0  0  0  0  0  0  0  0  0  0
   -4.5392   -3.7463    0.7061 H   0  0  0  0  0  0  0  0  0  0  0  0
   -0.5347    2.3882   -1.8144 H   0  0  0  0  0  0  0  0  0  0  0  0
   -0.3682    0.6437   -1.8553 H   0  0  0  0  0  0  0  0  0  0  0  0
    1.6431    1.7797   -2.7396 H   0  0  0  0  0  0  0  0  0  0  0  0
    1.8672    2.6165   -1.1988 H   0  0  0  0  0  0  0  0  0  0  0  0
  1  2  1  0
  2  3  1  0
  3  4  1  0
  4  5  1  0
  5  6  1  0
  6  7  1  0
  7  8  1  0
  8  9  1  0
  9 10  1  0
 10 11  1  0
 11 12  2  0
 11 13  1  0
 13 14  1  0
 14 15  2  0
 15 16  1  0
 15 17  1  0
 17 18  1  0
 17 19  2  0
 19 20  1  0
 20 21  1  0
 21 22  1  0
 22 23  1  0
  9 24  1  0
 24 25  1  0
 25  6  1  0
 20 13  2  0
 23 19  1  0
  1 26  1  0
  1 27  1  0
  1 28  1  0
  3 29  1  0
  3 30  1  0
  4 31  1  0
  4 32  1  0
  5 33  1  0
  5 34  1  0
  7 35  1  0
  7 36  1  0
  8 37  1  0
  8 38  1  0
  9 39  1  0
 10 40  1  0
 14 41  1  0
 18 42  1  0
 18 43  1  0
 22 44  1  0
 22 45  1  0
 23 46  1  0
 23 47  1  0
 24 48  1  0
 24 49  1  0
 25 50  1  0
 25 51  1  0
M  END
$$$$
OCNT-2328950
     RDKit          3D

 35 36  0  0  0  0  0  0  0  0999 V2000
    4.4104    1.3515    0.0218 C   0  0  0  0  0  0  0  0  0  0  0  0
    4.2473   -0.1404   -0.2463 C   0  0  0  0  0  0  0  0  0  0  0  0
    4.0869   -0.9754    1.0187 C   0  0  0  0  0  0  0  0  0  0  0  0
    3.2196   -0.4210   -1.2503 N   0  0  0  0  0  0  0  0  0  0  0  0
    1.8436   -0.3295   -1.1124 C   0  0  0  0  0  0  0  0  0  0  0  0
    1.0450   -0.8158   -2.1578 C   0  0  0  0  0  0  0  0  0  0  0  0
   -0.3529   -0.7142   -2.1331 C   0  0  0  0  0  0  0  0  0  0  0  0
   -1.0092   -0.0941   -1.0683 C   0  0  0  0  0  0  0  0  0  0  0  0
   -2.4123   -0.0496   -1.0602 N   0  0  0  0  0  0  0  0  0  0  0  0
   -3.3463    0.0360   -0.0132 C   0  0  0  0  0  0  0  0  0  0  0  0
   -3.0728   -0.3947    1.2898 C   0  0  0  0  0  0  0  0  0  0  0  0
   -4.0197   -0.2563    2.3095 C   0  0  0  0  0  0  0  0  0  0  0  0
   -5.2553    0.3257    2.0404 C   0  0  0  0  0  0  0  0  0  0  0  0
   -5.5438    0.7672    0.7524 C   0  0  0  0  0  0  0  0  0  0  0  0
   -4.5946    0.6246   -0.2640 C   0  0  0  0  0  0  0  0  0  0  0  0
   -0.2207    0.4150   -0.0372 C   0  0  0  0  0  0  0  0  0  0  0  0
    1.1803    0.3141   -0.0698 C   0  0  0  0  0  0  0  0  0  0  0  0
    5.3129    1.5338    0.6157 H   0  0  0  0  0  0  0  0  0  0  0  0
    4.5102    1.9067   -0.9174 H   0  0  0  0  0  0  0  0  0  0  0  0
    3.5713    1.7816    0.5723 H   0  0  0  0  0  0  0  0  0  0  0  0
    5.1927   -0.4619   -0.7041 H   0  0  0  0  0  0  0  0  0  0  0  0
    4.9713   -0.8732    1.6570 H   0  0  0  0  0  0  0  0  0  0  0  0
    3.2212   -0.6764    1.6150 H   0  0  0  0  0  0  0  0  0  0  0  0
    3.9716   -2.0367    0.7730 H   0  0  0  0  0  0  0  0  0  0  0  0
    3.4885   -1.1841   -1.8670 H   0  0  0  0  0  0  0  0  0  0  0  0
    1.5098   -1.2898   -3.0193 H   0  0  0  0  0  0  0  0  0  0  0  0
   -0.9209   -1.1328   -2.9594 H   0  0  0  0  0  0  0  0  0  0  0  0
   -2.8300   -0.0752   -1.9830 H   0  0  0  0  0  0  0  0  0  0  0  0
   -2.1269   -0.8768    1.5210 H   0  0  0  0  0  0  0  0  0  0  0  0
   -3.7895   -0.6083    3.3115 H   0  0  0  0  0  0  0  0  0  0  0  0
   -5.9909    0.4347    2.8327 H   0  0  0  0  0  0  0  0  0  0  0  0
   -6.5042    1.2275    0.5369 H   0  0  0  0  0  0  0  0  0  0  0  0
   -4.8350    0.9914   -1.2586 H   0  0  0  0  0  0  0  0  0  0  0  0
   -0.6799    0.9395    0.7963 H   0  0  0  0  0  0  0  0  0  0  0  0
    1.7224    0.7569    0.7560 H   0  0  0  0  0  0  0  0  0  0  0  0
  1  2  1  0
  2  3  1  0
  2  4  1  0
  4  5  1  0
  5  6  1  0
  6  7  2  0
  7  8  1  0
  8  9  1  0
  9 10  1  0
 10 11  2  0
 11 12  1  0
 12 13  2  0
 13 14  1  0
 14 15  2  0
  8 16  2  0
 16 17  1  0
 17  5  2  0
 15 10  1  0
  1 18  1  0
  1 19  1  0
  1 20  1  0
  2 21  1  0
  3 22  1  0
  3 23  1  0
  3 24  1  0
  4 25  1  0
  6 26  1  0
  7 27  1  0
  9 28  1  0
 11 29  1  0
 12 30  1  0
 13 31  1  0
 14 32  1  0
 15 33  1  0
 16 34  1  0
 17 35  1  0
M  END
$$$$
OCNT-2328958
     RDKit          3D

 30 32  0  0  0  0  0  0  0  0999 V2000
    6.1970    0.3504   -1.0514 C   0  0  0  0  0  0  0  0  0  0  0  0
    5.5395    0.1739    0.6230 S   0  0  0  0  0  0  0  0  0  0  0  0
    3.8759   -0.1079    0.2761 C   0  0  0  0  0  0  0  0  0  0  0  0
    3.3016   -0.1844   -0.8990 N   0  0  0  0  0  0  0  0  0  0  0  0
    1.9753   -0.4162   -0.6259 C   0  0  0  0  0  0  0  0  0  0  0  0
    0.8986   -0.5907   -1.5050 C   0  0  0  0  0  0  0  0  0  0  0  0
   -0.3807   -0.8192   -0.9742 C   0  0  0  0  0  0  0  0  0  0  0  0
   -1.6432   -1.1157   -2.1177 Cl  0  0  0  0  0  0  0  0  0  0  0  0
   -0.5858   -0.8496    0.4156 C   0  0  0  0  0  0  0  0  0  0  0  0
   -1.7972   -1.0875    1.0365 O   0  0  0  0  0  0  0  0  0  0  0  0
   -2.8734   -0.2880    0.7102 C   0  0  0  0  0  0  0  0  0  0  0  0
   -4.0206   -0.9919    0.3143 C   0  0  0  0  0  0  0  0  0  0  0  0
   -5.1858   -0.3120   -0.0300 C   0  0  0  0  0  0  0  0  0  0  0  0
   -5.2185    1.0779    0.0419 C   0  0  0  0  0  0  0  0  0  0  0  0
   -4.0928    1.7878    0.4767 C   0  0  0  0  0  0  0  0  0  0  0  0
   -4.2415    3.5111    0.5673 Cl  0  0  0  0  0  0  0  0  0  0  0  0
   -2.9129    1.1112    0.8302 C   0  0  0  0  0  0  0  0  0  0  0  0
   -1.5648    1.9960    1.4680 Cl  0  0  0  0  0  0  0  0  0  0  0  0
    0.4959   -0.7178    1.3049 C   0  0  0  0  0  0  0  0  0  0  0  0
    1.7527   -0.4872    0.7456 C   0  0  0  0  0  0  0  0  0  0  0  0
    2.9914   -0.2839    1.2984 N   0  0  0  0  0  0  0  0  0  0  0  0
    6.0375   -0.5655   -1.6274 H   0  0  0  0  0  0  0  0  0  0  0  0
    7.2722    0.5408   -0.9965 H   0  0  0  0  0  0  0  0  0  0  0  0
    5.7232    1.1913   -1.5656 H   0  0  0  0  0  0  0  0  0  0  0  0
    1.0721   -0.5594   -2.5751 H   0  0  0  0  0  0  0  0  0  0  0  0
   -3.9933   -2.0782    0.2539 H   0  0  0  0  0  0  0  0  0  0  0  0
   -6.0639   -0.8643   -0.3565 H   0  0  0  0  0  0  0  0  0  0  0  0
   -6.1297    1.6059   -0.2308 H   0  0  0  0  0  0  0  0  0  0  0  0
    0.3468   -0.7671    2.3787 H   0  0  0  0  0  0  0  0  0  0  0  0
    3.2244   -0.2600    2.2796 H   0  0  0  0  0  0  0  0  0  0  0  0
  1  2  1  0
  2  3  1  0
  3  4  2  0
  4  5  1  0
  5  6  2  0
  6  7  1  0
  7  8  1  0
  7  9  2  0
  9 10  1  0
 10 11  1  0
 11 12  2  0
 12 13  1  0
 13 14  2  0
 14 15  1  0
 15 16  1  0
 15 17  2  0
 17 18  1  0
  9 19  1  0
 19 20  2  0
 20 21  1  0
 21  3  1  0
 20  5  1  0
 17 11  1  0
  1 22  1  0
  1 23  1  0
  1 24  1  0
  6 25  1  0
 12 26  1  0
 13 27  1  0
 14 28  1  0
 19 29  1  0
 21 30  1  0
M  END
$$$$
OCNT-2328975
     RDKit          3D

 42 45  0  0  0  0  0  0  0  0999 V2000
    4.2523    1.6940   -1.1887 C   0  0  0  0  0  0  0  0  0  0  0  0
    3.0275    1.1227   -0.6416 N   0  0  0  0  0  0  0  0  0  0  0  0
    2.2697    0.3846   -1.6667 C   0  0  0  0  0  0  0  0  0  0  0  0
    1.4330   -0.8015   -1.1408 C   0  0  0  0  0  0  0  0  0  0  0  0
    0.8690   -0.5430    0.2455 C   0  0  0  0  0  0  0  0  0  0  0  0
   -0.4506   -0.5853    0.5799 C   0  0  0  0  0  0  0  0  0  0  0  0
   -1.4532   -0.8931   -0.4787 C   0  0  0  0  0  0  0  0  0  0  0  0
   -1.5884   -2.1950   -0.9821 C   0  0  0  0  0  0  0  0  0  0  0  0
   -2.5389   -2.4738   -1.9640 C   0  0  0  0  0  0  0  0  0  0  0  0
   -3.3679   -1.4592   -2.4391 C   0  0  0  0  0  0  0  0  0  0  0  0
   -3.2583   -0.1652   -1.9273 C   0  0  0  0  0  0  0  0  0  0  0  0
   -2.3082    0.1283   -0.9394 C   0  0  0  0  0  0  0  0  0  0  0  0
   -2.2217    1.5159   -0.3417 C   0  0  0  0  0  0  0  0  0  0  0  0
   -2.7121    1.5637    1.1103 C   0  0  0  0  0  0  0  0  0  0  0  0
   -1.9264    0.7303    2.0965 C   0  0  0  0  0  0  0  0  0  0  0  0
   -0.9397   -0.2245    1.8961 C   0  0  0  0  0  0  0  0  0  0  0  0
   -0.5247   -0.8318    3.1224 C   0  0  0  0  0  0  0  0  0  0  0  0
   -1.1635   -0.2931    4.2151 C   0  0  0  0  0  0  0  0  0  0  0  0
   -2.2798    0.9176    3.7706 S   0  0  0  0  0  0  0  0  0  0  0  0
    1.9628   -0.1164    1.2211 C   0  0  0  0  0  0  0  0  0  0  0  0
    3.2840    0.2998    0.5413 C   0  0  0  0  0  0  0  0  0  0  0  0
    4.0268    2.3404   -2.0441 H   0  0  0  0  0  0  0  0  0  0  0  0
    4.9580    0.9214   -1.5145 H   0  0  0  0  0  0  0  0  0  0  0  0
    4.7512    2.3221   -0.4425 H   0  0  0  0  0  0  0  0  0  0  0  0
    2.9369   -0.0118   -2.4439 H   0  0  0  0  0  0  0  0  0  0  0  0
    1.6011    1.0990   -2.1628 H   0  0  0  0  0  0  0  0  0  0  0  0
    2.0714   -1.6933   -1.0783 H   0  0  0  0  0  0  0  0  0  0  0  0
    0.6739   -1.0303   -1.8928 H   0  0  0  0  0  0  0  0  0  0  0  0
   -0.9520   -2.9934   -0.6089 H   0  0  0  0  0  0  0  0  0  0  0  0
   -2.6358   -3.4833   -2.3545 H   0  0  0  0  0  0  0  0  0  0  0  0
   -4.1105   -1.6786   -3.2022 H   0  0  0  0  0  0  0  0  0  0  0  0
   -3.9268    0.6089   -2.2967 H   0  0  0  0  0  0  0  0  0  0  0  0
   -2.8309    2.2079   -0.9372 H   0  0  0  0  0  0  0  0  0  0  0  0
   -1.1921    1.8878   -0.4217 H   0  0  0  0  0  0  0  0  0  0  0  0
   -3.7614    1.2409    1.1454 H   0  0  0  0  0  0  0  0  0  0  0  0
   -2.6886    2.6115    1.4373 H   0  0  0  0  0  0  0  0  0  0  0  0
    0.2059   -1.6268    3.2012 H   0  0  0  0  0  0  0  0  0  0  0  0
   -1.0342   -0.5591    5.2548 H   0  0  0  0  0  0  0  0  0  0  0  0
    1.6136    0.7377    1.8148 H   0  0  0  0  0  0  0  0  0  0  0  0
    2.1825   -0.9428    1.9068 H   0  0  0  0  0  0  0  0  0  0  0  0
    3.8678   -0.5918    0.2754 H   0  0  0  0  0  0  0  0  0  0  0  0
    3.8781    0.8585    1.2754 H   0  0  0  0  0  0  0  0  0  0  0  0
  1  2  1  0
  2  3  1  0
  3  4  1  0
  4  5  1  0
  5  6  2  3
  6  7  1  0
  7  8  2  0
  8  9  1  0
  9 10  2  0
 10 11  1  0
 11 12  2  0
 12 13  1  0
 13 14  1  0
 14 15  1  0
 15 16  2  0
 16 17  1  0
 17 18  2  0
 18 19  1  0
  5 20  1  0
 20 21  1  0
 21  2  1  0
 16  6  1  0
 12  7  1  0
 19 15  1  0
  1 22  1  0
  1 23  1  0
  1 24  1  0
  3 25  1  0
  3 26  1  0
  4 27  1  0
  4 28  1  0
  8 29  1  0
  9 30  1  0
 10 31  1  0
 11 32  1  0
 13 33  1  0
 13 34  1  0
 14 35  1  0
 14 36  1  0
 17 37  1  0
 18 38  1  0
 20 39  1  0
 20 40  1  0
 21 41  1  0
 21 42  1  0
M  END
$$$$
OCNT-2328989
     RDKit          3D

 47 50  0  0  0  0  0  0  0  0999 V2000
    1.0456   -0.4652    3.3141 C   0  0  0  0  0  0  0  0  0  0  0  0
    2.1992   -0.5080    2.3937 C   0  0  0  0  0  0  0  0  0  0  0  0
    2.4021   -0.2357    1.0546 C   0  0  0  0  0  0  0  0  0  0  0  0
    1.4636    0.2473    0.0655 C   0  0  0  0  0  0  0  0  0  0  0  0
    1.5959    0.0242   -1.1346 O   0  0  0  0  0  0  0  0  0  0  0  0
    0.4243    1.0145    0.5403 N   0  0  0  0  0  0  0  0  0  0  0  0
   -0.6054    1.5525   -0.3866 C   0  0  2  0  0  0  0  0  0  0  0  0
   -1.8257    2.2198    0.2819 C   0  0  0  0  0  0  0  0  0  0  0  0
   -2.0001    2.9995    1.1900 O   0  0  0  0  0  0  0  0  0  0  0  0
   -2.7049    1.4449   -0.4243 N   0  0  0  0  0  0  0  0  0  0  0  0
   -1.6491    0.5598   -0.9535 C   0  0  2  0  0  0  0  0  0  0  0  0
   -1.9289   -1.0208   -0.0596 S   0  0  0  0  0  0  0  0  0  0  0  0
   -3.7560   -0.6950    0.0317 C   0  0  0  0  0  0  0  0  0  0  0  0
   -4.3864   -1.1498   -1.2920 C   0  0  0  0  0  0  0  0  0  0  0  0
   -4.3322   -1.5004    1.1986 C   0  0  0  0  0  0  0  0  0  0  0  0
   -3.8301    0.8261    0.2812 C   0  0  2  0  0  0  0  0  0  0  0  0
   -5.1806    1.4296   -0.0939 C   0  0  0  0  0  0  0  0  0  0  0  0
   -6.2579    1.0977    0.3789 O   0  0  0  0  0  0  0  0  0  0  0  0
   -5.1318    2.3868   -1.0413 O   0  0  0  0  0  0  0  0  0  0  0  0
    3.7688   -0.5912    0.8429 C   0  0  0  0  0  0  0  0  0  0  0  0
    4.5344   -0.5322   -0.3945 C   0  0  0  0  0  0  0  0  0  0  0  0
    4.7619   -1.6922   -1.1542 C   0  0  0  0  0  0  0  0  0  0  0  0
    4.1368   -3.2403   -0.6922 Cl  0  0  0  0  0  0  0  0  0  0  0  0
    5.5005   -1.6319   -2.3422 C   0  0  0  0  0  0  0  0  0  0  0  0
    6.0164   -0.4168   -2.7880 C   0  0  0  0  0  0  0  0  0  0  0  0
    5.7913    0.7422   -2.0486 C   0  0  0  0  0  0  0  0  0  0  0  0
    5.0535    0.6880   -0.8601 C   0  0  0  0  0  0  0  0  0  0  0  0
    4.8140    2.1795   -0.0105 Cl  0  0  0  0  0  0  0  0  0  0  0  0
    4.3468   -0.9907    1.9845 N   0  0  0  0  0  0  0  0  0  0  0  0
    3.3627   -0.9419    2.9460 O   0  0  0  0  0  0  0  0  0  0  0  0
    0.1340   -0.8076    2.8154 H   0  0  0  0  0  0  0  0  0  0  0  0
    1.2091   -1.1111    4.1829 H   0  0  0  0  0  0  0  0  0  0  0  0
    0.8838    0.5544    3.6764 H   0  0  0  0  0  0  0  0  0  0  0  0
    0.4255    1.3135    1.5071 H   0  0  0  0  0  0  0  0  0  0  0  0
   -0.1512    2.2059   -1.1422 H   0  0  0  0  0  0  0  0  0  0  0  0
   -1.6743    0.4832   -2.0447 H   0  0  0  0  0  0  0  0  0  0  0  0
   -4.1799   -2.2081   -1.4919 H   0  0  0  0  0  0  0  0  0  0  0  0
   -4.0236   -0.5693   -2.1474 H   0  0  0  0  0  0  0  0  0  0  0  0
   -5.4766   -1.0418   -1.2664 H   0  0  0  0  0  0  0  0  0  0  0  0
   -4.1913   -2.5779    1.0536 H   0  0  0  0  0  0  0  0  0  0  0  0
   -5.4090   -1.3263    1.2997 H   0  0  0  0  0  0  0  0  0  0  0  0
   -3.8675   -1.2265    2.1530 H   0  0  0  0  0  0  0  0  0  0  0  0
   -3.7016    1.0404    1.3520 H   0  0  0  0  0  0  0  0  0  0  0  0
   -6.0590    2.6879   -1.1414 H   0  0  0  0  0  0  0  0  0  0  0  0
    5.6723   -2.5330   -2.9269 H   0  0  0  0  0  0  0  0  0  0  0  0
    6.5884   -0.3731   -3.7119 H   0  0  0  0  0  0  0  0  0  0  0  0
    6.1921    1.6891   -2.4037 H   0  0  0  0  0  0  0  0  0  0  0  0
  1  2  1  0
  2  3  2  0
  3  4  1  0
  4  5  2  0
  4  6  1  0
  6  7  1  0
  7  8  1  0
  8  9  2  0
  8 10  1  0
 10 11  1  0
 11 12  1  0
 12 13  1  0
 13 14  1  0
 13 15  1  0
 13 16  1  0
 16 17  1  0
 17 18  2  0
 17 19  1  0
  3 20  1  0
 20 21  1  0
 21 22  2  0
 22 23  1  0
 22 24  1  0
 24 25  2  0
 25 26  1  0
 26 27  2  0
 27 28  1  0
 20 29  2  0
 29 30  1  0
 30  2  1  0
 11  7  1  0
 27 21  1  0
 16 10  1  0
  1 31  1  0
  1 32  1  0
  1 33  1  0
  6 34  1  0
  7 35  1  6
 11 36  1  6
 14 37  1  0
 14 38  1  0
 14 39  1  0
 15 40  1  0
 15 41  1  0
 15 42  1  0
 16 43  1  1
 19 44  1  0
 24 45  1  0
 25 46  1  0
 26 47  1  0
M  END
$$$$
OCNT-2328990
     RDKit          3D

 58 61  0  0  0  0  0  0  0  0999 V2000
   -2.1646    3.9319   -2.0215 C   0  0  0  0  0  0  0  0  0  0  0  0
   -1.1840    3.6927   -0.8854 C   0  0  0  0  0  0  0  0  0  0  0  0
   -0.9787    2.2806   -0.6220 N   0  0  0  0  0  0  0  0  0  0  0  0
   -0.1687    1.4486   -1.4690 C   0  0  0  0  0  0  0  0  0  0  0  0
   -0.0862    0.1343   -0.6873 C   0  0  0  0  0  0  0  0  0  0  0  0
    1.0488    0.2047    0.3795 C   0  0  0  0  0  0  0  0  0  0  0  0
    2.4575    0.1671   -0.2439 C   0  0  0  0  0  0  0  0  0  0  0  0
    3.5097    0.2425    0.7771 N   0  0  0  0  0  0  0  0  0  0  0  0
    4.7948    0.6671    0.1806 C   0  0  0  0  0  0  0  0  0  0  0  0
    5.9841    0.3134    1.0843 C   0  0  0  0  0  0  0  0  0  0  0  0
    6.1497   -1.1016    1.2472 O   0  0  0  0  0  0  0  0  0  0  0  0
    4.9192   -1.8270    1.1315 C   0  0  0  0  0  0  0  0  0  0  0  0
    3.6841   -1.0097    1.5475 C   0  0  0  0  0  0  0  0  0  0  0  0
   -1.5524    0.0086   -0.0935 C   0  0  0  0  0  0  0  0  0  0  0  0
   -1.5643   -0.8938    1.1589 C   0  0  0  0  0  0  0  0  0  0  0  0
   -1.6893   -0.3892    2.4640 C   0  0  0  0  0  0  0  0  0  0  0  0
   -1.6688   -1.2426    3.5714 C   0  0  0  0  0  0  0  0  0  0  0  0
   -1.5194   -2.6153    3.3987 C   0  0  0  0  0  0  0  0  0  0  0  0
   -1.3887   -3.1392    2.1172 C   0  0  0  0  0  0  0  0  0  0  0  0
   -1.4078   -2.2886    1.0097 C   0  0  0  0  0  0  0  0  0  0  0  0
   -2.6290   -0.5000   -1.1043 C   0  0  0  0  0  0  0  0  0  0  0  0
   -2.3265   -1.0645   -2.3558 C   0  0  0  0  0  0  0  0  0  0  0  0
   -3.3403   -1.5111   -3.2111 C   0  0  0  0  0  0  0  0  0  0  0  0
   -4.6754   -1.4115   -2.8329 C   0  0  0  0  0  0  0  0  0  0  0  0
   -5.0011   -0.8694   -1.5955 C   0  0  0  0  0  0  0  0  0  0  0  0
   -3.9908   -0.4235   -0.7410 C   0  0  0  0  0  0  0  0  0  0  0  0
   -1.8545    1.5218    0.1571 C   0  0  0  0  0  0  0  0  0  0  0  0
   -2.7431    1.9964    0.8530 O   0  0  0  0  0  0  0  0  0  0  0  0
   -2.3121    5.0050   -2.1767 H   0  0  0  0  0  0  0  0  0  0  0  0
   -1.7976    3.4997   -2.9578 H   0  0  0  0  0  0  0  0  0  0  0  0
   -3.1379    3.4798   -1.8043 H   0  0  0  0  0  0  0  0  0  0  0  0
   -0.2125    4.1452   -1.1098 H   0  0  0  0  0  0  0  0  0  0  0  0
   -1.5713    4.1611    0.0261 H   0  0  0  0  0  0  0  0  0  0  0  0
    0.7935    1.9310   -1.6500 H   0  0  0  0  0  0  0  0  0  0  0  0
   -0.6810    1.3202   -2.4279 H   0  0  0  0  0  0  0  0  0  0  0  0
    0.1659   -0.7020   -1.3459 H   0  0  0  0  0  0  0  0  0  0  0  0
    0.9430    1.1084    0.9930 H   0  0  0  0  0  0  0  0  0  0  0  0
    0.9597   -0.6474    1.0573 H   0  0  0  0  0  0  0  0  0  0  0  0
    2.5791   -0.7315   -0.8619 H   0  0  0  0  0  0  0  0  0  0  0  0
    2.5615    1.0280   -0.9127 H   0  0  0  0  0  0  0  0  0  0  0  0
    4.9426    0.1779   -0.7915 H   0  0  0  0  0  0  0  0  0  0  0  0
    4.7707    1.7498    0.0141 H   0  0  0  0  0  0  0  0  0  0  0  0
    5.8707    0.7636    2.0775 H   0  0  0  0  0  0  0  0  0  0  0  0
    6.9125    0.7034    0.6549 H   0  0  0  0  0  0  0  0  0  0  0  0
    5.0065   -2.7194    1.7598 H   0  0  0  0  0  0  0  0  0  0  0  0
    4.8222   -2.1698    0.0947 H   0  0  0  0  0  0  0  0  0  0  0  0
    2.7998   -1.6536    1.5052 H   0  0  0  0  0  0  0  0  0  0  0  0
    3.8044   -0.7183    2.5986 H   0  0  0  0  0  0  0  0  0  0  0  0
   -1.8022    0.6759    2.6527 H   0  0  0  0  0  0  0  0  0  0  0  0
   -1.7720   -0.8288    4.5715 H   0  0  0  0  0  0  0  0  0  0  0  0
   -1.5082   -3.2744    4.2624 H   0  0  0  0  0  0  0  0  0  0  0  0
   -1.2762   -4.2109    1.9768 H   0  0  0  0  0  0  0  0  0  0  0  0
   -1.3048   -2.7285    0.0198 H   0  0  0  0  0  0  0  0  0  0  0  0
   -1.3063   -1.1800   -2.7047 H   0  0  0  0  0  0  0  0  0  0  0  0
   -3.0844   -1.9420   -4.1759 H   0  0  0  0  0  0  0  0  0  0  0  0
   -5.4603   -1.7599   -3.4985 H   0  0  0  0  0  0  0  0  0  0  0  0
   -6.0408   -0.7933   -1.2879 H   0  0  0  0  0  0  0  0  0  0  0  0
   -4.2788   -0.0120    0.2269 H   0  0  0  0  0  0  0  0  0  0  0  0
  1  2  1  0
  2  3  1  0
  3  4  1  0
  4  5  1  0
  5  6  1  0
  6  7  1  0
  7  8  1  0
  8  9  1  0
  9 10  1  0
 10 11  1  0
 11 12  1  0
 12 13  1  0
  5 14  1  0
 14 15  1  0
 15 16  2  0
 16 17  1  0
 17 18  2  0
 18 19  1  0
 19 20  2  0
 14 21  1  0
 21 22  2  0
 22 23  1  0
 23 24  2  0
 24 25  1  0
 25 26  2  0
 14 27  1  0
 27 28  2  0
 27  3  1  0
 13  8  1  0
 20 15  1  0
 26 21  1  0
  1 29  1  0
  1 30  1  0
  1 31  1  0
  2 32  1  0
  2 33  1  0
  4 34  1  0
  4 35  1  0
  5 36  1  0
  6 37  1  0
  6 38  1  0
  7 39  1  0
  7 40  1  0
  9 41  1  0
  9 42  1  0
 10 43  1  0
 10 44  1  0
 12 45  1  0
 12 46  1  0
 13 47  1  0
 13 48  1  0
 16 49  1  0
 17 50  1  0
 18 51  1  0
 19 52  1  0
 20 53  1  0
 22 54  1  0
 23 55  1  0
 24 56  1  0
 25 57  1  0
 26 58  1  0
M  END
$$$$
OCNT-2328994
     RDKit          3D

 47 49  0  0  0  0  0  0  0  0999 V2000
   -3.6906   -1.2716   -2.7322 C   0  0  0  0  0  0  0  0  0  0  0  0
   -3.1321   -1.5666   -1.3423 C   0  0  0  0  0  0  0  0  0  0  0  0
   -3.7552   -0.7373   -0.2971 N   0  0  0  0  0  0  0  0  0  0  0  0
   -5.1209   -1.1956    0.0120 C   0  0  0  0  0  0  0  0  0  0  0  0
   -5.9584   -0.1026    0.6712 C   0  0  0  0  0  0  0  0  0  0  0  0
   -2.9267   -0.7144    0.9300 C   0  0  0  0  0  0  0  0  0  0  0  0
   -1.7241    0.2035    0.8317 C   0  0  0  0  0  0  0  0  0  0  0  0
   -0.4451   -0.3323    0.5880 C   0  0  0  0  0  0  0  0  0  0  0  0
    0.6896    0.4868    0.4921 C   0  0  0  0  0  0  0  0  0  0  0  0
    1.9463   -0.0897    0.1969 N   0  0  0  0  0  0  0  0  0  0  0  0
    3.2287    0.3545    0.6275 C   0  0  0  0  0  0  0  0  0  0  0  0
    3.3964    0.9545    1.8762 C   0  0  0  0  0  0  0  0  0  0  0  0
    4.6715    1.2939    2.2796 C   0  0  0  0  0  0  0  0  0  0  0  0
    5.7782    1.0645    1.5448 N   0  0  0  0  0  0  0  0  0  0  0  0
    5.6333    0.4693    0.3510 C   0  0  0  0  0  0  0  0  0  0  0  0
    6.7724    0.2232   -0.4008 C   0  0  0  0  0  0  0  0  0  0  0  0
    6.6969   -0.3912   -1.6487 C   0  0  0  0  0  0  0  0  0  0  0  0
    8.1343   -0.6789   -2.5499 Cl  0  0  0  0  0  0  0  0  0  0  0  0
    5.4690   -0.7709   -2.1726 C   0  0  0  0  0  0  0  0  0  0  0  0
    4.3115   -0.5332   -1.4339 C   0  0  0  0  0  0  0  0  0  0  0  0
    4.3739    0.0835   -0.1627 C   0  0  0  0  0  0  0  0  0  0  0  0
    0.5199    1.8722    0.5930 C   0  0  0  0  0  0  0  0  0  0  0  0
   -0.7384    2.4240    0.8429 C   0  0  0  0  0  0  0  0  0  0  0  0
   -1.8469    1.5898    0.9694 C   0  0  0  0  0  0  0  0  0  0  0  0
   -3.0716    2.1288    1.2445 O   0  0  0  0  0  0  0  0  0  0  0  0
   -4.7335   -1.5819   -2.8383 H   0  0  0  0  0  0  0  0  0  0  0  0
   -3.6219   -0.2034   -2.9642 H   0  0  0  0  0  0  0  0  0  0  0  0
   -3.1113   -1.8142   -3.4870 H   0  0  0  0  0  0  0  0  0  0  0  0
   -3.2333   -2.6348   -1.1127 H   0  0  0  0  0  0  0  0  0  0  0  0
   -2.0587   -1.3605   -1.4054 H   0  0  0  0  0  0  0  0  0  0  0  0
   -5.1044   -2.0941    0.6417 H   0  0  0  0  0  0  0  0  0  0  0  0
   -5.6543   -1.4721   -0.9033 H   0  0  0  0  0  0  0  0  0  0  0  0
   -5.5913    0.1626    1.6664 H   0  0  0  0  0  0  0  0  0  0  0  0
   -6.9923   -0.4455    0.7852 H   0  0  0  0  0  0  0  0  0  0  0  0
   -5.9735    0.8039    0.0567 H   0  0  0  0  0  0  0  0  0  0  0  0
   -3.5035   -0.3748    1.7985 H   0  0  0  0  0  0  0  0  0  0  0  0
   -2.6062   -1.7319    1.1943 H   0  0  0  0  0  0  0  0  0  0  0  0
   -0.3419   -1.4085    0.4715 H   0  0  0  0  0  0  0  0  0  0  0  0
    1.9143   -1.1059    0.2509 H   0  0  0  0  0  0  0  0  0  0  0  0
    2.5566    1.1418    2.5356 H   0  0  0  0  0  0  0  0  0  0  0  0
    4.8456    1.7664    3.2423 H   0  0  0  0  0  0  0  0  0  0  0  0
    7.7378    0.5205    0.0010 H   0  0  0  0  0  0  0  0  0  0  0  0
    5.4031   -1.2424   -3.1494 H   0  0  0  0  0  0  0  0  0  0  0  0
    3.3518   -0.8164   -1.8614 H   0  0  0  0  0  0  0  0  0  0  0  0
    1.3689    2.5388    0.4641 H   0  0  0  0  0  0  0  0  0  0  0  0
   -0.8327    3.5015    0.9340 H   0  0  0  0  0  0  0  0  0  0  0  0
   -3.0311    3.0867    1.0949 H   0  0  0  0  0  0  0  0  0  0  0  0
  1  2  1  0
  2  3  1  0
  3  4  1  0
  4  5  1  0
  3  6  1  0
  6  7  1  0
  7  8  1  0
  8  9  2  0
  9 10  1  0
 10 11  1  0
 11 12  2  0
 12 13  1  0
 13 14  2  0
 14 15  1  0
 15 16  2  0
 16 17  1  0
 17 18  1  0
 17 19  2  0
 19 20  1  0
 20 21  2  0
  9 22  1  0
 22 23  2  0
 23 24  1  0
 24 25  1  0
 24  7  2  0
 21 11  1  0
 21 15  1  0
  1 26  1  0
  1 27  1  0
  1 28  1  0
  2 29  1  0
  2 30  1  0
  4 31  1  0
  4 32  1  0
  5 33  1  0
  5 34  1  0
  5 35  1  0
  6 36  1  0
  6 37  1  0
  8 38  1  0
 10 39  1  0
 12 40  1  0
 13 41  1  0
 16 42  1  0
 19 43  1  0
 20 44  1  0
 22 45  1  0
 23 46  1  0
 25 47  1  0
M  END
$$$$
