OCNT-2328931
     RDKit          3D

 34 36  0  0  0  0  0  0  0  0999 V2000
   -1.5812    3.6366   -0.6037 C   0  0  0  0  0  0  0  0  0  0  0  0
   -2.0519    2.5429   -1.5487 C   0  0  0  0  0  0  0  0  0  0  0  0
   -1.8892    1.1923   -0.9462 C   0  0  0  0  0  0  0  0  0  0  0  0
   -0.8051    0.3441   -0.7680 C   0  0  0  0  0  0  0  0  0  0  0  0
    0.5505    0.6540   -1.1938 C   0  0  0  0  0  0  0  0  0  0  0  0
    0.7904    1.3331   -2.1887 O   0  0  0  0  0  0  0  0  0  0  0  0
    1.7019    0.1551   -0.3999 C   0  0  0  0  0  0  0  0  0  0  0  0
    1.6695    0.1327    1.0000 C   0  0  0  0  0  0  0  0  0  0  0  0
    2.7787   -0.3325    1.7132 C   0  0  0  0  0  0  0  0  0  0  0  0
    2.6508   -0.3674    3.8022 I   0  0  0  0  0  0  0  0  0  0  0  0
    3.9272   -0.7562    1.0349 C   0  0  0  0  0  0  0  0  0  0  0  0
    5.0012   -1.2108    1.7524 O   0  0  0  0  0  0  0  0  0  0  0  0
    3.9631   -0.7062   -0.3639 C   0  0  0  0  0  0  0  0  0  0  0  0
    5.6561   -1.3132   -1.4300 I   0  0  0  0  0  0  0  0  0  0  0  0
    2.8571   -0.2471   -1.0821 C   0  0  0  0  0  0  0  0  0  0  0  0
   -1.3332   -0.8317   -0.1369 C   0  0  0  0  0  0  0  0  0  0  0  0
   -0.8304   -2.0830    0.2778 C   0  0  0  0  0  0  0  0  0  0  0  0
   -1.6985   -2.9997    0.8897 C   0  0  0  0  0  0  0  0  0  0  0  0
   -3.0467   -2.6951    1.0821 C   0  0  0  0  0  0  0  0  0  0  0  0
   -3.5736   -1.4705    0.6639 C   0  0  0  0  0  0  0  0  0  0  0  0
   -2.6865   -0.5817    0.0603 C   0  0  0  0  0  0  0  0  0  0  0  0
   -3.0196    0.6416   -0.4239 O   0  0  0  0  0  0  0  0  0  0  0  0
   -0.5182    3.5268   -0.3637 H   0  0  0  0  0  0  0  0  0  0  0  0
   -2.1413    3.6139    0.3374 H   0  0  0  0  0  0  0  0  0  0  0  0
   -1.7249    4.6206   -1.0612 H   0  0  0  0  0  0  0  0  0  0  0  0
   -1.4971    2.6031   -2.4911 H   0  0  0  0  0  0  0  0  0  0  0  0
   -3.1062    2.7126   -1.7979 H   0  0  0  0  0  0  0  0  0  0  0  0
    0.7880    0.4826    1.5334 H   0  0  0  0  0  0  0  0  0  0  0  0
    5.7134   -1.4366    1.1275 H   0  0  0  0  0  0  0  0  0  0  0  0
    2.8805   -0.1972   -2.1698 H   0  0  0  0  0  0  0  0  0  0  0  0
    0.2101   -2.3550    0.1284 H   0  0  0  0  0  0  0  0  0  0  0  0
   -1.3148   -3.9648    1.2153 H   0  0  0  0  0  0  0  0  0  0  0  0
   -3.7006   -3.4234    1.5573 H   0  0  0  0  0  0  0  0  0  0  0  0
   -4.6194   -1.2197    0.7936 H   0  0  0  0  0  0  0  0  0  0  0  0
  1  2  1  0
  2  3  1  0
  3  4  2  0
  4  5  1  0
  5  6  2  0
  5  7  1  0
  7  8  1  0
  8  9  2  0
  9 10  1  0
  9 11  1  0
 11 12  1  0
 11 13  2  0
 13 14  1  0
 13 15  1  0
  4 16  1  0
 16 17  2  0
 17 18  1  0
 18 19  2  0
 19 20  1  0
 20 21  2  0
 21 22  1  0
 22  3  1  0
 15  7  2  0
 21 16  1  0
  1 23  1  0
  1 24  1  0
  1 25  1  0
  2 26  1  0
  2 27  1  0
  8 28  1  0
 12 29  1  0
 15 30  1  0
 17 31  1  0
 18 32  1  0
 19 33  1  0
 20 34  1  0
M  END
$$$$
OCNT-2328938
     RDKit          3D

 56 60  0  0  0  0  0  0  0  0999 V2000
    6.9907    0.7502    1.6578 C   0  0  0  0  0  0  0  0  0  0  0  0
    6.2660   -0.0528    0.6255 C   0  0  0  0  0  0  0  0  0  0  0  0
    6.8000   -0.2396   -0.6445 C   0  0  0  0  0  0  0  0  0  0  0  0
    6.1859   -0.9251   -1.6332 N   0  0  0  0  0  0  0  0  0  0  0  0
    4.9687   -1.4408   -1.3470 C   0  0  0  0  0  0  0  0  0  0  0  0
    4.3321   -1.3084   -0.1171 C   0  0  0  0  0  0  0  0  0  0  0  0
    2.9786   -1.9271    0.1257 C   0  0  0  0  0  0  0  0  0  0  0  0
    1.9289   -1.4150   -0.7694 N   0  0  0  0  0  0  0  0  0  0  0  0
    1.6898    0.0279   -0.5552 C   0  0  0  0  0  0  0  0  0  0  0  0
    0.2900    0.4879   -0.9967 C   0  0  0  0  0  0  0  0  0  0  0  0
   -0.7993   -0.2002   -0.1818 C   0  0  0  0  0  0  0  0  0  0  0  0
   -2.0239    0.3358    0.0813 C   0  0  0  0  0  0  0  0  0  0  0  0
   -2.3879    1.6551   -0.4879 C   0  0  0  0  0  0  0  0  0  0  0  0
   -1.8726    2.8448    0.0435 C   0  0  0  0  0  0  0  0  0  0  0  0
   -2.2397    4.0750   -0.5038 C   0  0  0  0  0  0  0  0  0  0  0  0
   -3.1338    4.1163   -1.5715 C   0  0  0  0  0  0  0  0  0  0  0  0
   -3.5884    5.6336   -2.2446 Cl  0  0  0  0  0  0  0  0  0  0  0  0
   -3.6757    2.9401   -2.0908 C   0  0  0  0  0  0  0  0  0  0  0  0
   -3.3133    1.7008   -1.5451 C   0  0  0  0  0  0  0  0  0  0  0  0
   -3.9368    0.4190   -2.0404 C   0  0  0  0  0  0  0  0  0  0  0  0
   -4.8855   -0.1933   -1.0011 C   0  0  0  0  0  0  0  0  0  0  0  0
   -4.3390   -0.6731    0.3293 C   0  0  0  0  0  0  0  0  0  0  0  0
   -5.2227   -1.3926    1.1537 C   0  0  0  0  0  0  0  0  0  0  0  0
   -4.8184   -1.8441    2.4042 C   0  0  0  0  0  0  0  0  0  0  0  0
   -3.5314   -1.5591    2.8095 C   0  0  0  0  0  0  0  0  0  0  0  0
   -2.6477   -0.8721    2.0590 N   0  0  0  0  0  0  0  0  0  0  0  0
   -3.0505   -0.4395    0.8319 C   0  0  0  0  0  0  0  0  0  0  0  0
   -0.3797   -1.5963    0.2693 C   0  0  0  0  0  0  0  0  0  0  0  0
    0.6886   -2.2045   -0.6548 C   0  0  0  0  0  0  0  0  0  0  0  0
    5.0029   -0.5930    0.8802 C   0  0  0  0  0  0  0  0  0  0  0  0
    6.7601    0.3888    2.6655 H   0  0  0  0  0  0  0  0  0  0  0  0
    8.0749    0.6715    1.5254 H   0  0  0  0  0  0  0  0  0  0  0  0
    6.7018    1.8032    1.5853 H   0  0  0  0  0  0  0  0  0  0  0  0
    7.7695    0.1707   -0.9145 H   0  0  0  0  0  0  0  0  0  0  0  0
    4.4951   -1.9781   -2.1651 H   0  0  0  0  0  0  0  0  0  0  0  0
    2.6837   -1.8023    1.1761 H   0  0  0  0  0  0  0  0  0  0  0  0
    3.1034   -3.0076   -0.0284 H   0  0  0  0  0  0  0  0  0  0  0  0
    1.8152    0.2936    0.5039 H   0  0  0  0  0  0  0  0  0  0  0  0
    2.4369    0.5969   -1.1210 H   0  0  0  0  0  0  0  0  0  0  0  0
    0.1435    0.2565   -2.0595 H   0  0  0  0  0  0  0  0  0  0  0  0
    0.2572    1.5755   -0.8952 H   0  0  0  0  0  0  0  0  0  0  0  0
   -1.1834    2.8133    0.8846 H   0  0  0  0  0  0  0  0  0  0  0  0
   -1.8291    4.9925   -0.0914 H   0  0  0  0  0  0  0  0  0  0  0  0
   -4.3876    2.9917   -2.9107 H   0  0  0  0  0  0  0  0  0  0  0  0
   -4.5061    0.6203   -2.9568 H   0  0  0  0  0  0  0  0  0  0  0  0
   -3.1540   -0.2935   -2.3291 H   0  0  0  0  0  0  0  0  0  0  0  0
   -5.3694   -1.0531   -1.4841 H   0  0  0  0  0  0  0  0  0  0  0  0
   -5.6784    0.5355   -0.7828 H   0  0  0  0  0  0  0  0  0  0  0  0
   -6.2384   -1.5973    0.8211 H   0  0  0  0  0  0  0  0  0  0  0  0
   -5.4938   -2.3974    3.0465 H   0  0  0  0  0  0  0  0  0  0  0  0
   -3.1634   -1.8819    3.7788 H   0  0  0  0  0  0  0  0  0  0  0  0
    0.0150   -1.5408    1.2913 H   0  0  0  0  0  0  0  0  0  0  0  0
   -1.2327   -2.2838    0.2731 H   0  0  0  0  0  0  0  0  0  0  0  0
    0.2646   -2.2942   -1.6641 H   0  0  0  0  0  0  0  0  0  0  0  0
    0.8985   -3.2351   -0.3422 H   0  0  0  0  0  0  0  0  0  0  0  0
    4.5405   -0.4549    1.8548 H   0  0  0  0  0  0  0  0  0  0  0  0
  1  2  1  0
  2  3  1  0
  3  4  2  0
  4  5  1  0
  5  6  2  0
  6  7  1  0
  7  8  1  0
  8  9  1  0
  9 10  1  0
 10 11  1  0
 11 12  2  3
 12 13  1  0
 13 14  1  0
 14 15  2  0
 15 16  1  0
 16 17  1  0
 16 18  2  0
 18 19  1  0
 19 20  1  0
 20 21  1  0
 21 22  1  0
 22 23  1  0
 23 24  2  0
 24 25  1  0
 25 26  2  0
 26 27  1  0
 11 28  1  0
 28 29  1  0
  6 30  1  0
 30  2  2  0
 29  8  1  0
 27 12  1  0
 19 13  2  0
 27 22  2  0
  1 31  1  0
  1 32  1  0
  1 33  1  0
  3 34  1  0
  5 35  1  0
  7 36  1  0
  7 37  1  0
  9 38  1  0
  9 39  1  0
 10 40  1  0
 10 41  1  0
 14 42  1  0
 15 43  1  0
 18 44  1  0
 20 45  1  0
 20 46  1  0
 21 47  1  0
 21 48  1  0
 23 49  1  0
 24 50  1  0
 25 51  1  0
 28 52  1  0
 28 53  1  0
 29 54  1  0
 29 55  1  0
 30 56  1  0
M  END
$$$$
OCNT-2328946
     RDKit          3D

 22 23  0  0  0  0  0  0  0  0999 V2000
    4.1342    0.7201    0.3732 C   0  0  0  0  0  0  0  0  0  0  0  0
    3.2794    0.1079   -0.5844 O   0  0  0  0  0  0  0  0  0  0  0  0
    1.9554    0.0095   -0.2587 C   0  0  0  0  0  0  0  0  0  0  0  0
    1.1632   -0.6196   -1.2214 C   0  0  0  0  0  0  0  0  0  0  0  0
   -0.2096   -0.7878   -1.0189 C   0  0  0  0  0  0  0  0  0  0  0  0
   -0.8123   -0.3273    0.1580 C   0  0  0  0  0  0  0  0  0  0  0  0
   -2.2552   -0.4883    0.3648 C   0  0  0  0  0  0  0  0  0  0  0  0
   -3.1586    0.1303   -0.4046 C   0  0  0  0  0  0  0  0  0  0  0  0
   -4.5775   -0.1245   -0.0824 C   0  0  0  0  0  0  0  0  0  0  0  0
   -5.8733    0.5327   -0.9076 S   0  0  0  0  0  0  0  0  0  0  0  0
   -4.7650   -1.2103    1.2864 S   0  0  0  0  0  0  0  0  0  0  0  0
   -2.7782   -1.5181    1.6469 S   0  0  0  0  0  0  0  0  0  0  0  0
   -0.0143    0.3063    1.1205 C   0  0  0  0  0  0  0  0  0  0  0  0
    1.3611    0.4728    0.9144 C   0  0  0  0  0  0  0  0  0  0  0  0
    4.1442    0.1560    1.3117 H   0  0  0  0  0  0  0  0  0  0  0  0
    3.8529    1.7648    0.5420 H   0  0  0  0  0  0  0  0  0  0  0  0
    5.1508    0.7106   -0.0317 H   0  0  0  0  0  0  0  0  0  0  0  0
    1.6209   -0.9855   -2.1378 H   0  0  0  0  0  0  0  0  0  0  0  0
   -0.7962   -1.2895   -1.7854 H   0  0  0  0  0  0  0  0  0  0  0  0
   -2.9020    0.7912   -1.2224 H   0  0  0  0  0  0  0  0  0  0  0  0
   -0.4556    0.6801    2.0426 H   0  0  0  0  0  0  0  0  0  0  0  0
    1.9356    0.9686    1.6898 H   0  0  0  0  0  0  0  0  0  0  0  0
  1  2  1  0
  2  3  1  0
  3  4  1  0
  4  5  2  0
  5  6  1  0
  6  7  1  0
  7  8  2  0
  8  9  1  0
  9 10  2  0
  9 11  1  0
 11 12  1  0
  6 13  2  0
 13 14  1  0
 14  3  2  0
 12  7  1  0
  1 15  1  0
  1 16  1  0
  1 17  1  0
  4 18  1  0
  5 19  1  0
  8 20  1  0
 13 21  1  0
 14 22  1  0
M  END
$$$$
OCNT-2328950
     RDKit          3D

 35 36  0  0  0  0  0  0  0  0999 V2000
    4.4104    1.3515    0.0218 C   0  0  0  0  0  0  0  0  0  0  0  0
    4.2473   -0.1404   -0.2463 C   0  0  0  0  0  0  0  0  0  0  0  0
    4.0869   -0.9754    1.0187 C   0  0  0  0  0  0  0  0  0  0  0  0
    3.2196   -0.4210   -1.2503 N   0  0  0  0  0  0  0  0  0  0  0  0
    1.8436   -0.3295   -1.1124 C   0  0  0  0  0  0  0  0  0  0  0  0
    1.0450   -0.8158   -2.1578 C   0  0  0  0  0  0  0  0  0  0  0  0
   -0.3529   -0.7142   -2.1331 C   0  0  0  0  0  0  0  0  0  0  0  0
   -1.0092   -0.0941   -1.0683 C   0  0  0  0  0  0  0  0  0  0  0  0
   -2.4123   -0.0496   -1.0602 N   0  0  0  0  0  0  0  0  0  0  0  0
   -3.3463    0.0360   -0.0132 C   0  0  0  0  0  0  0  0  0  0  0  0
   -3.0728   -0.3947    1.2898 C   0  0  0  0  0  0  0  0  0  0  0  0
   -4.0197   -0.2563    2.3095 C   0  0  0  0  0  0  0  0  0  0  0  0
   -5.2553    0.3257    2.0404 C   0  0  0  0  0  0  0  0  0  0  0  0
   -5.5438    0.7672    0.7524 C   0  0  0  0  0  0  0  0  0  0  0  0
   -4.5946    0.6246   -0.2640 C   0  0  0  0  0  0  0  0  0  0  0  0
   -0.2207    0.4150   -0.0372 C   0  0  0  0  0  0  0  0  0  0  0  0
    1.1803    0.3141   -0.0698 C   0  0  0  0  0  0  0  0  0  0  0  0
    5.3129    1.5338    0.6157 H   0  0  0  0  0  0  0  0  0  0  0  0
    4.5102    1.9067   -0.9174 H   0  0  0  0  0  0  0  0  0  0  0  0
    3.5713    1.7816    0.5723 H   0  0  0  0  0  0  0  0  0  0  0  0
    5.1927   -0.4619   -0.7041 H   0  0  0  0  0  0  0  0  0  0  0  0
    4.9713   -0.8732    1.6570 H   0  0  0  0  0  0  0  0  0  0  0  0
    3.2212   -0.6764    1.6150 H   0  0  0  0  0  0  0  0  0  0  0  0
    3.9716   -2.0367    0.7730 H   0  0  0  0  0  0  0  0  0  0  0  0
    3.4885   -1.1841   -1.8670 H   0  0  0  0  0  0  0  0  0  0  0  0
    1.5098   -1.2898   -3.0193 H   0  0  0  0  0  0  0  0  0  0  0  0
   -0.9209   -1.1328   -2.9594 H   0  0  0  0  0  0  0  0  0  0  0  0
   -2.8300   -0.0752   -1.9830 H   0  0  0  0  0  0  0  0  0  0  0  0
   -2.1269   -0.8768    1.5210 H   0  0  0  0  0  0  0  0  0  0  0  0
   -3.7895   -0.6083    3.3115 H   0  0  0  0  0  0  0  0  0  0  0  0
   -5.9909    0.4347    2.8327 H   0  0  0  0  0  0  0  0  0  0  0  0
   -6.5042    1.2275    0.5369 H   0  0  0  0  0  0  0  0  0  0  0  0
   -4.8350    0.9914   -1.2586 H   0  0  0  0  0  0  0  0  0  0  0  0
   -0.6799    0.9395    0.7963 H   0  0  0  0  0  0  0  0  0  0  0  0
    1.7224    0.7569    0.7560 H   0  0  0  0  0  0  0  0  0  0  0  0
  1  2  1  0
  2  3  1  0
  2  4  1  0
  4  5  1  0
  5  6  1  0
  6  7  2  0
  7  8  1  0
  8  9  1  0
  9 10  1  0
 10 11  2  0
 11 12  1  0
 12 13  2  0
 13 14  1  0
 14 15  2  0
  8 16  2  0
 16 17  1  0
 17  5  2  0
 15 10  1  0
  1 18  1  0
  1 19  1  0
  1 20  1  0
  2 21  1  0
  3 22  1  0
  3 23  1  0
  3 24  1  0
  4 25  1  0
  6 26  1  0
  7 27  1  0
  9 28  1  0
 11 29  1  0
 12 30  1  0
 13 31  1  0
 14 32  1  0
 15 33  1  0
 16 34  1  0
 17 35  1  0
M  END
$$$$
OCNT-2328958
     RDKit          3D

 30 32  0  0  0  0  0  0  0  0999 V2000
    6.1970    0.3504   -1.0514 C   0  0  0  0  0  0  0  0  0  0  0  0
    5.5395    0.1739    0.6230 S   0  0  0  0  0  0  0  0  0  0  0  0
    3.8759   -0.1079    0.2761 C   0  0  0  0  0  0  0  0  0  0  0  0
    3.3016   -0.1844   -0.8990 N   0  0  0  0  0  0  0  0  0  0  0  0
    1.9753   -0.4162   -0.6259 C   0  0  0  0  0  0  0  0  0  0  0  0
    0.8986   -0.5907   -1.5050 C   0  0  0  0  0  0  0  0  0  0  0  0
   -0.3807   -0.8192   -0.9742 C   0  0  0  0  0  0  0  0  0  0  0  0
   -1.6432   -1.1157   -2.1177 Cl  0  0  0  0  0  0  0  0  0  0  0  0
   -0.5858   -0.8496    0.4156 C   0  0  0  0  0  0  0  0  0  0  0  0
   -1.7972   -1.0875    1.0365 O   0  0  0  0  0  0  0  0  0  0  0  0
   -2.8734   -0.2880    0.7102 C   0  0  0  0  0  0  0  0  0  0  0  0
   -4.0206   -0.9919    0.3143 C   0  0  0  0  0  0  0  0  0  0  0  0
   -5.1858   -0.3120   -0.0300 C   0  0  0  0  0  0  0  0  0  0  0  0
   -5.2185    1.0779    0.0419 C   0  0  0  0  0  0  0  0  0  0  0  0
   -4.0928    1.7878    0.4767 C   0  0  0  0  0  0  0  0  0  0  0  0
   -4.2415    3.5111    0.5673 Cl  0  0  0  0  0  0  0  0  0  0  0  0
   -2.9129    1.1112    0.8302 C   0  0  0  0  0  0  0  0  0  0  0  0
   -1.5648    1.9960    1.4680 Cl  0  0  0  0  0  0  0  0  0  0  0  0
    0.4959   -0.7178    1.3049 C   0  0  0  0  0  0  0  0  0  0  0  0
    1.7527   -0.4872    0.7456 C   0  0  0  0  0  0  0  0  0  0  0  0
    2.9914   -0.2839    1.2984 N   0  0  0  0  0  0  0  0  0  0  0  0
    6.0375   -0.5655   -1.6274 H   0  0  0  0  0  0  0  0  0  0  0  0
    7.2722    0.5408   -0.9965 H   0  0  0  0  0  0  0  0  0  0  0  0
    5.7232    1.1913   -1.5656 H   0  0  0  0  0  0  0  0  0  0  0  0
    1.0721   -0.5594   -2.5751 H   0  0  0  0  0  0  0  0  0  0  0  0
   -3.9933   -2.0782    0.2539 H   0  0  0  0  0  0  0  0  0  0  0  0
   -6.0639   -0.8643   -0.3565 H   0  0  0  0  0  0  0  0  0  0  0  0
   -6.1297    1.6059   -0.2308 H   0  0  0  0  0  0  0  0  0  0  0  0
    0.3468   -0.7671    2.3787 H   0  0  0  0  0  0  0  0  0  0  0  0
    3.2244   -0.2600    2.2796 H   0  0  0  0  0  0  0  0  0  0  0  0
  1  2  1  0
  2  3  1  0
  3  4  2  0
  4  5  1  0
  5  6  2  0
  6  7  1  0
  7  8  1  0
  7  9  2  0
  9 10  1  0
 10 11  1  0
 11 12  2  0
 12 13  1  0
 13 14  2  0
 14 15  1  0
 15 16  1  0
 15 17  2  0
 17 18  1  0
  9 19  1  0
 19 20  2  0
 20 21  1  0
 21  3  1  0
 20  5  1  0
 17 11  1  0
  1 22  1  0
  1 23  1  0
  1 24  1  0
  6 25  1  0
 12 26  1  0
 13 27  1  0
 14 28  1  0
 19 29  1  0
 21 30  1  0
M  END
$$$$
OCNT-2328961
     RDKit          3D

 25 25  0  0  0  0  0  0  0  0999 V2000
   -3.2790    0.3779    1.3314 C   0  0  0  0  0  0  0  0  0  0  0  0
   -3.2989    0.4919   -0.1862 C   0  0  0  0  0  0  0  0  0  0  0  0
   -2.2359    1.4539   -0.7101 C   0  0  0  0  0  0  0  0  0  0  0  0
   -0.9192    1.0294   -0.3258 O   0  0  0  0  0  0  0  0  0  0  0  0
   -0.3298    0.1220   -1.1437 C   0  0  0  0  0  0  0  0  0  0  0  0
   -0.8147   -0.3496   -2.1597 O   0  0  0  0  0  0  0  0  0  0  0  0
    1.0200   -0.2421   -0.6315 C   0  0  0  0  0  0  0  0  0  0  0  0
    1.7808   -1.1617   -1.3674 C   0  0  0  0  0  0  0  0  0  0  0  0
    3.0520   -1.5354   -0.9265 C   0  0  0  0  0  0  0  0  0  0  0  0
    3.5613   -0.9918    0.2471 C   0  0  0  0  0  0  0  0  0  0  0  0
    4.8057   -1.3851    0.6394 O   0  0  0  0  0  0  0  0  0  0  0  0
    2.8212   -0.0783    0.9915 C   0  0  0  0  0  0  0  0  0  0  0  0
    1.5479    0.2973    0.5516 C   0  0  0  0  0  0  0  0  0  0  0  0
   -3.4354    1.3549    1.7996 H   0  0  0  0  0  0  0  0  0  0  0  0
   -2.3266   -0.0266    1.6881 H   0  0  0  0  0  0  0  0  0  0  0  0
   -4.0761   -0.2918    1.6696 H   0  0  0  0  0  0  0  0  0  0  0  0
   -3.1419   -0.5063   -0.6097 H   0  0  0  0  0  0  0  0  0  0  0  0
   -4.2874    0.8356   -0.5103 H   0  0  0  0  0  0  0  0  0  0  0  0
   -2.3880    2.4506   -0.2817 H   0  0  0  0  0  0  0  0  0  0  0  0
   -2.3087    1.5645   -1.7986 H   0  0  0  0  0  0  0  0  0  0  0  0
    1.3871   -1.5910   -2.2868 H   0  0  0  0  0  0  0  0  0  0  0  0
    3.6412   -2.2479   -1.4973 H   0  0  0  0  0  0  0  0  0  0  0  0
    5.0325   -0.9308    1.4673 H   0  0  0  0  0  0  0  0  0  0  0  0
    3.2135    0.3493    1.9091 H   0  0  0  0  0  0  0  0  0  0  0  0
    0.9782    1.0111    1.1417 H   0  0  0  0  0  0  0  0  0  0  0  0
  1  2  1  0
  2  3  1  0
  3  4  1  0
  4  5  1  0
  5  6  2  0
  5  7  1  0
  7  8  1  0
  8  9  2  0
  9 10  1  0
 10 11  1  0
 10 12  2  0
 12 13  1  0
 13  7  2  0
  1 14  1  0
  1 15  1  0
  1 16  1  0
  2 17  1  0
  2 18  1  0
  3 19  1  0
  3 20  1  0
  8 21  1  0
  9 22  1  0
 11 23  1  0
 12 24  1  0
 13 25  1  0
M  END
$$$$
OCNT-2328962
     RDKit          3D

 29 30  0  0  0  0  0  0  0  0999 V2000
    0.0752   -0.5946   -2.2620 O   0  0  0  0  0  0  0  0  0  0  0  0
    0.5279   -0.6902   -1.1320 C   0  0  0  0  0  0  0  0  0  0  0  0
   -0.0600   -1.3105   -0.0820 O   0  0  0  0  0  0  0  0  0  0  0  0
   -1.3595   -1.8592   -0.3304 C   0  0  0  0  0  0  0  0  0  0  0  0
   -2.4083   -0.9042    0.1765 C   0  0  0  0  0  0  0  0  0  0  0  0
   -2.7819   -0.9060    1.5276 C   0  0  0  0  0  0  0  0  0  0  0  0
   -3.7395   -0.0057    1.9976 C   0  0  0  0  0  0  0  0  0  0  0  0
   -4.3252    0.9094    1.1246 C   0  0  0  0  0  0  0  0  0  0  0  0
   -3.9512    0.9288   -0.2178 C   0  0  0  0  0  0  0  0  0  0  0  0
   -2.9944    0.0291   -0.6896 C   0  0  0  0  0  0  0  0  0  0  0  0
    1.8462   -0.1260   -0.7315 C   0  0  0  0  0  0  0  0  0  0  0  0
    2.3188   -0.1785    0.5875 C   0  0  0  0  0  0  0  0  0  0  0  0
    3.5642    0.3680    0.9073 C   0  0  0  0  0  0  0  0  0  0  0  0
    4.3327    0.9655   -0.0855 C   0  0  0  0  0  0  0  0  0  0  0  0
    5.5402    1.4846    0.2747 O   0  0  0  0  0  0  0  0  0  0  0  0
    3.8790    1.0292   -1.3990 C   0  0  0  0  0  0  0  0  0  0  0  0
    2.6336    0.4830   -1.7209 C   0  0  0  0  0  0  0  0  0  0  0  0
   -1.5218   -2.1111   -1.3856 H   0  0  0  0  0  0  0  0  0  0  0  0
   -1.4259   -2.8066    0.2173 H   0  0  0  0  0  0  0  0  0  0  0  0
   -2.3251   -1.6076    2.2219 H   0  0  0  0  0  0  0  0  0  0  0  0
   -4.0255   -0.0152    3.0461 H   0  0  0  0  0  0  0  0  0  0  0  0
   -5.0689    1.6118    1.4915 H   0  0  0  0  0  0  0  0  0  0  0  0
   -4.4005    1.6479   -0.8977 H   0  0  0  0  0  0  0  0  0  0  0  0
   -2.7013    0.0628   -1.7378 H   0  0  0  0  0  0  0  0  0  0  0  0
    1.7291   -0.6368    1.3773 H   0  0  0  0  0  0  0  0  0  0  0  0
    3.9323    0.3292    1.9291 H   0  0  0  0  0  0  0  0  0  0  0  0
    5.9603    1.8737   -0.5100 H   0  0  0  0  0  0  0  0  0  0  0  0
    4.4721    1.4953   -2.1796 H   0  0  0  0  0  0  0  0  0  0  0  0
    2.2773    0.5339   -2.7484 H   0  0  0  0  0  0  0  0  0  0  0  0
  1  2  2  0
  2  3  1  0
  3  4  1  0
  4  5  1  0
  5  6  2  0
  6  7  1  0
  7  8  2  0
  8  9  1  0
  9 10  2  0
  2 11  1  0
 11 12  1  0
 12 13  2  0
 13 14  1  0
 14 15  1  0
 14 16  2  0
 16 17  1  0
 10  5  1  0
 17 11  2  0
  4 18  1  0
  4 19  1  0
  6 20  1  0
  7 21  1  0
  8 22  1  0
  9 23  1  0
 10 24  1  0
 12 25  1  0
 13 26  1  0
 15 27  1  0
 16 28  1  0
 17 29  1  0
M  END
$$$$
OCNT-2328965
     RDKit          3D

 31 31  0  0  0  0  0  0  0  0999 V2000
    5.0734    0.2104   -0.2952 C   0  0  0  0  0  0  0  0  0  0  0  0
    3.5852    0.5121   -0.2044 C   0  0  0  0  0  0  0  0  0  0  0  0
    2.8385   -0.5896    0.5485 C   0  0  0  0  0  0  0  0  0  0  0  0
    1.3551   -0.2787    0.7676 C   0  0  0  0  0  0  0  0  0  0  0  0
    0.5481   -0.2263   -0.5328 C   0  0  0  0  0  0  0  0  0  0  0  0
   -0.9257   -0.0315   -0.2659 C   0  0  0  0  0  0  0  0  0  0  0  0
   -1.4617    1.2632   -0.2287 C   0  0  0  0  0  0  0  0  0  0  0  0
   -2.8194    1.4661    0.0318 C   0  0  0  0  0  0  0  0  0  0  0  0
   -3.6698    0.3778    0.2550 C   0  0  0  0  0  0  0  0  0  0  0  0
   -5.1199    0.5995    0.5679 C   0  0  0  0  0  0  0  0  0  0  0  0
   -3.1358   -0.9166    0.2414 C   0  0  0  0  0  0  0  0  0  0  0  0
   -1.7780   -1.1122   -0.0193 C   0  0  0  0  0  0  0  0  0  0  0  0
   -1.2591   -2.3769   -0.0308 O   0  0  0  0  0  0  0  0  0  0  0  0
    5.2509   -0.7320   -0.8231 H   0  0  0  0  0  0  0  0  0  0  0  0
    5.5206    0.1363    0.7012 H   0  0  0  0  0  0  0  0  0  0  0  0
    5.5890    1.0075   -0.8399 H   0  0  0  0  0  0  0  0  0  0  0  0
    3.4438    1.4730    0.3037 H   0  0  0  0  0  0  0  0  0  0  0  0
    3.1876    0.6174   -1.2193 H   0  0  0  0  0  0  0  0  0  0  0  0
    3.3061   -0.7316    1.5308 H   0  0  0  0  0  0  0  0  0  0  0  0
    2.9396   -1.5405    0.0113 H   0  0  0  0  0  0  0  0  0  0  0  0
    1.2546    0.6702    1.3097 H   0  0  0  0  0  0  0  0  0  0  0  0
    0.9398   -1.0534    1.4249 H   0  0  0  0  0  0  0  0  0  0  0  0
    0.7020   -1.1421   -1.1165 H   0  0  0  0  0  0  0  0  0  0  0  0
    0.9024    0.5929   -1.1700 H   0  0  0  0  0  0  0  0  0  0  0  0
   -0.8207    2.1253   -0.3996 H   0  0  0  0  0  0  0  0  0  0  0  0
   -3.2076    2.4819    0.0595 H   0  0  0  0  0  0  0  0  0  0  0  0
   -5.7285   -0.2385    0.2122 H   0  0  0  0  0  0  0  0  0  0  0  0
   -5.2577    0.7039    1.6484 H   0  0  0  0  0  0  0  0  0  0  0  0
   -5.4926    1.5032    0.0744 H   0  0  0  0  0  0  0  0  0  0  0  0
   -3.7866   -1.7639    0.4366 H   0  0  0  0  0  0  0  0  0  0  0  0
   -1.9735   -3.0068    0.1555 H   0  0  0  0  0  0  0  0  0  0  0  0
  1  2  1  0
  2  3  1  0
  3  4  1  0
  4  5  1  0
  5  6  1  0
  6  7  1  0
  7  8  2  0
  8  9  1  0
  9 10  1  0
  9 11  2  0
 11 12  1  0
 12 13  1  0
 12  6  2  0
  1 14  1  0
  1 15  1  0
  1 16  1  0
  2 17  1  0
  2 18  1  0
  3 19  1  0
  3 20  1  0
  4 21  1  0
  4 22  1  0
  5 23  1  0
  5 24  1  0
  7 25  1  0
  8 26  1  0
 10 27  1  0
 10 28  1  0
 10 29  1  0
 11 30  1  0
 13 31  1  0
M  END
$$$$
OCNT-2328969
     RDKit          3D

 41 43  0  0  0  0  0  0  0  0999 V2000
    5.8515   -1.3133    0.2785 C   0  0  0  0  0  0  0  0  0  0  0  0
    4.5071   -0.6633    0.4202 C   0  0  0  0  0  0  0  0  0  0  0  0
    3.9207   -0.5152    1.6822 C   0  0  0  0  0  0  0  0  0  0  0  0
    2.6833    0.1201    1.8186 C   0  0  0  0  0  0  0  0  0  0  0  0
    2.0161    0.6183    0.6958 C   0  0  0  0  0  0  0  0  0  0  0  0
    0.7267    1.2876    0.8671 C   0  0  0  0  0  0  0  0  0  0  0  0
   -0.4068    0.8716    0.2947 C   0  0  0  0  0  0  0  0  0  0  0  0
   -1.7445    1.5215    0.5048 C   0  0  0  0  0  0  0  0  0  0  0  0
   -1.9467    2.5416    1.1365 O   0  0  0  0  0  0  0  0  0  0  0  0
   -2.7624    0.6705   -0.2525 C   0  0  0  0  0  0  0  0  0  0  0  0
   -4.1950    0.8791    0.1749 C   0  0  0  0  0  0  0  0  0  0  0  0
   -2.4691    0.9798   -1.7430 C   0  0  0  0  0  0  0  0  0  0  0  0
   -1.0979    0.2943   -1.9812 C   0  0  0  0  0  0  0  0  0  0  0  0
   -0.7491   -0.3066   -0.5980 C   0  0  0  0  0  0  0  0  0  0  0  0
   -2.1392   -0.7441   -0.0490 C   0  0  0  0  0  0  0  0  0  0  0  0
   -2.1122   -1.2359    1.4159 C   0  0  0  0  0  0  0  0  0  0  0  0
   -2.8031   -1.8665   -0.8717 C   0  0  0  0  0  0  0  0  0  0  0  0
    2.6129    0.4946   -0.5630 C   0  0  0  0  0  0  0  0  0  0  0  0
    3.8505   -0.1402   -0.6995 C   0  0  0  0  0  0  0  0  0  0  0  0
    5.9969   -2.0809    1.0458 H   0  0  0  0  0  0  0  0  0  0  0  0
    6.6420   -0.5626    0.3741 H   0  0  0  0  0  0  0  0  0  0  0  0
    5.9464   -1.8058   -0.6950 H   0  0  0  0  0  0  0  0  0  0  0  0
    4.4238   -0.8927    2.5696 H   0  0  0  0  0  0  0  0  0  0  0  0
    2.2445    0.2199    2.8089 H   0  0  0  0  0  0  0  0  0  0  0  0
    0.7201    2.1536    1.5263 H   0  0  0  0  0  0  0  0  0  0  0  0
   -4.3221    0.6989    1.2475 H   0  0  0  0  0  0  0  0  0  0  0  0
   -4.5132    1.9096   -0.0180 H   0  0  0  0  0  0  0  0  0  0  0  0
   -4.8743    0.2126   -0.3655 H   0  0  0  0  0  0  0  0  0  0  0  0
   -3.2312    0.5639   -2.4106 H   0  0  0  0  0  0  0  0  0  0  0  0
   -2.4047    2.0566   -1.9384 H   0  0  0  0  0  0  0  0  0  0  0  0
   -0.3488    1.0131   -2.3317 H   0  0  0  0  0  0  0  0  0  0  0  0
   -1.1850   -0.4858   -2.7450 H   0  0  0  0  0  0  0  0  0  0  0  0
    0.0025   -1.0980   -0.6267 H   0  0  0  0  0  0  0  0  0  0  0  0
   -1.4911   -2.1348    1.5043 H   0  0  0  0  0  0  0  0  0  0  0  0
   -3.1214   -1.4931    1.7573 H   0  0  0  0  0  0  0  0  0  0  0  0
   -1.7191   -0.5027    2.1261 H   0  0  0  0  0  0  0  0  0  0  0  0
   -3.7996   -2.0974   -0.4784 H   0  0  0  0  0  0  0  0  0  0  0  0
   -2.2038   -2.7827   -0.8185 H   0  0  0  0  0  0  0  0  0  0  0  0
   -2.9326   -1.6318   -1.9305 H   0  0  0  0  0  0  0  0  0  0  0  0
    2.1272    0.9014   -1.4463 H   0  0  0  0  0  0  0  0  0  0  0  0
    4.3006   -0.2192   -1.6866 H   0  0  0  0  0  0  0  0  0  0  0  0
  1  2  1  0
  2  3  1  0
  3  4  2  0
  4  5  1  0
  5  6  1  0
  6  7  2  0
  7  8  1  0
  8  9  2  0
  8 10  1  0
 10 11  1  0
 10 12  1  0
 12 13  1  0
 13 14  1  0
 14 15  1  0
 15 16  1  0
 15 17  1  0
  5 18  2  0
 18 19  1  0
 19  2  2  0
 14  7  1  0
 15 10  1  0
  1 20  1  0
  1 21  1  0
  1 22  1  0
  3 23  1  0
  4 24  1  0
  6 25  1  0
 11 26  1  0
 11 27  1  0
 11 28  1  0
 12 29  1  0
 12 30  1  0
 13 31  1  0
 13 32  1  0
 14 33  1  0
 16 34  1  0
 16 35  1  0
 16 36  1  0
 17 37  1  0
 17 38  1  0
 17 39  1  0
 18 40  1  0
 19 41  1  0
M  END
$$$$
OCNT-2328970
     RDKit          3D

119118  0  0  0  0  0  0  0  0999 V2000
   12.1496    3.6495    3.4099 C   0  0  0  0  0  0  0  0  0  0  0  0
   12.5260    3.6514    1.9368 C   0  0  0  0  0  0  0  0  0  0  0  0
   12.5549    2.2372    1.3549 C   0  0  0  0  0  0  0  0  0  0  0  0
   12.9863    2.2587   -0.1131 C   0  0  0  0  0  0  0  0  0  0  0  0
   13.0873    0.8659   -0.7364 C   0  0  0  0  0  0  0  0  0  0  0  0
   11.7401    0.1493   -0.8464 C   0  0  0  0  0  0  0  0  0  0  0  0
   11.8709   -1.1581   -1.6317 C   0  0  0  0  0  0  0  0  0  0  0  0
   10.5253   -1.8679   -1.8429 C   0  0  0  0  0  0  0  0  0  0  0  0
    9.9362   -2.4273   -0.5459 C   0  0  0  0  0  0  0  0  0  0  0  0
    8.6754   -3.2694   -0.7640 C   0  0  0  0  0  0  0  0  0  0  0  0
    7.4826   -2.5353   -1.3863 C   0  0  0  0  0  0  0  0  0  0  0  0
    6.9821   -1.3533   -0.5486 C   0  0  0  0  0  0  0  0  0  0  0  0
    5.7304   -0.6866   -1.1347 C   0  0  0  0  0  0  0  0  0  0  0  0
    4.4784   -1.5626   -1.0324 C   0  0  0  0  0  0  0  0  0  0  0  0
    3.2287   -0.9259   -1.6509 C   0  0  0  0  0  0  0  0  0  0  0  0
    2.7357    0.3793   -1.0140 C   0  0  0  0  0  0  0  0  0  0  0  0
    2.5112    0.3613    0.5057 C   0  0  0  0  0  0  0  0  0  0  0  0
    1.5724   -0.7355    1.0216 C   0  0  0  0  0  0  0  0  0  0  0  0
    0.1576   -0.2476    1.4306 N   0  0  0  0  0  0  0  0  0  0  0  0
   -0.5791   -1.4950    1.9516 C   0  0  0  0  0  0  0  0  0  0  0  0
    0.2527    0.7653    2.5725 C   0  0  0  0  0  0  0  0  0  0  0  0
   -0.5973    0.3227    0.2097 C   0  0  0  0  0  0  0  0  0  0  0  0
   -1.9443    0.9643    0.5734 C   0  0  0  0  0  0  0  0  0  0  0  0
   -2.8665    1.1188   -0.6446 C   0  0  0  0  0  0  0  0  0  0  0  0
   -3.5131   -0.1888   -1.1246 C   0  0  0  0  0  0  0  0  0  0  0  0
   -4.5192   -0.7712   -0.1253 C   0  0  0  0  0  0  0  0  0  0  0  0
   -5.0962   -2.1248   -0.5455 C   0  0  0  0  0  0  0  0  0  0  0  0
   -5.8907   -2.1428   -1.8522 C   0  0  0  0  0  0  0  0  0  0  0  0
   -7.0653   -1.1656   -1.9353 C   0  0  0  0  0  0  0  0  0  0  0  0
   -8.1051   -1.3545   -0.8257 C   0  0  0  0  0  0  0  0  0  0  0  0
   -9.3123   -0.4210   -0.9560 C   0  0  0  0  0  0  0  0  0  0  0  0
  -10.2467   -0.8022   -2.1094 C   0  0  0  0  0  0  0  0  0  0  0  0
  -11.4002    0.1821   -2.3378 C   0  0  0  0  0  0  0  0  0  0  0  0
  -12.3786    0.3146   -1.1640 C   0  0  0  0  0  0  0  0  0  0  0  0
  -12.0908    1.5359   -0.2832 C   0  0  0  0  0  0  0  0  0  0  0  0
  -13.1648    1.7936    0.7809 C   0  0  0  0  0  0  0  0  0  0  0  0
  -13.2388    0.6982    1.8489 C   0  0  0  0  0  0  0  0  0  0  0  0
  -14.3242    0.9620    2.8992 C   0  0  0  0  0  0  0  0  0  0  0  0
  -14.0445    2.1656    3.7852 C   0  0  0  0  0  0  0  0  0  0  0  0
   12.0322    4.6772    3.7664 H   0  0  0  0  0  0  0  0  0  0  0  0
   12.9313    3.1730    4.0111 H   0  0  0  0  0  0  0  0  0  0  0  0
   11.2098    3.1174    3.5837 H   0  0  0  0  0  0  0  0  0  0  0  0
   13.5070    4.1299    1.8152 H   0  0  0  0  0  0  0  0  0  0  0  0
   11.8030    4.2561    1.3825 H   0  0  0  0  0  0  0  0  0  0  0  0
   13.2454    1.6090    1.9315 H   0  0  0  0  0  0  0  0  0  0  0  0
   11.5610    1.7914    1.4547 H   0  0  0  0  0  0  0  0  0  0  0  0
   13.9694    2.7442   -0.1917 H   0  0  0  0  0  0  0  0  0  0  0  0
   12.2877    2.8698   -0.6951 H   0  0  0  0  0  0  0  0  0  0  0  0
   13.5220    0.9721   -1.7403 H   0  0  0  0  0  0  0  0  0  0  0  0
   13.7847    0.2491   -0.1546 H   0  0  0  0  0  0  0  0  0  0  0  0
   11.3591   -0.0620    0.1553 H   0  0  0  0  0  0  0  0  0  0  0  0
   11.0139    0.8060   -1.3389 H   0  0  0  0  0  0  0  0  0  0  0  0
   12.5682   -1.8342   -1.1148 H   0  0  0  0  0  0  0  0  0  0  0  0
   12.2934   -0.9364   -2.6201 H   0  0  0  0  0  0  0  0  0  0  0  0
   10.6834   -2.6938   -2.5455 H   0  0  0  0  0  0  0  0  0  0  0  0
    9.8218   -1.1757   -2.3215 H   0  0  0  0  0  0  0  0  0  0  0  0
    9.7112   -1.6164    0.1556 H   0  0  0  0  0  0  0  0  0  0  0  0
   10.6860   -3.0642   -0.0578 H   0  0  0  0  0  0  0  0  0  0  0  0
    8.9273   -4.1265   -1.3993 H   0  0  0  0  0  0  0  0  0  0  0  0
    8.3684   -3.6866    0.1999 H   0  0  0  0  0  0  0  0  0  0  0  0
    6.6820   -3.2719   -1.5096 H   0  0  0  0  0  0  0  0  0  0  0  0
    7.7415   -2.1911   -2.3936 H   0  0  0  0  0  0  0  0  0  0  0  0
    7.7672   -0.5896   -0.4848 H   0  0  0  0  0  0  0  0  0  0  0  0
    6.7750   -1.6842    0.4758 H   0  0  0  0  0  0  0  0  0  0  0  0
    5.9121   -0.4068   -2.1772 H   0  0  0  0  0  0  0  0  0  0  0  0
    5.5636    0.2518   -0.5888 H   0  0  0  0  0  0  0  0  0  0  0  0
    4.2930   -1.8160    0.0158 H   0  0  0  0  0  0  0  0  0  0  0  0
    4.6508   -2.5071   -1.5532 H   0  0  0  0  0  0  0  0  0  0  0  0
    3.4234   -0.7249   -2.7125 H   0  0  0  0  0  0  0  0  0  0  0  0
    2.4202   -1.6683   -1.6365 H   0  0  0  0  0  0  0  0  0  0  0  0
    3.4549    1.1781   -1.2384 H   0  0  0  0  0  0  0  0  0  0  0  0
    1.8046    0.6664   -1.5132 H   0  0  0  0  0  0  0  0  0  0  0  0
    3.4896    0.2184    0.9870 H   0  0  0  0  0  0  0  0  0  0  0  0
    2.1873    1.3601    0.8159 H   0  0  0  0  0  0  0  0  0  0  0  0
    1.4232   -1.5396    0.2939 H   0  0  0  0  0  0  0  0  0  0  0  0
    2.0066   -1.1798    1.9317 H   0  0  0  0  0  0  0  0  0  0  0  0
   -0.6541   -2.2177    1.1302 H   0  0  0  0  0  0  0  0  0  0  0  0
   -1.5734   -1.2173    2.3107 H   0  0  0  0  0  0  0  0  0  0  0  0
    0.0021   -1.9092    2.7836 H   0  0  0  0  0  0  0  0  0  0  0  0
    0.5230    1.7399    2.1641 H   0  0  0  0  0  0  0  0  0  0  0  0
    1.0081    0.4243    3.2841 H   0  0  0  0  0  0  0  0  0  0  0  0
   -0.7173    0.8227    3.0731 H   0  0  0  0  0  0  0  0  0  0  0  0
    0.0417    1.0913   -0.2322 H   0  0  0  0  0  0  0  0  0  0  0  0
   -0.6972   -0.4966   -0.5025 H   0  0  0  0  0  0  0  0  0  0  0  0
   -1.7532    1.9631    0.9842 H   0  0  0  0  0  0  0  0  0  0  0  0
   -2.4681    0.4191    1.3585 H   0  0  0  0  0  0  0  0  0  0  0  0
   -2.2951    1.5614   -1.4741 H   0  0  0  0  0  0  0  0  0  0  0  0
   -3.6593    1.8327   -0.3946 H   0  0  0  0  0  0  0  0  0  0  0  0
   -2.7420   -0.9307   -1.3487 H   0  0  0  0  0  0  0  0  0  0  0  0
   -4.0344    0.0233   -2.0662 H   0  0  0  0  0  0  0  0  0  0  0  0
   -4.0417   -0.9158    0.8466 H   0  0  0  0  0  0  0  0  0  0  0  0
   -5.3250   -0.0523    0.0397 H   0  0  0  0  0  0  0  0  0  0  0  0
   -4.2728   -2.8402   -0.6399 H   0  0  0  0  0  0  0  0  0  0  0  0
   -5.7292   -2.4997    0.2645 H   0  0  0  0  0  0  0  0  0  0  0  0
   -6.2729   -3.1637   -2.0061 H   0  0  0  0  0  0  0  0  0  0  0  0
   -5.2071   -1.9405   -2.6905 H   0  0  0  0  0  0  0  0  0  0  0  0
   -6.7010   -0.1328   -1.9374 H   0  0  0  0  0  0  0  0  0  0  0  0
   -7.5395   -1.3183   -2.9096 H   0  0  0  0  0  0  0  0  0  0  0  0
   -7.6292   -1.1544    0.1409 H   0  0  0  0  0  0  0  0  0  0  0  0
   -8.4384   -2.3983   -0.7975 H   0  0  0  0  0  0  0  0  0  0  0  0
   -9.8688   -0.4739   -0.0103 H   0  0  0  0  0  0  0  0  0  0  0  0
   -8.9681    0.6128   -1.0781 H   0  0  0  0  0  0  0  0  0  0  0  0
  -10.6559   -1.8028   -1.9267 H   0  0  0  0  0  0  0  0  0  0  0  0
   -9.6828   -0.8691   -3.0460 H   0  0  0  0  0  0  0  0  0  0  0  0
  -11.9670   -0.1833   -3.2052 H   0  0  0  0  0  0  0  0  0  0  0  0
  -10.9977    1.1601   -2.6313 H   0  0  0  0  0  0  0  0  0  0  0  0
  -13.3885    0.4377   -1.5770 H   0  0  0  0  0  0  0  0  0  0  0  0
  -12.3813   -0.6108   -0.5735 H   0  0  0  0  0  0  0  0  0  0  0  0
  -11.1165    1.4358    0.2023 H   0  0  0  0  0  0  0  0  0  0  0  0
  -12.0294    2.4284   -0.9231 H   0  0  0  0  0  0  0  0  0  0  0  0
  -12.9377    2.7566    1.2541 H   0  0  0  0  0  0  0  0  0  0  0  0
  -14.1396    1.9012    0.2902 H   0  0  0  0  0  0  0  0  0  0  0  0
  -13.4676   -0.2639    1.3773 H   0  0  0  0  0  0  0  0  0  0  0  0
  -12.2647    0.5892    2.3413 H   0  0  0  0  0  0  0  0  0  0  0  0
  -14.4042    0.0790    3.5409 H   0  0  0  0  0  0  0  0  0  0  0  0
  -15.2987    1.0877    2.4102 H   0  0  0  0  0  0  0  0  0  0  0  0
  -14.0723    3.1017    3.2172 H   0  0  0  0  0  0  0  0  0  0  0  0
  -13.0669    2.0812    4.2672 H   0  0  0  0  0  0  0  0  0  0  0  0
  -14.8042    2.2445    4.5712 H   0  0  0  0  0  0  0  0  0  0  0  0
  1  2  1  0
  2  3  1  0
  3  4  1  0
  4  5  1  0
  5  6  1  0
  6  7  1  0
  7  8  1  0
  8  9  1  0
  9 10  1  0
 10 11  1  0
 11 12  1  0
 12 13  1  0
 13 14  1  0
 14 15  1  0
 15 16  1  0
 16 17  1  0
 17 18  1  0
 18 19  1  0
 19 20  1  0
 19 21  1  0
 19 22  1  0
 22 23  1  0
 23 24  1  0
 24 25  1  0
 25 26  1  0
 26 27  1  0
 27 28  1  0
 28 29  1  0
 29 30  1  0
 30 31  1  0
 31 32  1  0
 32 33  1  0
 33 34  1  0
 34 35  1  0
 35 36  1  0
 36 37  1  0
 37 38  1  0
 38 39  1  0
  1 40  1  0
  1 41  1  0
  1 42  1  0
  2 43  1  0
  2 44  1  0
  3 45  1  0
  3 46  1  0
  4 47  1  0
  4 48  1  0
  5 49  1  0
  5 50  1  0
  6 51  1  0
  6 52  1  0
  7 53  1  0
  7 54  1  0
  8 55  1  0
  8 56  1  0
  9 57  1  0
  9 58  1  0
 10 59  1  0
 10 60  1  0
 11 61  1  0
 11 62  1  0
 12 63  1  0
 12 64  1  0
 13 65  1  0
 13 66  1  0
 14 67  1  0
 14 68  1  0
 15 69  1  0
 15 70  1  0
 16 71  1  0
 16 72  1  0
 17 73  1  0
 17 74  1  0
 18 75  1  0
 18 76  1  0
 20 77  1  0
 20 78  1  0
 20 79  1  0
 21 80  1  0
 21 81  1  0
 21 82  1  0
 22 83  1  0
 22 84  1  0
 23 85  1  0
 23 86  1  0
 24 87  1  0
 24 88  1  0
 25 89  1  0
 25 90  1  0
 26 91  1  0
 26 92  1  0
 27 93  1  0
 27 94  1  0
 28 95  1  0
 28 96  1  0
 29 97  1  0
 29 98  1  0
 30 99  1  0
 30100  1  0
 31101  1  0
 31102  1  0
 32103  1  0
 32104  1  0
 33105  1  0
 33106  1  0
 34107  1  0
 34108  1  0
 35109  1  0
 35110  1  0
 36111  1  0
 36112  1  0
 37113  1  0
 37114  1  0
 38115  1  0
 38116  1  0
 39117  1  0
 39118  1  0
 39119  1  0
M  CHG  1  19   1
M  END
$$$$
OCNT-2328974
     RDKit          3D

 47 47  0  0  0  0  0  0  0  0999 V2000
   -5.3633    2.5870    1.1173 C   0  0  0  0  0  0  0  0  0  0  0  0
   -4.6553    1.2425    1.1920 C   0  0  0  0  0  0  0  0  0  0  0  0
   -3.2393    1.3264    0.6196 C   0  0  0  0  0  0  0  0  0  0  0  0
   -2.4575    0.0091    0.7259 C   0  0  0  0  0  0  0  0  0  0  0  0
   -2.4223   -0.8295   -0.5742 C   0  0  0  0  0  0  0  0  0  0  0  0
   -3.8007   -1.3139   -1.0611 C   0  0  0  0  0  0  0  0  0  0  0  0
   -4.5168   -2.2813   -0.1281 C   0  0  0  0  0  0  0  0  0  0  0  0
   -1.4472   -2.0147   -0.4228 C   0  0  0  0  0  0  0  0  0  0  0  0
   -0.1060   -1.5532   -0.1865 O   0  0  0  0  0  0  0  0  0  0  0  0
    0.6225   -1.2628   -1.2932 C   0  0  0  0  0  0  0  0  0  0  0  0
    0.2425   -1.3637   -2.4490 O   0  0  0  0  0  0  0  0  0  0  0  0
    1.9790   -0.7850   -0.9135 C   0  0  0  0  0  0  0  0  0  0  0  0
    2.3898   -0.6509    0.4123 C   0  0  0  0  0  0  0  0  0  0  0  0
    3.6833   -0.1925    0.7095 C   0  0  0  0  0  0  0  0  0  0  0  0
    4.6094    0.1581   -0.2904 C   0  0  0  0  0  0  0  0  0  0  0  0
    5.9023    0.5973    0.0161 N   0  0  0  0  0  0  0  0  0  0  0  0
    6.1927    1.0564    1.3737 C   0  0  0  0  0  0  0  0  0  0  0  0
    6.7216    1.1919   -1.0390 C   0  0  0  0  0  0  0  0  0  0  0  0
    4.1682   -0.0038   -1.6163 C   0  0  0  0  0  0  0  0  0  0  0  0
    2.8784   -0.4601   -1.9284 C   0  0  0  0  0  0  0  0  0  0  0  0
   -5.4500    2.9270    0.0804 H   0  0  0  0  0  0  0  0  0  0  0  0
   -6.3721    2.5076    1.5343 H   0  0  0  0  0  0  0  0  0  0  0  0
   -4.8204    3.3492    1.6854 H   0  0  0  0  0  0  0  0  0  0  0  0
   -5.2509    0.5038    0.6495 H   0  0  0  0  0  0  0  0  0  0  0  0
   -4.6137    0.9190    2.2386 H   0  0  0  0  0  0  0  0  0  0  0  0
   -2.6930    2.0892    1.1899 H   0  0  0  0  0  0  0  0  0  0  0  0
   -3.2652    1.6787   -0.4183 H   0  0  0  0  0  0  0  0  0  0  0  0
   -2.8199   -0.5923    1.5675 H   0  0  0  0  0  0  0  0  0  0  0  0
   -1.4231    0.2783    0.9776 H   0  0  0  0  0  0  0  0  0  0  0  0
   -2.0210   -0.1713   -1.3569 H   0  0  0  0  0  0  0  0  0  0  0  0
   -3.6751   -1.8083   -2.0331 H   0  0  0  0  0  0  0  0  0  0  0  0
   -4.4483   -0.4518   -1.2533 H   0  0  0  0  0  0  0  0  0  0  0  0
   -4.6700   -1.8530    0.8657 H   0  0  0  0  0  0  0  0  0  0  0  0
   -3.9605   -3.2168   -0.0183 H   0  0  0  0  0  0  0  0  0  0  0  0
   -5.5010   -2.5317   -0.5378 H   0  0  0  0  0  0  0  0  0  0  0  0
   -1.7189   -2.6276    0.4436 H   0  0  0  0  0  0  0  0  0  0  0  0
   -1.4751   -2.6750   -1.2983 H   0  0  0  0  0  0  0  0  0  0  0  0
    1.7233   -0.9005    1.2338 H   0  0  0  0  0  0  0  0  0  0  0  0
    3.9454   -0.1239    1.7612 H   0  0  0  0  0  0  0  0  0  0  0  0
    6.0728    0.2457    2.1003 H   0  0  0  0  0  0  0  0  0  0  0  0
    5.5489    1.8985    1.6508 H   0  0  0  0  0  0  0  0  0  0  0  0
    7.2320    1.3911    1.4675 H   0  0  0  0  0  0  0  0  0  0  0  0
    6.9104    0.4757   -1.8459 H   0  0  0  0  0  0  0  0  0  0  0  0
    6.2465    2.0910   -1.4468 H   0  0  0  0  0  0  0  0  0  0  0  0
    7.7082    1.4821   -0.6602 H   0  0  0  0  0  0  0  0  0  0  0  0
    4.8204    0.2203   -2.4551 H   0  0  0  0  0  0  0  0  0  0  0  0
    2.5891   -0.5618   -2.9727 H   0  0  0  0  0  0  0  0  0  0  0  0
  1  2  1  0
  2  3  1  0
  3  4  1  0
  4  5  1  0
  5  6  1  0
  6  7  1  0
  5  8  1  0
  8  9  1  0
  9 10  1  0
 10 11  2  0
 10 12  1  0
 12 13  1  0
 13 14  2  0
 14 15  1  0
 15 16  1  0
 16 17  1  0
 16 18  1  0
 15 19  2  0
 19 20  1  0
 20 12  2  0
  1 21  1  0
  1 22  1  0
  1 23  1  0
  2 24  1  0
  2 25  1  0
  3 26  1  0
  3 27  1  0
  4 28  1  0
  4 29  1  0
  5 30  1  0
  6 31  1  0
  6 32  1  0
  7 33  1  0
  7 34  1  0
  7 35  1  0
  8 36  1  0
  8 37  1  0
 13 38  1  0
 14 39  1  0
 17 40  1  0
 17 41  1  0
 17 42  1  0
 18 43  1  0
 18 44  1  0
 18 45  1  0
 19 46  1  0
 20 47  1  0
M  END
$$$$
OCNT-2328980
     RDKit          3D

 55 58  0  0  0  0  0  0  0  0999 V2000
    0.0257   -1.7427   -1.4995 C   0  0  0  0  0  0  0  0  0  0  0  0
    0.6235   -1.0661   -0.2660 C   0  0  1  0  0  0  0  0  0  0  0  0
    1.4151    0.1973   -0.7031 C   0  0  2  0  0  0  0  0  0  0  0  0
    2.7288    0.1513   -0.1216 O   0  0  0  0  0  0  0  0  0  0  0  0
    3.6541   -0.5525   -0.8228 C   0  0  0  0  0  0  0  0  0  0  0  0
    3.4363   -1.1661   -1.8577 O   0  0  0  0  0  0  0  0  0  0  0  0
    4.9834   -0.4833   -0.1187 C   0  0  0  0  0  0  0  0  0  0  0  0
    6.0858   -1.1065   -0.9656 C   0  0  0  0  0  0  0  0  0  0  0  0
    7.4141   -1.0140   -0.2751 C   0  0  0  0  0  0  0  0  0  0  0  0
    7.6257   -0.6569    0.8699 O   0  0  0  0  0  0  0  0  0  0  0  0
    8.4280   -1.4016   -1.0725 O   0  0  0  0  0  0  0  0  0  0  0  0
    0.8129    1.4084   -0.2546 O   0  0  0  0  0  0  0  0  0  0  0  0
   -0.6065    1.4359   -0.4086 C   0  0  2  0  0  0  0  0  0  0  0  0
   -0.9921    2.7987   -0.2812 O   0  0  0  0  0  0  0  0  0  0  0  0
   -2.0985    3.0390    0.5779 C   0  0  1  0  0  0  0  0  0  0  0  0
   -2.0910    4.5376    0.8804 C   0  0  0  0  0  0  0  0  0  0  0  0
   -3.4056    2.6622   -0.1195 C   0  0  0  0  0  0  0  0  0  0  0  0
   -3.4856    1.1973   -0.5523 C   0  0  0  0  0  0  0  0  0  0  0  0
   -2.7908    0.1729    0.3816 C   0  0  1  0  0  0  0  0  0  0  0  0
   -3.0043   -1.2658   -0.1550 C   0  0  2  0  0  0  0  0  0  0  0  0
   -4.4788   -1.6324   -0.3854 C   0  0  0  0  0  0  0  0  0  0  0  0
   -2.3903   -2.3229    0.7694 C   0  0  0  0  0  0  0  0  0  0  0  0
   -1.1150   -1.9083    1.4852 C   0  0  0  0  0  0  0  0  0  0  0  0
   -0.3568   -0.7227    0.8888 C   0  0  2  0  0  0  0  0  0  0  0  0
   -1.2702    0.5121    0.6367 C   0  0  1  0  0  0  0  0  0  0  0  0
   -1.1670    1.2674    1.8765 O   0  0  0  0  0  0  0  0  0  0  0  0
   -2.1144    2.3750    1.8510 O   0  0  0  0  0  0  0  0  0  0  0  0
    0.8233   -2.0373   -2.1910 H   0  0  0  0  0  0  0  0  0  0  0  0
   -0.6403   -1.0789   -2.0544 H   0  0  0  0  0  0  0  0  0  0  0  0
   -0.5079   -2.6590   -1.2396 H   0  0  0  0  0  0  0  0  0  0  0  0
    1.3357   -1.7997    0.1388 H   0  0  0  0  0  0  0  0  0  0  0  0
    1.4996    0.2745   -1.7945 H   0  0  0  0  0  0  0  0  0  0  0  0
    4.8940   -1.0093    0.8386 H   0  0  0  0  0  0  0  0  0  0  0  0
    5.2195    0.5685    0.0797 H   0  0  0  0  0  0  0  0  0  0  0  0
    5.8696   -2.1629   -1.1549 H   0  0  0  0  0  0  0  0  0  0  0  0
    6.1554   -0.5848   -1.9262 H   0  0  0  0  0  0  0  0  0  0  0  0
    9.2277   -1.3069   -0.5132 H   0  0  0  0  0  0  0  0  0  0  0  0
   -0.8396    1.1270   -1.4329 H   0  0  0  0  0  0  0  0  0  0  0  0
   -2.9296    4.8248    1.5243 H   0  0  0  0  0  0  0  0  0  0  0  0
   -2.1226    5.1327   -0.0385 H   0  0  0  0  0  0  0  0  0  0  0  0
   -1.1706    4.8110    1.4098 H   0  0  0  0  0  0  0  0  0  0  0  0
   -4.2455    2.8574    0.5605 H   0  0  0  0  0  0  0  0  0  0  0  0
   -3.5594    3.2847   -1.0099 H   0  0  0  0  0  0  0  0  0  0  0  0
   -3.0784    1.1002   -1.5670 H   0  0  0  0  0  0  0  0  0  0  0  0
   -4.5506    0.9635   -0.6488 H   0  0  0  0  0  0  0  0  0  0  0  0
   -3.3148    0.2207    1.3480 H   0  0  0  0  0  0  0  0  0  0  0  0
   -2.5275   -1.3370   -1.1350 H   0  0  0  0  0  0  0  0  0  0  0  0
   -4.9020   -1.0846   -1.2317 H   0  0  0  0  0  0  0  0  0  0  0  0
   -5.0832   -1.4203    0.5020 H   0  0  0  0  0  0  0  0  0  0  0  0
   -4.5832   -2.6972   -0.6201 H   0  0  0  0  0  0  0  0  0  0  0  0
   -2.2047   -3.2348    0.1893 H   0  0  0  0  0  0  0  0  0  0  0  0
   -3.1181   -2.6192    1.5361 H   0  0  0  0  0  0  0  0  0  0  0  0
   -0.4517   -2.7759    1.5888 H   0  0  0  0  0  0  0  0  0  0  0  0
   -1.3933   -1.6360    2.5134 H   0  0  0  0  0  0  0  0  0  0  0  0
    0.3316   -0.4343    1.7026 H   0  0  0  0  0  0  0  0  0  0  0  0
  1  2  1  0
  2  3  1  0
  3  4  1  0
  4  5  1  0
  5  6  2  0
  5  7  1  0
  7  8  1  0
  8  9  1  0
  9 10  2  0
  9 11  1  0
  3 12  1  0
 12 13  1  0
 13 14  1  0
 14 15  1  0
 15 16  1  1
 15 17  1  0
 17 18  1  0
 18 19  1  0
 19 20  1  0
 20 21  1  0
 20 22  1  0
 22 23  1  0
 23 24  1  0
 24 25  1  0
 25 26  1  1
 26 27  1  0
 24  2  1  0
 25 13  1  0
 27 15  1  0
 25 19  1  0
  1 28  1  0
  1 29  1  0
  1 30  1  0
  2 31  1  1
  3 32  1  6
  7 33  1  0
  7 34  1  0
  8 35  1  0
  8 36  1  0
 11 37  1  0
 13 38  1  6
 16 39  1  0
 16 40  1  0
 16 41  1  0
 17 42  1  0
 17 43  1  0
 18 44  1  0
 18 45  1  0
 19 46  1  1
 20 47  1  6
 21 48  1  0
 21 49  1  0
 21 50  1  0
 22 51  1  0
 22 52  1  0
 23 53  1  0
 23 54  1  0
 24 55  1  1
M  END
$$$$
