OCNT-2312407
     RDKit          3D

 41 44  0  0  0  0  0  0  0  0999 V2000
   -1.5682   -0.7390   -3.4897 O   0  0  0  0  0  0  0  0  0  0  0  0
   -1.4495   -0.7784   -2.2694 C   0  0  0  0  0  0  0  0  0  0  0  0
   -0.3037   -0.3909   -1.6191 N   0  0  0  0  0  0  0  0  0  0  0  0
    0.8637    0.0194   -2.3608 C   0  0  0  0  0  0  0  0  0  0  0  0
    1.8554    0.5527   -1.3866 C   0  0  0  0  0  0  0  0  0  0  0  0
    2.1171    0.0660   -0.1826 N   0  0  0  0  0  0  0  0  0  0  0  0
    3.0808    0.8851    0.3308 C   0  0  0  0  0  0  0  0  0  0  0  0
    3.4024    1.8832   -0.5564 C   0  0  0  0  0  0  0  0  0  0  0  0
    4.3790    2.9728   -0.3336 C   0  0  0  0  0  0  0  0  0  0  0  0
    5.2899    2.5996    0.8559 C   0  0  0  0  0  0  0  0  0  0  0  0
    4.5013    1.9975    2.0417 C   0  0  0  0  0  0  0  0  0  0  0  0
    3.7307    0.7172    1.6544 C   0  0  0  0  0  0  0  0  0  0  0  0
    2.6200    1.6680   -1.6509 N   0  0  0  0  0  0  0  0  0  0  0  0
   -2.5636   -1.2811   -1.4174 C   0  0  0  0  0  0  0  0  0  0  0  0
   -3.5263   -2.1081   -2.0050 C   0  0  0  0  0  0  0  0  0  0  0  0
   -4.6036   -2.5829   -1.2521 C   0  0  0  0  0  0  0  0  0  0  0  0
   -4.7428   -2.2293    0.0994 C   0  0  0  0  0  0  0  0  0  0  0  0
   -5.8183   -2.6809    0.8738 C   0  0  0  0  0  0  0  0  0  0  0  0
   -5.9016   -2.2812    2.1986 C   0  0  0  0  0  0  0  0  0  0  0  0
   -4.9999   -1.4782    2.8011 N   0  0  0  0  0  0  0  0  0  0  0  0
   -3.9657   -1.0524    2.0384 C   0  0  0  0  0  0  0  0  0  0  0  0
   -3.7797   -1.3886    0.6939 C   0  0  0  0  0  0  0  0  0  0  0  0
   -2.6940   -0.9168   -0.0689 C   0  0  0  0  0  0  0  0  0  0  0  0
   -0.1235   -0.6886   -0.6671 H   0  0  0  0  0  0  0  0  0  0  0  0
    1.2689   -0.8551   -2.8818 H   0  0  0  0  0  0  0  0  0  0  0  0
    0.5715    0.7690   -3.1048 H   0  0  0  0  0  0  0  0  0  0  0  0
    3.8379    3.8969   -0.1013 H   0  0  0  0  0  0  0  0  0  0  0  0
    4.9857    3.1593   -1.2270 H   0  0  0  0  0  0  0  0  0  0  0  0
    6.0384    1.8669    0.5250 H   0  0  0  0  0  0  0  0  0  0  0  0
    5.8379    3.4881    1.1876 H   0  0  0  0  0  0  0  0  0  0  0  0
    3.7909    2.7500    2.4085 H   0  0  0  0  0  0  0  0  0  0  0  0
    5.1854    1.7733    2.8692 H   0  0  0  0  0  0  0  0  0  0  0  0
    2.9879    0.4840    2.4229 H   0  0  0  0  0  0  0  0  0  0  0  0
    4.4291   -0.1255    1.6006 H   0  0  0  0  0  0  0  0  0  0  0  0
    2.5907    2.2228   -2.4973 H   0  0  0  0  0  0  0  0  0  0  0  0
   -3.4404   -2.3856   -3.0541 H   0  0  0  0  0  0  0  0  0  0  0  0
   -5.3372   -3.2249   -1.7346 H   0  0  0  0  0  0  0  0  0  0  0  0
   -6.5839   -3.3264    0.4579 H   0  0  0  0  0  0  0  0  0  0  0  0
   -6.7237   -2.6069    2.8304 H   0  0  0  0  0  0  0  0  0  0  0  0
   -3.2636   -0.4053    2.5596 H   0  0  0  0  0  0  0  0  0  0  0  0
   -1.9754   -0.2454    0.3929 H   0  0  0  0  0  0  0  0  0  0  0  0
  1  2  2  0
  2  3  1  0
  3  4  1  0
  4  5  1  0
  5  6  2  0
  6  7  1  0
  7  8  2  0
  8  9  1  0
  9 10  1  0
 10 11  1  0
 11 12  1  0
  8 13  1  0
  2 14  1  0
 14 15  1  0
 15 16  2  0
 16 17  1  0
 17 18  2  0
 18 19  1  0
 19 20  2  0
 20 21  1  0
 21 22  2  0
 22 23  1  0
 13  5  1  0
 23 14  2  0
 12  7  1  0
 22 17  1  0
  3 24  1  0
  4 25  1  0
  4 26  1  0
  9 27  1  0
  9 28  1  0
 10 29  1  0
 10 30  1  0
 11 31  1  0
 11 32  1  0
 12 33  1  0
 12 34  1  0
 13 35  1  0
 15 36  1  0
 16 37  1  0
 18 38  1  0
 19 39  1  0
 21 40  1  0
 23 41  1  0
M  END
$$$$
OCNT-2312414
     RDKit          3D

 32 34  0  0  0  0  0  0  0  0999 V2000
    2.6341   -2.7921   -1.4674 C   0  0  0  0  0  0  0  0  0  0  0  0
    1.4637   -1.9749   -1.1952 N   0  0  0  0  0  0  0  0  0  0  0  0
    1.3547   -0.7213   -1.9414 C   0  0  0  0  0  0  0  0  0  0  0  0
    1.8343    0.4375   -1.1367 C   0  0  0  0  0  0  0  0  0  0  0  0
    2.7750    0.4632   -0.2133 N   0  0  0  0  0  0  0  0  0  0  0  0
    2.8127    1.7285    0.3233 N   0  0  0  0  0  0  0  0  0  0  0  0
    1.9057    2.4496   -0.2906 C   0  0  0  0  0  0  0  0  0  0  0  0
    1.2696    1.6851   -1.2190 N   0  0  0  0  0  0  0  0  0  0  0  0
    0.6864   -2.2874   -0.0774 C   0  0  0  0  0  0  0  0  0  0  0  0
    0.8786   -3.2946    0.5981 O   0  0  0  0  0  0  0  0  0  0  0  0
   -0.3190   -1.3296    0.3064 C   0  0  0  0  0  0  0  0  0  0  0  0
   -1.5936   -1.1203   -0.1762 C   0  0  0  0  0  0  0  0  0  0  0  0
   -2.3715   -1.9803   -1.4236 Cl  0  0  0  0  0  0  0  0  0  0  0  0
   -2.1568   -0.0133    0.5228 C   0  0  0  0  0  0  0  0  0  0  0  0
   -3.3834    0.6809    0.4542 C   0  0  0  0  0  0  0  0  0  0  0  0
   -3.5952    1.7691    1.3069 C   0  0  0  0  0  0  0  0  0  0  0  0
   -5.2342    2.7110    1.2143 Br  0  0  0  0  0  0  0  0  0  0  0  0
   -2.6224    2.1745    2.2175 C   0  0  0  0  0  0  0  0  0  0  0  0
   -1.4022    1.4981    2.3066 C   0  0  0  0  0  0  0  0  0  0  0  0
   -1.2019    0.4103    1.4494 C   0  0  0  0  0  0  0  0  0  0  0  0
   -0.1192   -0.4306    1.3289 N   0  0  0  0  0  0  0  0  0  0  0  0
    3.5270   -2.2515   -1.1401 H   0  0  0  0  0  0  0  0  0  0  0  0
    2.6941   -2.9823   -2.5430 H   0  0  0  0  0  0  0  0  0  0  0  0
    2.5947   -3.7531   -0.9481 H   0  0  0  0  0  0  0  0  0  0  0  0
    1.9362   -0.7992   -2.8668 H   0  0  0  0  0  0  0  0  0  0  0  0
    0.3096   -0.5771   -2.2327 H   0  0  0  0  0  0  0  0  0  0  0  0
    1.6738    3.4884   -0.1040 H   0  0  0  0  0  0  0  0  0  0  0  0
    0.5030    1.9688   -1.8123 H   0  0  0  0  0  0  0  0  0  0  0  0
   -4.1481    0.3696   -0.2519 H   0  0  0  0  0  0  0  0  0  0  0  0
   -2.8052    3.0204    2.8767 H   0  0  0  0  0  0  0  0  0  0  0  0
   -0.6441    1.8055    3.0216 H   0  0  0  0  0  0  0  0  0  0  0  0
    0.7433   -0.3531    1.8567 H   0  0  0  0  0  0  0  0  0  0  0  0
  1  2  1  0
  2  3  1  0
  3  4  1  0
  4  5  2  0
  5  6  1  0
  6  7  2  0
  7  8  1  0
  2  9  1  0
  9 10  2  0
  9 11  1  0
 11 12  2  0
 12 13  1  0
 12 14  1  0
 14 15  2  0
 15 16  1  0
 16 17  1  0
 16 18  2  0
 18 19  1  0
 19 20  2  0
 20 21  1  0
  8  4  1  0
 21 11  1  0
 20 14  1  0
  1 22  1  0
  1 23  1  0
  1 24  1  0
  3 25  1  0
  3 26  1  0
  7 27  1  0
  8 28  1  0
 15 29  1  0
 18 30  1  0
 19 31  1  0
 21 32  1  0
M  END
$$$$
OCNT-2312417
     RDKit          3D

 41 44  0  0  0  0  0  0  0  0999 V2000
   -3.8866   -1.9478    0.7859 C   0  0  0  0  0  0  0  0  0  0  0  0
   -3.4419   -0.5156    1.0913 C   0  0  0  0  0  0  0  0  0  0  0  0
   -4.5675    0.2450    1.8024 C   0  0  0  0  0  0  0  0  0  0  0  0
   -2.9618    0.1789   -0.1585 C   0  0  0  0  0  0  0  0  0  0  0  0
   -3.8408    0.8402   -0.9330 N   0  0  0  0  0  0  0  0  0  0  0  0
   -3.0985    1.3315   -1.9379 N   0  0  0  0  0  0  0  0  0  0  0  0
   -3.7333    2.1180   -2.9669 C   0  0  0  0  0  0  0  0  0  0  0  0
   -1.7832    1.0020   -1.8546 C   0  0  0  0  0  0  0  0  0  0  0  0
   -1.6526    0.2408   -0.7127 C   0  0  0  0  0  0  0  0  0  0  0  0
   -0.4256   -0.3659   -0.2105 C   0  0  0  0  0  0  0  0  0  0  0  0
   -0.3318   -1.1688    0.8564 N   0  0  0  0  0  0  0  0  0  0  0  0
    1.0248   -1.4845    0.9057 O   0  0  0  0  0  0  0  0  0  0  0  0
    1.6148   -0.8302   -0.1380 C   0  0  0  0  0  0  0  0  0  0  0  0
    3.0730   -1.0382   -0.3115 C   0  0  0  0  0  0  0  0  0  0  0  0
    3.7612   -0.0135   -1.2673 C   0  0  0  0  0  0  0  0  0  0  0  0
    4.9244    0.5289   -0.4069 C   0  0  0  0  0  0  0  0  0  0  0  0
    4.3275    1.3630    0.7012 C   0  0  0  0  0  0  0  0  0  0  0  0
    3.7191    0.5204    1.5491 C   0  0  0  0  0  0  0  0  0  0  0  0
    3.8980   -0.8776    0.9939 C   0  0  0  0  0  0  0  0  0  0  0  0
    5.3061   -0.7104    0.4083 C   0  0  0  0  0  0  0  0  0  0  0  0
    0.7625   -0.1453   -0.8664 N   0  0  0  0  0  0  0  0  0  0  0  0
   -3.0761   -2.5237    0.3262 H   0  0  0  0  0  0  0  0  0  0  0  0
   -4.7364   -1.9632    0.0941 H   0  0  0  0  0  0  0  0  0  0  0  0
   -4.1873   -2.4663    1.7026 H   0  0  0  0  0  0  0  0  0  0  0  0
   -2.6139   -0.5618    1.8070 H   0  0  0  0  0  0  0  0  0  0  0  0
   -4.8245   -0.2429    2.7490 H   0  0  0  0  0  0  0  0  0  0  0  0
   -4.2634    1.2733    2.0281 H   0  0  0  0  0  0  0  0  0  0  0  0
   -5.4775    0.2892    1.1934 H   0  0  0  0  0  0  0  0  0  0  0  0
   -2.9852    2.4324   -3.6985 H   0  0  0  0  0  0  0  0  0  0  0  0
   -4.4938    1.5017   -3.4524 H   0  0  0  0  0  0  0  0  0  0  0  0
   -4.1890    2.9942   -2.4994 H   0  0  0  0  0  0  0  0  0  0  0  0
   -1.0573    1.3152   -2.5919 H   0  0  0  0  0  0  0  0  0  0  0  0
    3.2262   -2.0478   -0.7158 H   0  0  0  0  0  0  0  0  0  0  0  0
    4.1536   -0.5384   -2.1466 H   0  0  0  0  0  0  0  0  0  0  0  0
    3.0999    0.7874   -1.6157 H   0  0  0  0  0  0  0  0  0  0  0  0
    5.7428    1.0022   -0.9502 H   0  0  0  0  0  0  0  0  0  0  0  0
    4.3479    2.4410    0.7644 H   0  0  0  0  0  0  0  0  0  0  0  0
    3.1505    0.7862    2.4282 H   0  0  0  0  0  0  0  0  0  0  0  0
    3.7978   -1.6776    1.7291 H   0  0  0  0  0  0  0  0  0  0  0  0
    5.6231   -1.5561   -0.2122 H   0  0  0  0  0  0  0  0  0  0  0  0
    6.0751   -0.5161    1.1670 H   0  0  0  0  0  0  0  0  0  0  0  0
  1  2  1  0
  2  3  1  0
  2  4  1  0
  4  5  2  0
  5  6  1  0
  6  7  1  0
  6  8  1  0
  8  9  2  0
  9 10  1  0
 10 11  2  0
 11 12  1  0
 12 13  1  0
 13 14  1  0
 14 15  1  0
 15 16  1  0
 16 17  1  0
 17 18  2  0
 18 19  1  0
 19 20  1  0
 13 21  2  0
  9  4  1  0
 21 10  1  0
 19 14  1  0
 20 16  1  0
  1 22  1  0
  1 23  1  0
  1 24  1  0
  2 25  1  0
  3 26  1  0
  3 27  1  0
  3 28  1  0
  7 29  1  0
  7 30  1  0
  7 31  1  0
  8 32  1  0
 14 33  1  0
 15 34  1  0
 15 35  1  0
 16 36  1  0
 17 37  1  0
 18 38  1  0
 19 39  1  0
 20 40  1  0
 20 41  1  0
M  END
$$$$
OCNT-2312418
     RDKit          3D

 42 45  0  0  0  0  0  0  0  0999 V2000
    1.6728   -0.8889    2.7016 O   0  0  0  0  0  0  0  0  0  0  0  0
    2.0813   -0.5731    1.5855 C   0  0  0  0  0  0  0  0  0  0  0  0
    1.2414    0.0119    0.6507 N   0  0  0  0  0  0  0  0  0  0  0  0
   -0.1644    0.2352    0.9367 C   0  0  0  0  0  0  0  0  0  0  0  0
   -0.9948   -1.0446    0.8314 C   0  0  0  0  0  0  0  0  0  0  0  0
   -2.4411   -0.7868    1.0926 C   0  0  0  0  0  0  0  0  0  0  0  0
   -3.1354   -1.0808    2.2475 C   0  0  0  0  0  0  0  0  0  0  0  0
   -4.7670   -0.5984    2.0884 S   0  0  0  0  0  0  0  0  0  0  0  0
   -4.4496   -0.0225    0.4925 C   0  0  0  0  0  0  0  0  0  0  0  0
   -5.5034    0.5803   -0.3506 C   0  0  0  0  0  0  0  0  0  0  0  0
   -5.2368    0.7975   -1.7146 C   0  0  0  0  0  0  0  0  0  0  0  0
   -6.1934    1.3653   -2.5609 C   0  0  0  0  0  0  0  0  0  0  0  0
   -7.4378    1.7309   -2.0566 C   0  0  0  0  0  0  0  0  0  0  0  0
   -7.7235    1.5307   -0.7087 C   0  0  0  0  0  0  0  0  0  0  0  0
   -6.7648    0.9617    0.1373 C   0  0  0  0  0  0  0  0  0  0  0  0
   -3.1981   -0.1879    0.0994 N   0  0  0  0  0  0  0  0  0  0  0  0
    3.4701   -0.8000    1.1291 C   0  0  0  0  0  0  0  0  0  0  0  0
    4.3343   -1.5378    1.8559 N   0  0  0  0  0  0  0  0  0  0  0  0
    5.4749   -1.5248    1.1527 N   0  0  0  0  0  0  0  0  0  0  0  0
    5.3879   -0.8099    0.0001 C   0  0  0  0  0  0  0  0  0  0  0  0
    6.5098   -0.6089   -1.0395 C   0  0  0  0  0  0  0  0  0  0  0  0
    7.8086    0.0092   -0.5952 C   0  0  0  0  0  0  0  0  0  0  0  0
    6.8696    0.7883   -1.4688 C   0  0  0  0  0  0  0  0  0  0  0  0
    4.1064   -0.3252   -0.0574 C   0  0  0  0  0  0  0  0  0  0  0  0
    1.5563    0.1219   -0.3009 H   0  0  0  0  0  0  0  0  0  0  0  0
   -0.5184    0.9882    0.2238 H   0  0  0  0  0  0  0  0  0  0  0  0
   -0.2518    0.6642    1.9425 H   0  0  0  0  0  0  0  0  0  0  0  0
   -0.6202   -1.8016    1.5312 H   0  0  0  0  0  0  0  0  0  0  0  0
   -0.8830   -1.4747   -0.1715 H   0  0  0  0  0  0  0  0  0  0  0  0
   -2.7685   -1.5437    3.1527 H   0  0  0  0  0  0  0  0  0  0  0  0
   -4.2689    0.5180   -2.1290 H   0  0  0  0  0  0  0  0  0  0  0  0
   -5.9629    1.5207   -3.6115 H   0  0  0  0  0  0  0  0  0  0  0  0
   -8.1832    2.1737   -2.7120 H   0  0  0  0  0  0  0  0  0  0  0  0
   -8.6935    1.8194   -0.3107 H   0  0  0  0  0  0  0  0  0  0  0  0
   -7.0275    0.8319    1.1841 H   0  0  0  0  0  0  0  0  0  0  0  0
    6.2767   -2.0235    1.5227 H   0  0  0  0  0  0  0  0  0  0  0  0
    6.5663   -1.3853   -1.7978 H   0  0  0  0  0  0  0  0  0  0  0  0
    8.7249   -0.3604   -1.0407 H   0  0  0  0  0  0  0  0  0  0  0  0
    7.9175    0.3325    0.4343 H   0  0  0  0  0  0  0  0  0  0  0  0
    7.1498    0.9431   -2.5046 H   0  0  0  0  0  0  0  0  0  0  0  0
    6.3466    1.6270   -1.0235 H   0  0  0  0  0  0  0  0  0  0  0  0
    3.6927    0.2956   -0.8379 H   0  0  0  0  0  0  0  0  0  0  0  0
  1  2  2  0
  2  3  1  0
  3  4  1  0
  4  5  1  0
  5  6  1  0
  6  7  2  0
  7  8  1  0
  8  9  1  0
  9 10  1  0
 10 11  2  0
 11 12  1  0
 12 13  2  0
 13 14  1  0
 14 15  2  0
  9 16  2  0
  2 17  1  0
 17 18  2  0
 18 19  1  0
 19 20  1  0
 20 21  1  0
 21 22  1  0
 22 23  1  0
 20 24  2  0
 16  6  1  0
 24 17  1  0
 15 10  1  0
 23 21  1  0
  3 25  1  0
  4 26  1  0
  4 27  1  0
  5 28  1  0
  5 29  1  0
  7 30  1  0
 11 31  1  0
 12 32  1  0
 13 33  1  0
 14 34  1  0
 15 35  1  0
 19 36  1  0
 21 37  1  0
 22 38  1  0
 22 39  1  0
 23 40  1  0
 23 41  1  0
 24 42  1  0
M  END
$$$$
OCNT-2312420
     RDKit          3D

 44 46  0  0  0  0  0  0  0  0999 V2000
   -3.7206   -0.8370    0.8666 C   0  0  0  0  0  0  0  0  0  0  0  0
   -3.1308    0.3471    0.2195 N   0  0  0  0  0  0  0  0  0  0  0  0
   -3.0894    1.5301    1.0889 C   0  0  0  0  0  0  0  0  0  0  0  0
   -3.7218    0.5603   -1.0535 C   0  0  0  0  0  0  0  0  0  0  0  0
   -4.8619    1.3607   -1.2241 C   0  0  0  0  0  0  0  0  0  0  0  0
   -5.4177    1.5462   -2.4875 C   0  0  0  0  0  0  0  0  0  0  0  0
   -4.8254    0.9173   -3.5634 C   0  0  0  0  0  0  0  0  0  0  0  0
   -3.7389    0.1279   -3.4578 N   0  0  0  0  0  0  0  0  0  0  0  0
   -3.1906   -0.0409   -2.2195 C   0  0  0  0  0  0  0  0  0  0  0  0
   -1.9722   -0.9423   -2.1723 C   0  0  0  0  0  0  0  0  0  0  0  0
   -0.8936   -0.4146   -1.3571 N   0  0  0  0  0  0  0  0  0  0  0  0
    0.2635   -1.1474   -1.2161 C   0  0  0  0  0  0  0  0  0  0  0  0
    0.4658   -2.1865   -1.8291 O   0  0  0  0  0  0  0  0  0  0  0  0
    1.1158   -0.5265   -0.3293 N   0  0  0  0  0  0  0  0  0  0  0  0
    2.3748   -0.9759    0.1193 C   0  0  0  0  0  0  0  0  0  0  0  0
    2.9010   -2.2355   -0.1765 C   0  0  0  0  0  0  0  0  0  0  0  0
    4.1592   -2.6066    0.3018 C   0  0  0  0  0  0  0  0  0  0  0  0
    4.8993   -1.7209    1.0850 C   0  0  0  0  0  0  0  0  0  0  0  0
    4.3905   -0.4539    1.4060 C   0  0  0  0  0  0  0  0  0  0  0  0
    5.1837    0.4535    2.2306 C   0  0  0  0  0  0  0  0  0  0  0  0
    6.4118    0.3009    2.6974 N   0  0  0  0  0  0  0  0  0  0  0  0
    6.6428    1.4522    3.4078 C   0  0  0  0  0  0  0  0  0  0  0  0
    5.5389    2.2661    3.3540 C   0  0  0  0  0  0  0  0  0  0  0  0
    4.5926    1.6402    2.5995 O   0  0  0  0  0  0  0  0  0  0  0  0
    3.1229   -0.0952    0.9157 C   0  0  0  0  0  0  0  0  0  0  0  0
   -3.1748   -1.0586    1.7882 H   0  0  0  0  0  0  0  0  0  0  0  0
   -4.7725   -0.6715    1.1253 H   0  0  0  0  0  0  0  0  0  0  0  0
   -3.6504   -1.7256    0.2288 H   0  0  0  0  0  0  0  0  0  0  0  0
   -4.0759    1.7902    1.4888 H   0  0  0  0  0  0  0  0  0  0  0  0
   -2.6747    2.3949    0.5563 H   0  0  0  0  0  0  0  0  0  0  0  0
   -2.4271    1.3306    1.9393 H   0  0  0  0  0  0  0  0  0  0  0  0
   -5.3457    1.8380   -0.3769 H   0  0  0  0  0  0  0  0  0  0  0  0
   -6.2975    2.1610   -2.6252 H   0  0  0  0  0  0  0  0  0  0  0  0
   -5.2195    1.0315   -4.5715 H   0  0  0  0  0  0  0  0  0  0  0  0
   -1.5774   -1.0967   -3.1849 H   0  0  0  0  0  0  0  0  0  0  0  0
   -2.2621   -1.9226   -1.7772 H   0  0  0  0  0  0  0  0  0  0  0  0
   -1.2391    0.0148   -0.5060 H   0  0  0  0  0  0  0  0  0  0  0  0
    0.8457    0.4132   -0.0813 H   0  0  0  0  0  0  0  0  0  0  0  0
    2.3544   -2.9532   -0.7817 H   0  0  0  0  0  0  0  0  0  0  0  0
    4.5613   -3.5895    0.0622 H   0  0  0  0  0  0  0  0  0  0  0  0
    5.8790   -2.0258    1.4511 H   0  0  0  0  0  0  0  0  0  0  0  0
    7.5800    1.6267    3.9187 H   0  0  0  0  0  0  0  0  0  0  0  0
    5.2766    3.2356    3.7556 H   0  0  0  0  0  0  0  0  0  0  0  0
    2.7200    0.8874    1.1540 H   0  0  0  0  0  0  0  0  0  0  0  0
  1  2  1  0
  2  3  1  0
  2  4  1  0
  4  5  1  0
  5  6  2  0
  6  7  1  0
  7  8  2  0
  8  9  1  0
  9 10  1  0
 10 11  1  0
 11 12  1  0
 12 13  2  0
 12 14  1  0
 14 15  1  0
 15 16  2  0
 16 17  1  0
 17 18  2  0
 18 19  1  0
 19 20  1  0
 20 21  2  0
 21 22  1  0
 22 23  2  0
 23 24  1  0
 19 25  2  0
  9  4  2  0
 25 15  1  0
 24 20  1  0
  1 26  1  0
  1 27  1  0
  1 28  1  0
  3 29  1  0
  3 30  1  0
  3 31  1  0
  5 32  1  0
  6 33  1  0
  7 34  1  0
 10 35  1  0
 10 36  1  0
 11 37  1  0
 14 38  1  0
 16 39  1  0
 17 40  1  0
 18 41  1  0
 22 42  1  0
 23 43  1  0
 25 44  1  0
M  END
$$$$
OCNT-2312429
     RDKit          3D

 39 41  0  0  0  0  0  0  0  0999 V2000
    0.5220    4.9355    0.9699 O   0  0  0  0  0  0  0  0  0  0  0  0
    0.4818    3.7381    0.1988 C   0  0  0  0  0  0  0  0  0  0  0  0
   -0.5237    2.7630    0.7993 C   0  0  0  0  0  0  0  0  0  0  0  0
   -0.7391    1.5154   -0.0690 C   0  0  0  0  0  0  0  0  0  0  0  0
   -1.7848    0.5649    0.5553 C   0  0  0  0  0  0  0  0  0  0  0  0
   -2.1181   -0.6116   -0.3374 C   0  0  0  0  0  0  0  0  0  0  0  0
   -2.9189   -0.4420   -1.4749 C   0  0  0  0  0  0  0  0  0  0  0  0
   -3.1888   -1.5227   -2.3158 C   0  0  0  0  0  0  0  0  0  0  0  0
   -2.6623   -2.7807   -2.0283 C   0  0  0  0  0  0  0  0  0  0  0  0
   -1.8693   -2.9613   -0.8971 C   0  0  0  0  0  0  0  0  0  0  0  0
   -1.5999   -1.8830   -0.0540 C   0  0  0  0  0  0  0  0  0  0  0  0
    0.5051    0.8150   -0.3968 N   0  0  0  0  0  0  0  0  0  0  0  0
    1.3026    0.1508    0.5141 C   0  0  0  0  0  0  0  0  0  0  0  0
    1.2588    0.4727    1.7844 N   0  0  0  0  0  0  0  0  0  0  0  0
    2.0696   -0.1805    2.6855 C   0  0  0  0  0  0  0  0  0  0  0  0
    2.9186   -1.1578    2.3463 C   0  0  0  0  0  0  0  0  0  0  0  0
    2.9886   -1.5406    1.0217 N   0  0  0  0  0  0  0  0  0  0  0  0
    3.7603   -2.5107    0.4652 N   0  0  0  0  0  0  0  0  0  0  0  0
    3.4322   -2.4895   -0.8292 C   0  0  0  0  0  0  0  0  0  0  0  0
    2.4631   -1.5213   -1.1118 C   0  0  0  0  0  0  0  0  0  0  0  0
    1.7385   -1.2151   -2.8062 Br  0  0  0  0  0  0  0  0  0  0  0  0
    2.1921   -0.9112    0.0851 C   0  0  0  0  0  0  0  0  0  0  0  0
   -0.3704    5.3196    0.9707 H   0  0  0  0  0  0  0  0  0  0  0  0
    1.4907    3.3153    0.1912 H   0  0  0  0  0  0  0  0  0  0  0  0
    0.2130    4.0049   -0.8283 H   0  0  0  0  0  0  0  0  0  0  0  0
   -1.4847    3.2800    0.9237 H   0  0  0  0  0  0  0  0  0  0  0  0
   -0.2138    2.5057    1.8181 H   0  0  0  0  0  0  0  0  0  0  0  0
   -1.1440    1.8719   -1.0261 H   0  0  0  0  0  0  0  0  0  0  0  0
   -1.4451    0.2010    1.5328 H   0  0  0  0  0  0  0  0  0  0  0  0
   -2.7132    1.1166    0.7541 H   0  0  0  0  0  0  0  0  0  0  0  0
   -3.3392    0.5320   -1.7144 H   0  0  0  0  0  0  0  0  0  0  0  0
   -3.8117   -1.3844   -3.1958 H   0  0  0  0  0  0  0  0  0  0  0  0
   -2.8737   -3.6217   -2.6835 H   0  0  0  0  0  0  0  0  0  0  0  0
   -1.4607   -3.9426   -0.6699 H   0  0  0  0  0  0  0  0  0  0  0  0
   -0.9767   -2.0395    0.8245 H   0  0  0  0  0  0  0  0  0  0  0  0
    0.4349    0.3287   -1.2878 H   0  0  0  0  0  0  0  0  0  0  0  0
    1.9905    0.1475    3.7184 H   0  0  0  0  0  0  0  0  0  0  0  0
    3.5603   -1.6759    3.0439 H   0  0  0  0  0  0  0  0  0  0  0  0
    3.9154   -3.1863   -1.5022 H   0  0  0  0  0  0  0  0  0  0  0  0
  1  2  1  0
  2  3  1  0
  3  4  1  0
  4  5  1  0
  5  6  1  0
  6  7  2  0
  7  8  1  0
  8  9  2  0
  9 10  1  0
 10 11  2  0
  4 12  1  0
 12 13  1  0
 13 14  2  0
 14 15  1  0
 15 16  2  0
 16 17  1  0
 17 18  1  0
 18 19  2  0
 19 20  1  0
 20 21  1  0
 20 22  2  0
 11  6  1  0
 22 13  1  0
 22 17  1  0
  1 23  1  0
  2 24  1  0
  2 25  1  0
  3 26  1  0
  3 27  1  0
  4 28  1  0
  5 29  1  0
  5 30  1  0
  7 31  1  0
  8 32  1  0
  9 33  1  0
 10 34  1  0
 11 35  1  0
 12 36  1  0
 15 37  1  0
 16 38  1  0
 19 39  1  0
M  END
$$$$
OCNT-2312434
     RDKit          3D

 48 51  0  0  0  0  0  0  0  0999 V2000
    4.1649    3.2175   -0.6991 N   0  0  0  0  0  0  0  0  0  0  0  0
    2.9729    2.7533   -1.1761 C   0  0  0  0  0  0  0  0  0  0  0  0
    2.2489    3.4780   -1.8509 O   0  0  0  0  0  0  0  0  0  0  0  0
    2.6755    1.3562   -0.8961 C   0  0  0  0  0  0  0  0  0  0  0  0
    1.8538    0.5875   -1.7001 C   0  0  0  0  0  0  0  0  0  0  0  0
    1.7533   -0.6703   -1.1661 N   0  0  0  0  0  0  0  0  0  0  0  0
    0.9427   -1.7332   -1.7505 C   0  0  0  0  0  0  0  0  0  0  0  0
   -0.0514   -2.3557   -0.7820 C   0  0  0  0  0  0  0  0  0  0  0  0
    0.1465   -3.5110   -0.3864 O   0  0  0  0  0  0  0  0  0  0  0  0
   -1.1585   -1.6345   -0.3565 N   0  0  0  0  0  0  0  0  0  0  0  0
   -2.0908   -2.2550    0.5814 C   0  0  0  0  0  0  0  0  0  0  0  0
   -2.3481   -1.3386    1.7742 C   0  0  0  0  0  0  0  0  0  0  0  0
   -2.6746    0.0725    1.3515 C   0  0  0  0  0  0  0  0  0  0  0  0
   -3.3036    0.9369    2.2579 C   0  0  0  0  0  0  0  0  0  0  0  0
   -3.5536    2.2641    1.9124 C   0  0  0  0  0  0  0  0  0  0  0  0
   -3.1628    2.7452    0.6662 C   0  0  0  0  0  0  0  0  0  0  0  0
   -2.5271    1.8981   -0.2402 C   0  0  0  0  0  0  0  0  0  0  0  0
   -2.2806    0.5530    0.0875 C   0  0  0  0  0  0  0  0  0  0  0  0
   -1.6081   -0.3556   -0.9350 C   0  0  0  0  0  0  0  0  0  0  0  0
   -2.4979   -0.6765   -2.1672 C   0  0  0  0  0  0  0  0  0  0  0  0
   -3.8560   -0.6395   -2.0164 N   0  0  0  0  0  0  0  0  0  0  0  0
   -2.0235   -1.0685   -3.2340 O   0  0  0  0  0  0  0  0  0  0  0  0
    2.5560   -0.7681   -0.0483 C   0  0  0  0  0  0  0  0  0  0  0  0
    2.8314   -1.8562    0.7972 C   0  0  0  0  0  0  0  0  0  0  0  0
    3.6507   -1.6452    1.9083 C   0  0  0  0  0  0  0  0  0  0  0  0
    4.1776   -0.3887    2.1759 C   0  0  0  0  0  0  0  0  0  0  0  0
    3.9126    0.6869    1.3224 C   0  0  0  0  0  0  0  0  0  0  0  0
    3.1076    0.5020    0.1741 C   0  0  0  0  0  0  0  0  0  0  0  0
    4.4482    4.1197   -1.0552 H   0  0  0  0  0  0  0  0  0  0  0  0
    4.8930    2.5588   -0.4631 H   0  0  0  0  0  0  0  0  0  0  0  0
    1.3314    0.8572   -2.6104 H   0  0  0  0  0  0  0  0  0  0  0  0
    1.6437   -2.5045   -2.0906 H   0  0  0  0  0  0  0  0  0  0  0  0
    0.4319   -1.3506   -2.6367 H   0  0  0  0  0  0  0  0  0  0  0  0
   -3.0224   -2.4599    0.0412 H   0  0  0  0  0  0  0  0  0  0  0  0
   -1.7182   -3.2174    0.9457 H   0  0  0  0  0  0  0  0  0  0  0  0
   -1.4513   -1.3010    2.4053 H   0  0  0  0  0  0  0  0  0  0  0  0
   -3.1663   -1.7540    2.3739 H   0  0  0  0  0  0  0  0  0  0  0  0
   -3.5907    0.5828    3.2458 H   0  0  0  0  0  0  0  0  0  0  0  0
   -4.0382    2.9284    2.6235 H   0  0  0  0  0  0  0  0  0  0  0  0
   -3.3423    3.7852    0.4044 H   0  0  0  0  0  0  0  0  0  0  0  0
   -2.2158    2.2989   -1.2038 H   0  0  0  0  0  0  0  0  0  0  0  0
   -0.7488    0.1924   -1.3210 H   0  0  0  0  0  0  0  0  0  0  0  0
   -4.4158   -0.8177   -2.8400 H   0  0  0  0  0  0  0  0  0  0  0  0
   -4.3001   -0.1782   -1.2317 H   0  0  0  0  0  0  0  0  0  0  0  0
    2.4181   -2.8438    0.6124 H   0  0  0  0  0  0  0  0  0  0  0  0
    3.8658   -2.4756    2.5770 H   0  0  0  0  0  0  0  0  0  0  0  0
    4.7979   -0.2385    3.0558 H   0  0  0  0  0  0  0  0  0  0  0  0
    4.3220    1.6635    1.5636 H   0  0  0  0  0  0  0  0  0  0  0  0
  1  2  1  0
  2  3  2  0
  2  4  1  0
  4  5  2  0
  5  6  1  0
  6  7  1  0
  7  8  1  0
  8  9  2  0
  8 10  1  0
 10 11  1  0
 11 12  1  0
 12 13  1  0
 13 14  2  0
 14 15  1  0
 15 16  2  0
 16 17  1  0
 17 18  2  0
 18 19  1  0
 19 20  1  0
 20 21  1  0
 20 22  2  0
  6 23  1  0
 23 24  2  0
 24 25  1  0
 25 26  2  0
 26 27  1  0
 27 28  2  0
 28  4  1  0
 19 10  1  0
 28 23  1  0
 18 13  1  0
  1 29  1  0
  1 30  1  0
  5 31  1  0
  7 32  1  0
  7 33  1  0
 11 34  1  0
 11 35  1  0
 12 36  1  0
 12 37  1  0
 14 38  1  0
 15 39  1  0
 16 40  1  0
 17 41  1  0
 19 42  1  0
 21 43  1  0
 21 44  1  0
 24 45  1  0
 25 46  1  0
 26 47  1  0
 27 48  1  0
M  END
$$$$
OCNT-2312445
     RDKit          3D

 47 50  0  0  0  0  0  0  0  0999 V2000
    7.9533    1.4410   -0.7607 C   0  0  0  0  0  0  0  0  0  0  0  0
    6.4927    1.2416   -0.4855 C   0  0  0  0  0  0  0  0  0  0  0  0
    5.5290    1.8656   -1.2825 C   0  0  0  0  0  0  0  0  0  0  0  0
    4.1669    1.6544   -1.0436 C   0  0  0  0  0  0  0  0  0  0  0  0
    3.7361    0.8074   -0.0115 C   0  0  0  0  0  0  0  0  0  0  0  0
    2.3026    0.5932    0.2266 C   0  0  0  0  0  0  0  0  0  0  0  0
    1.3628    1.2533   -0.4721 N   0  0  0  0  0  0  0  0  0  0  0  0
    0.1987    0.8342    0.0398 N   0  0  0  0  0  0  0  0  0  0  0  0
    0.3191   -0.1412    0.9855 C   0  0  0  0  0  0  0  0  0  0  0  0
   -0.7589   -0.7759    1.7009 C   0  0  0  0  0  0  0  0  0  0  0  0
   -0.6361   -1.0930    2.8823 O   0  0  0  0  0  0  0  0  0  0  0  0
   -1.9634   -0.9895    1.0161 N   0  0  0  0  0  0  0  0  0  0  0  0
   -3.0623   -1.5492    1.8090 C   0  0  0  0  0  0  0  0  0  0  0  0
   -4.4198   -1.3792    1.1083 C   0  0  0  0  0  0  0  0  0  0  0  0
   -5.5143   -2.1187    1.8673 C   0  0  0  0  0  0  0  0  0  0  0  0
   -4.3961   -1.9030   -0.2286 O   0  0  0  0  0  0  0  0  0  0  0  0
   -3.3536   -1.3415   -1.0474 C   0  0  0  0  0  0  0  0  0  0  0  0
   -3.6823    0.0499   -1.5549 C   0  0  0  0  0  0  0  0  0  0  0  0
   -4.2071    0.2981   -2.8132 C   0  0  0  0  0  0  0  0  0  0  0  0
   -4.4564    1.9591   -3.1266 S   0  0  0  0  0  0  0  0  0  0  0  0
   -3.8876    2.3895   -1.5770 C   0  0  0  0  0  0  0  0  0  0  0  0
   -3.5116    1.2874   -0.8416 C   0  0  0  0  0  0  0  0  0  0  0  0
   -1.9690   -1.4659   -0.3763 C   0  0  0  0  0  0  0  0  0  0  0  0
    1.6821   -0.2804    1.1614 C   0  0  0  0  0  0  0  0  0  0  0  0
    4.7090    0.1746    0.7750 C   0  0  0  0  0  0  0  0  0  0  0  0
    6.0726    0.3852    0.5370 C   0  0  0  0  0  0  0  0  0  0  0  0
    8.5396    1.3554    0.1602 H   0  0  0  0  0  0  0  0  0  0  0  0
    8.1407    2.4381   -1.1729 H   0  0  0  0  0  0  0  0  0  0  0  0
    8.3052    0.6907   -1.4754 H   0  0  0  0  0  0  0  0  0  0  0  0
    5.8271    2.5233   -2.0957 H   0  0  0  0  0  0  0  0  0  0  0  0
    3.4387    2.1587   -1.6762 H   0  0  0  0  0  0  0  0  0  0  0  0
   -0.6543    1.2537   -0.3133 H   0  0  0  0  0  0  0  0  0  0  0  0
   -2.8359   -2.6130    1.9582 H   0  0  0  0  0  0  0  0  0  0  0  0
   -3.0879   -1.0697    2.7945 H   0  0  0  0  0  0  0  0  0  0  0  0
   -4.6925   -0.3196    1.0678 H   0  0  0  0  0  0  0  0  0  0  0  0
   -6.4797   -1.9896    1.3660 H   0  0  0  0  0  0  0  0  0  0  0  0
   -5.3153   -3.1958    1.8927 H   0  0  0  0  0  0  0  0  0  0  0  0
   -5.6032   -1.7531    2.8948 H   0  0  0  0  0  0  0  0  0  0  0  0
   -3.3151   -1.9890   -1.9342 H   0  0  0  0  0  0  0  0  0  0  0  0
   -4.4597   -0.4263   -3.5765 H   0  0  0  0  0  0  0  0  0  0  0  0
   -3.8631    3.4284   -1.2765 H   0  0  0  0  0  0  0  0  0  0  0  0
   -3.1426    1.3724    0.1731 H   0  0  0  0  0  0  0  0  0  0  0  0
   -1.6931   -2.5277   -0.3222 H   0  0  0  0  0  0  0  0  0  0  0  0
   -1.2034   -0.9767   -0.9814 H   0  0  0  0  0  0  0  0  0  0  0  0
    2.1548   -0.9417    1.8742 H   0  0  0  0  0  0  0  0  0  0  0  0
    4.4290   -0.4910    1.5864 H   0  0  0  0  0  0  0  0  0  0  0  0
    6.8043   -0.1244    1.1602 H   0  0  0  0  0  0  0  0  0  0  0  0
  1  2  1  0
  2  3  1  0
  3  4  2  0
  4  5  1  0
  5  6  1  0
  6  7  2  0
  7  8  1  0
  8  9  1  0
  9 10  1  0
 10 11  2  0
 10 12  1  0
 12 13  1  0
 13 14  1  0
 14 15  1  0
 14 16  1  0
 16 17  1  0
 17 18  1  0
 18 19  2  0
 19 20  1  0
 20 21  1  0
 21 22  2  0
 17 23  1  0
  9 24  2  0
  5 25  2  0
 25 26  1  0
 26  2  2  0
 24  6  1  0
 23 12  1  0
 22 18  1  0
  1 27  1  0
  1 28  1  0
  1 29  1  0
  3 30  1  0
  4 31  1  0
  8 32  1  0
 13 33  1  0
 13 34  1  0
 14 35  1  0
 15 36  1  0
 15 37  1  0
 15 38  1  0
 17 39  1  0
 19 40  1  0
 21 41  1  0
 22 42  1  0
 23 43  1  0
 23 44  1  0
 24 45  1  0
 25 46  1  0
 26 47  1  0
M  END
$$$$
OCNT-2312476
     RDKit          3D

 41 44  0  0  0  0  0  0  0  0999 V2000
    4.9702   -0.2787   -2.6904 C   0  0  0  0  0  0  0  0  0  0  0  0
    5.0345   -1.1290   -1.5893 C   0  0  0  0  0  0  0  0  0  0  0  0
    4.1598   -0.9510   -0.5131 C   0  0  0  0  0  0  0  0  0  0  0  0
    3.2109    0.0817   -0.5247 C   0  0  0  0  0  0  0  0  0  0  0  0
    2.2913    0.2824    0.5937 C   0  0  0  0  0  0  0  0  0  0  0  0
    1.0124    0.8014    0.6473 C   0  0  0  0  0  0  0  0  0  0  0  0
    0.6225    0.7445    2.0082 C   0  0  0  0  0  0  0  0  0  0  0  0
   -0.6886    1.1792    2.6121 C   0  0  0  0  0  0  0  0  0  0  0  0
   -1.9170    1.0173    1.8189 N   0  0  0  0  0  0  0  0  0  0  0  0
   -2.2674   -0.2771    1.3810 C   0  0  0  0  0  0  0  0  0  0  0  0
   -2.2001   -1.3577    2.2808 C   0  0  0  0  0  0  0  0  0  0  0  0
   -2.6225   -2.6395    1.9254 C   0  0  0  0  0  0  0  0  0  0  0  0
   -3.1460   -2.8690    0.6620 C   0  0  0  0  0  0  0  0  0  0  0  0
   -3.2502   -1.8165   -0.2477 C   0  0  0  0  0  0  0  0  0  0  0  0
   -2.8203   -0.5171    0.0944 C   0  0  0  0  0  0  0  0  0  0  0  0
   -2.9216    0.5217   -0.8883 N   0  0  0  0  0  0  0  0  0  0  0  0
   -3.5352    0.4659   -2.1284 C   0  0  0  0  0  0  0  0  0  0  0  0
   -3.3606    1.6861   -2.7355 C   0  0  0  0  0  0  0  0  0  0  0  0
   -2.6289    2.4359   -1.8094 C   0  0  0  0  0  0  0  0  0  0  0  0
   -2.3510    1.7517   -0.7002 N   0  0  0  0  0  0  0  0  0  0  0  0
    1.6068    0.2484    2.7725 N   0  0  0  0  0  0  0  0  0  0  0  0
    2.5899   -0.0202    1.8974 N   0  0  0  0  0  0  0  0  0  0  0  0
    3.1539    0.9242   -1.6440 C   0  0  0  0  0  0  0  0  0  0  0  0
    4.0291    0.7471   -2.7190 C   0  0  0  0  0  0  0  0  0  0  0  0
    5.6496   -0.4180   -3.5273 H   0  0  0  0  0  0  0  0  0  0  0  0
    5.7617   -1.9368   -1.5696 H   0  0  0  0  0  0  0  0  0  0  0  0
    4.2204   -1.6466    0.3196 H   0  0  0  0  0  0  0  0  0  0  0  0
    0.4185    1.1559   -0.1838 H   0  0  0  0  0  0  0  0  0  0  0  0
   -0.5951    2.2523    2.8253 H   0  0  0  0  0  0  0  0  0  0  0  0
   -0.8189    0.7098    3.5949 H   0  0  0  0  0  0  0  0  0  0  0  0
   -1.8974    1.6489    1.0056 H   0  0  0  0  0  0  0  0  0  0  0  0
   -1.8307   -1.2109    3.2923 H   0  0  0  0  0  0  0  0  0  0  0  0
   -2.5498   -3.4509    2.6447 H   0  0  0  0  0  0  0  0  0  0  0  0
   -3.4765   -3.8664    0.3834 H   0  0  0  0  0  0  0  0  0  0  0  0
   -3.6572   -2.0527   -1.2254 H   0  0  0  0  0  0  0  0  0  0  0  0
   -4.0559   -0.4129   -2.4739 H   0  0  0  0  0  0  0  0  0  0  0  0
   -3.7200    1.9888   -3.7086 H   0  0  0  0  0  0  0  0  0  0  0  0
   -2.2834    3.4585   -1.8944 H   0  0  0  0  0  0  0  0  0  0  0  0
    3.4574   -0.3988    2.2588 H   0  0  0  0  0  0  0  0  0  0  0  0
    2.4315    1.7361   -1.6865 H   0  0  0  0  0  0  0  0  0  0  0  0
    3.9739    1.4118   -3.5772 H   0  0  0  0  0  0  0  0  0  0  0  0
  1  2  2  0
  2  3  1  0
  3  4  2  0
  4  5  1  0
  5  6  2  0
  6  7  1  0
  7  8  1  0
  8  9  1  0
  9 10  1  0
 10 11  2  0
 11 12  1  0
 12 13  2  0
 13 14  1  0
 14 15  2  0
 15 16  1  0
 16 17  1  0
 17 18  2  0
 18 19  1  0
 19 20  2  0
  7 21  2  0
 21 22  1  0
  4 23  1  0
 23 24  2  0
 24  1  1  0
 22  5  1  0
 15 10  1  0
 20 16  1  0
  1 25  1  0
  2 26  1  0
  3 27  1  0
  6 28  1  0
  8 29  1  0
  8 30  1  0
  9 31  1  0
 11 32  1  0
 12 33  1  0
 13 34  1  0
 14 35  1  0
 17 36  1  0
 18 37  1  0
 19 38  1  0
 22 39  1  0
 23 40  1  0
 24 41  1  0
M  END
$$$$
OCNT-2312480
     RDKit          3D

 56 61  0  0  0  0  0  0  0  0999 V2000
   -0.4251   -1.5944   -3.9038 O   0  0  0  0  0  0  0  0  0  0  0  0
   -0.2804   -1.5676   -2.6743 C   0  0  0  0  0  0  0  0  0  0  0  0
    0.8091   -0.6542   -2.1137 C   0  0  0  0  0  0  0  0  0  0  0  0
    0.2603    0.5311   -1.3260 C   0  0  0  0  0  0  0  0  0  0  0  0
    1.3975    1.4683   -0.9350 C   0  0  0  0  0  0  0  0  0  0  0  0
    2.5244    0.7696   -0.3010 N   0  0  0  0  0  0  0  0  0  0  0  0
    3.5740    1.4587    0.3155 C   0  0  0  0  0  0  0  0  0  0  0  0
    4.3920    0.7870    1.0931 N   0  0  0  0  0  0  0  0  0  0  0  0
    5.3778    1.5232    1.6487 N   0  0  0  0  0  0  0  0  0  0  0  0
    6.2900    0.9947    2.4813 N   0  0  0  0  0  0  0  0  0  0  0  0
    7.0737    2.0062    2.8362 N   0  0  0  0  0  0  0  0  0  0  0  0
    6.6754    3.1817    2.2426 N   0  0  0  0  0  0  0  0  0  0  0  0
    5.6300    2.8676    1.5085 C   0  0  0  0  0  0  0  0  0  0  0  0
    4.7674    3.5931    0.6698 C   0  0  0  0  0  0  0  0  0  0  0  0
    3.7561    2.9436    0.0767 C   0  0  0  0  0  0  0  0  0  0  0  0
    2.3675   -0.6785   -0.0955 C   0  0  0  0  0  0  0  0  0  0  0  0
    1.9489   -1.3759   -1.3902 C   0  0  0  0  0  0  0  0  0  0  0  0
   -1.0964   -2.3334   -1.8562 N   0  0  0  0  0  0  0  0  0  0  0  0
   -2.0839   -3.1727   -2.5401 C   0  0  0  0  0  0  0  0  0  0  0  0
   -2.9817   -3.9680   -1.5959 C   0  0  0  0  0  0  0  0  0  0  0  0
   -3.4790   -3.0769   -0.4653 C   0  0  0  0  0  0  0  0  0  0  0  0
   -2.3075   -2.4979    0.3493 C   0  0  0  0  0  0  0  0  0  0  0  0
   -2.6202   -1.0982    0.8193 C   0  0  0  0  0  0  0  0  0  0  0  0
   -2.9021   -0.0922    0.0205 N   0  0  0  0  0  0  0  0  0  0  0  0
   -3.1277    1.0566    0.7597 C   0  0  0  0  0  0  0  0  0  0  0  0
   -3.4602    2.3225    0.2378 C   0  0  0  0  0  0  0  0  0  0  0  0
   -3.6511    3.4035    1.1057 C   0  0  0  0  0  0  0  0  0  0  0  0
   -3.5126    3.2381    2.4814 C   0  0  0  0  0  0  0  0  0  0  0  0
   -3.1856    1.9914    3.0229 C   0  0  0  0  0  0  0  0  0  0  0  0
   -2.9988    0.9117    2.1413 C   0  0  0  0  0  0  0  0  0  0  0  0
   -2.5971   -0.7235    2.4948 S   0  0  0  0  0  0  0  0  0  0  0  0
   -0.9645   -2.5353   -0.4126 C   0  0  0  0  0  0  0  0  0  0  0  0
    1.2717   -0.2157   -3.0140 H   0  0  0  0  0  0  0  0  0  0  0  0
   -0.4820    1.0756   -1.9217 H   0  0  0  0  0  0  0  0  0  0  0  0
   -0.2568    0.2096   -0.4204 H   0  0  0  0  0  0  0  0  0  0  0  0
    1.7600    1.9795   -1.8339 H   0  0  0  0  0  0  0  0  0  0  0  0
    0.9989    2.2294   -0.2539 H   0  0  0  0  0  0  0  0  0  0  0  0
    4.9335    4.6532    0.5219 H   0  0  0  0  0  0  0  0  0  0  0  0
    3.0693    3.4650   -0.5836 H   0  0  0  0  0  0  0  0  0  0  0  0
    1.6342   -0.8470    0.7011 H   0  0  0  0  0  0  0  0  0  0  0  0
    3.2975   -1.1513    0.2387 H   0  0  0  0  0  0  0  0  0  0  0  0
    1.7131   -2.4262   -1.1859 H   0  0  0  0  0  0  0  0  0  0  0  0
    2.8174   -1.4023   -2.0636 H   0  0  0  0  0  0  0  0  0  0  0  0
   -1.5507   -3.8615   -3.2069 H   0  0  0  0  0  0  0  0  0  0  0  0
   -2.6968   -2.5176   -3.1712 H   0  0  0  0  0  0  0  0  0  0  0  0
   -3.8279   -4.3858   -2.1534 H   0  0  0  0  0  0  0  0  0  0  0  0
   -2.4285   -4.8172   -1.1774 H   0  0  0  0  0  0  0  0  0  0  0  0
   -4.1392   -3.6504    0.1987 H   0  0  0  0  0  0  0  0  0  0  0  0
   -4.1023   -2.2807   -0.8948 H   0  0  0  0  0  0  0  0  0  0  0  0
   -2.1744   -3.1362    1.2341 H   0  0  0  0  0  0  0  0  0  0  0  0
   -3.5738    2.4443   -0.8381 H   0  0  0  0  0  0  0  0  0  0  0  0
   -3.9127    4.3787    0.7011 H   0  0  0  0  0  0  0  0  0  0  0  0
   -3.6664    4.0870    3.1453 H   0  0  0  0  0  0  0  0  0  0  0  0
   -3.0834    1.8626    4.0959 H   0  0  0  0  0  0  0  0  0  0  0  0
   -0.2544   -1.8417    0.0306 H   0  0  0  0  0  0  0  0  0  0  0  0
   -0.5168   -3.5312   -0.2970 H   0  0  0  0  0  0  0  0  0  0  0  0
  1  2  2  0
  2  3  1  0
  3  4  1  0
  4  5  1  0
  5  6  1  0
  6  7  1  0
  7  8  2  0
  8  9  1  0
  9 10  1  0
 10 11  2  0
 11 12  1  0
 12 13  2  0
 13 14  1  0
 14 15  2  0
  6 16  1  0
 16 17  1  0
  2 18  1  0
 18 19  1  0
 19 20  1  0
 20 21  1  0
 21 22  1  0
 22 23  1  0
 23 24  2  0
 24 25  1  0
 25 26  2  0
 26 27  1  0
 27 28  2  0
 28 29  1  0
 29 30  2  0
 30 31  1  0
 22 32  1  0
 17  3  1  0
 32 18  1  0
 15  7  1  0
 31 23  1  0
 13  9  1  0
 30 25  1  0
  3 33  1  0
  4 34  1  0
  4 35  1  0
  5 36  1  0
  5 37  1  0
 14 38  1  0
 15 39  1  0
 16 40  1  0
 16 41  1  0
 17 42  1  0
 17 43  1  0
 19 44  1  0
 19 45  1  0
 20 46  1  0
 20 47  1  0
 21 48  1  0
 21 49  1  0
 22 50  1  0
 26 51  1  0
 27 52  1  0
 28 53  1  0
 29 54  1  0
 32 55  1  0
 32 56  1  0
M  END
$$$$
OCNT-2312485
     RDKit          3D

 51 53  0  0  0  0  0  0  0  0999 V2000
   -5.6473    1.7775    3.1455 C   0  0  0  0  0  0  0  0  0  0  0  0
   -4.6869    1.8164    2.0998 O   0  0  0  0  0  0  0  0  0  0  0  0
   -3.6941    0.8683    2.1106 C   0  0  0  0  0  0  0  0  0  0  0  0
   -3.5502   -0.1136    3.0968 C   0  0  0  0  0  0  0  0  0  0  0  0
   -2.5050   -1.0376    3.0247 C   0  0  0  0  0  0  0  0  0  0  0  0
   -1.6014   -0.9960    1.9603 C   0  0  0  0  0  0  0  0  0  0  0  0
   -0.5019   -2.0008    1.9236 C   0  0  0  0  0  0  0  0  0  0  0  0
   -0.0967   -2.5155    2.9585 O   0  0  0  0  0  0  0  0  0  0  0  0
   -0.0175   -2.3209    0.6773 N   0  0  0  0  0  0  0  0  0  0  0  0
    0.9704   -3.3751    0.4953 C   0  0  0  0  0  0  0  0  0  0  0  0
    1.6856   -3.2268   -0.8512 C   0  0  0  0  0  0  0  0  0  0  0  0
    2.1039   -4.2070   -1.4606 O   0  0  0  0  0  0  0  0  0  0  0  0
    1.8715   -1.9038   -1.2065 N   0  0  0  0  0  0  0  0  0  0  0  0
    2.3696   -1.3693   -2.4166 C   0  0  0  0  0  0  0  0  0  0  0  0
    2.6072   -2.1767   -3.5362 C   0  0  0  0  0  0  0  0  0  0  0  0
    3.0567   -1.6221   -4.7357 C   0  0  0  0  0  0  0  0  0  0  0  0
    3.2670   -0.2526   -4.8344 C   0  0  0  0  0  0  0  0  0  0  0  0
    3.0401    0.5667   -3.7276 C   0  0  0  0  0  0  0  0  0  0  0  0
    2.6010    0.0282   -2.5023 C   0  0  0  0  0  0  0  0  0  0  0  0
    2.4140    0.9080   -1.3315 C   0  0  0  0  0  0  0  0  0  0  0  0
    1.7053    0.6295   -0.2461 N   0  0  0  0  0  0  0  0  0  0  0  0
    1.8931    1.6791    0.6262 C   0  0  0  0  0  0  0  0  0  0  0  0
    1.2846    1.6782    1.9752 C   0  0  0  0  0  0  0  0  0  0  0  0
    2.6962    2.6335    0.0488 C   0  0  0  0  0  0  0  0  0  0  0  0
    3.0221    2.1352   -1.1801 N   0  0  0  0  0  0  0  0  0  0  0  0
   -1.7294   -0.0058    0.9770 C   0  0  0  0  0  0  0  0  0  0  0  0
   -2.7701    0.9277    1.0461 C   0  0  0  0  0  0  0  0  0  0  0  0
   -2.9692    1.9308    0.1289 O   0  0  0  0  0  0  0  0  0  0  0  0
   -1.9989    2.0923   -0.8972 C   0  0  0  0  0  0  0  0  0  0  0  0
   -6.3633    2.5867    2.9721 H   0  0  0  0  0  0  0  0  0  0  0  0
   -5.1780    1.9525    4.1191 H   0  0  0  0  0  0  0  0  0  0  0  0
   -6.2037    0.8344    3.1369 H   0  0  0  0  0  0  0  0  0  0  0  0
   -4.2317   -0.1865    3.9378 H   0  0  0  0  0  0  0  0  0  0  0  0
   -2.3999   -1.7937    3.8010 H   0  0  0  0  0  0  0  0  0  0  0  0
   -0.5548   -2.0545   -0.1384 H   0  0  0  0  0  0  0  0  0  0  0  0
    1.7075   -3.3463    1.3034 H   0  0  0  0  0  0  0  0  0  0  0  0
    0.4374   -4.3305    0.5168 H   0  0  0  0  0  0  0  0  0  0  0  0
    1.6523   -1.2103   -0.4837 H   0  0  0  0  0  0  0  0  0  0  0  0
    2.4379   -3.2491   -3.5089 H   0  0  0  0  0  0  0  0  0  0  0  0
    3.2326   -2.2664   -5.5939 H   0  0  0  0  0  0  0  0  0  0  0  0
    3.6063    0.1776   -5.7735 H   0  0  0  0  0  0  0  0  0  0  0  0
    3.2024    1.6339   -3.8491 H   0  0  0  0  0  0  0  0  0  0  0  0
    0.2979    2.1491    1.9478 H   0  0  0  0  0  0  0  0  0  0  0  0
    1.9085    2.2302    2.6854 H   0  0  0  0  0  0  0  0  0  0  0  0
    1.1753    0.6563    2.3495 H   0  0  0  0  0  0  0  0  0  0  0  0
    3.0723    3.5822    0.4052 H   0  0  0  0  0  0  0  0  0  0  0  0
    3.6504    2.5649   -1.8430 H   0  0  0  0  0  0  0  0  0  0  0  0
   -0.9921    0.0495    0.1840 H   0  0  0  0  0  0  0  0  0  0  0  0
   -1.0134    2.3167   -0.4776 H   0  0  0  0  0  0  0  0  0  0  0  0
   -2.3003    2.9474   -1.5097 H   0  0  0  0  0  0  0  0  0  0  0  0
   -1.9633    1.2137   -1.5496 H   0  0  0  0  0  0  0  0  0  0  0  0
  1  2  1  0
  2  3  1  0
  3  4  1  0
  4  5  2  0
  5  6  1  0
  6  7  1  0
  7  8  2  0
  7  9  1  0
  9 10  1  0
 10 11  1  0
 11 12  2  0
 11 13  1  0
 13 14  1  0
 14 15  2  0
 15 16  1  0
 16 17  2  0
 17 18  1  0
 18 19  2  0
 19 20  1  0
 20 21  2  0
 21 22  1  0
 22 23  1  0
 22 24  2  0
 24 25  1  0
  6 26  2  0
 26 27  1  0
 27 28  1  0
 28 29  1  0
 27  3  2  0
 19 14  1  0
 25 20  1  0
  1 30  1  0
  1 31  1  0
  1 32  1  0
  4 33  1  0
  5 34  1  0
  9 35  1  0
 10 36  1  0
 10 37  1  0
 13 38  1  0
 15 39  1  0
 16 40  1  0
 17 41  1  0
 18 42  1  0
 23 43  1  0
 23 44  1  0
 23 45  1  0
 24 46  1  0
 25 47  1  0
 26 48  1  0
 29 49  1  0
 29 50  1  0
 29 51  1  0
M  END
$$$$
OCNT-2312493
     RDKit          3D

 40 42  0  0  0  0  0  0  0  0999 V2000
   -2.2449    1.2658    0.1506 O   0  0  0  0  0  0  0  0  0  0  0  0
   -2.3766    0.0514    0.1174 C   0  0  0  0  0  0  0  0  0  0  0  0
   -3.6533   -0.6928    0.4201 C   0  0  0  0  0  0  0  0  0  0  0  0
   -4.8299    0.2201    0.7410 C   0  0  0  0  0  0  0  0  0  0  0  0
   -5.4488    1.0183   -0.4356 C   0  0  0  0  0  0  0  0  0  0  0  0
   -6.8335    0.7681    0.2043 C   0  0  0  0  0  0  0  0  0  0  0  0
   -7.8468    0.5223   -0.6550 F   0  0  0  0  0  0  0  0  0  0  0  0
   -6.2080   -0.4735    0.8814 C   0  0  0  0  0  0  0  0  0  0  0  0
   -1.3885   -0.8363   -0.1856 O   0  0  0  0  0  0  0  0  0  0  0  0
   -0.1208   -0.2558   -0.5322 C   0  0  0  0  0  0  0  0  0  0  0  0
    0.6785    0.1147    0.7155 C   0  0  0  0  0  0  0  0  0  0  0  0
    1.9892    0.5624    0.3743 O   0  0  0  0  0  0  0  0  0  0  0  0
    3.0110   -0.3496    0.2762 C   0  0  0  0  0  0  0  0  0  0  0  0
    2.8513   -1.7279    0.3699 C   0  0  0  0  0  0  0  0  0  0  0  0
    3.9740   -2.5236    0.2435 C   0  0  0  0  0  0  0  0  0  0  0  0
    5.2171   -2.0493    0.0318 N   0  0  0  0  0  0  0  0  0  0  0  0
    5.3767   -0.7198   -0.0641 C   0  0  0  0  0  0  0  0  0  0  0  0
    6.6529   -0.2180   -0.2852 C   0  0  0  0  0  0  0  0  0  0  0  0
    6.8993    1.1526   -0.3977 C   0  0  0  0  0  0  0  0  0  0  0  0
    5.8477    2.0514   -0.2872 C   0  0  0  0  0  0  0  0  0  0  0  0
    4.5576    1.5730   -0.0650 C   0  0  0  0  0  0  0  0  0  0  0  0
    4.3009    0.1865    0.0498 C   0  0  0  0  0  0  0  0  0  0  0  0
   -3.4609   -1.3449    1.2798 H   0  0  0  0  0  0  0  0  0  0  0  0
   -3.8893   -1.3224   -0.4458 H   0  0  0  0  0  0  0  0  0  0  0  0
   -4.6131    0.8609    1.6085 H   0  0  0  0  0  0  0  0  0  0  0  0
   -5.1458    2.0664   -0.5050 H   0  0  0  0  0  0  0  0  0  0  0  0
   -5.3324    0.5492   -1.4195 H   0  0  0  0  0  0  0  0  0  0  0  0
   -7.1027    1.5464    0.9304 H   0  0  0  0  0  0  0  0  0  0  0  0
   -6.5357   -0.6661    1.9064 H   0  0  0  0  0  0  0  0  0  0  0  0
   -6.3219   -1.3924    0.2945 H   0  0  0  0  0  0  0  0  0  0  0  0
    0.4182   -1.0014   -1.1258 H   0  0  0  0  0  0  0  0  0  0  0  0
   -0.2478    0.6099   -1.1947 H   0  0  0  0  0  0  0  0  0  0  0  0
    0.6837   -0.6859    1.4645 H   0  0  0  0  0  0  0  0  0  0  0  0
    0.1845    0.9547    1.2174 H   0  0  0  0  0  0  0  0  0  0  0  0
    1.8960   -2.2089    0.5294 H   0  0  0  0  0  0  0  0  0  0  0  0
    3.9013   -3.6058    0.3094 H   0  0  0  0  0  0  0  0  0  0  0  0
    7.4816   -0.9170   -0.3728 H   0  0  0  0  0  0  0  0  0  0  0  0
    7.9109    1.5097   -0.5707 H   0  0  0  0  0  0  0  0  0  0  0  0
    6.0267    3.1199   -0.3726 H   0  0  0  0  0  0  0  0  0  0  0  0
    3.7415    2.2879    0.0207 H   0  0  0  0  0  0  0  0  0  0  0  0
  1  2  2  0
  2  3  1  0
  3  4  1  0
  4  5  1  0
  5  6  1  0
  6  7  1  0
  6  8  1  0
  2  9  1  0
  9 10  1  0
 10 11  1  0
 11 12  1  0
 12 13  1  0
 13 14  2  0
 14 15  1  0
 15 16  2  0
 16 17  1  0
 17 18  2  0
 18 19  1  0
 19 20  2  0
 20 21  1  0
 21 22  2  0
  8  4  1  0
 22 13  1  0
 22 17  1  0
  3 23  1  0
  3 24  1  0
  4 25  1  0
  5 26  1  0
  5 27  1  0
  6 28  1  0
  8 29  1  0
  8 30  1  0
 10 31  1  0
 10 32  1  0
 11 33  1  0
 11 34  1  0
 14 35  1  0
 15 36  1  0
 18 37  1  0
 19 38  1  0
 20 39  1  0
 21 40  1  0
M  END
$$$$
OCNT-2312495
     RDKit          3D

 40 43  0  0  0  0  0  0  0  0999 V2000
    6.9390    2.1480    0.1006 C   0  0  0  0  0  0  0  0  0  0  0  0
    5.5320    1.9630    0.1784 O   0  0  0  0  0  0  0  0  0  0  0  0
    5.0454    0.7220   -0.1372 C   0  0  0  0  0  0  0  0  0  0  0  0
    5.8098   -0.3742   -0.5294 C   0  0  0  0  0  0  0  0  0  0  0  0
    5.2075   -1.6002   -0.8297 C   0  0  0  0  0  0  0  0  0  0  0  0
    3.8155   -1.6802   -0.7209 C   0  0  0  0  0  0  0  0  0  0  0  0
    2.9631   -2.7223   -0.9439 N   0  0  0  0  0  0  0  0  0  0  0  0
    1.6734   -2.4325   -0.7369 N   0  0  0  0  0  0  0  0  0  0  0  0
    1.6783   -1.1465   -0.3624 C   0  0  0  0  0  0  0  0  0  0  0  0
    0.4353   -0.6244   -0.0921 N   0  0  0  0  0  0  0  0  0  0  0  0
    0.0966    0.6393    0.3091 C   0  0  0  0  0  0  0  0  0  0  0  0
    0.8670    1.5675    0.5071 O   0  0  0  0  0  0  0  0  0  0  0  0
   -1.3367    0.8378    0.5030 C   0  0  0  0  0  0  0  0  0  0  0  0
   -2.3943   -0.0403    0.3455 C   0  0  0  0  0  0  0  0  0  0  0  0
   -3.5564    0.6425    0.6557 N   0  0  0  0  0  0  0  0  0  0  0  0
   -4.8940    0.1537    0.6387 C   0  0  0  0  0  0  0  0  0  0  0  0
   -5.1841   -1.1696    0.2772 C   0  0  0  0  0  0  0  0  0  0  0  0
   -6.5085   -1.6190    0.2704 C   0  0  0  0  0  0  0  0  0  0  0  0
   -7.5460   -0.7571    0.6217 C   0  0  0  0  0  0  0  0  0  0  0  0
   -7.2651    0.5587    0.9819 C   0  0  0  0  0  0  0  0  0  0  0  0
   -5.9453    1.0149    0.9912 C   0  0  0  0  0  0  0  0  0  0  0  0
   -3.2879    1.9249    1.0068 N   0  0  0  0  0  0  0  0  0  0  0  0
   -1.9632    2.0325    0.9128 C   0  0  0  0  0  0  0  0  0  0  0  0
    3.0052   -0.6136   -0.3330 C   0  0  0  0  0  0  0  0  0  0  0  0
    3.6485    0.6072   -0.0382 C   0  0  0  0  0  0  0  0  0  0  0  0
    7.1564    3.1828    0.3823 H   0  0  0  0  0  0  0  0  0  0  0  0
    7.3010    1.9986   -0.9219 H   0  0  0  0  0  0  0  0  0  0  0  0
    7.4628    1.4943    0.8058 H   0  0  0  0  0  0  0  0  0  0  0  0
    6.8901   -0.3109   -0.6136 H   0  0  0  0  0  0  0  0  0  0  0  0
    5.8063   -2.4524   -1.1351 H   0  0  0  0  0  0  0  0  0  0  0  0
    3.2038   -3.6611   -1.2404 H   0  0  0  0  0  0  0  0  0  0  0  0
   -0.2827   -1.3176   -0.2260 H   0  0  0  0  0  0  0  0  0  0  0  0
   -2.4230   -1.0749    0.0445 H   0  0  0  0  0  0  0  0  0  0  0  0
   -4.4122   -1.8781   -0.0040 H   0  0  0  0  0  0  0  0  0  0  0  0
   -6.7318   -2.6457   -0.0102 H   0  0  0  0  0  0  0  0  0  0  0  0
   -8.5740   -1.1106    0.6151 H   0  0  0  0  0  0  0  0  0  0  0  0
   -8.0722    1.2333    1.2564 H   0  0  0  0  0  0  0  0  0  0  0  0
   -5.7514    2.0478    1.2763 H   0  0  0  0  0  0  0  0  0  0  0  0
   -1.4940    2.9811    1.1467 H   0  0  0  0  0  0  0  0  0  0  0  0
    3.0856    1.4814    0.2701 H   0  0  0  0  0  0  0  0  0  0  0  0
  1  2  1  0
  2  3  1  0
  3  4  2  0
  4  5  1  0
  5  6  2  0
  6  7  1  0
  7  8  1  0
  8  9  2  0
  9 10  1  0
 10 11  1  0
 11 12  2  0
 11 13  1  0
 13 14  2  0
 14 15  1  0
 15 16  1  0
 16 17  2  0
 17 18  1  0
 18 19  2  0
 19 20  1  0
 20 21  2  0
 15 22  1  0
 22 23  2  0
  9 24  1  0
 24 25  2  0
 25  3  1  0
 24  6  1  0
 23 13  1  0
 21 16  1  0
  1 26  1  0
  1 27  1  0
  1 28  1  0
  4 29  1  0
  5 30  1  0
  7 31  1  0
 10 32  1  0
 14 33  1  0
 17 34  1  0
 18 35  1  0
 19 36  1  0
 20 37  1  0
 21 38  1  0
 23 39  1  0
 25 40  1  0
M  END
$$$$
OCNT-2312496
     RDKit          3D

 38 41  0  0  0  0  0  0  0  0999 V2000
   -1.3779   -1.9729   -1.5075 O   0  0  0  0  0  0  0  0  0  0  0  0
   -1.4638   -1.0299   -0.7263 C   0  0  0  0  0  0  0  0  0  0  0  0
   -2.7984   -0.6887   -0.1857 C   0  0  0  0  0  0  0  0  0  0  0  0
   -3.5456   -1.6941    0.4270 C   0  0  0  0  0  0  0  0  0  0  0  0
   -4.8179   -1.4222    0.9376 C   0  0  0  0  0  0  0  0  0  0  0  0
   -5.3232   -0.1182    0.8001 C   0  0  0  0  0  0  0  0  0  0  0  0
   -6.8344    0.5291    1.3140 S   0  0  0  0  0  0  0  0  0  0  0  0
   -6.5816    2.0643    0.7461 N   0  0  0  0  0  0  0  0  0  0  0  0
   -5.3852    2.1027    0.1695 C   0  0  0  0  0  0  0  0  0  0  0  0
   -4.6045    0.9002    0.1685 C   0  0  0  0  0  0  0  0  0  0  0  0
   -3.3200    0.6038   -0.3416 C   0  0  0  0  0  0  0  0  0  0  0  0
   -0.3771   -0.2832   -0.3150 N   0  0  0  0  0  0  0  0  0  0  0  0
   -0.3207    0.6673    0.7883 C   0  0  0  0  0  0  0  0  0  0  0  0
    1.1569    0.7477    1.1523 C   0  0  0  0  0  0  0  0  0  0  0  0
    1.8529    0.4883   -0.1908 C   0  0  0  0  0  0  0  0  0  0  0  0
    3.3122    0.1228   -0.0798 C   0  0  0  0  0  0  0  0  0  0  0  0
    4.2797    0.9362   -0.6894 C   0  0  0  0  0  0  0  0  0  0  0  0
    5.6373    0.6213   -0.6015 C   0  0  0  0  0  0  0  0  0  0  0  0
    6.0474   -0.5109    0.0975 C   0  0  0  0  0  0  0  0  0  0  0  0
    5.1002   -1.3282    0.7088 C   0  0  0  0  0  0  0  0  0  0  0  0
    3.7423   -1.0138    0.6215 C   0  0  0  0  0  0  0  0  0  0  0  0
    0.9560   -0.5849   -0.8183 C   0  0  0  0  0  0  0  0  0  0  0  0
   -3.1373   -2.7004    0.5061 H   0  0  0  0  0  0  0  0  0  0  0  0
   -5.4014   -2.2016    1.4190 H   0  0  0  0  0  0  0  0  0  0  0  0
   -5.0795    3.0484   -0.2597 H   0  0  0  0  0  0  0  0  0  0  0  0
   -2.7504    1.3671   -0.8645 H   0  0  0  0  0  0  0  0  0  0  0  0
   -0.6798    1.6339    0.4204 H   0  0  0  0  0  0  0  0  0  0  0  0
   -0.9415    0.3431    1.6283 H   0  0  0  0  0  0  0  0  0  0  0  0
    1.3959   -0.0315    1.8862 H   0  0  0  0  0  0  0  0  0  0  0  0
    1.4263    1.7130    1.5922 H   0  0  0  0  0  0  0  0  0  0  0  0
    1.7523    1.4021   -0.7946 H   0  0  0  0  0  0  0  0  0  0  0  0
    3.9848    1.8259   -1.2421 H   0  0  0  0  0  0  0  0  0  0  0  0
    6.3748    1.2603   -1.0803 H   0  0  0  0  0  0  0  0  0  0  0  0
    7.1037   -0.7568    0.1649 H   0  0  0  0  0  0  0  0  0  0  0  0
    5.4180   -2.2133    1.2540 H   0  0  0  0  0  0  0  0  0  0  0  0
    3.0249   -1.6707    1.1086 H   0  0  0  0  0  0  0  0  0  0  0  0
    1.2110   -1.6026   -0.5022 H   0  0  0  0  0  0  0  0  0  0  0  0
    0.9637   -0.5535   -1.9130 H   0  0  0  0  0  0  0  0  0  0  0  0
  1  2  2  0
  2  3  1  0
  3  4  2  0
  4  5  1  0
  5  6  2  0
  6  7  1  0
  7  8  1  0
  8  9  2  0
  9 10  1  0
 10 11  2  0
  2 12  1  0
 12 13  1  0
 13 14  1  0
 14 15  1  0
 15 16  1  0
 16 17  2  0
 17 18  1  0
 18 19  2  0
 19 20  1  0
 20 21  2  0
 15 22  1  0
 11  3  1  0
 22 12  1  0
 10  6  1  0
 21 16  1  0
  4 23  1  0
  5 24  1  0
  9 25  1  0
 11 26  1  0
 13 27  1  0
 13 28  1  0
 14 29  1  0
 14 30  1  0
 15 31  1  0
 17 32  1  0
 18 33  1  0
 19 34  1  0
 20 35  1  0
 21 36  1  0
 22 37  1  0
 22 38  1  0
M  END
$$$$
OCNT-2312504
     RDKit          3D

 45 48  0  0  0  0  0  0  0  0999 V2000
   -6.6675   -1.4678    1.5345 C   0  0  0  0  0  0  0  0  0  0  0  0
   -5.8601   -0.2189    1.3065 C   0  0  0  0  0  0  0  0  0  0  0  0
   -6.4250    1.0239    1.6727 C   0  0  0  0  0  0  0  0  0  0  0  0
   -5.7381    2.2222    1.4856 C   0  0  0  0  0  0  0  0  0  0  0  0
   -4.4667    2.2162    0.9267 C   0  0  0  0  0  0  0  0  0  0  0  0
   -3.8020    3.3642    0.7423 F   0  0  0  0  0  0  0  0  0  0  0  0
   -3.8990    0.9967    0.5650 C   0  0  0  0  0  0  0  0  0  0  0  0
   -4.5613   -0.2160    0.7386 C   0  0  0  0  0  0  0  0  0  0  0  0
   -3.6811   -1.2219    0.2478 C   0  0  0  0  0  0  0  0  0  0  0  0
   -2.5053   -0.6258   -0.1820 C   0  0  0  0  0  0  0  0  0  0  0  0
   -1.3425   -1.2783   -0.7610 C   0  0  0  0  0  0  0  0  0  0  0  0
   -1.4335   -2.3714   -1.3063 O   0  0  0  0  0  0  0  0  0  0  0  0
   -0.1672   -0.5641   -0.5951 N   0  0  0  0  0  0  0  0  0  0  0  0
    1.1130   -0.8872   -1.0963 C   0  0  0  0  0  0  0  0  0  0  0  0
    1.3628   -1.9388   -1.9749 C   0  0  0  0  0  0  0  0  0  0  0  0
    2.6609   -2.1911   -2.4192 C   0  0  0  0  0  0  0  0  0  0  0  0
    3.7196   -1.3880   -1.9969 C   0  0  0  0  0  0  0  0  0  0  0  0
    3.5047   -0.3080   -1.1249 C   0  0  0  0  0  0  0  0  0  0  0  0
    4.6800    0.5595   -0.6840 C   0  0  0  0  0  0  0  0  0  0  0  0
    5.4050    1.2225   -1.8576 C   0  0  0  0  0  0  0  0  0  0  0  0
    4.3084    1.5709    0.2892 N   0  0  0  0  0  0  0  0  0  0  0  0
    4.9604    1.4222    1.4860 C   0  0  0  0  0  0  0  0  0  0  0  0
    4.8618    2.1862    2.4285 O   0  0  0  0  0  0  0  0  0  0  0  0
    5.7332    0.3171    1.4261 N   0  0  0  0  0  0  0  0  0  0  0  0
    5.6939   -0.2317    0.1808 C   0  0  0  0  0  0  0  0  0  0  0  0
    6.3797   -1.1792   -0.1774 O   0  0  0  0  0  0  0  0  0  0  0  0
    2.1854   -0.0778   -0.6834 C   0  0  0  0  0  0  0  0  0  0  0  0
   -2.6793    0.7287   -0.0077 N   0  0  0  0  0  0  0  0  0  0  0  0
   -6.1186   -2.3651    1.2346 H   0  0  0  0  0  0  0  0  0  0  0  0
   -7.5933   -1.4271    0.9516 H   0  0  0  0  0  0  0  0  0  0  0  0
   -6.9170   -1.5651    2.5960 H   0  0  0  0  0  0  0  0  0  0  0  0
   -7.4219    1.0520    2.1105 H   0  0  0  0  0  0  0  0  0  0  0  0
   -6.1906    3.1664    1.7723 H   0  0  0  0  0  0  0  0  0  0  0  0
   -3.8732   -2.2879    0.2152 H   0  0  0  0  0  0  0  0  0  0  0  0
   -0.1986    0.2104    0.0506 H   0  0  0  0  0  0  0  0  0  0  0  0
    0.5711   -2.5881   -2.3353 H   0  0  0  0  0  0  0  0  0  0  0  0
    2.8460   -3.0236   -3.0942 H   0  0  0  0  0  0  0  0  0  0  0  0
    4.7217   -1.6279   -2.3515 H   0  0  0  0  0  0  0  0  0  0  0  0
    6.2387    1.8451   -1.5104 H   0  0  0  0  0  0  0  0  0  0  0  0
    5.8248    0.4862   -2.5515 H   0  0  0  0  0  0  0  0  0  0  0  0
    4.7255    1.8697   -2.4244 H   0  0  0  0  0  0  0  0  0  0  0  0
    3.7442    2.3878    0.1013 H   0  0  0  0  0  0  0  0  0  0  0  0
    6.3452    0.0151    2.1643 H   0  0  0  0  0  0  0  0  0  0  0  0
    1.9863    0.7397    0.0050 H   0  0  0  0  0  0  0  0  0  0  0  0
   -2.0305    1.4478   -0.2956 H   0  0  0  0  0  0  0  0  0  0  0  0
  1  2  1  0
  2  3  1  0
  3  4  2  0
  4  5  1  0
  5  6  1  0
  5  7  2  0
  7  8  1  0
  8  9  1  0
  9 10  2  0
 10 11  1  0
 11 12  2  0
 11 13  1  0
 13 14  1  0
 14 15  1  0
 15 16  2  0
 16 17  1  0
 17 18  2  0
 18 19  1  0
 19 20  1  0
 19 21  1  0
 21 22  1  0
 22 23  2  0
 22 24  1  0
 24 25  1  0
 25 26  2  0
 18 27  1  0
 10 28  1  0
  8  2  2  0
 27 14  2  0
 28  7  1  0
 25 19  1  0
  1 29  1  0
  1 30  1  0
  1 31  1  0
  3 32  1  0
  4 33  1  0
  9 34  1  0
 13 35  1  0
 15 36  1  0
 16 37  1  0
 17 38  1  0
 20 39  1  0
 20 40  1  0
 20 41  1  0
 21 42  1  0
 24 43  1  0
 27 44  1  0
 28 45  1  0
M  END
$$$$
OCNT-2312517
     RDKit          3D

 46 48  0  0  0  0  0  0  0  0999 V2000
   -2.9060   -2.8180    1.4466 C   0  0  0  0  0  0  0  0  0  0  0  0
   -3.1515   -2.4656   -0.0147 C   0  0  0  0  0  0  0  0  0  0  0  0
   -3.0340   -0.9597   -0.3665 C   0  0  1  0  0  0  0  0  0  0  0  0
   -4.2313   -0.1676    0.2522 C   0  0  0  0  0  0  0  0  0  0  0  0
   -5.2832   -0.7252    0.5791 O   0  0  0  0  0  0  0  0  0  0  0  0
   -4.1789    1.1902    0.3992 N   0  0  0  0  0  0  0  0  0  0  0  0
   -3.0487    2.0450    0.1310 C   0  0  0  0  0  0  0  0  0  0  0  0
   -1.8735    1.7628    1.0615 C   0  0  0  0  0  0  0  0  0  0  0  0
   -1.5043    0.2789    1.1436 C   0  0  0  0  0  0  0  0  0  0  0  0
   -1.6979   -0.3343   -0.1677 N   0  0  0  0  0  0  0  0  0  0  0  0
   -0.5712   -1.1480   -0.6283 C   0  0  0  0  0  0  0  0  0  0  0  0
    0.6251   -0.3165   -0.9265 C   0  0  0  0  0  0  0  0  0  0  0  0
    0.9070    0.6899   -1.8259 C   0  0  0  0  0  0  0  0  0  0  0  0
    0.0331    1.3063   -2.8440 C   0  0  0  0  0  0  0  0  0  0  0  0
    2.2041    1.1152   -1.6487 N   0  0  0  0  0  0  0  0  0  0  0  0
    2.6624    0.3643   -0.6640 C   0  0  0  0  0  0  0  0  0  0  0  0
    3.9826    0.3672   -0.0392 C   0  0  0  0  0  0  0  0  0  0  0  0
    4.3107   -0.5030    1.0118 C   0  0  0  0  0  0  0  0  0  0  0  0
    5.5828   -0.4768    1.5908 C   0  0  0  0  0  0  0  0  0  0  0  0
    6.5429    0.4198    1.1265 C   0  0  0  0  0  0  0  0  0  0  0  0
    6.2338    1.2906    0.0841 C   0  0  0  0  0  0  0  0  0  0  0  0
    4.9620    1.2637   -0.4941 C   0  0  0  0  0  0  0  0  0  0  0  0
    1.7485   -0.5348   -0.1772 O   0  0  0  0  0  0  0  0  0  0  0  0
   -3.0818   -3.8873    1.6045 H   0  0  0  0  0  0  0  0  0  0  0  0
   -1.8758   -2.6095    1.7468 H   0  0  0  0  0  0  0  0  0  0  0  0
   -3.5794   -2.2698    2.1118 H   0  0  0  0  0  0  0  0  0  0  0  0
   -2.4654   -3.0522   -0.6368 H   0  0  0  0  0  0  0  0  0  0  0  0
   -4.1554   -2.8185   -0.2844 H   0  0  0  0  0  0  0  0  0  0  0  0
   -3.2231   -0.8930   -1.4481 H   0  0  0  0  0  0  0  0  0  0  0  0
   -5.0141    1.5906    0.8084 H   0  0  0  0  0  0  0  0  0  0  0  0
   -2.7644    1.9190   -0.9197 H   0  0  0  0  0  0  0  0  0  0  0  0
   -3.3819    3.0808    0.2546 H   0  0  0  0  0  0  0  0  0  0  0  0
   -2.1054    2.1209    2.0720 H   0  0  0  0  0  0  0  0  0  0  0  0
   -1.0095    2.3405    0.7102 H   0  0  0  0  0  0  0  0  0  0  0  0
   -0.4672    0.2105    1.4945 H   0  0  0  0  0  0  0  0  0  0  0  0
   -2.0978   -0.2153    1.9208 H   0  0  0  0  0  0  0  0  0  0  0  0
   -0.8350   -1.6545   -1.5656 H   0  0  0  0  0  0  0  0  0  0  0  0
   -0.3194   -1.9288    0.0985 H   0  0  0  0  0  0  0  0  0  0  0  0
   -0.6727    0.5766   -3.2529 H   0  0  0  0  0  0  0  0  0  0  0  0
    0.6256    1.7035   -3.6739 H   0  0  0  0  0  0  0  0  0  0  0  0
   -0.5370    2.1303   -2.4044 H   0  0  0  0  0  0  0  0  0  0  0  0
    3.5771   -1.2115    1.3904 H   0  0  0  0  0  0  0  0  0  0  0  0
    5.8227   -1.1572    2.4040 H   0  0  0  0  0  0  0  0  0  0  0  0
    7.5321    0.4399    1.5767 H   0  0  0  0  0  0  0  0  0  0  0  0
    6.9802    1.9913   -0.2811 H   0  0  0  0  0  0  0  0  0  0  0  0
    4.7333    1.9496   -1.3085 H   0  0  0  0  0  0  0  0  0  0  0  0
  1  2  1  0
  2  3  1  0
  3  4  1  0
  4  5  2  0
  4  6  1  0
  6  7  1  0
  7  8  1  0
  8  9  1  0
  9 10  1  0
 10 11  1  0
 11 12  1  0
 12 13  2  0
 13 14  1  0
 13 15  1  0
 15 16  2  0
 16 17  1  0
 17 18  2  0
 18 19  1  0
 19 20  2  0
 20 21  1  0
 21 22  2  0
 16 23  1  0
 10  3  1  0
 23 12  1  0
 22 17  1  0
  1 24  1  0
  1 25  1  0
  1 26  1  0
  2 27  1  0
  2 28  1  0
  3 29  1  6
  6 30  1  0
  7 31  1  0
  7 32  1  0
  8 33  1  0
  8 34  1  0
  9 35  1  0
  9 36  1  0
 11 37  1  0
 11 38  1  0
 14 39  1  0
 14 40  1  0
 14 41  1  0
 18 42  1  0
 19 43  1  0
 20 44  1  0
 21 45  1  0
 22 46  1  0
M  END
$$$$
OCNT-2312522
     RDKit          3D

 48 51  0  0  0  0  0  0  0  0999 V2000
   -6.7918   -1.1952   -0.9030 F   0  0  0  0  0  0  0  0  0  0  0  0
   -6.4049   -0.5273    0.1954 C   0  0  0  0  0  0  0  0  0  0  0  0
   -7.2982   -0.4854    1.2680 C   0  0  0  0  0  0  0  0  0  0  0  0
   -6.9463    0.1751    2.4410 C   0  0  0  0  0  0  0  0  0  0  0  0
   -5.7005    0.7876    2.5359 C   0  0  0  0  0  0  0  0  0  0  0  0
   -4.8115    0.7400    1.4560 C   0  0  0  0  0  0  0  0  0  0  0  0
   -5.1428    0.0848    0.2523 C   0  0  0  0  0  0  0  0  0  0  0  0
   -4.1854    0.0531   -0.8720 C   0  0  0  0  0  0  0  0  0  0  0  0
   -4.5673    0.0249   -2.1954 C   0  0  0  0  0  0  0  0  0  0  0  0
   -3.5505    0.0112   -3.1141 C   0  0  0  0  0  0  0  0  0  0  0  0
   -2.2493    0.0265   -2.7829 N   0  0  0  0  0  0  0  0  0  0  0  0
   -1.9373    0.0551   -1.4781 C   0  0  0  0  0  0  0  0  0  0  0  0
   -0.5918    0.1047   -1.1028 N   0  0  0  0  0  0  0  0  0  0  0  0
   -0.3392   -0.4150    0.2500 C   0  0  0  0  0  0  0  0  0  0  0  0
    1.1489   -0.2379    0.6345 C   0  0  0  0  0  0  0  0  0  0  0  0
    2.0622   -0.8327   -0.3595 N   0  0  0  0  0  0  0  0  0  0  0  0
    3.4789   -0.7687    0.0306 C   0  0  0  0  0  0  0  0  0  0  0  0
    4.1062    0.6241    0.1994 C   0  0  0  0  0  0  0  0  0  0  0  0
    5.5462    0.5138    0.6234 C   0  0  0  0  0  0  0  0  0  0  0  0
    5.8948    0.4520    1.9699 C   0  0  0  0  0  0  0  0  0  0  0  0
    7.1746    0.3316    2.3944 N   0  0  0  0  0  0  0  0  0  0  0  0
    8.1024    0.2718    1.4139 C   0  0  0  0  0  0  0  0  0  0  0  0
    7.7671    0.3273    0.0727 C   0  0  0  0  0  0  0  0  0  0  0  0
    6.4880    0.4460   -0.3513 N   0  0  0  0  0  0  0  0  0  0  0  0
    1.7987   -0.2386   -1.6855 C   0  0  0  0  0  0  0  0  0  0  0  0
    0.3270   -0.4125   -2.1296 C   0  0  0  0  0  0  0  0  0  0  0  0
   -2.8784    0.0785   -0.5190 N   0  0  0  0  0  0  0  0  0  0  0  0
   -8.2626   -0.9760    1.1784 H   0  0  0  0  0  0  0  0  0  0  0  0
   -7.6377    0.2086    3.2789 H   0  0  0  0  0  0  0  0  0  0  0  0
   -5.4136    1.3032    3.4494 H   0  0  0  0  0  0  0  0  0  0  0  0
   -3.8420    1.2279    1.5554 H   0  0  0  0  0  0  0  0  0  0  0  0
   -5.6005    0.0262   -2.5129 H   0  0  0  0  0  0  0  0  0  0  0  0
   -3.7571   -0.0087   -4.1799 H   0  0  0  0  0  0  0  0  0  0  0  0
   -0.9339    0.1240    0.9981 H   0  0  0  0  0  0  0  0  0  0  0  0
   -0.6038   -1.4797    0.3035 H   0  0  0  0  0  0  0  0  0  0  0  0
    1.3079   -0.7096    1.6115 H   0  0  0  0  0  0  0  0  0  0  0  0
    1.3493    0.8346    0.7497 H   0  0  0  0  0  0  0  0  0  0  0  0
    4.0608   -1.3374   -0.7076 H   0  0  0  0  0  0  0  0  0  0  0  0
    3.5943   -1.3322    0.9666 H   0  0  0  0  0  0  0  0  0  0  0  0
    3.5611    1.2197    0.9400 H   0  0  0  0  0  0  0  0  0  0  0  0
    4.0677    1.1809   -0.7438 H   0  0  0  0  0  0  0  0  0  0  0  0
    5.1478    0.4962    2.7553 H   0  0  0  0  0  0  0  0  0  0  0  0
    9.1323    0.1763    1.7376 H   0  0  0  0  0  0  0  0  0  0  0  0
    8.5224    0.2765   -0.7030 H   0  0  0  0  0  0  0  0  0  0  0  0
    2.0320    0.8336   -1.6800 H   0  0  0  0  0  0  0  0  0  0  0  0
    2.4409   -0.7122   -2.4376 H   0  0  0  0  0  0  0  0  0  0  0  0
    0.1282   -1.4767   -2.3156 H   0  0  0  0  0  0  0  0  0  0  0  0
    0.2065    0.1300   -3.0757 H   0  0  0  0  0  0  0  0  0  0  0  0
  1  2  1  0
  2  3  2  0
  3  4  1  0
  4  5  2  0
  5  6  1  0
  6  7  2  0
  7  8  1  0
  8  9  1  0
  9 10  2  0
 10 11  1  0
 11 12  2  0
 12 13  1  0
 13 14  1  0
 14 15  1  0
 15 16  1  0
 16 17  1  0
 17 18  1  0
 18 19  1  0
 19 20  2  0
 20 21  1  0
 21 22  2  0
 22 23  1  0
 23 24  2  0
 16 25  1  0
 25 26  1  0
 12 27  1  0
  7  2  1  0
 27  8  2  0
 26 13  1  0
 24 19  1  0
  3 28  1  0
  4 29  1  0
  5 30  1  0
  6 31  1  0
  9 32  1  0
 10 33  1  0
 14 34  1  0
 14 35  1  0
 15 36  1  0
 15 37  1  0
 17 38  1  0
 17 39  1  0
 18 40  1  0
 18 41  1  0
 20 42  1  0
 22 43  1  0
 23 44  1  0
 25 45  1  0
 25 46  1  0
 26 47  1  0
 26 48  1  0
M  END
$$$$
OCNT-2312525
     RDKit          3D

 39 42  0  0  0  0  0  0  0  0999 V2000
   -3.0997   -0.5923    2.3047 C   0  0  0  0  0  0  0  0  0  0  0  0
   -2.5046   -0.6251    0.8763 C   0  0  0  0  0  0  0  0  0  0  0  0
   -2.8192   -2.0322    0.3144 C   0  0  0  0  0  0  0  0  0  0  0  0
   -3.0493    0.4657   -0.0635 C   0  0  0  0  0  0  0  0  0  0  0  0
   -2.7496    0.4530   -1.4387 C   0  0  0  0  0  0  0  0  0  0  0  0
   -3.2582    1.4463   -2.2642 C   0  0  0  0  0  0  0  0  0  0  0  0
   -4.0418    2.4519   -1.8310 N   0  0  0  0  0  0  0  0  0  0  0  0
   -4.3185    2.4682   -0.5125 C   0  0  0  0  0  0  0  0  0  0  0  0
   -3.8564    1.5192    0.3915 C   0  0  0  0  0  0  0  0  0  0  0  0
   -1.0134   -0.3635    0.9155 C   0  0  0  0  0  0  0  0  0  0  0  0
   -0.4455    0.5302    1.7414 N   0  0  0  0  0  0  0  0  0  0  0  0
    0.9104    0.4407    1.4362 O   0  0  0  0  0  0  0  0  0  0  0  0
    1.0297   -0.4800    0.4366 C   0  0  0  0  0  0  0  0  0  0  0  0
    2.3729   -0.7870   -0.0379 C   0  0  0  0  0  0  0  0  0  0  0  0
    2.6405   -2.1194   -0.3716 C   0  0  0  0  0  0  0  0  0  0  0  0
    3.9072   -2.4525   -0.7980 C   0  0  0  0  0  0  0  0  0  0  0  0
    4.9084   -1.5604   -0.9192 N   0  0  0  0  0  0  0  0  0  0  0  0
    4.6615   -0.2735   -0.6272 C   0  0  0  0  0  0  0  0  0  0  0  0
    5.6971    0.6290   -0.7807 C   0  0  0  0  0  0  0  0  0  0  0  0
    5.4835    1.9666   -0.5131 C   0  0  0  0  0  0  0  0  0  0  0  0
    4.3012    2.4580   -0.1083 N   0  0  0  0  0  0  0  0  0  0  0  0
    3.2957    1.5661    0.0413 C   0  0  0  0  0  0  0  0  0  0  0  0
    3.4046    0.1814   -0.1863 C   0  0  0  0  0  0  0  0  0  0  0  0
   -0.1179   -1.0299    0.1054 N   0  0  0  0  0  0  0  0  0  0  0  0
   -2.6646   -1.3829    2.9287 H   0  0  0  0  0  0  0  0  0  0  0  0
   -4.1856   -0.7436    2.2870 H   0  0  0  0  0  0  0  0  0  0  0  0
   -2.9053    0.3548    2.8214 H   0  0  0  0  0  0  0  0  0  0  0  0
   -2.3812   -2.2083   -0.6742 H   0  0  0  0  0  0  0  0  0  0  0  0
   -2.4242   -2.8154    0.9730 H   0  0  0  0  0  0  0  0  0  0  0  0
   -3.9012   -2.1851    0.2221 H   0  0  0  0  0  0  0  0  0  0  0  0
   -2.1137   -0.3107   -1.8767 H   0  0  0  0  0  0  0  0  0  0  0  0
   -3.0362    1.4565   -3.3275 H   0  0  0  0  0  0  0  0  0  0  0  0
   -4.9436    3.2933   -0.1823 H   0  0  0  0  0  0  0  0  0  0  0  0
   -4.1361    1.6312    1.4329 H   0  0  0  0  0  0  0  0  0  0  0  0
    1.8768   -2.8878   -0.2901 H   0  0  0  0  0  0  0  0  0  0  0  0
    4.1625   -3.4758   -1.0596 H   0  0  0  0  0  0  0  0  0  0  0  0
    6.6709    0.2877   -1.1151 H   0  0  0  0  0  0  0  0  0  0  0  0
    6.2803    2.6960   -0.6267 H   0  0  0  0  0  0  0  0  0  0  0  0
    2.3627    2.0297    0.3505 H   0  0  0  0  0  0  0  0  0  0  0  0
  1  2  1  0
  2  3  1  0
  2  4  1  0
  4  5  2  0
  5  6  1  0
  6  7  2  0
  7  8  1  0
  8  9  2  0
  2 10  1  0
 10 11  2  0
 11 12  1  0
 12 13  1  0
 13 14  1  0
 14 15  2  0
 15 16  1  0
 16 17  2  0
 17 18  1  0
 18 19  2  0
 19 20  1  0
 20 21  2  0
 21 22  1  0
 22 23  2  0
 13 24  2  0
  9  4  1  0
 24 10  1  0
 23 14  1  0
 23 18  1  0
  1 25  1  0
  1 26  1  0
  1 27  1  0
  3 28  1  0
  3 29  1  0
  3 30  1  0
  5 31  1  0
  6 32  1  0
  8 33  1  0
  9 34  1  0
 15 35  1  0
 16 36  1  0
 19 37  1  0
 20 38  1  0
 22 39  1  0
M  END
$$$$
OCNT-2312529
     RDKit          3D

 36 38  0  0  0  0  0  0  0  0999 V2000
    1.3246   -1.4375    0.9595 O   0  0  0  0  0  0  0  0  0  0  0  0
    1.2478   -0.4787    0.2049 C   0  0  0  0  0  0  0  0  0  0  0  0
    2.2721    0.1533   -0.4596 N   0  0  0  0  0  0  0  0  0  0  0  0
    3.6362   -0.1269   -0.3229 C   0  0  0  0  0  0  0  0  0  0  0  0
    4.5090    0.5316   -1.1790 C   0  0  0  0  0  0  0  0  0  0  0  0
    5.8718    0.2789   -1.0570 C   0  0  0  0  0  0  0  0  0  0  0  0
    7.0937    1.1519   -2.2058 Br  0  0  0  0  0  0  0  0  0  0  0  0
    6.3406   -0.6071   -0.1004 C   0  0  0  0  0  0  0  0  0  0  0  0
    5.4026   -1.2112    0.7101 C   0  0  0  0  0  0  0  0  0  0  0  0
    4.0757   -0.9835    0.6159 N   0  0  0  0  0  0  0  0  0  0  0  0
    0.0396    0.1084   -0.1218 N   0  0  0  0  0  0  0  0  0  0  0  0
   -1.1887   -0.3241    0.5383 C   0  0  2  0  0  0  0  0  0  0  0  0
   -1.6633   -1.6865    0.0143 C   0  0  0  0  0  0  0  0  0  0  0  0
   -3.0229   -2.0308    0.6123 C   0  0  0  0  0  0  0  0  0  0  0  0
   -4.0785   -1.0184    0.1750 C   0  0  0  0  0  0  0  0  0  0  0  0
   -3.6134    0.4102    0.2608 C   0  0  0  0  0  0  0  0  0  0  0  0
   -4.5420    1.4506    0.1503 C   0  0  0  0  0  0  0  0  0  0  0  0
   -4.1106    2.7718    0.1731 C   0  0  0  0  0  0  0  0  0  0  0  0
   -2.7551    3.0152    0.2930 C   0  0  0  0  0  0  0  0  0  0  0  0
   -1.8234    2.0430    0.3898 N   0  0  0  0  0  0  0  0  0  0  0  0
   -2.2610    0.7492    0.3753 C   0  0  0  0  0  0  0  0  0  0  0  0
    1.9919    0.7875   -1.1881 H   0  0  0  0  0  0  0  0  0  0  0  0
    4.1439    1.2251   -1.9273 H   0  0  0  0  0  0  0  0  0  0  0  0
    7.3951   -0.8250    0.0178 H   0  0  0  0  0  0  0  0  0  0  0  0
    5.6933   -1.9168    1.4832 H   0  0  0  0  0  0  0  0  0  0  0  0
    0.0757    1.1176   -0.2034 H   0  0  0  0  0  0  0  0  0  0  0  0
   -0.9804   -0.4040    1.6137 H   0  0  0  0  0  0  0  0  0  0  0  0
   -1.7318   -1.6746   -1.0817 H   0  0  0  0  0  0  0  0  0  0  0  0
   -0.9435   -2.4709    0.2734 H   0  0  0  0  0  0  0  0  0  0  0  0
   -3.3287   -3.0369    0.3039 H   0  0  0  0  0  0  0  0  0  0  0  0
   -2.9483   -2.0412    1.7072 H   0  0  0  0  0  0  0  0  0  0  0  0
   -4.9766   -1.1562    0.7887 H   0  0  0  0  0  0  0  0  0  0  0  0
   -4.3568   -1.2205   -0.8672 H   0  0  0  0  0  0  0  0  0  0  0  0
   -5.6023    1.2341    0.0432 H   0  0  0  0  0  0  0  0  0  0  0  0
   -4.8157    3.5916    0.0945 H   0  0  0  0  0  0  0  0  0  0  0  0
   -2.3704    4.0308    0.3156 H   0  0  0  0  0  0  0  0  0  0  0  0
  1  2  2  0
  2  3  1  0
  3  4  1  0
  4  5  2  0
  5  6  1  0
  6  7  1  0
  6  8  2  0
  8  9  1  0
  9 10  2  0
  2 11  1  0
 11 12  1  0
 12 13  1  0
 13 14  1  0
 14 15  1  0
 15 16  1  0
 16 17  1  0
 17 18  2  0
 18 19  1  0
 19 20  2  0
 20 21  1  0
 10  4  1  0
 21 12  1  0
 21 16  2  0
  3 22  1  0
  5 23  1  0
  8 24  1  0
  9 25  1  0
 11 26  1  0
 12 27  1  1
 13 28  1  0
 13 29  1  0
 14 30  1  0
 14 31  1  0
 15 32  1  0
 15 33  1  0
 17 34  1  0
 18 35  1  0
 19 36  1  0
M  END
$$$$
OCNT-2312546
     RDKit          3D

 50 53  0  0  0  0  0  0  0  0999 V2000
   -6.1453   -1.1147    2.3491 C   0  0  0  0  0  0  0  0  0  0  0  0
   -5.2166   -0.2481    1.7133 O   0  0  0  0  0  0  0  0  0  0  0  0
   -5.3198   -0.0890    0.3525 C   0  0  0  0  0  0  0  0  0  0  0  0
   -6.3667   -0.6160   -0.4172 C   0  0  0  0  0  0  0  0  0  0  0  0
   -6.4001   -0.4253   -1.8002 C   0  0  0  0  0  0  0  0  0  0  0  0
   -5.3905    0.2934   -2.4284 C   0  0  0  0  0  0  0  0  0  0  0  0
   -4.3473    0.8267   -1.6720 C   0  0  0  0  0  0  0  0  0  0  0  0
   -4.2907    0.6524   -0.2744 C   0  0  0  0  0  0  0  0  0  0  0  0
   -3.1636    1.2466    0.4751 C   0  0  0  0  0  0  0  0  0  0  0  0
   -3.3873    2.1767    1.5015 C   0  0  0  0  0  0  0  0  0  0  0  0
   -2.3213    2.7431    2.1994 C   0  0  0  0  0  0  0  0  0  0  0  0
   -1.0114    2.3923    1.8742 C   0  0  0  0  0  0  0  0  0  0  0  0
   -0.7552    1.4781    0.8466 C   0  0  0  0  0  0  0  0  0  0  0  0
    0.5936    1.1678    0.5809 N   0  0  0  0  0  0  0  0  0  0  0  0
    1.0960    0.4571   -0.4864 C   0  0  0  0  0  0  0  0  0  0  0  0
    0.4765    0.0547   -1.4615 O   0  0  0  0  0  0  0  0  0  0  0  0
    2.4511    0.2527   -0.3366 N   0  0  0  0  0  0  0  0  0  0  0  0
    3.1881   -0.5068   -1.3239 C   0  0  0  0  0  0  0  0  0  0  0  0
    2.9432   -2.0280   -1.2234 C   0  0  0  0  0  0  0  0  0  0  0  0
    3.9869   -2.5821   -0.2414 C   0  0  0  0  0  0  0  0  0  0  0  0
    5.1134   -1.6149   -0.4303 C   0  0  0  0  0  0  0  0  0  0  0  0
    6.4355   -1.7584   -0.0422 C   0  0  0  0  0  0  0  0  0  0  0  0
    7.3179   -0.7022   -0.2860 C   0  0  0  0  0  0  0  0  0  0  0  0
    6.8571    0.4713   -0.8975 C   0  0  0  0  0  0  0  0  0  0  0  0
    7.7006    1.5174   -1.1374 O   0  0  0  0  0  0  0  0  0  0  0  0
    5.5262    0.6191   -1.2767 C   0  0  0  0  0  0  0  0  0  0  0  0
    4.6615   -0.4377   -1.0410 C   0  0  0  0  0  0  0  0  0  0  0  0
   -1.8325    0.9077    0.1616 C   0  0  0  0  0  0  0  0  0  0  0  0
   -5.8717   -1.1792    3.4066 H   0  0  0  0  0  0  0  0  0  0  0  0
   -6.0967   -2.1259    1.9315 H   0  0  0  0  0  0  0  0  0  0  0  0
   -7.1612   -0.7103    2.2940 H   0  0  0  0  0  0  0  0  0  0  0  0
   -7.1763   -1.1820    0.0309 H   0  0  0  0  0  0  0  0  0  0  0  0
   -7.2158   -0.8408   -2.3862 H   0  0  0  0  0  0  0  0  0  0  0  0
   -5.4113    0.4421   -3.5047 H   0  0  0  0  0  0  0  0  0  0  0  0
   -3.5673    1.3925   -2.1796 H   0  0  0  0  0  0  0  0  0  0  0  0
   -4.4048    2.4601    1.7632 H   0  0  0  0  0  0  0  0  0  0  0  0
   -2.5143    3.4572    2.9952 H   0  0  0  0  0  0  0  0  0  0  0  0
   -0.1976    2.8475    2.4317 H   0  0  0  0  0  0  0  0  0  0  0  0
    1.2848    1.6506    1.1343 H   0  0  0  0  0  0  0  0  0  0  0  0
    2.8000    0.2167    0.6088 H   0  0  0  0  0  0  0  0  0  0  0  0
    2.9433   -0.1440   -2.3284 H   0  0  0  0  0  0  0  0  0  0  0  0
    1.9235   -2.2955   -0.9282 H   0  0  0  0  0  0  0  0  0  0  0  0
    3.1223   -2.4787   -2.2101 H   0  0  0  0  0  0  0  0  0  0  0  0
    4.2691   -3.6075   -0.4964 H   0  0  0  0  0  0  0  0  0  0  0  0
    3.6223   -2.5383    0.7901 H   0  0  0  0  0  0  0  0  0  0  0  0
    6.7818   -2.6674    0.4397 H   0  0  0  0  0  0  0  0  0  0  0  0
    8.3574   -0.8052    0.0101 H   0  0  0  0  0  0  0  0  0  0  0  0
    8.5945    1.2648   -0.8547 H   0  0  0  0  0  0  0  0  0  0  0  0
    5.1804    1.5367   -1.7408 H   0  0  0  0  0  0  0  0  0  0  0  0
   -1.6619    0.1732   -0.6210 H   0  0  0  0  0  0  0  0  0  0  0  0
  1  2  1  0
  2  3  1  0
  3  4  2  0
  4  5  1  0
  5  6  2  0
  6  7  1  0
  7  8  2  0
  8  9  1  0
  9 10  1  0
 10 11  2  0
 11 12  1  0
 12 13  2  0
 13 14  1  0
 14 15  1  0
 15 16  2  0
 15 17  1  0
 17 18  1  0
 18 19  1  0
 19 20  1  0
 20 21  1  0
 21 22  1  0
 22 23  2  0
 23 24  1  0
 24 25  1  0
 24 26  2  0
 26 27  1  0
 13 28  1  0
  8  3  1  0
 28  9  2  0
 27 18  1  0
 27 21  2  0
  1 29  1  0
  1 30  1  0
  1 31  1  0
  4 32  1  0
  5 33  1  0
  6 34  1  0
  7 35  1  0
 10 36  1  0
 11 37  1  0
 12 38  1  0
 14 39  1  0
 17 40  1  0
 18 41  1  0
 19 42  1  0
 19 43  1  0
 20 44  1  0
 20 45  1  0
 22 46  1  0
 23 47  1  0
 25 48  1  0
 26 49  1  0
 28 50  1  0
M  END
$$$$
OCNT-2312554
     RDKit          3D

 42 45  0  0  0  0  0  0  0  0999 V2000
   -0.9634    0.5665    1.5139 O   0  0  0  0  0  0  0  0  0  0  0  0
   -0.9107    0.1494    0.3635 C   0  0  0  0  0  0  0  0  0  0  0  0
    0.2627   -0.1898   -0.2793 N   0  0  0  0  0  0  0  0  0  0  0  0
    1.5278   -0.1709    0.4405 C   0  0  0  0  0  0  0  0  0  0  0  0
    2.7231   -0.0696   -0.5121 C   0  0  0  0  0  0  0  0  0  0  0  0
    2.8498    1.3242   -1.1695 C   0  0  0  0  0  0  0  0  0  0  0  0
    3.7397    2.1726   -0.2488 C   0  0  0  0  0  0  0  0  0  0  0  0
    4.6085    1.1190    0.3623 C   0  0  0  0  0  0  0  0  0  0  0  0
    5.8051    1.2906    1.0370 C   0  0  0  0  0  0  0  0  0  0  0  0
    6.4384    0.1616    1.5604 C   0  0  0  0  0  0  0  0  0  0  0  0
    5.8676   -1.1121    1.4125 C   0  0  0  0  0  0  0  0  0  0  0  0
    4.6540   -1.2748    0.7412 C   0  0  0  0  0  0  0  0  0  0  0  0
    4.0338   -0.1498    0.2214 C   0  0  0  0  0  0  0  0  0  0  0  0
   -2.1688   -0.0510   -0.4035 C   0  0  0  0  0  0  0  0  0  0  0  0
   -2.1976    0.0013   -1.7957 C   0  0  0  0  0  0  0  0  0  0  0  0
   -3.4146   -0.1880   -2.4189 C   0  0  0  0  0  0  0  0  0  0  0  0
   -4.5669   -0.4170   -1.7552 N   0  0  0  0  0  0  0  0  0  0  0  0
   -4.5296   -0.4443   -0.3962 C   0  0  0  0  0  0  0  0  0  0  0  0
   -5.7593   -0.6709    0.2835 N   0  0  0  0  0  0  0  0  0  0  0  0
   -6.9836   -0.8725   -0.3196 C   0  0  0  0  0  0  0  0  0  0  0  0
   -7.8842   -1.0555    0.7007 C   0  0  0  0  0  0  0  0  0  0  0  0
   -7.2620   -0.9735    1.9152 N   0  0  0  0  0  0  0  0  0  0  0  0
   -5.9966   -0.7401    1.6375 C   0  0  0  0  0  0  0  0  0  0  0  0
   -3.3512   -0.2629    0.3142 C   0  0  0  0  0  0  0  0  0  0  0  0
    0.2003   -0.8092   -1.0761 H   0  0  0  0  0  0  0  0  0  0  0  0
    1.5220    0.6531    1.1642 H   0  0  0  0  0  0  0  0  0  0  0  0
    1.5722   -1.1029    1.0169 H   0  0  0  0  0  0  0  0  0  0  0  0
    2.6661   -0.8399   -1.2904 H   0  0  0  0  0  0  0  0  0  0  0  0
    3.3561    1.2108   -2.1390 H   0  0  0  0  0  0  0  0  0  0  0  0
    1.8873    1.8053   -1.3707 H   0  0  0  0  0  0  0  0  0  0  0  0
    3.1490    2.6720    0.5258 H   0  0  0  0  0  0  0  0  0  0  0  0
    4.3129    2.9098   -0.8179 H   0  0  0  0  0  0  0  0  0  0  0  0
    6.2434    2.2758    1.1601 H   0  0  0  0  0  0  0  0  0  0  0  0
    7.3807    0.2697    2.0920 H   0  0  0  0  0  0  0  0  0  0  0  0
    6.3745   -1.9788    1.8301 H   0  0  0  0  0  0  0  0  0  0  0  0
    4.2131   -2.2608    0.6362 H   0  0  0  0  0  0  0  0  0  0  0  0
   -1.3150    0.2113   -2.3878 H   0  0  0  0  0  0  0  0  0  0  0  0
   -3.5039   -0.1536   -3.5016 H   0  0  0  0  0  0  0  0  0  0  0  0
   -7.0965   -0.8676   -1.3946 H   0  0  0  0  0  0  0  0  0  0  0  0
   -8.9477   -1.2418    0.6226 H   0  0  0  0  0  0  0  0  0  0  0  0
   -5.2262   -0.6154    2.3854 H   0  0  0  0  0  0  0  0  0  0  0  0
   -3.3107   -0.2801    1.3978 H   0  0  0  0  0  0  0  0  0  0  0  0
  1  2  2  0
  2  3  1  0
  3  4  1  0
  4  5  1  0
  5  6  1  0
  6  7  1  0
  7  8  1  0
  8  9  2  0
  9 10  1  0
 10 11  2  0
 11 12  1  0
 12 13  2  0
  2 14  1  0
 14 15  2  0
 15 16  1  0
 16 17  2  0
 17 18  1  0
 18 19  1  0
 19 20  1  0
 20 21  2  0
 21 22  1  0
 22 23  2  0
 18 24  2  0
 13  5  1  0
 24 14  1  0
 13  8  1  0
 23 19  1  0
  3 25  1  0
  4 26  1  0
  4 27  1  0
  5 28  1  0
  6 29  1  0
  6 30  1  0
  7 31  1  0
  7 32  1  0
  9 33  1  0
 10 34  1  0
 11 35  1  0
 12 36  1  0
 15 37  1  0
 16 38  1  0
 20 39  1  0
 21 40  1  0
 23 41  1  0
 24 42  1  0
M  END
$$$$
OCNT-2312559
     RDKit          3D

 46 50  0  0  0  0  0  0  0  0999 V2000
   -5.8869   -0.3504   -0.4787 O   0  0  0  0  0  0  0  0  0  0  0  0
   -4.6611   -0.0468    0.1677 C   0  0  2  0  0  0  0  0  0  0  0  0
   -3.9192   -1.3038    0.5656 C   0  0  0  0  0  0  0  0  0  0  0  0
   -3.0134   -0.8514    1.7140 C   0  0  1  0  0  0  0  0  0  0  0  0
   -1.5649   -0.5555    1.2234 C   0  0  0  0  0  0  0  0  0  0  0  0
   -1.5050    0.7453    0.5362 N   0  0  0  0  0  0  0  0  0  0  0  0
   -0.3372    0.9868   -0.1927 C   0  0  0  0  0  0  0  0  0  0  0  0
   -0.2098    2.1367   -0.9678 C   0  0  0  0  0  0  0  0  0  0  0  0
    0.9464    2.3485   -1.7127 C   0  0  0  0  0  0  0  0  0  0  0  0
    1.9719    1.4121   -1.6679 C   0  0  0  0  0  0  0  0  0  0  0  0
    1.8012    0.2904   -0.8729 C   0  0  0  0  0  0  0  0  0  0  0  0
    2.8031   -0.7201   -0.7808 N   0  0  0  0  0  0  0  0  0  0  0  0
    2.5450   -1.9838   -0.2866 C   0  0  0  0  0  0  0  0  0  0  0  0
    3.5696   -2.7962   -0.3889 N   0  0  0  0  0  0  0  0  0  0  0  0
    4.5731   -2.0237   -0.9026 C   0  0  0  0  0  0  0  0  0  0  0  0
    5.8993   -2.3949   -1.1773 C   0  0  0  0  0  0  0  0  0  0  0  0
    6.7945   -1.4307   -1.6451 C   0  0  0  0  0  0  0  0  0  0  0  0
    6.3811   -0.1133   -1.8197 C   0  0  0  0  0  0  0  0  0  0  0  0
    5.0616    0.2764   -1.5544 C   0  0  0  0  0  0  0  0  0  0  0  0
    4.1519   -0.7078   -1.1262 C   0  0  0  0  0  0  0  0  0  0  0  0
    0.6549    0.0710   -0.1709 N   0  0  0  0  0  0  0  0  0  0  0  0
   -2.0174    1.8866    1.3209 C   0  0  0  0  0  0  0  0  0  0  0  0
   -2.8166    1.4311    2.5669 C   0  0  0  0  0  0  0  0  0  0  0  0
   -3.7248    0.2890    2.3675 N   0  0  0  0  0  0  0  0  0  0  0  0
   -4.8761    0.6364    1.5121 C   0  0  0  0  0  0  0  0  0  0  0  0
   -5.6718   -0.8806   -1.2650 H   0  0  0  0  0  0  0  0  0  0  0  0
   -4.0590    0.5795   -0.4988 H   0  0  0  0  0  0  0  0  0  0  0  0
   -3.3799   -1.7412   -0.2808 H   0  0  0  0  0  0  0  0  0  0  0  0
   -4.6291   -2.0646    0.9170 H   0  0  0  0  0  0  0  0  0  0  0  0
   -2.9427   -1.6728    2.4377 H   0  0  0  0  0  0  0  0  0  0  0  0
   -0.8824   -0.5500    2.0844 H   0  0  0  0  0  0  0  0  0  0  0  0
   -1.2520   -1.3724    0.5604 H   0  0  0  0  0  0  0  0  0  0  0  0
   -1.0183    2.8572   -1.0284 H   0  0  0  0  0  0  0  0  0  0  0  0
    1.0341    3.2299   -2.3417 H   0  0  0  0  0  0  0  0  0  0  0  0
    2.8338    1.5646   -2.3008 H   0  0  0  0  0  0  0  0  0  0  0  0
    1.5730   -2.2555    0.1046 H   0  0  0  0  0  0  0  0  0  0  0  0
    6.2178   -3.4179   -1.0078 H   0  0  0  0  0  0  0  0  0  0  0  0
    7.8248   -1.7101   -1.8512 H   0  0  0  0  0  0  0  0  0  0  0  0
    7.0995    0.6306   -2.1585 H   0  0  0  0  0  0  0  0  0  0  0  0
    4.7927    1.3208   -1.6572 H   0  0  0  0  0  0  0  0  0  0  0  0
   -1.1989    2.5304    1.6677 H   0  0  0  0  0  0  0  0  0  0  0  0
   -2.6701    2.4890    0.6780 H   0  0  0  0  0  0  0  0  0  0  0  0
   -3.3676    2.2851    2.9799 H   0  0  0  0  0  0  0  0  0  0  0  0
   -2.1021    1.1500    3.3522 H   0  0  0  0  0  0  0  0  0  0  0  0
   -5.0355    1.7147    1.3931 H   0  0  0  0  0  0  0  0  0  0  0  0
   -5.7875    0.2505    1.9861 H   0  0  0  0  0  0  0  0  0  0  0  0
  1  2  1  0
  2  3  1  0
  3  4  1  0
  4  5  1  0
  5  6  1  0
  6  7  1  0
  7  8  1  0
  8  9  2  0
  9 10  1  0
 10 11  2  0
 11 12  1  0
 12 13  1  0
 13 14  2  0
 14 15  1  0
 15 16  2  0
 16 17  1  0
 17 18  2  0
 18 19  1  0
 19 20  2  0
 11 21  1  0
  6 22  1  0
 22 23  1  0
 23 24  1  0
 24 25  1  0
 25  2  1  0
 24  4  1  0
 21  7  2  0
 20 12  1  0
 20 15  1  0
  1 26  1  0
  2 27  1  6
  3 28  1  0
  3 29  1  0
  4 30  1  1
  5 31  1  0
  5 32  1  0
  8 33  1  0
  9 34  1  0
 10 35  1  0
 13 36  1  0
 16 37  1  0
 17 38  1  0
 18 39  1  0
 19 40  1  0
 22 41  1  0
 22 42  1  0
 23 43  1  0
 23 44  1  0
 25 45  1  0
 25 46  1  0
M  END
$$$$
OCNT-2312592
     RDKit          3D

 44 46  0  0  0  0  0  0  0  0999 V2000
   -5.4748   -1.1087    2.0958 C   0  0  0  0  0  0  0  0  0  0  0  0
   -5.2494   -0.3148    0.8628 C   0  0  0  0  0  0  0  0  0  0  0  0
   -5.7662    0.9027    0.4767 C   0  0  0  0  0  0  0  0  0  0  0  0
   -5.1866    1.1914   -0.7870 C   0  0  0  0  0  0  0  0  0  0  0  0
   -5.4253    2.4233   -1.6221 C   0  0  0  0  0  0  0  0  0  0  0  0
   -4.3139    3.2028   -1.7139 F   0  0  0  0  0  0  0  0  0  0  0  0
   -6.4040    3.2111   -1.0962 F   0  0  0  0  0  0  0  0  0  0  0  0
   -5.8104    2.1288   -2.8925 F   0  0  0  0  0  0  0  0  0  0  0  0
   -4.3488    0.2016   -1.1609 N   0  0  0  0  0  0  0  0  0  0  0  0
   -4.4209   -0.7022   -0.1573 N   0  0  0  0  0  0  0  0  0  0  0  0
   -3.6348   -1.9172   -0.2612 C   0  0  0  0  0  0  0  0  0  0  0  0
   -2.1954   -1.6644    0.1231 C   0  0  0  0  0  0  0  0  0  0  0  0
   -1.6646   -2.2169    1.0852 O   0  0  0  0  0  0  0  0  0  0  0  0
   -1.5117   -0.8044   -0.7163 N   0  0  0  0  0  0  0  0  0  0  0  0
   -0.1726   -0.3528   -0.3864 C   0  0  0  0  0  0  0  0  0  0  0  0
    0.8889   -1.4267   -0.6305 C   0  0  0  0  0  0  0  0  0  0  0  0
    2.1829   -1.0370   -0.0202 C   0  0  0  0  0  0  0  0  0  0  0  0
    3.1433   -0.3102   -0.5447 N   0  0  0  0  0  0  0  0  0  0  0  0
    4.0943   -0.2437    0.4544 C   0  0  0  0  0  0  0  0  0  0  0  0
    5.3536    0.4759    0.2863 C   0  0  0  0  0  0  0  0  0  0  0  0
    6.2710    0.5830    1.3424 C   0  0  0  0  0  0  0  0  0  0  0  0
    7.4756    1.2708    1.1724 C   0  0  0  0  0  0  0  0  0  0  0  0
    7.7764    1.8581   -0.0555 C   0  0  0  0  0  0  0  0  0  0  0  0
    6.8733    1.7618   -1.1126 C   0  0  0  0  0  0  0  0  0  0  0  0
    5.6682    1.0753   -0.9423 C   0  0  0  0  0  0  0  0  0  0  0  0
    3.7412   -0.8969    1.5744 N   0  0  0  0  0  0  0  0  0  0  0  0
    2.5403   -1.3925    1.2469 N   0  0  0  0  0  0  0  0  0  0  0  0
   -4.5247   -1.3487    2.5834 H   0  0  0  0  0  0  0  0  0  0  0  0
   -5.9964   -2.0426    1.8643 H   0  0  0  0  0  0  0  0  0  0  0  0
   -6.0866   -0.5500    2.8115 H   0  0  0  0  0  0  0  0  0  0  0  0
   -6.4653    1.5158    1.0311 H   0  0  0  0  0  0  0  0  0  0  0  0
   -4.0673   -2.6798    0.3930 H   0  0  0  0  0  0  0  0  0  0  0  0
   -3.6921   -2.2785   -1.2932 H   0  0  0  0  0  0  0  0  0  0  0  0
   -2.0876   -0.1927   -1.2973 H   0  0  0  0  0  0  0  0  0  0  0  0
    0.0348    0.5324   -0.9988 H   0  0  0  0  0  0  0  0  0  0  0  0
   -0.1774   -0.0342    0.6634 H   0  0  0  0  0  0  0  0  0  0  0  0
    1.0183   -1.5744   -1.7096 H   0  0  0  0  0  0  0  0  0  0  0  0
    0.5728   -2.3962   -0.2279 H   0  0  0  0  0  0  0  0  0  0  0  0
    6.0494    0.1308    2.3077 H   0  0  0  0  0  0  0  0  0  0  0  0
    8.1768    1.3462    1.9996 H   0  0  0  0  0  0  0  0  0  0  0  0
    8.7145    2.3907   -0.1879 H   0  0  0  0  0  0  0  0  0  0  0  0
    7.1046    2.2198   -2.0707 H   0  0  0  0  0  0  0  0  0  0  0  0
    4.9727    1.0072   -1.7766 H   0  0  0  0  0  0  0  0  0  0  0  0
    2.0239   -1.9442    1.9243 H   0  0  0  0  0  0  0  0  0  0  0  0
  1  2  1  0
  2  3  2  0
  3  4  1  0
  4  5  1  0
  5  6  1  0
  5  7  1  0
  5  8  1  0
  4  9  2  0
  9 10  1  0
 10 11  1  0
 11 12  1  0
 12 13  2  0
 12 14  1  0
 14 15  1  0
 15 16  1  0
 16 17  1  0
 17 18  2  0
 18 19  1  0
 19 20  1  0
 20 21  2  0
 21 22  1  0
 22 23  2  0
 23 24  1  0
 24 25  2  0
 19 26  2  0
 26 27  1  0
 10  2  1  0
 27 17  1  0
 25 20  1  0
  1 28  1  0
  1 29  1  0
  1 30  1  0
  3 31  1  0
 11 32  1  0
 11 33  1  0
 14 34  1  0
 15 35  1  0
 15 36  1  0
 16 37  1  0
 16 38  1  0
 21 39  1  0
 22 40  1  0
 23 41  1  0
 24 42  1  0
 25 43  1  0
 27 44  1  0
M  END
$$$$
OCNT-2312594
     RDKit          3D

 45 48  0  0  0  0  0  0  0  0999 V2000
   -2.1776    0.8875   -2.3829 O   0  0  0  0  0  0  0  0  0  0  0  0
   -1.9342    0.5038   -1.2463 C   0  0  0  0  0  0  0  0  0  0  0  0
   -1.0226    1.0919   -0.4049 N   0  0  0  0  0  0  0  0  0  0  0  0
   -0.2553    2.2629   -0.7880 C   0  0  0  0  0  0  0  0  0  0  0  0
    0.8080    1.9865   -1.8544 C   0  0  0  0  0  0  0  0  0  0  0  0
    1.8047    0.9716   -1.4224 C   0  0  0  0  0  0  0  0  0  0  0  0
    2.7704    1.2589   -0.5412 N   0  0  0  0  0  0  0  0  0  0  0  0
    3.4336    0.0716   -0.4323 N   0  0  0  0  0  0  0  0  0  0  0  0
    4.5629   -0.0883    0.4118 C   0  0  0  0  0  0  0  0  0  0  0  0
    5.0411    0.9971    1.1602 C   0  0  0  0  0  0  0  0  0  0  0  0
    6.1522    0.8350    1.9904 C   0  0  0  0  0  0  0  0  0  0  0  0
    6.7869   -0.4041    2.0762 C   0  0  0  0  0  0  0  0  0  0  0  0
    6.3147   -1.4858    1.3328 C   0  0  0  0  0  0  0  0  0  0  0  0
    5.2043   -1.3323    0.5001 C   0  0  0  0  0  0  0  0  0  0  0  0
    2.9279   -0.9549   -1.1718 N   0  0  0  0  0  0  0  0  0  0  0  0
    1.9094   -0.3736   -1.8058 C   0  0  0  0  0  0  0  0  0  0  0  0
   -2.6307   -0.6997   -0.6663 C   0  0  0  0  0  0  0  0  0  0  0  0
   -3.9030   -0.4088    0.1251 C   0  0  0  0  0  0  0  0  0  0  0  0
   -5.1192   -0.1543   -0.5357 C   0  0  0  0  0  0  0  0  0  0  0  0
   -6.2918    0.1256    0.1723 C   0  0  0  0  0  0  0  0  0  0  0  0
   -6.2653    0.1596    1.5623 C   0  0  0  0  0  0  0  0  0  0  0  0
   -7.7042    0.5032    2.4395 Cl  0  0  0  0  0  0  0  0  0  0  0  0
   -5.0777   -0.0805    2.2461 C   0  0  0  0  0  0  0  0  0  0  0  0
   -3.9083   -0.3590    1.5311 C   0  0  0  0  0  0  0  0  0  0  0  0
   -2.6103   -1.9778   -1.5046 C   0  0  0  0  0  0  0  0  0  0  0  0
   -1.7747   -1.9017   -0.2681 C   0  0  0  0  0  0  0  0  0  0  0  0
   -0.8769    0.6937    0.5138 H   0  0  0  0  0  0  0  0  0  0  0  0
    0.2041    2.6551    0.1261 H   0  0  0  0  0  0  0  0  0  0  0  0
   -0.9570    3.0169   -1.1625 H   0  0  0  0  0  0  0  0  0  0  0  0
    1.3262    2.9239   -2.0915 H   0  0  0  0  0  0  0  0  0  0  0  0
    0.3325    1.6535   -2.7846 H   0  0  0  0  0  0  0  0  0  0  0  0
    4.5611    1.9721    1.1052 H   0  0  0  0  0  0  0  0  0  0  0  0
    6.5237    1.6768    2.5696 H   0  0  0  0  0  0  0  0  0  0  0  0
    7.6524   -0.5268    2.7227 H   0  0  0  0  0  0  0  0  0  0  0  0
    6.8124   -2.4501    1.4003 H   0  0  0  0  0  0  0  0  0  0  0  0
    4.8520   -2.1877   -0.0732 H   0  0  0  0  0  0  0  0  0  0  0  0
    1.2997   -0.9429   -2.4945 H   0  0  0  0  0  0  0  0  0  0  0  0
   -5.1487   -0.1677   -1.6248 H   0  0  0  0  0  0  0  0  0  0  0  0
   -7.2143    0.3183   -0.3686 H   0  0  0  0  0  0  0  0  0  0  0  0
   -5.0523   -0.0520    3.3321 H   0  0  0  0  0  0  0  0  0  0  0  0
   -2.9885   -0.5413    2.0826 H   0  0  0  0  0  0  0  0  0  0  0  0
   -2.1098   -1.9465   -2.4667 H   0  0  0  0  0  0  0  0  0  0  0  0
   -3.4807   -2.6244   -1.4903 H   0  0  0  0  0  0  0  0  0  0  0  0
   -2.0781   -2.5128    0.5747 H   0  0  0  0  0  0  0  0  0  0  0  0
   -0.6990   -1.8422   -0.3939 H   0  0  0  0  0  0  0  0  0  0  0  0
  1  2  2  0
  2  3  1  0
  3  4  1  0
  4  5  1  0
  5  6  1  0
  6  7  2  0
  7  8  1  0
  8  9  1  0
  9 10  2  0
 10 11  1  0
 11 12  2  0
 12 13  1  0
 13 14  2  0
  8 15  1  0
 15 16  2  0
  2 17  1  0
 17 18  1  0
 18 19  1  0
 19 20  2  0
 20 21  1  0
 21 22  1  0
 21 23  2  0
 23 24  1  0
 17 25  1  0
 25 26  1  0
 16  6  1  0
 26 17  1  0
 14  9  1  0
 24 18  2  0
  3 27  1  0
  4 28  1  0
  4 29  1  0
  5 30  1  0
  5 31  1  0
 10 32  1  0
 11 33  1  0
 12 34  1  0
 13 35  1  0
 14 36  1  0
 16 37  1  0
 19 38  1  0
 20 39  1  0
 23 40  1  0
 24 41  1  0
 25 42  1  0
 25 43  1  0
 26 44  1  0
 26 45  1  0
M  END
$$$$
OCNT-2312595
     RDKit          3D

 50 53  0  0  0  0  0  0  0  0999 V2000
   -8.0296   -0.1219    1.1254 C   0  0  0  0  0  0  0  0  0  0  0  0
   -6.8410   -0.8175    0.5309 C   0  0  0  0  0  0  0  0  0  0  0  0
   -6.9370   -2.1468    0.1097 C   0  0  0  0  0  0  0  0  0  0  0  0
   -5.8226   -2.7972   -0.4175 C   0  0  0  0  0  0  0  0  0  0  0  0
   -4.5982   -2.1314   -0.5157 C   0  0  0  0  0  0  0  0  0  0  0  0
   -4.4749   -0.8131   -0.0764 C   0  0  0  0  0  0  0  0  0  0  0  0
   -3.2768   -0.0722   -0.1516 N   0  0  0  0  0  0  0  0  0  0  0  0
   -2.0130   -0.5534   -0.4025 C   0  0  0  0  0  0  0  0  0  0  0  0
   -1.7076   -1.7432   -0.4239 O   0  0  0  0  0  0  0  0  0  0  0  0
   -1.0488    0.4374   -0.5963 N   0  0  0  0  0  0  0  0  0  0  0  0
   -1.3176    1.8085   -1.0225 C   0  0  0  0  0  0  0  0  0  0  0  0
   -0.4740    2.7949   -0.2160 C   0  0  0  0  0  0  0  0  0  0  0  0
    0.9260    2.2651    0.1217 C   0  0  0  0  0  0  0  0  0  0  0  0
    1.3537    1.1332   -0.8212 C   0  0  0  0  0  0  0  0  0  0  0  0
    2.7471    0.6650   -0.5317 C   0  0  0  0  0  0  0  0  0  0  0  0
    3.7847    0.7928   -1.3339 N   0  0  0  0  0  0  0  0  0  0  0  0
    4.8469    0.2373   -0.6632 C   0  0  0  0  0  0  0  0  0  0  0  0
    6.1870    0.1037   -1.0558 C   0  0  0  0  0  0  0  0  0  0  0  0
    7.0973   -0.5183   -0.1827 C   0  0  0  0  0  0  0  0  0  0  0  0
    8.5418   -0.6421   -0.5718 C   0  0  0  0  0  0  0  0  0  0  0  0
    6.6627   -0.9713    1.0722 C   0  0  0  0  0  0  0  0  0  0  0  0
    5.3284   -0.8454    1.4809 C   0  0  0  0  0  0  0  0  0  0  0  0
    4.4534   -0.2359    0.5813 C   0  0  0  0  0  0  0  0  0  0  0  0
    3.1142    0.0491    0.6429 N   0  0  0  0  0  0  0  0  0  0  0  0
    0.3328   -0.0187   -0.7862 C   0  0  0  0  0  0  0  0  0  0  0  0
   -5.6035   -0.1621    0.4423 C   0  0  0  0  0  0  0  0  0  0  0  0
   -7.9930    0.9540    0.9249 H   0  0  0  0  0  0  0  0  0  0  0  0
   -8.9613   -0.5008    0.6925 H   0  0  0  0  0  0  0  0  0  0  0  0
   -8.0524   -0.2797    2.2080 H   0  0  0  0  0  0  0  0  0  0  0  0
   -7.8800   -2.6835    0.1853 H   0  0  0  0  0  0  0  0  0  0  0  0
   -5.9025   -3.8277   -0.7544 H   0  0  0  0  0  0  0  0  0  0  0  0
   -3.7573   -2.6683   -0.9445 H   0  0  0  0  0  0  0  0  0  0  0  0
   -3.3128    0.8545    0.2396 H   0  0  0  0  0  0  0  0  0  0  0  0
   -2.3738    2.0786   -0.9571 H   0  0  0  0  0  0  0  0  0  0  0  0
   -1.0597    1.8681   -2.0876 H   0  0  0  0  0  0  0  0  0  0  0  0
   -0.3948    3.7343   -0.7758 H   0  0  0  0  0  0  0  0  0  0  0  0
   -0.9876    3.0381    0.7224 H   0  0  0  0  0  0  0  0  0  0  0  0
    1.6466    3.0920    0.0949 H   0  0  0  0  0  0  0  0  0  0  0  0
    0.9228    1.9012    1.1583 H   0  0  0  0  0  0  0  0  0  0  0  0
    1.3588    1.5445   -1.8411 H   0  0  0  0  0  0  0  0  0  0  0  0
    6.4962    0.4793   -2.0252 H   0  0  0  0  0  0  0  0  0  0  0  0
    9.0989    0.2332   -0.2241 H   0  0  0  0  0  0  0  0  0  0  0  0
    8.9870   -1.5427   -0.1360 H   0  0  0  0  0  0  0  0  0  0  0  0
    8.6490   -0.7209   -1.6588 H   0  0  0  0  0  0  0  0  0  0  0  0
    7.3740   -1.4368    1.7531 H   0  0  0  0  0  0  0  0  0  0  0  0
    5.0012   -1.2049    2.4502 H   0  0  0  0  0  0  0  0  0  0  0  0
    2.5036   -0.1617    1.4189 H   0  0  0  0  0  0  0  0  0  0  0  0
    0.5556   -0.7286    0.0202 H   0  0  0  0  0  0  0  0  0  0  0  0
    0.3793   -0.5856   -1.7251 H   0  0  0  0  0  0  0  0  0  0  0  0
   -5.5289    0.8665    0.7866 H   0  0  0  0  0  0  0  0  0  0  0  0
  1  2  1  0
  2  3  2  0
  3  4  1  0
  4  5  2  0
  5  6  1  0
  6  7  1  0
  7  8  1  0
  8  9  2  0
  8 10  1  0
 10 11  1  0
 11 12  1  0
 12 13  1  0
 13 14  1  0
 14 15  1  0
 15 16  2  0
 16 17  1  0
 17 18  2  0
 18 19  1  0
 19 20  1  0
 19 21  2  0
 21 22  1  0
 22 23  2  0
 23 24  1  0
 14 25  1  0
  6 26  2  0
 26  2  1  0
 25 10  1  0
 24 15  1  0
 23 17  1  0
  1 27  1  0
  1 28  1  0
  1 29  1  0
  3 30  1  0
  4 31  1  0
  5 32  1  0
  7 33  1  0
 11 34  1  0
 11 35  1  0
 12 36  1  0
 12 37  1  0
 13 38  1  0
 13 39  1  0
 14 40  1  0
 18 41  1  0
 20 42  1  0
 20 43  1  0
 20 44  1  0
 21 45  1  0
 22 46  1  0
 24 47  1  0
 25 48  1  0
 25 49  1  0
 26 50  1  0
M  END
$$$$
OCNT-2312600
     RDKit          3D

 43 45  0  0  0  0  0  0  0  0999 V2000
    7.5136    2.4826   -0.2781 C   0  0  0  0  0  0  0  0  0  0  0  0
    6.5399    1.3666   -0.1371 C   0  0  0  0  0  0  0  0  0  0  0  0
    6.8665    0.0946   -0.1239 N   0  0  0  0  0  0  0  0  0  0  0  0
    5.7307   -0.6912    0.0177 C   0  0  0  0  0  0  0  0  0  0  0  0
    5.9039   -2.1692    0.0548 C   0  0  0  0  0  0  0  0  0  0  0  0
    4.5379    0.0125    0.1105 C   0  0  0  0  0  0  0  0  0  0  0  0
    3.1928   -0.5172    0.2578 C   0  0  0  0  0  0  0  0  0  0  0  0
    2.9400   -1.7199    0.2799 O   0  0  0  0  0  0  0  0  0  0  0  0
    2.1827    0.4183    0.3661 N   0  0  0  0  0  0  0  0  0  0  0  0
    0.7861    0.0428    0.4935 C   0  0  0  0  0  0  0  0  0  0  0  0
    0.1723   -0.3812   -0.8399 C   0  0  0  0  0  0  0  0  0  0  0  0
   -1.2787   -0.7006   -0.6748 C   0  0  0  0  0  0  0  0  0  0  0  0
   -2.2094    0.2059   -0.4714 N   0  0  0  0  0  0  0  0  0  0  0  0
   -3.4535   -0.4006   -0.3781 C   0  0  0  0  0  0  0  0  0  0  0  0
   -4.6437    0.4104   -0.1632 C   0  0  0  0  0  0  0  0  0  0  0  0
   -5.7970    0.2404   -0.9403 C   0  0  0  0  0  0  0  0  0  0  0  0
   -6.9237    1.0352   -0.7153 C   0  0  0  0  0  0  0  0  0  0  0  0
   -6.9028    2.0109    0.2803 C   0  0  0  0  0  0  0  0  0  0  0  0
   -5.7542    2.1994    1.0470 C   0  0  0  0  0  0  0  0  0  0  0  0
   -4.6274    1.4057    0.8227 C   0  0  0  0  0  0  0  0  0  0  0  0
   -3.4406   -1.7842   -0.4614 C   0  0  0  0  0  0  0  0  0  0  0  0
   -4.5433   -2.7779   -0.3457 C   0  0  0  0  0  0  0  0  0  0  0  0
   -1.8310   -2.3223   -0.7343 S   0  0  0  0  0  0  0  0  0  0  0  0
    4.8653    1.6976    0.0179 S   0  0  0  0  0  0  0  0  0  0  0  0
    7.3330    3.0394   -1.2035 H   0  0  0  0  0  0  0  0  0  0  0  0
    8.5371    2.0949   -0.3118 H   0  0  0  0  0  0  0  0  0  0  0  0
    7.4432    3.1731    0.5684 H   0  0  0  0  0  0  0  0  0  0  0  0
    5.3720   -2.6397   -0.7778 H   0  0  0  0  0  0  0  0  0  0  0  0
    5.5229   -2.5783    0.9958 H   0  0  0  0  0  0  0  0  0  0  0  0
    6.9615   -2.4398   -0.0260 H   0  0  0  0  0  0  0  0  0  0  0  0
    2.4261    1.3993    0.3103 H   0  0  0  0  0  0  0  0  0  0  0  0
    0.2608    0.9122    0.9057 H   0  0  0  0  0  0  0  0  0  0  0  0
    0.7105   -0.7692    1.2267 H   0  0  0  0  0  0  0  0  0  0  0  0
    0.2731    0.4351   -1.5662 H   0  0  0  0  0  0  0  0  0  0  0  0
    0.7201   -1.2324   -1.2614 H   0  0  0  0  0  0  0  0  0  0  0  0
   -5.8239   -0.4973   -1.7379 H   0  0  0  0  0  0  0  0  0  0  0  0
   -7.8145    0.8986   -1.3231 H   0  0  0  0  0  0  0  0  0  0  0  0
   -7.7786    2.6312    0.4524 H   0  0  0  0  0  0  0  0  0  0  0  0
   -5.7316    2.9671    1.8162 H   0  0  0  0  0  0  0  0  0  0  0  0
   -3.7316    1.5650    1.4195 H   0  0  0  0  0  0  0  0  0  0  0  0
   -4.1761   -3.7592   -0.0259 H   0  0  0  0  0  0  0  0  0  0  0  0
   -5.0449   -2.9024   -1.3109 H   0  0  0  0  0  0  0  0  0  0  0  0
   -5.2856   -2.4562    0.3921 H   0  0  0  0  0  0  0  0  0  0  0  0
  1  2  1  0
  2  3  2  0
  3  4  1  0
  4  5  1  0
  4  6  2  0
  6  7  1  0
  7  8  2  0
  7  9  1  0
  9 10  1  0
 10 11  1  0
 11 12  1  0
 12 13  2  0
 13 14  1  0
 14 15  1  0
 15 16  2  0
 16 17  1  0
 17 18  2  0
 18 19  1  0
 19 20  2  0
 14 21  2  0
 21 22  1  0
 21 23  1  0
  6 24  1  0
 24  2  1  0
 23 12  1  0
 20 15  1  0
  1 25  1  0
  1 26  1  0
  1 27  1  0
  5 28  1  0
  5 29  1  0
  5 30  1  0
  9 31  1  0
 10 32  1  0
 10 33  1  0
 11 34  1  0
 11 35  1  0
 16 36  1  0
 17 37  1  0
 18 38  1  0
 19 39  1  0
 20 40  1  0
 22 41  1  0
 22 42  1  0
 22 43  1  0
M  END
$$$$
OCNT-2312604
     RDKit          3D

 38 40  0  0  0  0  0  0  0  0999 V2000
   -3.9225    2.5981    0.2866 C   0  0  0  0  0  0  0  0  0  0  0  0
   -3.9040    1.0992    0.2219 C   0  0  0  0  0  0  0  0  0  0  0  0
   -2.7579    0.3859    0.1697 C   0  0  0  0  0  0  0  0  0  0  0  0
   -2.8002   -1.0417    0.0966 C   0  0  0  0  0  0  0  0  0  0  0  0
   -1.8654   -2.0623    0.0519 C   0  0  0  0  0  0  0  0  0  0  0  0
   -0.4206   -2.0064    0.1221 C   0  0  0  0  0  0  0  0  0  0  0  0
    0.2943   -2.7929   -0.4890 O   0  0  0  0  0  0  0  0  0  0  0  0
    0.0850   -1.0449    0.9675 N   0  0  0  0  0  0  0  0  0  0  0  0
    1.5090   -0.7238    0.9806 C   0  0  0  0  0  0  0  0  0  0  0  0
    1.9048    0.3473   -0.0631 C   0  0  0  0  0  0  0  0  0  0  0  0
    1.4277   -0.0332   -1.2869 F   0  0  0  0  0  0  0  0  0  0  0  0
    1.2117    1.4917    0.2336 F   0  0  0  0  0  0  0  0  0  0  0  0
    3.3951    0.5833   -0.0890 C   0  0  0  0  0  0  0  0  0  0  0  0
    4.1783    0.1737   -1.1806 C   0  0  0  0  0  0  0  0  0  0  0  0
    5.5562    0.4020   -1.1830 C   0  0  0  0  0  0  0  0  0  0  0  0
    6.1510    1.0363   -0.0968 C   0  0  0  0  0  0  0  0  0  0  0  0
    7.4729    1.2490   -0.1011 F   0  0  0  0  0  0  0  0  0  0  0  0
    5.3966    1.4459    0.9930 C   0  0  0  0  0  0  0  0  0  0  0  0
    4.0256    1.2165    0.9862 C   0  0  0  0  0  0  0  0  0  0  0  0
    3.3032    1.5989    2.0482 F   0  0  0  0  0  0  0  0  0  0  0  0
   -2.6423   -3.2239   -0.1343 C   0  0  0  0  0  0  0  0  0  0  0  0
   -3.9541   -2.9901   -0.1255 N   0  0  0  0  0  0  0  0  0  0  0  0
   -4.0610   -1.6459    0.0155 N   0  0  0  0  0  0  0  0  0  0  0  0
   -5.2419   -0.9070    0.0781 C   0  0  0  0  0  0  0  0  0  0  0  0
   -5.2001    0.4296    0.1918 C   0  0  0  0  0  0  0  0  0  0  0  0
   -4.4467    3.0150   -0.5802 H   0  0  0  0  0  0  0  0  0  0  0  0
   -2.9109    3.0184    0.2961 H   0  0  0  0  0  0  0  0  0  0  0  0
   -4.4303    2.9367    1.1962 H   0  0  0  0  0  0  0  0  0  0  0  0
   -1.7988    0.8956    0.1504 H   0  0  0  0  0  0  0  0  0  0  0  0
   -0.5544   -0.4299    1.4522 H   0  0  0  0  0  0  0  0  0  0  0  0
    1.7297   -0.3734    1.9939 H   0  0  0  0  0  0  0  0  0  0  0  0
    2.0756   -1.6456    0.8057 H   0  0  0  0  0  0  0  0  0  0  0  0
    3.7176   -0.3247   -2.0335 H   0  0  0  0  0  0  0  0  0  0  0  0
    6.1689    0.0885   -2.0239 H   0  0  0  0  0  0  0  0  0  0  0  0
    5.8703    1.9334    1.8368 H   0  0  0  0  0  0  0  0  0  0  0  0
   -2.2918   -4.2419   -0.2562 H   0  0  0  0  0  0  0  0  0  0  0  0
   -6.1605   -1.4759    0.0273 H   0  0  0  0  0  0  0  0  0  0  0  0
   -6.1102    1.0185    0.2396 H   0  0  0  0  0  0  0  0  0  0  0  0
  1  2  1  0
  2  3  2  0
  3  4  1  0
  4  5  2  0
  5  6  1  0
  6  7  2  0
  6  8  1  0
  8  9  1  0
  9 10  1  0
 10 11  1  0
 10 12  1  0
 10 13  1  0
 13 14  1  0
 14 15  2  0
 15 16  1  0
 16 17  1  0
 16 18  2  0
 18 19  1  0
 19 20  1  0
  5 21  1  0
 21 22  2  0
 22 23  1  0
 23 24  1  0
 24 25  2  0
 25  2  1  0
 23  4  1  0
 19 13  2  0
  1 26  1  0
  1 27  1  0
  1 28  1  0
  3 29  1  0
  8 30  1  0
  9 31  1  0
  9 32  1  0
 14 33  1  0
 15 34  1  0
 18 35  1  0
 21 36  1  0
 24 37  1  0
 25 38  1  0
M  END
$$$$
OCNT-2312606
     RDKit          3D

 47 51  0  0  0  0  0  0  0  0999 V2000
   -2.8044   -0.0053   -2.2556 O   0  0  0  0  0  0  0  0  0  0  0  0
   -2.2714    0.0227   -1.1477 C   0  0  0  0  0  0  0  0  0  0  0  0
   -3.0358    0.4186    0.0362 C   0  0  0  0  0  0  0  0  0  0  0  0
   -2.5787    1.1861    1.0962 C   0  0  0  0  0  0  0  0  0  0  0  0
   -3.6066    1.3626    1.9820 N   0  0  0  0  0  0  0  0  0  0  0  0
   -4.7454    0.7501    1.5154 C   0  0  0  0  0  0  0  0  0  0  0  0
   -6.0273    0.6812    2.0772 C   0  0  0  0  0  0  0  0  0  0  0  0
   -7.0088   -0.0067    1.3581 C   0  0  0  0  0  0  0  0  0  0  0  0
   -8.6011   -0.1183    2.0080 Cl  0  0  0  0  0  0  0  0  0  0  0  0
   -6.7279   -0.5994    0.1308 C   0  0  0  0  0  0  0  0  0  0  0  0
   -5.4402   -0.5205   -0.4135 C   0  0  0  0  0  0  0  0  0  0  0  0
   -4.4247    0.1641    0.2891 C   0  0  0  0  0  0  0  0  0  0  0  0
   -0.9074   -0.2755   -0.9739 N   0  0  0  0  0  0  0  0  0  0  0  0
   -0.4664   -1.0801    0.1679 C   0  0  0  0  0  0  0  0  0  0  0  0
    1.0105   -0.8574    0.4682 C   0  0  0  0  0  0  0  0  0  0  0  0
    1.8542   -1.0958   -0.7891 C   0  0  0  0  0  0  0  0  0  0  0  0
    3.2768   -0.9517   -0.5489 N   0  0  0  0  0  0  0  0  0  0  0  0
    4.1994   -2.0196   -0.6557 C   0  0  0  0  0  0  0  0  0  0  0  0
    3.9699   -3.1797   -0.9542 O   0  0  0  0  0  0  0  0  0  0  0  0
    5.4601   -1.4950   -0.3459 N   0  0  0  0  0  0  0  0  0  0  0  0
    5.3295   -0.1450   -0.0510 C   0  0  0  0  0  0  0  0  0  0  0  0
    6.3096    0.7533    0.3067 C   0  0  0  0  0  0  0  0  0  0  0  0
    5.9010    2.0657    0.5534 C   0  0  0  0  0  0  0  0  0  0  0  0
    4.5451    2.4341    0.4374 C   0  0  0  0  0  0  0  0  0  0  0  0
    3.5683    1.4982    0.0718 C   0  0  0  0  0  0  0  0  0  0  0  0
    3.9826    0.2058   -0.1709 C   0  0  0  0  0  0  0  0  0  0  0  0
    1.3537   -0.2563   -1.9692 C   0  0  0  0  0  0  0  0  0  0  0  0
   -0.1370   -0.4793   -2.1981 C   0  0  0  0  0  0  0  0  0  0  0  0
   -1.6090    1.6277    1.2840 H   0  0  0  0  0  0  0  0  0  0  0  0
   -3.5504    1.8864    2.8452 H   0  0  0  0  0  0  0  0  0  0  0  0
   -6.2528    1.1465    3.0308 H   0  0  0  0  0  0  0  0  0  0  0  0
   -7.5049   -1.1260   -0.4171 H   0  0  0  0  0  0  0  0  0  0  0  0
   -5.2261   -0.9792   -1.3761 H   0  0  0  0  0  0  0  0  0  0  0  0
   -0.6511   -2.1315   -0.0878 H   0  0  0  0  0  0  0  0  0  0  0  0
   -1.0553   -0.8810    1.0647 H   0  0  0  0  0  0  0  0  0  0  0  0
    1.1463    0.1636    0.8405 H   0  0  0  0  0  0  0  0  0  0  0  0
    1.3308   -1.5315    1.2716 H   0  0  0  0  0  0  0  0  0  0  0  0
    1.6986   -2.1468   -1.0710 H   0  0  0  0  0  0  0  0  0  0  0  0
    6.3054   -2.0413   -0.3451 H   0  0  0  0  0  0  0  0  0  0  0  0
    7.3494    0.4628    0.3941 H   0  0  0  0  0  0  0  0  0  0  0  0
    6.6366    2.8153    0.8384 H   0  0  0  0  0  0  0  0  0  0  0  0
    4.2542    3.4643    0.6344 H   0  0  0  0  0  0  0  0  0  0  0  0
    2.5335    1.8037   -0.0113 H   0  0  0  0  0  0  0  0  0  0  0  0
    1.9104   -0.5101   -2.8792 H   0  0  0  0  0  0  0  0  0  0  0  0
    1.5236    0.8098   -1.7860 H   0  0  0  0  0  0  0  0  0  0  0  0
   -0.3301   -1.4992   -2.5531 H   0  0  0  0  0  0  0  0  0  0  0  0
   -0.4868    0.2095   -2.9758 H   0  0  0  0  0  0  0  0  0  0  0  0
  1  2  2  0
  2  3  1  0
  3  4  2  0
  4  5  1  0
  5  6  1  0
  6  7  2  0
  7  8  1  0
  8  9  1  0
  8 10  2  0
 10 11  1  0
 11 12  2  0
  2 13  1  0
 13 14  1  0
 14 15  1  0
 15 16  1  0
 16 17  1  0
 17 18  1  0
 18 19  2  0
 18 20  1  0
 20 21  1  0
 21 22  2  0
 22 23  1  0
 23 24  2  0
 24 25  1  0
 25 26  2  0
 16 27  1  0
 27 28  1  0
 12  3  1  0
 28 13  1  0
 12  6  1  0
 26 17  1  0
 26 21  1  0
  4 29  1  0
  5 30  1  0
  7 31  1  0
 10 32  1  0
 11 33  1  0
 14 34  1  0
 14 35  1  0
 15 36  1  0
 15 37  1  0
 16 38  1  0
 20 39  1  0
 22 40  1  0
 23 41  1  0
 24 42  1  0
 25 43  1  0
 27 44  1  0
 27 45  1  0
 28 46  1  0
 28 47  1  0
M  END
$$$$
OCNT-2312607
     RDKit          3D

 43 46  0  0  0  0  0  0  0  0999 V2000
   -2.2039    1.8126   -2.2130 C   0  0  0  0  0  0  0  0  0  0  0  0
   -1.8190    1.4579   -0.8869 O   0  0  0  0  0  0  0  0  0  0  0  0
   -2.4802    0.3560   -0.4724 C   0  0  0  0  0  0  0  0  0  0  0  0
   -1.9577   -0.9228   -0.4907 C   0  0  0  0  0  0  0  0  0  0  0  0
   -0.6914   -1.4862   -0.8999 C   0  0  0  0  0  0  0  0  0  0  0  0
   -0.6571   -2.5868   -1.4537 O   0  0  0  0  0  0  0  0  0  0  0  0
    0.4837   -0.8156   -0.6094 N   0  0  0  0  0  0  0  0  0  0  0  0
    0.6632    0.2956    0.3150 C   0  0  0  0  0  0  0  0  0  0  0  0
    2.1167    0.1827    0.7596 C   0  0  0  0  0  0  0  0  0  0  0  0
    2.8039   -0.3923   -0.4847 C   0  0  0  0  0  0  0  0  0  0  0  0
    4.1558   -1.0485   -0.2138 C   0  0  0  0  0  0  0  0  0  0  0  0
    5.1913   -0.0479    0.2004 C   0  0  0  0  0  0  0  0  0  0  0  0
    5.3973    0.3254    1.4462 N   0  0  0  0  0  0  0  0  0  0  0  0
    6.4140    1.2582    1.4902 C   0  0  0  0  0  0  0  0  0  0  0  0
    6.9729    1.5871    0.2750 C   0  0  0  0  0  0  0  0  0  0  0  0
    6.2042    0.7001   -0.9729 S   0  0  0  0  0  0  0  0  0  0  0  0
    1.7628   -1.3939   -0.9815 C   0  0  0  0  0  0  0  0  0  0  0  0
   -2.9916   -1.7466   -0.0889 N   0  0  0  0  0  0  0  0  0  0  0  0
   -4.0960   -1.0213    0.2906 C   0  0  0  0  0  0  0  0  0  0  0  0
   -5.3270   -1.4470    0.8025 C   0  0  0  0  0  0  0  0  0  0  0  0
   -6.2788   -0.4649    1.0945 C   0  0  0  0  0  0  0  0  0  0  0  0
   -6.0088    0.8851    0.8793 C   0  0  0  0  0  0  0  0  0  0  0  0
   -4.7736    1.2914    0.3618 C   0  0  0  0  0  0  0  0  0  0  0  0
   -3.7977    0.3201    0.0627 C   0  0  0  0  0  0  0  0  0  0  0  0
   -3.2602    2.0983   -2.2571 H   0  0  0  0  0  0  0  0  0  0  0  0
   -2.0008    0.9961   -2.9150 H   0  0  0  0  0  0  0  0  0  0  0  0
   -1.6061    2.6772   -2.5165 H   0  0  0  0  0  0  0  0  0  0  0  0
    0.5229    1.2263   -0.2417 H   0  0  0  0  0  0  0  0  0  0  0  0
   -0.0350    0.2478    1.1546 H   0  0  0  0  0  0  0  0  0  0  0  0
    2.5269    1.1477    1.0713 H   0  0  0  0  0  0  0  0  0  0  0  0
    2.1969   -0.5146    1.6027 H   0  0  0  0  0  0  0  0  0  0  0  0
    2.9105    0.4094   -1.2289 H   0  0  0  0  0  0  0  0  0  0  0  0
    4.0603   -1.8026    0.5779 H   0  0  0  0  0  0  0  0  0  0  0  0
    4.4909   -1.5869   -1.1093 H   0  0  0  0  0  0  0  0  0  0  0  0
    6.7120    1.6713    2.4461 H   0  0  0  0  0  0  0  0  0  0  0  0
    7.7718    2.2839    0.0675 H   0  0  0  0  0  0  0  0  0  0  0  0
    1.8074   -1.5476   -2.0645 H   0  0  0  0  0  0  0  0  0  0  0  0
    1.8558   -2.3670   -0.4844 H   0  0  0  0  0  0  0  0  0  0  0  0
   -2.9194   -2.7550   -0.0613 H   0  0  0  0  0  0  0  0  0  0  0  0
   -5.5415   -2.4976    0.9695 H   0  0  0  0  0  0  0  0  0  0  0  0
   -7.2454   -0.7611    1.4960 H   0  0  0  0  0  0  0  0  0  0  0  0
   -6.7635    1.6315    1.1145 H   0  0  0  0  0  0  0  0  0  0  0  0
   -4.5666    2.3445    0.1965 H   0  0  0  0  0  0  0  0  0  0  0  0
  1  2  1  0
  2  3  1  0
  3  4  2  0
  4  5  1  0
  5  6  2  0
  5  7  1  0
  7  8  1  0
  8  9  1  0
  9 10  1  0
 10 11  1  0
 11 12  1  0
 12 13  2  0
 13 14  1  0
 14 15  2  0
 15 16  1  0
 10 17  1  0
  4 18  1  0
 18 19  1  0
 19 20  2  0
 20 21  1  0
 21 22  2  0
 22 23  1  0
 23 24  2  0
 24  3  1  0
 17  7  1  0
 24 19  1  0
 16 12  1  0
  1 25  1  0
  1 26  1  0
  1 27  1  0
  8 28  1  0
  8 29  1  0
  9 30  1  0
  9 31  1  0
 10 32  1  0
 11 33  1  0
 11 34  1  0
 14 35  1  0
 15 36  1  0
 17 37  1  0
 17 38  1  0
 18 39  1  0
 20 40  1  0
 21 41  1  0
 22 42  1  0
 23 43  1  0
M  END
$$$$
OCNT-2312610
     RDKit          3D

 50 53  0  0  0  0  0  0  0  0999 V2000
    0.2521   -1.3306   -0.9940 O   0  0  0  0  0  0  0  0  0  0  0  0
    0.3630   -0.3916   -0.2184 C   0  0  0  0  0  0  0  0  0  0  0  0
   -0.3254   -0.2744    0.9611 N   0  0  0  0  0  0  0  0  0  0  0  0
   -1.3348   -1.2416    1.3307 C   0  0  0  0  0  0  0  0  0  0  0  0
   -2.7134   -0.7604    0.9551 C   0  0  0  0  0  0  0  0  0  0  0  0
   -3.1741   -0.8905   -0.3604 C   0  0  0  0  0  0  0  0  0  0  0  0
   -4.4444   -0.4289   -0.7188 C   0  0  0  0  0  0  0  0  0  0  0  0
   -5.2869    0.1799    0.2243 C   0  0  0  0  0  0  0  0  0  0  0  0
   -6.6246    0.6628   -0.1536 C   0  0  0  0  0  0  0  0  0  0  0  0
   -7.5455   -0.1785   -0.7890 C   0  0  0  0  0  0  0  0  0  0  0  0
   -8.7949    0.3204   -1.1241 C   0  0  0  0  0  0  0  0  0  0  0  0
   -9.1892    1.5864   -0.8768 N   0  0  0  0  0  0  0  0  0  0  0  0
   -8.2921    2.3878   -0.2668 C   0  0  0  0  0  0  0  0  0  0  0  0
   -7.0216    1.9792    0.1090 C   0  0  0  0  0  0  0  0  0  0  0  0
   -4.8129    0.3140    1.5392 C   0  0  0  0  0  0  0  0  0  0  0  0
   -3.5424   -0.1467    1.9012 C   0  0  0  0  0  0  0  0  0  0  0  0
    1.1904    0.6836   -0.4132 N   0  0  0  0  0  0  0  0  0  0  0  0
    2.0960    0.7280   -1.5402 C   0  0  0  0  0  0  0  0  0  0  0  0
    3.4767    0.2717   -1.1451 C   0  0  0  0  0  0  0  0  0  0  0  0
    4.4756    1.1956   -0.8254 C   0  0  0  0  0  0  0  0  0  0  0  0
    5.7492    0.7601   -0.4386 C   0  0  0  0  0  0  0  0  0  0  0  0
    6.0735   -0.6051   -0.3491 C   0  0  0  0  0  0  0  0  0  0  0  0
    7.4398   -1.1213    0.0654 C   0  0  0  0  0  0  0  0  0  0  0  0
    8.7039   -0.3971   -0.3302 C   0  0  0  0  0  0  0  0  0  0  0  0
    8.2659   -0.4054    1.1066 C   0  0  0  0  0  0  0  0  0  0  0  0
    5.0501   -1.5152   -0.6671 C   0  0  0  0  0  0  0  0  0  0  0  0
    3.7747   -1.0907   -1.0556 C   0  0  0  0  0  0  0  0  0  0  0  0
   -0.4819    0.6715    1.2727 H   0  0  0  0  0  0  0  0  0  0  0  0
   -1.2651   -1.3774    2.4157 H   0  0  0  0  0  0  0  0  0  0  0  0
   -1.1318   -2.2150    0.8698 H   0  0  0  0  0  0  0  0  0  0  0  0
   -2.5391   -1.3486   -1.1181 H   0  0  0  0  0  0  0  0  0  0  0  0
   -4.7654   -0.5372   -1.7531 H   0  0  0  0  0  0  0  0  0  0  0  0
   -7.3026   -1.2126   -1.0116 H   0  0  0  0  0  0  0  0  0  0  0  0
   -9.5335   -0.3075   -1.6141 H   0  0  0  0  0  0  0  0  0  0  0  0
   -8.6294    3.4037   -0.0824 H   0  0  0  0  0  0  0  0  0  0  0  0
   -6.3502    2.6849    0.5872 H   0  0  0  0  0  0  0  0  0  0  0  0
   -5.4410    0.7706    2.3018 H   0  0  0  0  0  0  0  0  0  0  0  0
   -3.2106   -0.0271    2.9302 H   0  0  0  0  0  0  0  0  0  0  0  0
    1.5160    1.1295    0.4304 H   0  0  0  0  0  0  0  0  0  0  0  0
    2.1264    1.7677   -1.8847 H   0  0  0  0  0  0  0  0  0  0  0  0
    1.7171    0.1232   -2.3719 H   0  0  0  0  0  0  0  0  0  0  0  0
    4.2768    2.2636   -0.8765 H   0  0  0  0  0  0  0  0  0  0  0  0
    6.5000    1.5108   -0.2032 H   0  0  0  0  0  0  0  0  0  0  0  0
    7.5282   -2.2081    0.0858 H   0  0  0  0  0  0  0  0  0  0  0  0
    9.5632   -0.9998   -0.6035 H   0  0  0  0  0  0  0  0  0  0  0  0
    8.6331    0.5310   -0.8844 H   0  0  0  0  0  0  0  0  0  0  0  0
    8.8291   -1.0136    1.8060 H   0  0  0  0  0  0  0  0  0  0  0  0
    7.8957    0.5173    1.5365 H   0  0  0  0  0  0  0  0  0  0  0  0
    5.2446   -2.5847   -0.6105 H   0  0  0  0  0  0  0  0  0  0  0  0
    3.0114   -1.8335   -1.2845 H   0  0  0  0  0  0  0  0  0  0  0  0
  1  2  2  0
  2  3  1  0
  3  4  1  0
  4  5  1  0
  5  6  1  0
  6  7  2  0
  7  8  1  0
  8  9  1  0
  9 10  2  0
 10 11  1  0
 11 12  2  0
 12 13  1  0
 13 14  2  0
  8 15  2  0
 15 16  1  0
  2 17  1  0
 17 18  1  0
 18 19  1  0
 19 20  1  0
 20 21  2  0
 21 22  1  0
 22 23  1  0
 23 24  1  0
 24 25  1  0
 22 26  2  0
 26 27  1  0
 16  5  2  0
 27 19  2  0
 14  9  1  0
 25 23  1  0
  3 28  1  0
  4 29  1  0
  4 30  1  0
  6 31  1  0
  7 32  1  0
 10 33  1  0
 11 34  1  0
 13 35  1  0
 14 36  1  0
 15 37  1  0
 16 38  1  0
 17 39  1  0
 18 40  1  0
 18 41  1  0
 20 42  1  0
 21 43  1  0
 23 44  1  0
 24 45  1  0
 24 46  1  0
 25 47  1  0
 25 48  1  0
 26 49  1  0
 27 50  1  0
M  END
$$$$
OCNT-2312612
     RDKit          3D

 50 53  0  0  0  0  0  0  0  0999 V2000
   -5.3573    1.3164    1.7320 C   0  0  0  0  0  0  0  0  0  0  0  0
   -5.3803   -0.1051    1.5894 O   0  0  0  0  0  0  0  0  0  0  0  0
   -5.9035   -0.4398    0.3646 C   0  0  0  0  0  0  0  0  0  0  0  0
   -7.2675   -0.7411    0.3105 C   0  0  0  0  0  0  0  0  0  0  0  0
   -7.8579   -1.0824   -0.9058 C   0  0  0  0  0  0  0  0  0  0  0  0
   -7.0859   -1.1280   -2.0657 C   0  0  0  0  0  0  0  0  0  0  0  0
   -5.7173   -0.8522   -2.0067 C   0  0  0  0  0  0  0  0  0  0  0  0
   -5.1064   -0.5260   -0.7868 C   0  0  0  0  0  0  0  0  0  0  0  0
   -3.6675   -0.2802   -0.7598 C   0  0  0  0  0  0  0  0  0  0  0  0
   -3.1363    0.7073   -1.4991 N   0  0  0  0  0  0  0  0  0  0  0  0
   -1.8256    0.6572   -1.2217 N   0  0  0  0  0  0  0  0  0  0  0  0
   -1.4806   -0.3451   -0.3581 C   0  0  0  0  0  0  0  0  0  0  0  0
   -0.1869   -0.5959    0.0585 N   0  0  0  0  0  0  0  0  0  0  0  0
    0.8855    0.1694   -0.3671 C   0  0  0  0  0  0  0  0  0  0  0  0
    0.7858    1.1130   -1.1504 O   0  0  0  0  0  0  0  0  0  0  0  0
    2.2300   -0.1897    0.1703 C   0  0  0  0  0  0  0  0  0  0  0  0
    3.3345    0.5867   -0.2229 C   0  0  0  0  0  0  0  0  0  0  0  0
    4.6260    0.2988    0.2457 C   0  0  0  0  0  0  0  0  0  0  0  0
    5.7498    1.1199   -0.1699 C   0  0  0  0  0  0  0  0  0  0  0  0
    7.0443    0.6717   -0.3413 C   0  0  0  0  0  0  0  0  0  0  0  0
    7.7723    1.7494   -0.7583 N   0  0  0  0  0  0  0  0  0  0  0  0
    9.1776    1.7758   -1.0847 C   0  0  0  0  0  0  0  0  0  0  0  0
    7.0478    2.8772   -0.8611 N   0  0  0  0  0  0  0  0  0  0  0  0
    5.8167    2.4911   -0.5150 C   0  0  0  0  0  0  0  0  0  0  0  0
    4.8033   -0.7813    1.1210 C   0  0  0  0  0  0  0  0  0  0  0  0
    3.7125   -1.5559    1.5196 C   0  0  0  0  0  0  0  0  0  0  0  0
    2.4385   -1.2570    1.0451 C   0  0  0  0  0  0  0  0  0  0  0  0
    1.4190   -2.0263    1.4554 F   0  0  0  0  0  0  0  0  0  0  0  0
   -2.6561   -0.9932   -0.0363 C   0  0  0  0  0  0  0  0  0  0  0  0
   -2.8207   -2.1825    0.8364 C   0  0  0  0  0  0  0  0  0  0  0  0
   -4.9538    1.5475    2.7238 H   0  0  0  0  0  0  0  0  0  0  0  0
   -4.7042    1.7886    0.9906 H   0  0  0  0  0  0  0  0  0  0  0  0
   -6.3681    1.7355    1.6722 H   0  0  0  0  0  0  0  0  0  0  0  0
   -7.8695   -0.6945    1.2134 H   0  0  0  0  0  0  0  0  0  0  0  0
   -8.9214   -1.3023   -0.9503 H   0  0  0  0  0  0  0  0  0  0  0  0
   -7.5463   -1.3764   -3.0184 H   0  0  0  0  0  0  0  0  0  0  0  0
   -5.1225   -0.8886   -2.9174 H   0  0  0  0  0  0  0  0  0  0  0  0
   -1.1909    1.3233   -1.6557 H   0  0  0  0  0  0  0  0  0  0  0  0
   -0.0432   -1.3593    0.7105 H   0  0  0  0  0  0  0  0  0  0  0  0
    3.1803    1.4163   -0.9127 H   0  0  0  0  0  0  0  0  0  0  0  0
    7.4988   -0.3019   -0.2209 H   0  0  0  0  0  0  0  0  0  0  0  0
    9.2925    2.1914   -2.0892 H   0  0  0  0  0  0  0  0  0  0  0  0
    9.5782    0.7591   -1.0541 H   0  0  0  0  0  0  0  0  0  0  0  0
    9.6874    2.4021   -0.3493 H   0  0  0  0  0  0  0  0  0  0  0  0
    5.0214    3.2256   -0.5240 H   0  0  0  0  0  0  0  0  0  0  0  0
    5.7891   -1.0220    1.5134 H   0  0  0  0  0  0  0  0  0  0  0  0
    3.8499   -2.3906    2.2010 H   0  0  0  0  0  0  0  0  0  0  0  0
   -2.6339   -3.0954    0.2602 H   0  0  0  0  0  0  0  0  0  0  0  0
   -3.8250   -2.2545    1.2612 H   0  0  0  0  0  0  0  0  0  0  0  0
   -2.1123   -2.1561    1.6717 H   0  0  0  0  0  0  0  0  0  0  0  0
  1  2  1  0
  2  3  1  0
  3  4  2  0
  4  5  1  0
  5  6  2  0
  6  7  1  0
  7  8  2  0
  8  9  1  0
  9 10  2  0
 10 11  1  0
 11 12  1  0
 12 13  1  0
 13 14  1  0
 14 15  2  0
 14 16  1  0
 16 17  1  0
 17 18  2  0
 18 19  1  0
 19 20  2  0
 20 21  1  0
 21 22  1  0
 21 23  1  0
 23 24  2  0
 18 25  1  0
 25 26  2  0
 26 27  1  0
 27 28  1  0
 12 29  2  0
 29 30  1  0
  8  3  1  0
 29  9  1  0
 27 16  2  0
 24 19  1  0
  1 31  1  0
  1 32  1  0
  1 33  1  0
  4 34  1  0
  5 35  1  0
  6 36  1  0
  7 37  1  0
 11 38  1  0
 13 39  1  0
 17 40  1  0
 20 41  1  0
 22 42  1  0
 22 43  1  0
 22 44  1  0
 24 45  1  0
 25 46  1  0
 26 47  1  0
 30 48  1  0
 30 49  1  0
 30 50  1  0
M  END
$$$$
OCNT-2312641
     RDKit          3D

 46 49  0  0  0  0  0  0  0  0999 V2000
    3.4368    1.9988    0.6201 O   0  0  0  0  0  0  0  0  0  0  0  0
    2.3049    1.6180    0.9227 C   0  0  0  0  0  0  0  0  0  0  0  0
    1.7508    2.1579    2.0539 N   0  0  0  0  0  0  0  0  0  0  0  0
    0.4089    1.9369    2.5329 C   0  0  0  0  0  0  0  0  0  0  0  0
   -0.6332    2.5099    1.5809 C   0  0  0  0  0  0  0  0  0  0  0  0
   -0.4692    2.0150    0.1420 C   0  0  0  0  0  0  0  0  0  0  0  0
    0.0578    0.6528    0.0807 N   0  0  0  0  0  0  0  0  0  0  0  0
   -0.7021   -0.4978   -0.1150 C   0  0  0  0  0  0  0  0  0  0  0  0
   -0.1735   -1.6019   -0.2707 O   0  0  0  0  0  0  0  0  0  0  0  0
   -2.2128   -0.3970   -0.1589 C   0  0  0  0  0  0  0  0  0  0  0  0
   -2.8073   -1.1974   -1.0705 C   0  0  0  0  0  0  0  0  0  0  0  0
   -4.2195   -1.1963   -1.1564 C   0  0  0  0  0  0  0  0  0  0  0  0
   -5.1626   -1.8354   -1.9296 C   0  0  0  0  0  0  0  0  0  0  0  0
   -6.4350   -1.3847   -1.4917 C   0  0  0  0  0  0  0  0  0  0  0  0
   -6.2278   -0.4862   -0.4647 C   0  0  0  0  0  0  0  0  0  0  0  0
   -4.8731   -0.3767   -0.2663 N   0  0  0  0  0  0  0  0  0  0  0  0
   -4.1957    0.4154    0.6602 C   0  0  0  0  0  0  0  0  0  0  0  0
   -2.8957    0.4269    0.7293 N   0  0  0  0  0  0  0  0  0  0  0  0
    1.5402    0.4888    0.1615 C   0  0  0  0  0  0  0  0  0  0  0  0
    2.1354    0.3056   -1.2577 C   0  0  0  0  0  0  0  0  0  0  0  0
    3.3251   -0.6288   -1.3081 C   0  0  0  0  0  0  0  0  0  0  0  0
    4.6298   -0.1280   -1.3984 C   0  0  0  0  0  0  0  0  0  0  0  0
    5.7218   -0.9968   -1.4412 C   0  0  0  0  0  0  0  0  0  0  0  0
    5.5209   -2.3748   -1.3953 C   0  0  0  0  0  0  0  0  0  0  0  0
    4.2278   -2.8851   -1.3046 C   0  0  0  0  0  0  0  0  0  0  0  0
    3.1354   -2.0173   -1.2608 C   0  0  0  0  0  0  0  0  0  0  0  0
    2.3250    2.8677    2.4935 H   0  0  0  0  0  0  0  0  0  0  0  0
    0.2634    0.8614    2.6827 H   0  0  0  0  0  0  0  0  0  0  0  0
    0.3265    2.4186    3.5127 H   0  0  0  0  0  0  0  0  0  0  0  0
   -0.5856    3.6058    1.5799 H   0  0  0  0  0  0  0  0  0  0  0  0
   -1.6241    2.2500    1.9659 H   0  0  0  0  0  0  0  0  0  0  0  0
   -1.4159    2.0959   -0.3996 H   0  0  0  0  0  0  0  0  0  0  0  0
    0.2256    2.6654   -0.4042 H   0  0  0  0  0  0  0  0  0  0  0  0
   -2.2316   -1.8430   -1.7280 H   0  0  0  0  0  0  0  0  0  0  0  0
   -4.9634   -2.5488   -2.7195 H   0  0  0  0  0  0  0  0  0  0  0  0
   -7.3984   -1.6866   -1.8836 H   0  0  0  0  0  0  0  0  0  0  0  0
   -6.9281    0.0783    0.1360 H   0  0  0  0  0  0  0  0  0  0  0  0
   -4.7937    1.0432    1.3398 H   0  0  0  0  0  0  0  0  0  0  0  0
    1.7177   -0.4205    0.7522 H   0  0  0  0  0  0  0  0  0  0  0  0
    1.3817   -0.0981   -1.9471 H   0  0  0  0  0  0  0  0  0  0  0  0
    2.4078    1.2789   -1.6869 H   0  0  0  0  0  0  0  0  0  0  0  0
    4.8060    0.9457   -1.4238 H   0  0  0  0  0  0  0  0  0  0  0  0
    6.7294   -0.5950   -1.5052 H   0  0  0  0  0  0  0  0  0  0  0  0
    6.3714   -3.0499   -1.4268 H   0  0  0  0  0  0  0  0  0  0  0  0
    4.0669   -3.9590   -1.2657 H   0  0  0  0  0  0  0  0  0  0  0  0
    2.1314   -2.4319   -1.1876 H   0  0  0  0  0  0  0  0  0  0  0  0
  1  2  2  0
  2  3  1  0
  3  4  1  0
  4  5  1  0
  5  6  1  0
  6  7  1  0
  7  8  1  0
  8  9  2  0
  8 10  1  0
 10 11  2  0
 11 12  1  0
 12 13  2  0
 13 14  1  0
 14 15  2  0
 15 16  1  0
 16 17  1  0
 17 18  2  0
  7 19  1  0
 19 20  1  0
 20 21  1  0
 21 22  2  0
 22 23  1  0
 23 24  2  0
 24 25  1  0
 25 26  2  0
 19  2  1  0
 26 21  1  0
 18 10  1  0
 16 12  1  0
  3 27  1  0
  4 28  1  0
  4 29  1  0
  5 30  1  0
  5 31  1  0
  6 32  1  0
  6 33  1  0
 11 34  1  0
 13 35  1  0
 14 36  1  0
 15 37  1  0
 17 38  1  0
 19 39  1  0
 20 40  1  0
 20 41  1  0
 22 42  1  0
 23 43  1  0
 24 44  1  0
 25 45  1  0
 26 46  1  0
M  END
$$$$
OCNT-2312650
     RDKit          3D

 44 46  0  0  0  0  0  0  0  0999 V2000
    1.3467    1.0642   -1.8776 O   0  0  0  0  0  0  0  0  0  0  0  0
    1.1155    0.7835   -0.7075 C   0  0  0  0  0  0  0  0  0  0  0  0
    0.0184    1.2489   -0.0106 N   0  0  0  0  0  0  0  0  0  0  0  0
   -0.9026    2.1803   -0.6280 C   0  0  0  0  0  0  0  0  0  0  0  0
   -2.2439    2.2352    0.1029 C   0  0  0  0  0  0  0  0  0  0  0  0
   -2.9886    0.8865    0.1787 C   0  0  0  0  0  0  0  0  0  0  0  0
   -3.2428    0.2768   -1.2140 C   0  0  0  0  0  0  0  0  0  0  0  0
   -4.3716   -0.7582   -1.2448 C   0  0  0  0  0  0  0  0  0  0  0  0
   -4.6510   -1.3448    0.1239 C   0  0  0  0  0  0  0  0  0  0  0  0
   -5.6354   -2.2729    0.0395 F   0  0  0  0  0  0  0  0  0  0  0  0
   -3.5437   -2.0032    0.5590 F   0  0  0  0  0  0  0  0  0  0  0  0
   -5.0391   -0.2867    1.1456 C   0  0  0  0  0  0  0  0  0  0  0  0
   -4.3070    1.0445    0.9479 C   0  0  0  0  0  0  0  0  0  0  0  0
    2.0638   -0.0724    0.0563 C   0  0  0  0  0  0  0  0  0  0  0  0
    1.6388   -0.8742    1.1209 C   0  0  0  0  0  0  0  0  0  0  0  0
    2.5630   -1.6623    1.8042 C   0  0  0  0  0  0  0  0  0  0  0  0
    3.9074   -1.6569    1.4210 C   0  0  0  0  0  0  0  0  0  0  0  0
    4.3512   -0.8735    0.3441 C   0  0  0  0  0  0  0  0  0  0  0  0
    5.7488   -0.8743   -0.0670 C   0  0  0  0  0  0  0  0  0  0  0  0
    6.4842   -0.2866   -1.0758 C   0  0  0  0  0  0  0  0  0  0  0  0
    7.8065   -0.6429   -0.9762 N   0  0  0  0  0  0  0  0  0  0  0  0
    7.8283   -1.4282    0.0754 C   0  0  0  0  0  0  0  0  0  0  0  0
    6.6261   -1.6183    0.6826 O   0  0  0  0  0  0  0  0  0  0  0  0
    3.4111   -0.0854   -0.3353 C   0  0  0  0  0  0  0  0  0  0  0  0
    0.0621    1.2319    0.9997 H   0  0  0  0  0  0  0  0  0  0  0  0
   -1.0384    1.9162   -1.6822 H   0  0  0  0  0  0  0  0  0  0  0  0
   -0.4276    3.1676   -0.6017 H   0  0  0  0  0  0  0  0  0  0  0  0
   -2.0739    2.6003    1.1242 H   0  0  0  0  0  0  0  0  0  0  0  0
   -2.8804    2.9789   -0.3929 H   0  0  0  0  0  0  0  0  0  0  0  0
   -2.3594    0.1884    0.7476 H   0  0  0  0  0  0  0  0  0  0  0  0
   -2.3176   -0.1988   -1.5630 H   0  0  0  0  0  0  0  0  0  0  0  0
   -3.4752    1.0629   -1.9433 H   0  0  0  0  0  0  0  0  0  0  0  0
   -4.1164   -1.5561   -1.9517 H   0  0  0  0  0  0  0  0  0  0  0  0
   -5.2878   -0.2940   -1.6309 H   0  0  0  0  0  0  0  0  0  0  0  0
   -6.1206   -0.1089    1.1166 H   0  0  0  0  0  0  0  0  0  0  0  0
   -4.8176   -0.6726    2.1480 H   0  0  0  0  0  0  0  0  0  0  0  0
   -4.9641    1.7301    0.3965 H   0  0  0  0  0  0  0  0  0  0  0  0
   -4.1327    1.5075    1.9266 H   0  0  0  0  0  0  0  0  0  0  0  0
    0.5920   -0.9195    1.4089 H   0  0  0  0  0  0  0  0  0  0  0  0
    2.2386   -2.2927    2.6290 H   0  0  0  0  0  0  0  0  0  0  0  0
    4.6074   -2.2852    1.9694 H   0  0  0  0  0  0  0  0  0  0  0  0
    6.1363    0.3681   -1.8628 H   0  0  0  0  0  0  0  0  0  0  0  0
    8.6768   -1.9356    0.5122 H   0  0  0  0  0  0  0  0  0  0  0  0
    3.7143    0.5326   -1.1788 H   0  0  0  0  0  0  0  0  0  0  0  0
  1  2  2  0
  2  3  1  0
  3  4  1  0
  4  5  1  0
  5  6  1  0
  6  7  1  0
  7  8  1  0
  8  9  1  0
  9 10  1  0
  9 11  1  0
  9 12  1  0
 12 13  1  0
  2 14  1  0
 14 15  1  0
 15 16  2  0
 16 17  1  0
 17 18  2  0
 18 19  1  0
 19 20  2  0
 20 21  1  0
 21 22  2  0
 22 23  1  0
 18 24  1  0
 13  6  1  0
 24 14  2  0
 23 19  1  0
  3 25  1  0
  4 26  1  0
  4 27  1  0
  5 28  1  0
  5 29  1  0
  6 30  1  0
  7 31  1  0
  7 32  1  0
  8 33  1  0
  8 34  1  0
 12 35  1  0
 12 36  1  0
 13 37  1  0
 13 38  1  0
 15 39  1  0
 16 40  1  0
 17 41  1  0
 20 42  1  0
 22 43  1  0
 24 44  1  0
M  END
$$$$
OCNT-2312659
     RDKit          3D

 42 44  0  0  0  0  0  0  0  0999 V2000
    7.0669   -1.3171    0.4930 C   0  0  0  0  0  0  0  0  0  0  0  0
    6.3913   -0.1324    1.1575 C   0  0  0  0  0  0  0  0  0  0  0  0
    4.9656   -0.2346    1.0189 O   0  0  0  0  0  0  0  0  0  0  0  0
    4.4451    0.2847   -0.1199 C   0  0  0  0  0  0  0  0  0  0  0  0
    5.0724    0.8191   -1.0203 O   0  0  0  0  0  0  0  0  0  0  0  0
    2.9760    0.1192   -0.1442 C   0  0  0  0  0  0  0  0  0  0  0  0
    2.2480    0.5733   -1.2395 C   0  0  0  0  0  0  0  0  0  0  0  0
    0.8606    0.4132   -1.2555 C   0  0  0  0  0  0  0  0  0  0  0  0
    0.2092   -0.1909   -0.1774 C   0  0  0  0  0  0  0  0  0  0  0  0
   -1.1807   -0.3518   -0.1966 N   0  0  0  0  0  0  0  0  0  0  0  0
   -1.7034   -1.2748    0.8180 C   0  0  0  0  0  0  0  0  0  0  0  0
   -3.0817   -1.7764    0.3849 C   0  0  0  0  0  0  0  0  0  0  0  0
   -3.9951   -0.6673   -0.0708 C   0  0  0  0  0  0  0  0  0  0  0  0
   -5.3746   -0.9063   -0.1655 C   0  0  0  0  0  0  0  0  0  0  0  0
   -6.2338    0.0824   -0.6416 C   0  0  0  0  0  0  0  0  0  0  0  0
   -5.7225    1.3136   -1.0396 C   0  0  0  0  0  0  0  0  0  0  0  0
   -4.3511    1.5576   -0.9592 C   0  0  0  0  0  0  0  0  0  0  0  0
   -3.4690    0.5747   -0.4736 C   0  0  0  0  0  0  0  0  0  0  0  0
   -1.9753    0.8862   -0.3752 C   0  0  0  0  0  0  0  0  0  0  0  0
   -1.7301    1.8993    0.7562 C   0  0  0  0  0  0  0  0  0  0  0  0
    0.9186   -0.6448    0.8809 N   0  0  0  0  0  0  0  0  0  0  0  0
    2.2674   -0.4821    0.8817 C   0  0  0  0  0  0  0  0  0  0  0  0
    6.6846   -2.2575    0.9032 H   0  0  0  0  0  0  0  0  0  0  0  0
    8.1496   -1.2805    0.6431 H   0  0  0  0  0  0  0  0  0  0  0  0
    6.8635   -1.3329   -0.5824 H   0  0  0  0  0  0  0  0  0  0  0  0
    6.6091   -0.1383    2.2305 H   0  0  0  0  0  0  0  0  0  0  0  0
    6.7635    0.8181    0.7584 H   0  0  0  0  0  0  0  0  0  0  0  0
    2.7484    1.0408   -2.0842 H   0  0  0  0  0  0  0  0  0  0  0  0
    0.3010    0.7373   -2.1267 H   0  0  0  0  0  0  0  0  0  0  0  0
   -1.0614   -2.1580    0.9326 H   0  0  0  0  0  0  0  0  0  0  0  0
   -1.7654   -0.7837    1.7973 H   0  0  0  0  0  0  0  0  0  0  0  0
   -2.9651   -2.4772   -0.4518 H   0  0  0  0  0  0  0  0  0  0  0  0
   -3.5382   -2.3240    1.2179 H   0  0  0  0  0  0  0  0  0  0  0  0
   -5.7842   -1.8711    0.1256 H   0  0  0  0  0  0  0  0  0  0  0  0
   -7.3008   -0.1119   -0.7097 H   0  0  0  0  0  0  0  0  0  0  0  0
   -6.3908    2.0834   -1.4164 H   0  0  0  0  0  0  0  0  0  0  0  0
   -3.9710    2.5252   -1.2799 H   0  0  0  0  0  0  0  0  0  0  0  0
   -1.6983    1.3497   -1.3305 H   0  0  0  0  0  0  0  0  0  0  0  0
   -2.2834    2.8289    0.5820 H   0  0  0  0  0  0  0  0  0  0  0  0
   -0.6720    2.1676    0.8384 H   0  0  0  0  0  0  0  0  0  0  0  0
   -2.0505    1.5095    1.7286 H   0  0  0  0  0  0  0  0  0  0  0  0
    2.7576   -0.8701    1.7700 H   0  0  0  0  0  0  0  0  0  0  0  0
  1  2  1  0
  2  3  1  0
  3  4  1  0
  4  5  2  0
  4  6  1  0
  6  7  2  0
  7  8  1  0
  8  9  2  0
  9 10  1  0
 10 11  1  0
 11 12  1  0
 12 13  1  0
 13 14  2  0
 14 15  1  0
 15 16  2  0
 16 17  1  0
 17 18  2  0
 18 19  1  0
 19 20  1  0
  9 21  1  0
 21 22  2  0
 22  6  1  0
 19 10  1  0
 18 13  1  0
  1 23  1  0
  1 24  1  0
  1 25  1  0
  2 26  1  0
  2 27  1  0
  7 28  1  0
  8 29  1  0
 11 30  1  0
 11 31  1  0
 12 32  1  0
 12 33  1  0
 14 34  1  0
 15 35  1  0
 16 36  1  0
 17 37  1  0
 19 38  1  0
 20 39  1  0
 20 40  1  0
 20 41  1  0
 22 42  1  0
M  END
$$$$
OCNT-2312697
     RDKit          3D

 36 39  0  0  0  0  0  0  0  0999 V2000
    5.5001    0.9222    0.6693 C   0  0  0  0  0  0  0  0  0  0  0  0
    4.1087    0.4763    0.8646 C   0  0  0  0  0  0  0  0  0  0  0  0
    3.2726    1.0725    1.7231 N   0  0  0  0  0  0  0  0  0  0  0  0
    2.0905    0.3442    1.5716 O   0  0  0  0  0  0  0  0  0  0  0  0
    2.3455   -0.6214    0.6364 C   0  0  0  0  0  0  0  0  0  0  0  0
    1.2472   -1.5804    0.3194 C   0  0  0  0  0  0  0  0  0  0  0  0
    1.1718   -2.6910    1.3743 C   0  0  0  0  0  0  0  0  0  0  0  0
   -0.3016   -3.0683    1.3798 C   0  0  0  0  0  0  0  0  0  0  0  0
   -0.9976   -1.7289    1.1847 C   0  0  0  0  0  0  0  0  0  0  0  0
   -0.0847   -0.9697    0.3423 N   0  0  0  0  0  0  0  0  0  0  0  0
   -0.4324    0.0109   -0.5801 C   0  0  0  0  0  0  0  0  0  0  0  0
    0.3494    0.3403   -1.4728 O   0  0  0  0  0  0  0  0  0  0  0  0
   -1.7636    0.6873   -0.4918 C   0  0  0  0  0  0  0  0  0  0  0  0
   -2.4751    0.6111    0.6773 N   0  0  0  0  0  0  0  0  0  0  0  0
   -3.6649    1.2467    0.7814 C   0  0  0  0  0  0  0  0  0  0  0  0
   -4.2549    1.9927   -0.2206 C   0  0  0  0  0  0  0  0  0  0  0  0
   -3.5075    2.0537   -1.3849 C   0  0  0  0  0  0  0  0  0  0  0  0
   -2.2768    1.4335   -1.5644 C   0  0  0  0  0  0  0  0  0  0  0  0
   -1.8792    1.7687   -2.8914 C   0  0  0  0  0  0  0  0  0  0  0  0
   -2.8779    2.5532   -3.4181 C   0  0  0  0  0  0  0  0  0  0  0  0
   -3.8719    2.7285   -2.5104 O   0  0  0  0  0  0  0  0  0  0  0  0
    3.5850   -0.5970    0.1921 N   0  0  0  0  0  0  0  0  0  0  0  0
    6.1956    0.1759    1.0654 H   0  0  0  0  0  0  0  0  0  0  0  0
    5.6937    1.8731    1.1757 H   0  0  0  0  0  0  0  0  0  0  0  0
    5.7104    1.0570   -0.3963 H   0  0  0  0  0  0  0  0  0  0  0  0
    1.3994   -2.0089   -0.6788 H   0  0  0  0  0  0  0  0  0  0  0  0
    1.8224   -3.5378    1.1339 H   0  0  0  0  0  0  0  0  0  0  0  0
    1.4567   -2.3245    2.3693 H   0  0  0  0  0  0  0  0  0  0  0  0
   -0.5163   -3.7307    0.5324 H   0  0  0  0  0  0  0  0  0  0  0  0
   -0.6111   -3.5745    2.2982 H   0  0  0  0  0  0  0  0  0  0  0  0
   -1.0993   -1.1985    2.1374 H   0  0  0  0  0  0  0  0  0  0  0  0
   -1.9771   -1.8564    0.7163 H   0  0  0  0  0  0  0  0  0  0  0  0
   -4.1582    1.1356    1.7446 H   0  0  0  0  0  0  0  0  0  0  0  0
   -5.2070    2.4910   -0.1117 H   0  0  0  0  0  0  0  0  0  0  0  0
   -0.9685    1.4737   -3.3958 H   0  0  0  0  0  0  0  0  0  0  0  0
   -3.0234    3.0398   -4.3726 H   0  0  0  0  0  0  0  0  0  0  0  0
  1  2  1  0
  2  3  2  0
  3  4  1  0
  4  5  1  0
  5  6  1  0
  6  7  1  0
  7  8  1  0
  8  9  1  0
  9 10  1  0
 10 11  1  0
 11 12  2  0
 11 13  1  0
 13 14  1  0
 14 15  2  0
 15 16  1  0
 16 17  2  0
 17 18  1  0
 18 19  1  0
 19 20  2  0
 20 21  1  0
  5 22  2  0
 22  2  1  0
 10  6  1  0
 18 13  2  0
 21 17  1  0
  1 23  1  0
  1 24  1  0
  1 25  1  0
  6 26  1  0
  7 27  1  0
  7 28  1  0
  8 29  1  0
  8 30  1  0
  9 31  1  0
  9 32  1  0
 15 33  1  0
 16 34  1  0
 19 35  1  0
 20 36  1  0
M  END
$$$$
OCNT-2312704
     RDKit          3D

 40 41  0  0  0  0  0  0  0  0999 V2000
   -0.7397    0.5598   -1.5479 C   0  0  0  0  0  0  0  0  0  0  0  0
   -0.5861    0.2208   -0.0592 C   0  0  0  0  0  0  0  0  0  0  0  0
    0.8237   -0.3304    0.2426 C   0  0  0  0  0  0  0  0  0  0  0  0
    1.8157    0.7300    0.1610 N   0  0  0  0  0  0  0  0  0  0  0  0
    3.1239    0.3195    0.3656 C   0  0  0  0  0  0  0  0  0  0  0  0
    3.4043   -0.6874    1.2021 N   0  0  0  0  0  0  0  0  0  0  0  0
    4.6976   -1.0150    1.3606 C   0  0  0  0  0  0  0  0  0  0  0  0
    5.7226   -0.3792    0.7079 C   0  0  0  0  0  0  0  0  0  0  0  0
    5.3533    0.6432   -0.1462 C   0  0  0  0  0  0  0  0  0  0  0  0
    6.4356    1.3896   -0.9058 C   0  0  0  0  0  0  0  0  0  0  0  0
    5.9765    2.3914   -1.7069 F   0  0  0  0  0  0  0  0  0  0  0  0
    7.3511    1.9671   -0.0731 F   0  0  0  0  0  0  0  0  0  0  0  0
    7.1578    0.5640   -1.7199 F   0  0  0  0  0  0  0  0  0  0  0  0
    4.0517    0.9919   -0.3235 N   0  0  0  0  0  0  0  0  0  0  0  0
   -1.6359   -0.8249    0.3886 C   0  0  0  0  0  0  0  0  0  0  0  0
   -3.0352   -0.4391    0.1357 N   0  0  0  0  0  0  0  0  0  0  0  0
   -3.9370   -1.5853    0.3927 C   0  0  0  0  0  0  0  0  0  0  0  0
   -5.4105   -1.2009    0.1895 C   0  0  0  0  0  0  0  0  0  0  0  0
   -5.7824   -0.1133    1.0454 O   0  0  0  0  0  0  0  0  0  0  0  0
   -4.9530    1.0240    0.7749 C   0  0  0  0  0  0  0  0  0  0  0  0
   -3.4650    0.6949    0.9845 C   0  0  0  0  0  0  0  0  0  0  0  0
   -0.0017    1.3018   -1.8675 H   0  0  0  0  0  0  0  0  0  0  0  0
   -0.6132   -0.3320   -2.1711 H   0  0  0  0  0  0  0  0  0  0  0  0
   -1.7272    0.9826   -1.7589 H   0  0  0  0  0  0  0  0  0  0  0  0
   -0.7228    1.1427    0.5196 H   0  0  0  0  0  0  0  0  0  0  0  0
    1.0649   -1.1415   -0.4570 H   0  0  0  0  0  0  0  0  0  0  0  0
    0.8261   -0.7495    1.2570 H   0  0  0  0  0  0  0  0  0  0  0  0
    1.8272    1.2674   -0.6988 H   0  0  0  0  0  0  0  0  0  0  0  0
    4.8878   -1.8303    2.0526 H   0  0  0  0  0  0  0  0  0  0  0  0
    6.7561   -0.6655    0.8579 H   0  0  0  0  0  0  0  0  0  0  0  0
   -1.4271   -1.7550   -0.1579 H   0  0  0  0  0  0  0  0  0  0  0  0
   -1.4960   -1.0526    1.4540 H   0  0  0  0  0  0  0  0  0  0  0  0
   -3.8017   -1.9420    1.4223 H   0  0  0  0  0  0  0  0  0  0  0  0
   -3.6944   -2.4102   -0.2870 H   0  0  0  0  0  0  0  0  0  0  0  0
   -6.0526   -2.0517    0.4388 H   0  0  0  0  0  0  0  0  0  0  0  0
   -5.6109   -0.9273   -0.8535 H   0  0  0  0  0  0  0  0  0  0  0  0
   -5.1415    1.3745   -0.2471 H   0  0  0  0  0  0  0  0  0  0  0  0
   -5.2546    1.8226    1.4602 H   0  0  0  0  0  0  0  0  0  0  0  0
   -2.8862    1.5933    0.7480 H   0  0  0  0  0  0  0  0  0  0  0  0
   -3.3012    0.4517    2.0423 H   0  0  0  0  0  0  0  0  0  0  0  0
  1  2  1  0
  2  3  1  0
  3  4  1  0
  4  5  1  0
  5  6  2  0
  6  7  1  0
  7  8  2  0
  8  9  1  0
  9 10  1  0
 10 11  1  0
 10 12  1  0
 10 13  1  0
  9 14  2  0
  2 15  1  0
 15 16  1  0
 16 17  1  0
 17 18  1  0
 18 19  1  0
 19 20  1  0
 20 21  1  0
 14  5  1  0
 21 16  1  0
  1 22  1  0
  1 23  1  0
  1 24  1  0
  2 25  1  0
  3 26  1  0
  3 27  1  0
  4 28  1  0
  7 29  1  0
  8 30  1  0
 15 31  1  0
 15 32  1  0
 17 33  1  0
 17 34  1  0
 18 35  1  0
 18 36  1  0
 20 37  1  0
 20 38  1  0
 21 39  1  0
 21 40  1  0
M  END
$$$$
OCNT-2312712
     RDKit          3D

 47 49  0  0  0  0  0  0  0  0999 V2000
    7.1948   -1.8276   -2.4201 C   0  0  0  0  0  0  0  0  0  0  0  0
    7.3045   -0.8226   -1.2828 C   0  0  0  0  0  0  0  0  0  0  0  0
    5.9531   -0.3328   -0.8279 C   0  0  0  0  0  0  0  0  0  0  0  0
    5.1301   -1.1487   -0.0422 C   0  0  0  0  0  0  0  0  0  0  0  0
    3.8688   -0.7028    0.3663 C   0  0  0  0  0  0  0  0  0  0  0  0
    3.4057    0.5682   -0.0003 C   0  0  0  0  0  0  0  0  0  0  0  0
    2.0867    1.0219    0.4284 C   0  0  0  0  0  0  0  0  0  0  0  0
    1.5897    2.2444    0.1699 N   0  0  0  0  0  0  0  0  0  0  0  0
    0.3281    2.2250    0.7561 O   0  0  0  0  0  0  0  0  0  0  0  0
    0.1795    0.9911    1.3145 C   0  0  0  0  0  0  0  0  0  0  0  0
   -1.1263    0.7092    1.9827 C   0  0  0  0  0  0  0  0  0  0  0  0
   -0.9185    0.4613    3.4728 C   0  0  0  0  0  0  0  0  0  0  0  0
   -1.7062   -0.4902    1.3561 N   0  0  0  0  0  0  0  0  0  0  0  0
   -3.3655   -0.6193    1.2029 S   0  0  0  0  0  0  0  0  0  0  0  0
   -3.6114   -2.0403    1.0827 O   0  0  0  0  0  0  0  0  0  0  0  0
   -3.9506    0.1750    2.2606 O   0  0  0  0  0  0  0  0  0  0  0  0
   -3.6317    0.1710   -0.3930 C   0  0  0  0  0  0  0  0  0  0  0  0
   -5.1031    0.1674   -0.7098 C   0  0  0  0  0  0  0  0  0  0  0  0
   -5.9203    1.2368   -0.3124 C   0  0  0  0  0  0  0  0  0  0  0  0
   -7.2857    1.2294   -0.6014 C   0  0  0  0  0  0  0  0  0  0  0  0
   -7.8482    0.1546   -1.2872 C   0  0  0  0  0  0  0  0  0  0  0  0
   -7.0472   -0.9155   -1.6826 C   0  0  0  0  0  0  0  0  0  0  0  0
   -5.6814   -0.9113   -1.3949 C   0  0  0  0  0  0  0  0  0  0  0  0
    1.2257    0.2126    1.1431 N   0  0  0  0  0  0  0  0  0  0  0  0
    4.2345    1.3846   -0.7837 C   0  0  0  0  0  0  0  0  0  0  0  0
    5.4940    0.9367   -1.1964 C   0  0  0  0  0  0  0  0  0  0  0  0
    6.6408   -2.7189   -2.1097 H   0  0  0  0  0  0  0  0  0  0  0  0
    8.1914   -2.1458   -2.7416 H   0  0  0  0  0  0  0  0  0  0  0  0
    6.6786   -1.3949   -3.2832 H   0  0  0  0  0  0  0  0  0  0  0  0
    7.8287   -1.2751   -0.4330 H   0  0  0  0  0  0  0  0  0  0  0  0
    7.9216    0.0251   -1.6031 H   0  0  0  0  0  0  0  0  0  0  0  0
    5.4633   -2.1404    0.2566 H   0  0  0  0  0  0  0  0  0  0  0  0
    3.2492   -1.3616    0.9727 H   0  0  0  0  0  0  0  0  0  0  0  0
   -1.7870    1.5723    1.8383 H   0  0  0  0  0  0  0  0  0  0  0  0
   -1.8643    0.2349    3.9750 H   0  0  0  0  0  0  0  0  0  0  0  0
   -0.4829    1.3416    3.9580 H   0  0  0  0  0  0  0  0  0  0  0  0
   -0.2433   -0.3831    3.6524 H   0  0  0  0  0  0  0  0  0  0  0  0
   -1.2137   -1.3769    1.4817 H   0  0  0  0  0  0  0  0  0  0  0  0
   -3.2464    1.1942   -0.3346 H   0  0  0  0  0  0  0  0  0  0  0  0
   -3.0627   -0.3821   -1.1470 H   0  0  0  0  0  0  0  0  0  0  0  0
   -5.5039    2.0805    0.2355 H   0  0  0  0  0  0  0  0  0  0  0  0
   -7.9123    2.0600   -0.2835 H   0  0  0  0  0  0  0  0  0  0  0  0
   -8.9126    0.1471   -1.5065 H   0  0  0  0  0  0  0  0  0  0  0  0
   -7.4877   -1.7592   -2.2085 H   0  0  0  0  0  0  0  0  0  0  0  0
   -5.0760   -1.7634   -1.7009 H   0  0  0  0  0  0  0  0  0  0  0  0
    3.9078    2.3778   -1.0850 H   0  0  0  0  0  0  0  0  0  0  0  0
    6.1123    1.5898   -1.8093 H   0  0  0  0  0  0  0  0  0  0  0  0
  1  2  1  0
  2  3  1  0
  3  4  1  0
  4  5  2  0
  5  6  1  0
  6  7  1  0
  7  8  2  0
  8  9  1  0
  9 10  1  0
 10 11  1  0
 11 12  1  0
 11 13  1  0
 13 14  1  0
 14 15  2  0
 14 16  2  0
 14 17  1  0
 17 18  1  0
 18 19  2  0
 19 20  1  0
 20 21  2  0
 21 22  1  0
 22 23  2  0
 10 24  2  0
  6 25  2  0
 25 26  1  0
 26  3  2  0
 24  7  1  0
 23 18  1  0
  1 27  1  0
  1 28  1  0
  1 29  1  0
  2 30  1  0
  2 31  1  0
  4 32  1  0
  5 33  1  0
 11 34  1  0
 12 35  1  0
 12 36  1  0
 12 37  1  0
 13 38  1  0
 17 39  1  0
 17 40  1  0
 19 41  1  0
 20 42  1  0
 21 43  1  0
 22 44  1  0
 23 45  1  0
 25 46  1  0
 26 47  1  0
M  END
$$$$
OCNT-2312714
     RDKit          3D

 45 47  0  0  0  0  0  0  0  0999 V2000
    5.8764   -0.8453   -0.5900 C   0  0  0  0  0  0  0  0  0  0  0  0
    4.7410   -0.0183   -0.0632 C   0  0  0  0  0  0  0  0  0  0  0  0
    4.9875    1.1343    0.6826 C   0  0  0  0  0  0  0  0  0  0  0  0
    3.9250    1.8823    1.1882 C   0  0  0  0  0  0  0  0  0  0  0  0
    2.5944    1.4855    0.9717 C   0  0  0  0  0  0  0  0  0  0  0  0
    1.4924    2.3395    1.5406 C   0  0  0  0  0  0  0  0  0  0  0  0
    2.3365    0.3038    0.2438 C   0  0  0  0  0  0  0  0  0  0  0  0
    0.9939   -0.0835    0.0264 N   0  0  0  0  0  0  0  0  0  0  0  0
    0.5238   -1.2898   -0.4410 C   0  0  0  0  0  0  0  0  0  0  0  0
    1.2005   -2.3047   -0.5847 O   0  0  0  0  0  0  0  0  0  0  0  0
   -0.8466   -1.2958   -0.7122 N   0  0  0  0  0  0  0  0  0  0  0  0
   -1.4476   -2.5786   -1.0681 C   0  0  0  0  0  0  0  0  0  0  0  0
   -2.9710   -2.5046   -1.1828 C   0  0  0  0  0  0  0  0  0  0  0  0
   -3.5485   -1.5819   -0.1109 C   0  0  0  0  0  0  0  0  0  0  0  0
   -2.9842   -0.1478   -0.2189 C   0  0  0  0  0  0  0  0  0  0  0  0
   -3.9759    0.8456   -0.8209 C   0  0  0  0  0  0  0  0  0  0  0  0
   -3.5048    2.1816   -0.2730 C   0  0  0  0  0  0  0  0  0  0  0  0
   -2.7886    1.9083    0.9416 O   0  0  0  0  0  0  0  0  0  0  0  0
   -2.7983    0.4888    1.1577 C   0  0  0  0  0  0  0  0  0  0  0  0
   -1.6547   -0.1141   -1.0099 C   0  0  0  0  0  0  0  0  0  0  0  0
    3.4152   -0.4287   -0.2691 C   0  0  0  0  0  0  0  0  0  0  0  0
    6.1294   -1.6328    0.1264 H   0  0  0  0  0  0  0  0  0  0  0  0
    5.6110   -1.3067   -1.5471 H   0  0  0  0  0  0  0  0  0  0  0  0
    6.7641   -0.2278   -0.7632 H   0  0  0  0  0  0  0  0  0  0  0  0
    6.0075    1.4603    0.8718 H   0  0  0  0  0  0  0  0  0  0  0  0
    4.1449    2.7825    1.7582 H   0  0  0  0  0  0  0  0  0  0  0  0
    0.9093    1.7699    2.2714 H   0  0  0  0  0  0  0  0  0  0  0  0
    0.8344    2.6948    0.7408 H   0  0  0  0  0  0  0  0  0  0  0  0
    1.8887    3.2228    2.0529 H   0  0  0  0  0  0  0  0  0  0  0  0
    0.2964    0.4886    0.4714 H   0  0  0  0  0  0  0  0  0  0  0  0
   -1.1643   -3.3077   -0.2992 H   0  0  0  0  0  0  0  0  0  0  0  0
   -1.0147   -2.9175   -2.0166 H   0  0  0  0  0  0  0  0  0  0  0  0
   -3.3978   -3.5100   -1.0971 H   0  0  0  0  0  0  0  0  0  0  0  0
   -3.2521   -2.1274   -2.1740 H   0  0  0  0  0  0  0  0  0  0  0  0
   -4.6424   -1.5822   -0.1810 H   0  0  0  0  0  0  0  0  0  0  0  0
   -3.3039   -2.0071    0.8716 H   0  0  0  0  0  0  0  0  0  0  0  0
   -4.0206    0.8339   -1.9142 H   0  0  0  0  0  0  0  0  0  0  0  0
   -4.9908    0.6519   -0.4509 H   0  0  0  0  0  0  0  0  0  0  0  0
   -2.8174    2.6805   -0.9636 H   0  0  0  0  0  0  0  0  0  0  0  0
   -4.3371    2.8595   -0.0623 H   0  0  0  0  0  0  0  0  0  0  0  0
   -3.6353    0.2638    1.8295 H   0  0  0  0  0  0  0  0  0  0  0  0
   -1.8701    0.1927    1.6557 H   0  0  0  0  0  0  0  0  0  0  0  0
   -1.8483   -0.1423   -2.0909 H   0  0  0  0  0  0  0  0  0  0  0  0
   -1.1032    0.8151   -0.8457 H   0  0  0  0  0  0  0  0  0  0  0  0
    3.2456   -1.3316   -0.8494 H   0  0  0  0  0  0  0  0  0  0  0  0
  1  2  1  0
  2  3  1  0
  3  4  2  0
  4  5  1  0
  5  6  1  0
  5  7  2  0
  7  8  1  0
  8  9  1  0
  9 10  2  0
  9 11  1  0
 11 12  1  0
 12 13  1  0
 13 14  1  0
 14 15  1  0
 15 16  1  0
 16 17  1  0
 17 18  1  0
 18 19  1  0
 15 20  1  0
  7 21  1  0
 21  2  2  0
 20 11  1  0
 19 15  1  0
  1 22  1  0
  1 23  1  0
  1 24  1  0
  3 25  1  0
  4 26  1  0
  6 27  1  0
  6 28  1  0
  6 29  1  0
  8 30  1  0
 12 31  1  0
 12 32  1  0
 13 33  1  0
 13 34  1  0
 14 35  1  0
 14 36  1  0
 16 37  1  0
 16 38  1  0
 17 39  1  0
 17 40  1  0
 19 41  1  0
 19 42  1  0
 20 43  1  0
 20 44  1  0
 21 45  1  0
M  END
$$$$
OCNT-2312720
     RDKit          3D

 47 51  0  0  0  0  0  0  0  0999 V2000
   -3.9162   -0.7605    2.4661 C   0  0  0  0  0  0  0  0  0  0  0  0
   -2.7119   -0.6640    1.5704 C   0  0  0  0  0  0  0  0  0  0  0  0
   -1.4755   -1.0682    2.1098 C   0  0  0  0  0  0  0  0  0  0  0  0
   -0.3059   -1.0248    1.3497 C   0  0  0  0  0  0  0  0  0  0  0  0
   -0.3417   -0.5811    0.0261 C   0  0  0  0  0  0  0  0  0  0  0  0
    0.8820   -0.5256   -0.7661 C   0  0  0  0  0  0  0  0  0  0  0  0
    0.9460   -0.0683   -2.0283 N   0  0  0  0  0  0  0  0  0  0  0  0
    2.2915   -0.1935   -2.3598 O   0  0  0  0  0  0  0  0  0  0  0  0
    2.9170   -0.7171   -1.2669 C   0  0  0  0  0  0  0  0  0  0  0  0
    4.4467   -1.0004   -1.2224 C   0  0  0  0  0  0  0  0  0  0  0  0
    5.0901   -1.4518    0.0624 C   0  0  0  0  0  0  0  0  0  0  0  0
    5.3842   -0.0687   -0.4727 C   0  0  0  0  0  0  0  0  0  0  0  0
    4.9181    1.1380    0.2791 C   0  0  0  0  0  0  0  0  0  0  0  0
    5.7610    2.2363   -0.3449 C   0  0  0  0  0  0  0  0  0  0  0  0
    7.0189    1.6105   -0.6432 O   0  0  0  0  0  0  0  0  0  0  0  0
    6.7267    0.2636   -1.0551 C   0  0  0  0  0  0  0  0  0  0  0  0
    2.0988   -0.9396   -0.2646 N   0  0  0  0  0  0  0  0  0  0  0  0
   -1.5763   -0.1951   -0.5147 C   0  0  0  0  0  0  0  0  0  0  0  0
   -2.7726   -0.2388    0.2286 C   0  0  0  0  0  0  0  0  0  0  0  0
   -3.9221    0.1615   -0.4388 N   0  0  0  0  0  0  0  0  0  0  0  0
   -4.9869   -0.8100   -0.6801 C   0  0  0  0  0  0  0  0  0  0  0  0
   -6.1727    0.0706   -1.0626 C   0  0  0  0  0  0  0  0  0  0  0  0
   -5.9923    1.2797   -0.1568 C   0  0  0  0  0  0  0  0  0  0  0  0
   -4.4767    1.4821   -0.1241 C   0  0  0  0  0  0  0  0  0  0  0  0
   -3.6293   -0.6481    3.5172 H   0  0  0  0  0  0  0  0  0  0  0  0
   -4.3955   -1.7363    2.3474 H   0  0  0  0  0  0  0  0  0  0  0  0
   -4.6438    0.0271    2.2636 H   0  0  0  0  0  0  0  0  0  0  0  0
   -1.4167   -1.4183    3.1380 H   0  0  0  0  0  0  0  0  0  0  0  0
    0.6324   -1.3394    1.8023 H   0  0  0  0  0  0  0  0  0  0  0  0
    4.8162   -1.4547   -2.1375 H   0  0  0  0  0  0  0  0  0  0  0  0
    4.4685   -1.5415    0.9479 H   0  0  0  0  0  0  0  0  0  0  0  0
    5.8633   -2.2095    0.0008 H   0  0  0  0  0  0  0  0  0  0  0  0
    3.8506    1.3593    0.2041 H   0  0  0  0  0  0  0  0  0  0  0  0
    5.1780    1.0267    1.3388 H   0  0  0  0  0  0  0  0  0  0  0  0
    5.9147    3.0850    0.3261 H   0  0  0  0  0  0  0  0  0  0  0  0
    5.3236    2.5944   -1.2850 H   0  0  0  0  0  0  0  0  0  0  0  0
    7.5215   -0.3899   -0.6845 H   0  0  0  0  0  0  0  0  0  0  0  0
    6.7150    0.2326   -2.1504 H   0  0  0  0  0  0  0  0  0  0  0  0
   -1.6308    0.1455   -1.5484 H   0  0  0  0  0  0  0  0  0  0  0  0
   -4.7244   -1.4980   -1.4900 H   0  0  0  0  0  0  0  0  0  0  0  0
   -5.2321   -1.3963    0.2102 H   0  0  0  0  0  0  0  0  0  0  0  0
   -6.0971    0.3751   -2.1148 H   0  0  0  0  0  0  0  0  0  0  0  0
   -7.1332   -0.4327   -0.9180 H   0  0  0  0  0  0  0  0  0  0  0  0
   -6.3625    1.0496    0.8486 H   0  0  0  0  0  0  0  0  0  0  0  0
   -6.5242    2.1644   -0.5191 H   0  0  0  0  0  0  0  0  0  0  0  0
   -4.1715    2.1866   -0.9055 H   0  0  0  0  0  0  0  0  0  0  0  0
   -4.1531    1.8834    0.8425 H   0  0  0  0  0  0  0  0  0  0  0  0
  1  2  1  0
  2  3  1  0
  3  4  2  0
  4  5  1  0
  5  6  1  0
  6  7  2  0
  7  8  1  0
  8  9  1  0
  9 10  1  0
 10 11  1  0
 11 12  1  0
 12 13  1  0
 13 14  1  0
 14 15  1  0
 15 16  1  0
  9 17  2  0
  5 18  2  0
 18 19  1  0
 19 20  1  0
 20 21  1  0
 21 22  1  0
 22 23  1  0
 23 24  1  0
 19  2  2  0
 24 20  1  0
 17  6  1  0
 12 10  1  0
 16 12  1  0
  1 25  1  0
  1 26  1  0
  1 27  1  0
  3 28  1  0
  4 29  1  0
 10 30  1  0
 11 31  1  0
 11 32  1  0
 13 33  1  0
 13 34  1  0
 14 35  1  0
 14 36  1  0
 16 37  1  0
 16 38  1  0
 18 39  1  0
 21 40  1  0
 21 41  1  0
 22 42  1  0
 22 43  1  0
 23 44  1  0
 23 45  1  0
 24 46  1  0
 24 47  1  0
M  END
$$$$
OCNT-2312722
     RDKit          3D

 56 60  0  0  0  0  0  0  0  0999 V2000
    1.4466   -2.0508    0.5184 C   0  0  0  0  0  0  0  0  0  0  0  0
    1.4667   -0.9835   -0.4470 N   0  0  0  0  0  0  0  0  0  0  0  0
    2.4122   -0.7812   -1.4280 C   0  0  0  0  0  0  0  0  0  0  0  0
    3.6595   -1.5948   -1.6046 C   0  0  0  0  0  0  0  0  0  0  0  0
    4.6458   -1.0182   -2.6213 C   0  0  0  0  0  0  0  0  0  0  0  0
    5.2581    0.2009   -2.1897 O   0  0  0  0  0  0  0  0  0  0  0  0
    5.6180    0.1563   -0.8711 C   0  0  0  0  0  0  0  0  0  0  0  0
    6.4791    1.1601   -0.4290 C   0  0  0  0  0  0  0  0  0  0  0  0
    6.9090    1.1754    0.8991 C   0  0  0  0  0  0  0  0  0  0  0  0
    6.4739    0.1891    1.7851 C   0  0  0  0  0  0  0  0  0  0  0  0
    5.5997   -0.8077    1.3455 C   0  0  0  0  0  0  0  0  0  0  0  0
    5.1613   -0.8160    0.0210 C   0  0  0  0  0  0  0  0  0  0  0  0
    4.2780   -1.8053   -0.3227 O   0  0  0  0  0  0  0  0  0  0  0  0
    1.9986    0.1981   -2.2075 N   0  0  0  0  0  0  0  0  0  0  0  0
    0.8040    0.6595   -1.7196 N   0  0  0  0  0  0  0  0  0  0  0  0
    0.5060   -0.0177   -0.6307 C   0  0  0  0  0  0  0  0  0  0  0  0
   -0.5907    0.1053    0.1744 N   0  0  0  0  0  0  0  0  0  0  0  0
   -0.3312    0.5984    1.5440 C   0  0  0  0  0  0  0  0  0  0  0  0
   -1.6112    0.4774    2.3789 C   0  0  0  0  0  0  0  0  0  0  0  0
   -2.7019    1.2041    1.7997 O   0  0  0  0  0  0  0  0  0  0  0  0
   -2.9954    0.8177    0.4273 C   0  0  0  0  0  0  0  0  0  0  0  0
   -3.6109   -0.6033    0.4281 C   0  0  0  0  0  0  0  0  0  0  0  0
   -4.4906   -0.9467   -0.7738 C   0  0  0  0  0  0  0  0  0  0  0  0
   -5.9553   -0.5672   -0.5558 C   0  0  0  0  0  0  0  0  0  0  0  0
   -6.2492    0.9282   -0.5911 C   0  0  0  0  0  0  0  0  0  0  0  0
   -5.4105    1.7785    0.3614 C   0  0  0  0  0  0  0  0  0  0  0  0
   -3.9576    1.9088   -0.0999 C   0  0  0  0  0  0  0  0  0  0  0  0
   -1.6982    0.8817   -0.4428 C   0  0  0  0  0  0  0  0  0  0  0  0
    2.0490   -1.7479    1.3775 H   0  0  0  0  0  0  0  0  0  0  0  0
    1.8528   -2.9584    0.0662 H   0  0  0  0  0  0  0  0  0  0  0  0
    0.4188   -2.2519    0.8305 H   0  0  0  0  0  0  0  0  0  0  0  0
    3.3503   -2.5839   -1.9653 H   0  0  0  0  0  0  0  0  0  0  0  0
    5.4515   -1.7398   -2.8097 H   0  0  0  0  0  0  0  0  0  0  0  0
    4.1550   -0.8222   -3.5811 H   0  0  0  0  0  0  0  0  0  0  0  0
    6.8175    1.9269   -1.1220 H   0  0  0  0  0  0  0  0  0  0  0  0
    7.5823    1.9568    1.2418 H   0  0  0  0  0  0  0  0  0  0  0  0
    6.8124    0.2025    2.8183 H   0  0  0  0  0  0  0  0  0  0  0  0
    5.2550   -1.5680    2.0398 H   0  0  0  0  0  0  0  0  0  0  0  0
   -0.0158    1.6496    1.5021 H   0  0  0  0  0  0  0  0  0  0  0  0
    0.4638    0.0276    2.0339 H   0  0  0  0  0  0  0  0  0  0  0  0
   -1.4369    0.8949    3.3758 H   0  0  0  0  0  0  0  0  0  0  0  0
   -1.8993   -0.5708    2.5142 H   0  0  0  0  0  0  0  0  0  0  0  0
   -4.1757   -0.7643    1.3567 H   0  0  0  0  0  0  0  0  0  0  0  0
   -2.8023   -1.3461    0.4708 H   0  0  0  0  0  0  0  0  0  0  0  0
   -4.4569   -2.0354   -0.9103 H   0  0  0  0  0  0  0  0  0  0  0  0
   -4.1035   -0.5073   -1.6989 H   0  0  0  0  0  0  0  0  0  0  0  0
   -6.5575   -1.0488   -1.3363 H   0  0  0  0  0  0  0  0  0  0  0  0
   -6.3052   -0.9823    0.3973 H   0  0  0  0  0  0  0  0  0  0  0  0
   -6.1244    1.2959   -1.6173 H   0  0  0  0  0  0  0  0  0  0  0  0
   -7.3102    1.0741   -0.3475 H   0  0  0  0  0  0  0  0  0  0  0  0
   -5.4754    1.4029    1.3886 H   0  0  0  0  0  0  0  0  0  0  0  0
   -5.8509    2.7835    0.3708 H   0  0  0  0  0  0  0  0  0  0  0  0
   -3.9277    1.9525   -1.1964 H   0  0  0  0  0  0  0  0  0  0  0  0
   -3.5899    2.8836    0.2511 H   0  0  0  0  0  0  0  0  0  0  0  0
   -1.9132    0.4996   -1.4493 H   0  0  0  0  0  0  0  0  0  0  0  0
   -1.3775    1.9292   -0.5423 H   0  0  0  0  0  0  0  0  0  0  0  0
  1  2  1  0
  2  3  1  0
  3  4  1  0
  4  5  1  0
  5  6  1  0
  6  7  1  0
  7  8  2  0
  8  9  1  0
  9 10  2  0
 10 11  1  0
 11 12  2  0
 12 13  1  0
  3 14  2  0
 14 15  1  0
 15 16  2  0
 16 17  1  0
 17 18  1  0
 18 19  1  0
 19 20  1  0
 20 21  1  0
 21 22  1  0
 22 23  1  0
 23 24  1  0
 24 25  1  0
 25 26  1  0
 26 27  1  0
 21 28  1  0
 16  2  1  0
 28 17  1  0
 13  4  1  0
 27 21  1  0
 12  7  1  0
  1 29  1  0
  1 30  1  0
  1 31  1  0
  4 32  1  0
  5 33  1  0
  5 34  1  0
  8 35  1  0
  9 36  1  0
 10 37  1  0
 11 38  1  0
 18 39  1  0
 18 40  1  0
 19 41  1  0
 19 42  1  0
 22 43  1  0
 22 44  1  0
 23 45  1  0
 23 46  1  0
 24 47  1  0
 24 48  1  0
 25 49  1  0
 25 50  1  0
 26 51  1  0
 26 52  1  0
 27 53  1  0
 27 54  1  0
 28 55  1  0
 28 56  1  0
M  END
$$$$
OCNT-2312730
     RDKit          3D

 45 47  0  0  0  0  0  0  0  0999 V2000
   -4.4199    2.1727    2.5329 C   0  0  0  0  0  0  0  0  0  0  0  0
   -3.2433    2.1066    1.5656 C   0  0  0  0  0  0  0  0  0  0  0  0
   -3.3685    1.0165    0.5866 N   0  0  0  0  0  0  0  0  0  0  0  0
   -3.2348   -0.3198    1.2169 C   0  0  0  0  0  0  0  0  0  0  0  0
   -3.2908   -1.4775    0.1888 C   0  0  0  0  0  0  0  0  0  0  0  0
   -2.2496   -1.3163   -0.8527 N   0  0  0  0  0  0  0  0  0  0  0  0
   -1.0051   -1.8989   -0.5919 C   0  0  0  0  0  0  0  0  0  0  0  0
   -0.9309   -3.2562   -0.2370 C   0  0  0  0  0  0  0  0  0  0  0  0
    0.2878   -3.8877    0.0197 C   0  0  0  0  0  0  0  0  0  0  0  0
    1.4750   -3.1710   -0.0840 C   0  0  0  0  0  0  0  0  0  0  0  0
    1.4499   -1.8256   -0.4546 C   0  0  0  0  0  0  0  0  0  0  0  0
    2.6895   -1.1662   -0.5470 N   0  0  0  0  0  0  0  0  0  0  0  0
    2.9439    0.1519   -0.8698 C   0  0  0  0  0  0  0  0  0  0  0  0
    2.1221    1.0207   -1.1359 O   0  0  0  0  0  0  0  0  0  0  0  0
    4.3796    0.4270   -0.8570 C   0  0  0  0  0  0  0  0  0  0  0  0
    5.0042    1.6263   -1.1336 C   0  0  0  0  0  0  0  0  0  0  0  0
    4.5402    2.9725   -1.5135 C   0  0  0  0  0  0  0  0  0  0  0  0
    6.3529    1.4365   -1.0047 O   0  0  0  0  0  0  0  0  0  0  0  0
    6.4724    0.1273   -0.6556 C   0  0  0  0  0  0  0  0  0  0  0  0
    5.3400   -0.5313   -0.5493 N   0  0  0  0  0  0  0  0  0  0  0  0
    0.2163   -1.2116   -0.7132 C   0  0  0  0  0  0  0  0  0  0  0  0
   -2.3428    0.0104   -1.4990 C   0  0  0  0  0  0  0  0  0  0  0  0
   -2.3245    1.1591   -0.4614 C   0  0  0  0  0  0  0  0  0  0  0  0
   -4.4377    1.3169    3.2142 H   0  0  0  0  0  0  0  0  0  0  0  0
   -5.3728    2.2091    1.9944 H   0  0  0  0  0  0  0  0  0  0  0  0
   -4.3473    3.0774    3.1457 H   0  0  0  0  0  0  0  0  0  0  0  0
   -2.3051    2.0302    2.1295 H   0  0  0  0  0  0  0  0  0  0  0  0
   -3.2169    3.0645    1.0307 H   0  0  0  0  0  0  0  0  0  0  0  0
   -2.2935   -0.3824    1.7789 H   0  0  0  0  0  0  0  0  0  0  0  0
   -4.0542   -0.4789    1.9260 H   0  0  0  0  0  0  0  0  0  0  0  0
   -3.2258   -2.4335    0.7186 H   0  0  0  0  0  0  0  0  0  0  0  0
   -4.2720   -1.4724   -0.3039 H   0  0  0  0  0  0  0  0  0  0  0  0
   -1.8368   -3.8558   -0.1912 H   0  0  0  0  0  0  0  0  0  0  0  0
    0.3058   -4.9405    0.2876 H   0  0  0  0  0  0  0  0  0  0  0  0
    2.4139   -3.6790    0.1182 H   0  0  0  0  0  0  0  0  0  0  0  0
    3.5256   -1.7110   -0.3512 H   0  0  0  0  0  0  0  0  0  0  0  0
    3.9812    2.9345   -2.4534 H   0  0  0  0  0  0  0  0  0  0  0  0
    5.3814    3.6597   -1.6483 H   0  0  0  0  0  0  0  0  0  0  0  0
    3.8872    3.3857   -0.7387 H   0  0  0  0  0  0  0  0  0  0  0  0
    7.4774   -0.2403   -0.5009 H   0  0  0  0  0  0  0  0  0  0  0  0
    0.2055   -0.1705   -1.0050 H   0  0  0  0  0  0  0  0  0  0  0  0
   -3.2947    0.0502   -2.0455 H   0  0  0  0  0  0  0  0  0  0  0  0
   -1.5664    0.1527   -2.2594 H   0  0  0  0  0  0  0  0  0  0  0  0
   -1.3344    1.2176    0.0073 H   0  0  0  0  0  0  0  0  0  0  0  0
   -2.4839    2.1005   -1.0012 H   0  0  0  0  0  0  0  0  0  0  0  0
  1  2  1  0
  2  3  1  0
  3  4  1  0
  4  5  1  0
  5  6  1  0
  6  7  1  0
  7  8  2  0
  8  9  1  0
  9 10  2  0
 10 11  1  0
 11 12  1  0
 12 13  1  0
 13 14  2  0
 13 15  1  0
 15 16  2  0
 16 17  1  0
 16 18  1  0
 18 19  1  0
 19 20  2  0
 11 21  2  0
  6 22  1  0
 22 23  1  0
 23  3  1  0
 21  7  1  0
 20 15  1  0
  1 24  1  0
  1 25  1  0
  1 26  1  0
  2 27  1  0
  2 28  1  0
  4 29  1  0
  4 30  1  0
  5 31  1  0
  5 32  1  0
  8 33  1  0
  9 34  1  0
 10 35  1  0
 12 36  1  0
 17 37  1  0
 17 38  1  0
 17 39  1  0
 19 40  1  0
 21 41  1  0
 22 42  1  0
 22 43  1  0
 23 44  1  0
 23 45  1  0
M  END
$$$$
OCNT-2312735
     RDKit          3D

 40 43  0  0  0  0  0  0  0  0999 V2000
    1.5241   -2.5784    1.7078 C   0  0  0  0  0  0  0  0  0  0  0  0
    1.1133   -1.2087    1.2498 C   0  0  0  0  0  0  0  0  0  0  0  0
   -0.2334   -0.9386    0.9447 C   0  0  0  0  0  0  0  0  0  0  0  0
   -0.6560    0.3293    0.5258 C   0  0  0  0  0  0  0  0  0  0  0  0
   -1.9858    0.6437    0.1894 N   0  0  0  0  0  0  0  0  0  0  0  0
   -3.1320   -0.1471    0.0194 C   0  0  0  0  0  0  0  0  0  0  0  0
   -4.3997    0.4164   -0.1998 C   0  0  0  0  0  0  0  0  0  0  0  0
   -4.9993    1.6995   -0.3019 C   0  0  0  0  0  0  0  0  0  0  0  0
   -4.3693    3.0349   -0.1867 C   0  0  0  0  0  0  0  0  0  0  0  0
   -6.3161    1.6117   -0.5304 N   0  0  0  0  0  0  0  0  0  0  0  0
   -6.5974    0.2560   -0.5741 O   0  0  0  0  0  0  0  0  0  0  0  0
   -5.4555   -0.4588   -0.3763 C   0  0  0  0  0  0  0  0  0  0  0  0
   -5.4160   -1.7977   -0.3653 N   0  0  0  0  0  0  0  0  0  0  0  0
   -4.1748   -2.2390   -0.1532 C   0  0  0  0  0  0  0  0  0  0  0  0
   -3.0627   -1.5043    0.0334 N   0  0  0  0  0  0  0  0  0  0  0  0
    0.3164    1.3367    0.4079 C   0  0  0  0  0  0  0  0  0  0  0  0
    1.6596    1.0881    0.7004 C   0  0  0  0  0  0  0  0  0  0  0  0
    2.0571   -0.1877    1.0998 C   0  0  0  0  0  0  0  0  0  0  0  0
    3.3702   -0.4453    1.4221 O   0  0  0  0  0  0  0  0  0  0  0  0
    4.3068   -0.2493    0.4373 C   0  0  0  0  0  0  0  0  0  0  0  0
    4.1120   -0.5613   -0.9068 C   0  0  0  0  0  0  0  0  0  0  0  0
    5.1499   -0.3497   -1.8120 C   0  0  0  0  0  0  0  0  0  0  0  0
    6.3496    0.1558   -1.3349 C   0  0  0  0  0  0  0  0  0  0  0  0
    6.5770    0.4521   -0.0369 N   0  0  0  0  0  0  0  0  0  0  0  0
    5.5511    0.2327    0.8205 C   0  0  0  0  0  0  0  0  0  0  0  0
    2.1904   -3.0387    0.9714 H   0  0  0  0  0  0  0  0  0  0  0  0
    0.6584   -3.2366    1.8345 H   0  0  0  0  0  0  0  0  0  0  0  0
    2.0365   -2.5190    2.6734 H   0  0  0  0  0  0  0  0  0  0  0  0
   -0.9556   -1.7414    1.0601 H   0  0  0  0  0  0  0  0  0  0  0  0
   -2.1436    1.6319    0.0653 H   0  0  0  0  0  0  0  0  0  0  0  0
   -3.6372    3.1821   -0.9870 H   0  0  0  0  0  0  0  0  0  0  0  0
   -3.8578    3.1351    0.7758 H   0  0  0  0  0  0  0  0  0  0  0  0
   -5.1087    3.8398   -0.2563 H   0  0  0  0  0  0  0  0  0  0  0  0
   -4.0433   -3.3168   -0.1284 H   0  0  0  0  0  0  0  0  0  0  0  0
    0.0382    2.3361    0.0831 H   0  0  0  0  0  0  0  0  0  0  0  0
    2.3873    1.8903    0.6149 H   0  0  0  0  0  0  0  0  0  0  0  0
    3.1705   -0.9746   -1.2562 H   0  0  0  0  0  0  0  0  0  0  0  0
    5.0275   -0.5810   -2.8640 H   0  0  0  0  0  0  0  0  0  0  0  0
    7.1863    0.3360   -2.0040 H   0  0  0  0  0  0  0  0  0  0  0  0
    5.7616    0.4661    1.8600 H   0  0  0  0  0  0  0  0  0  0  0  0
  1  2  1  0
  2  3  1  0
  3  4  2  0
  4  5  1  0
  5  6  1  0
  6  7  2  0
  7  8  1  0
  8  9  1  0
  8 10  2  0
 10 11  1  0
 11 12  1  0
 12 13  2  0
 13 14  1  0
 14 15  2  0
  4 16  1  0
 16 17  2  0
 17 18  1  0
 18 19  1  0
 19 20  1  0
 20 21  1  0
 21 22  2  0
 22 23  1  0
 23 24  2  0
 24 25  1  0
 18  2  2  0
 25 20  2  0
 15  6  1  0
 12  7  1  0
  1 26  1  0
  1 27  1  0
  1 28  1  0
  3 29  1  0
  5 30  1  0
  9 31  1  0
  9 32  1  0
  9 33  1  0
 14 34  1  0
 16 35  1  0
 17 36  1  0
 21 37  1  0
 22 38  1  0
 23 39  1  0
 25 40  1  0
M  END
$$$$
OCNT-2312740
     RDKit          3D

 40 43  0  0  0  0  0  0  0  0999 V2000
    7.9761    0.3544   -0.6674 C   0  0  0  0  0  0  0  0  0  0  0  0
    6.5098    0.2916   -0.8259 C   0  0  0  0  0  0  0  0  0  0  0  0
    5.8037    0.5787   -1.8946 N   0  0  0  0  0  0  0  0  0  0  0  0
    4.4778    0.3849   -1.5869 N   0  0  0  0  0  0  0  0  0  0  0  0
    4.3856   -0.0246   -0.3347 C   0  0  0  0  0  0  0  0  0  0  0  0
    3.1569   -0.3423    0.3964 C   0  0  0  0  0  0  0  0  0  0  0  0
    3.1713   -0.9220    1.6733 C   0  0  0  0  0  0  0  0  0  0  0  0
    1.9773   -1.2097    2.3385 C   0  0  0  0  0  0  0  0  0  0  0  0
    0.7530   -0.9225    1.7352 C   0  0  0  0  0  0  0  0  0  0  0  0
    0.7048   -0.3462    0.4592 C   0  0  0  0  0  0  0  0  0  0  0  0
   -0.5827   -0.0511   -0.1627 C   0  0  0  0  0  0  0  0  0  0  0  0
   -0.7238    0.5124   -1.3726 N   0  0  0  0  0  0  0  0  0  0  0  0
   -2.1028    0.6004   -1.5428 O   0  0  0  0  0  0  0  0  0  0  0  0
   -2.6696    0.0819   -0.4148 C   0  0  0  0  0  0  0  0  0  0  0  0
   -4.1636    0.0305   -0.3617 C   0  0  0  0  0  0  0  0  0  0  0  0
   -4.6860   -1.1319   -1.2087 C   0  0  0  0  0  0  0  0  0  0  0  0
   -4.6887   -0.0300    1.0766 C   0  0  0  0  0  0  0  0  0  0  0  0
   -5.9448    0.8050    1.0149 C   0  0  0  0  0  0  0  0  0  0  0  0
   -5.5457    1.8832    0.0360 C   0  0  0  0  0  0  0  0  0  0  0  0
   -4.6899    1.2564   -0.9265 O   0  0  0  0  0  0  0  0  0  0  0  0
   -1.7806   -0.3404    0.4594 N   0  0  0  0  0  0  0  0  0  0  0  0
    1.9134   -0.0631   -0.1982 C   0  0  0  0  0  0  0  0  0  0  0  0
    5.6589   -0.0901    0.1747 N   0  0  0  0  0  0  0  0  0  0  0  0
    8.4527    0.6631   -1.6029 H   0  0  0  0  0  0  0  0  0  0  0  0
    8.2496    1.0764    0.1082 H   0  0  0  0  0  0  0  0  0  0  0  0
    8.3770   -0.6249   -0.3885 H   0  0  0  0  0  0  0  0  0  0  0  0
    4.1023   -1.1704    2.1735 H   0  0  0  0  0  0  0  0  0  0  0  0
    1.9986   -1.6612    3.3276 H   0  0  0  0  0  0  0  0  0  0  0  0
   -0.1677   -1.1538    2.2682 H   0  0  0  0  0  0  0  0  0  0  0  0
   -4.3257   -2.0969   -0.8358 H   0  0  0  0  0  0  0  0  0  0  0  0
   -5.7813   -1.1522   -1.2233 H   0  0  0  0  0  0  0  0  0  0  0  0
   -4.3670   -1.0314   -2.2531 H   0  0  0  0  0  0  0  0  0  0  0  0
   -4.8690   -1.0488    1.4343 H   0  0  0  0  0  0  0  0  0  0  0  0
   -3.9897    0.4427    1.7792 H   0  0  0  0  0  0  0  0  0  0  0  0
   -6.2542    1.2024    1.9850 H   0  0  0  0  0  0  0  0  0  0  0  0
   -6.7702    0.2101    0.6076 H   0  0  0  0  0  0  0  0  0  0  0  0
   -4.9747    2.6775    0.5290 H   0  0  0  0  0  0  0  0  0  0  0  0
   -6.4044    2.3321   -0.4706 H   0  0  0  0  0  0  0  0  0  0  0  0
    1.8932    0.3848   -1.1931 H   0  0  0  0  0  0  0  0  0  0  0  0
    5.9202   -0.3549    1.1105 H   0  0  0  0  0  0  0  0  0  0  0  0
  1  2  1  0
  2  3  2  0
  3  4  1  0
  4  5  2  0
  5  6  1  0
  6  7  2  0
  7  8  1  0
  8  9  2  0
  9 10  1  0
 10 11  1  0
 11 12  2  0
 12 13  1  0
 13 14  1  0
 14 15  1  0
 15 16  1  0
 15 17  1  0
 17 18  1  0
 18 19  1  0
 19 20  1  0
 14 21  2  0
 10 22  2  0
  5 23  1  0
 23  2  1  0
 22  6  1  0
 21 11  1  0
 20 15  1  0
  1 24  1  0
  1 25  1  0
  1 26  1  0
  7 27  1  0
  8 28  1  0
  9 29  1  0
 16 30  1  0
 16 31  1  0
 16 32  1  0
 17 33  1  0
 17 34  1  0
 18 35  1  0
 18 36  1  0
 19 37  1  0
 19 38  1  0
 22 39  1  0
 23 40  1  0
M  END
$$$$
OCNT-2312741
     RDKit          3D

 41 44  0  0  0  0  0  0  0  0999 V2000
    3.4566    3.4611   -0.5189 C   0  0  0  0  0  0  0  0  0  0  0  0
    2.5071    2.6981    0.2140 O   0  0  0  0  0  0  0  0  0  0  0  0
    2.4121    1.3689   -0.0962 C   0  0  0  0  0  0  0  0  0  0  0  0
    3.1777    0.6906   -1.0400 C   0  0  0  0  0  0  0  0  0  0  0  0
    2.9839   -0.6779   -1.2453 C   0  0  0  0  0  0  0  0  0  0  0  0
    2.0236   -1.3882   -0.5099 C   0  0  0  0  0  0  0  0  0  0  0  0
    1.8470   -2.8640   -0.7669 C   0  0  0  0  0  0  0  0  0  0  0  0
    1.2296   -3.5913    0.4240 C   0  0  0  0  0  0  0  0  0  0  0  0
   -0.0725   -2.9145    0.8303 C   0  0  0  0  0  0  0  0  0  0  0  0
    0.1685   -1.4498    1.2390 C   0  0  0  0  0  0  0  0  0  0  0  0
   -1.1008   -0.7343    1.3894 N   0  0  0  0  0  0  0  0  0  0  0  0
   -1.7898   -0.2786    0.2405 C   0  0  0  0  0  0  0  0  0  0  0  0
   -1.5782   -0.8842   -0.9508 N   0  0  0  0  0  0  0  0  0  0  0  0
   -2.2885   -0.4595   -2.0089 C   0  0  0  0  0  0  0  0  0  0  0  0
   -3.2296    0.5436   -1.9379 C   0  0  0  0  0  0  0  0  0  0  0  0
   -3.4626    1.1577   -0.7244 C   0  0  0  0  0  0  0  0  0  0  0  0
   -4.3841    2.1420   -0.6652 N   0  0  0  0  0  0  0  0  0  0  0  0
   -4.5725    2.7229    0.5390 C   0  0  0  0  0  0  0  0  0  0  0  0
   -3.8634    2.3431    1.6579 C   0  0  0  0  0  0  0  0  0  0  0  0
   -2.9362    1.3640    1.6209 N   0  0  0  0  0  0  0  0  0  0  0  0
   -2.7358    0.7522    0.4166 C   0  0  0  0  0  0  0  0  0  0  0  0
    1.2152   -0.7058    0.4184 C   0  0  0  0  0  0  0  0  0  0  0  0
    1.4445    0.6679    0.6288 C   0  0  0  0  0  0  0  0  0  0  0  0
    3.3999    4.4948   -0.1644 H   0  0  0  0  0  0  0  0  0  0  0  0
    4.4753    3.1028   -0.3376 H   0  0  0  0  0  0  0  0  0  0  0  0
    3.2217    3.4630   -1.5885 H   0  0  0  0  0  0  0  0  0  0  0  0
    3.9365    1.1917   -1.6306 H   0  0  0  0  0  0  0  0  0  0  0  0
    3.5937   -1.1925   -1.9850 H   0  0  0  0  0  0  0  0  0  0  0  0
    1.2108   -2.9881   -1.6519 H   0  0  0  0  0  0  0  0  0  0  0  0
    2.8178   -3.3230   -0.9891 H   0  0  0  0  0  0  0  0  0  0  0  0
    1.0404   -4.6378    0.1596 H   0  0  0  0  0  0  0  0  0  0  0  0
    1.9272   -3.5929    1.2711 H   0  0  0  0  0  0  0  0  0  0  0  0
   -0.5300   -3.4561    1.6678 H   0  0  0  0  0  0  0  0  0  0  0  0
   -0.7811   -3.0008   -0.0000 H   0  0  0  0  0  0  0  0  0  0  0  0
    0.6038   -1.5009    2.2480 H   0  0  0  0  0  0  0  0  0  0  0  0
   -1.0338    0.0535    2.0325 H   0  0  0  0  0  0  0  0  0  0  0  0
   -2.0757   -0.9665   -2.9455 H   0  0  0  0  0  0  0  0  0  0  0  0
   -3.7792    0.8494   -2.8206 H   0  0  0  0  0  0  0  0  0  0  0  0
   -5.3160    3.5107    0.5770 H   0  0  0  0  0  0  0  0  0  0  0  0
   -4.0204    2.8168    2.6199 H   0  0  0  0  0  0  0  0  0  0  0  0
    0.8573    1.2119    1.3647 H   0  0  0  0  0  0  0  0  0  0  0  0
  1  2  1  0
  2  3  1  0
  3  4  1  0
  4  5  2  0
  5  6  1  0
  6  7  1  0
  7  8  1  0
  8  9  1  0
  9 10  1  0
 10 11  1  0
 11 12  1  0
 12 13  1  0
 13 14  2  0
 14 15  1  0
 15 16  2  0
 16 17  1  0
 17 18  2  0
 18 19  1  0
 19 20  2  0
 20 21  1  0
 10 22  1  0
 22 23  1  0
 23  3  2  0
 22  6  2  0
 21 12  2  0
 21 16  1  0
  1 24  1  0
  1 25  1  0
  1 26  1  0
  4 27  1  0
  5 28  1  0
  7 29  1  0
  7 30  1  0
  8 31  1  0
  8 32  1  0
  9 33  1  0
  9 34  1  0
 10 35  1  0
 11 36  1  0
 14 37  1  0
 15 38  1  0
 18 39  1  0
 19 40  1  0
 23 41  1  0
M  END
$$$$
OCNT-2312749
     RDKit          3D

 40 42  0  0  0  0  0  0  0  0999 V2000
   -2.7847    1.0343   -1.7783 C   0  0  0  0  0  0  0  0  0  0  0  0
   -3.7123    0.7087   -0.6225 C   0  0  0  0  0  0  0  0  0  0  0  0
   -3.9165    1.8996    0.1694 O   0  0  0  0  0  0  0  0  0  0  0  0
   -4.2365    1.4966    1.5070 C   0  0  0  0  0  0  0  0  0  0  0  0
   -4.1773   -0.0200    1.5532 C   0  0  0  0  0  0  0  0  0  0  0  0
   -3.2625   -0.3792    0.3770 C   0  0  0  0  0  0  0  0  0  0  0  0
   -3.5724   -1.7990   -0.1106 C   0  0  0  0  0  0  0  0  0  0  0  0
   -1.8611   -0.2251    0.8271 N   0  0  0  0  0  0  0  0  0  0  0  0
   -0.7445   -0.6359    0.1159 C   0  0  0  0  0  0  0  0  0  0  0  0
   -0.8305   -1.3001   -0.9124 O   0  0  0  0  0  0  0  0  0  0  0  0
    0.5250   -0.2051    0.6785 C   0  0  0  0  0  0  0  0  0  0  0  0
    0.8801    0.4350    1.8524 C   0  0  0  0  0  0  0  0  0  0  0  0
    2.2901    0.5825    1.8301 C   0  0  0  0  0  0  0  0  0  0  0  0
    2.7337    0.0239    0.6486 C   0  0  0  0  0  0  0  0  0  0  0  0
    4.0396   -0.1556    0.0178 C   0  0  0  0  0  0  0  0  0  0  0  0
    4.1599   -0.7990   -1.2260 C   0  0  0  0  0  0  0  0  0  0  0  0
    5.4090   -0.9725   -1.8330 C   0  0  0  0  0  0  0  0  0  0  0  0
    6.5621   -0.5056   -1.2068 C   0  0  0  0  0  0  0  0  0  0  0  0
    6.4644    0.1343    0.0257 C   0  0  0  0  0  0  0  0  0  0  0  0
    5.2156    0.3042    0.6256 C   0  0  0  0  0  0  0  0  0  0  0  0
    5.1774    0.9280    1.8137 F   0  0  0  0  0  0  0  0  0  0  0  0
    1.6596   -0.4553   -0.0466 O   0  0  0  0  0  0  0  0  0  0  0  0
   -2.5837    0.1535   -2.3938 H   0  0  0  0  0  0  0  0  0  0  0  0
   -1.8387    1.4604   -1.4297 H   0  0  0  0  0  0  0  0  0  0  0  0
   -3.2400    1.7999   -2.4168 H   0  0  0  0  0  0  0  0  0  0  0  0
   -4.6950    0.4450   -1.0371 H   0  0  0  0  0  0  0  0  0  0  0  0
   -3.4989    1.9478    2.1785 H   0  0  0  0  0  0  0  0  0  0  0  0
   -5.2256    1.8784    1.7769 H   0  0  0  0  0  0  0  0  0  0  0  0
   -3.8296   -0.3898    2.5235 H   0  0  0  0  0  0  0  0  0  0  0  0
   -5.1900   -0.4134    1.3966 H   0  0  0  0  0  0  0  0  0  0  0  0
   -3.0993   -2.0192   -1.0716 H   0  0  0  0  0  0  0  0  0  0  0  0
   -4.6490   -1.9444   -0.2568 H   0  0  0  0  0  0  0  0  0  0  0  0
   -3.2315   -2.5463    0.6145 H   0  0  0  0  0  0  0  0  0  0  0  0
   -1.6961    0.5235    1.4844 H   0  0  0  0  0  0  0  0  0  0  0  0
    0.2155    0.7544    2.6418 H   0  0  0  0  0  0  0  0  0  0  0  0
    2.9081    1.0396    2.5907 H   0  0  0  0  0  0  0  0  0  0  0  0
    3.2752   -1.1747   -1.7386 H   0  0  0  0  0  0  0  0  0  0  0  0
    5.4757   -1.4738   -2.7959 H   0  0  0  0  0  0  0  0  0  0  0  0
    7.5322   -0.6402   -1.6780 H   0  0  0  0  0  0  0  0  0  0  0  0
    7.3525    0.5048    0.5282 H   0  0  0  0  0  0  0  0  0  0  0  0
  1  2  1  0
  2  3  1  0
  3  4  1  0
  4  5  1  0
  5  6  1  0
  6  7  1  0
  6  8  1  0
  8  9  1  0
  9 10  2  0
  9 11  1  0
 11 12  2  0
 12 13  1  0
 13 14  2  0
 14 15  1  0
 15 16  2  0
 16 17  1  0
 17 18  2  0
 18 19  1  0
 19 20  2  0
 20 21  1  0
 14 22  1  0
  6  2  1  0
 22 11  1  0
 20 15  1  0
  1 23  1  0
  1 24  1  0
  1 25  1  0
  2 26  1  0
  4 27  1  0
  4 28  1  0
  5 29  1  0
  5 30  1  0
  7 31  1  0
  7 32  1  0
  7 33  1  0
  8 34  1  0
 12 35  1  0
 13 36  1  0
 16 37  1  0
 17 38  1  0
 18 39  1  0
 19 40  1  0
M  END
$$$$
OCNT-2312755
     RDKit          3D

 43 45  0  0  0  0  0  0  0  0999 V2000
    4.3495   -1.5875    1.0945 C   0  0  0  0  0  0  0  0  0  0  0  0
    4.6663   -0.2843    0.4623 C   0  0  0  0  0  0  0  0  0  0  0  0
    5.9479    0.0864    0.3486 N   0  0  0  0  0  0  0  0  0  0  0  0
    5.9353    1.2859   -0.3319 O   0  0  0  0  0  0  0  0  0  0  0  0
    4.6541    1.6366   -0.6105 C   0  0  0  0  0  0  0  0  0  0  0  0
    4.4686    2.8997   -1.3522 C   0  0  0  0  0  0  0  0  0  0  0  0
    3.7903    0.6872   -0.1015 C   0  0  0  0  0  0  0  0  0  0  0  0
    2.3466    0.7425   -0.2075 C   0  0  0  0  0  0  0  0  0  0  0  0
    1.7769    1.3880   -1.0808 O   0  0  0  0  0  0  0  0  0  0  0  0
    1.6587    0.0507    0.7683 N   0  0  0  0  0  0  0  0  0  0  0  0
    0.2120    0.1668    0.8722 C   0  0  0  0  0  0  0  0  0  0  0  0
   -0.3467   -0.7175    1.9866 C   0  0  0  0  0  0  0  0  0  0  0  0
   -1.8218   -0.8334    1.6216 C   0  0  0  0  0  0  0  0  0  0  0  0
   -1.7883   -0.9398    0.1680 N   0  0  0  0  0  0  0  0  0  0  0  0
   -2.9313   -0.8980   -0.6083 C   0  0  0  0  0  0  0  0  0  0  0  0
   -3.1357   -2.0048   -1.4571 C   0  0  0  0  0  0  0  0  0  0  0  0
   -4.2469   -2.1075   -2.2943 C   0  0  0  0  0  0  0  0  0  0  0  0
   -5.1893   -1.0923   -2.3073 C   0  0  0  0  0  0  0  0  0  0  0  0
   -5.0048    0.0217   -1.4917 C   0  0  0  0  0  0  0  0  0  0  0  0
   -3.8744    0.1453   -0.6477 C   0  0  0  0  0  0  0  0  0  0  0  0
   -3.7645    1.4059    0.1717 C   0  0  0  0  0  0  0  0  0  0  0  0
   -2.4937    1.8714    0.3402 F   0  0  0  0  0  0  0  0  0  0  0  0
   -4.2772    1.2585    1.4282 F   0  0  0  0  0  0  0  0  0  0  0  0
   -4.4517    2.4572   -0.3694 F   0  0  0  0  0  0  0  0  0  0  0  0
   -0.5763   -0.3022   -0.3757 C   0  0  0  0  0  0  0  0  0  0  0  0
    5.2204   -2.2519    1.0984 H   0  0  0  0  0  0  0  0  0  0  0  0
    4.0327   -1.4415    2.1318 H   0  0  0  0  0  0  0  0  0  0  0  0
    3.5488   -2.1005    0.5526 H   0  0  0  0  0  0  0  0  0  0  0  0
    4.0911    2.6987   -2.3594 H   0  0  0  0  0  0  0  0  0  0  0  0
    5.4112    3.4481   -1.4468 H   0  0  0  0  0  0  0  0  0  0  0  0
    3.7535    3.5480   -0.8366 H   0  0  0  0  0  0  0  0  0  0  0  0
    2.1648   -0.1581    1.6174 H   0  0  0  0  0  0  0  0  0  0  0  0
   -0.0253    1.2184    1.0786 H   0  0  0  0  0  0  0  0  0  0  0  0
   -0.1938   -0.2887    2.9817 H   0  0  0  0  0  0  0  0  0  0  0  0
    0.1268   -1.7077    1.9704 H   0  0  0  0  0  0  0  0  0  0  0  0
   -2.2766   -1.7182    2.0783 H   0  0  0  0  0  0  0  0  0  0  0  0
   -2.3537    0.0540    1.9703 H   0  0  0  0  0  0  0  0  0  0  0  0
   -2.4081   -2.8150   -1.4519 H   0  0  0  0  0  0  0  0  0  0  0  0
   -4.3707   -2.9815   -2.9278 H   0  0  0  0  0  0  0  0  0  0  0  0
   -6.0614   -1.1617   -2.9521 H   0  0  0  0  0  0  0  0  0  0  0  0
   -5.7510    0.8159   -1.5210 H   0  0  0  0  0  0  0  0  0  0  0  0
   -0.8021    0.5481   -1.0297 H   0  0  0  0  0  0  0  0  0  0  0  0
   -0.0099   -1.0426   -0.9527 H   0  0  0  0  0  0  0  0  0  0  0  0
  1  2  1  0
  2  3  2  0
  3  4  1  0
  4  5  1  0
  5  6  1  0
  5  7  2  0
  7  8  1  0
  8  9  2  0
  8 10  1  0
 10 11  1  0
 11 12  1  0
 12 13  1  0
 13 14  1  0
 14 15  1  0
 15 16  2  0
 16 17  1  0
 17 18  2  0
 18 19  1  0
 19 20  2  0
 20 21  1  0
 21 22  1  0
 21 23  1  0
 21 24  1  0
 14 25  1  0
  7  2  1  0
 25 11  1  0
 20 15  1  0
  1 26  1  0
  1 27  1  0
  1 28  1  0
  6 29  1  0
  6 30  1  0
  6 31  1  0
 10 32  1  0
 11 33  1  0
 12 34  1  0
 12 35  1  0
 13 36  1  0
 13 37  1  0
 16 38  1  0
 17 39  1  0
 18 40  1  0
 19 41  1  0
 25 42  1  0
 25 43  1  0
M  END
$$$$
OCNT-2312760
     RDKit          3D

 36 39  0  0  0  0  0  0  0  0999 V2000
    4.3030    3.9538    0.7765 C   0  0  0  0  0  0  0  0  0  0  0  0
    3.8672    3.0444   -0.1634 C   0  0  0  0  0  0  0  0  0  0  0  0
    3.0545    2.0250    0.4158 C   0  0  0  0  0  0  0  0  0  0  0  0
    2.3840    0.8187   -0.3429 C   0  0  0  0  0  0  0  0  0  0  0  0
    1.6410   -0.0635    0.2953 N   0  0  0  0  0  0  0  0  0  0  0  0
    1.1762   -1.0327   -0.5908 C   0  0  0  0  0  0  0  0  0  0  0  0
    0.3112   -2.1480   -0.0725 C   0  0  0  0  0  0  0  0  0  0  0  0
   -0.9283   -1.6231    0.5285 N   0  0  0  0  0  0  0  0  0  0  0  0
   -1.6553   -2.6845    1.2465 C   0  0  0  0  0  0  0  0  0  0  0  0
   -2.9162   -2.9546    0.4514 C   0  0  0  0  0  0  0  0  0  0  0  0
   -3.2354   -1.5934   -0.1205 C   0  0  0  0  0  0  0  0  0  0  0  0
   -1.8555   -1.0393   -0.4778 C   0  0  1  0  0  0  0  0  0  0  0  0
   -1.8693    0.4528   -0.4711 C   0  0  0  0  0  0  0  0  0  0  0  0
   -2.6365    1.2654   -1.1723 N   0  0  0  0  0  0  0  0  0  0  0  0
   -2.2270    2.5039   -0.7668 C   0  0  0  0  0  0  0  0  0  0  0  0
   -1.2464    2.5167    0.1376 N   0  0  0  0  0  0  0  0  0  0  0  0
   -1.0304    1.2004    0.3080 N   0  0  0  0  0  0  0  0  0  0  0  0
    1.5773   -0.8473   -1.9005 C   0  0  0  0  0  0  0  0  0  0  0  0
    2.5517    0.5542   -2.0294 S   0  0  0  0  0  0  0  0  0  0  0  0
    2.9001    2.1990    1.7744 C   0  0  0  0  0  0  0  0  0  0  0  0
    3.7361    3.5786    2.3467 S   0  0  0  0  0  0  0  0  0  0  0  0
    4.9265    4.8233    0.6186 H   0  0  0  0  0  0  0  0  0  0  0  0
    4.1232    3.1191   -1.2128 H   0  0  0  0  0  0  0  0  0  0  0  0
    0.8996   -2.6678    0.6951 H   0  0  0  0  0  0  0  0  0  0  0  0
    0.0953   -2.8778   -0.8634 H   0  0  0  0  0  0  0  0  0  0  0  0
   -1.9223   -2.2977    2.2374 H   0  0  0  0  0  0  0  0  0  0  0  0
   -1.0769   -3.6014    1.4059 H   0  0  0  0  0  0  0  0  0  0  0  0
   -3.7284   -3.3467    1.0701 H   0  0  0  0  0  0  0  0  0  0  0  0
   -2.7148   -3.6693   -0.3558 H   0  0  0  0  0  0  0  0  0  0  0  0
   -3.7374   -0.9789    0.6388 H   0  0  0  0  0  0  0  0  0  0  0  0
   -3.8971   -1.6586   -0.9904 H   0  0  0  0  0  0  0  0  0  0  0  0
   -1.6064   -1.3888   -1.4892 H   0  0  0  0  0  0  0  0  0  0  0  0
   -2.6564    3.4231   -1.1433 H   0  0  0  0  0  0  0  0  0  0  0  0
   -0.2927    0.8634    0.9219 H   0  0  0  0  0  0  0  0  0  0  0  0
    1.3477   -1.4496   -2.7677 H   0  0  0  0  0  0  0  0  0  0  0  0
    2.3381    1.5810    2.4617 H   0  0  0  0  0  0  0  0  0  0  0  0
  1  2  2  0
  2  3  1  0
  3  4  1  0
  4  5  2  0
  5  6  1  0
  6  7  1  0
  7  8  1  0
  8  9  1  0
  9 10  1  0
 10 11  1  0
 11 12  1  0
 12 13  1  0
 13 14  2  0
 14 15  1  0
 15 16  2  0
 16 17  1  0
  6 18  2  0
 18 19  1  0
  3 20  2  0
 20 21  1  0
 21  1  1  0
 19  4  1  0
 12  8  1  0
 17 13  1  0
  1 22  1  0
  2 23  1  0
  7 24  1  0
  7 25  1  0
  9 26  1  0
  9 27  1  0
 10 28  1  0
 10 29  1  0
 11 30  1  0
 11 31  1  0
 12 32  1  6
 15 33  1  0
 17 34  1  0
 18 35  1  0
 20 36  1  0
M  END
$$$$
OCNT-2312771
     RDKit          3D

 48 50  0  0  0  0  0  0  0  0999 V2000
    4.5145   -2.2499    3.1281 C   0  0  0  0  0  0  0  0  0  0  0  0
    3.4255   -2.4332    2.2288 O   0  0  0  0  0  0  0  0  0  0  0  0
    3.3741   -1.4740    1.2375 C   0  0  0  0  0  0  0  0  0  0  0  0
    2.3716   -1.6155    0.3077 C   0  0  0  0  0  0  0  0  0  0  0  0
    2.2915   -0.6512   -0.6924 C   0  0  0  0  0  0  0  0  0  0  0  0
    1.2155   -0.7968   -1.6913 C   0  0  0  0  0  0  0  0  0  0  0  0
    1.5313   -1.1095   -2.8358 O   0  0  0  0  0  0  0  0  0  0  0  0
   -0.0992   -0.5884   -1.2820 N   0  0  0  0  0  0  0  0  0  0  0  0
   -0.4958   -0.0434    0.0210 C   0  0  0  0  0  0  0  0  0  0  0  0
   -1.7190    0.8595   -0.1014 C   0  0  0  0  0  0  0  0  0  0  0  0
   -2.9156    0.1293   -0.7283 C   0  0  0  0  0  0  0  0  0  0  0  0
   -3.8002   -0.3381    0.2978 O   0  0  0  0  0  0  0  0  0  0  0  0
   -4.7487    0.6335    0.7504 C   0  0  0  0  0  0  0  0  0  0  0  0
   -5.1251    0.2633    2.1798 C   0  0  0  0  0  0  0  0  0  0  0  0
   -5.9808    0.6079   -0.1482 C   0  0  0  0  0  0  0  0  0  0  0  0
   -2.4968   -1.0925   -1.5511 C   0  0  0  0  0  0  0  0  0  0  0  0
   -1.1639   -0.8629   -2.2431 C   0  0  0  0  0  0  0  0  0  0  0  0
    3.2173    0.4109   -0.7653 C   0  0  0  0  0  0  0  0  0  0  0  0
    3.2122    1.4169   -1.7629 C   0  0  0  0  0  0  0  0  0  0  0  0
    4.1578    2.4399   -1.7536 C   0  0  0  0  0  0  0  0  0  0  0  0
    5.1168    2.4735   -0.7513 C   0  0  0  0  0  0  0  0  0  0  0  0
    5.1254    1.4821    0.2332 C   0  0  0  0  0  0  0  0  0  0  0  0
    4.1960    0.4502    0.2467 C   0  0  0  0  0  0  0  0  0  0  0  0
    4.2686   -0.4645    1.2292 N   0  0  0  0  0  0  0  0  0  0  0  0
    4.4226   -1.3049    3.6747 H   0  0  0  0  0  0  0  0  0  0  0  0
    5.4759   -2.3118    2.6061 H   0  0  0  0  0  0  0  0  0  0  0  0
    4.4814   -3.0620    3.8608 H   0  0  0  0  0  0  0  0  0  0  0  0
    1.6790   -2.4473    0.3559 H   0  0  0  0  0  0  0  0  0  0  0  0
    0.3272    0.5266    0.4617 H   0  0  0  0  0  0  0  0  0  0  0  0
   -0.7074   -0.8919    0.6821 H   0  0  0  0  0  0  0  0  0  0  0  0
   -1.4530    1.7080   -0.7451 H   0  0  0  0  0  0  0  0  0  0  0  0
   -1.9690    1.2657    0.8846 H   0  0  0  0  0  0  0  0  0  0  0  0
   -3.4492    0.8266   -1.3858 H   0  0  0  0  0  0  0  0  0  0  0  0
   -4.3048    1.6359    0.7520 H   0  0  0  0  0  0  0  0  0  0  0  0
   -5.8523    0.9673    2.5956 H   0  0  0  0  0  0  0  0  0  0  0  0
   -5.5461   -0.7472    2.2279 H   0  0  0  0  0  0  0  0  0  0  0  0
   -4.2353    0.2633    2.8188 H   0  0  0  0  0  0  0  0  0  0  0  0
   -5.7257    0.8867   -1.1753 H   0  0  0  0  0  0  0  0  0  0  0  0
   -6.7481    1.2998    0.2128 H   0  0  0  0  0  0  0  0  0  0  0  0
   -6.4096   -0.3993   -0.1949 H   0  0  0  0  0  0  0  0  0  0  0  0
   -3.2757   -1.3191   -2.2889 H   0  0  0  0  0  0  0  0  0  0  0  0
   -2.4311   -1.9788   -0.9058 H   0  0  0  0  0  0  0  0  0  0  0  0
   -1.2226   -0.0045   -2.9230 H   0  0  0  0  0  0  0  0  0  0  0  0
   -0.8953   -1.7395   -2.8433 H   0  0  0  0  0  0  0  0  0  0  0  0
    2.4739    1.3993   -2.5632 H   0  0  0  0  0  0  0  0  0  0  0  0
    4.1464    3.2013   -2.5293 H   0  0  0  0  0  0  0  0  0  0  0  0
    5.8629    3.2638   -0.7324 H   0  0  0  0  0  0  0  0  0  0  0  0
    5.8833    1.5150    1.0129 H   0  0  0  0  0  0  0  0  0  0  0  0
  1  2  1  0
  2  3  1  0
  3  4  1  0
  4  5  2  0
  5  6  1  0
  6  7  2  0
  6  8  1  0
  8  9  1  0
  9 10  1  0
 10 11  1  0
 11 12  1  0
 12 13  1  0
 13 14  1  0
 13 15  1  0
 11 16  1  0
 16 17  1  0
  5 18  1  0
 18 19  2  0
 19 20  1  0
 20 21  2  0
 21 22  1  0
 22 23  2  0
 23 24  1  0
 24  3  2  0
 17  8  1  0
 23 18  1  0
  1 25  1  0
  1 26  1  0
  1 27  1  0
  4 28  1  0
  9 29  1  0
  9 30  1  0
 10 31  1  0
 10 32  1  0
 11 33  1  0
 13 34  1  0
 14 35  1  0
 14 36  1  0
 14 37  1  0
 15 38  1  0
 15 39  1  0
 15 40  1  0
 16 41  1  0
 16 42  1  0
 17 43  1  0
 17 44  1  0
 19 45  1  0
 20 46  1  0
 21 47  1  0
 22 48  1  0
M  END
$$$$
OCNT-2312787
     RDKit          3D

 39 41  0  0  0  0  0  0  0  0999 V2000
   -4.0489   -1.9420   -0.4641 C   0  0  0  0  0  0  0  0  0  0  0  0
   -3.2950   -0.7260   -0.0667 C   0  0  0  0  0  0  0  0  0  0  0  0
   -3.8671    0.4721   -0.2136 N   0  0  0  0  0  0  0  0  0  0  0  0
   -2.9460    1.3392    0.2321 N   0  0  0  0  0  0  0  0  0  0  0  0
   -3.2402    2.7533    0.2061 C   0  0  0  0  0  0  0  0  0  0  0  0
   -1.8032    0.7362    0.6901 C   0  0  0  0  0  0  0  0  0  0  0  0
   -0.6760    1.5073    1.2767 C   0  0  0  0  0  0  0  0  0  0  0  0
   -1.9779   -0.6223    0.4690 C   0  0  0  0  0  0  0  0  0  0  0  0
   -1.0192   -1.7349    0.7656 C   0  0  0  0  0  0  0  0  0  0  0  0
   -0.0339   -2.0915   -0.3624 C   0  0  0  0  0  0  0  0  0  0  0  0
   -0.7167   -2.5484   -1.6518 C   0  0  0  0  0  0  0  0  0  0  0  0
    0.9599   -1.0056   -0.6022 C   0  0  0  0  0  0  0  0  0  0  0  0
    2.1287   -0.8212   -0.0304 N   0  0  0  0  0  0  0  0  0  0  0  0
    2.5773    0.3240   -0.6471 C   0  0  0  0  0  0  0  0  0  0  0  0
    3.9577    0.9716   -0.2941 C   0  0  0  0  0  0  0  0  0  0  0  0
    4.8237    0.4511    0.6441 C   0  0  0  0  0  0  0  0  0  0  0  0
    6.0080    1.2356    0.7719 C   0  0  0  0  0  0  0  0  0  0  0  0
    5.9980    2.3235   -0.0737 C   0  0  0  0  0  0  0  0  0  0  0  0
    4.5675    2.3931   -1.0121 S   0  0  0  0  0  0  0  0  0  0  0  0
    1.7348    0.8317   -1.5572 N   0  0  0  0  0  0  0  0  0  0  0  0
    0.6562   -0.0512   -1.5293 O   0  0  0  0  0  0  0  0  0  0  0  0
   -3.8375   -2.1948   -1.5076 H   0  0  0  0  0  0  0  0  0  0  0  0
   -3.7795   -2.7984    0.1608 H   0  0  0  0  0  0  0  0  0  0  0  0
   -5.1285   -1.7877   -0.3630 H   0  0  0  0  0  0  0  0  0  0  0  0
   -3.4081    3.0858    1.2332 H   0  0  0  0  0  0  0  0  0  0  0  0
   -2.3925    3.2803   -0.2384 H   0  0  0  0  0  0  0  0  0  0  0  0
   -4.1355    2.9288   -0.3962 H   0  0  0  0  0  0  0  0  0  0  0  0
   -0.1909    2.1212    0.5115 H   0  0  0  0  0  0  0  0  0  0  0  0
   -1.0321    2.1667    2.0749 H   0  0  0  0  0  0  0  0  0  0  0  0
    0.0799    0.8475    1.7116 H   0  0  0  0  0  0  0  0  0  0  0  0
   -1.5927   -2.6342    1.0248 H   0  0  0  0  0  0  0  0  0  0  0  0
   -0.4556   -1.4828    1.6740 H   0  0  0  0  0  0  0  0  0  0  0  0
    0.5431   -2.9548   -0.0006 H   0  0  0  0  0  0  0  0  0  0  0  0
    0.0261   -2.8915   -2.3813 H   0  0  0  0  0  0  0  0  0  0  0  0
   -1.2881   -1.7444   -2.1272 H   0  0  0  0  0  0  0  0  0  0  0  0
   -1.3983   -3.3826   -1.4549 H   0  0  0  0  0  0  0  0  0  0  0  0
    4.6183   -0.4496    1.2108 H   0  0  0  0  0  0  0  0  0  0  0  0
    6.8244    1.0126    1.4481 H   0  0  0  0  0  0  0  0  0  0  0  0
    6.7599    3.0824   -0.1885 H   0  0  0  0  0  0  0  0  0  0  0  0
  1  2  1  0
  2  3  2  0
  3  4  1  0
  4  5  1  0
  4  6  1  0
  6  7  1  0
  6  8  2  0
  8  9  1  0
  9 10  1  0
 10 11  1  0
 10 12  1  0
 12 13  2  0
 13 14  1  0
 14 15  1  0
 15 16  2  0
 16 17  1  0
 17 18  2  0
 18 19  1  0
 14 20  2  0
 20 21  1  0
  8  2  1  0
 21 12  1  0
 19 15  1  0
  1 22  1  0
  1 23  1  0
  1 24  1  0
  5 25  1  0
  5 26  1  0
  5 27  1  0
  7 28  1  0
  7 29  1  0
  7 30  1  0
  9 31  1  0
  9 32  1  0
 10 33  1  0
 11 34  1  0
 11 35  1  0
 11 36  1  0
 16 37  1  0
 17 38  1  0
 18 39  1  0
M  END
$$$$
OCNT-2312795
     RDKit          3D

 42 44  0  0  0  0  0  0  0  0999 V2000
    2.3032    1.2808    1.2557 O   0  0  0  0  0  0  0  0  0  0  0  0
    1.8475    0.4138    0.5212 C   0  0  0  0  0  0  0  0  0  0  0  0
    2.5590   -0.5237   -0.1830 N   0  0  0  0  0  0  0  0  0  0  0  0
    3.9392   -0.7131   -0.3057 C   0  0  0  0  0  0  0  0  0  0  0  0
    4.1910   -2.0034   -0.6482 N   0  0  0  0  0  0  0  0  0  0  0  0
    5.4759   -2.3959   -0.7667 C   0  0  0  0  0  0  0  0  0  0  0  0
    6.5480   -1.5551   -0.5737 C   0  0  0  0  0  0  0  0  0  0  0  0
    6.2775   -0.2281   -0.2675 C   0  0  0  0  0  0  0  0  0  0  0  0
    4.9526    0.2376   -0.1550 C   0  0  0  0  0  0  0  0  0  0  0  0
    4.7179    1.7002    0.0993 C   0  0  0  0  0  0  0  0  0  0  0  0
    5.8133    2.4975   -0.3642 O   0  0  0  0  0  0  0  0  0  0  0  0
    0.3646    0.2871    0.4080 C   0  0  0  0  0  0  0  0  0  0  0  0
   -0.2527   -0.2098   -0.7409 C   0  0  0  0  0  0  0  0  0  0  0  0
   -1.6509   -0.3065   -0.8012 C   0  0  0  0  0  0  0  0  0  0  0  0
   -2.4766    0.0914    0.2636 C   0  0  0  0  0  0  0  0  0  0  0  0
   -3.8533   -0.0088    0.1939 N   0  0  0  0  0  0  0  0  0  0  0  0
   -4.7416    0.7552    1.0858 C   0  0  0  0  0  0  0  0  0  0  0  0
   -6.1091    0.9680    0.4138 C   0  0  0  0  0  0  0  0  0  0  0  0
   -6.7877   -0.2474    0.0681 O   0  0  0  0  0  0  0  0  0  0  0  0
   -5.8957   -1.3366   -0.2045 C   0  0  0  0  0  0  0  0  0  0  0  0
   -4.5280   -0.9042   -0.7605 C   0  0  0  0  0  0  0  0  0  0  0  0
   -1.8266    0.6034    1.3983 C   0  0  0  0  0  0  0  0  0  0  0  0
   -0.4307    0.7061    1.4744 C   0  0  0  0  0  0  0  0  0  0  0  0
    2.0729   -1.3667   -0.4605 H   0  0  0  0  0  0  0  0  0  0  0  0
    5.6215   -3.4404   -1.0255 H   0  0  0  0  0  0  0  0  0  0  0  0
    7.5665   -1.9112   -0.6736 H   0  0  0  0  0  0  0  0  0  0  0  0
    7.1101    0.4614   -0.1372 H   0  0  0  0  0  0  0  0  0  0  0  0
    4.6179    1.8810    1.1730 H   0  0  0  0  0  0  0  0  0  0  0  0
    3.8417    2.0532   -0.4506 H   0  0  0  0  0  0  0  0  0  0  0  0
    5.5768    3.4164   -0.1514 H   0  0  0  0  0  0  0  0  0  0  0  0
    0.3265   -0.5005   -1.6131 H   0  0  0  0  0  0  0  0  0  0  0  0
   -2.0871   -0.6758   -1.7259 H   0  0  0  0  0  0  0  0  0  0  0  0
   -4.8683    0.2002    2.0225 H   0  0  0  0  0  0  0  0  0  0  0  0
   -4.3229    1.7424    1.3125 H   0  0  0  0  0  0  0  0  0  0  0  0
   -6.7696    1.5354    1.0772 H   0  0  0  0  0  0  0  0  0  0  0  0
   -5.9913    1.5527   -0.5063 H   0  0  0  0  0  0  0  0  0  0  0  0
   -5.7646   -1.8972    0.7287 H   0  0  0  0  0  0  0  0  0  0  0  0
   -6.3970   -2.0013   -0.9153 H   0  0  0  0  0  0  0  0  0  0  0  0
   -3.9384   -1.8102   -0.9411 H   0  0  0  0  0  0  0  0  0  0  0  0
   -4.6620   -0.3739   -1.7105 H   0  0  0  0  0  0  0  0  0  0  0  0
   -2.3969    0.9184    2.2680 H   0  0  0  0  0  0  0  0  0  0  0  0
    0.0273    1.1077    2.3761 H   0  0  0  0  0  0  0  0  0  0  0  0
  1  2  2  0
  2  3  1  0
  3  4  1  0
  4  5  1  0
  5  6  2  0
  6  7  1  0
  7  8  2  0
  8  9  1  0
  9 10  1  0
 10 11  1  0
  2 12  1  0
 12 13  1  0
 13 14  2  0
 14 15  1  0
 15 16  1  0
 16 17  1  0
 17 18  1  0
 18 19  1  0
 19 20  1  0
 20 21  1  0
 15 22  2  0
 22 23  1  0
  9  4  2  0
 23 12  2  0
 21 16  1  0
  3 24  1  0
  6 25  1  0
  7 26  1  0
  8 27  1  0
 10 28  1  0
 10 29  1  0
 11 30  1  0
 13 31  1  0
 14 32  1  0
 17 33  1  0
 17 34  1  0
 18 35  1  0
 18 36  1  0
 20 37  1  0
 20 38  1  0
 21 39  1  0
 21 40  1  0
 22 41  1  0
 23 42  1  0
M  END
$$$$
OCNT-2312801
     RDKit          3D

 40 43  0  0  0  0  0  0  0  0999 V2000
   -4.5758    0.1921   -1.4220 C   0  0  0  0  0  0  0  0  0  0  0  0
   -3.5311    0.5138   -0.4805 N   0  0  0  0  0  0  0  0  0  0  0  0
   -2.2459    0.5234   -0.8931 N   0  0  0  0  0  0  0  0  0  0  0  0
   -1.5501    0.8625    0.2153 C   0  0  0  0  0  0  0  0  0  0  0  0
   -0.0851    0.9899    0.2037 C   0  0  0  0  0  0  0  0  0  0  0  0
    0.5672    1.2901    1.1991 O   0  0  0  0  0  0  0  0  0  0  0  0
    0.4619    0.7378   -1.0390 N   0  0  0  0  0  0  0  0  0  0  0  0
    1.8592    0.7850   -1.3120 C   0  0  2  0  0  0  0  0  0  0  0  0
    2.3969    0.2807   -2.6230 C   0  0  0  0  0  0  0  0  0  0  0  0
    2.6784   -0.4874   -1.3571 C   0  0  1  0  0  0  0  0  0  0  0  0
    4.0572   -0.5328   -0.7229 C   0  0  0  0  0  0  0  0  0  0  0  0
    4.3970   -1.6037    0.1291 C   0  0  0  0  0  0  0  0  0  0  0  0
    5.6532   -1.7005    0.7394 C   0  0  0  0  0  0  0  0  0  0  0  0
    6.6090   -0.7178    0.5118 C   0  0  0  0  0  0  0  0  0  0  0  0
    6.2948    0.3496   -0.3174 C   0  0  0  0  0  0  0  0  0  0  0  0
    7.2100    1.3034   -0.5395 F   0  0  0  0  0  0  0  0  0  0  0  0
    5.0447    0.4473   -0.9262 C   0  0  0  0  0  0  0  0  0  0  0  0
   -2.4143    1.0608    1.3229 C   0  0  0  0  0  0  0  0  0  0  0  0
   -3.6756    0.8132    0.8425 C   0  0  0  0  0  0  0  0  0  0  0  0
   -4.9914    0.8918    1.6534 C   0  0  0  0  0  0  0  0  0  0  0  0
   -5.0720    0.1981    2.9881 C   0  0  0  0  0  0  0  0  0  0  0  0
   -5.8237   -0.3532    1.8122 C   0  0  0  0  0  0  0  0  0  0  0  0
   -5.4952    0.7071   -1.1336 H   0  0  0  0  0  0  0  0  0  0  0  0
   -4.2734    0.5254   -2.4184 H   0  0  0  0  0  0  0  0  0  0  0  0
   -4.7226   -0.8910   -1.4085 H   0  0  0  0  0  0  0  0  0  0  0  0
   -0.2110    0.5148   -1.7680 H   0  0  0  0  0  0  0  0  0  0  0  0
    2.3333    1.6755   -0.9049 H   0  0  0  0  0  0  0  0  0  0  0  0
    3.1881    0.8467   -3.0989 H   0  0  0  0  0  0  0  0  0  0  0  0
    1.7065   -0.1626   -3.3314 H   0  0  0  0  0  0  0  0  0  0  0  0
    2.1074   -1.4116   -1.2593 H   0  0  0  0  0  0  0  0  0  0  0  0
    3.6616   -2.3827    0.3284 H   0  0  0  0  0  0  0  0  0  0  0  0
    5.8770   -2.5407    1.3923 H   0  0  0  0  0  0  0  0  0  0  0  0
    7.5878   -0.7722    0.9758 H   0  0  0  0  0  0  0  0  0  0  0  0
    4.8546    1.3097   -1.5577 H   0  0  0  0  0  0  0  0  0  0  0  0
   -2.1316    1.3384    2.3289 H   0  0  0  0  0  0  0  0  0  0  0  0
   -5.5239    1.8334    1.5562 H   0  0  0  0  0  0  0  0  0  0  0  0
   -4.2144   -0.3635    3.3435 H   0  0  0  0  0  0  0  0  0  0  0  0
   -5.6378    0.6831    3.7757 H   0  0  0  0  0  0  0  0  0  0  0  0
   -6.9026   -0.2468    1.8095 H   0  0  0  0  0  0  0  0  0  0  0  0
   -5.4684   -1.2847    1.3859 H   0  0  0  0  0  0  0  0  0  0  0  0
  1  2  1  0
  2  3  1  0
  3  4  2  0
  4  5  1  0
  5  6  2  0
  5  7  1  0
  7  8  1  0
  8  9  1  0
  9 10  1  0
 10 11  1  0
 11 12  2  0
 12 13  1  0
 13 14  2  0
 14 15  1  0
 15 16  1  0
 15 17  2  0
  4 18  1  0
 18 19  2  0
 19 20  1  0
 20 21  1  0
 21 22  1  0
 19  2  1  0
 22 20  1  0
 10  8  1  0
 17 11  1  0
  1 23  1  0
  1 24  1  0
  1 25  1  0
  7 26  1  0
  8 27  1  1
  9 28  1  0
  9 29  1  0
 10 30  1  6
 12 31  1  0
 13 32  1  0
 14 33  1  0
 17 34  1  0
 18 35  1  0
 20 36  1  0
 21 37  1  0
 21 38  1  0
 22 39  1  0
 22 40  1  0
M  END
$$$$
OCNT-2312817
     RDKit          3D

 37 39  0  0  0  0  0  0  0  0999 V2000
    4.6414    1.2005    1.9450 C   0  0  0  0  0  0  0  0  0  0  0  0
    3.4471    0.5904    1.4571 O   0  0  0  0  0  0  0  0  0  0  0  0
    3.6640   -0.3424    0.4892 C   0  0  0  0  0  0  0  0  0  0  0  0
    4.7477   -0.6633    0.0251 O   0  0  0  0  0  0  0  0  0  0  0  0
    2.3848   -0.9508    0.0096 C   0  0  0  0  0  0  0  0  0  0  0  0
    1.8674   -0.3295   -1.2807 C   0  0  0  0  0  0  0  0  0  0  0  0
    0.4588   -0.5832   -1.5704 N   0  0  0  0  0  0  0  0  0  0  0  0
   -0.4483    0.2353   -0.9267 N   0  0  0  0  0  0  0  0  0  0  0  0
   -1.7107    0.0352   -1.1426 C   0  0  0  0  0  0  0  0  0  0  0  0
   -2.7027    0.8827   -0.4449 C   0  0  0  0  0  0  0  0  0  0  0  0
   -3.7915    1.4373   -1.1166 C   0  0  0  0  0  0  0  0  0  0  0  0
   -3.9824    1.2087   -2.4243 F   0  0  0  0  0  0  0  0  0  0  0  0
   -4.7120    2.2471   -0.4490 C   0  0  0  0  0  0  0  0  0  0  0  0
   -4.5452    2.5171    0.9071 C   0  0  0  0  0  0  0  0  0  0  0  0
   -3.4557    1.9751    1.5890 C   0  0  0  0  0  0  0  0  0  0  0  0
   -2.5428    1.1641    0.9139 C   0  0  0  0  0  0  0  0  0  0  0  0
   -1.5340    0.6292    1.6179 F   0  0  0  0  0  0  0  0  0  0  0  0
   -2.2403   -1.0133   -2.0421 C   0  0  0  0  0  0  0  0  0  0  0  0
   -1.3460   -1.7789   -2.6710 C   0  0  0  0  0  0  0  0  0  0  0  0
    0.1028   -1.5864   -2.4611 C   0  0  0  0  0  0  0  0  0  0  0  0
    0.8864   -2.3143   -3.0651 O   0  0  0  0  0  0  0  0  0  0  0  0
    1.4429   -1.5450    1.0592 C   0  0  0  0  0  0  0  0  0  0  0  0
    2.2443   -2.4631    0.1897 C   0  0  0  0  0  0  0  0  0  0  0  0
    5.2919    0.4523    2.4100 H   0  0  0  0  0  0  0  0  0  0  0  0
    4.3606    1.9362    2.7055 H   0  0  0  0  0  0  0  0  0  0  0  0
    5.1652    1.7231    1.1371 H   0  0  0  0  0  0  0  0  0  0  0  0
    1.9936    0.7594   -1.2378 H   0  0  0  0  0  0  0  0  0  0  0  0
    2.4816   -0.6864   -2.1151 H   0  0  0  0  0  0  0  0  0  0  0  0
   -5.5519    2.6666   -0.9954 H   0  0  0  0  0  0  0  0  0  0  0  0
   -5.2588    3.1479    1.4317 H   0  0  0  0  0  0  0  0  0  0  0  0
   -3.3085    2.1766    2.6469 H   0  0  0  0  0  0  0  0  0  0  0  0
   -3.3043   -1.1507   -2.1768 H   0  0  0  0  0  0  0  0  0  0  0  0
   -1.6325   -2.5707   -3.3526 H   0  0  0  0  0  0  0  0  0  0  0  0
    1.7219   -1.4642    2.1034 H   0  0  0  0  0  0  0  0  0  0  0  0
    0.3717   -1.5016    0.9062 H   0  0  0  0  0  0  0  0  0  0  0  0
    3.0709   -3.0041    0.6402 H   0  0  0  0  0  0  0  0  0  0  0  0
    1.7226   -3.0365   -0.5671 H   0  0  0  0  0  0  0  0  0  0  0  0
  1  2  1  0
  2  3  1  0
  3  4  2  0
  3  5  1  0
  5  6  1  0
  6  7  1  0
  7  8  1  0
  8  9  2  0
  9 10  1  0
 10 11  2  0
 11 12  1  0
 11 13  1  0
 13 14  2  0
 14 15  1  0
 15 16  2  0
 16 17  1  0
  9 18  1  0
 18 19  2  0
 19 20  1  0
 20 21  2  0
  5 22  1  0
 22 23  1  0
 23  5  1  0
 20  7  1  0
 16 10  1  0
  1 24  1  0
  1 25  1  0
  1 26  1  0
  6 27  1  0
  6 28  1  0
 13 29  1  0
 14 30  1  0
 15 31  1  0
 18 32  1  0
 19 33  1  0
 22 34  1  0
 22 35  1  0
 23 36  1  0
 23 37  1  0
M  END
$$$$
OCNT-2312826
     RDKit          3D

 41 44  0  0  0  0  0  0  0  0999 V2000
   -5.5654    1.4767   -0.8935 C   0  0  0  0  0  0  0  0  0  0  0  0
   -4.1190    1.5228   -1.0496 N   0  0  0  0  0  0  0  0  0  0  0  0
   -3.4646    2.7545   -0.6350 C   0  0  0  0  0  0  0  0  0  0  0  0
   -3.4305    0.3564   -0.9453 C   0  0  0  0  0  0  0  0  0  0  0  0
   -3.9346   -0.8871   -0.9647 N   0  0  0  0  0  0  0  0  0  0  0  0
   -2.8201   -1.7072   -0.8356 O   0  0  0  0  0  0  0  0  0  0  0  0
   -1.7444   -0.8781   -0.7506 C   0  0  0  0  0  0  0  0  0  0  0  0
   -0.4120   -1.5217   -0.6163 C   0  0  0  0  0  0  0  0  0  0  0  0
    0.1484   -1.9043   -1.9898 C   0  0  0  0  0  0  0  0  0  0  0  0
    1.5328   -2.5257   -1.8382 C   0  0  0  0  0  0  0  0  0  0  0  0
    2.4890   -1.6032   -1.0818 C   0  0  0  0  0  0  0  0  0  0  0  0
    1.8972   -1.1901    0.2019 N   0  0  0  0  0  0  0  0  0  0  0  0
    2.8500   -0.6736    1.0946 C   0  0  0  0  0  0  0  0  0  0  0  0
    3.9826   -1.4190    1.2398 N   0  0  0  0  0  0  0  0  0  0  0  0
    4.9364   -1.0508    2.1037 C   0  0  0  0  0  0  0  0  0  0  0  0
    4.9406    0.0215    2.8876 N   0  0  0  0  0  0  0  0  0  0  0  0
    3.8324    0.7621    2.7368 C   0  0  0  0  0  0  0  0  0  0  0  0
    2.7583    0.5087    1.8876 C   0  0  0  0  0  0  0  0  0  0  0  0
    1.7969    1.5792    2.0180 C   0  0  0  0  0  0  0  0  0  0  0  0
    2.1549    2.5352    2.9434 C   0  0  0  0  0  0  0  0  0  0  0  0
    3.6580    2.1851    3.6612 S   0  0  0  0  0  0  0  0  0  0  0  0
    0.5643   -0.5899    0.1191 C   0  0  0  0  0  0  0  0  0  0  0  0
   -2.0643    0.3935   -0.8067 N   0  0  0  0  0  0  0  0  0  0  0  0
   -6.0178    2.4356   -1.1702 H   0  0  0  0  0  0  0  0  0  0  0  0
   -6.0150    0.7179   -1.5446 H   0  0  0  0  0  0  0  0  0  0  0  0
   -5.8379    1.2613    0.1461 H   0  0  0  0  0  0  0  0  0  0  0  0
   -3.3159    2.7683    0.4508 H   0  0  0  0  0  0  0  0  0  0  0  0
   -4.0681    3.6281   -0.9059 H   0  0  0  0  0  0  0  0  0  0  0  0
   -2.4937    2.8806   -1.1274 H   0  0  0  0  0  0  0  0  0  0  0  0
   -0.5260   -2.4384   -0.0209 H   0  0  0  0  0  0  0  0  0  0  0  0
    0.2109   -1.0202   -2.6384 H   0  0  0  0  0  0  0  0  0  0  0  0
   -0.5196   -2.6156   -2.4914 H   0  0  0  0  0  0  0  0  0  0  0  0
    1.4436   -3.4778   -1.2996 H   0  0  0  0  0  0  0  0  0  0  0  0
    1.9461   -2.7541   -2.8271 H   0  0  0  0  0  0  0  0  0  0  0  0
    2.7061   -0.7143   -1.6883 H   0  0  0  0  0  0  0  0  0  0  0  0
    3.4301   -2.1514   -0.9556 H   0  0  0  0  0  0  0  0  0  0  0  0
    5.8015   -1.7029    2.1686 H   0  0  0  0  0  0  0  0  0  0  0  0
    0.8753    1.6657    1.4604 H   0  0  0  0  0  0  0  0  0  0  0  0
    1.6061    3.4230    3.2268 H   0  0  0  0  0  0  0  0  0  0  0  0
    0.1600   -0.4283    1.1259 H   0  0  0  0  0  0  0  0  0  0  0  0
    0.6273    0.3774   -0.3961 H   0  0  0  0  0  0  0  0  0  0  0  0
  1  2  1  0
  2  3  1  0
  2  4  1  0
  4  5  2  0
  5  6  1  0
  6  7  1  0
  7  8  1  0
  8  9  1  0
  9 10  1  0
 10 11  1  0
 11 12  1  0
 12 13  1  0
 13 14  1  0
 14 15  2  0
 15 16  1  0
 16 17  2  0
 17 18  1  0
 18 19  1  0
 19 20  2  0
 20 21  1  0
 12 22  1  0
  7 23  2  0
 23  4  1  0
 22  8  1  0
 18 13  2  0
 21 17  1  0
  1 24  1  0
  1 25  1  0
  1 26  1  0
  3 27  1  0
  3 28  1  0
  3 29  1  0
  8 30  1  0
  9 31  1  0
  9 32  1  0
 10 33  1  0
 10 34  1  0
 11 35  1  0
 11 36  1  0
 15 37  1  0
 19 38  1  0
 20 39  1  0
 22 40  1  0
 22 41  1  0
M  END
$$$$
OCNT-2312831
     RDKit          3D

 41 43  0  0  0  0  0  0  0  0999 V2000
   -4.9173   -0.6960   -2.6695 C   0  0  0  0  0  0  0  0  0  0  0  0
   -3.9384   -1.0271   -1.5435 C   0  0  0  0  0  0  0  0  0  0  0  0
   -2.5129   -0.5596   -1.8515 C   0  0  0  0  0  0  0  0  0  0  0  0
   -2.2406    0.0157   -2.9031 O   0  0  0  0  0  0  0  0  0  0  0  0
   -1.6052   -0.9074   -0.8590 N   0  0  0  0  0  0  0  0  0  0  0  0
   -0.2156   -0.6830   -0.8328 C   0  0  0  0  0  0  0  0  0  0  0  0
    0.4747   -1.1013    0.3099 C   0  0  0  0  0  0  0  0  0  0  0  0
    1.8571   -0.9216    0.4170 C   0  0  0  0  0  0  0  0  0  0  0  0
    2.5765   -0.3056   -0.6140 C   0  0  0  0  0  0  0  0  0  0  0  0
    4.0752   -0.1193   -0.5188 C   0  0  0  0  0  0  0  0  0  0  0  0
    4.5424    0.6150    0.7168 C   0  0  0  0  0  0  0  0  0  0  0  0
    4.1147    1.9197    0.9849 C   0  0  0  0  0  0  0  0  0  0  0  0
    4.5768    2.5514    2.1292 C   0  0  0  0  0  0  0  0  0  0  0  0
    5.4274    1.9830    3.0099 N   0  0  0  0  0  0  0  0  0  0  0  0
    5.8350    0.7274    2.7307 C   0  0  0  0  0  0  0  0  0  0  0  0
    5.4294    0.0127    1.6133 C   0  0  0  0  0  0  0  0  0  0  0  0
    1.8840    0.1014   -1.7615 C   0  0  0  0  0  0  0  0  0  0  0  0
    0.5004   -0.0846   -1.8687 C   0  0  0  0  0  0  0  0  0  0  0  0
   -4.3584   -0.5169   -0.2428 N   0  0  0  0  0  0  0  0  0  0  0  0
   -4.9886    0.6593    0.0485 C   0  0  0  0  0  0  0  0  0  0  0  0
   -5.1045    0.7047    1.4179 C   0  0  0  0  0  0  0  0  0  0  0  0
   -4.4968   -0.4791    1.8693 C   0  0  0  0  0  0  0  0  0  0  0  0
   -4.0200   -1.2205    0.8651 N   0  0  0  0  0  0  0  0  0  0  0  0
   -5.9305   -1.0298   -2.4222 H   0  0  0  0  0  0  0  0  0  0  0  0
   -4.6164   -1.1917   -3.5986 H   0  0  0  0  0  0  0  0  0  0  0  0
   -4.9549    0.3793   -2.8729 H   0  0  0  0  0  0  0  0  0  0  0  0
   -3.9075   -2.1221   -1.4492 H   0  0  0  0  0  0  0  0  0  0  0  0
   -2.0067   -1.3269   -0.0180 H   0  0  0  0  0  0  0  0  0  0  0  0
   -0.0530   -1.5723    1.1360 H   0  0  0  0  0  0  0  0  0  0  0  0
    2.3653   -1.2590    1.3179 H   0  0  0  0  0  0  0  0  0  0  0  0
    4.4480    0.4311   -1.3931 H   0  0  0  0  0  0  0  0  0  0  0  0
    4.5392   -1.1130   -0.5714 H   0  0  0  0  0  0  0  0  0  0  0  0
    3.4282    2.4353    0.3211 H   0  0  0  0  0  0  0  0  0  0  0  0
    4.2653    3.5627    2.3727 H   0  0  0  0  0  0  0  0  0  0  0  0
    6.5181    0.2930    3.4538 H   0  0  0  0  0  0  0  0  0  0  0  0
    5.8001   -0.9945    1.4518 H   0  0  0  0  0  0  0  0  0  0  0  0
    2.4128    0.5687   -2.5897 H   0  0  0  0  0  0  0  0  0  0  0  0
    0.0146    0.2497   -2.7804 H   0  0  0  0  0  0  0  0  0  0  0  0
   -5.2928    1.3592   -0.7181 H   0  0  0  0  0  0  0  0  0  0  0  0
   -5.5552    1.4898    2.0081 H   0  0  0  0  0  0  0  0  0  0  0  0
   -4.3697   -0.8274    2.8866 H   0  0  0  0  0  0  0  0  0  0  0  0
  1  2  1  0
  2  3  1  0
  3  4  2  0
  3  5  1  0
  5  6  1  0
  6  7  1  0
  7  8  2  0
  8  9  1  0
  9 10  1  0
 10 11  1  0
 11 12  2  0
 12 13  1  0
 13 14  2  0
 14 15  1  0
 15 16  2  0
  9 17  2  0
 17 18  1  0
  2 19  1  0
 19 20  1  0
 20 21  2  0
 21 22  1  0
 22 23  2  0
 18  6  2  0
 23 19  1  0
 16 11  1  0
  1 24  1  0
  1 25  1  0
  1 26  1  0
  2 27  1  0
  5 28  1  0
  7 29  1  0
  8 30  1  0
 10 31  1  0
 10 32  1  0
 12 33  1  0
 13 34  1  0
 15 35  1  0
 16 36  1  0
 17 37  1  0
 18 38  1  0
 20 39  1  0
 21 40  1  0
 22 41  1  0
M  END
$$$$
OCNT-2312847
     RDKit          3D

 40 43  0  0  0  0  0  0  0  0999 V2000
    0.0872    1.2428   -2.3882 O   0  0  0  0  0  0  0  0  0  0  0  0
    0.2451   -0.0653   -1.7900 S   0  0  0  0  0  0  0  0  0  0  0  0
    0.2553   -1.2619   -2.6048 O   0  0  0  0  0  0  0  0  0  0  0  0
    1.7627   -0.0754   -0.8640 C   0  0  0  0  0  0  0  0  0  0  0  0
    2.1200   -1.2488   -0.1664 C   0  0  0  0  0  0  0  0  0  0  0  0
    3.3055   -1.2885    0.5714 C   0  0  0  0  0  0  0  0  0  0  0  0
    4.0913   -0.1545    0.5802 C   0  0  0  0  0  0  0  0  0  0  0  0
    5.2716   -0.0142    1.2410 O   0  0  0  0  0  0  0  0  0  0  0  0
    5.6287    1.3363    0.8795 C   0  0  0  0  0  0  0  0  0  0  0  0
    4.6522    1.9808    0.0351 O   0  0  0  0  0  0  0  0  0  0  0  0
    3.7377    0.9847   -0.1088 C   0  0  0  0  0  0  0  0  0  0  0  0
    2.5773    1.0614   -0.8471 C   0  0  0  0  0  0  0  0  0  0  0  0
   -0.9204   -0.2395   -0.5749 N   0  0  0  0  0  0  0  0  0  0  0  0
   -1.0578    0.8361    0.4259 C   0  0  0  0  0  0  0  0  0  0  0  0
   -1.9557    1.9558   -0.0140 C   0  0  0  0  0  0  0  0  0  0  0  0
   -2.3382    3.0284    0.9773 C   0  0  0  0  0  0  0  0  0  0  0  0
   -3.3787    2.0673    0.4795 C   0  0  0  0  0  0  0  0  0  0  0  0
   -2.1692   -0.9204   -0.9605 C   0  0  0  0  0  0  0  0  0  0  0  0
   -2.0799   -2.3636   -0.5623 C   0  0  0  0  0  0  0  0  0  0  0  0
   -2.2490   -2.7800    0.8777 C   0  0  0  0  0  0  0  0  0  0  0  0
   -3.3115   -3.1198   -0.1309 C   0  0  0  0  0  0  0  0  0  0  0  0
    1.4740   -2.1242   -0.2035 H   0  0  0  0  0  0  0  0  0  0  0  0
    3.6019   -2.1786    1.1152 H   0  0  0  0  0  0  0  0  0  0  0  0
    6.5897    1.3162    0.3527 H   0  0  0  0  0  0  0  0  0  0  0  0
    5.7423    1.9258    1.7965 H   0  0  0  0  0  0  0  0  0  0  0  0
    2.3184    1.9660   -1.3866 H   0  0  0  0  0  0  0  0  0  0  0  0
   -1.4261    0.3873    1.3571 H   0  0  0  0  0  0  0  0  0  0  0  0
   -0.0745    1.2484    0.6745 H   0  0  0  0  0  0  0  0  0  0  0  0
   -1.7371    2.2973   -1.0195 H   0  0  0  0  0  0  0  0  0  0  0  0
   -2.3808    4.0523    0.6218 H   0  0  0  0  0  0  0  0  0  0  0  0
   -2.0101    2.9326    2.0062 H   0  0  0  0  0  0  0  0  0  0  0  0
   -4.1244    2.4398   -0.2143 H   0  0  0  0  0  0  0  0  0  0  0  0
   -3.7545    1.3260    1.1755 H   0  0  0  0  0  0  0  0  0  0  0  0
   -2.3460   -0.8388   -2.0389 H   0  0  0  0  0  0  0  0  0  0  0  0
   -3.0374   -0.4591   -0.4811 H   0  0  0  0  0  0  0  0  0  0  0  0
   -1.3541   -2.9029   -1.1619 H   0  0  0  0  0  0  0  0  0  0  0  0
   -1.6208   -3.5831    1.2463 H   0  0  0  0  0  0  0  0  0  0  0  0
   -2.4750   -2.0201    1.6165 H   0  0  0  0  0  0  0  0  0  0  0  0
   -4.2564   -2.5923   -0.0696 H   0  0  0  0  0  0  0  0  0  0  0  0
   -3.4033   -4.1544   -0.4428 H   0  0  0  0  0  0  0  0  0  0  0  0
  1  2  2  0
  2  3  2  0
  2  4  1  0
  4  5  1  0
  5  6  2  0
  6  7  1  0
  7  8  1  0
  8  9  1  0
  9 10  1  0
 10 11  1  0
 11 12  1  0
  2 13  1  0
 13 14  1  0
 14 15  1  0
 15 16  1  0
 16 17  1  0
 13 18  1  0
 18 19  1  0
 19 20  1  0
 20 21  1  0
 12  4  2  0
 17 15  1  0
 21 19  1  0
 11  7  2  0
  5 22  1  0
  6 23  1  0
  9 24  1  0
  9 25  1  0
 12 26  1  0
 14 27  1  0
 14 28  1  0
 15 29  1  0
 16 30  1  0
 16 31  1  0
 17 32  1  0
 17 33  1  0
 18 34  1  0
 18 35  1  0
 19 36  1  0
 20 37  1  0
 20 38  1  0
 21 39  1  0
 21 40  1  0
M  END
$$$$
OCNT-2312866
     RDKit          3D

 34 36  0  0  0  0  0  0  0  0999 V2000
    5.4672   -0.1191    0.8994 C   0  0  0  0  0  0  0  0  0  0  0  0
    4.7316    0.2527   -0.3257 C   0  0  0  0  0  0  0  0  0  0  0  0
    5.3146    0.5662   -1.4673 N   0  0  0  0  0  0  0  0  0  0  0  0
    4.3181    0.7447   -2.3773 N   0  0  0  0  0  0  0  0  0  0  0  0
    3.1339    0.5501   -1.8257 N   0  0  0  0  0  0  0  0  0  0  0  0
    3.3523    0.2764   -0.5139 N   0  0  0  0  0  0  0  0  0  0  0  0
    2.2542    0.0887    0.3753 C   0  0  0  0  0  0  0  0  0  0  0  0
    2.4131    0.0518    1.7641 C   0  0  0  0  0  0  0  0  0  0  0  0
    1.3022   -0.1176    2.5933 C   0  0  0  0  0  0  0  0  0  0  0  0
    0.0271   -0.2511    2.0458 C   0  0  0  0  0  0  0  0  0  0  0  0
   -0.1576   -0.2201    0.6607 C   0  0  0  0  0  0  0  0  0  0  0  0
   -1.4801   -0.3524    0.1899 N   0  0  0  0  0  0  0  0  0  0  0  0
   -1.8991   -0.5234   -1.1177 C   0  0  0  0  0  0  0  0  0  0  0  0
   -1.1652   -0.7103   -2.0787 O   0  0  0  0  0  0  0  0  0  0  0  0
   -3.3374   -0.5363   -1.2493 C   0  0  0  0  0  0  0  0  0  0  0  0
   -4.1227   -1.4282   -1.9574 C   0  0  0  0  0  0  0  0  0  0  0  0
   -5.4460   -1.0160   -1.7349 C   0  0  0  0  0  0  0  0  0  0  0  0
   -5.5111    0.0735   -0.9681 N   0  0  0  0  0  0  0  0  0  0  0  0
   -4.2197    0.3921   -0.7536 N   0  0  0  0  0  0  0  0  0  0  0  0
   -3.9136    1.6423   -0.0959 C   0  0  0  0  0  0  0  0  0  0  0  0
    0.9562   -0.0389   -0.1663 C   0  0  0  0  0  0  0  0  0  0  0  0
    5.0805   -1.0440    1.3367 H   0  0  0  0  0  0  0  0  0  0  0  0
    6.5230   -0.2943    0.6648 H   0  0  0  0  0  0  0  0  0  0  0  0
    5.4315    0.6869    1.6378 H   0  0  0  0  0  0  0  0  0  0  0  0
    3.3683    0.1847    2.2550 H   0  0  0  0  0  0  0  0  0  0  0  0
    1.4303   -0.1384    3.6737 H   0  0  0  0  0  0  0  0  0  0  0  0
   -0.8156   -0.3835    2.7201 H   0  0  0  0  0  0  0  0  0  0  0  0
   -2.1963   -0.4493    0.8981 H   0  0  0  0  0  0  0  0  0  0  0  0
   -3.7745   -2.2748   -2.5333 H   0  0  0  0  0  0  0  0  0  0  0  0
   -6.3636   -1.4634   -2.0954 H   0  0  0  0  0  0  0  0  0  0  0  0
   -4.7159    2.3575   -0.2968 H   0  0  0  0  0  0  0  0  0  0  0  0
   -3.8369    1.4519    0.9771 H   0  0  0  0  0  0  0  0  0  0  0  0
   -2.9737    2.0374   -0.4885 H   0  0  0  0  0  0  0  0  0  0  0  0
    0.8249    0.0042   -1.2453 H   0  0  0  0  0  0  0  0  0  0  0  0
  1  2  1  0
  2  3  2  0
  3  4  1  0
  4  5  2  0
  5  6  1  0
  6  7  1  0
  7  8  2  0
  8  9  1  0
  9 10  2  0
 10 11  1  0
 11 12  1  0
 12 13  1  0
 13 14  2  0
 13 15  1  0
 15 16  2  0
 16 17  1  0
 17 18  2  0
 18 19  1  0
 19 20  1  0
 11 21  2  0
  6  2  1  0
 21  7  1  0
 19 15  1  0
  1 22  1  0
  1 23  1  0
  1 24  1  0
  8 25  1  0
  9 26  1  0
 10 27  1  0
 12 28  1  0
 16 29  1  0
 17 30  1  0
 20 31  1  0
 20 32  1  0
 20 33  1  0
 21 34  1  0
M  END
$$$$
OCNT-2312890
     RDKit          3D

 43 44  0  0  0  0  0  0  0  0999 V2000
   -1.7531    1.4209   -0.9250 C   0  0  0  0  0  0  0  0  0  0  0  0
   -2.5709    0.1489   -0.6564 C   0  0  0  0  0  0  0  0  0  0  0  0
   -1.6217   -0.8866   -0.0353 C   0  0  0  0  0  0  0  0  0  0  0  0
   -1.5771   -1.1533    1.1600 O   0  0  0  0  0  0  0  0  0  0  0  0
   -0.7698   -1.4697   -0.9521 N   0  0  0  0  0  0  0  0  0  0  0  0
    0.2843   -2.3681   -0.5401 C   0  0  0  0  0  0  0  0  0  0  0  0
    1.5847   -1.6356   -0.3845 C   0  0  0  0  0  0  0  0  0  0  0  0
    2.5314   -1.5873   -1.4094 C   0  0  0  0  0  0  0  0  0  0  0  0
    3.7204   -0.8777   -1.2296 C   0  0  0  0  0  0  0  0  0  0  0  0
    3.9310   -0.2224   -0.0192 C   0  0  0  0  0  0  0  0  0  0  0  0
    5.1274    0.5134    0.2091 N   0  0  0  0  0  0  0  0  0  0  0  0
    5.4404    1.2018    1.3629 C   0  0  0  0  0  0  0  0  0  0  0  0
    6.6764    1.7605    1.1490 C   0  0  0  0  0  0  0  0  0  0  0  0
    7.1420    1.4431   -0.0971 N   0  0  0  0  0  0  0  0  0  0  0  0
    6.1991    0.6984   -0.6344 C   0  0  0  0  0  0  0  0  0  0  0  0
    3.0193   -0.2490    0.9869 N   0  0  0  0  0  0  0  0  0  0  0  0
    1.8765   -0.9443    0.7845 C   0  0  0  0  0  0  0  0  0  0  0  0
   -3.8945    0.3954    0.1474 C   0  0  0  0  0  0  0  0  0  0  0  0
   -4.6188   -0.9437    0.4084 C   0  0  0  0  0  0  0  0  0  0  0  0
   -3.6698    1.1157    1.4900 C   0  0  0  0  0  0  0  0  0  0  0  0
   -4.8561    1.2672   -0.6952 C   0  0  0  0  0  0  0  0  0  0  0  0
   -0.8923    1.2069   -1.5686 H   0  0  0  0  0  0  0  0  0  0  0  0
   -2.3441    2.1878   -1.4319 H   0  0  0  0  0  0  0  0  0  0  0  0
   -1.3538    1.8439    0.0026 H   0  0  0  0  0  0  0  0  0  0  0  0
   -2.8667   -0.2588   -1.6346 H   0  0  0  0  0  0  0  0  0  0  0  0
   -0.7444   -1.1106   -1.8965 H   0  0  0  0  0  0  0  0  0  0  0  0
    0.3719   -3.1401   -1.3127 H   0  0  0  0  0  0  0  0  0  0  0  0
    0.0182   -2.8767    0.3935 H   0  0  0  0  0  0  0  0  0  0  0  0
    2.3536   -2.1017   -2.3510 H   0  0  0  0  0  0  0  0  0  0  0  0
    4.4392   -0.8611   -2.0401 H   0  0  0  0  0  0  0  0  0  0  0  0
    4.7675    1.2281    2.2088 H   0  0  0  0  0  0  0  0  0  0  0  0
    7.2536    2.3744    1.8285 H   0  0  0  0  0  0  0  0  0  0  0  0
    6.2552    0.2765   -1.6273 H   0  0  0  0  0  0  0  0  0  0  0  0
    1.1752   -0.9247    1.6172 H   0  0  0  0  0  0  0  0  0  0  0  0
   -4.7743   -1.4956   -0.5254 H   0  0  0  0  0  0  0  0  0  0  0  0
   -4.0605   -1.5897    1.0923 H   0  0  0  0  0  0  0  0  0  0  0  0
   -5.6033   -0.7784    0.8618 H   0  0  0  0  0  0  0  0  0  0  0  0
   -3.2283    2.1075    1.3486 H   0  0  0  0  0  0  0  0  0  0  0  0
   -4.6206    1.2613    2.0166 H   0  0  0  0  0  0  0  0  0  0  0  0
   -3.0179    0.5502    2.1609 H   0  0  0  0  0  0  0  0  0  0  0  0
   -4.4698    2.2811   -0.8391 H   0  0  0  0  0  0  0  0  0  0  0  0
   -5.8321    1.3658   -0.2051 H   0  0  0  0  0  0  0  0  0  0  0  0
   -5.0273    0.8264   -1.6836 H   0  0  0  0  0  0  0  0  0  0  0  0
  1  2  1  0
  2  3  1  0
  3  4  2  0
  3  5  1  0
  5  6  1  0
  6  7  1  0
  7  8  2  0
  8  9  1  0
  9 10  2  0
 10 11  1  0
 11 12  1  0
 12 13  2  0
 13 14  1  0
 14 15  2  0
 10 16  1  0
 16 17  2  0
  2 18  1  0
 18 19  1  0
 18 20  1  0
 18 21  1  0
 17  7  1  0
 15 11  1  0
  1 22  1  0
  1 23  1  0
  1 24  1  0
  2 25  1  0
  5 26  1  0
  6 27  1  0
  6 28  1  0
  8 29  1  0
  9 30  1  0
 12 31  1  0
 13 32  1  0
 15 33  1  0
 17 34  1  0
 19 35  1  0
 19 36  1  0
 19 37  1  0
 20 38  1  0
 20 39  1  0
 20 40  1  0
 21 41  1  0
 21 42  1  0
 21 43  1  0
M  END
$$$$
OCNT-2312897
     RDKit          3D

 46 48  0  0  0  0  0  0  0  0999 V2000
   -4.3116    2.5576    1.8672 C   0  0  0  0  0  0  0  0  0  0  0  0
   -3.2346    1.5242    1.5776 C   0  0  0  0  0  0  0  0  0  0  0  0
   -2.0606    2.1450    0.8163 C   0  0  0  0  0  0  0  0  0  0  0  0
   -0.9928    1.1886    0.5136 N   0  0  0  0  0  0  0  0  0  0  0  0
   -0.9489    0.6063   -0.8339 C   0  0  0  0  0  0  0  0  0  0  0  0
   -2.1398   -0.2535   -1.1637 C   0  0  0  0  0  0  0  0  0  0  0  0
   -3.1860    0.2342   -1.9610 C   0  0  0  0  0  0  0  0  0  0  0  0
   -4.2840   -0.5764   -2.2400 C   0  0  0  0  0  0  0  0  0  0  0  0
   -5.2772   -0.0973   -2.9996 F   0  0  0  0  0  0  0  0  0  0  0  0
   -4.3671   -1.8726   -1.7431 C   0  0  0  0  0  0  0  0  0  0  0  0
   -3.3319   -2.3688   -0.9533 C   0  0  0  0  0  0  0  0  0  0  0  0
   -2.2319   -1.5603   -0.6713 C   0  0  0  0  0  0  0  0  0  0  0  0
   -1.2443   -2.0620    0.0821 F   0  0  0  0  0  0  0  0  0  0  0  0
   -0.1179    0.8638    1.5517 C   0  0  0  0  0  0  0  0  0  0  0  0
   -0.2575    1.2537    2.7091 O   0  0  0  0  0  0  0  0  0  0  0  0
    1.0683    0.0323    1.2735 C   0  0  0  0  0  0  0  0  0  0  0  0
    1.1942   -1.2070    1.9074 C   0  0  0  0  0  0  0  0  0  0  0  0
    2.3321   -1.9875    1.6840 C   0  0  0  0  0  0  0  0  0  0  0  0
    3.3524   -1.5319    0.8445 C   0  0  0  0  0  0  0  0  0  0  0  0
    4.4775   -2.3442    0.6464 N   0  0  0  0  0  0  0  0  0  0  0  0
    5.4152   -1.8933   -0.1167 C   0  0  0  0  0  0  0  0  0  0  0  0
    5.3933   -0.6790   -0.7575 N   0  0  0  0  0  0  0  0  0  0  0  0
    6.4957   -0.2747   -1.6050 C   0  0  0  0  0  0  0  0  0  0  0  0
    4.3093    0.1785   -0.6410 C   0  0  0  0  0  0  0  0  0  0  0  0
    4.2164    1.2546   -1.2255 O   0  0  0  0  0  0  0  0  0  0  0  0
    3.2178   -0.2797    0.2382 C   0  0  0  0  0  0  0  0  0  0  0  0
    2.0884    0.5165    0.4525 C   0  0  0  0  0  0  0  0  0  0  0  0
   -5.1415    2.0976    2.4127 H   0  0  0  0  0  0  0  0  0  0  0  0
   -3.9163    3.3760    2.4773 H   0  0  0  0  0  0  0  0  0  0  0  0
   -4.7085    2.9804    0.9387 H   0  0  0  0  0  0  0  0  0  0  0  0
   -3.6767    0.7035    1.0051 H   0  0  0  0  0  0  0  0  0  0  0  0
   -2.8904    1.0915    2.5236 H   0  0  0  0  0  0  0  0  0  0  0  0
   -1.6278    2.9512    1.4223 H   0  0  0  0  0  0  0  0  0  0  0  0
   -2.3999    2.6060   -0.1184 H   0  0  0  0  0  0  0  0  0  0  0  0
   -0.8701    1.4394   -1.5434 H   0  0  0  0  0  0  0  0  0  0  0  0
   -0.0517    0.0022   -0.9869 H   0  0  0  0  0  0  0  0  0  0  0  0
   -3.1627    1.2422   -2.3653 H   0  0  0  0  0  0  0  0  0  0  0  0
   -5.2336   -2.4841   -1.9738 H   0  0  0  0  0  0  0  0  0  0  0  0
   -3.3725   -3.3777   -0.5545 H   0  0  0  0  0  0  0  0  0  0  0  0
    0.4095   -1.5635    2.5711 H   0  0  0  0  0  0  0  0  0  0  0  0
    2.4292   -2.9552    2.1703 H   0  0  0  0  0  0  0  0  0  0  0  0
    6.3189   -2.4974   -0.2951 H   0  0  0  0  0  0  0  0  0  0  0  0
    6.1323   -0.1723   -2.6325 H   0  0  0  0  0  0  0  0  0  0  0  0
    7.3096   -1.0043   -1.5790 H   0  0  0  0  0  0  0  0  0  0  0  0
    6.8677    0.6987   -1.2701 H   0  0  0  0  0  0  0  0  0  0  0  0
    2.0095    1.4987   -0.0065 H   0  0  0  0  0  0  0  0  0  0  0  0
  1  2  1  0
  2  3  1  0
  3  4  1  0
  4  5  1  0
  5  6  1  0
  6  7  1  0
  7  8  2  0
  8  9  1  0
  8 10  1  0
 10 11  2  0
 11 12  1  0
 12 13  1  0
  4 14  1  0
 14 15  2  0
 14 16  1  0
 16 17  1  0
 17 18  2  0
 18 19  1  0
 19 20  1  0
 20 21  2  0
 21 22  1  0
 22 23  1  0
 22 24  1  0
 24 25  2  0
 24 26  1  0
 26 27  1  0
 12  6  2  0
 27 16  2  0
 26 19  2  0
  1 28  1  0
  1 29  1  0
  1 30  1  0
  2 31  1  0
  2 32  1  0
  3 33  1  0
  3 34  1  0
  5 35  1  0
  5 36  1  0
  7 37  1  0
 10 38  1  0
 11 39  1  0
 17 40  1  0
 18 41  1  0
 21 42  1  0
 23 43  1  0
 23 44  1  0
 23 45  1  0
 27 46  1  0
M  END
$$$$
OCNT-2312906
     RDKit          3D

 47 49  0  0  0  0  0  0  0  0999 V2000
   -5.5916    2.7757   -0.3287 C   0  0  0  0  0  0  0  0  0  0  0  0
   -4.6155    1.8079   -0.6933 O   0  0  0  0  0  0  0  0  0  0  0  0
   -4.7029    0.5831   -0.0918 C   0  0  0  0  0  0  0  0  0  0  0  0
   -5.6226    0.2142    0.8891 C   0  0  0  0  0  0  0  0  0  0  0  0
   -5.5940   -1.0747    1.4274 C   0  0  0  0  0  0  0  0  0  0  0  0
   -4.6461   -1.9993    0.9897 C   0  0  0  0  0  0  0  0  0  0  0  0
   -3.7160   -1.6476    0.0022 C   0  0  0  0  0  0  0  0  0  0  0  0
   -2.6574   -2.6264   -0.4683 C   0  0  0  0  0  0  0  0  0  0  0  0
   -3.2742   -3.8928   -0.7209 O   0  0  0  0  0  0  0  0  0  0  0  0
   -1.5270   -2.8100    0.5664 C   0  0  0  0  0  0  0  0  0  0  0  0
   -0.8638   -1.5746    0.9585 N   0  0  0  0  0  0  0  0  0  0  0  0
   -0.0373   -0.9027    0.0753 C   0  0  0  0  0  0  0  0  0  0  0  0
    0.2546   -1.3547   -1.0269 O   0  0  0  0  0  0  0  0  0  0  0  0
    0.4641    0.4427    0.6178 C   0  0  0  0  0  0  0  0  0  0  0  0
    1.3605    1.1578   -0.2149 O   0  0  0  0  0  0  0  0  0  0  0  0
    2.6910    0.8557   -0.1245 C   0  0  0  0  0  0  0  0  0  0  0  0
    3.2335   -0.2940    0.4439 C   0  0  0  0  0  0  0  0  0  0  0  0
    4.6205   -0.4786    0.4673 C   0  0  0  0  0  0  0  0  0  0  0  0
    5.4858    0.4797   -0.0820 C   0  0  0  0  0  0  0  0  0  0  0  0
    6.8796    0.3078   -0.0645 C   0  0  0  0  0  0  0  0  0  0  0  0
    7.7237    1.2702   -0.6210 C   0  0  0  0  0  0  0  0  0  0  0  0
    7.1856    2.4144   -1.2025 C   0  0  0  0  0  0  0  0  0  0  0  0
    5.8023    2.5988   -1.2285 C   0  0  0  0  0  0  0  0  0  0  0  0
    4.9396    1.6405   -0.6715 C   0  0  0  0  0  0  0  0  0  0  0  0
    3.5450    1.8086   -0.6883 C   0  0  0  0  0  0  0  0  0  0  0  0
   -3.7564   -0.3489   -0.5290 C   0  0  0  0  0  0  0  0  0  0  0  0
   -5.4003    3.6803   -0.9139 H   0  0  0  0  0  0  0  0  0  0  0  0
   -5.5069    3.0404    0.7305 H   0  0  0  0  0  0  0  0  0  0  0  0
   -6.6018    2.4296   -0.5709 H   0  0  0  0  0  0  0  0  0  0  0  0
   -6.3742    0.9043    1.2577 H   0  0  0  0  0  0  0  0  0  0  0  0
   -6.3145   -1.3589    2.1908 H   0  0  0  0  0  0  0  0  0  0  0  0
   -4.6370   -2.9995    1.4199 H   0  0  0  0  0  0  0  0  0  0  0  0
   -2.2377   -2.2868   -1.4221 H   0  0  0  0  0  0  0  0  0  0  0  0
   -4.0486   -3.7116   -1.2823 H   0  0  0  0  0  0  0  0  0  0  0  0
   -1.9115   -3.2737    1.4825 H   0  0  0  0  0  0  0  0  0  0  0  0
   -0.7741   -3.4973    0.1615 H   0  0  0  0  0  0  0  0  0  0  0  0
   -1.2799   -1.0517    1.7196 H   0  0  0  0  0  0  0  0  0  0  0  0
   -0.4240    1.0778    0.7246 H   0  0  0  0  0  0  0  0  0  0  0  0
    0.8707    0.3126    1.6289 H   0  0  0  0  0  0  0  0  0  0  0  0
    2.6114   -1.0800    0.8576 H   0  0  0  0  0  0  0  0  0  0  0  0
    5.0204   -1.3875    0.9116 H   0  0  0  0  0  0  0  0  0  0  0  0
    7.3181   -0.5815    0.3824 H   0  0  0  0  0  0  0  0  0  0  0  0
    8.8005    1.1241   -0.6021 H   0  0  0  0  0  0  0  0  0  0  0  0
    7.8410    3.1637   -1.6384 H   0  0  0  0  0  0  0  0  0  0  0  0
    5.3991    3.4978   -1.6893 H   0  0  0  0  0  0  0  0  0  0  0  0
    3.1092    2.6950   -1.1443 H   0  0  0  0  0  0  0  0  0  0  0  0
   -3.0408   -0.0499   -1.2942 H   0  0  0  0  0  0  0  0  0  0  0  0
  1  2  1  0
  2  3  1  0
  3  4  1  0
  4  5  2  0
  5  6  1  0
  6  7  2  0
  7  8  1  0
  8  9  1  0
  8 10  1  0
 10 11  1  0
 11 12  1  0
 12 13  2  0
 12 14  1  0
 14 15  1  0
 15 16  1  0
 16 17  1  0
 17 18  2  0
 18 19  1  0
 19 20  2  0
 20 21  1  0
 21 22  2  0
 22 23  1  0
 23 24  2  0
 24 25  1  0
  7 26  1  0
 26  3  2  0
 25 16  2  0
 24 19  1  0
  1 27  1  0
  1 28  1  0
  1 29  1  0
  4 30  1  0
  5 31  1  0
  6 32  1  0
  8 33  1  0
  9 34  1  0
 10 35  1  0
 10 36  1  0
 11 37  1  0
 14 38  1  0
 14 39  1  0
 17 40  1  0
 18 41  1  0
 20 42  1  0
 21 43  1  0
 22 44  1  0
 23 45  1  0
 25 46  1  0
 26 47  1  0
M  END
$$$$
OCNT-2312921
     RDKit          3D

 42 44  0  0  0  0  0  0  0  0999 V2000
   -1.1696   -0.9317    1.0137 C   0  0  0  0  0  0  0  0  0  0  0  0
   -1.4048   -0.6419   -0.3978 N   0  0  0  0  0  0  0  0  0  0  0  0
   -2.5513   -1.2903   -1.0339 C   0  0  0  0  0  0  0  0  0  0  0  0
   -3.8591   -0.9638   -0.3719 C   0  0  0  0  0  0  0  0  0  0  0  0
   -4.4293    0.3042   -0.4935 C   0  0  0  0  0  0  0  0  0  0  0  0
   -3.8086    1.2530   -1.2084 F   0  0  0  0  0  0  0  0  0  0  0  0
   -5.6425    0.6191    0.1178 C   0  0  0  0  0  0  0  0  0  0  0  0
   -6.3109   -0.3447    0.8708 C   0  0  0  0  0  0  0  0  0  0  0  0
   -5.7568   -1.6165    1.0060 C   0  0  0  0  0  0  0  0  0  0  0  0
   -4.5429   -1.9136    0.3874 C   0  0  0  0  0  0  0  0  0  0  0  0
   -4.0293   -3.1422    0.5418 F   0  0  0  0  0  0  0  0  0  0  0  0
   -0.4658   -0.0262   -1.2232 C   0  0  0  0  0  0  0  0  0  0  0  0
   -0.4558   -0.1355   -2.4473 O   0  0  0  0  0  0  0  0  0  0  0  0
    0.5742    0.8299   -0.6075 C   0  0  0  0  0  0  0  0  0  0  0  0
    0.2237    1.8517    0.2803 C   0  0  0  0  0  0  0  0  0  0  0  0
    1.2182    2.6597    0.8289 C   0  0  0  0  0  0  0  0  0  0  0  0
    2.5563    2.4584    0.4797 C   0  0  0  0  0  0  0  0  0  0  0  0
    2.9159    1.4544   -0.4337 C   0  0  0  0  0  0  0  0  0  0  0  0
    4.3590    1.2369   -0.8111 C   0  0  0  0  0  0  0  0  0  0  0  0
    4.9448    0.1473   -0.0518 N   0  0  0  0  0  0  0  0  0  0  0  0
    5.1230   -1.1396   -0.4795 C   0  0  0  0  0  0  0  0  0  0  0  0
    5.7462   -1.7771    0.5680 C   0  0  0  0  0  0  0  0  0  0  0  0
    5.9586   -0.9103    1.6089 N   0  0  0  0  0  0  0  0  0  0  0  0
    5.4679    0.2405    1.2067 C   0  0  0  0  0  0  0  0  0  0  0  0
    1.9098    0.6428   -0.9792 C   0  0  0  0  0  0  0  0  0  0  0  0
   -1.3336   -1.9994    1.1904 H   0  0  0  0  0  0  0  0  0  0  0  0
   -0.1472   -0.7004    1.3191 H   0  0  0  0  0  0  0  0  0  0  0  0
   -1.8700   -0.3489    1.6180 H   0  0  0  0  0  0  0  0  0  0  0  0
   -2.6235   -1.0071   -2.0908 H   0  0  0  0  0  0  0  0  0  0  0  0
   -2.3598   -2.3703   -1.0251 H   0  0  0  0  0  0  0  0  0  0  0  0
   -6.0569    1.6160   -0.0006 H   0  0  0  0  0  0  0  0  0  0  0  0
   -7.2576   -0.1061    1.3488 H   0  0  0  0  0  0  0  0  0  0  0  0
   -6.2614   -2.3812    1.5893 H   0  0  0  0  0  0  0  0  0  0  0  0
   -0.8191    2.0252    0.5345 H   0  0  0  0  0  0  0  0  0  0  0  0
    0.9512    3.4522    1.5242 H   0  0  0  0  0  0  0  0  0  0  0  0
    3.3160    3.1006    0.9219 H   0  0  0  0  0  0  0  0  0  0  0  0
    4.9604    2.1348   -0.6263 H   0  0  0  0  0  0  0  0  0  0  0  0
    4.4498    1.0021   -1.8782 H   0  0  0  0  0  0  0  0  0  0  0  0
    4.8033   -1.4863   -1.4521 H   0  0  0  0  0  0  0  0  0  0  0  0
    6.0560   -2.8125    0.6268 H   0  0  0  0  0  0  0  0  0  0  0  0
    5.4654    1.1577    1.7809 H   0  0  0  0  0  0  0  0  0  0  0  0
    2.1563   -0.1408   -1.6939 H   0  0  0  0  0  0  0  0  0  0  0  0
  1  2  1  0
  2  3  1  0
  3  4  1  0
  4  5  2  0
  5  6  1  0
  5  7  1  0
  7  8  2  0
  8  9  1  0
  9 10  2  0
 10 11  1  0
  2 12  1  0
 12 13  2  0
 12 14  1  0
 14 15  1  0
 15 16  2  0
 16 17  1  0
 17 18  2  0
 18 19  1  0
 19 20  1  0
 20 21  1  0
 21 22  2  0
 22 23  1  0
 23 24  2  0
 18 25  1  0
 10  4  1  0
 25 14  2  0
 24 20  1  0
  1 26  1  0
  1 27  1  0
  1 28  1  0
  3 29  1  0
  3 30  1  0
  7 31  1  0
  8 32  1  0
  9 33  1  0
 15 34  1  0
 16 35  1  0
 17 36  1  0
 19 37  1  0
 19 38  1  0
 21 39  1  0
 22 40  1  0
 24 41  1  0
 25 42  1  0
M  END
$$$$
OCNT-2312925
     RDKit          3D

 47 50  0  0  0  0  0  0  0  0999 V2000
    0.2556    4.3787   -2.2294 C   0  0  0  0  0  0  0  0  0  0  0  0
   -0.7615    3.5620   -1.6651 O   0  0  0  0  0  0  0  0  0  0  0  0
   -0.3233    2.8618   -0.5046 C   0  0  1  0  0  0  0  0  0  0  0  0
   -1.5052    2.1547    0.1445 C   0  0  0  0  0  0  0  0  0  0  0  0
   -0.7973    1.1405    1.0448 C   0  0  1  0  0  0  0  0  0  0  0  0
   -1.7142    0.0091    1.5710 C   0  0  0  0  0  0  0  0  0  0  0  0
   -2.5668   -0.6838    0.5882 N   0  0  0  0  0  0  0  0  0  0  0  0
   -3.4607   -1.6472    1.2344 C   0  0  0  0  0  0  0  0  0  0  0  0
   -3.9781   -2.4576    0.0598 C   0  0  0  0  0  0  0  0  0  0  0  0
   -2.8362   -2.4486   -0.9480 C   0  0  0  0  0  0  0  0  0  0  0  0
   -1.8091   -1.4709   -0.3876 C   0  0  0  0  0  0  0  0  0  0  0  0
    0.3248    0.6512    0.2042 N   0  0  0  0  0  0  0  0  0  0  0  0
    1.4624    0.1828    0.8853 C   0  0  0  0  0  0  0  0  0  0  0  0
    1.6531    0.5804    2.1568 N   0  0  0  0  0  0  0  0  0  0  0  0
    2.7638    0.1518    2.7647 C   0  0  0  0  0  0  0  0  0  0  0  0
    3.7060   -0.6343    2.2361 N   0  0  0  0  0  0  0  0  0  0  0  0
    3.5008   -1.0480    0.9831 C   0  0  0  0  0  0  0  0  0  0  0  0
    4.4439   -1.8870    0.4005 C   0  0  0  0  0  0  0  0  0  0  0  0
    4.2948   -2.3810   -0.8982 C   0  0  0  0  0  0  0  0  0  0  0  0
    3.1733   -2.0379   -1.6390 C   0  0  0  0  0  0  0  0  0  0  0  0
    2.2169   -1.1956   -1.0769 C   0  0  0  0  0  0  0  0  0  0  0  0
    2.3739   -0.6777    0.2352 C   0  0  0  0  0  0  0  0  0  0  0  0
    0.6352    1.6921   -0.7996 C   0  0  0  0  0  0  0  0  0  0  0  0
    0.6021    5.1186   -1.5016 H   0  0  0  0  0  0  0  0  0  0  0  0
    1.0949    3.7699   -2.5774 H   0  0  0  0  0  0  0  0  0  0  0  0
   -0.1669    4.9074   -3.0882 H   0  0  0  0  0  0  0  0  0  0  0  0
    0.1251    3.5604    0.2145 H   0  0  0  0  0  0  0  0  0  0  0  0
   -2.1415    2.8450    0.7074 H   0  0  0  0  0  0  0  0  0  0  0  0
   -2.1319    1.6819   -0.6211 H   0  0  0  0  0  0  0  0  0  0  0  0
   -0.4209    1.7011    1.9123 H   0  0  0  0  0  0  0  0  0  0  0  0
   -1.1051   -0.7190    2.1233 H   0  0  0  0  0  0  0  0  0  0  0  0
   -2.3826    0.4740    2.3083 H   0  0  0  0  0  0  0  0  0  0  0  0
   -2.9202   -2.3009    1.9311 H   0  0  0  0  0  0  0  0  0  0  0  0
   -4.2767   -1.1565    1.7742 H   0  0  0  0  0  0  0  0  0  0  0  0
   -4.2588   -3.4737    0.3536 H   0  0  0  0  0  0  0  0  0  0  0  0
   -4.8616   -1.9777   -0.3785 H   0  0  0  0  0  0  0  0  0  0  0  0
   -3.2025   -2.1222   -1.9279 H   0  0  0  0  0  0  0  0  0  0  0  0
   -2.4015   -3.4467   -1.0670 H   0  0  0  0  0  0  0  0  0  0  0  0
   -0.9941   -2.0327    0.0858 H   0  0  0  0  0  0  0  0  0  0  0  0
   -1.3942   -0.8531   -1.1891 H   0  0  0  0  0  0  0  0  0  0  0  0
    2.9172    0.4775    3.7877 H   0  0  0  0  0  0  0  0  0  0  0  0
    5.3208   -2.1711    0.9785 H   0  0  0  0  0  0  0  0  0  0  0  0
    5.0510   -3.0384   -1.3191 H   0  0  0  0  0  0  0  0  0  0  0  0
    3.0377   -2.4266   -2.6448 H   0  0  0  0  0  0  0  0  0  0  0  0
    1.3294   -0.9498   -1.6552 H   0  0  0  0  0  0  0  0  0  0  0  0
    1.6740    2.0439   -0.7629 H   0  0  0  0  0  0  0  0  0  0  0  0
    0.4541    1.2932   -1.8045 H   0  0  0  0  0  0  0  0  0  0  0  0
  1  2  1  0
  2  3  1  0
  3  4  1  0
  4  5  1  0
  5  6  1  0
  6  7  1  0
  7  8  1  0
  8  9  1  0
  9 10  1  0
 10 11  1  0
  5 12  1  0
 12 13  1  0
 13 14  1  0
 14 15  2  0
 15 16  1  0
 16 17  2  0
 17 18  1  0
 18 19  2  0
 19 20  1  0
 20 21  2  0
 21 22  1  0
 12 23  1  0
 23  3  1  0
 11  7  1  0
 22 13  2  0
 22 17  1  0
  1 24  1  0
  1 25  1  0
  1 26  1  0
  3 27  1  1
  4 28  1  0
  4 29  1  0
  5 30  1  1
  6 31  1  0
  6 32  1  0
  8 33  1  0
  8 34  1  0
  9 35  1  0
  9 36  1  0
 10 37  1  0
 10 38  1  0
 11 39  1  0
 11 40  1  0
 15 41  1  0
 18 42  1  0
 19 43  1  0
 20 44  1  0
 21 45  1  0
 23 46  1  0
 23 47  1  0
M  END
$$$$
OCNT-2312932
     RDKit          3D

 40 42  0  0  0  0  0  0  0  0999 V2000
   -4.7324   -1.2749   -1.8779 C   0  0  0  0  0  0  0  0  0  0  0  0
   -3.9914   -0.4337   -0.8834 C   0  0  0  0  0  0  0  0  0  0  0  0
   -4.6715    0.4177   -0.0450 C   0  0  0  0  0  0  0  0  0  0  0  0
   -3.9025    1.1514    0.8368 C   0  0  0  0  0  0  0  0  0  0  0  0
   -4.5880    2.1248    1.7775 C   0  0  0  0  0  0  0  0  0  0  0  0
   -5.6929    1.5827    2.3723 F   0  0  0  0  0  0  0  0  0  0  0  0
   -3.8031    2.5678    2.7997 F   0  0  0  0  0  0  0  0  0  0  0  0
   -5.0360    3.2427    1.1357 F   0  0  0  0  0  0  0  0  0  0  0  0
   -2.5495    1.0455    0.8649 N   0  0  0  0  0  0  0  0  0  0  0  0
   -1.9511    0.1959    0.0190 C   0  0  0  0  0  0  0  0  0  0  0  0
   -0.5657    0.0974    0.0223 N   0  0  0  0  0  0  0  0  0  0  0  0
    0.1474    0.7062    1.1347 C   0  0  0  0  0  0  0  0  0  0  0  0
    1.5901    1.0185    0.7231 C   0  0  0  0  0  0  0  0  0  0  0  0
    2.2006   -0.0342   -0.2218 C   0  0  0  0  0  0  0  0  0  0  0  0
    3.6878   -0.2104    0.0195 C   0  0  0  0  0  0  0  0  0  0  0  0
    4.6114    0.2692   -0.9152 C   0  0  0  0  0  0  0  0  0  0  0  0
    5.9659    0.1000   -0.6680 C   0  0  0  0  0  0  0  0  0  0  0  0
    6.4601   -0.5034    0.4328 N   0  0  0  0  0  0  0  0  0  0  0  0
    5.5569   -0.9546    1.3275 C   0  0  0  0  0  0  0  0  0  0  0  0
    4.1839   -0.8331    1.1700 C   0  0  0  0  0  0  0  0  0  0  0  0
    1.4289   -1.3568   -0.1548 C   0  0  0  0  0  0  0  0  0  0  0  0
   -0.0369   -1.1440   -0.5407 C   0  0  0  0  0  0  0  0  0  0  0  0
   -2.6494   -0.5479   -0.8551 N   0  0  0  0  0  0  0  0  0  0  0  0
   -5.2845   -0.6376   -2.5756 H   0  0  0  0  0  0  0  0  0  0  0  0
   -4.0403   -1.8947   -2.4571 H   0  0  0  0  0  0  0  0  0  0  0  0
   -5.4346   -1.9385   -1.3637 H   0  0  0  0  0  0  0  0  0  0  0  0
   -5.7509    0.5082   -0.0747 H   0  0  0  0  0  0  0  0  0  0  0  0
   -0.3037    1.6497    1.4654 H   0  0  0  0  0  0  0  0  0  0  0  0
    0.1402    0.0262    1.9962 H   0  0  0  0  0  0  0  0  0  0  0  0
    2.1851    1.1512    1.6353 H   0  0  0  0  0  0  0  0  0  0  0  0
    1.6173    1.9906    0.2120 H   0  0  0  0  0  0  0  0  0  0  0  0
    2.0746    0.3433   -1.2476 H   0  0  0  0  0  0  0  0  0  0  0  0
    4.2908    0.7681   -1.8240 H   0  0  0  0  0  0  0  0  0  0  0  0
    6.7107    0.4587   -1.3727 H   0  0  0  0  0  0  0  0  0  0  0  0
    5.9777   -1.4323    2.2078 H   0  0  0  0  0  0  0  0  0  0  0  0
    3.5230   -1.2156    1.9402 H   0  0  0  0  0  0  0  0  0  0  0  0
    1.4750   -1.7763    0.8586 H   0  0  0  0  0  0  0  0  0  0  0  0
    1.8753   -2.1069   -0.8192 H   0  0  0  0  0  0  0  0  0  0  0  0
   -0.6050   -2.0189   -0.1977 H   0  0  0  0  0  0  0  0  0  0  0  0
   -0.1133   -1.1021   -1.6346 H   0  0  0  0  0  0  0  0  0  0  0  0
  1  2  1  0
  2  3  2  0
  3  4  1  0
  4  5  1  0
  5  6  1  0
  5  7  1  0
  5  8  1  0
  4  9  2  0
  9 10  1  0
 10 11  1  0
 11 12  1  0
 12 13  1  0
 13 14  1  0
 14 15  1  0
 15 16  2  0
 16 17  1  0
 17 18  2  0
 18 19  1  0
 19 20  2  0
 14 21  1  0
 21 22  1  0
 10 23  2  0
 23  2  1  0
 22 11  1  0
 20 15  1  0
  1 24  1  0
  1 25  1  0
  1 26  1  0
  3 27  1  0
 12 28  1  0
 12 29  1  0
 13 30  1  0
 13 31  1  0
 14 32  1  0
 16 33  1  0
 17 34  1  0
 19 35  1  0
 20 36  1  0
 21 37  1  0
 21 38  1  0
 22 39  1  0
 22 40  1  0
M  END
$$$$
OCNT-2312951
     RDKit          3D

 51 53  0  0  0  0  0  0  0  0999 V2000
    7.1725    2.0910    1.0656 C   0  0  0  0  0  0  0  0  0  0  0  0
    5.9552    1.2910    0.7324 C   0  0  0  0  0  0  0  0  0  0  0  0
    5.3265    0.4884    1.6809 C   0  0  0  0  0  0  0  0  0  0  0  0
    4.2103   -0.2665    1.3209 C   0  0  0  0  0  0  0  0  0  0  0  0
    3.7445   -0.2233    0.0045 C   0  0  0  0  0  0  0  0  0  0  0  0
    2.4959   -1.0089   -0.4304 C   0  0  0  0  0  0  0  0  0  0  0  0
    2.5576   -2.4675    0.0736 C   0  0  0  0  0  0  0  0  0  0  0  0
    2.3998   -1.0581   -1.9753 C   0  0  0  0  0  0  0  0  0  0  0  0
    1.2603   -0.2705    0.1424 C   0  0  0  0  0  0  0  0  0  0  0  0
   -0.0080   -0.9407   -0.0996 N   0  0  0  0  0  0  0  0  0  0  0  0
   -1.1405   -0.5475    0.5910 C   0  0  0  0  0  0  0  0  0  0  0  0
   -1.1083    0.2402    1.5317 O   0  0  0  0  0  0  0  0  0  0  0  0
   -2.3722   -1.1562    0.0852 C   0  0  0  0  0  0  0  0  0  0  0  0
   -3.6366   -0.5659    0.0670 C   0  0  0  0  0  0  0  0  0  0  0  0
   -4.0524    0.7806    0.4667 C   0  0  0  0  0  0  0  0  0  0  0  0
   -4.4013    1.7257   -0.5071 C   0  0  0  0  0  0  0  0  0  0  0  0
   -4.8150    3.0062   -0.1337 C   0  0  0  0  0  0  0  0  0  0  0  0
   -4.8770    3.3529    1.2158 C   0  0  0  0  0  0  0  0  0  0  0  0
   -4.5246    2.4205    2.1910 C   0  0  0  0  0  0  0  0  0  0  0  0
   -4.1137    1.1383    1.8178 C   0  0  0  0  0  0  0  0  0  0  0  0
   -4.5153   -1.4936   -0.4624 N   0  0  0  0  0  0  0  0  0  0  0  0
   -5.9461   -1.3154   -0.6143 C   0  0  0  0  0  0  0  0  0  0  0  0
   -3.8427   -2.6351   -0.8152 C   0  0  0  0  0  0  0  0  0  0  0  0
   -2.5188   -2.4579   -0.4931 C   0  0  0  0  0  0  0  0  0  0  0  0
    4.3512    0.5554   -0.9258 N   0  0  0  0  0  0  0  0  0  0  0  0
    5.4314    1.2796   -0.5515 C   0  0  0  0  0  0  0  0  0  0  0  0
    8.0755    1.5169    0.8366 H   0  0  0  0  0  0  0  0  0  0  0  0
    7.1929    3.0243    0.4956 H   0  0  0  0  0  0  0  0  0  0  0  0
    7.1854    2.3581    2.1272 H   0  0  0  0  0  0  0  0  0  0  0  0
    5.6923    0.4479    2.7037 H   0  0  0  0  0  0  0  0  0  0  0  0
    3.7161   -0.8704    2.0769 H   0  0  0  0  0  0  0  0  0  0  0  0
    3.4938   -2.9484   -0.2352 H   0  0  0  0  0  0  0  0  0  0  0  0
    2.4930   -2.5346    1.1653 H   0  0  0  0  0  0  0  0  0  0  0  0
    1.7343   -3.0689   -0.3293 H   0  0  0  0  0  0  0  0  0  0  0  0
    2.2677   -0.0562   -2.3991 H   0  0  0  0  0  0  0  0  0  0  0  0
    1.5549   -1.6690   -2.3120 H   0  0  0  0  0  0  0  0  0  0  0  0
    3.3067   -1.4907   -2.4173 H   0  0  0  0  0  0  0  0  0  0  0  0
    1.1792    0.7290   -0.2982 H   0  0  0  0  0  0  0  0  0  0  0  0
    1.3603   -0.1221    1.2233 H   0  0  0  0  0  0  0  0  0  0  0  0
   -0.1800   -1.3182   -1.0178 H   0  0  0  0  0  0  0  0  0  0  0  0
   -4.3445    1.4682   -1.5626 H   0  0  0  0  0  0  0  0  0  0  0  0
   -5.0801    3.7350   -0.8955 H   0  0  0  0  0  0  0  0  0  0  0  0
   -5.1896    4.3521    1.5074 H   0  0  0  0  0  0  0  0  0  0  0  0
   -4.5568    2.6922    3.2428 H   0  0  0  0  0  0  0  0  0  0  0  0
   -3.8243    0.4239    2.5849 H   0  0  0  0  0  0  0  0  0  0  0  0
   -6.1227   -0.6028   -1.4257 H   0  0  0  0  0  0  0  0  0  0  0  0
   -6.3591   -0.9473    0.3291 H   0  0  0  0  0  0  0  0  0  0  0  0
   -6.4067   -2.2757   -0.8596 H   0  0  0  0  0  0  0  0  0  0  0  0
   -4.3579   -3.4812   -1.2537 H   0  0  0  0  0  0  0  0  0  0  0  0
   -1.7394   -3.1965   -0.6320 H   0  0  0  0  0  0  0  0  0  0  0  0
    5.8760    1.8715   -1.3479 H   0  0  0  0  0  0  0  0  0  0  0  0
  1  2  1  0
  2  3  2  0
  3  4  1  0
  4  5  2  0
  5  6  1  0
  6  7  1  0
  6  8  1  0
  6  9  1  0
  9 10  1  0
 10 11  1  0
 11 12  2  0
 11 13  1  0
 13 14  2  0
 14 15  1  0
 15 16  2  0
 16 17  1  0
 17 18  2  0
 18 19  1  0
 19 20  2  0
 14 21  1  0
 21 22  1  0
 21 23  1  0
 23 24  2  0
  5 25  1  0
 25 26  2  0
 26  2  1  0
 24 13  1  0
 20 15  1  0
  1 27  1  0
  1 28  1  0
  1 29  1  0
  3 30  1  0
  4 31  1  0
  7 32  1  0
  7 33  1  0
  7 34  1  0
  8 35  1  0
  8 36  1  0
  8 37  1  0
  9 38  1  0
  9 39  1  0
 10 40  1  0
 16 41  1  0
 17 42  1  0
 18 43  1  0
 19 44  1  0
 20 45  1  0
 22 46  1  0
 22 47  1  0
 22 48  1  0
 23 49  1  0
 24 50  1  0
 26 51  1  0
M  END
$$$$
OCNT-2312952
     RDKit          3D

 48 51  0  0  0  0  0  0  0  0999 V2000
   -0.4069    2.5502    0.2701 C   0  0  0  0  0  0  0  0  0  0  0  0
    0.3991    1.6257   -0.6322 C   0  0  0  0  0  0  0  0  0  0  0  0
    1.3104    0.7207    0.0779 N   0  0  0  0  0  0  0  0  0  0  0  0
    0.7972   -0.0806    1.2125 C   0  0  0  0  0  0  0  0  0  0  0  0
   -0.2568   -1.0897    0.8876 C   0  0  0  0  0  0  0  0  0  0  0  0
   -0.1646   -2.3997    0.7793 N   0  0  0  0  0  0  0  0  0  0  0  0
   -1.4314   -2.8512    0.4702 N   0  0  0  0  0  0  0  0  0  0  0  0
   -2.2072   -1.7855    0.3926 C   0  0  0  0  0  0  0  0  0  0  0  0
   -3.6421   -1.7015    0.1295 C   0  0  0  0  0  0  0  0  0  0  0  0
   -4.4130   -2.8572    0.3656 C   0  0  0  0  0  0  0  0  0  0  0  0
   -5.7903   -2.8664    0.1492 C   0  0  0  0  0  0  0  0  0  0  0  0
   -6.4196   -1.7188   -0.3144 C   0  0  0  0  0  0  0  0  0  0  0  0
   -5.6738   -0.5654   -0.5683 C   0  0  0  0  0  0  0  0  0  0  0  0
   -4.2866   -0.5427   -0.3550 C   0  0  0  0  0  0  0  0  0  0  0  0
   -3.5007    0.5522   -0.6141 O   0  0  0  0  0  0  0  0  0  0  0  0
   -4.1323    1.7264   -1.1069 C   0  0  0  0  0  0  0  0  0  0  0  0
   -1.5298   -0.6298    0.6796 O   0  0  0  0  0  0  0  0  0  0  0  0
    2.6767    1.0410    0.1529 C   0  0  0  0  0  0  0  0  0  0  0  0
    3.0966    2.3340    0.5043 C   0  0  0  0  0  0  0  0  0  0  0  0
    4.4474    2.6489    0.6378 C   0  0  0  0  0  0  0  0  0  0  0  0
    5.4136    1.6736    0.4184 C   0  0  0  0  0  0  0  0  0  0  0  0
    5.0457    0.3759    0.0440 C   0  0  0  0  0  0  0  0  0  0  0  0
    6.0351   -0.5940   -0.1937 C   0  0  0  0  0  0  0  0  0  0  0  0
    5.6945   -1.8845   -0.5937 C   0  0  0  0  0  0  0  0  0  0  0  0
    4.3595   -2.2194   -0.7698 C   0  0  0  0  0  0  0  0  0  0  0  0
    3.3666   -1.2657   -0.5338 C   0  0  0  0  0  0  0  0  0  0  0  0
    3.6731    0.0468   -0.1045 C   0  0  0  0  0  0  0  0  0  0  0  0
   -1.1240    1.9943    0.8805 H   0  0  0  0  0  0  0  0  0  0  0  0
    0.2238    3.1278    0.9494 H   0  0  0  0  0  0  0  0  0  0  0  0
   -0.9800    3.2565   -0.3394 H   0  0  0  0  0  0  0  0  0  0  0  0
   -0.2989    1.0192   -1.2213 H   0  0  0  0  0  0  0  0  0  0  0  0
    0.9515    2.2255   -1.3666 H   0  0  0  0  0  0  0  0  0  0  0  0
    1.6152   -0.6304    1.6977 H   0  0  0  0  0  0  0  0  0  0  0  0
    0.4159    0.5939    1.9894 H   0  0  0  0  0  0  0  0  0  0  0  0
   -3.9336   -3.7656    0.7297 H   0  0  0  0  0  0  0  0  0  0  0  0
   -6.3660   -3.7678    0.3426 H   0  0  0  0  0  0  0  0  0  0  0  0
   -7.4935   -1.7200   -0.4861 H   0  0  0  0  0  0  0  0  0  0  0  0
   -6.2105    0.3020   -0.9394 H   0  0  0  0  0  0  0  0  0  0  0  0
   -4.8563    2.1189   -0.3847 H   0  0  0  0  0  0  0  0  0  0  0  0
   -3.3589    2.4874   -1.2477 H   0  0  0  0  0  0  0  0  0  0  0  0
   -4.5985    1.5454   -2.0809 H   0  0  0  0  0  0  0  0  0  0  0  0
    2.3743    3.1173    0.7030 H   0  0  0  0  0  0  0  0  0  0  0  0
    4.7449    3.6550    0.9202 H   0  0  0  0  0  0  0  0  0  0  0  0
    6.4623    1.9388    0.5321 H   0  0  0  0  0  0  0  0  0  0  0  0
    7.0876   -0.3465   -0.0743 H   0  0  0  0  0  0  0  0  0  0  0  0
    6.4709   -2.6220   -0.7767 H   0  0  0  0  0  0  0  0  0  0  0  0
    4.0818   -3.2180   -1.0955 H   0  0  0  0  0  0  0  0  0  0  0  0
    2.3316   -1.5549   -0.7046 H   0  0  0  0  0  0  0  0  0  0  0  0
  1  2  1  0
  2  3  1  0
  3  4  1  0
  4  5  1  0
  5  6  2  0
  6  7  1  0
  7  8  2  0
  8  9  1  0
  9 10  2  0
 10 11  1  0
 11 12  2  0
 12 13  1  0
 13 14  2  0
 14 15  1  0
 15 16  1  0
  8 17  1  0
  3 18  1  0
 18 19  2  0
 19 20  1  0
 20 21  2  0
 21 22  1  0
 22 23  2  0
 23 24  1  0
 24 25  2  0
 25 26  1  0
 26 27  2  0
 17  5  1  0
 27 18  1  0
 14  9  1  0
 27 22  1  0
  1 28  1  0
  1 29  1  0
  1 30  1  0
  2 31  1  0
  2 32  1  0
  4 33  1  0
  4 34  1  0
 10 35  1  0
 11 36  1  0
 12 37  1  0
 13 38  1  0
 16 39  1  0
 16 40  1  0
 16 41  1  0
 19 42  1  0
 20 43  1  0
 21 44  1  0
 23 45  1  0
 24 46  1  0
 25 47  1  0
 26 48  1  0
M  END
$$$$
OCNT-2312959
     RDKit          3D

 37 39  0  0  0  0  0  0  0  0999 V2000
    5.0564    1.3940   -0.6707 C   0  0  0  0  0  0  0  0  0  0  0  0
    4.5623    0.0922   -0.1230 C   0  0  0  0  0  0  0  0  0  0  0  0
    5.4791   -0.8316    0.2106 N   0  0  0  0  0  0  0  0  0  0  0  0
    4.9988   -1.9796    0.7128 C   0  0  0  0  0  0  0  0  0  0  0  0
    3.6591   -2.2196    0.9055 C   0  0  0  0  0  0  0  0  0  0  0  0
    2.7889   -1.2055    0.5566 C   0  0  0  0  0  0  0  0  0  0  0  0
    1.4097   -1.4334    0.7293 N   0  0  0  0  0  0  0  0  0  0  0  0
    0.5324   -0.3221    0.3406 C   0  0  0  0  0  0  0  0  0  0  0  0
    0.3509   -0.2278   -1.1720 C   0  0  0  0  0  0  0  0  0  0  0  0
   -0.9436    0.5660   -1.3188 C   0  0  0  0  0  0  0  0  0  0  0  0
   -1.7465    0.1682   -0.1629 N   0  0  0  0  0  0  0  0  0  0  0  0
   -3.0795    0.4538   -0.0010 C   0  0  0  0  0  0  0  0  0  0  0  0
   -3.8213   -0.0673    1.0745 C   0  0  0  0  0  0  0  0  0  0  0  0
   -5.1809    0.2177    1.2476 C   0  0  0  0  0  0  0  0  0  0  0  0
   -5.8300    1.0378    0.3382 C   0  0  0  0  0  0  0  0  0  0  0  0
   -7.1324    1.3019    0.5176 F   0  0  0  0  0  0  0  0  0  0  0  0
   -5.1330    1.5709   -0.7370 C   0  0  0  0  0  0  0  0  0  0  0  0
   -5.9244    2.5937   -1.8754 Cl  0  0  0  0  0  0  0  0  0  0  0  0
   -3.7739    1.2798   -0.9022 C   0  0  0  0  0  0  0  0  0  0  0  0
   -0.9232   -0.5520    0.8110 C   0  0  0  0  0  0  0  0  0  0  0  0
    3.2328   -0.0500    0.0387 N   0  0  0  0  0  0  0  0  0  0  0  0
    5.9862    1.2490   -1.2291 H   0  0  0  0  0  0  0  0  0  0  0  0
    4.3162    1.8331   -1.3465 H   0  0  0  0  0  0  0  0  0  0  0  0
    5.2426    2.0921    0.1504 H   0  0  0  0  0  0  0  0  0  0  0  0
    5.7448   -2.7280    0.9620 H   0  0  0  0  0  0  0  0  0  0  0  0
    3.3100   -3.1642    1.2988 H   0  0  0  0  0  0  0  0  0  0  0  0
    1.2581   -1.7187    1.6936 H   0  0  0  0  0  0  0  0  0  0  0  0
    0.8788    0.6347    0.7556 H   0  0  0  0  0  0  0  0  0  0  0  0
    1.1849    0.2627   -1.6821 H   0  0  0  0  0  0  0  0  0  0  0  0
    0.2322   -1.2266   -1.6119 H   0  0  0  0  0  0  0  0  0  0  0  0
   -1.4280    0.3218   -2.2703 H   0  0  0  0  0  0  0  0  0  0  0  0
   -0.7403    1.6424   -1.2814 H   0  0  0  0  0  0  0  0  0  0  0  0
   -3.3511   -0.7233    1.8025 H   0  0  0  0  0  0  0  0  0  0  0  0
   -5.7312   -0.1994    2.0848 H   0  0  0  0  0  0  0  0  0  0  0  0
   -3.2575    1.7196   -1.7504 H   0  0  0  0  0  0  0  0  0  0  0  0
   -1.1808   -1.6183    0.8048 H   0  0  0  0  0  0  0  0  0  0  0  0
   -1.0465   -0.1641    1.8287 H   0  0  0  0  0  0  0  0  0  0  0  0
  1  2  1  0
  2  3  2  0
  3  4  1  0
  4  5  2  0
  5  6  1  0
  6  7  1  0
  7  8  1  0
  8  9  1  0
  9 10  1  0
 10 11  1  0
 11 12  1  0
 12 13  1  0
 13 14  2  0
 14 15  1  0
 15 16  1  0
 15 17  2  0
 17 18  1  0
 17 19  1  0
 11 20  1  0
  6 21  2  0
 21  2  1  0
 20  8  1  0
 19 12  2  0
  1 22  1  0
  1 23  1  0
  1 24  1  0
  4 25  1  0
  5 26  1  0
  7 27  1  0
  8 28  1  0
  9 29  1  0
  9 30  1  0
 10 31  1  0
 10 32  1  0
 13 33  1  0
 14 34  1  0
 19 35  1  0
 20 36  1  0
 20 37  1  0
M  END
$$$$
OCNT-2312961
     RDKit          3D

 41 43  0  0  0  0  0  0  0  0999 V2000
   -1.6111   -1.9851   -0.1919 C   0  0  0  0  0  0  0  0  0  0  0  0
   -1.3091   -0.6114   -0.4003 O   0  0  0  0  0  0  0  0  0  0  0  0
   -1.9953    0.0557   -1.3803 C   0  0  0  0  0  0  0  0  0  0  0  0
   -2.8272   -0.5772   -2.3152 C   0  0  0  0  0  0  0  0  0  0  0  0
   -3.5215    0.1731   -3.2680 C   0  0  0  0  0  0  0  0  0  0  0  0
   -3.3899    1.5547   -3.2880 C   0  0  0  0  0  0  0  0  0  0  0  0
   -4.0634    2.2666   -4.2003 F   0  0  0  0  0  0  0  0  0  0  0  0
   -2.5686    2.2045   -2.3799 C   0  0  0  0  0  0  0  0  0  0  0  0
   -1.8540    1.4586   -1.4307 C   0  0  0  0  0  0  0  0  0  0  0  0
   -0.9942    2.2347   -0.4939 C   0  0  0  0  0  0  0  0  0  0  0  0
   -1.3266    3.3658   -0.1538 O   0  0  0  0  0  0  0  0  0  0  0  0
    0.1705    1.6370   -0.0798 N   0  0  0  0  0  0  0  0  0  0  0  0
    1.0189    2.2163    0.9524 C   0  0  0  0  0  0  0  0  0  0  0  0
    0.5016    1.8855    2.3468 C   0  0  0  0  0  0  0  0  0  0  0  0
    0.9817    0.4497    2.5633 C   0  0  0  0  0  0  0  0  0  0  0  0
    2.2417    0.3323    1.7933 N   0  0  0  0  0  0  0  0  0  0  0  0
    2.2732   -0.8690    1.0548 C   0  0  0  0  0  0  0  0  0  0  0  0
    1.9983   -0.8193   -0.2753 N   0  0  0  0  0  0  0  0  0  0  0  0
    2.0350   -1.9678   -0.9878 C   0  0  0  0  0  0  0  0  0  0  0  0
    2.3123   -3.2055   -0.4403 C   0  0  0  0  0  0  0  0  0  0  0  0
    2.5767   -3.2689    0.9212 C   0  0  0  0  0  0  0  0  0  0  0  0
    2.5607   -2.0972    1.6809 C   0  0  0  0  0  0  0  0  0  0  0  0
    2.9275   -2.2270    3.3656 Cl  0  0  0  0  0  0  0  0  0  0  0  0
    2.4092    1.5668    0.9924 C   0  0  0  0  0  0  0  0  0  0  0  0
   -1.2870   -2.5906   -1.0443 H   0  0  0  0  0  0  0  0  0  0  0  0
   -2.6760   -2.1314    0.0169 H   0  0  0  0  0  0  0  0  0  0  0  0
   -1.0510   -2.3203    0.6864 H   0  0  0  0  0  0  0  0  0  0  0  0
   -2.9598   -1.6542   -2.3290 H   0  0  0  0  0  0  0  0  0  0  0  0
   -4.1692   -0.3124   -3.9919 H   0  0  0  0  0  0  0  0  0  0  0  0
   -2.4835    3.2872   -2.4165 H   0  0  0  0  0  0  0  0  0  0  0  0
    0.3385    0.6583   -0.3170 H   0  0  0  0  0  0  0  0  0  0  0  0
    1.0798    3.2971    0.7883 H   0  0  0  0  0  0  0  0  0  0  0  0
   -0.5838    1.9746    2.4536 H   0  0  0  0  0  0  0  0  0  0  0  0
    0.9725    2.5458    3.0856 H   0  0  0  0  0  0  0  0  0  0  0  0
    1.1588    0.2601    3.6270 H   0  0  0  0  0  0  0  0  0  0  0  0
    0.2093   -0.2486    2.2144 H   0  0  0  0  0  0  0  0  0  0  0  0
    1.8254   -1.8579   -2.0484 H   0  0  0  0  0  0  0  0  0  0  0  0
    2.3302   -4.0963   -1.0580 H   0  0  0  0  0  0  0  0  0  0  0  0
    2.8066   -4.2237    1.3857 H   0  0  0  0  0  0  0  0  0  0  0  0
    3.0963    2.2195    1.5457 H   0  0  0  0  0  0  0  0  0  0  0  0
    2.8463    1.4201   -0.0018 H   0  0  0  0  0  0  0  0  0  0  0  0
  1  2  1  0
  2  3  1  0
  3  4  1  0
  4  5  2  0
  5  6  1  0
  6  7  1  0
  6  8  2  0
  8  9  1  0
  9 10  1  0
 10 11  2  0
 10 12  1  0
 12 13  1  0
 13 14  1  0
 14 15  1  0
 15 16  1  0
 16 17  1  0
 17 18  1  0
 18 19  2  0
 19 20  1  0
 20 21  2  0
 21 22  1  0
 22 23  1  0
 16 24  1  0
  9  3  2  0
 24 13  1  0
 22 17  2  0
  1 25  1  0
  1 26  1  0
  1 27  1  0
  4 28  1  0
  5 29  1  0
  8 30  1  0
 12 31  1  0
 13 32  1  0
 14 33  1  0
 14 34  1  0
 15 35  1  0
 15 36  1  0
 19 37  1  0
 20 38  1  0
 21 39  1  0
 24 40  1  0
 24 41  1  0
M  END
$$$$
OCNT-2312969
     RDKit          3D

 40 42  0  0  0  0  0  0  0  0999 V2000
    7.7198   -0.1635    1.2417 C   0  0  0  0  0  0  0  0  0  0  0  0
    7.0532   -0.1500   -0.0133 O   0  0  0  0  0  0  0  0  0  0  0  0
    5.6861   -0.2364   -0.0102 C   0  0  0  0  0  0  0  0  0  0  0  0
    4.9003   -0.3408    1.1395 C   0  0  0  0  0  0  0  0  0  0  0  0
    3.5043   -0.4248    1.0427 C   0  0  0  0  0  0  0  0  0  0  0  0
    2.8544   -0.4075   -0.2013 C   0  0  0  0  0  0  0  0  0  0  0  0
    1.3909   -0.4979   -0.2967 C   0  0  0  0  0  0  0  0  0  0  0  0
    0.7573   -1.4187   -1.1334 C   0  0  0  0  0  0  0  0  0  0  0  0
   -0.6370   -1.4744   -1.1883 C   0  0  0  0  0  0  0  0  0  0  0  0
   -1.3950   -0.6012   -0.4136 C   0  0  0  0  0  0  0  0  0  0  0  0
   -2.7918   -0.7099   -0.4704 N   0  0  0  0  0  0  0  0  0  0  0  0
   -3.5091    0.2958    0.3120 C   0  0  0  0  0  0  0  0  0  0  0  0
   -4.9997    0.2268    0.1780 C   0  0  0  0  0  0  0  0  0  0  0  0
   -5.7992   -0.8989    0.1746 C   0  0  0  0  0  0  0  0  0  0  0  0
   -7.0803   -0.4625    0.0357 N   0  0  0  0  0  0  0  0  0  0  0  0
   -7.1831    0.8712   -0.0559 N   0  0  0  0  0  0  0  0  0  0  0  0
   -5.9195    1.3039    0.0380 C   0  0  0  0  0  0  0  0  0  0  0  0
   -5.6260    2.7583   -0.0131 C   0  0  0  0  0  0  0  0  0  0  0  0
   -0.8097    0.2890    0.4091 N   0  0  0  0  0  0  0  0  0  0  0  0
    0.5466    0.3248    0.4458 C   0  0  0  0  0  0  0  0  0  0  0  0
    3.6506   -0.3037   -1.3514 C   0  0  0  0  0  0  0  0  0  0  0  0
    5.0453   -0.2189   -1.2577 C   0  0  0  0  0  0  0  0  0  0  0  0
    5.9444   -0.0909   -2.7311 Cl  0  0  0  0  0  0  0  0  0  0  0  0
    7.4269    0.6959    1.8536 H   0  0  0  0  0  0  0  0  0  0  0  0
    8.7943   -0.0846    1.0504 H   0  0  0  0  0  0  0  0  0  0  0  0
    7.5447   -1.1057    1.7713 H   0  0  0  0  0  0  0  0  0  0  0  0
    5.3383   -0.3643    2.1323 H   0  0  0  0  0  0  0  0  0  0  0  0
    2.9261   -0.5207    1.9613 H   0  0  0  0  0  0  0  0  0  0  0  0
    1.3373   -2.1149   -1.7345 H   0  0  0  0  0  0  0  0  0  0  0  0
   -1.1240   -2.2080   -1.8225 H   0  0  0  0  0  0  0  0  0  0  0  0
   -3.0967   -0.6967   -1.4381 H   0  0  0  0  0  0  0  0  0  0  0  0
   -3.1827    1.2988    0.0070 H   0  0  0  0  0  0  0  0  0  0  0  0
   -3.2701    0.1774    1.3773 H   0  0  0  0  0  0  0  0  0  0  0  0
   -5.5616   -1.9498    0.2604 H   0  0  0  0  0  0  0  0  0  0  0  0
   -7.9309   -1.0139   -0.0042 H   0  0  0  0  0  0  0  0  0  0  0  0
   -5.0423    3.0613    0.8620 H   0  0  0  0  0  0  0  0  0  0  0  0
   -5.0510    2.9979   -0.9132 H   0  0  0  0  0  0  0  0  0  0  0  0
   -6.5440    3.3549   -0.0282 H   0  0  0  0  0  0  0  0  0  0  0  0
    0.9488    1.0785    1.1188 H   0  0  0  0  0  0  0  0  0  0  0  0
    3.1841   -0.2759   -2.3344 H   0  0  0  0  0  0  0  0  0  0  0  0
  1  2  1  0
  2  3  1  0
  3  4  1  0
  4  5  2  0
  5  6  1  0
  6  7  1  0
  7  8  2  0
  8  9  1  0
  9 10  2  0
 10 11  1  0
 11 12  1  0
 12 13  1  0
 13 14  2  0
 14 15  1  0
 15 16  1  0
 16 17  2  0
 17 18  1  0
 10 19  1  0
 19 20  2  0
  6 21  2  0
 21 22  1  0
 22 23  1  0
 22  3  2  0
 20  7  1  0
 17 13  1  0
  1 24  1  0
  1 25  1  0
  1 26  1  0
  4 27  1  0
  5 28  1  0
  8 29  1  0
  9 30  1  0
 11 31  1  0
 12 32  1  0
 12 33  1  0
 14 34  1  0
 15 35  1  0
 18 36  1  0
 18 37  1  0
 18 38  1  0
 20 39  1  0
 21 40  1  0
M  END
$$$$
OCNT-2312971
     RDKit          3D

 39 41  0  0  0  0  0  0  0  0999 V2000
    1.8758    2.0342   -1.7255 O   0  0  0  0  0  0  0  0  0  0  0  0
    1.5804    1.1236   -0.6413 S   0  0  0  0  0  0  0  0  0  0  0  0
    1.5034    1.5747    0.7316 O   0  0  0  0  0  0  0  0  0  0  0  0
    2.6710   -0.2981   -0.7462 C   0  0  0  0  0  0  0  0  0  0  0  0
    4.0548    0.1428   -0.4791 C   0  0  0  0  0  0  0  0  0  0  0  0
    4.7019    0.7240    0.5869 C   0  0  0  0  0  0  0  0  0  0  0  0
    6.0338    0.8433    0.1544 C   0  0  0  0  0  0  0  0  0  0  0  0
    6.2052    0.3557   -1.0757 N   0  0  0  0  0  0  0  0  0  0  0  0
    4.9552   -0.0826   -1.4758 O   0  0  0  0  0  0  0  0  0  0  0  0
    0.0985    0.4408   -1.0494 N   0  0  0  0  0  0  0  0  0  0  0  0
   -0.7357   -0.1440    0.0133 C   0  0  0  0  0  0  0  0  0  0  0  0
   -1.7994    0.8369    0.4822 C   0  0  0  0  0  0  0  0  0  0  0  0
   -1.7329    1.3614    1.7838 C   0  0  0  0  0  0  0  0  0  0  0  0
   -2.6894    2.2732    2.2383 C   0  0  0  0  0  0  0  0  0  0  0  0
   -3.7191    2.6751    1.3928 C   0  0  0  0  0  0  0  0  0  0  0  0
   -4.8986    3.7955    1.9519 Cl  0  0  0  0  0  0  0  0  0  0  0  0
   -3.7968    2.1781    0.0947 C   0  0  0  0  0  0  0  0  0  0  0  0
   -2.8391    1.2675   -0.3606 C   0  0  0  0  0  0  0  0  0  0  0  0
   -1.3988   -1.4271   -0.5027 C   0  0  0  0  0  0  0  0  0  0  0  0
   -0.4563   -2.6499   -0.6995 C   0  0  0  0  0  0  0  0  0  0  0  0
   -1.6276   -3.5362   -0.2310 C   0  0  0  0  0  0  0  0  0  0  0  0
   -2.1548   -2.3067    0.5355 C   0  0  0  0  0  0  0  0  0  0  0  0
    2.5661   -0.7227   -1.7487 H   0  0  0  0  0  0  0  0  0  0  0  0
    2.3476   -1.0260    0.0023 H   0  0  0  0  0  0  0  0  0  0  0  0
    4.2744    1.0288    1.5313 H   0  0  0  0  0  0  0  0  0  0  0  0
    6.8849    1.2578    0.6764 H   0  0  0  0  0  0  0  0  0  0  0  0
   -0.3877    1.0059   -1.7473 H   0  0  0  0  0  0  0  0  0  0  0  0
   -0.1003   -0.4243    0.8632 H   0  0  0  0  0  0  0  0  0  0  0  0
   -0.9223    1.0761    2.4527 H   0  0  0  0  0  0  0  0  0  0  0  0
   -2.6181    2.6703    3.2475 H   0  0  0  0  0  0  0  0  0  0  0  0
   -4.5961    2.4979   -0.5686 H   0  0  0  0  0  0  0  0  0  0  0  0
   -2.9165    0.9004   -1.3815 H   0  0  0  0  0  0  0  0  0  0  0  0
   -2.0028   -1.2550   -1.4069 H   0  0  0  0  0  0  0  0  0  0  0  0
    0.4062   -2.6779   -0.0236 H   0  0  0  0  0  0  0  0  0  0  0  0
   -0.1111   -2.8231   -1.7220 H   0  0  0  0  0  0  0  0  0  0  0  0
   -2.2850   -3.8654   -1.0438 H   0  0  0  0  0  0  0  0  0  0  0  0
   -1.3566   -4.3994    0.3816 H   0  0  0  0  0  0  0  0  0  0  0  0
   -3.2418   -2.1924    0.5528 H   0  0  0  0  0  0  0  0  0  0  0  0
   -1.7724   -2.2333    1.5604 H   0  0  0  0  0  0  0  0  0  0  0  0
  1  2  2  0
  2  3  2  0
  2  4  1  0
  4  5  1  0
  5  6  2  0
  6  7  1  0
  7  8  2  0
  8  9  1  0
  2 10  1  0
 10 11  1  0
 11 12  1  0
 12 13  1  0
 13 14  2  0
 14 15  1  0
 15 16  1  0
 15 17  2  0
 17 18  1  0
 11 19  1  0
 19 20  1  0
 20 21  1  0
 21 22  1  0
  9  5  1  0
 18 12  2  0
 22 19  1  0
  4 23  1  0
  4 24  1  0
  6 25  1  0
  7 26  1  0
 10 27  1  0
 11 28  1  0
 13 29  1  0
 14 30  1  0
 17 31  1  0
 18 32  1  0
 19 33  1  0
 20 34  1  0
 20 35  1  0
 21 36  1  0
 21 37  1  0
 22 38  1  0
 22 39  1  0
M  END
$$$$
OCNT-2312973
     RDKit          3D

 37 38  0  0  0  0  0  0  0  0999 V2000
    4.9360    1.0159   -2.3390 C   0  0  0  0  0  0  0  0  0  0  0  0
    5.1818   -0.1570   -1.4029 C   0  0  0  0  0  0  0  0  0  0  0  0
    4.6808    0.1271   -0.0633 N   0  0  0  0  0  0  0  0  0  0  0  0
    3.3225   -0.1431    0.1829 C   0  0  0  0  0  0  0  0  0  0  0  0
    2.5083   -0.4517   -0.8545 N   0  0  0  0  0  0  0  0  0  0  0  0
    1.1911   -0.6516   -0.5992 C   0  0  0  0  0  0  0  0  0  0  0  0
    0.6193   -0.5378    0.6579 C   0  0  0  0  0  0  0  0  0  0  0  0
   -0.8241   -0.7666    0.8919 C   0  0  0  0  0  0  0  0  0  0  0  0
   -1.1888   -1.1874    1.9813 O   0  0  0  0  0  0  0  0  0  0  0  0
   -1.6687   -0.4470   -0.1527 N   0  0  0  0  0  0  0  0  0  0  0  0
   -3.1440   -0.4005   -0.0074 C   0  0  0  0  0  0  0  0  0  0  0  0
   -3.7380   -0.1917   -1.4176 C   0  0  0  0  0  0  0  0  0  0  0  0
   -3.7080   -1.7279    0.5344 C   0  0  0  0  0  0  0  0  0  0  0  0
   -3.5233    0.7805    0.8651 C   0  0  0  0  0  0  0  0  0  0  0  0
   -2.8621    1.9523    0.8181 N   0  0  0  0  0  0  0  0  0  0  0  0
   -3.5417    2.7400    1.7497 O   0  0  0  0  0  0  0  0  0  0  0  0
   -4.5520    1.9742    2.2328 C   0  0  0  0  0  0  0  0  0  0  0  0
   -4.6097    0.7754    1.7106 N   0  0  0  0  0  0  0  0  0  0  0  0
    1.4549   -0.2330    1.7285 C   0  0  0  0  0  0  0  0  0  0  0  0
    2.8127   -0.0251    1.4903 C   0  0  0  0  0  0  0  0  0  0  0  0
    3.8353    0.3530    2.8323 Cl  0  0  0  0  0  0  0  0  0  0  0  0
    5.3807    0.8169   -3.3191 H   0  0  0  0  0  0  0  0  0  0  0  0
    3.8682    1.2046   -2.4855 H   0  0  0  0  0  0  0  0  0  0  0  0
    5.3841    1.9329   -1.9416 H   0  0  0  0  0  0  0  0  0  0  0  0
    6.2655   -0.3073   -1.3288 H   0  0  0  0  0  0  0  0  0  0  0  0
    4.7728   -1.0886   -1.8120 H   0  0  0  0  0  0  0  0  0  0  0  0
    5.2397   -0.3134    0.6644 H   0  0  0  0  0  0  0  0  0  0  0  0
    0.6072   -0.9290   -1.4723 H   0  0  0  0  0  0  0  0  0  0  0  0
   -1.3074    0.2457   -0.7967 H   0  0  0  0  0  0  0  0  0  0  0  0
   -3.4663   -1.0171   -2.0861 H   0  0  0  0  0  0  0  0  0  0  0  0
   -3.3674    0.7329   -1.8769 H   0  0  0  0  0  0  0  0  0  0  0  0
   -4.8319   -0.1249   -1.3861 H   0  0  0  0  0  0  0  0  0  0  0  0
   -3.4553   -1.8935    1.5863 H   0  0  0  0  0  0  0  0  0  0  0  0
   -4.8029   -1.7473    0.4736 H   0  0  0  0  0  0  0  0  0  0  0  0
   -3.3262   -2.5810   -0.0382 H   0  0  0  0  0  0  0  0  0  0  0  0
   -5.1931    2.4238    2.9756 H   0  0  0  0  0  0  0  0  0  0  0  0
    1.0500   -0.1528    2.7342 H   0  0  0  0  0  0  0  0  0  0  0  0
  1  2  1  0
  2  3  1  0
  3  4  1  0
  4  5  1  0
  5  6  2  0
  6  7  1  0
  7  8  1  0
  8  9  2  0
  8 10  1  0
 10 11  1  0
 11 12  1  0
 11 13  1  0
 11 14  1  0
 14 15  2  0
 15 16  1  0
 16 17  1  0
 17 18  2  0
  7 19  2  0
 19 20  1  0
 20 21  1  0
 20  4  2  0
 18 14  1  0
  1 22  1  0
  1 23  1  0
  1 24  1  0
  2 25  1  0
  2 26  1  0
  3 27  1  0
  6 28  1  0
 10 29  1  0
 12 30  1  0
 12 31  1  0
 12 32  1  0
 13 33  1  0
 13 34  1  0
 13 35  1  0
 17 36  1  0
 19 37  1  0
M  END
$$$$
OCNT-2312985
     RDKit          3D

 44 45  0  0  0  0  0  0  0  0999 V2000
    4.3148    2.3250    2.5914 C   0  0  0  0  0  0  0  0  0  0  0  0
    3.1553    1.6872    1.8475 C   0  0  0  0  0  0  0  0  0  0  0  0
    3.6298    0.6331    0.8517 C   0  0  0  0  0  0  0  0  0  0  0  0
    2.4764    0.0966    0.2050 O   0  0  0  0  0  0  0  0  0  0  0  0
    2.6696   -0.9527   -0.6641 C   0  0  0  0  0  0  0  0  0  0  0  0
    3.9178   -1.4097   -1.0982 C   0  0  0  0  0  0  0  0  0  0  0  0
    3.9969   -2.4761   -1.9953 C   0  0  0  0  0  0  0  0  0  0  0  0
    2.8315   -3.0863   -2.4493 C   0  0  0  0  0  0  0  0  0  0  0  0
    2.9360   -4.4137   -3.5406 Cl  0  0  0  0  0  0  0  0  0  0  0  0
    1.5811   -2.6369   -2.0249 C   0  0  0  0  0  0  0  0  0  0  0  0
    1.4795   -1.5515   -1.1469 C   0  0  0  0  0  0  0  0  0  0  0  0
    0.2448   -1.0982   -0.6551 N   0  0  0  0  0  0  0  0  0  0  0  0
   -0.9296   -0.9868   -1.5390 C   0  0  0  0  0  0  0  0  0  0  0  0
   -0.6694    0.0467   -2.6426 C   0  0  0  0  0  0  0  0  0  0  0  0
   -2.1774   -0.5892   -0.7996 C   0  0  0  0  0  0  0  0  0  0  0  0
   -2.3637    0.3616    0.0929 N   0  0  0  0  0  0  0  0  0  0  0  0
   -3.6995    0.2288    0.3766 C   0  0  0  0  0  0  0  0  0  0  0  0
   -4.3866    1.1044    1.3716 C   0  0  0  0  0  0  0  0  0  0  0  0
   -4.9488    0.2991    2.5439 C   0  0  0  0  0  0  0  0  0  0  0  0
   -5.4835    1.9495    0.7222 C   0  0  0  0  0  0  0  0  0  0  0  0
   -4.3291   -0.7350   -0.3105 N   0  0  0  0  0  0  0  0  0  0  0  0
   -3.3143   -1.2854   -1.0943 O   0  0  0  0  0  0  0  0  0  0  0  0
    5.0012    2.8202    1.8972 H   0  0  0  0  0  0  0  0  0  0  0  0
    3.9457    3.0755    3.2974 H   0  0  0  0  0  0  0  0  0  0  0  0
    4.8783    1.5755    3.1562 H   0  0  0  0  0  0  0  0  0  0  0  0
    2.5814    2.4588    1.3204 H   0  0  0  0  0  0  0  0  0  0  0  0
    2.4603    1.2305    2.5625 H   0  0  0  0  0  0  0  0  0  0  0  0
    4.1681   -0.1586    1.3867 H   0  0  0  0  0  0  0  0  0  0  0  0
    4.2886    1.1019    0.1112 H   0  0  0  0  0  0  0  0  0  0  0  0
    4.8440   -0.9571   -0.7613 H   0  0  0  0  0  0  0  0  0  0  0  0
    4.9690   -2.8293   -2.3291 H   0  0  0  0  0  0  0  0  0  0  0  0
    0.6931   -3.1565   -2.3687 H   0  0  0  0  0  0  0  0  0  0  0  0
    0.3841   -0.2424   -0.1097 H   0  0  0  0  0  0  0  0  0  0  0  0
   -1.1272   -1.9591   -2.0055 H   0  0  0  0  0  0  0  0  0  0  0  0
    0.1718   -0.2463   -3.2793 H   0  0  0  0  0  0  0  0  0  0  0  0
   -0.4364    1.0312   -2.2197 H   0  0  0  0  0  0  0  0  0  0  0  0
   -1.5473    0.1613   -3.2888 H   0  0  0  0  0  0  0  0  0  0  0  0
   -3.6382    1.7970    1.7795 H   0  0  0  0  0  0  0  0  0  0  0  0
   -5.7291   -0.3978    2.2177 H   0  0  0  0  0  0  0  0  0  0  0  0
   -5.3848    0.9634    3.2977 H   0  0  0  0  0  0  0  0  0  0  0  0
   -4.1608   -0.2881    3.0287 H   0  0  0  0  0  0  0  0  0  0  0  0
   -5.0796    2.5481   -0.1020 H   0  0  0  0  0  0  0  0  0  0  0  0
   -6.2871    1.3248    0.3160 H   0  0  0  0  0  0  0  0  0  0  0  0
   -5.9269    2.6366    1.4507 H   0  0  0  0  0  0  0  0  0  0  0  0
  1  2  1  0
  2  3  1  0
  3  4  1  0
  4  5  1  0
  5  6  1  0
  6  7  2  0
  7  8  1  0
  8  9  1  0
  8 10  2  0
 10 11  1  0
 11 12  1  0
 12 13  1  0
 13 14  1  0
 13 15  1  0
 15 16  2  0
 16 17  1  0
 17 18  1  0
 18 19  1  0
 18 20  1  0
 17 21  2  0
 21 22  1  0
 11  5  2  0
 22 15  1  0
  1 23  1  0
  1 24  1  0
  1 25  1  0
  2 26  1  0
  2 27  1  0
  3 28  1  0
  3 29  1  0
  6 30  1  0
  7 31  1  0
 10 32  1  0
 12 33  1  0
 13 34  1  0
 14 35  1  0
 14 36  1  0
 14 37  1  0
 18 38  1  0
 19 39  1  0
 19 40  1  0
 19 41  1  0
 20 42  1  0
 20 43  1  0
 20 44  1  0
M  END
$$$$
OCNT-2312987
     RDKit          3D

 39 41  0  0  0  0  0  0  0  0999 V2000
    0.2637    0.9772    1.2591 O   0  0  0  0  0  0  0  0  0  0  0  0
    0.6149   -0.3673    0.8546 S   0  0  0  0  0  0  0  0  0  0  0  0
    1.2157   -1.3019    1.7849 O   0  0  0  0  0  0  0  0  0  0  0  0
    1.6472   -0.2762   -0.6225 C   0  0  0  0  0  0  0  0  0  0  0  0
    2.9753    0.3429   -0.2643 C   0  0  0  0  0  0  0  0  0  0  0  0
    4.0550   -0.4652    0.1282 C   0  0  0  0  0  0  0  0  0  0  0  0
    5.2826    0.1096    0.4604 C   0  0  0  0  0  0  0  0  0  0  0  0
    5.4322    1.4896    0.4044 C   0  0  0  0  0  0  0  0  0  0  0  0
    6.6115    2.0391    0.7224 F   0  0  0  0  0  0  0  0  0  0  0  0
    4.3751    2.3077    0.0264 C   0  0  0  0  0  0  0  0  0  0  0  0
    3.1460    1.7365   -0.3066 C   0  0  0  0  0  0  0  0  0  0  0  0
   -0.7919   -1.1055    0.2850 N   0  0  0  0  0  0  0  0  0  0  0  0
   -0.7291   -2.5178   -0.1500 C   0  0  0  0  0  0  0  0  0  0  0  0
   -1.3380   -2.5114   -1.5420 C   0  0  0  0  0  0  0  0  0  0  0  0
   -2.4046   -1.4402   -1.4309 C   0  0  0  0  0  0  0  0  0  0  0  0
   -1.7174   -0.3437   -0.5988 C   0  0  0  0  0  0  0  0  0  0  0  0
   -2.7455    0.5033    0.1055 C   0  0  0  0  0  0  0  0  0  0  0  0
   -3.0563    0.3633    1.4615 C   0  0  0  0  0  0  0  0  0  0  0  0
   -4.0328    1.1707    2.0385 C   0  0  0  0  0  0  0  0  0  0  0  0
   -4.6815    2.0928    1.2356 C   0  0  0  0  0  0  0  0  0  0  0  0
   -4.4233    2.2545   -0.0792 N   0  0  0  0  0  0  0  0  0  0  0  0
   -3.4619    1.4637   -0.6073 C   0  0  0  0  0  0  0  0  0  0  0  0
    1.7867   -1.2874   -1.0144 H   0  0  0  0  0  0  0  0  0  0  0  0
    1.1334    0.3293   -1.3736 H   0  0  0  0  0  0  0  0  0  0  0  0
    3.9452   -1.5464    0.1922 H   0  0  0  0  0  0  0  0  0  0  0  0
    6.1195   -0.5084    0.7698 H   0  0  0  0  0  0  0  0  0  0  0  0
    4.5116    3.3841    0.0015 H   0  0  0  0  0  0  0  0  0  0  0  0
    2.3199    2.3892   -0.5843 H   0  0  0  0  0  0  0  0  0  0  0  0
   -1.3303   -3.1190    0.5409 H   0  0  0  0  0  0  0  0  0  0  0  0
    0.2848   -2.9253   -0.1658 H   0  0  0  0  0  0  0  0  0  0  0  0
   -1.7426   -3.4865   -1.8266 H   0  0  0  0  0  0  0  0  0  0  0  0
   -0.5865   -2.2187   -2.2849 H   0  0  0  0  0  0  0  0  0  0  0  0
   -3.2833   -1.8471   -0.9132 H   0  0  0  0  0  0  0  0  0  0  0  0
   -2.7331   -1.0755   -2.4095 H   0  0  0  0  0  0  0  0  0  0  0  0
   -1.1244    0.2896   -1.2699 H   0  0  0  0  0  0  0  0  0  0  0  0
   -2.5326   -0.3621    2.0800 H   0  0  0  0  0  0  0  0  0  0  0  0
   -4.2754    1.0846    3.0916 H   0  0  0  0  0  0  0  0  0  0  0  0
   -5.4481    2.7460    1.6419 H   0  0  0  0  0  0  0  0  0  0  0  0
   -3.2817    1.6319   -1.6661 H   0  0  0  0  0  0  0  0  0  0  0  0
  1  2  2  0
  2  3  2  0
  2  4  1  0
  4  5  1  0
  5  6  1  0
  6  7  2  0
  7  8  1  0
  8  9  1  0
  8 10  2  0
 10 11  1  0
  2 12  1  0
 12 13  1  0
 13 14  1  0
 14 15  1  0
 15 16  1  0
 16 17  1  0
 17 18  1  0
 18 19  2  0
 19 20  1  0
 20 21  2  0
 21 22  1  0
 11  5  2  0
 16 12  1  0
 22 17  2  0
  4 23  1  0
  4 24  1  0
  6 25  1  0
  7 26  1  0
 10 27  1  0
 11 28  1  0
 13 29  1  0
 13 30  1  0
 14 31  1  0
 14 32  1  0
 15 33  1  0
 15 34  1  0
 16 35  1  0
 18 36  1  0
 19 37  1  0
 20 38  1  0
 22 39  1  0
M  END
$$$$
OCNT-2312988
     RDKit          3D

 45 47  0  0  0  0  0  0  0  0999 V2000
   -1.2346    2.9722   -1.3180 C   0  0  0  0  0  0  0  0  0  0  0  0
   -1.5272    1.6850   -0.6516 C   0  0  0  0  0  0  0  0  0  0  0  0
   -0.8540    0.9332    0.2954 C   0  0  0  0  0  0  0  0  0  0  0  0
    0.4084    1.3144    0.9168 C   0  0  0  0  0  0  0  0  0  0  0  0
    0.6896    2.4998    1.0896 O   0  0  0  0  0  0  0  0  0  0  0  0
    1.2486    0.2909    1.3605 N   0  0  0  0  0  0  0  0  0  0  0  0
    2.4116    0.6863    2.1815 C   0  0  0  0  0  0  0  0  0  0  0  0
    3.6627    0.9834    1.3181 C   0  0  0  0  0  0  0  0  0  0  0  0
    3.7885   -0.1072    0.3175 C   0  0  0  0  0  0  0  0  0  0  0  0
    2.7772   -0.9823   -0.0203 C   0  0  0  0  0  0  0  0  0  0  0  0
    1.4095   -0.9678    0.5895 C   0  0  0  0  0  0  0  0  0  0  0  0
    3.2060   -1.8694   -0.9710 N   0  0  0  0  0  0  0  0  0  0  0  0
    4.4523   -1.5219   -1.2230 C   0  0  0  0  0  0  0  0  0  0  0  0
    4.8480   -0.4515   -0.4658 N   0  0  0  0  0  0  0  0  0  0  0  0
    6.1380    0.1863   -0.5073 C   0  0  0  0  0  0  0  0  0  0  0  0
   -1.6962   -0.1932    0.5436 C   0  0  0  0  0  0  0  0  0  0  0  0
   -2.7930   -0.0764   -0.2862 C   0  0  0  0  0  0  0  0  0  0  0  0
   -4.0266   -0.9074   -0.5299 C   0  0  0  0  0  0  0  0  0  0  0  0
   -4.0847   -1.3270   -2.0097 C   0  0  0  0  0  0  0  0  0  0  0  0
   -5.2810   -0.0868   -0.1810 C   0  0  0  0  0  0  0  0  0  0  0  0
   -4.0156   -2.1791    0.3384 C   0  0  0  0  0  0  0  0  0  0  0  0
   -2.6865    1.0725   -1.0147 O   0  0  0  0  0  0  0  0  0  0  0  0
   -1.8970    3.1352   -2.1741 H   0  0  0  0  0  0  0  0  0  0  0  0
   -1.3718    3.8023   -0.6186 H   0  0  0  0  0  0  0  0  0  0  0  0
   -0.2032    2.9923   -1.6833 H   0  0  0  0  0  0  0  0  0  0  0  0
    2.6139   -0.1460    2.8677 H   0  0  0  0  0  0  0  0  0  0  0  0
    2.1648    1.5599    2.7950 H   0  0  0  0  0  0  0  0  0  0  0  0
    3.5384    1.9388    0.7958 H   0  0  0  0  0  0  0  0  0  0  0  0
    4.5496    1.0518    1.9557 H   0  0  0  0  0  0  0  0  0  0  0  0
    0.6695   -1.0663   -0.2063 H   0  0  0  0  0  0  0  0  0  0  0  0
    1.3059   -1.8006    1.2923 H   0  0  0  0  0  0  0  0  0  0  0  0
    5.1039   -2.0067   -1.9385 H   0  0  0  0  0  0  0  0  0  0  0  0
    6.6298    0.0326    0.4564 H   0  0  0  0  0  0  0  0  0  0  0  0
    6.7394   -0.2539   -1.3067 H   0  0  0  0  0  0  0  0  0  0  0  0
    5.9939    1.2527   -0.6986 H   0  0  0  0  0  0  0  0  0  0  0  0
   -1.5207   -0.9887    1.2542 H   0  0  0  0  0  0  0  0  0  0  0  0
   -4.9640   -1.9495   -2.2110 H   0  0  0  0  0  0  0  0  0  0  0  0
   -3.1952   -1.9015   -2.2946 H   0  0  0  0  0  0  0  0  0  0  0  0
   -4.1381   -0.4568   -2.6743 H   0  0  0  0  0  0  0  0  0  0  0  0
   -6.1938   -0.6741   -0.3332 H   0  0  0  0  0  0  0  0  0  0  0  0
   -5.3603    0.8129   -0.8025 H   0  0  0  0  0  0  0  0  0  0  0  0
   -5.2634    0.2398    0.8656 H   0  0  0  0  0  0  0  0  0  0  0  0
   -3.1423   -2.8056    0.1212 H   0  0  0  0  0  0  0  0  0  0  0  0
   -3.9902   -1.9352    1.4071 H   0  0  0  0  0  0  0  0  0  0  0  0
   -4.9100   -2.7873    0.1608 H   0  0  0  0  0  0  0  0  0  0  0  0
  1  2  1  0
  2  3  2  0
  3  4  1  0
  4  5  2  0
  4  6  1  0
  6  7  1  0
  7  8  1  0
  8  9  1  0
  9 10  2  0
 10 11  1  0
 10 12  1  0
 12 13  2  0
 13 14  1  0
 14 15  1  0
  3 16  1  0
 16 17  2  0
 17 18  1  0
 18 19  1  0
 18 20  1  0
 18 21  1  0
 17 22  1  0
 22  2  1  0
 11  6  1  0
 14  9  1  0
  1 23  1  0
  1 24  1  0
  1 25  1  0
  7 26  1  0
  7 27  1  0
  8 28  1  0
  8 29  1  0
 11 30  1  0
 11 31  1  0
 13 32  1  0
 15 33  1  0
 15 34  1  0
 15 35  1  0
 16 36  1  0
 19 37  1  0
 19 38  1  0
 19 39  1  0
 20 40  1  0
 20 41  1  0
 20 42  1  0
 21 43  1  0
 21 44  1  0
 21 45  1  0
M  END
$$$$
OCNT-2312994
     RDKit          3D

 44 47  0  0  0  0  0  0  0  0999 V2000
    5.4739   -0.1667   -2.6936 C   0  0  0  0  0  0  0  0  0  0  0  0
    4.8850    0.2588   -1.3807 C   0  0  0  0  0  0  0  0  0  0  0  0
    5.1240    1.5458   -0.8796 C   0  0  0  0  0  0  0  0  0  0  0  0
    4.5712    1.9513    0.3376 C   0  0  0  0  0  0  0  0  0  0  0  0
    3.7548    1.0818    1.0582 C   0  0  0  0  0  0  0  0  0  0  0  0
    3.4789   -0.1874    0.5423 C   0  0  0  0  0  0  0  0  0  0  0  0
    2.4500   -1.3082    1.4699 S   0  0  0  0  0  0  0  0  0  0  0  0
    2.7647   -2.6517    1.0305 O   0  0  0  0  0  0  0  0  0  0  0  0
    2.5576   -0.9367    2.8654 O   0  0  0  0  0  0  0  0  0  0  0  0
    0.8812   -0.9351    0.9418 N   0  0  0  0  0  0  0  0  0  0  0  0
    0.5450   -1.3502   -0.4351 C   0  0  0  0  0  0  0  0  0  0  0  0
   -0.8823   -1.0189   -0.7656 C   0  0  0  0  0  0  0  0  0  0  0  0
   -1.6958   -0.2734    0.0047 C   0  0  0  0  0  0  0  0  0  0  0  0
   -3.0456    0.0503   -0.3386 C   0  0  0  0  0  0  0  0  0  0  0  0
   -3.4287    0.5542   -1.5681 C   0  0  0  0  0  0  0  0  0  0  0  0
   -4.7836    0.7621   -1.5347 N   0  0  0  0  0  0  0  0  0  0  0  0
   -5.2808    0.3944   -0.3160 C   0  0  0  0  0  0  0  0  0  0  0  0
   -6.5806    0.4763    0.0235 N   0  0  0  0  0  0  0  0  0  0  0  0
   -6.8239    0.0363    1.2785 C   0  0  0  0  0  0  0  0  0  0  0  0
   -5.8738   -0.4581    2.1618 C   0  0  0  0  0  0  0  0  0  0  0  0
   -4.5393   -0.5182    1.7570 C   0  0  0  0  0  0  0  0  0  0  0  0
   -4.2225   -0.0660    0.4630 C   0  0  0  0  0  0  0  0  0  0  0  0
   -1.1882    0.3367    1.2875 C   0  0  0  0  0  0  0  0  0  0  0  0
    0.3417    0.3942    1.3081 C   0  0  0  0  0  0  0  0  0  0  0  0
    4.0523   -0.6085   -0.6630 C   0  0  0  0  0  0  0  0  0  0  0  0
    5.6617   -1.2455   -2.7058 H   0  0  0  0  0  0  0  0  0  0  0  0
    4.7881    0.0828   -3.5090 H   0  0  0  0  0  0  0  0  0  0  0  0
    6.4325    0.3315   -2.8719 H   0  0  0  0  0  0  0  0  0  0  0  0
    5.7583    2.2383   -1.4302 H   0  0  0  0  0  0  0  0  0  0  0  0
    4.7857    2.9441    0.7261 H   0  0  0  0  0  0  0  0  0  0  0  0
    3.3438    1.3960    2.0148 H   0  0  0  0  0  0  0  0  0  0  0  0
    1.1925   -0.8516   -1.1624 H   0  0  0  0  0  0  0  0  0  0  0  0
    0.6714   -2.4338   -0.5297 H   0  0  0  0  0  0  0  0  0  0  0  0
   -1.2571   -1.4390   -1.6960 H   0  0  0  0  0  0  0  0  0  0  0  0
   -2.8593    0.7925   -2.4565 H   0  0  0  0  0  0  0  0  0  0  0  0
   -5.3561    1.1265   -2.2815 H   0  0  0  0  0  0  0  0  0  0  0  0
   -7.8682    0.0895    1.5782 H   0  0  0  0  0  0  0  0  0  0  0  0
   -6.1665   -0.7965    3.1499 H   0  0  0  0  0  0  0  0  0  0  0  0
   -3.7786   -0.9131    2.4211 H   0  0  0  0  0  0  0  0  0  0  0  0
   -1.5336   -0.2661    2.1358 H   0  0  0  0  0  0  0  0  0  0  0  0
   -1.5742    1.3546    1.4219 H   0  0  0  0  0  0  0  0  0  0  0  0
    0.6612    0.6857    2.3136 H   0  0  0  0  0  0  0  0  0  0  0  0
    0.7049    1.1524    0.6037 H   0  0  0  0  0  0  0  0  0  0  0  0
    3.8582   -1.6111   -1.0399 H   0  0  0  0  0  0  0  0  0  0  0  0
  1  2  1  0
  2  3  1  0
  3  4  2  0
  4  5  1  0
  5  6  2  0
  6  7  1  0
  7  8  2  0
  7  9  2  0
  7 10  1  0
 10 11  1  0
 11 12  1  0
 12 13  2  0
 13 14  1  0
 14 15  2  0
 15 16  1  0
 16 17  1  0
 17 18  1  0
 18 19  2  0
 19 20  1  0
 20 21  2  0
 21 22  1  0
 13 23  1  0
 23 24  1  0
  6 25  1  0
 25  2  2  0
 24 10  1  0
 22 14  1  0
 22 17  2  0
  1 26  1  0
  1 27  1  0
  1 28  1  0
  3 29  1  0
  4 30  1  0
  5 31  1  0
 11 32  1  0
 11 33  1  0
 12 34  1  0
 15 35  1  0
 16 36  1  0
 19 37  1  0
 20 38  1  0
 21 39  1  0
 23 40  1  0
 23 41  1  0
 24 42  1  0
 24 43  1  0
 25 44  1  0
M  END
$$$$
OCNT-2312995
     RDKit          3D

  0  0  0  0  0  0  0  0  0  0999 V3000
M  V30 BEGIN CTAB
M  V30 COUNTS 40 43 0 0 0
M  V30 BEGIN ATOM
M  V30 1 O -2.583417 -3.846526 -0.074259 0
M  V30 2 C -2.765860 -2.437048 -0.125082 0
M  V30 3 C -1.458322 -1.728106 0.192713 0 CFG=1
M  V30 4 C -0.364369 -2.009948 -0.846452 0
M  V30 5 N 0.519202 -0.862983 -0.723466 0
M  V30 6 C 1.678765 -0.754810 -1.404633 0
M  V30 7 N 2.194440 -1.712963 -2.181940 0
M  V30 8 S 3.624295 -1.126912 -2.803377 0
M  V30 9 C 3.470603 0.363318 -1.990772 0
M  V30 10 C 4.506551 1.519913 -2.093534 0
M  V30 11 C 4.740410 2.409696 -0.898967 0
M  V30 12 C 5.792915 1.423038 -1.312594 0
M  V30 13 N 2.376194 0.440686 -1.271970 0
M  V30 14 C -0.101127 0.249653 -0.022228 0
M  V30 15 C -1.568293 -0.193573 0.148180 0 CFG=2
M  V30 16 C -2.274500 0.422921 1.334036 0
M  V30 17 C -1.818645 0.236246 2.648058 0
M  V30 18 C -2.495878 0.809380 3.726474 0
M  V30 19 C -3.637551 1.575716 3.506825 0
M  V30 20 C -4.102283 1.770882 2.208564 0
M  V30 21 C -3.425531 1.199046 1.129243 0
M  V30 22 H -2.432845 -4.088501 0.856383 0
M  V30 23 H -3.551018 -2.168688 0.589396 0
M  V30 24 H -3.124678 -2.181042 -1.127421 0
M  V30 25 H -1.089755 -2.070104 1.169622 0
M  V30 26 H -0.778138 -2.060434 -1.860906 0
M  V30 27 H 0.149203 -2.952149 -0.624594 0
M  V30 28 H 4.544296 1.993010 -3.068950 0
M  V30 29 H 4.924945 3.461840 -1.082039 0
M  V30 30 H 4.179383 2.211355 0.007620 0
M  V30 31 H 6.695971 1.805609 -1.773694 0
M  V30 32 H 5.952920 0.563073 -0.671460 0
M  V30 33 H 0.407052 0.407714 0.935518 0
M  V30 34 H -0.058315 1.185239 -0.593155 0
M  V30 35 H -2.102991 0.084538 -0.772241 0
M  V30 36 H -0.928016 -0.356095 2.848765 0
M  V30 37 H -2.130183 0.658157 4.738952 0
M  V30 38 H -4.164026 2.021902 4.346455 0
M  V30 39 H -4.992883 2.370137 2.034902 0
M  V30 40 H -3.808520 1.366813 0.124402 0
M  V30 END ATOM
M  V30 BEGIN BOND
M  V30 1 1 1 2
M  V30 2 1 2 3
M  V30 3 1 3 4
M  V30 4 1 4 5
M  V30 5 1 5 6
M  V30 6 2 6 7
M  V30 7 1 7 8
M  V30 8 1 8 9
M  V30 9 1 9 10
M  V30 10 1 10 11
M  V30 11 1 11 12
M  V30 12 2 9 13
M  V30 13 1 5 14
M  V30 14 1 14 15
M  V30 15 1 15 16
M  V30 16 2 16 17
M  V30 17 1 17 18
M  V30 18 2 18 19
M  V30 19 1 19 20
M  V30 20 2 20 21
M  V30 21 1 15 3
M  V30 22 1 21 16
M  V30 23 1 13 6
M  V30 24 1 12 10
M  V30 25 1 1 22
M  V30 26 1 2 23
M  V30 27 1 2 24
M  V30 28 1 3 25 CFG=1
M  V30 29 1 4 26
M  V30 30 1 4 27
M  V30 31 1 10 28
M  V30 32 1 11 29
M  V30 33 1 11 30
M  V30 34 1 12 31
M  V30 35 1 12 32
M  V30 36 1 14 33
M  V30 37 1 14 34
M  V30 38 1 15 35 CFG=3
M  V30 39 1 17 36
M  V30 40 1 18 37
M  V30 41 1 19 38
M  V30 42 1 20 39
M  V30 43 1 21 40
M  V30 END BOND
M  V30 BEGIN COLLECTION
M  V30 MDLV30/STERAC1 ATOMS=(2 3 15)
M  V30 END COLLECTION
M  V30 END CTAB
M  END
>  <_CXSMILES_Data>  (674) 
|&1:2,14|

$$$$
OCNT-2313003
     RDKit          3D

 39 40  0  0  0  0  0  0  0  0999 V2000
   -3.0065   -0.9175   -1.2957 C   0  0  0  0  0  0  0  0  0  0  0  0
   -1.6310   -1.0113   -0.7462 N   0  0  0  0  0  0  0  0  0  0  0  0
   -1.5868   -0.6347    0.6891 C   0  0  0  0  0  0  0  0  0  0  0  0
   -1.5956    0.8619    0.8209 C   0  0  0  0  0  0  0  0  0  0  0  0
   -2.8327    1.5985    1.2733 C   0  0  0  0  0  0  0  0  0  0  0  0
   -1.6463    1.4941    2.1900 C   0  0  0  0  0  0  0  0  0  0  0  0
   -0.8545   -2.4702   -1.1358 S   0  0  0  0  0  0  0  0  0  0  0  0
   -0.9540   -3.3653   -0.0084 O   0  0  0  0  0  0  0  0  0  0  0  0
   -1.3018   -2.8663   -2.4525 O   0  0  0  0  0  0  0  0  0  0  0  0
    0.7226   -1.9472   -1.3537 N   0  0  0  0  0  0  0  0  0  0  0  0
    1.5190   -1.5279   -0.2462 C   0  0  0  0  0  0  0  0  0  0  0  0
    1.8657   -2.4355    0.7593 C   0  0  0  0  0  0  0  0  0  0  0  0
    2.6495   -2.0147    1.8312 C   0  0  0  0  0  0  0  0  0  0  0  0
    3.0889   -0.6970    1.8792 C   0  0  0  0  0  0  0  0  0  0  0  0
    3.8459   -0.2950    2.9083 F   0  0  0  0  0  0  0  0  0  0  0  0
    2.7656    0.2156    0.8766 C   0  0  0  0  0  0  0  0  0  0  0  0
    1.9755   -0.1944   -0.1977 C   0  0  0  0  0  0  0  0  0  0  0  0
    1.5943    0.6034   -1.2489 O   0  0  0  0  0  0  0  0  0  0  0  0
    1.8937    2.0006   -1.1486 C   0  0  0  0  0  0  0  0  0  0  0  0
    1.2540    2.7392   -2.3142 C   0  0  0  0  0  0  0  0  0  0  0  0
    1.8321    3.9605   -2.4490 F   0  0  0  0  0  0  0  0  0  0  0  0
   -0.0600    2.9631   -2.0497 F   0  0  0  0  0  0  0  0  0  0  0  0
   -3.4674    0.0382   -1.0302 H   0  0  0  0  0  0  0  0  0  0  0  0
   -2.9825   -0.9554   -2.3888 H   0  0  0  0  0  0  0  0  0  0  0  0
   -3.6382   -1.7236   -0.9093 H   0  0  0  0  0  0  0  0  0  0  0  0
   -2.4305   -1.0875    1.2236 H   0  0  0  0  0  0  0  0  0  0  0  0
   -0.6782   -0.9990    1.1709 H   0  0  0  0  0  0  0  0  0  0  0  0
   -0.9598    1.3407    0.0845 H   0  0  0  0  0  0  0  0  0  0  0  0
   -3.0408    2.5603    0.8170 H   0  0  0  0  0  0  0  0  0  0  0  0
   -3.7200    1.0300    1.5288 H   0  0  0  0  0  0  0  0  0  0  0  0
   -1.0556    2.3881    2.3579 H   0  0  0  0  0  0  0  0  0  0  0  0
   -1.7304    0.8507    3.0589 H   0  0  0  0  0  0  0  0  0  0  0  0
    0.7443   -1.2975   -2.1397 H   0  0  0  0  0  0  0  0  0  0  0  0
    1.5336   -3.4700    0.7114 H   0  0  0  0  0  0  0  0  0  0  0  0
    2.9229   -2.7062    2.6227 H   0  0  0  0  0  0  0  0  0  0  0  0
    3.1540    1.2224    0.9721 H   0  0  0  0  0  0  0  0  0  0  0  0
    1.4990    2.4100   -0.2115 H   0  0  0  0  0  0  0  0  0  0  0  0
    2.9794    2.1430   -1.1892 H   0  0  0  0  0  0  0  0  0  0  0  0
    1.3327    2.1962   -3.2600 H   0  0  0  0  0  0  0  0  0  0  0  0
  1  2  1  0
  2  3  1  0
  3  4  1  0
  4  5  1  0
  5  6  1  0
  2  7  1  0
  7  8  2  0
  7  9  2  0
  7 10  1  0
 10 11  1  0
 11 12  1  0
 12 13  2  0
 13 14  1  0
 14 15  1  0
 14 16  2  0
 16 17  1  0
 17 18  1  0
 18 19  1  0
 19 20  1  0
 20 21  1  0
 20 22  1  0
  6  4  1  0
 17 11  2  0
  1 23  1  0
  1 24  1  0
  1 25  1  0
  3 26  1  0
  3 27  1  0
  4 28  1  0
  5 29  1  0
  5 30  1  0
  6 31  1  0
  6 32  1  0
 10 33  1  0
 12 34  1  0
 13 35  1  0
 16 36  1  0
 19 37  1  0
 19 38  1  0
 20 39  1  0
M  END
$$$$
OCNT-2313008
     RDKit          3D

 56 59  0  0  0  0  0  0  0  0999 V2000
   -0.0011    2.1111   -1.8872 C   0  0  0  0  0  0  0  0  0  0  0  0
    0.0038    1.5787   -0.4639 C   0  0  0  0  0  0  0  0  0  0  0  0
    0.3142    0.1685   -0.3880 N   0  0  0  0  0  0  0  0  0  0  0  0
   -0.5851   -0.8444   -0.1483 C   0  0  0  0  0  0  0  0  0  0  0  0
   -1.9811   -0.6938    0.1118 C   0  0  0  0  0  0  0  0  0  0  0  0
   -2.9666   -0.3387   -0.7887 C   0  0  0  0  0  0  0  0  0  0  0  0
   -4.2582   -0.2748   -0.1818 C   0  0  0  0  0  0  0  0  0  0  0  0
   -4.1965   -0.5974    1.1599 C   0  0  0  0  0  0  0  0  0  0  0  0
   -5.3625   -0.6149    2.0976 C   0  0  0  0  0  0  0  0  0  0  0  0
   -6.6852   -0.6193    1.3130 C   0  0  0  0  0  0  0  0  0  0  0  0
   -6.6669    0.3948    0.1475 C   0  0  0  0  0  0  0  0  0  0  0  0
   -8.0252    0.4451   -0.5489 C   0  0  0  0  0  0  0  0  0  0  0  0
   -5.5521    0.0503   -0.8667 C   0  0  0  0  0  0  0  0  0  0  0  0
   -2.6169   -0.9603    1.6771 S   0  0  0  0  0  0  0  0  0  0  0  0
    0.0344   -2.0011   -0.2239 N   0  0  0  0  0  0  0  0  0  0  0  0
    1.3430   -1.7528   -0.5472 N   0  0  0  0  0  0  0  0  0  0  0  0
    1.5284   -0.4491   -0.6073 C   0  0  0  0  0  0  0  0  0  0  0  0
    2.6885    0.2107   -0.9127 N   0  0  0  0  0  0  0  0  0  0  0  0
    3.6633   -0.5631   -1.7013 C   0  0  0  0  0  0  0  0  0  0  0  0
    4.4255   -1.6223   -0.9029 C   0  0  0  0  0  0  0  0  0  0  0  0
    4.8015   -1.2048    0.5125 C   0  0  0  0  0  0  0  0  0  0  0  0
    5.4987    0.0815    0.5516 N   0  0  0  0  0  0  0  0  0  0  0  0
    6.8750    0.2243    0.6886 C   0  0  0  0  0  0  0  0  0  0  0  0
    7.6817   -1.0120    0.9923 C   0  0  0  0  0  0  0  0  0  0  0  0
    7.4345    1.3167    0.5746 O   0  0  0  0  0  0  0  0  0  0  0  0
    4.7534    1.2888    0.1722 C   0  0  0  0  0  0  0  0  0  0  0  0
    3.2185    1.1739    0.0831 C   0  0  0  0  0  0  0  0  0  0  0  0
    0.9810    2.0087   -2.3588 H   0  0  0  0  0  0  0  0  0  0  0  0
   -0.2676    3.1729   -1.8921 H   0  0  0  0  0  0  0  0  0  0  0  0
   -0.7275    1.5740   -2.5065 H   0  0  0  0  0  0  0  0  0  0  0  0
    0.7151    2.1225    0.1611 H   0  0  0  0  0  0  0  0  0  0  0  0
   -0.9767    1.7506   -0.0089 H   0  0  0  0  0  0  0  0  0  0  0  0
   -2.7740   -0.1492   -1.8383 H   0  0  0  0  0  0  0  0  0  0  0  0
   -5.3275   -1.4910    2.7557 H   0  0  0  0  0  0  0  0  0  0  0  0
   -5.3209    0.2794    2.7320 H   0  0  0  0  0  0  0  0  0  0  0  0
   -6.8674   -1.6265    0.9141 H   0  0  0  0  0  0  0  0  0  0  0  0
   -7.5096   -0.3970    2.0012 H   0  0  0  0  0  0  0  0  0  0  0  0
   -6.4625    1.3903    0.5657 H   0  0  0  0  0  0  0  0  0  0  0  0
   -8.2954   -0.5308   -0.9675 H   0  0  0  0  0  0  0  0  0  0  0  0
   -8.8106    0.7400    0.1551 H   0  0  0  0  0  0  0  0  0  0  0  0
   -8.0157    1.1746   -1.3661 H   0  0  0  0  0  0  0  0  0  0  0  0
   -5.8483   -0.8178   -1.4702 H   0  0  0  0  0  0  0  0  0  0  0  0
   -5.4090    0.8919   -1.5554 H   0  0  0  0  0  0  0  0  0  0  0  0
    4.3715    0.1268   -2.1759 H   0  0  0  0  0  0  0  0  0  0  0  0
    3.1570   -1.0488   -2.5472 H   0  0  0  0  0  0  0  0  0  0  0  0
    5.3314   -1.8861   -1.4631 H   0  0  0  0  0  0  0  0  0  0  0  0
    3.8313   -2.5419   -0.8437 H   0  0  0  0  0  0  0  0  0  0  0  0
    5.4178   -1.9918    0.9546 H   0  0  0  0  0  0  0  0  0  0  0  0
    3.9198   -1.1363    1.1590 H   0  0  0  0  0  0  0  0  0  0  0  0
    8.7390   -0.7414    1.0754 H   0  0  0  0  0  0  0  0  0  0  0  0
    7.5815   -1.7401    0.1834 H   0  0  0  0  0  0  0  0  0  0  0  0
    7.3669   -1.4440    1.9457 H   0  0  0  0  0  0  0  0  0  0  0  0
    4.9986    2.0641    0.9098 H   0  0  0  0  0  0  0  0  0  0  0  0
    5.1597    1.6432   -0.7836 H   0  0  0  0  0  0  0  0  0  0  0  0
    2.8457    2.1689   -0.1842 H   0  0  0  0  0  0  0  0  0  0  0  0
    2.8294    0.9395    1.0829 H   0  0  0  0  0  0  0  0  0  0  0  0
  1  2  1  0
  2  3  1  0
  3  4  1  0
  4  5  1  0
  5  6  2  0
  6  7  1  0
  7  8  2  0
  8  9  1  0
  9 10  1  0
 10 11  1  0
 11 12  1  0
 11 13  1  0
  8 14  1  0
  4 15  2  0
 15 16  1  0
 16 17  2  0
 17 18  1  0
 18 19  1  0
 19 20  1  0
 20 21  1  0
 21 22  1  0
 22 23  1  0
 23 24  1  0
 23 25  2  0
 22 26  1  0
 26 27  1  0
 17  3  1  0
 27 18  1  0
 14  5  1  0
 13  7  1  0
  1 28  1  0
  1 29  1  0
  1 30  1  0
  2 31  1  0
  2 32  1  0
  6 33  1  0
  9 34  1  0
  9 35  1  0
 10 36  1  0
 10 37  1  0
 11 38  1  0
 12 39  1  0
 12 40  1  0
 12 41  1  0
 13 42  1  0
 13 43  1  0
 19 44  1  0
 19 45  1  0
 20 46  1  0
 20 47  1  0
 21 48  1  0
 21 49  1  0
 24 50  1  0
 24 51  1  0
 24 52  1  0
 26 53  1  0
 26 54  1  0
 27 55  1  0
 27 56  1  0
M  END
$$$$
OCNT-2313023
     RDKit          3D

 48 50  0  0  0  0  0  0  0  0999 V2000
   -3.5777    1.9924   -0.9269 C   0  0  0  0  0  0  0  0  0  0  0  0
   -4.2503    0.6341   -1.0217 C   0  0  0  0  0  0  0  0  0  0  0  0
   -3.3298   -0.3396   -0.5189 O   0  0  0  0  0  0  0  0  0  0  0  0
   -3.8232   -1.6317   -0.5131 C   0  0  0  0  0  0  0  0  0  0  0  0
   -5.0560   -1.8382   -1.0409 N   0  0  0  0  0  0  0  0  0  0  0  0
   -5.5301   -3.1020   -1.0353 C   0  0  0  0  0  0  0  0  0  0  0  0
   -4.8293   -4.1790   -0.5272 C   0  0  0  0  0  0  0  0  0  0  0  0
   -3.5647   -3.9460    0.0072 C   0  0  0  0  0  0  0  0  0  0  0  0
   -3.0303   -2.6485    0.0233 C   0  0  0  0  0  0  0  0  0  0  0  0
   -1.6661   -2.4635    0.6118 C   0  0  0  0  0  0  0  0  0  0  0  0
   -1.0817   -3.4507    1.0505 O   0  0  0  0  0  0  0  0  0  0  0  0
   -1.1448   -1.1897    0.6204 N   0  0  0  0  0  0  0  0  0  0  0  0
    0.0909   -0.7032    1.1136 C   0  0  0  0  0  0  0  0  0  0  0  0
    0.2909    0.6756    0.9215 C   0  0  0  0  0  0  0  0  0  0  0  0
    1.4663    1.3014    1.3566 C   0  0  0  0  0  0  0  0  0  0  0  0
    1.6698    3.0483    1.0969 S   0  0  0  0  0  0  0  0  0  0  0  0
    0.3456    3.6229    0.9755 O   0  0  0  0  0  0  0  0  0  0  0  0
    2.6164    3.5434    2.0719 O   0  0  0  0  0  0  0  0  0  0  0  0
    2.3504    3.1250   -0.4465 N   0  0  0  0  0  0  0  0  0  0  0  0
    3.5427    2.4026   -0.7296 C   0  0  0  0  0  0  0  0  0  0  0  0
    4.7362    2.7043   -0.0718 C   0  0  0  0  0  0  0  0  0  0  0  0
    5.8896    1.9647   -0.3392 C   0  0  0  0  0  0  0  0  0  0  0  0
    5.8491    0.9241   -1.2667 C   0  0  0  0  0  0  0  0  0  0  0  0
    4.6553    0.6309   -1.9241 C   0  0  0  0  0  0  0  0  0  0  0  0
    4.6049   -0.6521   -3.0697 Cl  0  0  0  0  0  0  0  0  0  0  0  0
    3.4997    1.3659   -1.6617 C   0  0  0  0  0  0  0  0  0  0  0  0
    2.4520    0.5780    2.0211 C   0  0  0  0  0  0  0  0  0  0  0  0
    2.2685   -0.7882    2.2112 C   0  0  0  0  0  0  0  0  0  0  0  0
    1.1051   -1.4264    1.7602 C   0  0  0  0  0  0  0  0  0  0  0  0
    1.0832   -2.7639    2.0256 O   0  0  0  0  0  0  0  0  0  0  0  0
   -2.6505    2.0046   -1.5095 H   0  0  0  0  0  0  0  0  0  0  0  0
   -3.3043    2.2155    0.1098 H   0  0  0  0  0  0  0  0  0  0  0  0
   -4.2382    2.7817   -1.2965 H   0  0  0  0  0  0  0  0  0  0  0  0
   -4.4915    0.4261   -2.0709 H   0  0  0  0  0  0  0  0  0  0  0  0
   -5.1652    0.6448   -0.4174 H   0  0  0  0  0  0  0  0  0  0  0  0
   -6.5206   -3.2294   -1.4641 H   0  0  0  0  0  0  0  0  0  0  0  0
   -5.2531   -5.1775   -0.5451 H   0  0  0  0  0  0  0  0  0  0  0  0
   -2.9976   -4.7825    0.4118 H   0  0  0  0  0  0  0  0  0  0  0  0
   -1.7490   -0.4798    0.2142 H   0  0  0  0  0  0  0  0  0  0  0  0
   -0.4736    1.2762    0.4322 H   0  0  0  0  0  0  0  0  0  0  0  0
    1.6446    3.1976   -1.1772 H   0  0  0  0  0  0  0  0  0  0  0  0
    4.7823    3.5201    0.6468 H   0  0  0  0  0  0  0  0  0  0  0  0
    6.8179    2.2021    0.1751 H   0  0  0  0  0  0  0  0  0  0  0  0
    6.7482    0.3485   -1.4725 H   0  0  0  0  0  0  0  0  0  0  0  0
    2.5762    1.1182   -2.1756 H   0  0  0  0  0  0  0  0  0  0  0  0
    3.3570    1.0582    2.3852 H   0  0  0  0  0  0  0  0  0  0  0  0
    3.0334   -1.3714    2.7200 H   0  0  0  0  0  0  0  0  0  0  0  0
    0.2514   -3.1438    1.6726 H   0  0  0  0  0  0  0  0  0  0  0  0
  1  2  1  0
  2  3  1  0
  3  4  1  0
  4  5  1  0
  5  6  2  0
  6  7  1  0
  7  8  2  0
  8  9  1  0
  9 10  1  0
 10 11  2  0
 10 12  1  0
 12 13  1  0
 13 14  1  0
 14 15  2  0
 15 16  1  0
 16 17  2  0
 16 18  2  0
 16 19  1  0
 19 20  1  0
 20 21  2  0
 21 22  1  0
 22 23  2  0
 23 24  1  0
 24 25  1  0
 24 26  2  0
 15 27  1  0
 27 28  2  0
 28 29  1  0
 29 30  1  0
  9  4  2  0
 29 13  2  0
 26 20  1  0
  1 31  1  0
  1 32  1  0
  1 33  1  0
  2 34  1  0
  2 35  1  0
  6 36  1  0
  7 37  1  0
  8 38  1  0
 12 39  1  0
 14 40  1  0
 19 41  1  0
 21 42  1  0
 22 43  1  0
 23 44  1  0
 26 45  1  0
 27 46  1  0
 28 47  1  0
 30 48  1  0
M  END
$$$$
OCNT-2313024
     RDKit          3D

 51 56  0  0  0  0  0  0  0  0999 V2000
   -2.7958   -1.6472    0.3729 C   0  0  0  0  0  0  0  0  0  0  0  0
   -2.7177   -0.4303   -0.4695 C   0  0  0  0  0  0  0  0  0  0  0  0
   -1.6151    0.2161   -0.9974 C   0  0  0  0  0  0  0  0  0  0  0  0
   -0.1183   -0.0945   -0.6903 C   0  0  0  0  0  0  0  0  0  0  0  0
    0.8962    0.5363   -1.2435 N   0  0  0  0  0  0  0  0  0  0  0  0
    1.9934   -0.0650   -0.6706 C   0  0  0  0  0  0  0  0  0  0  0  0
    3.3587    0.3331   -0.9997 C   0  0  0  0  0  0  0  0  0  0  0  0
    3.5899    1.3650   -1.9194 C   0  0  0  0  0  0  0  0  0  0  0  0
    4.8916    1.7553   -2.2388 C   0  0  0  0  0  0  0  0  0  0  0  0
    5.9797    1.1177   -1.6438 C   0  0  0  0  0  0  0  0  0  0  0  0
    5.7781    0.0795   -0.7243 C   0  0  0  0  0  0  0  0  0  0  0  0
    6.9507   -0.6063   -0.0708 C   0  0  0  0  0  0  0  0  0  0  0  0
    7.2052   -0.0798    1.2576 N   0  0  0  0  0  0  0  0  0  0  0  0
    6.8145   -0.6390    2.4434 C   0  0  0  0  0  0  0  0  0  0  0  0
    7.3344    0.1877    3.4122 C   0  0  0  0  0  0  0  0  0  0  0  0
    8.0381    1.2195    2.8462 N   0  0  0  0  0  0  0  0  0  0  0  0
    7.9406    1.0343    1.5488 C   0  0  0  0  0  0  0  0  0  0  0  0
    4.4623   -0.3016   -0.4069 C   0  0  0  0  0  0  0  0  0  0  0  0
    1.6841   -1.0399    0.1991 N   0  0  0  0  0  0  0  0  0  0  0  0
    0.2928   -1.0574    0.1922 O   0  0  0  0  0  0  0  0  0  0  0  0
   -2.0134    1.1645   -1.8883 N   0  0  0  0  0  0  0  0  0  0  0  0
   -3.3351    1.1401   -1.9406 N   0  0  0  0  0  0  0  0  0  0  0  0
   -3.7967    0.2819   -0.9865 N   0  0  0  0  0  0  0  0  0  0  0  0
   -5.1948    0.2080   -0.7421 C   0  0  0  0  0  0  0  0  0  0  0  0
   -6.0528    0.4911   -1.8270 C   0  0  0  0  0  0  0  0  0  0  0  0
   -7.4309    0.4137   -1.6754 C   0  0  0  0  0  0  0  0  0  0  0  0
   -7.9610    0.0791   -0.4371 C   0  0  0  0  0  0  0  0  0  0  0  0
   -7.1175   -0.1527    0.6610 C   0  0  0  0  0  0  0  0  0  0  0  0
   -7.6720   -0.4349    1.9169 C   0  0  0  0  0  0  0  0  0  0  0  0
   -6.8492   -0.6106    3.0188 C   0  0  0  0  0  0  0  0  0  0  0  0
   -5.4916   -0.4943    2.8246 C   0  0  0  0  0  0  0  0  0  0  0  0
   -4.9240   -0.2370    1.6248 N   0  0  0  0  0  0  0  0  0  0  0  0
   -5.7079   -0.0825    0.5322 C   0  0  0  0  0  0  0  0  0  0  0  0
   -3.7569   -2.1604    0.2796 H   0  0  0  0  0  0  0  0  0  0  0  0
   -2.0377   -2.3733    0.0591 H   0  0  0  0  0  0  0  0  0  0  0  0
   -2.6061   -1.4095    1.4235 H   0  0  0  0  0  0  0  0  0  0  0  0
    2.7534    1.8771   -2.3929 H   0  0  0  0  0  0  0  0  0  0  0  0
    5.0541    2.5609   -2.9509 H   0  0  0  0  0  0  0  0  0  0  0  0
    6.9855    1.4417   -1.9040 H   0  0  0  0  0  0  0  0  0  0  0  0
    7.8663   -0.4811   -0.6611 H   0  0  0  0  0  0  0  0  0  0  0  0
    6.7692   -1.6842    0.0149 H   0  0  0  0  0  0  0  0  0  0  0  0
    6.2196   -1.5396    2.5021 H   0  0  0  0  0  0  0  0  0  0  0  0
    7.2432    0.0927    4.4865 H   0  0  0  0  0  0  0  0  0  0  0  0
    8.3783    1.6686    0.7889 H   0  0  0  0  0  0  0  0  0  0  0  0
    4.2986   -1.1006    0.3156 H   0  0  0  0  0  0  0  0  0  0  0  0
   -5.6524    0.7467   -2.8077 H   0  0  0  0  0  0  0  0  0  0  0  0
   -8.0869    0.6140   -2.5190 H   0  0  0  0  0  0  0  0  0  0  0  0
   -9.0424    0.0246   -0.3265 H   0  0  0  0  0  0  0  0  0  0  0  0
   -8.7497   -0.5019    2.0467 H   0  0  0  0  0  0  0  0  0  0  0  0
   -7.2579   -0.8189    4.0007 H   0  0  0  0  0  0  0  0  0  0  0  0
   -4.7951   -0.6069    3.6509 H   0  0  0  0  0  0  0  0  0  0  0  0
  1  2  1  0
  2  3  2  0
  3  4  1  0
  4  5  2  0
  5  6  1  0
  6  7  1  0
  7  8  1  0
  8  9  2  0
  9 10  1  0
 10 11  2  0
 11 12  1  0
 12 13  1  0
 13 14  1  0
 14 15  2  0
 15 16  1  0
 16 17  2  0
 11 18  1  0
  6 19  2  0
 19 20  1  0
  3 21  1  0
 21 22  2  0
 22 23  1  0
 23 24  1  0
 24 25  1  0
 25 26  2  0
 26 27  1  0
 27 28  2  0
 28 29  1  0
 29 30  2  0
 30 31  1  0
 31 32  2  0
 32 33  1  0
 23  2  1  0
 33 24  2  0
 20  4  1  0
 33 28  1  0
 18  7  2  0
 17 13  1  0
  1 34  1  0
  1 35  1  0
  1 36  1  0
  8 37  1  0
  9 38  1  0
 10 39  1  0
 12 40  1  0
 12 41  1  0
 14 42  1  0
 15 43  1  0
 17 44  1  0
 18 45  1  0
 25 46  1  0
 26 47  1  0
 27 48  1  0
 29 49  1  0
 30 50  1  0
 31 51  1  0
M  END
$$$$
OCNT-2313026
     RDKit          3D

 43 45  0  0  0  0  0  0  0  0999 V2000
    5.3280    1.3558   -2.5352 C   0  0  0  0  0  0  0  0  0  0  0  0
    4.5996    0.2041   -2.1066 O   0  0  0  0  0  0  0  0  0  0  0  0
    3.6630    0.4624   -1.1523 C   0  0  0  0  0  0  0  0  0  0  0  0
    3.4208    1.5649   -0.6828 O   0  0  0  0  0  0  0  0  0  0  0  0
    2.9508   -0.8136   -0.7809 C   0  0  0  0  0  0  0  0  0  0  0  0
    2.0516   -0.6215    0.4426 C   0  0  0  0  0  0  0  0  0  0  0  0
    0.8173    0.2605    0.1499 C   0  0  0  0  0  0  0  0  0  0  0  0
   -0.3879   -0.5839    0.2733 N   0  0  0  0  0  0  0  0  0  0  0  0
   -1.6990   -0.1928    0.0388 C   0  0  0  0  0  0  0  0  0  0  0  0
   -2.6615   -0.9613    0.1175 O   0  0  0  0  0  0  0  0  0  0  0  0
   -1.9397    1.2731   -0.3322 C   0  0  0  0  0  0  0  0  0  0  0  0
   -3.0728    1.4065   -1.3647 C   0  0  0  0  0  0  0  0  0  0  0  0
   -4.4565    1.4578   -0.7268 C   0  0  0  0  0  0  0  0  0  0  0  0
   -4.5058    2.5923    0.2757 C   0  0  0  0  0  0  0  0  0  0  0  0
   -3.4244    2.5178    1.2259 N   0  0  0  0  0  0  0  0  0  0  0  0
   -2.1585    2.1085    0.9181 C   0  0  0  0  0  0  0  0  0  0  0  0
   -1.2384    2.3883    1.6858 O   0  0  0  0  0  0  0  0  0  0  0  0
    0.0146   -1.8548    0.7340 C   0  0  0  0  0  0  0  0  0  0  0  0
   -0.7638   -2.9551    1.0569 C   0  0  0  0  0  0  0  0  0  0  0  0
   -0.1338   -4.1151    1.5197 C   0  0  0  0  0  0  0  0  0  0  0  0
    1.2589   -4.1644    1.6583 C   0  0  0  0  0  0  0  0  0  0  0  0
    2.0387   -3.0558    1.3307 C   0  0  0  0  0  0  0  0  0  0  0  0
    1.4038   -1.9105    0.8640 C   0  0  0  0  0  0  0  0  0  0  0  0
    6.0521    1.0371   -3.2901 H   0  0  0  0  0  0  0  0  0  0  0  0
    5.8741    1.7983   -1.6962 H   0  0  0  0  0  0  0  0  0  0  0  0
    4.6532    2.0882   -2.9893 H   0  0  0  0  0  0  0  0  0  0  0  0
    2.3700   -1.1527   -1.6470 H   0  0  0  0  0  0  0  0  0  0  0  0
    3.7159   -1.5685   -0.5626 H   0  0  0  0  0  0  0  0  0  0  0  0
    2.6184   -0.1953    1.2795 H   0  0  0  0  0  0  0  0  0  0  0  0
    0.8429    0.6992   -0.8529 H   0  0  0  0  0  0  0  0  0  0  0  0
    0.7484    1.0730    0.8796 H   0  0  0  0  0  0  0  0  0  0  0  0
   -1.0515    1.6755   -0.8285 H   0  0  0  0  0  0  0  0  0  0  0  0
   -3.0323    0.5870   -2.0924 H   0  0  0  0  0  0  0  0  0  0  0  0
   -2.9209    2.3340   -1.9332 H   0  0  0  0  0  0  0  0  0  0  0  0
   -4.6848    0.5090   -0.2297 H   0  0  0  0  0  0  0  0  0  0  0  0
   -5.2201    1.6074   -1.4980 H   0  0  0  0  0  0  0  0  0  0  0  0
   -4.4256    3.5598   -0.2321 H   0  0  0  0  0  0  0  0  0  0  0  0
   -5.4462    2.5791    0.8351 H   0  0  0  0  0  0  0  0  0  0  0  0
   -3.4690    3.0970    2.0567 H   0  0  0  0  0  0  0  0  0  0  0  0
   -1.8445   -2.9409    0.9699 H   0  0  0  0  0  0  0  0  0  0  0  0
   -0.7344   -4.9834    1.7800 H   0  0  0  0  0  0  0  0  0  0  0  0
    1.7317   -5.0720    2.0258 H   0  0  0  0  0  0  0  0  0  0  0  0
    3.1177   -3.0950    1.4433 H   0  0  0  0  0  0  0  0  0  0  0  0
  1  2  1  0
  2  3  1  0
  3  4  2  0
  3  5  1  0
  5  6  1  0
  6  7  1  0
  7  8  1  0
  8  9  1  0
  9 10  2  0
  9 11  1  0
 11 12  1  0
 12 13  1  0
 13 14  1  0
 14 15  1  0
 15 16  1  0
 16 17  2  0
  8 18  1  0
 18 19  2  0
 19 20  1  0
 20 21  2  0
 21 22  1  0
 22 23  2  0
 23  6  1  0
 16 11  1  0
 23 18  1  0
  1 24  1  0
  1 25  1  0
  1 26  1  0
  5 27  1  0
  5 28  1  0
  6 29  1  0
  7 30  1  0
  7 31  1  0
 11 32  1  0
 12 33  1  0
 12 34  1  0
 13 35  1  0
 13 36  1  0
 14 37  1  0
 14 38  1  0
 15 39  1  0
 19 40  1  0
 20 41  1  0
 21 42  1  0
 22 43  1  0
M  END
$$$$
OCNT-2313032
     RDKit          3D

 38 40  0  0  0  0  0  0  0  0999 V2000
    4.9136    1.3586   -0.0445 C   0  0  0  0  0  0  0  0  0  0  0  0
    3.5747    0.7409    0.2454 C   0  0  0  0  0  0  0  0  0  0  0  0
    2.4354    1.5546    0.2716 C   0  0  0  0  0  0  0  0  0  0  0  0
    1.1688    1.0161    0.5333 C   0  0  0  0  0  0  0  0  0  0  0  0
    0.9885   -0.3540    0.7359 C   0  0  0  0  0  0  0  0  0  0  0  0
   -0.2351   -0.9449    1.0502 N   0  0  0  0  0  0  0  0  0  0  0  0
   -1.5117   -0.2647    0.8201 C   0  0  0  0  0  0  0  0  0  0  0  0
   -2.0205   -0.1920   -0.5849 C   0  0  0  0  0  0  0  0  0  0  0  0
   -1.3278   -0.4345   -1.7579 C   0  0  0  0  0  0  0  0  0  0  0  0
   -2.2171   -0.2855   -2.7772 N   0  0  0  0  0  0  0  0  0  0  0  0
   -3.4530    0.0216   -2.3639 N   0  0  0  0  0  0  0  0  0  0  0  0
   -3.3383    0.1114   -1.0331 C   0  0  0  0  0  0  0  0  0  0  0  0
   -4.4969    0.4417   -0.1920 C   0  0  0  0  0  0  0  0  0  0  0  0
   -5.7805   -0.0017   -0.4379 C   0  0  0  0  0  0  0  0  0  0  0  0
   -6.8979    0.5581    0.7299 S   0  0  0  0  0  0  0  0  0  0  0  0
   -5.6803    1.4357    1.5503 C   0  0  0  0  0  0  0  0  0  0  0  0
   -4.4462    1.2962    0.9505 C   0  0  0  0  0  0  0  0  0  0  0  0
    2.1344   -1.1609    0.7405 C   0  0  0  0  0  0  0  0  0  0  0  0
    3.4142   -0.6317    0.4919 C   0  0  0  0  0  0  0  0  0  0  0  0
    4.5771   -1.5596    0.4844 C   0  0  0  0  0  0  0  0  0  0  0  0
    4.5971   -2.5108    1.4680 N   0  0  0  0  0  0  0  0  0  0  0  0
    5.4825   -1.4764   -0.3330 O   0  0  0  0  0  0  0  0  0  0  0  0
    4.8635    2.4523   -0.0072 H   0  0  0  0  0  0  0  0  0  0  0  0
    5.2541    1.0750   -1.0450 H   0  0  0  0  0  0  0  0  0  0  0  0
    5.6535    1.0497    0.7009 H   0  0  0  0  0  0  0  0  0  0  0  0
    2.5215    2.6252    0.0947 H   0  0  0  0  0  0  0  0  0  0  0  0
    0.3289    1.7038    0.5552 H   0  0  0  0  0  0  0  0  0  0  0  0
   -0.2801   -1.9194    0.7637 H   0  0  0  0  0  0  0  0  0  0  0  0
   -1.4887    0.7373    1.2619 H   0  0  0  0  0  0  0  0  0  0  0  0
   -2.2537   -0.8204    1.4082 H   0  0  0  0  0  0  0  0  0  0  0  0
   -0.2973   -0.7007   -1.9479 H   0  0  0  0  0  0  0  0  0  0  0  0
   -2.0535   -0.3885   -3.7737 H   0  0  0  0  0  0  0  0  0  0  0  0
   -6.1121   -0.6358   -1.2495 H   0  0  0  0  0  0  0  0  0  0  0  0
   -5.9303    2.0204    2.4250 H   0  0  0  0  0  0  0  0  0  0  0  0
   -3.5651    1.8062    1.3164 H   0  0  0  0  0  0  0  0  0  0  0  0
    2.0262   -2.2287    0.9174 H   0  0  0  0  0  0  0  0  0  0  0  0
    4.0055   -2.4396    2.2846 H   0  0  0  0  0  0  0  0  0  0  0  0
    5.4468   -3.0548    1.5464 H   0  0  0  0  0  0  0  0  0  0  0  0
  1  2  1  0
  2  3  1  0
  3  4  2  0
  4  5  1  0
  5  6  1  0
  6  7  1  0
  7  8  1  0
  8  9  2  0
  9 10  1  0
 10 11  1  0
 11 12  2  0
 12 13  1  0
 13 14  2  0
 14 15  1  0
 15 16  1  0
 16 17  2  0
  5 18  2  0
 18 19  1  0
 19 20  1  0
 20 21  1  0
 20 22  2  0
 19  2  2  0
 12  8  1  0
 17 13  1  0
  1 23  1  0
  1 24  1  0
  1 25  1  0
  3 26  1  0
  4 27  1  0
  6 28  1  0
  7 29  1  0
  7 30  1  0
  9 31  1  0
 10 32  1  0
 14 33  1  0
 16 34  1  0
 17 35  1  0
 18 36  1  0
 21 37  1  0
 21 38  1  0
M  END
$$$$
OCNT-2313037
     RDKit          3D

 40 43  0  0  0  0  0  0  0  0999 V2000
   -6.7731    0.0939   -2.2687 C   0  0  0  0  0  0  0  0  0  0  0  0
   -5.3997   -0.0211   -1.9168 O   0  0  0  0  0  0  0  0  0  0  0  0
   -5.0563    0.3171   -0.6347 C   0  0  0  0  0  0  0  0  0  0  0  0
   -5.9345    0.7549    0.3586 C   0  0  0  0  0  0  0  0  0  0  0  0
   -5.4775    1.0766    1.6444 C   0  0  0  0  0  0  0  0  0  0  0  0
   -4.1091    0.9397    1.8890 C   0  0  0  0  0  0  0  0  0  0  0  0
   -3.3550    1.1646    3.0069 N   0  0  0  0  0  0  0  0  0  0  0  0
   -2.0515    0.9055    2.8494 N   0  0  0  0  0  0  0  0  0  0  0  0
   -1.9345    0.5124    1.5819 C   0  0  0  0  0  0  0  0  0  0  0  0
   -0.7552    0.1379    0.9693 N   0  0  0  0  0  0  0  0  0  0  0  0
    0.5019    0.1943    1.5452 C   0  0  0  0  0  0  0  0  0  0  0  0
    0.7699    0.6435    2.6544 O   0  0  0  0  0  0  0  0  0  0  0  0
    1.5659   -0.3409    0.6563 C   0  0  0  0  0  0  0  0  0  0  0  0
    2.8565   -0.0116    0.8356 N   0  0  0  0  0  0  0  0  0  0  0  0
    3.5575   -0.6700   -0.1187 N   0  0  0  0  0  0  0  0  0  0  0  0
    4.9710   -0.5291   -0.1846 C   0  0  0  0  0  0  0  0  0  0  0  0
    5.6226    0.2846    0.7626 C   0  0  0  0  0  0  0  0  0  0  0  0
    7.0103    0.4422    0.7244 C   0  0  0  0  0  0  0  0  0  0  0  0
    7.7472   -0.2095   -0.2559 C   0  0  0  0  0  0  0  0  0  0  0  0
    9.0771   -0.0581   -0.2929 F   0  0  0  0  0  0  0  0  0  0  0  0
    7.1247   -1.0152   -1.1984 C   0  0  0  0  0  0  0  0  0  0  0  0
    5.7403   -1.1723   -1.1598 C   0  0  0  0  0  0  0  0  0  0  0  0
    5.1915   -1.9583   -2.0953 F   0  0  0  0  0  0  0  0  0  0  0  0
    2.7178   -1.4124   -0.9160 C   0  0  0  0  0  0  0  0  0  0  0  0
    1.4406   -1.2284   -0.4435 C   0  0  0  0  0  0  0  0  0  0  0  0
   -3.2044    0.5073    0.9274 C   0  0  0  0  0  0  0  0  0  0  0  0
   -3.6869    0.1907   -0.3577 C   0  0  0  0  0  0  0  0  0  0  0  0
   -7.3921   -0.5799   -1.6671 H   0  0  0  0  0  0  0  0  0  0  0  0
   -6.8758   -0.2063   -3.3160 H   0  0  0  0  0  0  0  0  0  0  0  0
   -7.1169    1.1300   -2.1841 H   0  0  0  0  0  0  0  0  0  0  0  0
   -6.9982    0.8602    0.1667 H   0  0  0  0  0  0  0  0  0  0  0  0
   -6.1648    1.4171    2.4125 H   0  0  0  0  0  0  0  0  0  0  0  0
   -3.6690    1.4924    3.9132 H   0  0  0  0  0  0  0  0  0  0  0  0
   -0.8399   -0.1401    0.0064 H   0  0  0  0  0  0  0  0  0  0  0  0
    5.0605    0.8019    1.5404 H   0  0  0  0  0  0  0  0  0  0  0  0
    7.5154    1.0681    1.4542 H   0  0  0  0  0  0  0  0  0  0  0  0
    7.7115   -1.5180   -1.9587 H   0  0  0  0  0  0  0  0  0  0  0  0
    3.0765   -2.0172   -1.7342 H   0  0  0  0  0  0  0  0  0  0  0  0
    0.5494   -1.6979   -0.8346 H   0  0  0  0  0  0  0  0  0  0  0  0
   -3.0139   -0.1487   -1.1387 H   0  0  0  0  0  0  0  0  0  0  0  0
  1  2  1  0
  2  3  1  0
  3  4  2  0
  4  5  1  0
  5  6  2  0
  6  7  1  0
  7  8  1  0
  8  9  2  0
  9 10  1  0
 10 11  1  0
 11 12  2  0
 11 13  1  0
 13 14  2  0
 14 15  1  0
 15 16  1  0
 16 17  1  0
 17 18  2  0
 18 19  1  0
 19 20  1  0
 19 21  2  0
 21 22  1  0
 22 23  1  0
 15 24  1  0
 24 25  2  0
  9 26  1  0
 26 27  2  0
 27  3  1  0
 26  6  1  0
 25 13  1  0
 22 16  2  0
  1 28  1  0
  1 29  1  0
  1 30  1  0
  4 31  1  0
  5 32  1  0
  7 33  1  0
 10 34  1  0
 17 35  1  0
 18 36  1  0
 21 37  1  0
 24 38  1  0
 25 39  1  0
 27 40  1  0
M  END
$$$$
OCNT-2313041
     RDKit          3D

 41 43  0  0  0  0  0  0  0  0999 V2000
   -5.6813    2.0072   -0.7862 C   0  0  0  0  0  0  0  0  0  0  0  0
   -4.9269    0.8311   -0.3979 N   0  0  0  0  0  0  0  0  0  0  0  0
   -5.5868   -0.3469   -0.1474 C   0  0  0  0  0  0  0  0  0  0  0  0
   -4.9211   -1.4299    0.2612 C   0  0  0  0  0  0  0  0  0  0  0  0
   -3.5705   -1.4978    0.4547 N   0  0  0  0  0  0  0  0  0  0  0  0
   -2.8521   -0.4197    0.2433 C   0  0  0  0  0  0  0  0  0  0  0  0
   -1.4661   -0.4814    0.4144 N   0  0  0  0  0  0  0  0  0  0  0  0
   -0.5427    0.5583   -0.0556 C   0  0  0  0  0  0  0  0  0  0  0  0
    0.8794    0.0098   -0.2714 C   0  0  0  0  0  0  0  0  0  0  0  0
    1.4574   -0.5974    0.9740 N   0  0  0  0  0  0  0  0  0  0  0  0
    2.8037   -1.6175    0.7189 S   0  0  0  0  0  0  0  0  0  0  0  0
    2.3967   -2.6310   -0.2319 O   0  0  0  0  0  0  0  0  0  0  0  0
    3.3425   -1.9808    2.0120 O   0  0  0  0  0  0  0  0  0  0  0  0
    3.9748   -0.5383   -0.0616 C   0  0  0  0  0  0  0  0  0  0  0  0
    4.3297   -0.7362   -1.3987 C   0  0  0  0  0  0  0  0  0  0  0  0
    5.2521    0.1236   -1.9950 C   0  0  0  0  0  0  0  0  0  0  0  0
    5.8157    1.1664   -1.2562 C   0  0  0  0  0  0  0  0  0  0  0  0
    5.4638    1.3530    0.0820 C   0  0  0  0  0  0  0  0  0  0  0  0
    4.5425    0.4982    0.6859 C   0  0  0  0  0  0  0  0  0  0  0  0
    0.4078   -1.2129    1.8573 C   0  0  0  0  0  0  0  0  0  0  0  0
   -0.8457   -1.6382    1.0784 C   0  0  0  0  0  0  0  0  0  0  0  0
   -3.5533    0.9266   -0.1846 C   0  0  0  0  0  0  0  0  0  0  0  0
   -2.9098    1.9637   -0.2952 O   0  0  0  0  0  0  0  0  0  0  0  0
   -5.0247    2.7903   -1.1761 H   0  0  0  0  0  0  0  0  0  0  0  0
   -6.2073    2.3931    0.0926 H   0  0  0  0  0  0  0  0  0  0  0  0
   -6.4063    1.7412   -1.5620 H   0  0  0  0  0  0  0  0  0  0  0  0
   -6.6631   -0.3631   -0.2868 H   0  0  0  0  0  0  0  0  0  0  0  0
   -5.4646   -2.3512    0.4569 H   0  0  0  0  0  0  0  0  0  0  0  0
   -0.5173    1.3745    0.6755 H   0  0  0  0  0  0  0  0  0  0  0  0
   -0.8760    0.9571   -1.0196 H   0  0  0  0  0  0  0  0  0  0  0  0
    1.5253    0.8345   -0.5907 H   0  0  0  0  0  0  0  0  0  0  0  0
    0.8504   -0.7353   -1.0750 H   0  0  0  0  0  0  0  0  0  0  0  0
    3.9003   -1.5514   -1.9766 H   0  0  0  0  0  0  0  0  0  0  0  0
    5.5374   -0.0208   -3.0344 H   0  0  0  0  0  0  0  0  0  0  0  0
    6.5378    1.8322   -1.7236 H   0  0  0  0  0  0  0  0  0  0  0  0
    5.9123    2.1614    0.6543 H   0  0  0  0  0  0  0  0  0  0  0  0
    4.2719    0.6382    1.7303 H   0  0  0  0  0  0  0  0  0  0  0  0
    0.8034   -2.0762    2.4026 H   0  0  0  0  0  0  0  0  0  0  0  0
    0.1447   -0.4630    2.6141 H   0  0  0  0  0  0  0  0  0  0  0  0
   -1.5400   -2.0959    1.7923 H   0  0  0  0  0  0  0  0  0  0  0  0
   -0.5939   -2.3939    0.3254 H   0  0  0  0  0  0  0  0  0  0  0  0
  1  2  1  0
  2  3  1  0
  3  4  2  0
  4  5  1  0
  5  6  2  0
  6  7  1  0
  7  8  1  0
  8  9  1  0
  9 10  1  0
 10 11  1  0
 11 12  2  0
 11 13  2  0
 11 14  1  0
 14 15  2  0
 15 16  1  0
 16 17  2  0
 17 18  1  0
 18 19  2  0
 10 20  1  0
 20 21  1  0
  6 22  1  0
 22 23  2  0
 22  2  1  0
 21  7  1  0
 19 14  1  0
  1 24  1  0
  1 25  1  0
  1 26  1  0
  3 27  1  0
  4 28  1  0
  8 29  1  0
  8 30  1  0
  9 31  1  0
  9 32  1  0
 15 33  1  0
 16 34  1  0
 17 35  1  0
 18 36  1  0
 19 37  1  0
 20 38  1  0
 20 39  1  0
 21 40  1  0
 21 41  1  0
M  END
$$$$
OCNT-2313054
     RDKit          3D

 41 43  0  0  0  0  0  0  0  0999 V2000
   -5.9446   -1.2313    2.3887 C   0  0  0  0  0  0  0  0  0  0  0  0
   -4.5171   -1.1933    2.4188 O   0  0  0  0  0  0  0  0  0  0  0  0
   -3.9187   -1.6192    1.2712 C   0  0  0  0  0  0  0  0  0  0  0  0
   -4.5062   -2.0144    0.2739 O   0  0  0  0  0  0  0  0  0  0  0  0
   -2.4188   -1.5336    1.4044 C   0  0  0  0  0  0  0  0  0  0  0  0
   -1.9463   -0.0780    1.3829 C   0  0  0  0  0  0  0  0  0  0  0  0
   -0.5218    0.0671    1.9450 C   0  0  0  0  0  0  0  0  0  0  0  0
    0.3829    0.2269    0.8027 N   0  0  0  0  0  0  0  0  0  0  0  0
    1.7547    0.2082    1.0087 C   0  0  0  0  0  0  0  0  0  0  0  0
    2.2352    0.2767    2.1447 O   0  0  0  0  0  0  0  0  0  0  0  0
    2.7118    0.0394   -0.1221 C   0  0  0  0  0  0  0  0  0  0  0  0
    3.9511    0.6707   -0.0485 C   0  0  0  0  0  0  0  0  0  0  0  0
    4.8828    0.4477   -1.0688 C   0  0  0  0  0  0  0  0  0  0  0  0
    6.2280    1.1230   -1.0540 C   0  0  0  0  0  0  0  0  0  0  0  0
    6.2651    2.2054   -1.8772 F   0  0  0  0  0  0  0  0  0  0  0  0
    6.5943    1.5730    0.1760 F   0  0  0  0  0  0  0  0  0  0  0  0
    7.2324    0.3036   -1.4690 F   0  0  0  0  0  0  0  0  0  0  0  0
    4.5286   -0.4038   -2.1227 C   0  0  0  0  0  0  0  0  0  0  0  0
    3.2769   -1.0028   -2.1052 C   0  0  0  0  0  0  0  0  0  0  0  0
    2.3662   -0.8068   -1.1293 N   0  0  0  0  0  0  0  0  0  0  0  0
   -0.3852    0.5888   -0.3175 C   0  0  0  0  0  0  0  0  0  0  0  0
    0.0062    1.0931   -1.5465 C   0  0  0  0  0  0  0  0  0  0  0  0
   -0.9790    1.4159   -2.4874 C   0  0  0  0  0  0  0  0  0  0  0  0
   -2.3371    1.2519   -2.1885 C   0  0  0  0  0  0  0  0  0  0  0  0
   -2.7304    0.7687   -0.9416 C   0  0  0  0  0  0  0  0  0  0  0  0
   -1.7460    0.4473   -0.0158 C   0  0  0  0  0  0  0  0  0  0  0  0
   -6.3070   -0.7015    3.2726 H   0  0  0  0  0  0  0  0  0  0  0  0
   -6.2937   -2.2671    2.4315 H   0  0  0  0  0  0  0  0  0  0  0  0
   -6.3348   -0.7219    1.5023 H   0  0  0  0  0  0  0  0  0  0  0  0
   -1.9603   -2.1317    0.6041 H   0  0  0  0  0  0  0  0  0  0  0  0
   -2.1583   -2.0250    2.3500 H   0  0  0  0  0  0  0  0  0  0  0  0
   -2.6264    0.5753    1.9448 H   0  0  0  0  0  0  0  0  0  0  0  0
   -0.4363    0.9730    2.5609 H   0  0  0  0  0  0  0  0  0  0  0  0
   -0.2046   -0.7821    2.5611 H   0  0  0  0  0  0  0  0  0  0  0  0
    4.1867    1.3133    0.7977 H   0  0  0  0  0  0  0  0  0  0  0  0
    5.2190   -0.6006   -2.9382 H   0  0  0  0  0  0  0  0  0  0  0  0
    2.9664   -1.6784   -2.8999 H   0  0  0  0  0  0  0  0  0  0  0  0
    1.0433    1.2624   -1.8054 H   0  0  0  0  0  0  0  0  0  0  0  0
   -0.6864    1.8034   -3.4606 H   0  0  0  0  0  0  0  0  0  0  0  0
   -3.0886    1.5073   -2.9322 H   0  0  0  0  0  0  0  0  0  0  0  0
   -3.7842    0.6495   -0.7118 H   0  0  0  0  0  0  0  0  0  0  0  0
  1  2  1  0
  2  3  1  0
  3  4  2  0
  3  5  1  0
  5  6  1  0
  6  7  1  0
  7  8  1  0
  8  9  1  0
  9 10  2  0
  9 11  1  0
 11 12  2  0
 12 13  1  0
 13 14  1  0
 14 15  1  0
 14 16  1  0
 14 17  1  0
 13 18  2  0
 18 19  1  0
 19 20  2  0
  8 21  1  0
 21 22  2  0
 22 23  1  0
 23 24  2  0
 24 25  1  0
 25 26  2  0
 26  6  1  0
 20 11  1  0
 26 21  1  0
  1 27  1  0
  1 28  1  0
  1 29  1  0
  5 30  1  0
  5 31  1  0
  6 32  1  0
  7 33  1  0
  7 34  1  0
 12 35  1  0
 18 36  1  0
 19 37  1  0
 22 38  1  0
 23 39  1  0
 24 40  1  0
 25 41  1  0
M  END
$$$$
OCNT-2313058
     RDKit          3D

 44 46  0  0  0  0  0  0  0  0999 V2000
    0.0752   -0.0179    1.6354 O   0  0  0  0  0  0  0  0  0  0  0  0
   -0.1135   -0.0938    0.4274 C   0  0  0  0  0  0  0  0  0  0  0  0
   -1.5086   -0.2224   -0.1705 C   0  0  0  0  0  0  0  0  0  0  0  0
   -2.5959   -0.3100    0.9019 C   0  0  0  0  0  0  0  0  0  0  0  0
   -4.0007   -0.5721    0.3302 C   0  0  0  0  0  0  0  0  0  0  0  0
   -5.0017   -0.7972    1.4759 C   0  0  0  0  0  0  0  0  0  0  0  0
   -6.4259   -0.9697    0.9510 C   0  0  0  0  0  0  0  0  0  0  0  0
   -6.8430    0.1703    0.1334 N   0  0  0  0  0  0  0  0  0  0  0  0
   -5.9459    0.3496   -1.0076 C   0  0  0  0  0  0  0  0  0  0  0  0
   -4.4975    0.5705   -0.5692 C   0  0  0  0  0  0  0  0  0  0  0  0
    0.8575   -0.0688   -0.5623 N   0  0  0  0  0  0  0  0  0  0  0  0
    2.2527    0.0430   -0.3945 C   0  0  0  0  0  0  0  0  0  0  0  0
    2.8868    0.1485    0.8416 C   0  0  0  0  0  0  0  0  0  0  0  0
    4.2829    0.2565    0.9254 C   0  0  0  0  0  0  0  0  0  0  0  0
    5.0707    0.2604   -0.2326 C   0  0  0  0  0  0  0  0  0  0  0  0
    6.4895    0.3703   -0.1450 N   0  0  0  0  0  0  0  0  0  0  0  0
    7.2543    0.4820    0.9979 C   0  0  0  0  0  0  0  0  0  0  0  0
    8.5621    0.5596    0.5814 C   0  0  0  0  0  0  0  0  0  0  0  0
    8.6410    0.5005   -0.7785 N   0  0  0  0  0  0  0  0  0  0  0  0
    7.3954    0.3881   -1.1859 C   0  0  0  0  0  0  0  0  0  0  0  0
    4.4347    0.1542   -1.4758 C   0  0  0  0  0  0  0  0  0  0  0  0
    3.0391    0.0467   -1.5511 C   0  0  0  0  0  0  0  0  0  0  0  0
   -1.5322   -1.1228   -0.7955 H   0  0  0  0  0  0  0  0  0  0  0  0
   -1.6757    0.6504   -0.8111 H   0  0  0  0  0  0  0  0  0  0  0  0
   -2.6000    0.6146    1.4937 H   0  0  0  0  0  0  0  0  0  0  0  0
   -2.3419   -1.1193    1.5992 H   0  0  0  0  0  0  0  0  0  0  0  0
   -3.9630   -1.4910   -0.2709 H   0  0  0  0  0  0  0  0  0  0  0  0
   -4.9706    0.0520    2.1713 H   0  0  0  0  0  0  0  0  0  0  0  0
   -4.7180   -1.6876    2.0497 H   0  0  0  0  0  0  0  0  0  0  0  0
   -7.1157   -1.0690    1.7964 H   0  0  0  0  0  0  0  0  0  0  0  0
   -6.5086   -1.8958    0.3693 H   0  0  0  0  0  0  0  0  0  0  0  0
   -6.8225    1.0133    0.7082 H   0  0  0  0  0  0  0  0  0  0  0  0
   -6.0124   -0.5200   -1.6728 H   0  0  0  0  0  0  0  0  0  0  0  0
   -6.2842    1.2137   -1.5901 H   0  0  0  0  0  0  0  0  0  0  0  0
   -4.4193    1.5264   -0.0351 H   0  0  0  0  0  0  0  0  0  0  0  0
   -3.8710    0.6520   -1.4643 H   0  0  0  0  0  0  0  0  0  0  0  0
    0.5305   -0.1389   -1.5177 H   0  0  0  0  0  0  0  0  0  0  0  0
    2.3259    0.1506    1.7715 H   0  0  0  0  0  0  0  0  0  0  0  0
    4.7113    0.3354    1.9202 H   0  0  0  0  0  0  0  0  0  0  0  0
    6.8371    0.4985    1.9924 H   0  0  0  0  0  0  0  0  0  0  0  0
    9.4488    0.6552    1.1949 H   0  0  0  0  0  0  0  0  0  0  0  0
    7.1078    0.3170   -2.2246 H   0  0  0  0  0  0  0  0  0  0  0  0
    4.9838    0.1508   -2.4124 H   0  0  0  0  0  0  0  0  0  0  0  0
    2.5808   -0.0339   -2.5340 H   0  0  0  0  0  0  0  0  0  0  0  0
  1  2  2  0
  2  3  1  0
  3  4  1  0
  4  5  1  0
  5  6  1  0
  6  7  1  0
  7  8  1  0
  8  9  1  0
  9 10  1  0
  2 11  1  0
 11 12  1  0
 12 13  1  0
 13 14  2  0
 14 15  1  0
 15 16  1  0
 16 17  1  0
 17 18  2  0
 18 19  1  0
 19 20  2  0
 15 21  2  0
 21 22  1  0
 10  5  1  0
 22 12  2  0
 20 16  1  0
  3 23  1  0
  3 24  1  0
  4 25  1  0
  4 26  1  0
  5 27  1  0
  6 28  1  0
  6 29  1  0
  7 30  1  0
  7 31  1  0
  8 32  1  0
  9 33  1  0
  9 34  1  0
 10 35  1  0
 10 36  1  0
 11 37  1  0
 13 38  1  0
 14 39  1  0
 17 40  1  0
 18 41  1  0
 20 42  1  0
 21 43  1  0
 22 44  1  0
M  END
$$$$
OCNT-2313060
     RDKit          3D

 50 52  0  0  0  0  0  0  0  0999 V2000
   -1.6442   -2.7240   -1.3319 C   0  0  0  0  0  0  0  0  0  0  0  0
   -1.3645   -1.7298   -2.4478 C   0  0  0  0  0  0  0  0  0  0  0  0
   -0.9578   -0.3065   -2.0181 C   0  0  0  0  0  0  0  0  0  0  0  0
    0.3830   -0.3218   -1.4424 N   0  0  0  0  0  0  0  0  0  0  0  0
    1.2327    0.7607   -1.5011 C   0  0  0  0  0  0  0  0  0  0  0  0
    0.9956    1.7509   -2.1871 O   0  0  0  0  0  0  0  0  0  0  0  0
    2.4941    0.6877   -0.6927 C   0  0  0  0  0  0  0  0  0  0  0  0
    3.4926    1.6219   -1.0180 C   0  0  0  0  0  0  0  0  0  0  0  0
    4.7072    1.6445   -0.3312 C   0  0  0  0  0  0  0  0  0  0  0  0
    4.9497    0.7374    0.7042 C   0  0  0  0  0  0  0  0  0  0  0  0
    6.2847    0.7459    1.4043 C   0  0  0  0  0  0  0  0  0  0  0  0
    6.1760    0.2214    2.7215 O   0  0  0  0  0  0  0  0  0  0  0  0
    3.9550   -0.2018    1.0262 C   0  0  0  0  0  0  0  0  0  0  0  0
    2.7218   -0.2270    0.3550 C   0  0  0  0  0  0  0  0  0  0  0  0
    1.7207   -1.1167    0.6622 O   0  0  0  0  0  0  0  0  0  0  0  0
    1.8139   -1.8016    1.9078 C   0  0  0  0  0  0  0  0  0  0  0  0
   -1.9331    0.4902   -1.1237 C   0  0  0  0  0  0  0  0  0  0  0  0
   -3.4197    0.4158   -1.5368 C   0  0  0  0  0  0  0  0  0  0  0  0
   -4.1076    0.7464   -0.2482 C   0  0  0  0  0  0  0  0  0  0  0  0
   -5.4326    1.1039   -0.0618 C   0  0  0  0  0  0  0  0  0  0  0  0
   -5.8810    1.3325    1.2408 C   0  0  0  0  0  0  0  0  0  0  0  0
   -5.0094    1.1914    2.3317 C   0  0  0  0  0  0  0  0  0  0  0  0
   -3.6778    0.8200    2.1345 C   0  0  0  0  0  0  0  0  0  0  0  0
   -3.2398    0.6051    0.8383 C   0  0  0  0  0  0  0  0  0  0  0  0
   -1.8763    0.1781    0.3907 C   0  0  0  0  0  0  0  0  0  0  0  0
   -0.8048   -2.7989   -0.6348 H   0  0  0  0  0  0  0  0  0  0  0  0
   -1.8104   -3.7196   -1.7570 H   0  0  0  0  0  0  0  0  0  0  0  0
   -2.5463   -2.4588   -0.7744 H   0  0  0  0  0  0  0  0  0  0  0  0
   -2.2441   -1.6787   -3.1001 H   0  0  0  0  0  0  0  0  0  0  0  0
   -0.5602   -2.1446   -3.0704 H   0  0  0  0  0  0  0  0  0  0  0  0
   -0.8793    0.2622   -2.9557 H   0  0  0  0  0  0  0  0  0  0  0  0
    0.6040   -1.0282   -0.7473 H   0  0  0  0  0  0  0  0  0  0  0  0
    3.3260    2.3399   -1.8200 H   0  0  0  0  0  0  0  0  0  0  0  0
    5.4599    2.3772   -0.6149 H   0  0  0  0  0  0  0  0  0  0  0  0
    6.6654    1.7698    1.4828 H   0  0  0  0  0  0  0  0  0  0  0  0
    6.9981    0.1357    0.8410 H   0  0  0  0  0  0  0  0  0  0  0  0
    7.0532    0.3152    3.1296 H   0  0  0  0  0  0  0  0  0  0  0  0
    4.1748   -0.9124    1.8186 H   0  0  0  0  0  0  0  0  0  0  0  0
    0.8683   -2.3290    2.0666 H   0  0  0  0  0  0  0  0  0  0  0  0
    2.6110   -2.5512    1.8810 H   0  0  0  0  0  0  0  0  0  0  0  0
    1.9489   -1.1035    2.7407 H   0  0  0  0  0  0  0  0  0  0  0  0
   -1.6417    1.5507   -1.2117 H   0  0  0  0  0  0  0  0  0  0  0  0
   -3.6468    1.1445   -2.3209 H   0  0  0  0  0  0  0  0  0  0  0  0
   -3.7331   -0.5804   -1.8575 H   0  0  0  0  0  0  0  0  0  0  0  0
   -6.1093    1.2048   -0.9041 H   0  0  0  0  0  0  0  0  0  0  0  0
   -6.9154    1.6192    1.4128 H   0  0  0  0  0  0  0  0  0  0  0  0
   -5.3761    1.3709    3.3393 H   0  0  0  0  0  0  0  0  0  0  0  0
   -3.0057    0.7061    2.9787 H   0  0  0  0  0  0  0  0  0  0  0  0
   -1.7271   -0.8799    0.6132 H   0  0  0  0  0  0  0  0  0  0  0  0
   -1.0930    0.7645    0.8821 H   0  0  0  0  0  0  0  0  0  0  0  0
  1  2  1  0
  2  3  1  0
  3  4  1  0
  4  5  1  0
  5  6  2  0
  5  7  1  0
  7  8  1  0
  8  9  2  0
  9 10  1  0
 10 11  1  0
 11 12  1  0
 10 13  2  0
 13 14  1  0
 14 15  1  0
 15 16  1  0
  3 17  1  0
 17 18  1  0
 18 19  1  0
 19 20  2  0
 20 21  1  0
 21 22  2  0
 22 23  1  0
 23 24  2  0
 24 25  1  0
 14  7  2  0
 25 17  1  0
 24 19  1  0
  1 26  1  0
  1 27  1  0
  1 28  1  0
  2 29  1  0
  2 30  1  0
  3 31  1  0
  4 32  1  0
  8 33  1  0
  9 34  1  0
 11 35  1  0
 11 36  1  0
 12 37  1  0
 13 38  1  0
 16 39  1  0
 16 40  1  0
 16 41  1  0
 17 42  1  0
 18 43  1  0
 18 44  1  0
 20 45  1  0
 21 46  1  0
 22 47  1  0
 23 48  1  0
 25 49  1  0
 25 50  1  0
M  END
$$$$
OCNT-2313098
     RDKit          3D

  0  0  0  0  0  0  0  0  0  0999 V3000
M  V30 BEGIN CTAB
M  V30 COUNTS 45 47 0 0 0
M  V30 BEGIN ATOM
M  V30 1 O 0.141878 -3.333615 0.624934 0
M  V30 2 C 0.839581 -2.699626 -0.160779 0
M  V30 3 C 2.347671 -2.604466 0.002572 0
M  V30 4 C 2.833570 -1.184175 0.195393 0
M  V30 5 C 2.370998 -0.425300 1.282395 0
M  V30 6 C 2.784035 0.896139 1.486120 0
M  V30 7 C 3.685390 1.427862 0.561381 0
M  V30 8 N 4.278191 2.660000 0.470648 0
M  V30 9 N 5.104382 2.797190 -0.582349 0
M  V30 10 C 5.042533 1.604428 -1.180229 0
M  V30 11 C 4.174040 0.706416 -0.520708 0
M  V30 12 C 3.749852 -0.620716 -0.712073 0
M  V30 13 N 0.352259 -2.032090 -1.264667 0
M  V30 14 C -1.066505 -1.882280 -1.537911 0
M  V30 15 C -1.544641 -0.460158 -1.215255 0
M  V30 16 C -1.782002 -0.215247 0.297847 0 CFG=1
M  V30 17 C -1.368571 1.210645 0.728001 0
M  V30 18 C -2.533908 2.180957 0.932093 0
M  V30 19 C -3.679766 1.905960 -0.027060 0
M  V30 20 C -4.245737 0.499470 0.153983 0
M  V30 21 C -3.234964 -0.504866 0.721461 0 CFG=1
M  V30 22 O -3.621779 -1.814742 0.324569 0
M  V30 23 H 2.649251 -3.203960 0.869811 0
M  V30 24 H 2.812433 -3.064956 -0.877553 0
M  V30 25 H 1.667049 -0.865768 1.989482 0
M  V30 26 H 2.416191 1.473189 2.328132 0
M  V30 27 H 4.160515 3.449426 1.095028 0
M  V30 28 H 5.630110 1.435221 -2.073037 0
M  V30 29 H 4.130596 -1.194245 -1.552532 0
M  V30 30 H 0.993336 -1.458573 -1.797820 0
M  V30 31 H -1.639571 -2.645008 -1.004752 0
M  V30 32 H -1.183887 -2.062030 -2.611968 0
M  V30 33 H -0.802219 0.245558 -1.607779 0
M  V30 34 H -2.467308 -0.272339 -1.775537 0
M  V30 35 H -1.132181 -0.908777 0.844992 0
M  V30 36 H -0.656795 1.641122 0.013853 0
M  V30 37 H -0.819586 1.147643 1.676889 0
M  V30 38 H -2.899350 2.099391 1.963698 0
M  V30 39 H -2.177558 3.210305 0.810830 0
M  V30 40 H -3.323207 2.026547 -1.057478 0
M  V30 41 H -4.477594 2.644277 0.112389 0
M  V30 42 H -5.105135 0.537868 0.836251 0
M  V30 43 H -4.659568 0.147501 -0.799432 0
M  V30 44 H -3.279467 -0.474395 1.818008 0
M  V30 45 H -4.462563 -2.019781 0.768173 0
M  V30 END ATOM
M  V30 BEGIN BOND
M  V30 1 2 1 2
M  V30 2 1 2 3
M  V30 3 1 3 4
M  V30 4 2 4 5
M  V30 5 1 5 6
M  V30 6 2 6 7
M  V30 7 1 7 8
M  V30 8 1 8 9
M  V30 9 2 9 10
M  V30 10 1 10 11
M  V30 11 2 11 12
M  V30 12 1 2 13
M  V30 13 1 13 14
M  V30 14 1 14 15
M  V30 15 1 15 16
M  V30 16 1 16 17
M  V30 17 1 17 18
M  V30 18 1 18 19
M  V30 19 1 19 20
M  V30 20 1 20 21
M  V30 21 1 21 22
M  V30 22 1 12 4
M  V30 23 1 21 16
M  V30 24 1 11 7
M  V30 25 1 3 23
M  V30 26 1 3 24
M  V30 27 1 5 25
M  V30 28 1 6 26
M  V30 29 1 8 27
M  V30 30 1 10 28
M  V30 31 1 12 29
M  V30 32 1 13 30
M  V30 33 1 14 31
M  V30 34 1 14 32
M  V30 35 1 15 33
M  V30 36 1 15 34
M  V30 37 1 16 35 CFG=1
M  V30 38 1 17 36
M  V30 39 1 17 37
M  V30 40 1 18 38
M  V30 41 1 18 39
M  V30 42 1 19 40
M  V30 43 1 19 41
M  V30 44 1 20 42
M  V30 45 1 20 43
M  V30 46 1 21 44 CFG=1
M  V30 47 1 22 45
M  V30 END BOND
M  V30 BEGIN COLLECTION
M  V30 MDLV30/STERAC1 ATOMS=(2 16 21)
M  V30 END COLLECTION
M  V30 END CTAB
M  END
>  <_CXSMILES_Data>  (686) 
|&1:15,20|

$$$$
OCNT-2313103
     RDKit          3D

 49 50  0  0  0  0  0  0  0  0999 V2000
    6.7428    1.2049    1.0672 C   0  0  0  0  0  0  0  0  0  0  0  0
    6.0599    0.7417   -0.2113 C   0  0  0  0  0  0  0  0  0  0  0  0
    4.9991   -0.2280    0.0511 N   0  0  0  0  0  0  0  0  0  0  0  0
    5.3204   -1.5694    0.1464 C   0  0  0  0  0  0  0  0  0  0  0  0
    4.3989   -2.4822    0.4693 C   0  0  0  0  0  0  0  0  0  0  0  0
    3.0289   -2.0869    0.6716 C   0  0  0  0  0  0  0  0  0  0  0  0
    2.6423   -0.8062    0.5473 C   0  0  0  0  0  0  0  0  0  0  0  0
    1.3134   -0.4563    0.6896 N   0  0  0  0  0  0  0  0  0  0  0  0
    0.7008    0.5333   -0.0508 C   0  0  0  0  0  0  0  0  0  0  0  0
    1.1722    0.9808   -1.0934 O   0  0  0  0  0  0  0  0  0  0  0  0
   -0.5394    0.9322    0.4404 N   0  0  0  0  0  0  0  0  0  0  0  0
   -1.1648    0.4466    1.6626 C   0  0  0  0  0  0  0  0  0  0  0  0
   -2.0125   -0.8021    1.4475 C   0  0  0  0  0  0  0  0  0  0  0  0
   -2.7071   -0.9319    0.0894 C   0  0  0  0  0  0  0  0  0  0  0  0
   -3.4156    0.3472   -0.4284 C   0  0  0  0  0  0  0  0  0  0  0  0
   -4.6471   -0.0494   -1.3135 C   0  0  0  0  0  0  0  0  0  0  0  0
   -5.2341    1.1161   -2.1205 C   0  0  0  0  0  0  0  0  0  0  0  0
   -5.7817   -0.6371   -0.4560 C   0  0  0  0  0  0  0  0  0  0  0  0
   -2.3994    1.2305   -1.2000 C   0  0  0  0  0  0  0  0  0  0  0  0
   -1.3209    1.8853   -0.3344 C   0  0  0  0  0  0  0  0  0  0  0  0
    3.7117    0.2562    0.3324 C   0  0  0  0  0  0  0  0  0  0  0  0
    3.4696    1.4541    0.4751 O   0  0  0  0  0  0  0  0  0  0  0  0
    7.2047    0.3635    1.5939 H   0  0  0  0  0  0  0  0  0  0  0  0
    7.5252    1.9344    0.8366 H   0  0  0  0  0  0  0  0  0  0  0  0
    6.0279    1.6742    1.7506 H   0  0  0  0  0  0  0  0  0  0  0  0
    6.7938    0.2951   -0.8927 H   0  0  0  0  0  0  0  0  0  0  0  0
    5.6326    1.6089   -0.7284 H   0  0  0  0  0  0  0  0  0  0  0  0
    6.3548   -1.8481   -0.0321 H   0  0  0  0  0  0  0  0  0  0  0  0
    4.6562   -3.5330    0.5512 H   0  0  0  0  0  0  0  0  0  0  0  0
    2.3138   -2.8806    0.8590 H   0  0  0  0  0  0  0  0  0  0  0  0
    0.6826   -1.1843    0.9797 H   0  0  0  0  0  0  0  0  0  0  0  0
   -1.7833    1.2497    2.0810 H   0  0  0  0  0  0  0  0  0  0  0  0
   -0.3958    0.2407    2.4157 H   0  0  0  0  0  0  0  0  0  0  0  0
   -2.7638   -0.8498    2.2460 H   0  0  0  0  0  0  0  0  0  0  0  0
   -1.3849   -1.6917    1.5839 H   0  0  0  0  0  0  0  0  0  0  0  0
   -1.9731   -1.2679   -0.6555 H   0  0  0  0  0  0  0  0  0  0  0  0
   -3.4078   -1.7675    0.1798 H   0  0  0  0  0  0  0  0  0  0  0  0
   -3.7966    0.9239    0.4251 H   0  0  0  0  0  0  0  0  0  0  0  0
   -4.3308   -0.8184   -2.0306 H   0  0  0  0  0  0  0  0  0  0  0  0
   -4.5579    1.4265   -2.9228 H   0  0  0  0  0  0  0  0  0  0  0  0
   -5.4394    1.9797   -1.4791 H   0  0  0  0  0  0  0  0  0  0  0  0
   -6.1733    0.8252   -2.6044 H   0  0  0  0  0  0  0  0  0  0  0  0
   -6.6391   -0.9091   -1.0819 H   0  0  0  0  0  0  0  0  0  0  0  0
   -5.4793   -1.5432    0.0742 H   0  0  0  0  0  0  0  0  0  0  0  0
   -6.1274    0.0892    0.2878 H   0  0  0  0  0  0  0  0  0  0  0  0
   -2.9156    2.0580   -1.6960 H   0  0  0  0  0  0  0  0  0  0  0  0
   -1.9262    0.6367   -1.9924 H   0  0  0  0  0  0  0  0  0  0  0  0
   -1.7752    2.6067    0.3554 H   0  0  0  0  0  0  0  0  0  0  0  0
   -0.6595    2.4682   -0.9858 H   0  0  0  0  0  0  0  0  0  0  0  0
  1  2  1  0
  2  3  1  0
  3  4  1  0
  4  5  2  0
  5  6  1  0
  6  7  2  0
  7  8  1  0
  8  9  1  0
  9 10  2  0
  9 11  1  0
 11 12  1  0
 12 13  1  0
 13 14  1  0
 14 15  1  0
 15 16  1  0
 16 17  1  0
 16 18  1  0
 15 19  1  0
 19 20  1  0
  7 21  1  0
 21 22  2  0
 21  3  1  0
 20 11  1  0
  1 23  1  0
  1 24  1  0
  1 25  1  0
  2 26  1  0
  2 27  1  0
  4 28  1  0
  5 29  1  0
  6 30  1  0
  8 31  1  0
 12 32  1  0
 12 33  1  0
 13 34  1  0
 13 35  1  0
 14 36  1  0
 14 37  1  0
 15 38  1  0
 16 39  1  0
 17 40  1  0
 17 41  1  0
 17 42  1  0
 18 43  1  0
 18 44  1  0
 18 45  1  0
 19 46  1  0
 19 47  1  0
 20 48  1  0
 20 49  1  0
M  END
$$$$
OCNT-2313105
     RDKit          3D

 43 44  0  0  0  0  0  0  0  0999 V2000
   -5.4886   -0.9529    2.6579 C   0  0  0  0  0  0  0  0  0  0  0  0
   -4.2486   -0.9724    2.1451 C   0  0  0  0  0  0  0  0  0  0  0  0
   -3.2947    0.1897    2.2843 C   0  0  0  0  0  0  0  0  0  0  0  0
   -2.4394    0.3771    1.0245 C   0  0  0  0  0  0  0  0  0  0  0  0
   -1.7717   -0.8510    0.5698 N   0  0  0  0  0  0  0  0  0  0  0  0
   -0.8977   -0.9197   -0.5029 C   0  0  0  0  0  0  0  0  0  0  0  0
   -0.4302   -1.9783   -0.9169 O   0  0  0  0  0  0  0  0  0  0  0  0
   -0.6137    0.2800   -1.1003 N   0  0  0  0  0  0  0  0  0  0  0  0
    0.3312    0.3680   -2.1914 C   0  0  0  0  0  0  0  0  0  0  0  0
    1.7307    0.6327   -1.6842 C   0  0  0  0  0  0  0  0  0  0  0  0
    2.5671   -0.4665   -1.4032 C   0  0  0  0  0  0  0  0  0  0  0  0
    3.8545   -0.2772   -0.9061 C   0  0  0  0  0  0  0  0  0  0  0  0
    4.7517   -1.2610   -0.5970 O   0  0  0  0  0  0  0  0  0  0  0  0
    4.2894   -2.6031   -0.7032 C   0  0  0  0  0  0  0  0  0  0  0  0
    4.3084    1.0215   -0.6826 C   0  0  0  0  0  0  0  0  0  0  0  0
    3.4871    2.1233   -0.9404 C   0  0  0  0  0  0  0  0  0  0  0  0
    2.1980    1.9382   -1.4472 C   0  0  0  0  0  0  0  0  0  0  0  0
    1.3133    2.9513   -1.7026 O   0  0  0  0  0  0  0  0  0  0  0  0
    1.8638    4.2469   -1.8742 C   0  0  0  0  0  0  0  0  0  0  0  0
    0.8828    5.0327   -2.3864 F   0  0  0  0  0  0  0  0  0  0  0  0
    2.1727    4.7605   -0.6583 F   0  0  0  0  0  0  0  0  0  0  0  0
   -2.1954   -2.1026    1.2073 C   0  0  0  0  0  0  0  0  0  0  0  0
   -3.7185   -2.1642    1.3788 C   0  0  0  0  0  0  0  0  0  0  0  0
   -5.8648   -0.0944    3.2064 H   0  0  0  0  0  0  0  0  0  0  0  0
   -6.1612   -1.7979    2.5420 H   0  0  0  0  0  0  0  0  0  0  0  0
   -3.8315    1.1211    2.4992 H   0  0  0  0  0  0  0  0  0  0  0  0
   -2.6346   -0.0073    3.1388 H   0  0  0  0  0  0  0  0  0  0  0  0
   -3.0602    0.7370    0.1948 H   0  0  0  0  0  0  0  0  0  0  0  0
   -1.6767    1.1372    1.2250 H   0  0  0  0  0  0  0  0  0  0  0  0
   -0.6736    1.1045   -0.5286 H   0  0  0  0  0  0  0  0  0  0  0  0
   -0.0016    1.1767   -2.8509 H   0  0  0  0  0  0  0  0  0  0  0  0
    0.3072   -0.5491   -2.7920 H   0  0  0  0  0  0  0  0  0  0  0  0
    2.1723   -1.4653   -1.5738 H   0  0  0  0  0  0  0  0  0  0  0  0
    5.1019   -3.2618   -0.3816 H   0  0  0  0  0  0  0  0  0  0  0  0
    3.4348   -2.7816   -0.0421 H   0  0  0  0  0  0  0  0  0  0  0  0
    4.0481   -2.8551   -1.7411 H   0  0  0  0  0  0  0  0  0  0  0  0
    5.3080    1.1770   -0.2827 H   0  0  0  0  0  0  0  0  0  0  0  0
    3.8820    3.1065   -0.7029 H   0  0  0  0  0  0  0  0  0  0  0  0
    2.7284    4.2754   -2.5468 H   0  0  0  0  0  0  0  0  0  0  0  0
   -1.6966   -2.1504    2.1833 H   0  0  0  0  0  0  0  0  0  0  0  0
   -1.8607   -2.9729    0.6336 H   0  0  0  0  0  0  0  0  0  0  0  0
   -4.1865   -2.1768    0.3863 H   0  0  0  0  0  0  0  0  0  0  0  0
   -3.9865   -3.0959    1.8902 H   0  0  0  0  0  0  0  0  0  0  0  0
  1  2  2  0
  2  3  1  0
  3  4  1  0
  4  5  1  0
  5  6  1  0
  6  7  2  0
  6  8  1  0
  8  9  1  0
  9 10  1  0
 10 11  1  0
 11 12  2  0
 12 13  1  0
 13 14  1  0
 12 15  1  0
 15 16  2  0
 16 17  1  0
 17 18  1  0
 18 19  1  0
 19 20  1  0
 19 21  1  0
  5 22  1  0
 22 23  1  0
 23  2  1  0
 17 10  2  0
  1 24  1  0
  1 25  1  0
  3 26  1  0
  3 27  1  0
  4 28  1  0
  4 29  1  0
  8 30  1  0
  9 31  1  0
  9 32  1  0
 11 33  1  0
 14 34  1  0
 14 35  1  0
 14 36  1  0
 15 37  1  0
 16 38  1  0
 19 39  1  0
 22 40  1  0
 22 41  1  0
 23 42  1  0
 23 43  1  0
M  END
$$$$
OCNT-2313113
     RDKit          3D

 39 41  0  0  0  0  0  0  0  0999 V2000
   -4.5588   -0.6392    2.5369 C   0  0  0  0  0  0  0  0  0  0  0  0
   -4.0441    0.4945    1.8367 O   0  0  0  0  0  0  0  0  0  0  0  0
   -4.2309    0.3431    0.4857 C   0  0  0  0  0  0  0  0  0  0  0  0
   -5.4707    0.7049   -0.0513 C   0  0  0  0  0  0  0  0  0  0  0  0
   -5.6819    0.6338   -1.4267 C   0  0  0  0  0  0  0  0  0  0  0  0
   -4.6512    0.2164   -2.2659 C   0  0  0  0  0  0  0  0  0  0  0  0
   -3.4050   -0.1241   -1.7306 C   0  0  0  0  0  0  0  0  0  0  0  0
   -3.1738   -0.0591   -0.3460 C   0  0  0  0  0  0  0  0  0  0  0  0
   -1.8641   -0.4138    0.1918 C   0  0  0  0  0  0  0  0  0  0  0  0
   -1.5898   -1.1757    1.2362 N   0  0  0  0  0  0  0  0  0  0  0  0
   -0.2206   -1.2468    1.3795 N   0  0  0  0  0  0  0  0  0  0  0  0
    0.3161   -0.5241    0.4264 C   0  0  0  0  0  0  0  0  0  0  0  0
    1.6582   -0.3311    0.2250 N   0  0  0  0  0  0  0  0  0  0  0  0
    2.1400    0.4254   -0.8178 C   0  0  0  0  0  0  0  0  0  0  0  0
    1.4246    0.9874   -1.6478 O   0  0  0  0  0  0  0  0  0  0  0  0
    3.6563    0.5517   -0.8823 C   0  0  0  0  0  0  0  0  0  0  0  0
    4.3766   -0.8089   -0.9221 C   0  0  0  0  0  0  0  0  0  0  0  0
    5.1926   -0.8767    0.3641 C   0  0  0  0  0  0  0  0  0  0  0  0
    5.5162    0.5752    0.6320 C   0  0  0  0  0  0  0  0  0  0  0  0
    6.4997    0.9920   -0.1966 F   0  0  0  0  0  0  0  0  0  0  0  0
    5.9220    0.7787    1.8959 F   0  0  0  0  0  0  0  0  0  0  0  0
    4.2302    1.3087    0.3223 C   0  0  0  0  0  0  0  0  0  0  0  0
   -0.6773    0.0133   -0.3411 N   0  0  0  0  0  0  0  0  0  0  0  0
   -4.2094   -1.5845    2.1067 H   0  0  0  0  0  0  0  0  0  0  0  0
   -5.6536   -0.6151    2.5529 H   0  0  0  0  0  0  0  0  0  0  0  0
   -4.2033   -0.5843    3.5702 H   0  0  0  0  0  0  0  0  0  0  0  0
   -6.2656    1.0523    0.6029 H   0  0  0  0  0  0  0  0  0  0  0  0
   -6.6473    0.9097   -1.8433 H   0  0  0  0  0  0  0  0  0  0  0  0
   -4.8160    0.1570   -3.3391 H   0  0  0  0  0  0  0  0  0  0  0  0
   -2.6218   -0.4566   -2.4086 H   0  0  0  0  0  0  0  0  0  0  0  0
    2.2596   -0.7972    0.8904 H   0  0  0  0  0  0  0  0  0  0  0  0
    3.8940    1.0964   -1.8056 H   0  0  0  0  0  0  0  0  0  0  0  0
    5.0565   -0.8292   -1.7832 H   0  0  0  0  0  0  0  0  0  0  0  0
    3.7053   -1.6676   -1.0217 H   0  0  0  0  0  0  0  0  0  0  0  0
    6.0915   -1.4871    0.2394 H   0  0  0  0  0  0  0  0  0  0  0  0
    4.6006   -1.2993    1.1834 H   0  0  0  0  0  0  0  0  0  0  0  0
    3.5597    1.2970    1.1886 H   0  0  0  0  0  0  0  0  0  0  0  0
    4.4206    2.3570    0.0698 H   0  0  0  0  0  0  0  0  0  0  0  0
   -0.5352    0.6259   -1.1327 H   0  0  0  0  0  0  0  0  0  0  0  0
  1  2  1  0
  2  3  1  0
  3  4  2  0
  4  5  1  0
  5  6  2  0
  6  7  1  0
  7  8  2  0
  8  9  1  0
  9 10  2  0
 10 11  1  0
 11 12  2  0
 12 13  1  0
 13 14  1  0
 14 15  2  0
 14 16  1  0
 16 17  1  0
 17 18  1  0
 18 19  1  0
 19 20  1  0
 19 21  1  0
 19 22  1  0
 12 23  1  0
  8  3  1  0
 23  9  1  0
 22 16  1  0
  1 24  1  0
  1 25  1  0
  1 26  1  0
  4 27  1  0
  5 28  1  0
  6 29  1  0
  7 30  1  0
 13 31  1  0
 16 32  1  0
 17 33  1  0
 17 34  1  0
 18 35  1  0
 18 36  1  0
 22 37  1  0
 22 38  1  0
 23 39  1  0
M  END
$$$$
OCNT-2313117
     RDKit          3D

 40 42  0  0  0  0  0  0  0  0999 V2000
   -4.2720   -3.0305    1.0009 C   0  0  0  0  0  0  0  0  0  0  0  0
   -4.4703   -1.6226    1.2551 N   0  0  0  0  0  0  0  0  0  0  0  0
   -5.6567   -1.0622    1.6320 C   0  0  0  0  0  0  0  0  0  0  0  0
   -5.5464    0.2340    1.7927 N   0  0  0  0  0  0  0  0  0  0  0  0
   -4.2370    0.5178    1.5088 C   0  0  0  0  0  0  0  0  0  0  0  0
   -3.5226   -0.6193    1.1635 C   0  0  0  0  0  0  0  0  0  0  0  0
   -2.1320   -0.8086    0.7867 C   0  0  0  0  0  0  0  0  0  0  0  0
   -1.6862   -1.9208    0.5194 O   0  0  0  0  0  0  0  0  0  0  0  0
   -1.3823    0.3590    0.7548 N   0  0  0  0  0  0  0  0  0  0  0  0
   -0.0360    0.3945    0.4196 C   0  0  0  0  0  0  0  0  0  0  0  0
    0.8538   -0.5976    0.0686 C   0  0  0  0  0  0  0  0  0  0  0  0
    2.0984    0.0406   -0.1872 C   0  0  0  0  0  0  0  0  0  0  0  0
    3.3709   -0.5684   -0.5979 C   0  0  0  0  0  0  0  0  0  0  0  0
    3.4893   -1.9542   -0.7884 C   0  0  0  0  0  0  0  0  0  0  0  0
    4.7078   -2.5219   -1.1800 C   0  0  0  0  0  0  0  0  0  0  0  0
    5.8192   -1.7086   -1.3846 C   0  0  0  0  0  0  0  0  0  0  0  0
    7.3149   -2.4083   -1.8663 Cl  0  0  0  0  0  0  0  0  0  0  0  0
    5.7246   -0.3327   -1.2010 C   0  0  0  0  0  0  0  0  0  0  0  0
    4.5063    0.2324   -0.8095 C   0  0  0  0  0  0  0  0  0  0  0  0
    1.9795    1.3658   -0.0070 N   0  0  0  0  0  0  0  0  0  0  0  0
    0.7038    1.5520    0.3753 N   0  0  0  0  0  0  0  0  0  0  0  0
    0.2615    2.9027    0.6513 C   0  0  0  0  0  0  0  0  0  0  0  0
   -0.2312    3.5986   -0.6072 C   0  0  0  0  0  0  0  0  0  0  0  0
   -0.9077    4.8005   -0.2494 O   0  0  0  0  0  0  0  0  0  0  0  0
   -5.2142   -3.5644    1.1528 H   0  0  0  0  0  0  0  0  0  0  0  0
   -3.5235   -3.4100    1.7010 H   0  0  0  0  0  0  0  0  0  0  0  0
   -3.9474   -3.1566   -0.0350 H   0  0  0  0  0  0  0  0  0  0  0  0
   -6.5629   -1.6375    1.7745 H   0  0  0  0  0  0  0  0  0  0  0  0
   -3.8893    1.5404    1.5731 H   0  0  0  0  0  0  0  0  0  0  0  0
   -1.8423    1.2267    0.9854 H   0  0  0  0  0  0  0  0  0  0  0  0
    0.6383   -1.6537   -0.0013 H   0  0  0  0  0  0  0  0  0  0  0  0
    2.6411   -2.6165   -0.6365 H   0  0  0  0  0  0  0  0  0  0  0  0
    4.7792   -3.5971   -1.3220 H   0  0  0  0  0  0  0  0  0  0  0  0
    6.5881    0.3076   -1.3581 H   0  0  0  0  0  0  0  0  0  0  0  0
    4.4486    1.3106   -0.6687 H   0  0  0  0  0  0  0  0  0  0  0  0
   -0.5186    2.8673    1.4193 H   0  0  0  0  0  0  0  0  0  0  0  0
    1.0976    3.4557    1.0961 H   0  0  0  0  0  0  0  0  0  0  0  0
    0.6060    3.8462   -1.2684 H   0  0  0  0  0  0  0  0  0  0  0  0
   -0.9352    2.9694   -1.1620 H   0  0  0  0  0  0  0  0  0  0  0  0
   -1.1151    5.2697   -1.0778 H   0  0  0  0  0  0  0  0  0  0  0  0
  1  2  1  0
  2  3  1  0
  3  4  2  0
  4  5  1  0
  5  6  2  0
  6  7  1  0
  7  8  2  0
  7  9  1  0
  9 10  1  0
 10 11  2  0
 11 12  1  0
 12 13  1  0
 13 14  1  0
 14 15  2  0
 15 16  1  0
 16 17  1  0
 16 18  2  0
 18 19  1  0
 12 20  2  0
 20 21  1  0
 21 22  1  0
 22 23  1  0
 23 24  1  0
  6  2  1  0
 21 10  1  0
 19 13  2  0
  1 25  1  0
  1 26  1  0
  1 27  1  0
  3 28  1  0
  5 29  1  0
  9 30  1  0
 11 31  1  0
 14 32  1  0
 15 33  1  0
 18 34  1  0
 19 35  1  0
 22 36  1  0
 22 37  1  0
 23 38  1  0
 23 39  1  0
 24 40  1  0
M  END
$$$$
OCNT-2313122
     RDKit          3D

 45 47  0  0  0  0  0  0  0  0999 V2000
    0.8140    1.1707    2.0106 O   0  0  0  0  0  0  0  0  0  0  0  0
    0.6265    0.6744    0.9036 C   0  0  0  0  0  0  0  0  0  0  0  0
   -0.4655   -0.1173    0.6063 N   0  0  0  0  0  0  0  0  0  0  0  0
   -1.5798   -0.2098    1.5155 C   0  0  0  0  0  0  0  0  0  0  0  0
   -2.5885   -1.2281    1.0398 C   0  0  0  0  0  0  0  0  0  0  0  0
   -2.5673   -2.5118    1.6170 C   0  0  0  0  0  0  0  0  0  0  0  0
   -3.4598   -3.4998    1.2031 C   0  0  0  0  0  0  0  0  0  0  0  0
   -4.3824   -3.2242    0.2007 C   0  0  0  0  0  0  0  0  0  0  0  0
   -4.4094   -1.9611   -0.3909 C   0  0  0  0  0  0  0  0  0  0  0  0
   -3.5188   -0.9481    0.0112 C   0  0  0  0  0  0  0  0  0  0  0  0
   -3.5849    0.3563   -0.6611 C   0  0  0  0  0  0  0  0  0  0  0  0
   -2.9682    0.5549   -1.9007 C   0  0  0  0  0  0  0  0  0  0  0  0
   -3.0517    1.8036   -2.4946 C   0  0  0  0  0  0  0  0  0  0  0  0
   -3.7036    2.8511   -1.9488 N   0  0  0  0  0  0  0  0  0  0  0  0
   -4.3019    2.6395   -0.7578 C   0  0  0  0  0  0  0  0  0  0  0  0
   -4.2733    1.4284   -0.0857 C   0  0  0  0  0  0  0  0  0  0  0  0
    1.5839    0.8615   -0.3006 C   0  0  0  0  0  0  0  0  0  0  0  0
    1.1396    0.1212   -1.4459 O   0  0  0  0  0  0  0  0  0  0  0  0
    3.0220    0.4757   -0.0063 C   0  0  0  0  0  0  0  0  0  0  0  0
    3.3454   -0.6255    0.8008 C   0  0  0  0  0  0  0  0  0  0  0  0
    4.6769   -0.9832    1.0162 C   0  0  0  0  0  0  0  0  0  0  0  0
    5.7042   -0.2531    0.4203 C   0  0  0  0  0  0  0  0  0  0  0  0
    5.4116    0.8476   -0.3968 C   0  0  0  0  0  0  0  0  0  0  0  0
    6.5208    1.6209   -1.0674 C   0  0  0  0  0  0  0  0  0  0  0  0
    6.2112    2.9316   -1.2730 F   0  0  0  0  0  0  0  0  0  0  0  0
    6.8339    1.1148   -2.2923 F   0  0  0  0  0  0  0  0  0  0  0  0
    7.6821    1.6210   -0.3551 F   0  0  0  0  0  0  0  0  0  0  0  0
    4.0669    1.1940   -0.6133 C   0  0  0  0  0  0  0  0  0  0  0  0
   -0.6389   -0.2456   -0.3862 H   0  0  0  0  0  0  0  0  0  0  0  0
   -2.0328    0.7818    1.6222 H   0  0  0  0  0  0  0  0  0  0  0  0
   -1.1977   -0.4736    2.5093 H   0  0  0  0  0  0  0  0  0  0  0  0
   -1.8465   -2.7482    2.3979 H   0  0  0  0  0  0  0  0  0  0  0  0
   -3.4327   -4.4845    1.6628 H   0  0  0  0  0  0  0  0  0  0  0  0
   -5.0803   -3.9915   -0.1243 H   0  0  0  0  0  0  0  0  0  0  0  0
   -5.1370   -1.7643   -1.1769 H   0  0  0  0  0  0  0  0  0  0  0  0
   -2.4294   -0.2458   -2.3972 H   0  0  0  0  0  0  0  0  0  0  0  0
   -2.5821    1.9991   -3.4545 H   0  0  0  0  0  0  0  0  0  0  0  0
   -4.8231    3.4974   -0.3424 H   0  0  0  0  0  0  0  0  0  0  0  0
   -4.7778    1.3250    0.8695 H   0  0  0  0  0  0  0  0  0  0  0  0
    1.5228    1.9244   -0.5634 H   0  0  0  0  0  0  0  0  0  0  0  0
    1.6221   -0.7249   -1.4357 H   0  0  0  0  0  0  0  0  0  0  0  0
    2.5649   -1.2138    1.2808 H   0  0  0  0  0  0  0  0  0  0  0  0
    4.9135   -1.8329    1.6529 H   0  0  0  0  0  0  0  0  0  0  0  0
    6.7384   -0.5453    0.5975 H   0  0  0  0  0  0  0  0  0  0  0  0
    3.8326    2.0372   -1.2646 H   0  0  0  0  0  0  0  0  0  0  0  0
  1  2  2  0
  2  3  1  0
  3  4  1  0
  4  5  1  0
  5  6  2  0
  6  7  1  0
  7  8  2  0
  8  9  1  0
  9 10  2  0
 10 11  1  0
 11 12  2  0
 12 13  1  0
 13 14  2  0
 14 15  1  0
 15 16  2  0
  2 17  1  0
 17 18  1  0
 17 19  1  0
 19 20  2  0
 20 21  1  0
 21 22  2  0
 22 23  1  0
 23 24  1  0
 24 25  1  0
 24 26  1  0
 24 27  1  0
 23 28  2  0
 10  5  1  0
 16 11  1  0
 28 19  1  0
  3 29  1  0
  4 30  1  0
  4 31  1  0
  6 32  1  0
  7 33  1  0
  8 34  1  0
  9 35  1  0
 12 36  1  0
 13 37  1  0
 15 38  1  0
 16 39  1  0
 17 40  1  0
 18 41  1  0
 20 42  1  0
 21 43  1  0
 22 44  1  0
 28 45  1  0
M  END
$$$$
OCNT-2313136
     RDKit          3D

 44 46  0  0  0  0  0  0  0  0999 V2000
    6.9842    1.6645   -0.2353 C   0  0  0  0  0  0  0  0  0  0  0  0
    5.6771    0.9339   -0.3176 C   0  0  0  0  0  0  0  0  0  0  0  0
    4.6455    1.2179    0.5826 C   0  0  0  0  0  0  0  0  0  0  0  0
    3.4367    0.5134    0.5264 C   0  0  0  0  0  0  0  0  0  0  0  0
    3.2377   -0.4973   -0.4246 C   0  0  0  0  0  0  0  0  0  0  0  0
    1.9735   -1.2418   -0.4979 C   0  0  0  0  0  0  0  0  0  0  0  0
    1.8365   -2.3234   -1.2812 N   0  0  0  0  0  0  0  0  0  0  0  0
    0.5840   -2.7453   -1.0609 N   0  0  0  0  0  0  0  0  0  0  0  0
   -0.1454   -1.9482   -0.2223 C   0  0  0  0  0  0  0  0  0  0  0  0
   -1.5172   -2.2732    0.0903 C   0  0  0  0  0  0  0  0  0  0  0  0
   -1.9055   -3.4329   -0.0542 O   0  0  0  0  0  0  0  0  0  0  0  0
   -2.3832   -1.2776    0.5414 N   0  0  0  0  0  0  0  0  0  0  0  0
   -3.7242   -1.6592    0.9661 C   0  0  0  0  0  0  0  0  0  0  0  0
   -4.8144   -1.0000    0.1048 C   0  0  0  0  0  0  0  0  0  0  0  0
   -4.5584    0.3748   -0.3430 N   0  0  0  0  0  0  0  0  0  0  0  0
   -3.4407    1.0512    0.3332 C   0  0  0  0  0  0  0  0  0  0  0  0
   -3.8644    1.5288    1.7364 C   0  0  0  0  0  0  0  0  0  0  0  0
   -3.1239    2.3097   -0.5007 C   0  0  0  0  0  0  0  0  0  0  0  0
   -2.1504    0.1650    0.3892 C   0  0  0  0  0  0  0  0  0  0  0  0
    0.7528   -0.9840    0.1906 C   0  0  0  0  0  0  0  0  0  0  0  0
    4.2848   -0.7876   -1.3117 C   0  0  0  0  0  0  0  0  0  0  0  0
    5.4925   -0.0840   -1.2573 C   0  0  0  0  0  0  0  0  0  0  0  0
    6.8397    2.6834    0.1386 H   0  0  0  0  0  0  0  0  0  0  0  0
    7.6672    1.1349    0.4359 H   0  0  0  0  0  0  0  0  0  0  0  0
    7.4494    1.7445   -1.2233 H   0  0  0  0  0  0  0  0  0  0  0  0
    4.7753    1.9898    1.3381 H   0  0  0  0  0  0  0  0  0  0  0  0
    2.6646    0.7658    1.2469 H   0  0  0  0  0  0  0  0  0  0  0  0
    0.2617   -3.5910   -1.5215 H   0  0  0  0  0  0  0  0  0  0  0  0
   -3.8620   -2.7453    0.9564 H   0  0  0  0  0  0  0  0  0  0  0  0
   -3.8225   -1.3543    2.0129 H   0  0  0  0  0  0  0  0  0  0  0  0
   -5.7613   -1.0338    0.6565 H   0  0  0  0  0  0  0  0  0  0  0  0
   -4.9600   -1.6042   -0.7981 H   0  0  0  0  0  0  0  0  0  0  0  0
   -5.4126    0.9285   -0.3062 H   0  0  0  0  0  0  0  0  0  0  0  0
   -4.1279    0.7081    2.4073 H   0  0  0  0  0  0  0  0  0  0  0  0
   -4.7353    2.1931    1.6820 H   0  0  0  0  0  0  0  0  0  0  0  0
   -3.0560    2.0934    2.2157 H   0  0  0  0  0  0  0  0  0  0  0  0
   -3.9831    2.9894   -0.5488 H   0  0  0  0  0  0  0  0  0  0  0  0
   -2.8506    2.0500   -1.5305 H   0  0  0  0  0  0  0  0  0  0  0  0
   -2.2852    2.8665   -0.0668 H   0  0  0  0  0  0  0  0  0  0  0  0
   -1.5248    0.4829    1.2302 H   0  0  0  0  0  0  0  0  0  0  0  0
   -1.5777    0.3042   -0.5349 H   0  0  0  0  0  0  0  0  0  0  0  0
    0.5712   -0.1977    0.9056 H   0  0  0  0  0  0  0  0  0  0  0  0
    4.1669   -1.5726   -2.0567 H   0  0  0  0  0  0  0  0  0  0  0  0
    6.2852   -0.3404   -1.9566 H   0  0  0  0  0  0  0  0  0  0  0  0
  1  2  1  0
  2  3  1  0
  3  4  2  0
  4  5  1  0
  5  6  1  0
  6  7  2  0
  7  8  1  0
  8  9  1  0
  9 10  1  0
 10 11  2  0
 10 12  1  0
 12 13  1  0
 13 14  1  0
 14 15  1  0
 15 16  1  0
 16 17  1  0
 16 18  1  0
 16 19  1  0
  9 20  2  0
  5 21  2  0
 21 22  1  0
 22  2  2  0
 20  6  1  0
 19 12  1  0
  1 23  1  0
  1 24  1  0
  1 25  1  0
  3 26  1  0
  4 27  1  0
  8 28  1  0
 13 29  1  0
 13 30  1  0
 14 31  1  0
 14 32  1  0
 15 33  1  0
 17 34  1  0
 17 35  1  0
 17 36  1  0
 18 37  1  0
 18 38  1  0
 18 39  1  0
 19 40  1  0
 19 41  1  0
 20 42  1  0
 21 43  1  0
 22 44  1  0
M  END
$$$$
OCNT-2313141
     RDKit          3D

 47 49  0  0  0  0  0  0  0  0999 V2000
   -5.0578    2.9046    1.0472 C   0  0  0  0  0  0  0  0  0  0  0  0
   -4.9060    1.4728    0.7069 C   0  0  0  0  0  0  0  0  0  0  0  0
   -5.9058    0.5998    0.9312 N   0  0  0  0  0  0  0  0  0  0  0  0
   -5.4051   -0.5878    0.5079 N   0  0  0  0  0  0  0  0  0  0  0  0
   -6.2168   -1.7782    0.5880 C   0  0  0  0  0  0  0  0  0  0  0  0
   -4.1323   -0.4925    0.0366 C   0  0  0  0  0  0  0  0  0  0  0  0
   -3.7942    0.8180    0.1551 C   0  0  0  0  0  0  0  0  0  0  0  0
   -2.5527    1.3240   -0.2108 N   0  0  0  0  0  0  0  0  0  0  0  0
   -1.7266    0.4278   -0.6931 C   0  0  0  0  0  0  0  0  0  0  0  0
   -0.4818    0.9060   -1.0347 N   0  0  0  0  0  0  0  0  0  0  0  0
    0.6528    0.5949   -0.1640 C   0  0  0  0  0  0  0  0  0  0  0  0
    1.9438    1.0664   -0.8338 C   0  0  0  0  0  0  0  0  0  0  0  0
    3.1799    0.8041    0.0279 C   0  0  0  0  0  0  0  0  0  0  0  0
    4.4615    1.3496   -0.6011 C   0  0  0  0  0  0  0  0  0  0  0  0
    5.5488    0.5994    0.1507 C   0  0  0  0  0  0  0  0  0  0  0  0
    5.0092   -0.8291    0.2113 C   0  0  0  0  0  0  0  0  0  0  0  0
    5.5815   -1.6279    1.3712 C   0  0  0  0  0  0  0  0  0  0  0  0
    3.4794   -0.6842    0.2702 C   0  0  0  0  0  0  0  0  0  0  0  0
   -2.0314   -0.9265   -0.8878 N   0  0  0  0  0  0  0  0  0  0  0  0
   -1.1078   -1.8281   -1.5527 C   0  0  0  0  0  0  0  0  0  0  0  0
   -3.2574   -1.4737   -0.4946 C   0  0  0  0  0  0  0  0  0  0  0  0
   -3.5491   -2.6623   -0.5939 O   0  0  0  0  0  0  0  0  0  0  0  0
   -6.1048    3.2186    0.9818 H   0  0  0  0  0  0  0  0  0  0  0  0
   -4.7062    3.0906    2.0670 H   0  0  0  0  0  0  0  0  0  0  0  0
   -4.4782    3.5336    0.3640 H   0  0  0  0  0  0  0  0  0  0  0  0
   -7.2042   -1.5204    0.9804 H   0  0  0  0  0  0  0  0  0  0  0  0
   -6.3179   -2.1973   -0.4158 H   0  0  0  0  0  0  0  0  0  0  0  0
   -5.7251   -2.4867    1.2592 H   0  0  0  0  0  0  0  0  0  0  0  0
   -0.5697    1.9219   -1.0722 H   0  0  0  0  0  0  0  0  0  0  0  0
    0.7010   -0.4799    0.0334 H   0  0  0  0  0  0  0  0  0  0  0  0
    0.5206    1.1019    0.7991 H   0  0  0  0  0  0  0  0  0  0  0  0
    2.0526    0.5719   -1.8080 H   0  0  0  0  0  0  0  0  0  0  0  0
    1.8722    2.1419   -1.0417 H   0  0  0  0  0  0  0  0  0  0  0  0
    3.0425    1.2913    1.0035 H   0  0  0  0  0  0  0  0  0  0  0  0
    4.5084    1.1160   -1.6715 H   0  0  0  0  0  0  0  0  0  0  0  0
    4.5523    2.4333   -0.4820 H   0  0  0  0  0  0  0  0  0  0  0  0
    6.5152    0.6540   -0.3599 H   0  0  0  0  0  0  0  0  0  0  0  0
    5.6710    1.0199    1.1563 H   0  0  0  0  0  0  0  0  0  0  0  0
    5.2705   -1.3413   -0.7244 H   0  0  0  0  0  0  0  0  0  0  0  0
    6.6714   -1.6955    1.2933 H   0  0  0  0  0  0  0  0  0  0  0  0
    5.3394   -1.1646    2.3338 H   0  0  0  0  0  0  0  0  0  0  0  0
    5.1779   -2.6456    1.3751 H   0  0  0  0  0  0  0  0  0  0  0  0
    3.0666   -1.0020    1.2344 H   0  0  0  0  0  0  0  0  0  0  0  0
    3.0252   -1.3191   -0.5000 H   0  0  0  0  0  0  0  0  0  0  0  0
   -0.5614   -2.3876   -0.7870 H   0  0  0  0  0  0  0  0  0  0  0  0
   -0.3983   -1.2906   -2.1863 H   0  0  0  0  0  0  0  0  0  0  0  0
   -1.6534   -2.5414   -2.1789 H   0  0  0  0  0  0  0  0  0  0  0  0
  1  2  1  0
  2  3  2  0
  3  4  1  0
  4  5  1  0
  4  6  1  0
  6  7  2  0
  7  8  1  0
  8  9  2  0
  9 10  1  0
 10 11  1  0
 11 12  1  0
 12 13  1  0
 13 14  1  0
 14 15  1  0
 15 16  1  0
 16 17  1  0
 16 18  1  0
  9 19  1  0
 19 20  1  0
 19 21  1  0
 21 22  2  0
  7  2  1  0
 18 13  1  0
 21  6  1  0
  1 23  1  0
  1 24  1  0
  1 25  1  0
  5 26  1  0
  5 27  1  0
  5 28  1  0
 10 29  1  0
 11 30  1  0
 11 31  1  0
 12 32  1  0
 12 33  1  0
 13 34  1  0
 14 35  1  0
 14 36  1  0
 15 37  1  0
 15 38  1  0
 16 39  1  0
 17 40  1  0
 17 41  1  0
 17 42  1  0
 18 43  1  0
 18 44  1  0
 20 45  1  0
 20 46  1  0
 20 47  1  0
M  END
$$$$
OCNT-2313145
     RDKit          3D

 44 47  0  0  0  0  0  0  0  0999 V2000
   -6.9581    0.2458   -0.0961 O   0  0  0  0  0  0  0  0  0  0  0  0
   -5.5261    0.3048   -0.1165 C   0  0  0  0  0  0  0  0  0  0  0  0
   -4.8838   -0.9839    0.4053 C   0  0  0  0  0  0  0  0  0  0  0  0
   -5.2511   -2.0332   -0.3821 F   0  0  0  0  0  0  0  0  0  0  0  0
   -5.3647   -1.2563    1.6535 F   0  0  0  0  0  0  0  0  0  0  0  0
   -3.3403   -0.9444    0.5013 C   0  0  0  0  0  0  0  0  0  0  0  0
   -2.6090   -0.5442   -0.7230 N   0  0  0  0  0  0  0  0  0  0  0  0
   -1.4024   -1.3863   -0.9203 C   0  0  0  0  0  0  0  0  0  0  0  0
   -0.3287   -0.6933   -1.7787 C   0  0  0  0  0  0  0  0  0  0  0  0
    0.2100    0.4875   -1.0665 N   0  0  0  0  0  0  0  0  0  0  0  0
    1.4660    0.3825   -0.4674 C   0  0  0  0  0  0  0  0  0  0  0  0
    1.9470   -0.8044   -0.1890 N   0  0  0  0  0  0  0  0  0  0  0  0
    3.1964   -0.9476    0.4512 C   0  0  0  0  0  0  0  0  0  0  0  0
    3.6590   -2.2336    0.7317 C   0  0  0  0  0  0  0  0  0  0  0  0
    4.8862   -2.4247    1.3733 C   0  0  0  0  0  0  0  0  0  0  0  0
    5.6652   -1.3261    1.7421 C   0  0  0  0  0  0  0  0  0  0  0  0
    5.2242   -0.0305    1.4721 C   0  0  0  0  0  0  0  0  0  0  0  0
    3.9950    0.1418    0.8309 C   0  0  0  0  0  0  0  0  0  0  0  0
    3.4757    1.4001    0.5094 N   0  0  0  0  0  0  0  0  0  0  0  0
    3.9803    2.6564    0.7051 C   0  0  0  0  0  0  0  0  0  0  0  0
    3.1887    3.5819    0.2045 N   0  0  0  0  0  0  0  0  0  0  0  0
    2.1329    2.8902   -0.3364 C   0  0  0  0  0  0  0  0  0  0  0  0
    2.2671    1.5358   -0.1261 C   0  0  0  0  0  0  0  0  0  0  0  0
   -0.8224    1.2539   -0.3312 C   0  0  0  0  0  0  0  0  0  0  0  0
   -2.2630    0.8938   -0.7628 C   0  0  0  0  0  0  0  0  0  0  0  0
   -7.2896    1.0526   -0.5244 H   0  0  0  0  0  0  0  0  0  0  0  0
   -5.2266    0.4901   -1.1523 H   0  0  0  0  0  0  0  0  0  0  0  0
   -5.2336    1.1535    0.5089 H   0  0  0  0  0  0  0  0  0  0  0  0
   -3.0363   -0.3227    1.3535 H   0  0  0  0  0  0  0  0  0  0  0  0
   -3.0521   -1.9679    0.7787 H   0  0  0  0  0  0  0  0  0  0  0  0
   -1.7093   -2.3198   -1.4053 H   0  0  0  0  0  0  0  0  0  0  0  0
   -0.9496   -1.6469    0.0460 H   0  0  0  0  0  0  0  0  0  0  0  0
   -0.7606   -0.3624   -2.7317 H   0  0  0  0  0  0  0  0  0  0  0  0
    0.4607   -1.4058   -2.0444 H   0  0  0  0  0  0  0  0  0  0  0  0
    3.0563   -3.0922    0.4475 H   0  0  0  0  0  0  0  0  0  0  0  0
    5.2333   -3.4333    1.5845 H   0  0  0  0  0  0  0  0  0  0  0  0
    6.6194   -1.4836    2.2400 H   0  0  0  0  0  0  0  0  0  0  0  0
    5.8483    0.8074    1.7655 H   0  0  0  0  0  0  0  0  0  0  0  0
    4.9201    2.8493    1.2029 H   0  0  0  0  0  0  0  0  0  0  0  0
    1.3360    3.4103   -0.8503 H   0  0  0  0  0  0  0  0  0  0  0  0
   -0.6720    2.3244   -0.4993 H   0  0  0  0  0  0  0  0  0  0  0  0
   -0.7220    1.0656    0.7456 H   0  0  0  0  0  0  0  0  0  0  0  0
   -2.3960    1.2231   -1.8019 H   0  0  0  0  0  0  0  0  0  0  0  0
   -2.9704    1.4922   -0.1782 H   0  0  0  0  0  0  0  0  0  0  0  0
  1  2  1  0
  2  3  1  0
  3  4  1  0
  3  5  1  0
  3  6  1  0
  6  7  1  0
  7  8  1  0
  8  9  1  0
  9 10  1  0
 10 11  1  0
 11 12  2  0
 12 13  1  0
 13 14  2  0
 14 15  1  0
 15 16  2  0
 16 17  1  0
 17 18  2  0
 18 19  1  0
 19 20  1  0
 20 21  2  0
 21 22  1  0
 22 23  2  0
 10 24  1  0
 24 25  1  0
 25  7  1  0
 23 11  1  0
 18 13  1  0
 23 19  1  0
  1 26  1  0
  2 27  1  0
  2 28  1  0
  6 29  1  0
  6 30  1  0
  8 31  1  0
  8 32  1  0
  9 33  1  0
  9 34  1  0
 14 35  1  0
 15 36  1  0
 16 37  1  0
 17 38  1  0
 20 39  1  0
 22 40  1  0
 24 41  1  0
 24 42  1  0
 25 43  1  0
 25 44  1  0
M  END
$$$$
OCNT-2313147
     RDKit          3D

 59 62  0  0  0  0  0  0  0  0999 V2000
   -5.0256   -0.9681   -3.0483 C   0  0  0  0  0  0  0  0  0  0  0  0
   -4.2209   -0.3208   -2.0691 O   0  0  0  0  0  0  0  0  0  0  0  0
   -3.7945   -1.0783   -1.0049 C   0  0  0  0  0  0  0  0  0  0  0  0
   -3.8172   -2.4799   -0.9906 C   0  0  0  0  0  0  0  0  0  0  0  0
   -3.3288   -3.1830    0.1084 C   0  0  0  0  0  0  0  0  0  0  0  0
   -2.8083   -2.4914    1.1923 C   0  0  0  0  0  0  0  0  0  0  0  0
   -2.7813   -1.0960    1.1772 C   0  0  0  0  0  0  0  0  0  0  0  0
   -3.2755   -0.3392    0.0894 C   0  0  0  0  0  0  0  0  0  0  0  0
   -3.2073    1.3007    0.0897 C   0  0  0  0  0  0  0  0  0  0  0  0
   -2.1154    1.7991   -0.8787 C   0  0  0  0  0  0  0  0  0  0  0  0
   -0.8521    1.1630   -0.5409 N   0  0  0  0  0  0  0  0  0  0  0  0
    0.0279    1.7110    0.3538 C   0  0  0  0  0  0  0  0  0  0  0  0
   -0.1582    2.8104    0.8669 O   0  0  0  0  0  0  0  0  0  0  0  0
    1.1517    0.9346    0.6188 N   0  0  0  0  0  0  0  0  0  0  0  0
    2.1379    1.4800    1.5503 C   0  0  0  0  0  0  0  0  0  0  0  0
    3.2703    2.2266    0.8497 C   0  0  0  0  0  0  0  0  0  0  0  0
    3.8233    1.5052   -0.3760 C   0  0  0  0  0  0  0  0  0  0  0  0
    4.0783    0.0867   -0.1346 N   0  0  0  0  0  0  0  0  0  0  0  0
    5.3871   -0.3067    0.1414 C   0  0  0  0  0  0  0  0  0  0  0  0
    6.3422    0.4608    0.1656 O   0  0  0  0  0  0  0  0  0  0  0  0
    5.6124   -1.7506    0.4391 C   0  0  0  0  0  0  0  0  0  0  0  0
    6.9045   -2.4105    0.0038 C   0  0  0  0  0  0  0  0  0  0  0  0
    5.6196   -2.7743   -0.6735 C   0  0  0  0  0  0  0  0  0  0  0  0
    2.9346   -0.8227    0.0362 C   0  0  0  0  0  0  0  0  0  0  0  0
    1.5328   -0.2285   -0.2019 C   0  0  0  0  0  0  0  0  0  0  0  0
   -4.5857    2.0363   -0.1398 C   0  0  0  0  0  0  0  0  0  0  0  0
   -4.7440    2.0965    1.3892 C   0  0  0  0  0  0  0  0  0  0  0  0
   -3.2104    2.0488    1.4797 C   0  0  0  0  0  0  0  0  0  0  0  0
   -5.8905   -1.4635   -2.5927 H   0  0  0  0  0  0  0  0  0  0  0  0
   -4.4307   -1.6722   -3.6402 H   0  0  0  0  0  0  0  0  0  0  0  0
   -5.4032   -0.1996   -3.7298 H   0  0  0  0  0  0  0  0  0  0  0  0
   -4.1993   -3.0533   -1.8285 H   0  0  0  0  0  0  0  0  0  0  0  0
   -3.3499   -4.2697    0.1134 H   0  0  0  0  0  0  0  0  0  0  0  0
   -2.4216   -3.0325    2.0520 H   0  0  0  0  0  0  0  0  0  0  0  0
   -2.3524   -0.5847    2.0368 H   0  0  0  0  0  0  0  0  0  0  0  0
   -2.0046    2.8883   -0.8378 H   0  0  0  0  0  0  0  0  0  0  0  0
   -2.3465    1.5233   -1.9125 H   0  0  0  0  0  0  0  0  0  0  0  0
   -0.8389    0.1609   -0.6388 H   0  0  0  0  0  0  0  0  0  0  0  0
    1.6513    2.1624    2.2568 H   0  0  0  0  0  0  0  0  0  0  0  0
    2.5246    0.6602    2.1647 H   0  0  0  0  0  0  0  0  0  0  0  0
    4.0749    2.3928    1.5763 H   0  0  0  0  0  0  0  0  0  0  0  0
    2.9209    3.2175    0.5364 H   0  0  0  0  0  0  0  0  0  0  0  0
    3.1413    1.5925   -1.2290 H   0  0  0  0  0  0  0  0  0  0  0  0
    4.7468    2.0059   -0.6898 H   0  0  0  0  0  0  0  0  0  0  0  0
    5.2499   -2.0570    1.4152 H   0  0  0  0  0  0  0  0  0  0  0  0
    7.3545   -3.1313    0.6766 H   0  0  0  0  0  0  0  0  0  0  0  0
    7.6236   -1.8137   -0.5477 H   0  0  0  0  0  0  0  0  0  0  0  0
    5.4733   -2.4314   -1.6919 H   0  0  0  0  0  0  0  0  0  0  0  0
    5.1982   -3.7512   -0.4697 H   0  0  0  0  0  0  0  0  0  0  0  0
    3.0753   -1.6593   -0.6571 H   0  0  0  0  0  0  0  0  0  0  0  0
    2.9890   -1.2408    1.0486 H   0  0  0  0  0  0  0  0  0  0  0  0
    1.4312    0.0549   -1.2566 H   0  0  0  0  0  0  0  0  0  0  0  0
    0.7915   -1.0132   -0.0079 H   0  0  0  0  0  0  0  0  0  0  0  0
   -4.4997    3.0248   -0.6084 H   0  0  0  0  0  0  0  0  0  0  0  0
   -5.3769    1.4853   -0.6544 H   0  0  0  0  0  0  0  0  0  0  0  0
   -5.2158    3.0006    1.7822 H   0  0  0  0  0  0  0  0  0  0  0  0
   -5.2429    1.2208    1.8199 H   0  0  0  0  0  0  0  0  0  0  0  0
   -2.7595    3.0493    1.4601 H   0  0  0  0  0  0  0  0  0  0  0  0
   -2.8115    1.5243    2.3498 H   0  0  0  0  0  0  0  0  0  0  0  0
  1  2  1  0
  2  3  1  0
  3  4  2  0
  4  5  1  0
  5  6  2  0
  6  7  1  0
  7  8  2  0
  8  9  1  0
  9 10  1  0
 10 11  1  0
 11 12  1  0
 12 13  2  0
 12 14  1  0
 14 15  1  0
 15 16  1  0
 16 17  1  0
 17 18  1  0
 18 19  1  0
 19 20  2  0
 19 21  1  0
 21 22  1  0
 22 23  1  0
 18 24  1  0
 24 25  1  0
  9 26  1  0
 26 27  1  0
 27 28  1  0
  8  3  1  0
 28  9  1  0
 25 14  1  0
 23 21  1  0
  1 29  1  0
  1 30  1  0
  1 31  1  0
  4 32  1  0
  5 33  1  0
  6 34  1  0
  7 35  1  0
 10 36  1  0
 10 37  1  0
 11 38  1  0
 15 39  1  0
 15 40  1  0
 16 41  1  0
 16 42  1  0
 17 43  1  0
 17 44  1  0
 21 45  1  0
 22 46  1  0
 22 47  1  0
 23 48  1  0
 23 49  1  0
 24 50  1  0
 24 51  1  0
 25 52  1  0
 25 53  1  0
 26 54  1  0
 26 55  1  0
 27 56  1  0
 27 57  1  0
 28 58  1  0
 28 59  1  0
M  END
$$$$
OCNT-2313161
     RDKit          3D

 42 44  0  0  0  0  0  0  0  0999 V2000
   -5.1774   -0.2295    2.4741 C   0  0  0  0  0  0  0  0  0  0  0  0
   -4.5135   -0.5199    1.1622 C   0  0  0  0  0  0  0  0  0  0  0  0
   -5.0625   -1.4499    0.2923 C   0  0  0  0  0  0  0  0  0  0  0  0
   -4.4151   -1.6914   -0.9115 C   0  0  0  0  0  0  0  0  0  0  0  0
   -3.2447   -0.9991   -1.2141 C   0  0  0  0  0  0  0  0  0  0  0  0
   -2.7437   -0.0698   -0.3036 C   0  0  0  0  0  0  0  0  0  0  0  0
   -1.4499    0.7256   -0.5408 C   0  0  0  0  0  0  0  0  0  0  0  0
   -1.7373    2.2223   -0.2800 C   0  0  0  0  0  0  0  0  0  0  0  0
   -0.9126    0.6041   -1.9837 C   0  0  0  0  0  0  0  0  0  0  0  0
   -0.4000    0.1913    0.4729 C   0  0  0  0  0  0  0  0  0  0  0  0
    0.8751    0.9023    0.3760 N   0  0  0  0  0  0  0  0  0  0  0  0
    2.0070    0.1556    0.0558 C   0  0  0  0  0  0  0  0  0  0  0  0
    1.9084   -0.9476   -0.7425 N   0  0  0  0  0  0  0  0  0  0  0  0
    3.0165   -1.6530   -1.0734 C   0  0  0  0  0  0  0  0  0  0  0  0
    4.3088   -1.3576   -0.6665 C   0  0  0  0  0  0  0  0  0  0  0  0
    4.4049   -0.2322    0.1455 C   0  0  0  0  0  0  0  0  0  0  0  0
    3.2952    0.5249    0.5086 C   0  0  0  0  0  0  0  0  0  0  0  0
    3.6982    1.5682    1.3083 N   0  0  0  0  0  0  0  0  0  0  0  0
    5.0148    1.4932    1.4540 N   0  0  0  0  0  0  0  0  0  0  0  0
    5.4375    0.4188    0.7628 N   0  0  0  0  0  0  0  0  0  0  0  0
    6.8401    0.1001    0.7445 C   0  0  0  0  0  0  0  0  0  0  0  0
   -3.3744    0.1565    0.8810 N   0  0  0  0  0  0  0  0  0  0  0  0
   -6.1989    0.1281    2.3106 H   0  0  0  0  0  0  0  0  0  0  0  0
   -4.6312    0.5435    3.0247 H   0  0  0  0  0  0  0  0  0  0  0  0
   -5.2063   -1.1328    3.0914 H   0  0  0  0  0  0  0  0  0  0  0  0
   -5.9751   -1.9796    0.5431 H   0  0  0  0  0  0  0  0  0  0  0  0
   -4.8164   -2.4174   -1.6134 H   0  0  0  0  0  0  0  0  0  0  0  0
   -2.7480   -1.2065   -2.1547 H   0  0  0  0  0  0  0  0  0  0  0  0
   -0.8597    2.8439   -0.4903 H   0  0  0  0  0  0  0  0  0  0  0  0
   -2.5556    2.5822   -0.9153 H   0  0  0  0  0  0  0  0  0  0  0  0
   -2.0238    2.4084    0.7616 H   0  0  0  0  0  0  0  0  0  0  0  0
   -0.6063   -0.4219   -2.2166 H   0  0  0  0  0  0  0  0  0  0  0  0
   -0.0396    1.2467   -2.1450 H   0  0  0  0  0  0  0  0  0  0  0  0
   -1.6691    0.9057   -2.7179 H   0  0  0  0  0  0  0  0  0  0  0  0
   -0.7673    0.3267    1.4993 H   0  0  0  0  0  0  0  0  0  0  0  0
   -0.2837   -0.8945    0.3540 H   0  0  0  0  0  0  0  0  0  0  0  0
    1.0604    1.5523    1.1360 H   0  0  0  0  0  0  0  0  0  0  0  0
    2.8261   -2.5120   -1.7131 H   0  0  0  0  0  0  0  0  0  0  0  0
    5.1585   -1.9572   -0.9630 H   0  0  0  0  0  0  0  0  0  0  0  0
    6.9864   -0.9083    0.3518 H   0  0  0  0  0  0  0  0  0  0  0  0
    7.2255    0.1523    1.7659 H   0  0  0  0  0  0  0  0  0  0  0  0
    7.3484    0.8277    0.1074 H   0  0  0  0  0  0  0  0  0  0  0  0
  1  2  1  0
  2  3  1  0
  3  4  2  0
  4  5  1  0
  5  6  2  0
  6  7  1  0
  7  8  1  0
  7  9  1  0
  7 10  1  0
 10 11  1  0
 11 12  1  0
 12 13  1  0
 13 14  2  0
 14 15  1  0
 15 16  2  0
 16 17  1  0
 17 18  1  0
 18 19  2  0
 19 20  1  0
 20 21  1  0
  6 22  1  0
 22  2  2  0
 17 12  2  0
 20 16  1  0
  1 23  1  0
  1 24  1  0
  1 25  1  0
  3 26  1  0
  4 27  1  0
  5 28  1  0
  8 29  1  0
  8 30  1  0
  8 31  1  0
  9 32  1  0
  9 33  1  0
  9 34  1  0
 10 35  1  0
 10 36  1  0
 11 37  1  0
 14 38  1  0
 15 39  1  0
 21 40  1  0
 21 41  1  0
 21 42  1  0
M  END
$$$$
OCNT-2313164
     RDKit          3D

 45 48  0  0  0  0  0  0  0  0999 V2000
    0.2466    1.2723    1.5848 O   0  0  0  0  0  0  0  0  0  0  0  0
    0.5272    0.1523    1.1567 C   0  0  0  0  0  0  0  0  0  0  0  0
    1.9043   -0.2853    1.1071 C   0  0  0  0  0  0  0  0  0  0  0  0
    3.0151    0.4070    0.6659 C   0  0  0  0  0  0  0  0  0  0  0  0
    4.2181   -0.3677    0.8354 C   0  0  0  0  0  0  0  0  0  0  0  0
    5.5635    0.0716    0.4419 C   0  0  0  0  0  0  0  0  0  0  0  0
    6.0153    1.3480    0.7707 C   0  0  0  0  0  0  0  0  0  0  0  0
    7.2924    1.7301    0.3664 C   0  0  0  0  0  0  0  0  0  0  0  0
    8.0758    0.8337   -0.3509 C   0  0  0  0  0  0  0  0  0  0  0  0
    7.5481   -0.4140   -0.6380 C   0  0  0  0  0  0  0  0  0  0  0  0
    6.3131   -0.8116   -0.2649 N   0  0  0  0  0  0  0  0  0  0  0  0
    4.0303   -1.5621    1.4111 N   0  0  0  0  0  0  0  0  0  0  0  0
    2.4331   -1.7516    1.7899 S   0  0  0  0  0  0  0  0  0  0  0  0
   -0.4741   -0.6975    0.6670 N   0  0  0  0  0  0  0  0  0  0  0  0
   -0.2182   -1.8177   -0.2433 C   0  0  0  0  0  0  0  0  0  0  0  0
   -1.4085   -2.1232   -1.1567 C   0  0  0  0  0  0  0  0  0  0  0  0
   -2.0342   -0.8359   -1.6952 C   0  0  0  0  0  0  0  0  0  0  0  0
   -2.4472    0.1394   -0.5645 C   0  0  0  0  0  0  0  0  0  0  0  0
   -3.9510    0.3358   -0.4747 C   0  0  0  0  0  0  0  0  0  0  0  0
   -4.4887    1.6327   -0.5126 C   0  0  0  0  0  0  0  0  0  0  0  0
   -5.8657    1.8326   -0.4211 C   0  0  0  0  0  0  0  0  0  0  0  0
   -6.3222    3.1168   -0.4671 O   0  0  0  0  0  0  0  0  0  0  0  0
   -6.7354    0.7593   -0.2871 C   0  0  0  0  0  0  0  0  0  0  0  0
   -6.2057   -0.5238   -0.2442 C   0  0  0  0  0  0  0  0  0  0  0  0
   -7.0313   -1.5707   -0.1124 F   0  0  0  0  0  0  0  0  0  0  0  0
   -4.8330   -0.7461   -0.3338 C   0  0  0  0  0  0  0  0  0  0  0  0
   -1.8704   -0.2872    0.7998 C   0  0  0  0  0  0  0  0  0  0  0  0
    2.9684    1.3969    0.2304 H   0  0  0  0  0  0  0  0  0  0  0  0
    5.3991    2.0326    1.3441 H   0  0  0  0  0  0  0  0  0  0  0  0
    7.6745    2.7162    0.6151 H   0  0  0  0  0  0  0  0  0  0  0  0
    9.0759    1.0985   -0.6757 H   0  0  0  0  0  0  0  0  0  0  0  0
    8.1217   -1.1511   -1.1928 H   0  0  0  0  0  0  0  0  0  0  0  0
    0.0075   -2.7031    0.3595 H   0  0  0  0  0  0  0  0  0  0  0  0
    0.6587   -1.5850   -0.8575 H   0  0  0  0  0  0  0  0  0  0  0  0
   -2.1644   -2.6921   -0.6020 H   0  0  0  0  0  0  0  0  0  0  0  0
   -1.0828   -2.7631   -1.9845 H   0  0  0  0  0  0  0  0  0  0  0  0
   -1.2873   -0.3354   -2.3264 H   0  0  0  0  0  0  0  0  0  0  0  0
   -2.8719   -1.0765   -2.3601 H   0  0  0  0  0  0  0  0  0  0  0  0
   -1.9959    1.1081   -0.8237 H   0  0  0  0  0  0  0  0  0  0  0  0
   -3.8386    2.5000   -0.6122 H   0  0  0  0  0  0  0  0  0  0  0  0
   -7.2902    3.1111   -0.3833 H   0  0  0  0  0  0  0  0  0  0  0  0
   -7.8081    0.8912   -0.2142 H   0  0  0  0  0  0  0  0  0  0  0  0
   -4.4720   -1.7693   -0.2926 H   0  0  0  0  0  0  0  0  0  0  0  0
   -1.9779    0.5263    1.5265 H   0  0  0  0  0  0  0  0  0  0  0  0
   -2.4140   -1.1425    1.2212 H   0  0  0  0  0  0  0  0  0  0  0  0
  1  2  2  0
  2  3  1  0
  3  4  2  0
  4  5  1  0
  5  6  1  0
  6  7  2  0
  7  8  1  0
  8  9  2  0
  9 10  1  0
 10 11  2  0
  5 12  2  0
 12 13  1  0
  2 14  1  0
 14 15  1  0
 15 16  1  0
 16 17  1  0
 17 18  1  0
 18 19  1  0
 19 20  1  0
 20 21  2  0
 21 22  1  0
 21 23  1  0
 23 24  2  0
 24 25  1  0
 24 26  1  0
 18 27  1  0
 13  3  1  0
 27 14  1  0
 11  6  1  0
 26 19  2  0
  4 28  1  0
  7 29  1  0
  8 30  1  0
  9 31  1  0
 10 32  1  0
 15 33  1  0
 15 34  1  0
 16 35  1  0
 16 36  1  0
 17 37  1  0
 17 38  1  0
 18 39  1  0
 20 40  1  0
 22 41  1  0
 23 42  1  0
 26 43  1  0
 27 44  1  0
 27 45  1  0
M  END
$$$$
OCNT-2313177
     RDKit          3D

 37 39  0  0  0  0  0  0  0  0999 V2000
   -6.8817    0.7744   -1.0407 C   0  0  0  0  0  0  0  0  0  0  0  0
   -5.4672    0.4881   -0.6329 C   0  0  0  0  0  0  0  0  0  0  0  0
   -4.6397   -0.2943   -1.4428 C   0  0  0  0  0  0  0  0  0  0  0  0
   -3.3300   -0.5862   -1.0475 C   0  0  0  0  0  0  0  0  0  0  0  0
   -2.8162   -0.1152    0.1716 C   0  0  0  0  0  0  0  0  0  0  0  0
   -1.4395   -0.4253    0.5852 C   0  0  0  0  0  0  0  0  0  0  0  0
   -1.1453   -0.9316    1.8534 C   0  0  0  0  0  0  0  0  0  0  0  0
    0.0985   -1.2422    2.2970 N   0  0  0  0  0  0  0  0  0  0  0  0
    1.1179   -1.0414    1.4286 C   0  0  0  0  0  0  0  0  0  0  0  0
    0.9520   -0.5304    0.1497 C   0  0  0  0  0  0  0  0  0  0  0  0
    2.0866   -0.3253   -0.7803 C   0  0  0  0  0  0  0  0  0  0  0  0
    1.8925   -0.3012   -1.9910 O   0  0  0  0  0  0  0  0  0  0  0  0
    3.3264   -0.1416   -0.2199 N   0  0  0  0  0  0  0  0  0  0  0  0
    4.4679    0.1868   -1.0427 C   0  0  0  0  0  0  0  0  0  0  0  0
    5.6821    0.2508   -0.1699 C   0  0  0  0  0  0  0  0  0  0  0  0
    6.9929    0.0886   -0.5807 C   0  0  0  0  0  0  0  0  0  0  0  0
    8.0581    0.2469    0.7531 S   0  0  0  0  0  0  0  0  0  0  0  0
    6.7097    0.5196    1.7750 C   0  0  0  0  0  0  0  0  0  0  0  0
    5.5289    0.5003    1.1963 N   0  0  0  0  0  0  0  0  0  0  0  0
   -0.3478   -0.2318   -0.2734 C   0  0  0  0  0  0  0  0  0  0  0  0
   -3.6626    0.6585    0.9825 C   0  0  0  0  0  0  0  0  0  0  0  0
   -4.9725    0.9525    0.5889 C   0  0  0  0  0  0  0  0  0  0  0  0
   -7.5453   -0.0112   -0.6665 H   0  0  0  0  0  0  0  0  0  0  0  0
   -7.2153    1.7388   -0.6433 H   0  0  0  0  0  0  0  0  0  0  0  0
   -6.9715    0.8245   -2.1310 H   0  0  0  0  0  0  0  0  0  0  0  0
   -5.0068   -0.6847   -2.3896 H   0  0  0  0  0  0  0  0  0  0  0  0
   -2.7148   -1.2020   -1.7015 H   0  0  0  0  0  0  0  0  0  0  0  0
   -1.9357   -1.1241    2.5760 H   0  0  0  0  0  0  0  0  0  0  0  0
    2.0911   -1.3340    1.8113 H   0  0  0  0  0  0  0  0  0  0  0  0
    3.4375    0.0796    0.7639 H   0  0  0  0  0  0  0  0  0  0  0  0
    4.2877    1.1576   -1.5163 H   0  0  0  0  0  0  0  0  0  0  0  0
    4.5739   -0.5740   -1.8232 H   0  0  0  0  0  0  0  0  0  0  0  0
    7.3664   -0.1111   -1.5752 H   0  0  0  0  0  0  0  0  0  0  0  0
    6.8319    0.6970    2.8357 H   0  0  0  0  0  0  0  0  0  0  0  0
   -0.5036    0.1666   -1.2747 H   0  0  0  0  0  0  0  0  0  0  0  0
   -3.3055    1.0545    1.9313 H   0  0  0  0  0  0  0  0  0  0  0  0
   -5.6014    1.5518    1.2437 H   0  0  0  0  0  0  0  0  0  0  0  0
  1  2  1  0
  2  3  1  0
  3  4  2  0
  4  5  1  0
  5  6  1  0
  6  7  2  0
  7  8  1  0
  8  9  2  0
  9 10  1  0
 10 11  1  0
 11 12  2  0
 11 13  1  0
 13 14  1  0
 14 15  1  0
 15 16  2  0
 16 17  1  0
 17 18  1  0
 18 19  2  0
 10 20  2  0
  5 21  2  0
 21 22  1  0
 22  2  2  0
 20  6  1  0
 19 15  1  0
  1 23  1  0
  1 24  1  0
  1 25  1  0
  3 26  1  0
  4 27  1  0
  7 28  1  0
  9 29  1  0
 13 30  1  0
 14 31  1  0
 14 32  1  0
 16 33  1  0
 18 34  1  0
 20 35  1  0
 21 36  1  0
 22 37  1  0
M  END
$$$$
OCNT-2313183
     RDKit          3D

 35 37  0  0  0  0  0  0  0  0999 V2000
   -5.4974    0.7854    0.5623 C   0  0  0  0  0  0  0  0  0  0  0  0
   -4.4816    0.1894   -0.3273 C   0  0  0  0  0  0  0  0  0  0  0  0
   -4.5504   -0.4917   -1.5209 C   0  0  0  0  0  0  0  0  0  0  0  0
   -3.2134   -0.8128   -1.8881 C   0  0  0  0  0  0  0  0  0  0  0  0
   -2.7706   -1.5459   -3.1008 C   0  0  0  0  0  0  0  0  0  0  0  0
   -2.4060   -0.3002   -0.8819 C   0  0  0  0  0  0  0  0  0  0  0  0
   -0.9609   -0.3137   -0.6986 C   0  0  0  0  0  0  0  0  0  0  0  0
   -0.2037   -0.8503   -1.4994 O   0  0  0  0  0  0  0  0  0  0  0  0
   -0.5740    0.3306    0.4638 N   0  0  0  0  0  0  0  0  0  0  0  0
    0.7231    0.5294    0.9709 C   0  0  0  0  0  0  0  0  0  0  0  0
    0.8241    1.1898    2.2006 C   0  0  0  0  0  0  0  0  0  0  0  0
    2.0700    1.4305    2.7786 C   0  0  0  0  0  0  0  0  0  0  0  0
    3.2321    1.0103    2.1319 C   0  0  0  0  0  0  0  0  0  0  0  0
    3.1593    0.3445    0.9000 C   0  0  0  0  0  0  0  0  0  0  0  0
    4.3604   -0.1063    0.1948 C   0  0  0  0  0  0  0  0  0  0  0  0
    4.4670   -0.4143   -1.0854 N   0  0  0  0  0  0  0  0  0  0  0  0
    5.7635   -0.7983   -1.3420 N   0  0  0  0  0  0  0  0  0  0  0  0
    6.4232   -0.7321   -0.2128 C   0  0  0  0  0  0  0  0  0  0  0  0
    5.5899   -0.3064    0.7736 N   0  0  0  0  0  0  0  0  0  0  0  0
    1.8937    0.1159    0.3278 C   0  0  0  0  0  0  0  0  0  0  0  0
   -3.1862    0.3106    0.0691 O   0  0  0  0  0  0  0  0  0  0  0  0
   -5.4549    0.3249    1.5541 H   0  0  0  0  0  0  0  0  0  0  0  0
   -6.5052    0.6395    0.1613 H   0  0  0  0  0  0  0  0  0  0  0  0
   -5.3264    1.8606    0.6721 H   0  0  0  0  0  0  0  0  0  0  0  0
   -5.4540   -0.7304   -2.0657 H   0  0  0  0  0  0  0  0  0  0  0  0
   -2.1038   -0.9229   -3.7054 H   0  0  0  0  0  0  0  0  0  0  0  0
   -2.2386   -2.4616   -2.8240 H   0  0  0  0  0  0  0  0  0  0  0  0
   -3.6250   -1.8282   -3.7245 H   0  0  0  0  0  0  0  0  0  0  0  0
   -1.3475    0.6956    1.0093 H   0  0  0  0  0  0  0  0  0  0  0  0
   -0.0670    1.5279    2.7240 H   0  0  0  0  0  0  0  0  0  0  0  0
    2.1336    1.9518    3.7306 H   0  0  0  0  0  0  0  0  0  0  0  0
    4.1869    1.2325    2.5992 H   0  0  0  0  0  0  0  0  0  0  0  0
    7.4646   -0.9753   -0.0610 H   0  0  0  0  0  0  0  0  0  0  0  0
    5.8218   -0.1872    1.7465 H   0  0  0  0  0  0  0  0  0  0  0  0
    1.8532   -0.3927   -0.6329 H   0  0  0  0  0  0  0  0  0  0  0  0
  1  2  1  0
  2  3  2  0
  3  4  1  0
  4  5  1  0
  4  6  2  0
  6  7  1  0
  7  8  2  0
  7  9  1  0
  9 10  1  0
 10 11  2  0
 11 12  1  0
 12 13  2  0
 13 14  1  0
 14 15  1  0
 15 16  2  0
 16 17  1  0
 17 18  2  0
 18 19  1  0
 14 20  2  0
  6 21  1  0
 21  2  1  0
 20 10  1  0
 19 15  1  0
  1 22  1  0
  1 23  1  0
  1 24  1  0
  3 25  1  0
  5 26  1  0
  5 27  1  0
  5 28  1  0
  9 29  1  0
 11 30  1  0
 12 31  1  0
 13 32  1  0
 18 33  1  0
 19 34  1  0
 20 35  1  0
M  END
$$$$
OCNT-2313185
     RDKit          3D

 36 39  0  0  0  0  0  0  0  0999 V2000
   -2.4616   -1.0085   -2.3203 C   0  0  0  0  0  0  0  0  0  0  0  0
   -1.8633   -0.9719   -0.9150 C   0  0  0  0  0  0  0  0  0  0  0  0
   -0.4960   -0.4292   -0.9999 N   0  0  0  0  0  0  0  0  0  0  0  0
    0.5510   -1.3357   -0.8771 C   0  0  0  0  0  0  0  0  0  0  0  0
    0.3809   -2.6136   -1.2873 N   0  0  0  0  0  0  0  0  0  0  0  0
    1.4069   -3.4743   -1.1872 C   0  0  0  0  0  0  0  0  0  0  0  0
    2.6328   -3.2378   -0.7150 N   0  0  0  0  0  0  0  0  0  0  0  0
    2.7818   -1.9618   -0.3232 C   0  0  0  0  0  0  0  0  0  0  0  0
    1.8110   -0.9601   -0.3679 C   0  0  0  0  0  0  0  0  0  0  0  0
    2.3649    0.2523    0.1324 C   0  0  0  0  0  0  0  0  0  0  0  0
    3.6734    0.1182    0.5092 C   0  0  0  0  0  0  0  0  0  0  0  0
    4.2926    1.3631    1.0175 C   0  0  0  0  0  0  0  0  0  0  0  0
    3.0317    2.2558    1.2217 C   0  0  0  0  0  0  0  0  0  0  0  0
    1.8959    1.6462    0.3408 C   0  0  0  0  0  0  0  0  0  0  0  0
    4.2910   -1.4197    0.3048 S   0  0  0  0  0  0  0  0  0  0  0  0
   -2.7315   -0.0990    0.0050 C   0  0  0  0  0  0  0  0  0  0  0  0
   -2.1835    1.0408    0.5001 N   0  0  0  0  0  0  0  0  0  0  0  0
   -2.9641    1.7771    1.3132 C   0  0  0  0  0  0  0  0  0  0  0  0
   -4.2480    1.4278    1.6557 C   0  0  0  0  0  0  0  0  0  0  0  0
   -4.7101    0.2539    1.1112 C   0  0  0  0  0  0  0  0  0  0  0  0
   -3.9804   -0.5252    0.2913 N   0  0  0  0  0  0  0  0  0  0  0  0
   -1.8559   -1.6300   -2.9887 H   0  0  0  0  0  0  0  0  0  0  0  0
   -2.5134   -0.0047   -2.7584 H   0  0  0  0  0  0  0  0  0  0  0  0
   -3.4770   -1.4195   -2.3102 H   0  0  0  0  0  0  0  0  0  0  0  0
   -1.8775   -1.9781   -0.4771 H   0  0  0  0  0  0  0  0  0  0  0  0
   -0.3938    0.3853   -0.3984 H   0  0  0  0  0  0  0  0  0  0  0  0
    1.2137   -4.4855   -1.5321 H   0  0  0  0  0  0  0  0  0  0  0  0
    4.8373    1.2258    1.9555 H   0  0  0  0  0  0  0  0  0  0  0  0
    4.9567    1.8027    0.2664 H   0  0  0  0  0  0  0  0  0  0  0  0
    2.7282    2.2080    2.2761 H   0  0  0  0  0  0  0  0  0  0  0  0
    3.2228    3.3068    0.9837 H   0  0  0  0  0  0  0  0  0  0  0  0
    1.8264    2.1745   -0.6157 H   0  0  0  0  0  0  0  0  0  0  0  0
    0.9347    1.7008    0.8587 H   0  0  0  0  0  0  0  0  0  0  0  0
   -2.5106    2.6873    1.6945 H   0  0  0  0  0  0  0  0  0  0  0  0
   -4.8551    2.0357    2.3114 H   0  0  0  0  0  0  0  0  0  0  0  0
   -5.7120   -0.1078    1.3241 H   0  0  0  0  0  0  0  0  0  0  0  0
  1  2  1  0
  2  3  1  0
  3  4  1  0
  4  5  1  0
  5  6  2  0
  6  7  1  0
  7  8  2  0
  8  9  1  0
  9 10  1  0
 10 11  2  0
 11 12  1  0
 12 13  1  0
 13 14  1  0
 11 15  1  0
  2 16  1  0
 16 17  2  0
 17 18  1  0
 18 19  2  0
 19 20  1  0
 20 21  2  0
  9  4  2  0
 14 10  1  0
 21 16  1  0
 15  8  1  0
  1 22  1  0
  1 23  1  0
  1 24  1  0
  2 25  1  0
  3 26  1  0
  6 27  1  0
 12 28  1  0
 12 29  1  0
 13 30  1  0
 13 31  1  0
 14 32  1  0
 14 33  1  0
 18 34  1  0
 19 35  1  0
 20 36  1  0
M  END
$$$$
